data_functionalizedCrystal
_audit_creation_method	'MofGen! by Chris Wilmer'
_symmetry_space_group_name_H-M	'P1'
_symmetry_Int_Tables_number	1
_symmetry_cell_setting	triclinic
loop_
_symmetry_equiv_pos_as_xyz
  x,y,z
_cell_length_a	18.215407
_cell_length_b	25.639240
_cell_length_c	18.215399
_cell_angle_alpha	89.962783
_cell_angle_beta	89.982632
_cell_angle_gamma	90.030201
loop_
_atom_site_label
_atom_site_type_symbol
_atom_site_fract_x
_atom_site_fract_y
_atom_site_fract_z
Zn1	Zn	1.125032	-0.208192	-0.416020
Zn2	Zn	1.458365	0.125141	-0.082687
Zn3	Zn	1.791698	0.458475	0.250647
Zn4	Zn	1.124923	-0.295628	-0.292934
Zn5	Zn	1.458256	0.037705	0.040400
Zn6	Zn	1.791590	0.371039	0.373733
Zn7	Zn	1.001964	-0.208204	-0.292973
Zn8	Zn	1.335298	0.125129	0.040361
Zn9	Zn	1.668631	0.458462	0.373694
Zn10	Zn	1.001913	-0.295594	-0.415964
Zn11	Zn	1.335247	0.037739	-0.082631
Zn12	Zn	1.668580	0.371073	0.250703
O13	O	1.063458	-0.251905	-0.354473
O14	O	1.396791	0.081429	-0.021139
O15	O	1.730125	0.414762	0.312194
O16	O	1.228001	-0.219799	-0.399700
O17	O	1.561335	0.113534	-0.066366
O18	O	1.894668	0.446867	0.266967
O19	O	1.108588	-0.284050	-0.189955
O20	O	1.441922	0.049283	0.143379
O21	O	1.775255	0.382616	0.476712
O22	O	1.018356	-0.135037	-0.309335
O23	O	1.351689	0.198296	0.023998
O24	O	1.685023	0.531629	0.357332
O25	O	1.227922	-0.284038	-0.309269
O26	O	1.561255	0.049295	0.024065
O27	O	1.894588	0.382629	0.357398
O28	O	1.108773	-0.135028	-0.399737
O29	O	1.442107	0.198305	-0.066404
O30	O	1.775440	0.531638	0.266929
O31	O	1.018251	-0.219821	-0.189983
O32	O	1.351584	0.113513	0.143350
O33	O	1.684918	0.446846	0.476683
O34	O	0.898973	-0.219788	-0.309281
O35	O	1.232307	0.113545	0.024053
O36	O	1.565640	0.446879	0.357386
O37	O	1.018269	-0.283981	-0.518956
O38	O	1.351602	0.049353	-0.185622
O39	O	1.684936	0.382686	0.147711
O40	O	0.898936	-0.283993	-0.399642
O41	O	1.232269	0.049340	-0.066308
O42	O	1.565602	0.382674	0.267025
O43	O	1.108724	-0.219767	-0.518997
O44	O	1.442057	0.113567	-0.185664
O45	O	1.775390	0.446900	0.147670
O46	O	1.108539	-0.368789	-0.309214
O47	O	1.441872	-0.035455	0.024119
O48	O	1.775205	0.297878	0.357452
O49	O	1.018164	-0.368764	-0.399604
O50	O	1.351497	-0.035431	-0.066271
O51	O	1.684831	0.297903	0.267063
C52	C	0.872252	-0.251888	-0.354460
C53	C	1.205585	0.081445	-0.021126
C54	C	1.538918	0.414778	0.312207
C55	C	0.790453	-0.251894	-0.354472
C56	C	1.123786	0.081439	-0.021138
C57	C	1.457120	0.414772	0.312195
C58	C	0.602299	-0.218514	-0.401633
C59	C	0.935633	0.114819	-0.068300
C60	C	1.268966	0.448153	0.265033
C61	C	0.525441	-0.218518	-0.401636
C62	C	0.858774	0.114815	-0.068303
C63	C	1.192107	0.448148	0.265031
C64	C	0.525369	-0.285310	-0.307325
C65	C	0.858702	0.048023	0.026009
C66	C	1.192035	0.381357	0.359342
C67	C	0.602226	-0.285302	-0.307319
C68	C	0.935559	0.048031	0.026014
C69	C	1.268893	0.381364	0.359347
C70	C	0.640689	-0.251905	-0.354478
C71	C	0.974023	0.081428	-0.021144
C72	C	1.307356	0.414762	0.312189
C73	C	0.486973	-0.251917	-0.354486
C74	C	0.820307	0.081416	-0.021152
C75	C	1.153640	0.414750	0.312181
C76	C	0.403640	-0.251922	-0.354488
C77	C	0.736973	0.081411	-0.021155
C78	C	1.070306	0.414744	0.312179
C79	C	0.724028	-0.251899	-0.354475
C80	C	1.057362	0.081434	-0.021141
C81	C	1.390695	0.414767	0.312192
C82	C	1.063354	-0.387747	-0.354415
C83	C	1.396687	-0.054414	-0.021082
C84	C	1.730021	0.278920	0.312252
C85	C	1.063377	-0.445861	-0.354415
C86	C	1.396710	-0.112528	-0.021082
C87	C	1.730044	0.220805	0.312252
C88	C	1.110562	-0.806181	-0.401630
C89	C	1.443895	-0.472848	-0.068297
C90	C	1.777228	-0.139514	0.265037
C91	C	1.110583	-0.860785	-0.401645
C92	C	1.443917	-0.527452	-0.068312
C93	C	1.777250	-0.194119	0.265022
O94	O	1.150578	-0.888985	-0.441730
O95	O	1.483911	-0.555652	-0.108396
O96	O	1.817244	-0.222319	0.224937
N97	N	1.063560	-0.888144	-0.354544
N98	N	1.396893	-0.554810	-0.021210
N99	N	1.730227	-0.221477	0.312123
C100	C	1.016507	-0.860895	-0.307430
C101	C	1.349840	-0.527561	0.025904
C102	C	1.683174	-0.194228	0.359237
O103	O	0.976512	-0.889179	-0.267368
O104	O	1.309845	-0.555846	0.065965
O105	O	1.643178	-0.222513	0.399298
C106	C	1.016482	-0.806291	-0.307419
C107	C	1.349815	-0.472958	0.025914
C108	C	1.683149	-0.139625	0.359248
C109	C	1.063514	-0.778936	-0.354518
C110	C	1.396847	-0.445603	-0.021185
C111	C	1.730180	-0.112269	0.312149
C112	C	1.157589	-0.778825	-0.448726
C113	C	1.490922	-0.445492	-0.115393
C114	C	1.824255	-0.112159	0.217941
C115	C	1.157568	-0.724225	-0.448710
C116	C	1.490901	-0.390891	-0.115376
C117	C	1.824234	-0.057558	0.217957
C118	C	1.110520	-0.696980	-0.401598
C119	C	1.443853	-0.363647	-0.068265
C120	C	1.777186	-0.030313	0.265069
C121	C	1.063493	-0.724335	-0.354502
C122	C	1.396826	-0.391002	-0.021169
C123	C	1.730159	-0.057669	0.312165
C124	C	0.969426	-0.779044	-0.260309
C125	C	1.302759	-0.445710	0.073024
C126	C	1.636092	-0.112377	0.406357
C127	C	0.969404	-0.724437	-0.260303
C128	C	1.302738	-0.391103	0.073030
C129	C	1.636071	-0.057770	0.406364
C130	C	1.016436	-0.697081	-0.307402
C131	C	1.349769	-0.363748	0.025931
C132	C	1.683103	-0.030414	0.359265
C133	C	1.016424	-0.642490	-0.307374
C134	C	1.349757	-0.309157	0.025959
C135	C	1.683090	0.024177	0.359293
N136	N	1.063447	-0.615132	-0.354475
N137	N	1.396780	-0.281798	-0.021142
N138	N	1.730114	0.051535	0.312191
C139	C	1.110495	-0.642377	-0.401587
C140	C	1.443828	-0.309043	-0.068254
C141	C	1.777162	0.024290	0.265079
C142	C	1.016562	-0.975565	-0.307457
C143	C	1.349895	-0.642232	0.025877
C144	C	1.683229	-0.308899	0.359210
C145	C	1.016590	-1.030168	-0.307463
C146	C	1.349923	-0.696834	0.025870
C147	C	1.683257	-0.363501	0.359204
C148	C	1.110665	-1.030054	-0.401680
C149	C	1.443999	-0.696721	-0.068346
C150	C	1.777332	-0.363388	0.264987
C151	C	1.110641	-0.975451	-0.401669
C152	C	1.443974	-0.642118	-0.068336
C153	C	1.777307	-0.308784	0.264998
C154	C	1.063585	-0.948207	-0.354558
C155	C	1.396918	-0.614874	-0.021225
C156	C	1.730252	-0.281540	0.312109
C157	C	1.110448	-0.527711	-0.401549
C158	C	1.443781	-0.194378	-0.068216
C159	C	1.777115	0.138955	0.265117
C160	C	1.110425	-0.473106	-0.401527
C161	C	1.443758	-0.139773	-0.068194
C162	C	1.777092	0.193561	0.265140
C163	C	1.016347	-0.473224	-0.307314
C164	C	1.349680	-0.139891	0.026020
C165	C	1.683014	0.193442	0.359353
C166	C	1.016372	-0.527825	-0.307333
C167	C	1.349706	-0.194491	0.026000
C168	C	1.683039	0.138842	0.359334
C169	C	1.063425	-0.555067	-0.354457
C170	C	1.396759	-0.221734	-0.021123
C171	C	1.730092	0.111600	0.312210
O172	O	0.976448	-0.614255	-0.267312
O173	O	1.309781	-0.280922	0.066022
O174	O	1.643114	0.052411	0.399355
O175	O	1.150477	-0.614086	-0.441649
O176	O	1.483810	-0.280752	-0.108315
O177	O	1.817143	0.052581	0.225018
C178	C	1.255411	-0.251921	-0.354486
C179	C	1.588744	0.081412	-0.021153
C180	C	1.922078	0.414746	0.312181
C181	C	1.337210	-0.251928	-0.354492
C182	C	1.670543	0.081405	-0.021158
C183	C	2.003876	0.414739	0.312175
C184	C	1.063503	-0.251869	-0.546426
C185	C	1.396836	0.081465	-0.213092
C186	C	1.730170	0.414798	0.120241
C187	C	1.063522	-0.251853	-0.628225
C188	C	1.396855	0.081480	-0.294891
C189	C	1.730189	0.414814	0.038442
C190	C	1.063582	-0.115532	-0.354547
C191	C	1.396916	0.217802	-0.021213
C192	C	1.730249	0.551135	0.312120
C193	C	1.063636	-0.057417	-0.354578
C194	C	1.396969	0.275916	-0.021245
C195	C	1.730302	0.609249	0.312089
C196	C	1.110639	-0.218386	-0.816441
C197	C	1.443972	0.114948	-0.483108
C198	C	1.777305	0.448281	-0.149775
C199	C	1.110647	-0.218370	-0.893300
C200	C	1.443981	0.114963	-0.559967
C201	C	1.777314	0.448296	-0.226633
C202	C	1.016457	-0.285240	-0.893246
C203	C	1.349791	0.048093	-0.559913
C204	C	1.683124	0.381427	-0.226579
C205	C	1.016445	-0.285252	-0.816389
C206	C	1.349779	0.048081	-0.483055
C207	C	1.683112	0.381415	-0.149722
C208	C	1.063540	-0.251826	-0.777988
C209	C	1.396874	0.081508	-0.444655
C210	C	1.730207	0.414841	-0.111322
C211	C	1.063561	-0.251798	-0.931704
C212	C	1.396894	0.081535	-0.598371
C213	C	1.730228	0.414868	-0.265038
C214	C	1.063570	-0.251782	-1.015038
C215	C	1.396903	0.081551	-0.681705
C216	C	1.730237	0.414885	-0.348371
C217	C	1.063530	-0.251841	-0.694649
C218	C	1.396864	0.081492	-0.361316
C219	C	1.730197	0.414826	-0.027982
C220	C	1.063456	-0.251903	-0.163266
C221	C	1.396789	0.081431	0.170067
C222	C	1.730122	0.414764	0.503400
C223	C	1.063579	-0.251771	-0.081468
C224	C	1.396913	0.081563	0.251865
C225	C	1.730246	0.414896	0.585199
H226	H	0.633614	-0.191318	-0.440031
H227	H	0.966947	0.142015	-0.106697
H228	H	1.300281	0.475349	0.226636
H229	H	1.148937	-0.953181	-0.440021
H230	H	1.482271	-0.619848	-0.106688
H231	H	1.815604	-0.286515	0.226645
H232	H	0.633484	-0.312494	-0.268915
H233	H	0.966817	0.020839	0.064418
H234	H	1.300151	0.354173	0.397751
C235	C	1.209294	-0.694138	-0.500525
C236	C	1.542628	-0.360805	-0.167191
C237	C	1.875961	-0.027471	0.166142
H238	H	1.202553	-0.657715	-0.493774
H239	H	1.535886	-0.324382	-0.160440
H240	H	1.869219	0.008952	0.172893
H241	H	1.198495	-0.703069	-0.549961
H242	H	1.531828	-0.369736	-0.216628
H243	H	1.865162	-0.036403	0.116705
H244	H	1.258754	-0.703066	-0.489797
H245	H	1.592087	-0.369733	-0.156464
H246	H	1.925420	-0.036399	0.176869
H247	H	0.978300	-1.052436	-0.269102
H248	H	1.311633	-0.719103	0.064231
H249	H	1.644967	-0.385769	0.397564
H250	H	0.978043	-0.451033	-0.268953
H251	H	1.311376	-0.117700	0.064380
H252	H	1.644710	0.215634	0.397713
C253	C	1.162431	-0.181612	-0.774203
C254	C	1.495764	0.151721	-0.440870
C255	C	1.829098	0.485055	-0.107536
H256	H	1.190476	-0.161690	-0.808115
H257	H	1.523809	0.171643	-0.474782
H258	H	1.857143	0.504977	-0.141448
H259	H	1.194477	-0.201614	-0.744211
H260	H	1.527811	0.131719	-0.410878
H261	H	1.861144	0.465052	-0.077545
H262	H	1.134285	-0.158833	-0.744234
H263	H	1.467619	0.174500	-0.410901
H264	H	1.800952	0.507833	-0.077567
H265	H	0.494187	-0.191327	-0.440034
H266	H	0.827520	0.142006	-0.106700
H267	H	1.160854	0.475340	0.226633
C268	C	1.162416	-1.060028	-0.453508
C269	C	1.495749	-0.726695	-0.120174
C270	C	1.829082	-0.393362	0.213159
H271	H	1.190425	-1.035919	-0.481557
H272	H	1.523759	-0.702586	-0.148223
H273	H	1.857092	-0.369252	0.185110
H274	H	1.134250	-1.081327	-0.485549
H275	H	1.467584	-0.747994	-0.152216
H276	H	1.800917	-0.414661	0.181118
H277	H	1.194507	-1.081326	-0.425384
H278	H	1.527841	-0.747993	-0.092050
H279	H	1.861174	-0.414660	0.241283
H280	H	1.148726	-0.450835	-0.439880
H281	H	1.482060	-0.117502	-0.106547
H282	H	1.815393	0.215832	0.226786
H283	H	0.978246	-0.953386	-0.269087
H284	H	1.311579	-0.620053	0.064246
H285	H	1.644912	-0.286719	0.397579
C286	C	1.162211	-0.557670	-0.453378
C287	C	1.495544	-0.224337	-0.120044
C288	C	1.828878	0.108996	0.213289
H289	H	1.190218	-0.533552	-0.481415
H290	H	1.523551	-0.200219	-0.148081
H291	H	1.856884	0.133115	0.185252
H292	H	1.134060	-0.578970	-0.485430
H293	H	1.467393	-0.245637	-0.152097
H294	H	1.800726	0.087696	0.181237
H295	H	1.194306	-0.578966	-0.425253
H296	H	1.527639	-0.245633	-0.091920
H297	H	1.860972	0.087700	0.241413
H298	H	0.494042	-0.312501	-0.268931
H299	H	0.827376	0.020832	0.064403
H300	H	1.160709	0.354165	0.397736
C301	C	0.964636	-0.322037	-0.774084
C302	C	1.297969	0.011297	-0.440750
C303	C	1.631302	0.344630	-0.107417
H304	H	0.971369	-0.317252	-0.722811
H305	H	1.304702	0.016082	-0.389478
H306	H	1.638036	0.349415	-0.056144
H307	H	0.975374	-0.357166	-0.786657
H308	H	1.308708	-0.023832	-0.453323
H309	H	1.642041	0.309501	-0.119990
H310	H	0.915195	-0.314375	-0.786677
H311	H	1.248528	0.018958	-0.453343
H312	H	1.581862	0.352291	-0.120010
C313	C	1.209351	-0.808787	-0.500549
C314	C	1.542684	-0.475453	-0.167216
C315	C	1.876017	-0.142120	0.166117
H316	H	1.237354	-0.784667	-0.528587
H317	H	1.570687	-0.451334	-0.195254
H318	H	1.904021	-0.118000	0.138079
H319	H	1.181202	-0.830089	-0.532601
H320	H	1.514535	-0.496755	-0.199267
H321	H	1.847868	-0.163422	0.134066
H322	H	1.241448	-0.830080	-0.472424
H323	H	1.574781	-0.496747	-0.139091
H324	H	1.908114	-0.163413	0.194243
C325	C	0.917681	-0.809125	-0.208511
C326	C	1.251015	-0.475792	0.124822
C327	C	1.584348	-0.142459	0.458156
H328	H	0.924426	-0.845549	-0.215256
H329	H	1.257760	-0.512216	0.118077
H330	H	1.591093	-0.178882	0.451411
H331	H	0.868231	-0.800192	-0.219248
H332	H	1.201564	-0.466858	0.114085
H333	H	1.534897	-0.133525	0.447418
H334	H	0.928471	-0.800199	-0.159067
H335	H	1.261805	-0.466865	0.174267
H336	H	1.595138	-0.133532	0.507600
C337	C	0.917644	-0.694471	-0.208478
C338	C	1.250977	-0.361138	0.124855
C339	C	1.584310	-0.027805	0.458189
H340	H	0.889644	-0.718587	-0.180429
H341	H	1.222977	-0.385254	0.152904
H342	H	1.556311	-0.051920	0.486237
H343	H	0.885554	-0.673172	-0.236595
H344	H	1.218887	-0.339838	0.096739
H345	H	1.552220	-0.006505	0.430072
H346	H	0.945807	-0.673175	-0.176425
H347	H	1.279140	-0.339842	0.156908
H348	H	1.612474	-0.006508	0.490241
C349	C	0.964641	-0.557917	-0.255524
C350	C	1.297974	-0.224584	0.077809
C351	C	1.631308	0.108750	0.411142
H352	H	0.936616	-0.533868	-0.227467
H353	H	1.269949	-0.200535	0.105866
H354	H	1.603282	0.132798	0.439200
H355	H	0.992812	-0.579226	-0.223490
H356	H	1.326146	-0.245892	0.109843
H357	H	1.659479	0.087441	0.443177
H358	H	0.932563	-0.579214	-0.283663
H359	H	1.265896	-0.245881	0.049670
H360	H	1.599230	0.087453	0.383004
C361	C	1.162459	-0.181589	-0.935595
C362	C	1.495792	0.151745	-0.602262
C363	C	1.829126	0.485078	-0.268929
H364	H	1.190507	-0.161687	-0.901715
H365	H	1.523840	0.171646	-0.568382
H366	H	1.857174	0.504979	-0.235049
H367	H	1.134335	-0.158799	-0.965587
H368	H	1.467668	0.174534	-0.632253
H369	H	1.801002	0.507867	-0.298920
H370	H	1.194513	-0.201591	-0.965570
H371	H	1.527846	0.131743	-0.632236
H372	H	1.861180	0.465076	-0.298903
H373	H	0.978116	-0.312456	-0.924521
H374	H	1.311449	0.020878	-0.591188
H375	H	1.644783	0.354211	-0.257854
