data_functionalizedCrystal
_audit_creation_method	'MofGen! by Chris Wilmer'
_symmetry_space_group_name_H-M	'P1'
_symmetry_Int_Tables_number	1
_symmetry_cell_setting	triclinic
loop_
_symmetry_equiv_pos_as_xyz
  x,y,z
_cell_length_a	14.519709
_cell_length_b	10.723024
_cell_length_c	9.198806
_cell_angle_alpha	90.003648
_cell_angle_beta	89.995869
_cell_angle_gamma	95.925993
loop_
_atom_site_label
_atom_site_type_symbol
_atom_site_fract_x
_atom_site_fract_y
_atom_site_fract_z
O1	O	0.129347	-1.655978	-0.120886
O2	O	0.629347	-1.155978	0.379114
O3	O	0.141728	-1.292710	-0.120892
O4	O	0.641728	-0.792710	0.379108
O5	O	0.001349	-1.483976	-0.120876
O6	O	0.501349	-0.983976	0.379124
O7	O	0.269727	-1.464713	-0.120902
O8	O	0.769727	-0.964713	0.379098
O9	O	0.001348	-1.483960	0.120909
O10	O	0.501348	-0.983960	0.620909
O11	O	0.141728	-1.292695	0.120893
O12	O	0.641728	-0.792695	0.620893
O13	O	0.129347	-1.655963	0.120899
O14	O	0.629347	-1.155963	0.620899
Cu15	Cu	0.135538	-1.474328	0.142973
Cu16	Cu	0.635538	-0.974328	0.642973
Cu17	Cu	0.135538	-1.474345	-0.142966
Cu18	Cu	0.635538	-0.974345	0.357034
O19	O	0.269727	-1.464697	0.120883
O20	O	0.769727	-0.964697	0.620883
C21	C	-0.033016	-1.483070	0.000017
C22	C	0.466984	-0.983070	0.500017
C23	C	-0.135411	-1.480380	0.000018
C24	C	0.364589	-0.980380	0.500018
C25	C	0.140827	-1.246211	0.000000
C26	C	0.640827	-0.746211	0.500000
C27	C	0.138132	-1.107682	-0.000001
C28	C	0.638132	-0.607682	0.499999
C29	C	0.130248	-1.702462	0.000003
C30	C	0.630248	-1.202462	0.500003
C31	C	0.132944	-1.840991	-0.000005
C32	C	0.632944	-1.340991	0.499995
C33	C	-0.510357	-1.470476	-0.000020
C34	C	-0.010357	-0.970476	0.499980
C35	C	-0.406035	-1.473227	-0.000009
C36	C	0.093965	-0.973227	0.499991
C37	C	-0.322887	-1.475428	0.000000
C38	C	0.177113	-0.975428	0.500000
C39	C	-0.218559	-1.478179	0.000008
C40	C	0.281441	-0.978179	0.500008
C41	C	0.304091	-1.465603	-0.000013
C42	C	0.804091	-0.965603	0.499987
C43	C	0.406486	-1.468293	-0.000024
C44	C	0.906486	-0.968293	0.499976
N45	N	0.135537	-1.474324	0.344087
N46	N	0.635537	-0.974324	0.844087
C47	C	0.216681	-1.031965	-0.000010
C48	C	0.716681	-0.531965	0.499990
C49	C	0.213896	-0.888788	-0.000012
C50	C	0.713896	-0.388788	0.499988
N51	N	0.135532	-1.474359	-0.344080
N52	N	0.635532	-0.974359	0.155920
C53	C	0.076335	-1.554633	0.416290
C54	C	0.576335	-1.054633	0.916290
C55	C	0.076332	-1.554653	0.583703
C56	C	0.576332	-1.054653	1.083703
H57	H	0.285991	-1.073139	-0.000009
H58	H	0.785991	-0.573139	0.499991
H59	H	0.281141	-0.823726	-0.000025
H60	H	0.781141	-0.323726	0.499975
N61	N	0.199135	-1.388097	0.578071
N62	N	0.699135	-0.888097	1.078071
N63	N	0.284371	-1.390303	0.594956
N64	N	0.784371	-0.890303	1.094956
H65	H	0.329293	-1.329380	0.539968
H66	H	0.829293	-0.829380	1.039968
H67	H	0.186216	-1.405578	0.406209
H68	H	0.686216	-0.905578	0.906209
H69	H	0.065696	-0.906045	-0.000006
H70	H	0.565696	-0.406045	0.499994
H71	H	0.068822	-1.066508	-0.000032
H72	H	0.568822	-0.566508	0.499968
N73	N	0.012750	-1.640856	0.338349
N74	N	0.512750	-1.140856	0.838349
N75	N	0.012840	-1.640714	0.202465
N76	N	0.512840	-1.140714	0.702465
H77	H	-0.032069	-1.701610	0.147419
H78	H	0.467931	-1.201610	0.647419
N79	N	0.012749	-1.640901	0.661608
N80	N	0.512749	-1.140901	1.161608
N81	N	0.012834	-1.640791	0.797492
N82	N	0.512834	-1.140791	1.297492
H83	H	-0.032076	-1.701703	0.852518
H84	H	0.467924	-1.201703	1.352518
