data_functionalizedCrystal
_audit_creation_method	'MofGen! by Chris Wilmer'
_symmetry_space_group_name_H-M	'P1'
_symmetry_Int_Tables_number	1
_symmetry_cell_setting	triclinic
loop_
_symmetry_equiv_pos_as_xyz
  x,y,z
_cell_length_a	8.597366
_cell_length_b	15.944493
_cell_length_c	7.681481
_cell_angle_alpha	84.264607
_cell_angle_beta	103.474720
_cell_angle_gamma	84.408914
loop_
_atom_site_label
_atom_site_type_symbol
_atom_site_fract_x
_atom_site_fract_y
_atom_site_fract_z
O1	O	2.099809	0.116155	0.172170
O2	O	1.635746	0.129541	0.101763
O3	O	1.880497	0.000570	0.138882
O4	O	1.855059	0.245126	0.135052
O5	O	1.910622	-0.015340	0.436308
O6	O	1.665871	0.113631	0.399190
O7	O	2.129934	0.100245	0.469596
Zn8	Zn	1.902685	0.104412	0.481616
Zn9	Zn	1.862995	0.125374	0.089744
O10	O	1.885183	0.229216	0.432478
C11	C	1.591425	0.121035	0.241467
C12	C	1.414482	0.119384	0.214620
C13	C	1.894519	-0.038679	0.287430
C14	C	1.891399	-0.131927	0.286934
C15	C	2.035469	-0.367697	0.308825
C16	C	1.942926	-0.410416	0.150392
C17	C	1.885625	-0.302649	0.286079
C18	C	1.972592	-0.426078	0.443626
C19	C	1.880059	-0.467559	0.285263
C20	C	1.793110	-0.344133	0.127532
C21	C	1.822811	-0.359798	0.420901
C22	C	1.730155	-0.402482	0.262415
C23	C	1.888835	-0.207648	0.286548
C24	C	1.876836	-0.562557	0.284780
C25	C	2.174255	0.108751	0.329889
C26	C	2.351197	0.110403	0.356724
C27	C	1.871161	0.268466	0.283926
C28	C	1.874280	0.361713	0.284410
N29	N	1.929785	0.090105	0.749060
N30	N	1.835908	0.139674	-0.177698
H31	H	1.333297	0.125803	0.072410
H32	H	2.164525	-0.352069	0.328260
N33	N	1.453012	0.102342	0.535158
N34	N	1.460261	0.037191	0.643174
H35	H	1.532164	0.031499	0.769194
N36	N	1.715701	0.203146	0.709722
N37	N	1.698906	0.212009	0.542587
H38	H	1.614010	0.256838	0.463065
H39	H	1.993650	-0.432734	0.036013
N40	N	2.050015	0.026622	0.861597
N41	N	2.138273	-0.019986	0.792826
H42	H	2.223184	-0.064821	0.872302
H43	H	1.600975	-0.417936	0.242738
N44	N	1.698009	-0.299640	-0.040197
N45	N	1.685139	-0.220364	-0.066932
H46	H	1.617979	-0.188938	-0.185390
H47	H	1.772142	-0.337466	0.535292
H48	H	2.048461	-0.461645	0.577201
