data_functionalizedCrystal
_audit_creation_method	'MofGen! by Chris Wilmer'
_symmetry_space_group_name_H-M	'P1'
_symmetry_Int_Tables_number	1
_symmetry_cell_setting	triclinic
loop_
_symmetry_equiv_pos_as_xyz
  x,y,z
_cell_length_a	14.908571
_cell_length_b	18.101395
_cell_length_c	14.908308
_cell_angle_alpha	93.266316
_cell_angle_beta	90.175053
_cell_angle_gamma	86.727274
loop_
_atom_site_label
_atom_site_type_symbol
_atom_site_fract_x
_atom_site_fract_y
_atom_site_fract_z
Zn1	Zn	1.345208	-0.386468	-0.587575
Zn2	Zn	1.845208	0.113532	-0.087575
Zn3	Zn	1.353762	-0.503604	-0.437213
Zn4	Zn	1.853762	-0.003604	0.062787
Zn5	Zn	1.203527	-0.372244	-0.428573
Zn6	Zn	1.703527	0.127756	0.071427
Zn7	Zn	1.194790	-0.502724	-0.578865
Zn8	Zn	1.694790	-0.002724	-0.078865
O9	O	1.274322	-0.441260	-0.508057
O10	O	1.774322	0.058740	-0.008057
O11	O	1.472167	-0.408328	-0.574890
O12	O	1.972167	0.091672	-0.074890
O13	O	1.341069	-0.480594	-0.310243
O14	O	1.841069	0.019406	0.189757
O15	O	1.222397	-0.270503	-0.449694
O16	O	1.722397	0.229497	0.050306
O17	O	1.478452	-0.494387	-0.464420
O18	O	1.978452	0.005613	0.035580
O19	O	1.326490	-0.280953	-0.566512
O20	O	1.826490	0.219047	-0.066512
O21	O	1.230692	-0.384085	-0.303895
O22	O	1.730692	0.115915	0.196105
O23	O	1.076543	-0.383231	-0.441249
O24	O	1.576543	0.116769	0.058751
O25	O	1.207507	-0.492887	-0.705845
O26	O	1.707507	0.007113	-0.205845
O27	O	1.070124	-0.479094	-0.551667
O28	O	1.570124	0.020906	-0.051667
O29	O	1.318019	-0.407474	-0.712244
O30	O	1.818019	0.092526	-0.212244
O31	O	1.332598	-0.607115	-0.455974
O32	O	1.832598	-0.107115	0.044026
O33	O	1.215801	-0.606469	-0.560045
O34	O	1.715801	-0.106469	-0.060045
C35	C	1.040709	-0.429524	-0.494576
C36	C	1.540709	0.070476	0.005424
C37	C	0.940767	-0.424523	-0.488830
C38	C	1.440767	0.075477	0.011170
C39	C	1.274203	-0.633663	-0.508023
C40	C	1.774203	-0.133663	-0.008023
C41	C	1.274233	-0.715980	-0.508044
C42	C	1.774233	-0.215980	-0.008044
C43	C	0.746339	-0.515086	-0.592857
C44	C	1.246339	-0.015086	-0.092857
C45	C	0.652434	-0.510389	-0.587462
C46	C	1.152434	-0.010389	-0.087462
C47	C	0.659052	-0.410428	-0.472648
C48	C	1.159052	0.089572	0.027352
C49	C	0.752956	-0.415125	-0.478044
C50	C	1.252956	0.084875	0.021956
C51	C	0.796596	-0.467457	-0.538149
C52	C	1.296596	0.032543	-0.038149
C53	C	0.890503	-0.472157	-0.543540
C54	C	1.390503	0.027843	-0.043540
C55	C	0.897118	-0.372193	-0.428731
C56	C	1.397118	0.127807	0.071269
C57	C	0.803213	-0.367496	-0.423336
C58	C	1.303213	0.132504	0.076664
C59	C	1.274427	-1.015083	-0.508104
C60	C	1.774427	-0.515083	-0.008104
C61	C	1.201093	-0.983397	-0.573764
C62	C	1.701093	-0.483397	-0.073764
C63	C	1.200777	-0.897753	-0.573527
C64	C	1.700777	-0.397753	-0.073527
C65	C	1.274331	-0.866694	-0.508075
C66	C	1.774331	-0.366694	-0.008075
C67	C	1.254147	-0.892332	-0.411835
C68	C	1.754147	-0.392332	0.088165
C69	C	1.253677	-0.977973	-0.412227
C70	C	1.753677	-0.477973	0.087773
C71	C	1.368144	-0.989281	-0.537857
C72	C	1.868144	-0.489281	-0.037857
C73	C	1.367465	-0.903695	-0.539903
C74	C	1.867465	-0.403695	-0.039903
C75	C	1.274278	-0.782831	-0.508053
C76	C	1.774278	-0.282831	-0.008053
C77	C	1.274478	-1.098945	-0.508119
C78	C	1.774478	-0.598945	-0.008119
C79	C	1.508847	-0.453042	-0.521591
C80	C	2.008847	0.046958	-0.021591
C81	C	1.608787	-0.458063	-0.527358
C82	C	2.108787	0.041937	-0.027358
C83	C	1.260834	-0.451669	-0.742582
C84	C	1.760834	0.048331	-0.242582
C85	C	1.255087	-0.456105	-0.842522
C86	C	1.755087	0.043895	-0.342522
C87	C	1.274464	-0.248107	-0.508111
C88	C	1.774464	0.251893	-0.008111
C89	C	1.274525	-0.165797	-0.508134
C90	C	1.774525	0.334203	-0.008134
C91	C	1.359359	-0.375483	-1.036986
C92	C	1.859359	0.124517	-0.536986
C93	C	1.353962	-0.379648	-1.130890
C94	C	1.853962	0.120352	-0.630890
C95	C	1.238890	-0.468597	-1.124234
C96	C	1.738890	0.031403	-0.624234
C97	C	1.244288	-0.464432	-1.030330
C98	C	1.744288	0.035568	-0.530330
C99	C	1.304525	-0.417874	-0.986710
C100	C	1.804525	0.082126	-0.486710
C101	C	1.309927	-0.413713	-0.892805
C102	C	1.809927	0.086287	-0.392805
C103	C	1.194851	-0.502657	-0.886151
C104	C	1.694851	-0.002657	-0.386151
C105	C	1.189453	-0.506822	-0.980054
C106	C	1.689453	-0.006822	-0.480054
C107	C	1.287808	-0.430840	-0.274447
C108	C	1.787808	0.069160	0.225553
C109	C	1.293730	-0.426205	-0.174517
C110	C	1.793730	0.073795	0.325483
H111	H	0.926033	-0.514769	-0.592479
H112	H	1.426033	-0.014769	-0.092479
H113	H	0.781872	-0.557700	-0.641793
H114	H	1.281872	-0.057700	-0.141793
N115	N	1.439085	-0.877621	-0.484835
N116	N	1.939085	-0.377621	0.015165
N117	N	1.453468	-0.810157	-0.479239
N118	N	1.953468	-0.310157	0.020761
H119	H	1.504048	-0.791742	-0.440338
H120	H	2.004048	-0.291742	0.059662
N121	N	0.758645	-0.314035	-0.361944
N122	N	1.258645	0.185965	0.138056
N123	N	0.768819	-0.246505	-0.368649
N124	N	1.268819	0.253495	0.131351
H125	H	0.737345	-0.208747	-0.325289
H126	H	1.237345	0.291253	0.174711
N127	N	1.319326	-0.866869	-0.348468
N128	N	1.819326	-0.366869	0.151532
N129	N	1.314074	-0.882032	-0.267965
N130	N	1.814074	-0.382032	0.232035
H131	H	1.360106	-0.864047	-0.223211
H132	H	1.860106	-0.364047	0.276789
H133	H	1.212915	-1.007887	-0.645171
H134	H	1.712915	-0.507887	-0.145171
N135	N	1.409962	-0.336349	-1.182261
N136	N	1.909962	0.163651	-0.682261
N137	N	1.375344	-0.289899	-1.232847
N138	N	1.875344	0.210101	-0.732847
H139	H	1.414894	-0.259316	-1.269130
H140	H	1.914894	0.240684	-0.769130
H141	H	0.611518	-0.549172	-0.632012
H142	H	1.111518	-0.049172	-0.132012
N143	N	1.177328	-0.516115	-1.168803
N144	N	1.677328	-0.016115	-0.668803
N145	N	1.094969	-0.506539	-1.153527
N146	N	1.594969	-0.006539	-0.653527
H147	H	1.051480	-0.540087	-1.185011
H148	H	1.551480	-0.040087	-0.685011
H149	H	1.305069	-0.998720	-0.361342
H150	H	1.805069	-0.498720	0.138658
H151	H	0.938048	-0.333411	-0.384182
H152	H	1.438048	0.166589	0.115818
H153	H	1.408412	-0.337578	-1.001471
H154	H	1.908412	0.162422	-0.501471
N155	N	1.127925	-0.554369	-1.024629
N156	N	1.627925	-0.054369	-0.524629
N157	N	1.123110	-0.558080	-1.108470
N158	N	1.623110	-0.058080	-0.608470
H159	H	1.079655	-0.591661	-1.139951
H160	H	1.579655	-0.091661	-0.639951
H161	H	1.186561	-0.866562	-0.386941
H162	H	1.686561	-0.366562	0.113059
N163	N	1.436618	-1.015099	-0.477970
N164	N	1.936618	-0.515099	0.022030
N165	N	1.516463	-1.000421	-0.489974
N166	N	2.016463	-0.500421	0.010026
H167	H	1.564818	-1.018658	-0.447677
H168	H	2.064818	-0.518658	0.052323
N169	N	1.371464	-0.366157	-0.848260
N170	N	1.871464	0.133843	-0.348260
N171	N	1.420416	-0.328311	-0.893166
N172	N	1.920416	0.171689	-0.393166
H173	H	1.463877	-0.294722	-0.861709
H174	H	1.963877	0.205278	-0.361709
N175	N	1.215824	-0.876277	-0.662836
N176	N	1.715824	-0.376277	-0.162836
N177	N	1.226632	-0.924585	-0.725777
N178	N	1.726632	-0.424585	-0.225777
H179	H	1.237256	-0.909421	-0.788856
H180	H	1.737256	-0.409421	-0.288856
H181	H	1.150203	-0.537177	-0.845206
H182	H	1.650203	-0.037177	-0.345206
H183	H	1.185333	-0.993611	-0.387659
H184	H	1.685333	-0.493611	0.112341
H185	H	1.387612	-1.015032	-0.607127
H186	H	1.887612	-0.515032	-0.107127
N187	N	1.114339	-1.005186	-0.548781
N188	N	1.614339	-0.505186	-0.048781
N189	N	1.106285	-1.043948	-0.482829
N190	N	1.606285	-0.543948	0.017171
H191	H	1.045015	-1.059338	-0.465182
H192	H	1.545015	-0.559338	0.034818
H193	H	1.131201	-0.873076	-0.553387
H194	H	1.631201	-0.373076	-0.053387
N195	N	0.614450	-0.356975	-0.411270
N196	N	1.114450	0.143025	0.088730
N197	N	0.530607	-0.352788	-0.406470
N198	N	1.030607	0.147212	0.093530
H199	H	0.499105	-0.315036	-0.363122
H200	H	0.999105	0.184964	0.136878
H201	H	1.382784	-0.887413	-0.610757
H202	H	1.882784	-0.387413	-0.110757
