data_functionalizedCrystal
_audit_creation_method	'MofGen! by Chris Wilmer'
_symmetry_space_group_name_H-M	'P1'
_symmetry_Int_Tables_number	1
_symmetry_cell_setting	triclinic
loop_
_symmetry_equiv_pos_as_xyz
  x,y,z
_cell_length_a	14.044220
_cell_length_b	11.026607
_cell_length_c	9.482900
_cell_angle_alpha	101.363848
_cell_angle_beta	100.188801
_cell_angle_gamma	79.112553
loop_
_atom_site_label
_atom_site_type_symbol
_atom_site_fract_x
_atom_site_fract_y
_atom_site_fract_z
O1	O	0.392560	-1.671574	-0.120918
O2	O	0.892560	-1.171574	0.379082
O3	O	0.346512	-1.313283	-0.120917
O4	O	0.846512	-0.813283	0.379083
O5	O	0.230635	-1.487049	-0.120903
O6	O	0.730635	-0.987049	0.379097
O7	O	0.508437	-1.497809	-0.120932
O8	O	1.008437	-0.997809	0.379068
O9	O	0.254293	-1.451766	0.120886
O10	O	0.754293	-0.951766	0.620886
O11	O	0.370170	-1.278001	0.120872
O12	O	0.870170	-0.778001	0.620872
O13	O	0.416218	-1.636292	0.120871
O14	O	0.916218	-1.136292	0.620871
Cu15	Cu	0.395354	-1.453925	0.142949
Cu16	Cu	0.895354	-0.953925	0.642949
Cu17	Cu	0.367376	-1.495650	-0.142995
Cu18	Cu	0.867376	-0.995650	0.357005
O19	O	0.532095	-1.462526	0.120857
O20	O	1.032095	-0.962526	0.620857
C21	C	0.349846	-1.249512	-0.000022
C22	C	0.849846	-0.749512	0.499978
C23	C	0.324521	-1.112056	-0.000022
C24	C	0.824521	-0.612056	0.499978
C25	C	0.206346	-1.464699	-0.000008
C26	C	0.706346	-0.964699	0.499992
C27	C	0.098724	-1.450655	-0.000006
C28	C	0.598724	-0.950655	0.499994
C29	C	0.412884	-1.700064	-0.000027
C30	C	0.912884	-1.200064	0.499973
C31	C	0.438207	-1.837521	-0.000037
C32	C	0.938207	-1.337521	0.499963
C33	C	-0.098320	-1.424983	-0.000027
C34	C	0.401680	-0.924983	0.499973
C35	C	-0.138958	-1.524588	-0.000032
C36	C	0.361042	-1.024588	0.499968
C37	C	-0.248600	-1.510304	-0.000043
C38	C	0.251400	-1.010304	0.499957
C39	C	0.011332	-1.439266	-0.000015
C40	C	0.511332	-0.939266	0.499985
C41	C	0.556383	-1.484876	-0.000041
C42	C	1.056383	-0.984876	0.499959
C43	C	0.664004	-1.498922	-0.000053
C44	C	1.164004	-0.998922	0.499947
N45	N	0.415033	-1.424586	0.344067
N46	N	0.915033	-0.924586	0.844067
C47	C	0.394445	-1.045821	-0.000030
C48	C	0.894445	-0.545821	0.499970
C49	C	0.368273	-0.903753	-0.000029
C50	C	0.868273	-0.403753	0.499971
N51	N	0.347690	-1.524998	-0.344113
N52	N	0.847690	-1.024998	0.155887
C53	C	0.373174	-1.486988	0.416271
C54	C	0.873174	-0.986988	0.916271
C55	C	0.389556	-1.462587	0.583687
C56	C	0.889556	-0.962587	1.083687
H57	H	-0.091415	-1.620606	-0.000129
H58	H	0.408585	-1.120606	0.499871
H59	H	-0.145870	-1.328988	-0.000030
H60	H	0.354130	-0.828988	0.499970
H61	H	0.517453	-0.885983	-0.000036
H62	H	1.017453	-0.385983	0.499964
C63	C	0.501493	-1.111288	-0.000043
C64	C	1.001493	-0.611288	0.499957
H65	H	0.505039	-1.198187	-0.000052
H66	H	1.005039	-0.698187	0.499948
H67	H	0.540992	-1.075735	0.084268
H68	H	1.040992	-0.575735	0.584268
H69	H	0.524484	-1.100346	-0.084377
H70	H	1.024484	-0.600346	0.415623
C71	C	0.261219	-0.838293	-0.000026
C72	C	0.761219	-0.338293	0.499974
H73	H	0.257671	-0.751397	-0.000038
H74	H	0.757671	-0.251397	0.499962
H75	H	0.238217	-0.849238	0.084290
H76	H	0.738217	-0.349238	0.584290
H77	H	0.221727	-0.873849	-0.084355
H78	H	0.721727	-0.373849	0.415645
C79	C	0.454360	-1.366008	0.667593
C80	C	0.954360	-0.866008	1.167593
H81	H	0.456876	-1.362284	0.769108
H82	H	0.956876	-0.862284	1.269108
H83	H	0.427513	-1.285920	0.642742
H84	H	0.927513	-0.785920	1.142742
H85	H	0.518681	-1.390258	0.642711
H86	H	1.018681	-0.890258	1.142711
C87	C	0.282915	-1.621612	0.571984
C88	C	0.782915	-1.121612	1.071984
H89	H	0.280418	-1.625359	0.470469
H90	H	0.780418	-1.125359	0.970469
H91	H	0.218593	-1.597409	0.596850
H92	H	0.718593	-1.097409	1.096850
H93	H	0.309798	-1.701692	0.596854
H94	H	0.809798	-1.201692	1.096854
C95	C	0.217473	-1.046591	-0.000019
C96	C	0.717473	-0.546591	0.499981
H97	H	0.213924	-0.959695	-0.000031
H98	H	0.713924	-0.459695	0.499969
H99	H	0.194470	-1.057536	0.084298
H100	H	0.694470	-0.557536	0.584298
H101	H	0.177981	-1.082147	-0.084348
H102	H	0.677981	-0.582147	0.415652
H103	H	0.325203	-1.558472	0.354149
H104	H	0.825203	-1.058472	0.854149
C105	C	0.479834	-1.328012	0.427979
C106	C	0.979834	-0.828012	0.927979
H107	H	0.482350	-1.324288	0.529493
H108	H	0.982350	-0.824288	1.029493
H109	H	0.452988	-1.247923	0.403127
H110	H	0.952988	-0.747923	0.903127
H111	H	0.544156	-1.352261	0.403097
H112	H	1.044156	-0.852261	0.903097
