data_functionalizedCrystal
_audit_creation_method	'MofGen! by Chris Wilmer'
_symmetry_space_group_name_H-M	'P1'
_symmetry_Int_Tables_number	1
_symmetry_cell_setting	triclinic
loop_
_symmetry_equiv_pos_as_xyz
  x,y,z
_cell_length_a	12.759401
_cell_length_b	19.077068
_cell_length_c	12.759393
_cell_angle_alpha	92.262348
_cell_angle_beta	89.979062
_cell_angle_gamma	92.328499
loop_
_atom_site_label
_atom_site_type_symbol
_atom_site_fract_x
_atom_site_fract_y
_atom_site_fract_z
Zn1	Zn	1.589374	-0.280138	-0.610771
Zn2	Zn	1.582167	-0.397851	-0.442129
Zn3	Zn	1.413670	-0.280175	-0.435108
Zn4	Zn	1.406569	-0.397802	-0.617763
O5	O	1.497945	-0.338992	-0.526443
O6	O	1.735438	-0.295758	-0.588412
O7	O	1.559771	-0.382278	-0.294179
O8	O	1.442966	-0.181680	-0.452545
O9	O	1.730143	-0.382241	-0.464512
O10	O	1.572054	-0.181652	-0.581604
O11	O	1.435977	-0.295822	-0.289020
O12	O	1.265708	-0.295774	-0.459326
O13	O	1.430863	-0.382158	-0.763855
O14	O	1.260490	-0.382194	-0.593522
O15	O	1.565169	-0.295710	-0.758717
O16	O	1.552885	-0.496336	-0.471292
O17	O	1.423874	-0.496300	-0.600330
C18	C	1.224978	-0.338983	-0.526421
C19	C	1.108201	-0.338996	-0.526438
C20	C	1.050645	-0.384064	-0.596212
C21	C	0.940921	-0.384066	-0.596233
C22	C	0.946317	-0.293932	-0.456697
C23	C	1.056040	-0.293927	-0.456682
C24	C	1.486856	-0.521855	-0.537355
C25	C	1.482208	-0.600085	-0.542058
C26	C	1.547245	-0.636833	-0.477141
C27	C	1.542880	-0.710338	-0.481570
C28	C	1.473471	-0.747094	-0.550913
C29	C	1.408431	-0.710341	-0.615838
C30	C	1.412802	-0.636837	-0.611413
C31	C	1.453194	-0.966927	-0.571352
C32	C	1.448825	-1.040436	-0.575770
C33	C	1.583276	-1.040429	-0.441503
C34	C	1.587637	-0.966923	-0.437080
C35	C	1.522600	-0.930177	-0.502008
N36	N	1.469005	-0.822228	-0.555441
N37	N	1.527073	-0.855044	-0.497485
C38	C	1.771978	-0.339001	-0.526465
C39	C	1.888754	-0.339005	-0.526474
C40	C	1.498028	-0.338924	-0.800472
C41	C	1.498063	-0.338895	-0.917247
C42	C	1.509106	-0.155414	-0.515511
C43	C	1.513862	-0.077184	-0.510853
C44	C	1.568001	-0.293875	-0.969435
C45	C	1.568021	-0.293845	-1.079158
C46	C	1.428160	-0.383861	-1.084494
C47	C	1.428136	-0.383887	-0.974774
C48	C	1.497926	-0.339008	-0.253476
C49	C	1.498106	-0.338839	-0.136690
H50	H	0.894064	-0.420764	-0.653052
H51	H	1.371231	-0.420494	-1.131346
H52	H	1.624937	-0.257238	-0.922600
O53	O	1.606094	-0.745926	-0.418400
C54	C	1.739949	-0.738161	-0.284797
C55	C	1.668396	-0.697771	-0.356263
H56	H	1.790354	-0.699246	-0.234556
H57	H	1.689742	-0.772613	-0.231826
H58	H	1.792776	-0.772534	-0.335164
H59	H	1.615557	-0.663360	-0.305978
H60	H	1.718666	-0.663364	-0.409239
O61	O	0.895479	-0.250222	-0.388975
C62	C	0.728840	-0.210249	-0.327205
C63	C	0.786276	-0.259800	-0.403939
H64	H	0.640541	-0.217965	-0.339292
H65	H	0.749546	-0.222536	-0.243164
H66	H	0.753926	-0.153520	-0.342401
H67	H	0.761222	-0.316546	-0.388838
H68	H	0.765569	-0.247452	-0.487955
H69	H	1.371177	-0.420548	-0.932281
H70	H	1.093112	-0.420761	-0.653015
O71	O	1.111795	-0.250124	-0.388797
C72	C	1.105579	-0.160693	-0.250440
C73	C	1.042308	-0.210275	-0.327238
H74	H	1.049427	-0.128452	-0.200665
H75	H	1.154940	-0.192926	-0.197273
H76	H	1.159226	-0.123960	-0.296589
H77	H	0.988603	-0.247018	-0.281174
H78	H	0.993016	-0.177998	-0.380405
H79	H	1.644155	-0.936998	-0.380615
H80	H	1.603761	-0.606911	-0.420670
O81	O	1.646495	-1.076016	-0.378338
C82	C	1.780367	-1.068250	-0.244751
C83	C	1.708806	-1.027861	-0.316209
H84	H	1.830779	-1.029334	-0.194518
H85	H	1.730167	-1.102701	-0.191773
H86	H	1.833187	-1.102624	-0.295124
H87	H	1.655973	-0.993449	-0.265919
H88	H	1.759068	-0.993454	-0.369193
O89	O	1.381377	-1.076034	-0.643234
C90	C	1.248451	-1.068289	-0.775913
C91	C	1.324799	-1.027888	-0.699582
H92	H	1.202672	-1.029381	-0.821475
H93	H	1.294575	-1.102627	-0.833019
H94	H	1.191531	-1.102777	-0.729691
H95	H	1.381736	-0.993362	-0.745717
H96	H	1.278607	-0.993595	-0.642476
H97	H	1.624970	-0.257183	-1.121644
H98	H	1.351921	-0.740273	-0.672303
O99	O	1.389967	-0.931157	-0.634260
C100	C	1.253001	-0.848273	-0.643267
C101	C	1.324563	-0.888732	-0.571903
H102	H	1.200088	-0.813974	-0.592881
H103	H	1.303201	-0.813756	-0.696154
H104	H	1.202684	-0.887181	-0.693609
H105	H	1.374893	-0.849875	-0.521496
H106	H	1.274302	-0.923259	-0.519087
O107	O	1.349522	-0.601247	-0.674517
C108	C	1.215762	-0.609007	-0.808215
C109	C	1.287344	-0.649399	-0.736782
H110	H	1.165488	-0.647921	-0.858590
H111	H	1.162821	-0.574667	-0.757924
H112	H	1.266047	-0.574522	-0.861069
H113	H	1.237142	-0.683922	-0.683916
H114	H	1.340291	-0.683695	-0.787136
