data_functionalizedCrystal
_audit_creation_method	'MofGen! by Chris Wilmer'
_symmetry_space_group_name_H-M	'P1'
_symmetry_Int_Tables_number	1
_symmetry_cell_setting	triclinic
loop_
_symmetry_equiv_pos_as_xyz
  x,y,z
_cell_length_a	15.298068
_cell_length_b	15.297327
_cell_length_c	15.296720
_cell_angle_alpha	107.319222
_cell_angle_beta	91.645182
_cell_angle_gamma	69.203785
loop_
_atom_site_label
_atom_site_type_symbol
_atom_site_fract_x
_atom_site_fract_y
_atom_site_fract_z
Zn1	Zn	1.197195	0.284933	0.766898
Zn2	Zn	1.197093	0.413569	0.638277
Zn3	Zn	1.077911	0.275626	0.593773
Zn4	Zn	1.014735	0.467265	0.766750
O5	O	1.121733	0.360348	0.691425
O6	O	1.323421	0.283420	0.768523
O7	O	1.207680	0.368904	0.506153
O8	O	1.120216	0.142824	0.598175
O9	O	1.323345	0.377929	0.674025
O10	O	1.207854	0.149661	0.725369
O11	O	1.120117	0.267558	0.473457
O12	O	0.943291	0.319624	0.598032
O13	O	1.012542	0.469445	0.892990
O14	O	0.896876	0.460420	0.725118
O15	O	1.146595	0.335486	0.893098
O16	O	1.146420	0.554729	0.673882
O17	O	1.012442	0.594178	0.768271
C18	C	0.887351	0.394840	0.656731
C19	C	0.787072	0.409623	0.641913
C20	C	0.504410	0.254931	0.797364
C21	C	0.598626	0.241046	0.811291
C22	C	0.645742	0.283188	0.768948
C23	C	0.598634	0.339220	0.712675
C24	C	0.504407	0.353113	0.698752
C25	C	0.645739	0.381370	0.670335
C26	C	0.598630	0.437402	0.614063
C27	C	0.504413	0.451292	0.600142
C28	C	0.457297	0.409149	0.642485
C29	C	0.739965	0.367477	0.684259
C30	C	0.739962	0.465659	0.585647
C31	C	0.645747	0.479544	0.571719
C32	C	1.072585	0.609208	0.725913
C33	C	1.051636	0.715666	0.740710
C34	C	1.072533	0.409493	0.926687
C35	C	1.051567	0.430436	1.026941
C36	C	1.357031	0.325723	0.726255
C37	C	1.457300	0.310967	0.741097
C38	C	1.171094	0.110517	0.656824
C39	C	1.192128	0.004053	0.642080
C40	C	1.271770	0.933472	0.586032
C41	C	1.291454	0.833449	0.572125
C42	C	1.231502	0.803998	0.614270
C43	C	1.151861	0.874580	0.670325
C44	C	1.132172	0.974613	0.684227
C45	C	1.091903	0.845139	0.712466
C46	C	1.012263	0.915721	0.768520
C47	C	0.992577	1.015743	0.782420
C48	C	1.052530	1.045194	0.740275
C49	C	1.111592	0.745106	0.698563
C50	C	0.971994	0.786247	0.796758
C51	C	0.952310	0.886270	0.810665
C52	C	1.170808	0.311318	0.457076
C53	C	1.192002	0.290079	0.356810
C54	C	1.271650	0.210495	1.309770
C55	C	1.291354	0.190819	1.215577
C56	C	1.231409	0.250721	1.168413
C57	C	1.151756	0.330303	1.215452
C58	C	1.132054	0.349986	1.309656
C59	C	1.091813	0.390212	1.168299
C60	C	1.012160	0.469794	1.215338
C61	C	0.992461	0.489472	1.309533
C62	C	1.052406	0.429570	1.356696
C63	C	1.111515	0.370529	1.074095
C64	C	0.971919	0.510020	1.073981
C65	C	0.952215	0.529696	1.168174
H66	H	0.722458	0.271875	0.780287
H67	H	0.927720	1.073210	0.828051
H68	H	1.320452	0.161736	1.348181
H69	H	1.176436	0.687646	0.652923
C70	C	0.856450	0.625372	1.299955
C71	C	0.904909	0.576951	1.361240
H72	H	0.802396	0.679373	1.331877
H73	H	0.896196	0.648552	1.274108
H74	H	0.837879	0.581028	1.252324
H75	H	0.923486	0.621293	1.408868
H76	H	0.865155	0.553772	1.387101
H77	H	0.778312	0.321854	0.730075
H78	H	0.887361	0.594492	1.206487
H79	H	0.380576	0.420460	0.631155
C80	C	0.513879	0.546938	0.504058
C81	C	0.452629	0.512885	0.538289
H82	H	0.481910	0.584957	0.465868
H83	H	0.535183	0.586420	0.553816
H84	H	0.566075	0.492527	0.469261
H85	H	0.400436	0.567297	0.573092
H86	H	0.431311	0.473401	0.488524
H87	H	0.636973	0.195428	0.857112
C88	C	0.956138	0.700936	0.900579
C89	C	0.906088	0.753889	0.843094
H90	H	0.915450	0.680961	0.929185
H91	H	1.006378	0.644592	0.865210
H92	H	0.980517	0.741353	0.946340
H93	H	0.881715	0.713469	0.797329
H94	H	0.855831	0.810241	0.878466
C95	C	0.359971	0.232642	0.819797
C96	C	0.452620	0.208613	0.843902
H97	H	0.328001	0.204039	0.848527
H98	H	0.329098	0.302025	0.839540
H99	H	0.359985	0.208143	0.754973
H100	H	0.452606	0.233118	0.908725
H101	H	0.483501	0.139216	0.824164
H102	H	1.356296	0.775984	0.526485
H103	H	0.607378	0.525167	0.525902
C104	C	0.940127	0.541784	0.929532
C105	C	0.906018	0.575869	1.022148
H106	H	0.899442	0.582432	0.897529
H107	H	1.001189	0.543663	0.925013
H108	H	0.942866	0.476144	0.903241
H109	H	0.903285	0.641507	1.048441
H110	H	0.844939	0.574000	1.026672
H111	H	1.036509	1.126640	0.751598
H112	H	1.320571	0.957462	0.551717
H113	H	0.778322	0.499980	0.551172
H114	H	1.247532	0.722553	0.602943
C115	C	1.029173	0.545490	1.507661
C116	C	1.030748	0.451199	1.460239
H117	H	1.015798	0.558840	1.571583
H118	H	1.088568	0.549026	1.497264
H119	H	0.982070	0.592552	1.486304
H120	H	1.077856	0.404136	1.481591
H121	H	0.971345	0.447654	1.470642
H122	H	0.887466	0.943752	0.856305
C123	C	1.203697	0.278416	0.929752
C124	C	1.199058	0.283049	1.022393
H125	H	1.257747	0.224406	0.897836
H126	H	1.149088	0.270094	0.903409
H127	H	1.207418	0.337604	0.925184
H128	H	1.195329	0.223863	1.026961
H129	H	1.253681	0.291364	1.048744
C130	C	1.373385	0.016111	1.170650
C131	C	1.378897	0.103333	1.163885
H132	H	1.427431	-0.037906	1.138735
H133	H	1.370222	0.019279	1.233497
H134	H	1.318769	0.007801	1.144290
H135	H	1.433510	0.111646	1.190251
H136	H	1.382070	0.100165	1.101025
H137	H	1.247457	0.234696	1.091717
