data_functionalizedCrystal
_audit_creation_method	'MofGen! by Chris Wilmer'
_symmetry_space_group_name_H-M	'P1'
_symmetry_Int_Tables_number	1
_symmetry_cell_setting	triclinic
loop_
_symmetry_equiv_pos_as_xyz
  x,y,z
_cell_length_a	10.654550
_cell_length_b	10.654551
_cell_length_c	18.366186
_cell_angle_alpha	90.002252
_cell_angle_beta	90.012604
_cell_angle_gamma	84.485132
loop_
_atom_site_label
_atom_site_type_symbol
_atom_site_fract_x
_atom_site_fract_y
_atom_site_fract_z
O1	O	1.667850	0.176398	0.060605
O2	O	1.302372	0.193205	0.060592
O3	O	1.493513	0.002062	0.060599
O4	O	1.476709	0.367541	0.060598
O5	O	1.493480	0.002057	-0.060500
O6	O	1.302338	0.193199	-0.060507
O7	O	1.667817	0.176393	-0.060495
Zn8	Zn	1.485072	0.184795	-0.079728
Zn9	Zn	1.485116	0.184802	0.079826
O10	O	1.476675	0.367535	-0.060502
C11	C	1.255557	0.191968	0.000041
C12	C	1.116114	0.188276	0.000037
C13	C	1.036629	0.300817	0.000047
C14	C	0.905608	0.297341	0.000060
C15	C	0.933570	0.068771	0.000055
C16	C	1.064589	0.072249	0.000037
C17	C	1.088154	0.416844	0.000047
C18	C	1.008667	0.529395	0.000058
C19	C	0.877647	0.525918	0.000070
C20	C	0.826112	0.409891	0.000072
C21	C	1.492263	-0.044739	0.000051
C22	C	1.488570	-0.184182	0.000056
C23	C	1.486856	-0.249691	0.066066
C24	C	1.483376	-0.380711	0.066062
C25	C	1.483329	-0.380703	-0.065967
C26	C	1.486800	-0.249684	-0.065963
C27	C	1.488626	-0.184189	0.132084
C28	C	1.486913	-0.249698	0.198100
C29	C	1.483433	-0.380718	0.198096
C30	C	1.481665	-0.446229	0.132077
C31	C	1.714632	0.177629	0.000058
C32	C	1.854075	0.181321	0.000067
C33	C	1.477926	0.414336	0.000048
C34	C	1.481619	0.553779	0.000048
N35	N	1.485051	0.184789	-0.188619
C36	C	1.561873	0.261675	-0.226711
C37	C	1.561894	0.261672	-0.302939
C38	C	1.485069	0.184797	-0.341072
C39	C	1.408242	0.107895	-0.302971
C40	C	1.408233	0.107891	-0.226744
C41	C	1.371817	0.180280	-0.461856
C42	C	1.371823	0.180293	-0.538081
C43	C	1.485097	0.184801	-0.576179
C44	C	1.598368	0.189323	-0.538043
C45	C	1.598359	0.189320	-0.461817
C46	C	1.485071	0.184792	-0.423727
C47	C	1.561948	0.261688	-0.696926
C48	C	1.561971	0.261676	-0.773155
C49	C	1.408308	0.107906	-0.773186
C50	C	1.408296	0.107911	-0.696958
C51	C	1.485115	0.184809	-0.658833
N52	N	1.485147	0.184798	0.188717
H53	H	0.891600	-0.025693	0.000068
O54	O	1.481448	-0.444453	-0.130047
C55	C	1.370845	-0.506937	-0.134010
H56	H	1.334145	-0.522142	-0.076696
H57	H	1.296142	-0.447144	-0.166587
C58	C	1.445596	-0.616749	-0.242149
C59	C	1.400525	-0.635433	-0.171754
H60	H	1.463901	-0.696008	-0.265434
H61	H	1.520109	-0.574649	-0.239481
H62	H	1.383335	-0.566917	-0.269287
H63	H	1.462791	-0.685249	-0.144615
H64	H	1.326023	-0.677544	-0.174418
H65	H	1.488169	-0.196342	-0.119714
H66	H	1.624499	0.324302	-0.665883
H67	H	1.129308	-0.019392	0.000031
H68	H	1.624430	0.324287	-0.195674
O69	O	1.636554	0.336483	-0.339839
C70	C	1.704380	0.404325	-0.289843
H71	H	1.652454	0.411166	-0.235512
H72	H	1.802513	0.353511	-0.281725
C73	C	1.779824	0.529432	-0.386317
C74	C	1.716043	0.537843	-0.319589
H75	H	1.787025	0.611790	-0.404667
H76	H	1.734133	0.483723	-0.420001
H77	H	1.861596	0.487081	-0.379543
H78	H	1.634268	0.580178	-0.326366
H79	H	1.761721	0.583562	-0.285907
H80	H	1.690588	0.192998	-0.430769
O81	O	1.481822	-0.444167	0.262284
C82	C	1.484093	-0.358249	0.320550
H83	H	1.526257	-0.269710	0.301199
H84	H	1.383892	-0.332010	0.340847
C85	C	1.513187	-0.528187	0.406685
C86	C	1.564984	-0.419446	0.382920
H87	H	1.563079	-0.565936	0.445159
H88	H	1.511653	-0.586072	0.367431
H89	H	1.429688	-0.506305	0.423595
H90	H	1.648475	-0.441331	0.366002
H91	H	1.566534	-0.361565	0.422173
O92	O	1.488663	-0.185876	0.262161
C93	C	1.492059	-0.056182	0.248012
H94	H	1.532229	-0.043137	0.191287
H95	H	1.392461	-0.006710	0.251126
C96	C	1.526707	-0.014985	0.374650
C97	C	1.576055	0.001036	0.304980
H98	H	1.578515	0.020313	0.409791
H99	H	1.524415	-0.102361	0.384183
H100	H	1.443710	0.026242	0.377234
H101	H	1.659043	-0.040203	0.302394
H102	H	1.578363	0.088407	0.295447
H103	H	1.491463	-0.077506	0.132095
H104	H	1.478813	-0.552913	0.132080
H105	H	1.690606	0.193001	-0.569061
O106	O	1.636636	0.336485	-0.810048
C107	C	1.704452	0.404328	-0.760047
H108	H	1.652516	0.411170	-0.705720
H109	H	1.802584	0.353515	-0.751923
C110	C	1.779913	0.529433	-0.856517
C111	C	1.716119	0.537845	-0.789793
H112	H	1.787116	0.611791	-0.874867
H113	H	1.734228	0.483723	-0.890204
H114	H	1.861684	0.487084	-0.849738
H115	H	1.634346	0.580180	-0.796575
H116	H	1.761791	0.583566	-0.756108
O117	O	1.333715	0.033344	-0.810332
C118	C	1.350146	0.049882	-0.885781
H119	H	1.386720	0.145371	-0.896166
H120	H	1.421026	-0.028177	-0.907443
C121	C	1.178020	-0.072877	-0.912150
C122	C	1.222930	0.044409	-0.924906
H123	H	1.099550	-0.076259	-0.936286
H124	H	1.166952	-0.084024	-0.861319
H125	H	1.237098	-0.137914	-0.930203
H126	H	1.163860	0.109442	-0.906845
H127	H	1.233985	0.055567	-0.975735
O128	O	0.800613	0.635360	0.000110
C129	C	0.874192	0.738506	0.000086
H130	H	0.971701	0.707478	0.023001
H131	H	0.883786	0.774019	-0.058012
C132	C	0.690124	0.883229	0.019442
C133	C	0.809883	0.845122	0.047593
H134	H	0.650454	0.948997	0.048743
H135	H	0.640551	0.813738	0.019455
H136	H	0.698136	0.912815	-0.028972
H137	H	0.801868	0.815522	0.096002
H138	H	0.859453	0.914610	0.047588
O139	O	1.333542	0.033199	-0.660064
C140	C	1.265760	-0.034680	-0.710064
H141	H	1.258889	0.017245	-0.764400
H142	H	1.316644	-0.132783	-0.718165
C143	C	1.140706	-0.110223	-0.613601
C144	C	1.132257	-0.046442	-0.680336
H145	H	1.058357	-0.117484	-0.595263
H146	H	1.186374	-0.064496	-0.579914
H147	H	1.183114	-0.191969	-0.620361
H148	H	1.089864	0.035307	-0.673573
H149	H	1.086578	-0.092156	-0.714021
O150	O	1.261691	0.175863	-0.575011
C151	C	1.161707	0.171907	-0.525042
H152	H	1.200278	0.133533	-0.470704
H153	H	1.113275	0.271057	-0.516929
C154	C	1.018436	0.132618	-0.621557
C155	C	1.065809	0.085476	-0.554821
H156	H	0.959278	0.079309	-0.639927
H157	H	1.085795	0.135288	-0.655223
H158	H	0.978085	0.215242	-0.614787
H159	H	1.106172	0.002861	-0.561593
H160	H	0.998454	0.082790	-0.521156
O161	O	1.333482	0.033171	-0.189851
C162	C	1.265704	-0.034714	-0.239850
H163	H	1.258833	0.017206	-0.294187
H164	H	1.316590	-0.132817	-0.247948
C165	C	1.140648	-0.110252	-0.143386
C166	C	1.132200	-0.046477	-0.210123
H167	H	1.058298	-0.117514	-0.125048
H168	H	1.186314	-0.064521	-0.109700
H169	H	1.183058	-0.191998	-0.150143
H170	H	1.089805	0.035272	-0.203363
H171	H	1.086524	-0.092195	-0.243807
H172	H	1.279567	0.176617	-0.430843
H173	H	1.050636	0.623860	0.000050
H174	H	1.194836	0.419687	0.000040
H175	H	0.719425	0.407069	0.000071
H176	H	1.345692	0.045301	-0.334024
