data_functionalizedCrystal
_audit_creation_method	'MofGen! by Chris Wilmer'
_symmetry_space_group_name_H-M	'P1'
_symmetry_Int_Tables_number	1
_symmetry_cell_setting	triclinic
loop_
_symmetry_equiv_pos_as_xyz
  x,y,z
_cell_length_a	14.853568
_cell_length_b	14.853569
_cell_length_c	13.330367
_cell_angle_alpha	89.991664
_cell_angle_beta	89.999845
_cell_angle_gamma	96.364624
loop_
_atom_site_label
_atom_site_type_symbol
_atom_site_fract_x
_atom_site_fract_y
_atom_site_fract_z
O1	O	-0.117710	1.196369	-0.083416
O2	O	-0.131730	0.933910	-0.083416
O3	O	0.006510	1.072150	-0.083421
O4	O	-0.255949	1.058129	-0.083411
O5	O	0.006512	1.072128	0.083426
O6	O	-0.131727	0.933888	0.083431
O7	O	-0.117707	1.196347	0.083431
Cu8	Cu	-0.124717	1.065116	0.098665
Cu9	Cu	-0.124720	1.065141	-0.098651
O10	O	-0.255947	1.058107	0.083436
C11	C	0.040100	1.071504	-0.000001
C12	C	0.140183	1.069599	-0.000011
C13	C	-0.131093	0.900310	0.000007
C14	C	-0.129189	0.800227	0.000007
C15	C	-0.118344	1.229947	0.000005
C16	C	-0.120249	1.330030	-0.000001
C17	C	0.552718	0.979433	0.000001
C18	C	0.573998	1.143666	0.000001
C19	C	0.479964	1.145456	-0.000003
C20	C	0.422303	1.064233	-0.000004
C21	C	0.458675	0.981221	-0.000000
C22	C	0.443584	1.228467	0.000003
C23	C	0.349545	1.230261	-0.000000
C24	C	0.291882	1.149037	-0.000008
C25	C	0.328260	1.066021	-0.000005
C26	C	0.270598	0.984799	-0.000006
C27	C	0.306974	0.901782	-0.000011
C28	C	0.401012	0.899997	-0.000008
C29	C	0.197845	1.150822	-0.000011
C30	C	0.176556	0.986587	-0.000008
C31	C	0.710463	1.058753	0.000010
C32	C	0.610379	1.060655	0.000002
N33	N	-0.124715	1.065104	0.237447
C34	C	-0.203259	1.366407	-0.000002
C35	C	-0.039027	1.387696	0.000003
C36	C	-0.040813	1.481730	0.000003
C37	C	-0.123824	1.518107	0.000002
C38	C	-0.205049	1.460450	0.000001
C39	C	0.040410	1.539395	0.000014
C40	C	0.038626	1.633435	0.000015
C41	C	-0.044386	1.669813	0.000006
C42	C	-0.125613	1.612150	0.000004
C43	C	-0.208624	1.648527	0.000003
C44	C	-0.289853	1.590864	-0.000007
C45	C	-0.288060	1.496828	-0.000008
C46	C	-0.046178	1.763850	0.000008
C47	C	-0.210413	1.742569	0.000005
C48	C	-0.185912	1.003918	0.710072
C49	C	-0.063528	1.126372	0.710036
C50	C	-0.063525	1.126363	0.605017
C51	C	-0.124717	1.065131	0.552521
C52	C	-0.185913	1.003908	0.605044
C53	C	-0.002337	1.187591	0.552487
C54	C	-0.002332	1.187586	0.447462
C55	C	-0.063520	1.126348	0.394964
C56	C	-0.124718	1.065122	0.447493
C57	C	-0.185910	1.003890	0.394997
C58	C	-0.247103	0.942659	0.447525
C59	C	-0.247101	0.942671	0.552546
C60	C	-0.063523	1.126336	0.289943
C61	C	-0.185910	1.003881	0.289969
N62	N	-0.124720	1.065150	0.762568
H63	H	0.260014	0.835651	-0.000004
C64	C	0.157829	1.242126	-0.000003
H65	H	0.093566	1.231559	0.000001
H66	H	0.177617	1.275587	-0.058181
H67	H	0.177609	1.275558	0.058193
C68	C	0.507010	1.317803	0.000011
H69	H	0.568224	1.304846	0.000001
H70	H	0.495973	1.351826	0.058197
H71	H	0.495974	1.351847	-0.058177
H72	H	0.047496	1.237442	0.404701
C73	C	-0.314412	0.875309	0.389772
H74	H	-0.305642	0.884077	0.319704
H75	H	-0.374601	0.885168	0.406981
H76	H	-0.304502	0.815129	0.406990
C77	C	-0.301727	1.782576	0.000004
H78	H	-0.349842	1.734766	0.000005
H79	H	-0.305836	1.818831	-0.058175
H80	H	-0.305842	1.818804	0.058199
H81	H	0.620951	1.209793	0.000010
H82	H	0.319937	1.297858	0.000002
C83	C	-0.381161	1.630881	-0.000008
H84	H	-0.429283	1.583077	-0.000008
H85	H	-0.385265	1.667139	-0.058186
H86	H	-0.385272	1.667109	0.058188
H87	H	-0.296924	0.892820	0.595320
H88	H	-0.354192	1.449872	-0.000016
H89	H	-0.013704	1.176194	0.247180
C90	C	-0.292604	1.302986	-0.000008
H91	H	-0.279655	1.241770	-0.000005
H92	H	-0.326636	1.314037	-0.058190
H93	H	-0.326635	1.314016	0.058184
C94	C	0.113135	0.897240	-0.000007
H95	H	0.148270	0.847547	-0.000003
H96	H	0.076006	0.894531	-0.058188
H97	H	0.076012	0.894515	0.058186
C98	C	-0.253222	0.936571	0.767845
H99	H	-0.244465	0.945346	0.837912
H100	H	-0.243323	0.876393	0.750645
H101	H	-0.313413	0.946441	0.750631
C102	C	0.003777	1.193722	0.767778
H103	H	-0.004985	1.184956	0.837848
H104	H	-0.006120	1.253898	0.750549
H105	H	0.063968	1.183849	0.750573
C106	C	0.064966	1.254941	0.610231
H107	H	0.056208	1.246169	0.680301
H108	H	0.055064	1.315117	0.593009
H109	H	0.125158	1.245075	0.593022
C110	C	0.441027	0.808690	0.000001
H111	H	0.505291	0.819260	0.000016
H112	H	0.421251	0.775243	-0.058180
H113	H	0.421239	0.775241	0.058194
C114	C	0.131715	1.499384	0.000014
H115	H	0.179833	1.547191	0.000028
H116	H	0.135827	1.463155	-0.058173
H117	H	0.135820	1.463131	0.058201
C118	C	0.052277	1.347684	0.000007
H119	H	0.041709	1.283420	0.000001
H120	H	0.085725	1.367461	0.058189
H121	H	0.085723	1.367473	-0.058185
C122	C	0.592726	0.888121	0.000001
H123	H	0.656989	0.898684	0.000007
H124	H	0.572940	0.854680	-0.058180
H125	H	0.572941	0.854671	0.058193
H126	H	0.104768	1.680376	0.000022
H127	H	0.019957	1.810794	0.000019
H128	H	-0.235737	0.954015	0.247234
