data_functionalizedCrystal
_audit_creation_method	'MofGen! by Chris Wilmer'
_symmetry_space_group_name_H-M	'P1'
_symmetry_Int_Tables_number	1
_symmetry_cell_setting	triclinic
loop_
_symmetry_equiv_pos_as_xyz
  x,y,z
_cell_length_a	27.435584
_cell_length_b	27.434948
_cell_length_c	27.431174
_cell_angle_alpha	60.005483
_cell_angle_beta	60.011353
_cell_angle_gamma	59.993028
loop_
_atom_site_label
_atom_site_type_symbol
_atom_site_fract_x
_atom_site_fract_y
_atom_site_fract_z
O1	O	0.067437	-0.712144	0.595551
O2	O	0.025356	-0.554453	0.479848
O3	O	0.125206	-0.654236	0.479781
O4	O	-0.032412	-0.612361	0.595618
O5	O	0.158328	-0.621117	0.512835
O6	O	0.058479	-0.521333	0.512902
O7	O	0.100560	-0.679025	0.628605
Zn8	Zn	0.084778	-0.594921	0.576001
Zn9	Zn	0.041138	-0.638557	0.532452
O10	O	0.000710	-0.579241	0.628672
N11	N	0.114563	-0.565144	0.605726
N12	N	0.011358	-0.668338	0.502727
C13	C	0.156385	-0.523520	0.904506
C14	C	0.413419	-0.523497	0.647322
C15	C	0.156253	-0.523488	0.647384
C16	C	0.156238	-0.266354	0.647407
C17	C	0.197637	-0.390463	0.688753
C18	C	0.197646	-0.482126	0.688741
C19	C	0.220575	-0.459215	0.711654
C20	C	0.320555	-0.441991	0.659023
C21	C	0.383051	-0.462825	0.638179
C22	C	0.383069	-0.563942	0.676737
C23	C	0.320575	-0.543107	0.697583
C24	C	0.212704	-0.359206	0.627313
C25	C	0.191849	-0.296705	0.606496
C26	C	0.140866	-0.296722	0.708562
C27	C	0.161721	-0.359223	0.729379
C28	C	0.136200	-0.467030	0.703858
C29	C	0.115361	-0.487857	0.683021
C30	C	0.217408	-0.538877	0.631968
C31	C	0.238249	-0.518050	0.652796
C32	C	0.136259	-0.467047	0.811668
C33	C	0.115461	-0.487892	0.874167
C34	C	0.217537	-0.538923	0.874131
C35	C	0.238333	-0.518080	0.811631
C36	C	0.197693	-0.482140	0.780401
C37	C	0.289320	-0.482131	0.688723
C38	C	0.132699	-0.546027	0.973247
C39	C	0.482158	-0.545613	0.624075
C40	C	0.132521	-0.546006	0.624886
C41	C	0.132917	-0.197607	0.625310
C42	C	-0.098217	-0.686189	0.484419
C43	C	-0.006438	-0.686322	0.392891
C44	C	-0.006621	-0.777944	0.484592
C45	C	-0.006606	-0.686315	0.484649
C46	C	-0.029470	-0.709193	0.461638
N47	N	0.538410	-0.565162	0.605628
O48	O	0.742647	-0.575135	0.458625
O49	O	0.742821	-0.691181	0.616169
O50	O	0.742757	-0.690917	0.516248
O51	O	0.742711	-0.575399	0.558546
O52	O	0.643472	-0.657878	0.549405
O53	O	0.643536	-0.658142	0.649326
O54	O	0.643362	-0.542096	0.491782
Zn55	Zn	0.627685	-0.594873	0.575818
Zn56	Zn	0.758498	-0.638404	0.532133
O57	O	0.643426	-0.542360	0.591702
N58	N	0.847774	-0.668115	0.502317
N59	N	0.114542	-0.141354	0.605766
O60	O	-0.032397	0.062987	0.595660
O61	O	0.125155	0.062987	0.479633
O62	O	0.025219	0.062974	0.479910
O63	O	0.067539	0.063001	0.595383
O64	O	0.058343	-0.036320	0.513009
O65	O	0.158279	-0.036306	0.512732
O66	O	0.000728	-0.036306	0.628759
Zn67	Zn	0.084763	-0.052071	0.576000
Zn68	Zn	0.041120	0.078752	0.532392
O69	O	0.100664	-0.036292	0.628482
N70	N	0.011333	0.168036	0.502628
N71	N	0.114782	-0.565197	1.029501
O72	O	0.104681	-0.712124	1.233827
O73	O	-0.011334	-0.554523	1.233839
O74	O	-0.011066	-0.654443	1.233797
O75	O	0.104414	-0.612204	1.233869
O76	O	0.022028	-0.621336	1.134509
O77	O	0.021760	-0.521417	1.134551
O78	O	0.137775	-0.679018	1.134539
Zn79	Zn	0.085022	-0.594961	1.118780
Zn80	Zn	0.041420	-0.638580	1.249597
O81	O	0.137508	-0.579098	1.134580
N82	N	0.011658	-0.668350	1.338876
C83	C	0.037974	-0.518023	0.480435
C84	C	0.161625	-0.641592	0.480351
C85	C	0.087941	-0.715455	0.628017
C86	C	-0.035710	-0.591885	0.628101
C87	C	0.693199	-0.690642	0.652596
C88	C	0.693122	-0.690315	0.528855
C89	C	0.692981	-0.542634	0.455356
C90	C	0.693062	-0.542961	0.579095
C91	C	0.161524	0.013463	0.480164
C92	C	0.037807	0.013324	0.480547
C93	C	-0.035683	0.013341	0.628188
C94	C	0.088076	0.013357	0.627845
C95	C	-0.010764	-0.518114	1.184196
C96	C	-0.010426	-0.641846	1.184125
C97	C	0.137205	-0.715426	1.184182
C98	C	0.136875	-0.591687	1.184231
H99	H	0.103160	-0.437777	0.786243
H100	H	-0.080982	-0.582959	0.664476
C101	C	0.693141	-0.739340	0.516631
H102	H	0.693102	-0.724745	0.477106
H103	H	0.727786	-0.773281	0.521060
H104	H	0.658536	-0.750230	0.544184
C105	C	-0.059416	-0.654027	1.184038
H106	H	-0.044821	-0.693556	1.184013
H107	H	-0.093385	-0.649571	1.218646
H108	H	-0.070258	-0.626472	1.149393
C109	C	0.047773	-0.471259	0.699649
H110	H	0.026574	-0.446887	0.724046
H111	H	0.037501	-0.450048	0.664320
H112	H	0.037546	-0.506606	0.720851
C113	C	0.025574	0.013309	0.431541
H114	H	-0.013955	0.013301	0.446136
H115	H	0.030013	0.047931	0.397584
H116	H	0.053116	-0.021325	0.420678
H117	H	0.097136	0.013366	0.664120
C118	C	-0.096806	0.013342	0.677399
H119	H	-0.121899	0.013339	0.662983
H120	H	-0.091564	-0.021280	0.711326
H121	H	-0.114668	0.047976	0.688238
C122	C	0.693266	-0.739861	0.713717
H123	H	0.693276	-0.725440	0.738803
H124	H	0.658662	-0.750732	0.731591
H125	H	0.727912	-0.773774	0.708464
H126	H	0.028987	-0.472723	0.444098
C127	C	-0.059971	-0.456970	1.184200
H128	H	-0.045555	-0.431893	1.184222
H129	H	-0.070818	-0.439101	1.149570
H130	H	-0.093895	-0.462196	1.218823
C131	C	0.692906	-0.493412	0.394238
H132	H	0.692902	-0.507835	0.369150
H133	H	0.658265	-0.459500	0.399491
H134	H	0.727515	-0.482543	0.376360
C135	C	0.693041	-0.493936	0.591320
H136	H	0.693071	-0.508528	0.630849
H137	H	0.727639	-0.483039	0.563767
H138	H	0.658388	-0.459997	0.586896
H139	H	0.206679	0.013739	0.443646
C140	C	0.186413	-0.776570	1.184176
H141	H	0.171995	-0.801650	1.184162
H142	H	0.220338	-0.771347	1.149560
H143	H	0.197255	-0.794441	1.218813
H144	H	0.206895	-0.650521	0.443974
H145	H	0.149444	-0.384673	0.779411
C146	C	0.047880	-0.471276	0.908552
H147	H	0.026658	-0.446882	0.880998
H148	H	0.037639	-0.506612	0.932932
H149	H	0.037649	-0.450072	0.932932
C150	C	0.262243	-0.578450	0.908477
H151	H	0.301809	-0.584454	0.880902
H152	H	0.256251	-0.559375	0.932863
H153	H	0.256255	-0.615916	0.932850
H154	H	0.096930	-0.760753	0.664356
C155	C	0.185889	-0.579487	1.184251
H156	H	0.220633	-0.614006	1.184255
H157	H	0.195175	-0.546923	1.149634
H158	H	0.172098	-0.570016	1.218886
C159	C	0.305914	-0.534685	0.777239
H160	H	0.312482	-0.517131	0.735545
H161	H	0.323476	-0.520317	0.787476
H162	H	0.323473	-0.576858	0.787473
C163	C	0.262074	-0.578394	0.592434
H164	H	0.301652	-0.584397	0.586416
H165	H	0.256083	-0.615854	0.611509
H166	H	0.256051	-0.559300	0.554976
C167	C	0.286214	-0.587261	0.730253
H168	H	0.244517	-0.566121	0.741406
H169	H	0.296444	-0.607017	0.704537
H170	H	0.296477	-0.615880	0.764983
C171	C	0.305837	-0.534654	0.636178
H172	H	0.312432	-0.517102	0.653732
H173	H	0.323403	-0.576824	0.650541
H174	H	0.323372	-0.520270	0.594007
C175	C	0.417453	-0.631014	0.686473
H176	H	0.389899	-0.651938	0.707150
H177	H	0.441817	-0.636808	0.648919
H178	H	0.441848	-0.645678	0.709368
H179	H	0.103135	-0.437780	0.733124
H180	H	0.295112	-0.392340	0.651807
C181	C	0.417412	-0.418674	0.605504
H182	H	0.459108	-0.439817	0.594363
H183	H	0.407152	-0.390056	0.570776
H184	H	0.407182	-0.398916	0.631222
C185	C	0.252205	-0.393569	0.582627
H186	H	0.258182	-0.366000	0.543053
H187	H	0.289675	-0.417951	0.588615
H188	H	0.233118	-0.417949	0.588638
H189	H	0.204115	-0.271255	0.556464
C190	C	0.101361	-0.262356	0.753248
H191	H	0.095377	-0.289924	0.792822
H192	H	0.120437	-0.237969	0.747237
H193	H	0.063888	-0.237982	0.747258
