data_functionalizedCrystal
_audit_creation_method	'MofGen! by Chris Wilmer'
_symmetry_space_group_name_H-M	'P1'
_symmetry_Int_Tables_number	1
_symmetry_cell_setting	triclinic
loop_
_symmetry_equiv_pos_as_xyz
  x,y,z
_cell_length_a	16.992694
_cell_length_b	23.532407
_cell_length_c	15.455313
_cell_angle_alpha	92.643560
_cell_angle_beta	87.142206
_cell_angle_gamma	86.758451
loop_
_atom_site_label
_atom_site_type_symbol
_atom_site_fract_x
_atom_site_fract_y
_atom_site_fract_z
O1	O	1.042902	0.118384	-0.072037
O2	O	0.814628	0.117059	-0.072062
O3	O	0.935648	0.035132	-0.072033
O4	O	0.921882	0.200311	-0.072066
O5	O	0.928727	0.039796	0.072228
O6	O	0.807707	0.121723	0.072198
O7	O	1.035981	0.123049	0.072224
Cu8	Cu	0.921212	0.122812	0.085383
Cu9	Cu	0.929397	0.117296	-0.085222
O10	O	0.914962	0.204976	0.072194
C11	C	0.781968	0.117688	0.000065
C12	C	0.694964	0.112604	0.000056
C13	C	0.931837	0.016231	0.000100
C14	C	0.930782	-0.047038	0.000106
C15	C	0.644342	0.161650	0.000047
C16	C	0.562592	0.156871	0.000060
C17	C	0.531466	0.103045	0.000076
C18	C	0.582095	0.053995	0.000088
C19	C	0.663843	0.058775	0.000081
C20	C	0.288022	0.083234	0.000103
C21	C	0.206267	0.078457	0.000107
C22	C	0.186770	0.181334	0.000081
C23	C	0.268521	0.186109	0.000069
C24	C	0.319142	0.137059	0.000085
N25	N	0.447905	0.098158	0.000086
N26	N	0.402701	0.141946	0.000081
C27	C	0.995791	-0.442917	0.000066
C28	C	0.994812	-0.502366	0.000059
O29	O	1.055075	-0.536121	0.000034
N30	N	0.922865	-0.528562	0.000052
C31	C	0.851893	-0.495307	0.000042
O32	O	0.790607	-0.523048	0.000035
C33	C	0.852873	-0.435859	0.000043
C34	C	0.924824	-0.409666	0.000059
C35	C	1.067736	-0.416723	0.000081
C36	C	1.068714	-0.357278	0.000089
C37	C	0.997748	-0.324027	0.000083
C38	C	0.925803	-0.350221	0.000067
C39	C	0.781902	-0.402605	0.000027
C40	C	0.782889	-0.343154	0.000027
C41	C	0.854839	-0.316960	0.000043
C42	C	0.855814	-0.257525	0.000069
N43	N	0.927761	-0.231328	0.000076
C44	C	0.998728	-0.264579	0.000083
C45	C	0.849841	-0.620151	0.000040
C46	C	0.848860	-0.679598	0.000046
C47	C	0.991779	-0.686653	0.000061
C48	C	0.992759	-0.627205	0.000061
C49	C	0.921788	-0.593955	0.000047
C50	C	1.000777	-0.139740	0.000101
C51	C	1.001749	-0.080289	0.000113
C52	C	0.858831	-0.073240	0.000093
C53	C	0.857858	-0.132685	0.000086
C54	C	0.928838	-0.165934	0.000087
O55	O	0.795583	-0.223733	0.000090
O56	O	1.060004	-0.236831	0.000079
C57	C	1.068641	0.122420	0.000095
C58	C	1.155645	0.127504	0.000098
C59	C	0.918772	0.223877	0.000060
C60	C	0.919827	0.287146	0.000048
N61	N	0.915462	0.126692	0.205377
N62	N	0.935153	0.113412	-0.205216
C63	C	0.966893	0.091901	0.250784
C64	C	0.962551	0.094840	0.341591
C65	C	0.906782	0.132574	0.386989
C66	C	0.855345	0.167366	0.341576
C67	C	0.859684	0.164424	0.250771
C68	C	0.888055	0.145261	0.658566
C69	C	0.883722	0.148203	0.749378
C70	C	0.990928	0.075676	0.749386
C71	C	0.995265	0.072738	0.658579
C72	C	0.943825	0.107529	0.613174
N73	N	0.902344	0.135581	0.479808
N74	N	0.948260	0.104518	0.520356
H75	H	0.669678	0.205481	0.000033
H76	H	0.846173	0.173590	0.621605
C77	C	0.772812	-0.584030	-0.000141
C78	C	0.772740	-0.552098	-0.074369
C79	C	0.701791	-0.518827	-0.074572
H80	H	0.767734	-0.559023	0.050108
H81	H	0.729808	-0.608133	-0.000191
H82	H	0.815732	-0.527998	-0.074311
H83	H	0.777805	-0.577091	-0.124630
H84	H	0.658787	-0.542929	-0.074622
H85	H	0.696719	-0.493823	-0.024320
H86	H	0.701729	-0.497161	-0.124939
C87	C	0.718680	0.005455	0.000042
C88	C	0.673927	-0.042708	0.000032
C89	C	0.724415	-0.091837	-0.000013
H90	H	0.748588	0.006727	0.050332
H91	H	0.753371	0.003523	-0.050288
H92	H	0.639250	-0.040775	0.050356
H93	H	0.644020	-0.043998	-0.050255
H94	H	0.759106	-0.093770	-0.050342
H95	H	0.754322	-0.090559	0.050279
H96	H	0.694059	-0.124522	-0.000027
C97	C	0.803803	0.202266	0.201626
C98	C	0.754047	0.235953	0.260817
C99	C	0.702563	0.270825	0.215577
H100	H	0.772954	0.179203	0.166213
H101	H	0.833483	0.226143	0.166207
H102	H	0.724370	0.212079	0.296220
H103	H	0.784874	0.259029	0.296232
H104	H	0.732243	0.294702	0.180159
H105	H	0.671720	0.247757	0.180166
H106	H	0.668803	0.293690	0.255731
H107	H	0.180928	0.034624	0.000119
C108	C	1.070960	-0.598878	0.000024
C109	C	1.132895	-0.640729	0.000010
C110	C	1.204949	-0.614660	-0.000039
H111	H	1.072019	-0.574213	0.050315
H112	H	1.076772	-0.577474	-0.050305
H113	H	1.127086	-0.662123	0.050334
H114	H	1.131863	-0.665396	-0.050277
H115	H	1.210761	-0.593256	-0.050369
H116	H	1.206000	-0.589996	0.050252
H117	H	1.246981	-0.643052	-0.000057
H118	H	0.521379	0.196809	0.000051
H119	H	0.556745	0.010169	0.000113
C120	C	0.770662	-0.707927	-0.000006
C121	C	0.708728	-0.666077	-0.000032
C122	C	0.636680	-0.692150	-0.000096
H123	H	0.764780	-0.729348	0.050283
H124	H	0.769677	-0.732576	-0.050337
H125	H	0.709712	-0.641437	0.050294
H126	H	0.714584	-0.644653	-0.050317
H127	H	0.635696	-0.716799	-0.050427
H128	H	0.630806	-0.713570	0.050194
H129	H	0.594650	-0.663759	-0.000122
H130	H	1.004430	0.066510	0.378560
C131	C	0.794875	0.208320	0.391020
C132	C	0.802097	0.203463	0.480263
C133	C	0.746413	0.241188	0.525835
H134	H	0.743284	0.199291	0.376255
H135	H	0.803805	0.246237	0.376171
H136	H	0.793161	0.165555	0.495106
H137	H	0.853676	0.212497	0.495053
H138	H	0.755343	0.279105	0.510985
H139	H	0.694826	0.232157	0.511063
H140	H	0.751311	0.237902	0.586390
H141	H	0.723313	-0.423922	0.000009
C142	C	1.046730	0.037803	0.798576
C143	C	1.035520	-0.019438	0.776490
C144	C	1.086916	-0.054347	0.821779
H145	H	1.036214	0.044881	0.859171
H146	H	1.099722	0.045867	0.783669
H147	H	0.982541	-0.027500	0.791403
H148	H	1.046042	-0.026535	0.715903
H149	H	1.139907	-0.046283	0.806872
H150	H	1.076395	-0.047264	0.882371
H151	H	1.079322	-0.093189	0.806794
C152	C	0.705744	-0.307151	0.000056
C153	C	0.642530	-0.342819	0.000063
C154	C	0.571454	-0.309676	0.000103
H155	H	0.705457	-0.285426	-0.050235
H156	H	0.700693	-0.282203	0.050385
H157	H	0.647580	-0.367758	-0.050261
H158	H	0.642791	-0.364545	0.050350
H159	H	0.566402	-0.284728	0.050432
H160	H	0.571175	-0.287952	-0.050189
H161	H	0.528554	-0.333871	0.000115
C162	C	1.027473	0.050874	0.201655
C163	C	1.071569	0.021024	0.260861
C164	C	1.127374	-0.016782	0.215638
H165	H	1.061708	0.071640	0.166216
H166	H	1.001175	0.024702	0.166264
H167	H	1.097865	0.047192	0.296237
H168	H	1.037355	0.000247	0.296302
H169	H	1.101077	-0.042954	0.180247
H170	H	1.161604	0.003988	0.180200
H171	H	1.157295	-0.037043	0.255802
C172	C	0.343007	0.030008	0.000287
C173	C	0.386946	0.032136	0.074513
C174	C	0.437605	-0.016891	0.074715
H175	H	0.377780	0.028060	-0.049963
H176	H	0.312788	-0.002747	0.000339
H177	H	0.417163	0.064882	0.074453
H178	H	0.352194	0.034076	0.124775
H179	H	0.407385	-0.049646	0.074767
H180	H	0.472372	-0.018835	0.024462
H181	H	0.467417	-0.015456	0.125080
C182	C	0.302352	0.244533	-0.000152
C183	C	0.352233	0.247875	-0.074400
C184	C	0.383398	0.301691	-0.074655
H185	H	0.331494	0.250239	0.050084
H186	H	0.260508	0.273068	-0.000210
H187	H	0.394071	0.219349	-0.074333
H188	H	0.323110	0.242180	-0.124647
H189	H	0.341554	0.330227	-0.074714
H190	H	0.412536	0.307392	-0.024417
H191	H	0.417240	0.303968	-0.125035
H192	H	0.145546	0.221267	0.000069
C193	C	1.079954	-0.051960	0.000082
C194	C	1.141893	-0.093809	0.000060
C195	C	1.213944	-0.067737	0.000018
H196	H	1.081010	-0.027300	0.050378
H197	H	1.085764	-0.030551	-0.050242
H198	H	1.136085	-0.115209	0.050379
H199	H	1.140863	-0.118472	-0.050232
H200	H	1.219754	-0.046328	-0.050306
H201	H	1.214992	-0.043077	0.050315
H202	H	1.255978	-0.096127	-0.000005
C203	C	1.077824	-0.175867	-0.000071
C204	C	1.085021	-0.212584	-0.074303
C205	C	1.155989	-0.245867	-0.074490
H206	H	1.078080	-0.197636	0.050176
H207	H	1.120832	-0.151767	-0.000106
H208	H	1.042025	-0.236682	-0.074260
H209	H	1.084779	-0.190830	-0.124561
H210	H	1.198997	-0.221766	-0.074526
H211	H	1.156239	-0.267632	-0.024241
H212	H	1.160885	-0.270778	-0.124859
H213	H	1.127304	-0.335957	0.000099
C214	C	1.144875	-0.452718	0.000137
C215	C	1.208080	-0.417042	0.000172
C216	C	1.279157	-0.450175	0.000243
H217	H	1.150001	-0.477687	-0.050153
H218	H	1.145095	-0.474420	0.050467
H219	H	1.207862	-0.395350	-0.050153
H220	H	1.202981	-0.392073	0.050459
H221	H	1.279376	-0.471876	0.050573
H222	H	1.284274	-0.475142	-0.050048
H223	H	1.322049	-0.425973	0.000275
C224	C	1.055495	0.031462	0.609412
C225	C	1.016207	-0.006963	0.557560
C226	C	1.071578	-0.045109	0.512351
H227	H	1.085327	0.011119	0.649549
H228	H	1.089867	0.051998	0.573765
H229	H	0.981848	-0.027497	0.593203
H230	H	0.986379	0.013364	0.517407
H231	H	1.105951	-0.024573	0.476704
H232	H	1.101408	-0.065449	0.552494
H233	H	1.044931	-0.071182	0.477158
H234	H	0.838305	0.178933	0.786337
H235	H	0.799269	-0.154012	0.000097
H236	H	0.801051	-0.046156	0.000091
H237	H	1.049564	-0.713737	0.000063
