data_functionalizedCrystal
_audit_creation_method	'MofGen! by Chris Wilmer'
_symmetry_space_group_name_H-M	'P1'
_symmetry_Int_Tables_number	1
_symmetry_cell_setting	triclinic
loop_
_symmetry_equiv_pos_as_xyz
  x,y,z
_cell_length_a	17.699083
_cell_length_b	9.565339
_cell_length_c	17.699092
_cell_angle_alpha	89.998082
_cell_angle_beta	83.284691
_cell_angle_gamma	89.997515
loop_
_atom_site_label
_atom_site_type_symbol
_atom_site_fract_x
_atom_site_fract_y
_atom_site_fract_z
O1	O	1.004078	0.116059	0.095705
O2	O	0.783700	0.116104	0.108158
O3	O	0.900112	0.116077	-0.008257
O4	O	0.887666	0.116086	0.212120
O5	O	0.900103	-0.116443	-0.008250
O6	O	0.783691	-0.116416	0.108165
O7	O	1.004069	-0.116461	0.095713
Zn8	Zn	0.893879	-0.153356	0.101940
Zn9	Zn	0.893891	0.152999	0.101930
O10	O	0.887657	-0.116434	0.212128
C11	C	0.755499	-0.000150	0.107715
C12	C	0.671480	-0.000133	0.106377
N13	N	0.893876	-0.362436	0.101946
C14	C	0.622862	-0.000131	0.174710
C15	C	0.543918	-0.000149	0.173448
C16	C	0.513595	-0.000159	0.103851
C17	C	0.562220	-0.000166	0.035513
C18	C	0.641162	-0.000158	0.036776
C19	C	0.243857	-0.000201	0.030418
C20	C	0.164909	-0.000205	0.029160
C21	C	0.146613	-0.000192	0.167089
C22	C	0.225555	-0.000184	0.168352
C23	C	0.274173	-0.000197	0.100014
C24	C	0.359772	-0.000180	0.101384
C25	C	0.427998	-0.000166	0.102481
C26	C	0.840023	-0.453626	0.155766
C27	C	0.908391	-0.546819	0.170327
C28	C	0.825538	-0.546799	0.087391
C29	C	0.962278	-0.453576	0.116540
C30	C	0.879380	-0.453548	0.033576
C31	C	0.947797	-0.546698	0.048107
C32	C	1.032271	-0.000204	0.096155
C33	C	1.116289	-0.000212	0.097494
C34	C	0.899661	-0.000181	-0.036450
C35	C	0.898319	-0.000174	-0.120468
N36	N	0.893899	0.362078	0.101918
C37	C	0.897696	0.126574	-0.159940
C38	C	0.896431	0.126576	-0.238882
C39	C	0.895795	-0.000172	-0.278353
C40	C	0.896416	-0.126930	-0.238876
C41	C	0.897676	-0.126931	-0.159934
C42	C	0.891336	-0.126931	-0.557241
C43	C	0.890078	-0.126921	-0.636189
C44	C	0.890091	0.126576	-0.636190
C45	C	0.891351	0.126575	-0.557248
C46	C	0.891968	-0.000182	-0.517777
C47	C	0.893338	-0.000183	-0.432178
C48	C	0.894430	-0.000173	-0.363952
C49	C	0.888109	-0.000173	0.240321
C50	C	0.889450	-0.000171	0.324339
H51	H	0.647544	-0.000121	0.231383
C52	C	0.895609	-0.264440	-0.281811
C53	C	0.829809	-0.271820	-0.318518
C54	C	0.829048	-0.398467	-0.358084
H55	H	0.896120	-0.340048	-0.247078
H56	H	0.939215	-0.269725	-0.318496
H57	H	0.786214	-0.266550	-0.281837
H58	H	0.829284	-0.196243	-0.353264
H59	H	0.872654	-0.403752	-0.394770
H60	H	0.829561	-0.474065	-0.323346
H61	H	0.784407	-0.403486	-0.383001
C62	C	0.296722	0.000022	-0.043720
C63	C	0.342585	0.119635	-0.047022
C64	C	0.391302	0.119882	-0.115306
H65	H	0.267446	0.000094	-0.085408
H66	H	0.327946	-0.081018	-0.046105
H67	H	0.311364	0.200654	-0.044645
H68	H	0.371876	0.119588	-0.005350
H69	H	0.422526	0.038842	-0.117691
H70	H	0.362020	0.119951	-0.156988
H71	H	0.422430	0.201031	-0.117552
H72	H	0.920667	-0.587787	0.228134
C73	C	0.491257	-0.000073	0.247721
C74	C	0.534709	-0.000017	0.308940
C75	C	0.486225	0.000068	0.377374
H76	H	0.460071	-0.081142	0.250209
H77	H	0.460087	0.081039	0.250133
H78	H	0.565867	-0.081121	0.306529
H79	H	0.565894	0.081046	0.306477
H80	H	0.455054	0.081180	0.379786
H81	H	0.455040	-0.081002	0.379855
H82	H	0.515699	0.000119	0.418919
H83	H	0.867082	-0.412547	-0.024213
H84	H	0.537525	-0.000194	-0.021154
C85	C	0.132090	-0.000009	-0.046461
C86	C	0.156824	0.119590	-0.087783
C87	C	0.126614	0.119810	-0.157448
H88	H	0.078115	0.000066	-0.037532
H89	H	0.148809	-0.081059	-0.074626
H90	H	0.140101	0.200619	-0.059624
H91	H	0.210795	0.119541	-0.096733
H92	H	0.143333	0.038760	-0.185613
H93	H	0.072640	0.119881	-0.148511
H94	H	0.143398	0.200949	-0.185496
H95	H	0.680748	-0.000159	-0.018868
H96	H	0.794522	-0.412761	0.201322
H97	H	1.020092	-0.412800	0.128908
C98	C	0.258329	-0.000245	0.243992
C99	C	0.198853	-0.000287	0.303567
C100	C	0.229014	-0.000369	0.373258
H101	H	0.288730	0.080819	0.247458
H102	H	0.288726	-0.081361	0.247393
H103	H	0.168469	0.080821	0.300168
H104	H	0.168448	-0.081345	0.300126
H105	H	0.259411	-0.081484	0.376658
H106	H	0.259414	0.080697	0.376716
H107	H	0.188665	-0.000409	0.413688
C108	C	1.008664	-0.600587	-0.012614
C109	C	1.046776	-0.487238	-0.049821
C110	C	1.102860	-0.536829	-0.105750
H111	H	0.985593	-0.655224	-0.048430
H112	H	1.043937	-0.656465	0.010508
H113	H	1.011509	-0.431384	-0.072943
H114	H	1.069864	-0.432591	-0.014026
H115	H	1.138133	-0.592707	-0.082629
H116	H	1.079782	-0.591466	-0.141561
H117	H	1.128730	-0.459931	-0.130998
H118	H	0.767736	-0.587751	0.075093
C119	C	0.898346	0.264337	-0.117220
C120	C	0.897508	0.375337	-0.168686
C121	C	0.898094	0.502267	-0.129361
H122	H	0.942945	0.269799	-0.092273
H123	H	0.854701	0.269690	-0.080587
H124	H	0.941150	0.369986	-0.205305
H125	H	0.852913	0.369920	-0.193635
H126	H	0.854448	0.507620	-0.092728
H127	H	0.942693	0.507715	-0.104415
H128	H	0.897518	0.577595	-0.164273
H129	H	0.107018	-0.000188	0.222733
C130	C	0.895718	0.264045	-0.281869
C131	C	0.894455	0.236924	-0.359448
C132	C	0.893786	0.363532	-0.399068
H133	H	0.940034	0.316213	-0.274876
H134	H	0.851792	0.316151	-0.263119
H135	H	0.938377	0.184841	-0.378191
H136	H	0.850141	0.184777	-0.366464
H137	H	0.849860	0.415637	-0.380319
H138	H	0.938103	0.415690	-0.392069
H139	H	0.892922	0.345148	-0.451709
H140	H	0.891873	0.229786	-0.525115
H141	H	0.889585	0.229788	-0.668336
H142	H	0.889558	-0.230141	-0.668324
C143	C	0.892070	-0.264695	-0.514539
C144	C	0.891277	-0.375689	-0.566010
C145	C	0.891975	-0.502624	-0.526700
H146	H	0.848461	-0.270187	-0.477884
H147	H	0.936704	-0.270027	-0.489622
H148	H	0.846649	-0.370361	-0.590914
H149	H	0.934884	-0.370244	-0.602666
H150	H	0.936608	-0.507955	-0.501783
H151	H	0.848364	-0.508101	-0.490046
H152	H	0.891443	-0.577948	-0.561617
H153	H	0.898172	-0.230142	-0.127796
