data_functionalizedCrystal
_audit_creation_method	'MofGen! by Chris Wilmer'
_symmetry_space_group_name_H-M	'P1'
_symmetry_Int_Tables_number	1
_symmetry_cell_setting	triclinic
loop_
_symmetry_equiv_pos_as_xyz
  x,y,z
_cell_length_a	27.440280
_cell_length_b	27.440280
_cell_length_c	15.698487
_cell_angle_alpha	120.001707
_cell_angle_beta	89.995077
_cell_angle_gamma	60.004534
loop_
_atom_site_label
_atom_site_type_symbol
_atom_site_fract_x
_atom_site_fract_y
_atom_site_fract_z
Zr1	Zr	0.469568	0.533336	0.111675
O2	O	0.391760	0.635009	0.247708
O3	O	0.493412	0.431671	0.069975
O4	O	0.493421	0.533335	0.247688
O5	O	0.391752	0.533343	-0.070189
O6	O	0.573624	0.533326	0.247670
O7	O	0.391750	0.533345	0.069995
O8	O	0.573606	0.351468	-0.070225
O9	O	0.391770	0.715201	0.247706
O10	O	0.563446	0.473478	0.052176
O11	O	0.503593	0.473483	-0.052429
O12	O	0.503605	0.593180	0.156805
O13	O	0.443752	0.593185	0.052200
Zr14	Zr	0.597486	0.533318	-0.111931
Zr15	Zr	0.597482	0.533321	0.111647
Zr16	Zr	0.469572	0.533333	-0.111903
Zr17	Zr	0.469585	0.661234	0.111673
Zr18	Zr	0.597470	0.405420	-0.111928
O19	O	0.573643	0.634983	-0.070231
O20	O	0.573637	0.634988	0.247668
O21	O	0.391766	0.635004	-0.070191
O22	O	0.675295	0.431646	-0.247964
O23	O	0.675289	0.431650	0.069935
O24	O	0.493417	0.431667	-0.247924
O25	O	0.675302	0.533312	0.069933
O26	O	0.573633	0.533319	-0.247944
O27	O	0.493430	0.533328	-0.247926
O28	O	0.675305	0.533310	-0.070251
O29	O	0.493445	0.715189	0.247684
O30	O	0.573610	0.351465	-0.247940
O31	O	0.675284	0.351453	-0.247962
O32	O	0.675281	0.351456	-0.070247
O33	O	0.391773	0.715199	0.069992
O34	O	0.493448	0.715187	0.069969
O35	O	0.563450	0.473475	-0.157060
O36	O	0.623302	0.473469	-0.052455
O37	O	0.563461	0.593171	0.052173
O38	O	0.503609	0.593177	-0.052432
C39	C	0.533507	0.373347	-0.000125
C40	C	0.533500	0.319051	-0.000123
C41	C	0.564786	-0.017694	0.054466
C42	C	0.564792	-0.068718	0.054463
O43	O	0.591380	-0.095127	0.100869
N44	N	0.533549	-0.094231	-0.000138
C45	C	0.502303	-0.068723	-0.054748
O46	O	0.475730	-0.095110	-0.101191
C47	C	0.502302	-0.017703	-0.054750
C48	C	0.533542	0.007812	-0.000137
C49	C	0.596024	0.007821	0.109073
C50	C	0.596018	0.058842	0.109077
C51	C	0.564773	0.084348	0.054474
C52	C	0.533535	0.058833	-0.000133
C53	C	0.471060	0.007801	-0.109366
C54	C	0.471062	0.058823	-0.109364
C55	C	0.502302	0.084339	-0.054751
C56	C	0.502284	0.135361	-0.054732
N57	N	0.533527	0.160874	-0.000132
C58	C	0.564772	0.135368	0.054472
C59	C	0.502310	-0.175868	-0.054739
C60	C	0.502308	-0.226883	-0.054731
C61	C	0.564797	-0.226876	0.054478
C62	C	0.564795	-0.175856	0.054475
C63	C	0.533553	-0.150355	-0.000139
C64	C	0.564755	0.242517	0.054477
C65	C	0.564744	0.293545	0.054480
C66	C	0.502258	0.293530	-0.054733
C67	C	0.502266	0.242509	-0.054732
C68	C	0.533519	0.217002	-0.000125
O69	O	0.475711	0.161800	-0.101118
O70	O	0.591347	0.161754	0.100896
C71	C	0.373526	0.533346	-0.000093
C72	C	0.319223	0.533352	-0.000081
C73	C	0.013762	0.470833	-0.054772
C74	C	-0.037257	0.470829	-0.054781
O75	O	-0.037079	0.417689	-0.101261
N76	N	-0.094010	0.533311	-0.000165
C77	C	-0.099744	0.595802	0.054456
O78	O	-0.152701	0.648948	0.100909
C79	C	-0.048726	0.595805	0.054458
C80	C	0.008027	0.533318	-0.000153
C81	C	0.070512	0.408351	-0.109379
C82	C	0.121527	0.408355	-0.109368
C83	C	0.115791	0.470841	-0.054750
C84	C	0.059042	0.533322	-0.000142
C85	C	-0.054460	0.658294	0.109072
C86	C	-0.003436	0.658292	0.109069
C87	C	0.053316	0.595806	0.054458
C88	C	0.104321	0.595812	0.054488
N89	N	0.161074	0.533329	-0.000128
C90	C	0.166809	0.470844	-0.054747
C91	C	-0.206882	0.595790	0.054445
C92	C	-0.257900	0.595788	0.054449
C93	C	-0.195409	0.470815	-0.054789
C94	C	-0.144391	0.470818	-0.054787
C95	C	-0.150129	0.533308	-0.000172
C96	C	0.273942	0.470857	-0.054719
C97	C	0.324958	0.470867	-0.054700
C98	C	0.262464	0.595839	0.054534
C99	C	0.211451	0.595830	0.054519
C100	C	0.217194	0.533334	-0.000115
O101	O	0.104190	0.648924	0.100940
O102	O	0.219769	0.417707	-0.101204
C103	C	0.693528	0.533308	-0.000163
C104	C	0.747831	0.533302	-0.000175
C105	C	0.533522	0.533331	0.279534
C106	C	0.533521	0.533332	0.374449
C107	C	0.533548	0.693308	-0.000131
C108	C	0.533555	0.747604	-0.000132
C109	C	0.533534	0.533320	0.548213
C110	C	0.533528	0.533324	0.451516
C111	C	0.533533	0.533323	0.720210
C112	C	0.533535	0.533322	0.625295
C113	C	0.693508	0.373328	-0.000160
C114	C	0.747804	0.319026	-0.000170
C115	C	0.533512	0.373343	-0.279787
C116	C	0.533506	0.319046	-0.374700
C117	C	0.693513	0.373324	-0.279822
C118	C	0.747810	0.319021	-0.374747
C119	C	0.373542	0.693330	0.279566
C120	C	0.319244	0.747634	0.374492
C121	C	0.373547	0.693326	-0.000096
C122	C	0.319251	0.747629	-0.000085
C123	C	0.533543	0.693312	0.279531
C124	C	0.533548	0.747609	0.374445
C125	C	0.742057	0.293529	0.054450
C126	C	0.793069	0.242513	0.054461
C127	C	0.849827	0.216992	-0.000156
C128	C	0.855572	0.242493	-0.054778
C129	C	0.804561	0.293512	-0.054782
C130	C	0.564748	0.293543	-0.473898
C131	C	0.564741	0.242532	-0.563088
C132	C	0.533495	0.217021	-0.553078
C133	C	0.502249	0.242529	-0.453869
C134	C	0.502253	0.293543	-0.364681
C135	C	0.804557	0.293516	-0.364722
C136	C	0.855580	0.242499	-0.453907
C137	C	0.849856	0.216984	-0.553114
C138	C	0.793103	0.242494	-0.563137
C139	C	0.742081	0.293513	-0.473954
C140	C	0.262498	0.773145	0.364467
C141	C	0.211474	0.824177	0.453651
C142	C	0.217199	0.849695	0.552859
C143	C	0.273951	0.824182	0.562881
C144	C	0.324973	0.773154	0.473698
C145	C	0.324997	0.773131	-0.054697
C146	C	0.273985	0.824160	-0.054683
C147	C	0.217228	0.849684	-0.000063
C148	C	0.211482	0.824180	0.054555
C149	C	0.262494	0.773155	0.054547
C150	C	0.564800	0.773103	0.364401
C151	C	0.564817	0.824114	0.453574
C152	C	0.533578	0.849634	0.552789
C153	C	0.502325	0.824134	0.562831
C154	C	0.502312	0.773121	0.473659
H155	H	0.621458	0.079612	0.153544
H156	H	0.476862	-0.155103	-0.099207
H157	H	-0.098184	0.419936	-0.099266
O158	O	0.629720	-0.019679	0.167983
H159	H	0.651433	0.006647	0.205956
O160	O	0.468562	0.214994	-0.443101
H161	H	0.420541	0.257809	-0.399801
H162	H	0.590193	0.314308	-0.482069
H163	H	-0.304106	0.646671	0.098932
H164	H	0.788380	0.221756	0.098941
H165	H	0.590234	-0.155085	0.098945
O166	O	0.468587	-0.254371	-0.113599
H167	H	0.486629	-0.277612	-0.197537
H168	H	0.476890	0.844920	0.643625
H169	H	0.891359	0.175449	-0.000145
O170	O	0.386209	0.745621	-0.113597
H171	H	0.391399	0.722389	-0.197530
O172	O	0.598447	0.215021	-0.670084
H173	H	0.632968	0.158738	-0.713340
H174	H	0.165263	0.844969	0.099025
O175	O	0.598504	0.745582	0.257399
H176	H	0.566968	0.755381	0.214156
O177	O	0.916791	0.214958	-0.113695
H178	H	0.951291	0.175193	-0.104520
O179	O	0.386183	0.745645	0.484500
H180	H	0.410926	0.689364	0.446479
O181	O	-0.189233	0.403420	-0.113705
H182	H	-0.164470	0.373458	-0.082144
H183	H	0.695847	0.314308	0.098939
O184	O	0.162206	0.904715	-0.000059
H185	H	0.135264	0.885134	-0.034222
O186	O	0.786937	0.214958	-0.670145
H187	H	0.808697	0.224736	-0.713401
H188	H	0.371169	0.419981	-0.099174
H189	H	0.809248	0.314264	-0.099267
O190	O	0.468569	0.320981	-0.257727
H191	H	0.434014	0.377262	-0.214396
H192	H	0.590239	-0.247653	0.098937
O193	O	0.280188	0.851654	-0.113609
H194	H	0.328226	0.825320	-0.151607
H195	H	0.257807	0.752392	0.099015
H196	H	0.533496	0.175483	-0.625709
H197	H	0.476820	0.221741	-0.099189
O198	O	0.598525	0.851614	0.442732
H199	H	0.620235	0.825303	0.358758
H200	H	0.533593	0.891173	0.625390
O201	O	0.150240	0.663229	0.113435
H202	H	0.125496	0.666221	0.173796
H203	H	0.476860	0.752369	0.481852
H204	H	0.445622	-0.012966	-0.153839
O205	O	-0.213056	0.663184	0.113384
H206	H	-0.237828	0.693168	0.081859
H207	H	0.590183	0.314319	0.098956
O208	O	0.916785	0.215015	-0.443076
H209	H	0.951307	0.175266	-0.521751
H210	H	0.590206	0.221754	0.098942
O211	O	0.810738	0.321039	-0.257725
H212	H	0.858774	0.294734	-0.265754
H213	H	0.445618	0.079585	-0.153837
H214	H	0.891406	0.175441	-0.625724
H215	H	0.278627	0.419966	-0.099208
O216	O	0.468595	0.321008	-0.113690
H217	H	0.473860	0.360755	-0.104539
H218	H	0.167733	0.357472	-0.153834
H219	H	0.695877	0.314272	-0.482131
O220	O	0.256315	0.745626	0.257470
H221	H	0.278077	0.755403	0.214215
O222	O	0.076704	0.340951	-0.168281
H223	H	0.124741	0.297511	-0.206237
O224	O	-0.115665	0.725691	0.167968
H225	H	-0.111070	0.769134	0.205931
H226	H	0.165269	0.844941	0.445470
H227	H	-0.008115	0.709180	0.153531
H228	H	0.257804	0.646714	0.099007
H229	H	0.278605	0.844965	0.643667
O230	O	0.162166	0.904740	0.649047
H231	H	0.121747	0.918187	0.625399
