data_functionalizedCrystal
_audit_creation_method	'MofGen! by Chris Wilmer'
_symmetry_space_group_name_H-M	'P1'
_symmetry_Int_Tables_number	1
_symmetry_cell_setting	triclinic
loop_
_symmetry_equiv_pos_as_xyz
  x,y,z
_cell_length_a	19.188929
_cell_length_b	19.188905
_cell_length_c	13.101039
_cell_angle_alpha	86.647018
_cell_angle_beta	86.670828
_cell_angle_gamma	96.860334
loop_
_atom_site_label
_atom_site_type_symbol
_atom_site_fract_x
_atom_site_fract_y
_atom_site_fract_z
O1	O	-0.083209	0.930018	-0.085431
O2	O	-0.094963	0.726703	-0.085402
O3	O	0.012568	0.834225	-0.085354
O4	O	-0.190739	0.822497	-0.085479
O5	O	0.004840	0.826511	0.085072
O6	O	-0.102691	0.718989	0.085024
O7	O	-0.090937	0.922304	0.084996
Zn8	Zn	-0.098041	0.819421	0.112069
Zn9	Zn	-0.087859	0.829586	-0.112475
O10	O	-0.198467	0.814782	0.084947
C11	C	-0.098449	0.696835	-0.000184
C12	C	-0.097316	0.619328	-0.000170
C13	C	-0.092559	0.587142	-0.093072
C14	C	-0.091485	0.514319	-0.093084
C15	C	-0.095155	0.473687	-0.000189
C16	C	-0.099917	0.505881	0.092725
C17	C	-0.100997	0.578702	0.092734
N18	N	-0.056863	0.361536	0.068969
N19	N	-0.055834	0.292360	0.068954
C20	C	-0.091902	0.254281	-0.000212
N21	N	-0.129026	0.287994	-0.069377
N22	N	-0.130051	0.357177	-0.069365
C23	C	-0.093985	0.394724	-0.000189
C24	C	-0.085981	0.143132	-0.093133
C25	C	-0.084912	0.070307	-0.093141
C26	C	-0.093337	0.061871	0.092670
C27	C	-0.094413	0.134694	0.092676
C28	C	-0.090731	0.175320	-0.000229
C29	C	-0.220613	0.819020	-0.000282
C30	C	-0.298116	0.820163	-0.000331
C31	C	-0.343046	0.757070	-0.000302
C32	C	-0.415871	0.758141	-0.000279
C33	C	-0.443763	0.822307	-0.000264
C34	C	-0.398822	0.885408	-0.000300
C35	C	-0.325998	0.884336	-0.000333
N36	N	-0.554359	0.868726	0.057793
N37	N	-0.623539	0.869740	0.057827
C38	C	-0.663175	0.825541	-0.000166
N39	N	-0.631020	0.780278	-0.058182
N40	N	-0.561834	0.779261	-0.058211
C41	C	-0.522727	0.823476	-0.000229
C42	C	-0.787072	0.763604	-0.000113
C43	C	-0.859897	0.764678	-0.000097
C44	C	-0.842847	0.891947	-0.000108
C45	C	-0.770022	0.890872	-0.000135
C46	C	-0.742140	0.826699	-0.000133
C47	C	0.034714	0.829987	-0.000127
C48	C	0.112216	0.828845	-0.000084
C49	C	-0.087450	0.952173	-0.000224
C50	C	-0.088583	1.029679	-0.000245
N51	N	-0.104989	0.812490	0.265314
N52	N	-0.080905	0.836523	-0.265721
C53	C	-0.114449	0.803059	0.474353
C54	C	-0.071447	0.845952	0.525248
C55	C	-0.076711	0.840704	0.641564
C56	C	-0.109186	0.808305	0.358026
H57	H	-0.087613	0.488107	-0.168738
H58	H	-0.155215	0.762399	0.518131
C59	C	-0.909322	0.695272	-0.000062
H60	H	-0.882284	0.656902	-0.000056
H61	H	-0.935420	0.695729	-0.059481
H62	H	-0.940750	0.690360	0.059390
H63	H	-0.102907	0.472793	0.168361
C64	C	-0.099636	0.170102	0.194869
H65	H	-0.101663	0.135476	0.250194
H66	H	-0.140937	0.192880	0.198712
H67	H	-0.059521	0.203788	0.198757
C68	C	-0.097604	0.017154	0.194853
H69	H	-0.096346	-0.030835	0.181543
H70	H	-0.140278	0.021986	0.232786
H71	H	-0.058880	0.032705	0.233265
H72	H	-0.082991	0.176211	-0.168782
C73	C	-0.088520	0.631826	-0.195263
H74	H	-0.085539	0.602222	-0.250594
H75	H	-0.048063	0.665867	-0.199100
H76	H	-0.129478	0.654949	-0.199145
C77	C	-0.016394	0.900906	0.466107
H78	H	-0.020044	0.897282	0.394555
H79	H	0.029391	0.892632	0.483643
H80	H	-0.024584	0.946716	0.483624
C81	C	-0.312375	0.686485	-0.000315
H82	H	-0.262568	0.694880	-0.000334
H83	H	-0.325150	0.663206	-0.059738
H84	H	-0.330476	0.657825	0.059132
C85	C	-0.106219	0.614110	0.194931
H86	H	-0.108246	0.579484	0.250257
H87	H	-0.147517	0.636893	0.198777
H88	H	-0.066101	0.647793	0.198813
H89	H	-0.452461	0.706761	-0.000252
C90	C	-0.079675	0.034902	-0.195339
H91	H	-0.077630	0.069531	-0.250663
H92	H	-0.119783	0.001215	-0.199240
H93	H	-0.038368	0.012126	-0.199168
C94	C	-0.756394	0.693020	-0.000122
H95	H	-0.706588	0.701417	-0.000131
H96	H	-0.769162	0.669741	-0.059546
H97	H	-0.774499	0.664361	0.059324
C98	C	-0.429500	0.955989	-0.000279
H99	H	-0.479307	0.947591	-0.000243
H100	H	-0.411400	0.984651	-0.059717
H101	H	-0.416726	0.979265	0.059153
C102	C	-0.276572	0.953741	-0.000356
H103	H	-0.303611	0.992111	-0.000339
H104	H	-0.245140	0.958659	-0.059796
H105	H	-0.250480	0.953275	0.059074
C106	C	-0.873519	0.962528	-0.000087
H107	H	-0.923326	0.954131	-0.000056
H108	H	-0.855416	0.991192	-0.059523
H109	H	-0.860747	0.985803	0.059347
C110	C	-0.720597	0.960274	-0.000150
H111	H	-0.747636	0.998643	-0.000129
H112	H	-0.689166	0.965195	-0.059592
H113	H	-0.694503	0.959807	0.059278
