data_functionalizedCrystal
_audit_creation_method	'MofGen! by Chris Wilmer'
_symmetry_space_group_name_H-M	'P1'
_symmetry_Int_Tables_number	1
_symmetry_cell_setting	triclinic
loop_
_symmetry_equiv_pos_as_xyz
  x,y,z
_cell_length_a	12.827893
_cell_length_b	12.645330
_cell_length_c	12.827885
_cell_angle_alpha	90.031113
_cell_angle_beta	90.019272
_cell_angle_gamma	90.012807
loop_
_atom_site_label
_atom_site_type_symbol
_atom_site_fract_x
_atom_site_fract_y
_atom_site_fract_z
Zn1	Zn	1.597690	-0.421983	0.590839
Zn2	Zn	2.097690	0.078017	1.090839
Zn3	Zn	1.597592	-0.599284	0.416095
Zn4	Zn	2.097592	-0.099284	0.916095
Zn5	Zn	1.422931	-0.422036	0.416113
Zn6	Zn	1.922931	0.077964	0.916113
Zn7	Zn	1.422925	-0.599206	0.590795
Zn8	Zn	1.922925	-0.099206	1.090795
O9	O	1.510284	-0.510627	0.503461
O10	O	2.010284	-0.010627	1.003461
O11	O	1.743913	-0.445514	0.567670
O12	O	2.243913	0.054486	1.067670
O13	O	1.574385	-0.575826	0.269861
O14	O	2.074385	-0.075826	0.769861
O15	O	1.446157	-0.273681	0.439316
O16	O	1.946157	0.226319	0.939316
O17	O	1.743841	-0.575776	0.439286
O18	O	2.243841	-0.075776	0.939286
O19	O	1.574551	-0.273643	0.567687
O20	O	2.074551	0.226357	1.067687
O21	O	1.446062	-0.445603	0.269874
O22	O	1.946062	0.054397	0.769874
O23	O	1.276694	-0.445527	0.439274
O24	O	1.776694	0.054473	0.939274
O25	O	1.446146	-0.575642	0.737037
O26	O	1.946146	-0.075642	1.237037
O27	O	1.276689	-0.575693	0.567612
O28	O	1.776689	-0.075693	1.067612
O29	O	1.574545	-0.445438	0.737069
O30	O	2.074545	0.054562	1.237069
O31	O	1.574379	-0.747621	0.439244
O32	O	2.074379	-0.247621	0.939244
O33	O	1.446051	-0.747563	0.567595
O34	O	1.946051	-0.247563	1.067595
C35	C	1.238774	-0.510608	0.503441
C36	C	1.738774	-0.010608	1.003441
C37	C	1.122621	-0.510625	0.503457
C38	C	1.622621	-0.010625	1.003457
C39	C	1.070872	-0.446281	0.567084
C40	C	1.570872	0.053719	1.067084
C41	C	0.950821	-0.446298	0.567102
C42	C	1.450821	0.053702	1.067102
C43	C	1.510232	-0.786057	0.503436
C44	C	2.010232	-0.286057	1.003436
C45	C	1.510305	-0.903887	0.503460
C46	C	2.010305	-0.403887	1.003460
C47	C	1.590906	-1.071443	0.422551
C48	C	2.090906	-0.571443	0.922551
C49	C	1.591169	-0.948883	0.422749
C50	C	2.091169	-0.448883	0.922749
C51	C	1.540172	-0.948261	0.613614
C52	C	2.040172	-0.448261	1.113614
C53	C	1.540811	-1.070859	0.613184
C54	C	2.040811	-0.570859	1.113184
C55	C	1.399806	-1.071217	0.475302
C56	C	1.899806	-0.571217	0.975302
C57	C	1.400335	-0.948613	0.472832
C58	C	1.900335	-0.448613	0.972832
C59	C	1.782854	-0.510648	0.503481
C60	C	2.282854	-0.010648	1.003481
C61	C	1.899007	-0.510656	0.503490
C62	C	2.399007	-0.010656	1.003490
C63	C	1.510355	-0.510525	0.776031
C64	C	2.010355	-0.010525	1.276031
C65	C	1.510386	-0.510482	0.892184
C66	C	2.010386	-0.010482	1.392184
C67	C	1.510365	-0.234122	0.503508
C68	C	2.010365	0.265878	1.003508
C69	C	1.510400	-0.116292	0.503529
C70	C	2.010400	0.383708	1.003529
C71	C	1.510274	-0.510652	0.231951
C72	C	2.010274	-0.010652	0.731951
C73	C	1.510446	-0.510397	0.115798
C74	C	2.010446	-0.010397	0.615798
C75	C	1.573929	-0.446040	0.943985
C76	C	2.073929	0.053960	1.443985
C77	C	1.573961	-0.445994	1.064035
C78	C	2.073961	0.054006	1.564035
H79	H	0.906318	-0.391214	0.621579
H80	H	1.406318	0.108786	1.121579
O81	O	1.373599	-0.913893	0.376135
O82	O	1.873599	-0.413893	0.876135
C83	C	1.453966	-0.849488	0.336279
C84	C	1.953966	-0.349488	0.836279
H85	H	1.501887	-0.816112	0.403539
H86	H	2.001887	-0.316112	0.903539
H87	H	1.418533	-0.781674	0.289694
H88	H	1.918533	-0.281674	0.789694
H89	H	1.506463	-0.898596	0.283378
H90	H	2.006463	-0.398596	0.783378
O91	O	1.688812	-0.913657	0.445153
O92	O	2.188812	-0.413657	0.945153
C93	C	1.686029	-0.851951	0.536688
C94	C	2.186029	-0.351951	1.036688
H95	H	1.603863	-0.819873	0.548722
H96	H	2.103863	-0.319873	1.048722
H97	H	1.743023	-0.783212	0.529026
H98	H	2.243023	-0.283212	1.029026
H99	H	1.708952	-0.902870	0.606331
H100	H	2.208952	-0.402870	1.106331
O101	O	1.638764	-0.380202	1.117332
O102	O	2.138764	0.119798	1.617332
C103	C	1.624382	-0.394814	1.225330
C104	C	2.124382	0.105186	1.725330
H105	H	1.543717	-0.429540	1.240121
H106	H	2.043717	0.070460	1.740121
H107	H	1.631462	-0.315430	1.266898
H108	H	2.131462	0.184570	1.766898
H109	H	1.686334	-0.451284	1.256302
H110	H	2.186334	0.048716	1.756302
H111	H	1.572454	-1.101002	0.340634
H112	H	2.072454	-0.601002	0.840634
O113	O	1.445687	-0.576275	1.062551
O114	O	1.945687	-0.076275	1.562551
C115	C	1.505209	-0.644731	0.999431
C116	C	2.005209	-0.144731	1.499431
H117	H	1.584425	-0.607338	0.983203
H118	H	2.084425	-0.107338	1.483203
H119	H	1.462693	-0.658893	0.922627
H120	H	1.962693	-0.158893	1.422627
H121	H	1.516639	-0.723315	1.041419
H122	H	2.016639	-0.223315	1.541419
O123	O	1.688044	-1.108165	0.444732
O124	O	2.188044	-0.608165	0.944732
C125	C	1.683561	-1.174272	0.533092
C126	C	2.183561	-0.674272	1.033092
H127	H	1.611605	-1.153787	0.581155
H128	H	2.111605	-0.653787	1.081155
H129	H	1.756486	-1.162112	0.582483
H130	H	2.256486	-0.662112	1.082483
H131	H	1.678969	-1.260372	0.507089
H132	H	2.178969	-0.760372	1.007089
H133	H	1.337116	-0.917994	0.527488
H134	H	1.837116	-0.417994	1.027488
H135	H	1.078049	-0.565721	0.448995
H136	H	1.578049	-0.065721	0.948995
H137	H	1.372646	-1.102232	0.396377
H138	H	1.872646	-0.602232	0.896377
O139	O	1.124197	-0.380644	0.632024
O140	O	1.624197	0.119356	1.132024
C141	C	1.232190	-0.395227	0.617535
C142	C	1.732190	0.104773	1.117535
H143	H	1.246969	-0.477008	0.583155
H144	H	1.746969	0.022992	1.083155
H145	H	1.273786	-0.388162	0.695778
H146	H	1.773786	0.111838	1.195778
H147	H	1.263143	-0.332304	0.561959
H148	H	1.763143	0.167696	1.061959
O149	O	0.952199	-0.576434	0.438643
O150	O	1.452199	-0.076434	0.938643
C151	C	1.015336	-0.644927	0.498072
C152	C	1.515336	-0.144927	0.998072
H153	H	1.031621	-0.607617	0.577343
H154	H	1.531621	-0.107617	1.077343
H155	H	1.092111	-0.659003	0.455542
H156	H	1.592111	-0.159003	0.955542
H157	H	0.973332	-0.723545	0.509388
H158	H	1.473332	-0.223545	1.009388
H159	H	1.339822	-1.100220	0.534282
H160	H	1.839822	-0.600220	1.034282
O161	O	1.637251	-1.104753	0.641845
O162	O	2.137251	-0.604753	1.141845
C163	C	1.660502	-1.066992	0.742644
C164	C	2.160502	-0.566992	1.242644
H165	H	1.611438	-0.993840	0.759655
H166	H	2.111438	-0.493840	1.259655
H167	H	1.746715	-1.045611	0.747329
H168	H	2.246715	-0.545611	1.247329
H169	H	1.642155	-1.130989	0.802456
H170	H	2.142155	-0.630989	1.302456
H171	H	1.572482	-0.918886	0.341071
H172	H	2.072482	-0.418886	0.841071
O173	O	1.474036	-1.106387	0.687679
O174	O	1.974036	-0.606387	1.187679
C175	C	1.529272	-1.168008	0.760728
C176	C	2.029272	-0.668008	1.260728
H177	H	1.603436	-1.199809	0.723142
H178	H	2.103436	-0.699809	1.223142
H179	H	1.478468	-1.236938	0.787154
H180	H	1.978468	-0.736938	1.287154
H181	H	1.550574	-1.117106	0.830957
H182	H	2.050574	-0.617106	1.330957
O183	O	1.472497	-0.913469	0.687650
O184	O	1.972497	-0.413469	1.187650
C185	C	1.527353	-0.855293	0.763752
C186	C	2.027353	-0.355293	1.263752
H187	H	1.612822	-0.879961	0.763270
H188	H	2.112822	-0.379961	1.263270
H189	H	1.492440	-0.871619	0.843857
H190	H	1.992440	-0.371619	1.343857
H191	H	1.521155	-0.767259	0.745669
H192	H	2.021155	-0.267259	1.245669
O193	O	1.638660	-0.380210	0.890756
O194	O	2.138660	0.119790	1.390756
C195	C	1.579112	-0.311799	0.827646
C196	C	2.079112	0.188201	1.327646
H197	H	1.499885	-0.349198	0.811393
H198	H	1.999885	0.150802	1.311393
H199	H	1.621591	-0.297702	0.750853
H200	H	2.121591	0.202298	1.250853
H201	H	1.567709	-0.233181	0.869655
H202	H	2.067709	0.266819	1.369655
O203	O	1.445412	-0.576298	0.945134
O204	O	1.945412	-0.076298	1.445134
C205	C	1.386344	-0.636246	0.873662
C206	C	1.886344	-0.136246	1.373662
H207	H	1.382646	-0.592928	0.795836
H208	H	1.882646	-0.092928	1.295836
H209	H	1.304043	-0.647509	0.905272
H210	H	1.804043	-0.147509	1.405272
H211	H	1.424577	-0.716776	0.862083
H212	H	1.924577	-0.216776	1.362083
H213	H	1.620097	-0.917471	0.637922
H214	H	2.120097	-0.417471	1.137922
