data_functionalizedCrystal
_audit_creation_method	'MofGen! by Chris Wilmer'
_symmetry_space_group_name_H-M	'P1'
_symmetry_Int_Tables_number	1
_symmetry_cell_setting	triclinic
loop_
_symmetry_equiv_pos_as_xyz
  x,y,z
_cell_length_a	9.065218
_cell_length_b	10.654550
_cell_length_c	9.730223
_cell_angle_alpha	90.000193
_cell_angle_beta	89.999690
_cell_angle_gamma	95.249606
loop_
_atom_site_label
_atom_site_type_symbol
_atom_site_fract_x
_atom_site_fract_y
_atom_site_fract_z
O1	O	1.959386	-0.184154	-0.114290
O2	O	1.530019	-0.199259	-0.114291
O3	O	1.754575	-0.009007	-0.114285
O4	O	1.734831	-0.374407	-0.114296
O5	O	1.754572	-0.009011	0.114295
O6	O	1.530016	-0.199264	0.114289
O7	O	1.959384	-0.184159	0.114290
Zn8	Zn	1.744700	-0.191712	0.150581
Zn9	Zn	1.744703	-0.191706	-0.150582
O10	O	1.734828	-0.374412	0.114284
C11	C	1.475039	-0.197810	-0.000001
C12	C	1.311220	-0.193469	-0.000002
C13	C	1.753124	0.037795	0.000003
C14	C	1.748786	0.177255	-0.000002
N15	N	1.744708	-0.191716	0.356118
C16	C	2.014364	-0.185608	-0.000002
C17	C	2.178183	-0.189949	-0.000011
C18	C	1.736279	-0.421213	-0.000007
C19	C	1.740616	-0.560673	-0.000011
C20	C	1.881001	0.256217	0.000003
C21	C	1.876917	0.387254	-0.000007
C22	C	1.608391	0.360354	-0.000020
C23	C	1.612477	0.229320	-0.000020
C24	C	2.036032	0.271749	0.000016
C25	C	2.031948	0.402786	0.000007
N26	N	1.744706	-0.191692	-0.356119
C27	C	1.844167	-0.107501	0.428047
C28	C	1.844163	-0.107486	0.571930
C29	C	1.645236	-0.275911	0.571942
C30	C	1.645234	-0.275920	0.428062
C31	C	1.959020	-0.010265	0.428040
C32	C	1.959016	-0.010250	0.571923
H33	H	1.497413	0.402762	-0.000036
O34	O	2.101399	0.452458	0.114178
C35	C	2.000761	0.515861	0.192887
H36	H	1.907603	0.543948	0.123901
H37	H	2.060940	0.603961	0.240498
H38	H	1.952366	0.450945	0.277908
O39	O	2.108575	0.236386	-0.113956
C40	C	2.233446	0.175360	-0.074273
H41	H	2.268089	0.205979	0.034163
H42	H	2.328538	0.201808	-0.148495
H43	H	2.204687	0.068951	-0.076400
O44	O	2.087706	0.456864	-0.117863
C45	C	2.004059	0.407508	-0.230883
H46	H	1.946376	0.311418	-0.202566
H47	H	2.080671	0.396940	-0.322247
H48	H	1.917497	0.474254	-0.259229
H49	H	1.564234	-0.344483	0.369499
O50	O	2.086797	-0.047114	0.374601
C51	C	2.155789	0.050739	0.293086
H52	H	2.069509	0.115042	0.257431
H53	H	2.209241	0.008710	0.199761
H54	H	2.244405	0.107590	0.356147
O55	O	2.094208	-0.036389	0.618755
C56	C	2.093938	-0.036352	0.763658
H57	H	2.003802	0.022628	0.802529
H58	H	2.206336	0.005510	0.802879
H59	H	2.071459	-0.137161	0.802736
H60	H	1.923170	0.081115	0.616541
H61	H	2.085399	0.235924	0.098713
O62	O	1.548555	-0.357533	0.641985
C63	C	1.456829	-0.289175	0.725175
H64	H	1.514596	-0.191590	0.746719
H65	H	1.434017	-0.341310	0.826359
H66	H	1.347702	-0.279348	0.669722
O67	O	1.484082	0.152566	-0.000284
C68	C	1.478447	0.075949	-0.118654
H69	H	1.553423	0.123070	-0.201384
H70	H	1.359755	0.062574	-0.158411
H71	H	1.517602	-0.019750	-0.091887
O72	O	1.928693	0.104963	0.381514
C73	C	1.788458	0.131957	0.429961
H74	H	1.719298	0.040148	0.455529
H75	H	1.729971	0.184748	0.347260
H76	H	1.802707	0.192800	0.526267
