data_functionalizedCrystal
_audit_creation_method	'MofGen! by Chris Wilmer'
_symmetry_space_group_name_H-M	'P1'
_symmetry_Int_Tables_number	1
_symmetry_cell_setting	triclinic
loop_
_symmetry_equiv_pos_as_xyz
  x,y,z
_cell_length_a	23.096457
_cell_length_b	16.704493
_cell_length_c	16.704495
_cell_angle_alpha	81.673523
_cell_angle_beta	57.659670
_cell_angle_gamma	57.657722
loop_
_atom_site_label
_atom_site_type_symbol
_atom_site_fract_x
_atom_site_fract_y
_atom_site_fract_z
Zr1	Zr	0.633721	0.785092	-0.162438
O2	O	0.754506	0.665629	-0.281898
O3	O	0.512935	0.821711	-0.125821
O4	O	0.633719	0.833970	-0.294157
O5	O	0.633724	0.643703	0.019230
O6	O	0.633718	0.966763	-0.303823
O7	O	0.633722	0.653370	-0.113562
O8	O	0.417657	0.944835	-0.002700
O9	O	0.849784	0.665632	-0.281892
O10	O	0.562615	0.936434	-0.117412
O11	O	0.562617	0.830118	-0.011098
O12	O	0.704824	0.844551	-0.209292
O13	O	0.704826	0.738234	-0.102978
Zr14	Zr	0.633721	0.981465	0.033935
Zr15	Zr	0.633718	0.996882	-0.177853
Zr16	Zr	0.633723	0.769674	0.049350
Zr17	Zr	0.785678	0.785097	-0.162429
Zr18	Zr	0.481763	0.981460	0.033926
O19	O	0.754506	0.944845	-0.002681
O20	O	0.754503	0.966767	-0.303816
O21	O	0.754509	0.643707	0.019237
O22	O	0.512935	1.100928	0.153395
O23	O	0.512932	1.122850	-0.147740
O24	O	0.512938	0.799790	0.175313
O25	O	0.633718	1.122853	-0.147733
O26	O	0.633722	0.932587	0.165655
O27	O	0.633724	0.799793	0.175320
O28	O	0.633719	1.113187	-0.014941
O29	O	0.849783	0.833977	-0.294145
O30	O	0.417659	0.932580	0.165642
O31	O	0.417657	1.100925	0.153390
O32	O	0.417655	1.113180	-0.014953
O33	O	0.849786	0.653377	-0.113550
O34	O	0.849784	0.821722	-0.125803
O35	O	0.562617	0.922006	0.080790
O36	O	0.562615	1.028322	-0.025525
O37	O	0.704824	0.936439	-0.117404
O38	O	0.704826	0.830122	-0.011090
C39	C	0.443645	0.883272	-0.064262
C40	C	0.379135	0.883270	-0.064266
C41	C	0.348833	0.938760	-0.119764
C42	C	0.288211	0.938769	-0.119756
C43	C	0.257904	0.883270	-0.064263
C44	C	0.288211	0.827778	-0.008753
C45	C	0.348826	0.827778	-0.008755
N46	N	0.195510	0.799606	-0.065309
N47	N	0.137929	0.799609	-0.065313
C48	C	0.075273	0.883269	-0.064254
N49	N	0.072380	0.966926	-0.063209
N50	N	0.129968	0.966923	-0.063210
C51	C	0.192177	0.883265	-0.064255
C52	C	-0.020764	0.938773	-0.119747
C53	C	-0.081391	0.938784	-0.119732
C54	C	-0.081384	0.827784	-0.008735
C55	C	-0.020764	0.827781	-0.008744
C56	C	0.009545	0.883274	-0.064255
C57	C	0.633723	0.618361	-0.044970
C58	C	0.633724	0.528451	-0.038426
C59	C	0.633709	0.370160	-0.172449
C60	C	0.633710	0.285681	-0.166304
C61	C	0.633721	0.275017	-0.019988
C62	C	0.633720	0.359496	-0.026133
C63	C	0.633715	0.407063	-0.102367
C64	C	0.633720	0.491540	-0.108515
C65	C	0.633725	0.480878	0.037804
C66	C	0.633726	0.396399	0.043949
C67	C	0.823796	0.883284	-0.064241
C68	C	0.888306	0.883286	-0.064237
C69	C	0.633718	0.902563	-0.329165
C70	C	0.633717	0.909108	-0.419075
C71	C	0.633718	1.148196	-0.083533
C72	C	0.633717	1.238106	-0.090077
C73	C	0.633732	0.775066	-0.577385
C74	C	0.633731	0.781212	-0.661862
C75	C	0.633721	0.927542	-0.672513
C76	C	0.633721	0.921396	-0.588035
C77	C	0.633726	0.845156	-0.540473
C78	C	0.633721	0.839015	-0.455990
C79	C	0.633716	0.985340	-0.466646
C80	C	0.633715	0.991486	-0.551124
C81	C	0.633723	0.863993	0.200662
C82	C	0.633724	0.857448	0.290572
C83	C	0.443643	1.148190	-0.083544
C84	C	0.379132	1.238098	-0.090092
C85	C	0.443648	0.863987	0.200652
C86	C	0.379139	0.857440	0.290557
C87	C	0.443645	1.128905	0.181370
C88	C	0.379135	1.212268	0.264732
C89	C	0.823796	0.637652	-0.309873
C90	C	0.888306	0.554289	-0.393234
C91	C	0.823799	0.618367	-0.044959
C92	C	0.888309	0.528458	-0.038411
C93	C	0.823793	0.902569	-0.329155
C94	C	0.888302	0.909116	-0.419060
C95	C	0.348837	1.232356	-0.141140
C96	C	0.288230	1.316828	-0.147311
C97	C	0.257916	1.407041	-0.102428
C98	C	0.288217	1.412781	-0.051378
C99	C	0.348826	1.328310	-0.045213
C100	C	0.348845	0.902330	0.380752
C101	C	0.288240	0.896174	0.465236
C102	C	0.257927	0.845134	0.459524
C103	C	0.288227	0.800239	0.369320
C104	C	0.348834	0.806389	0.284838
C105	C	0.348840	1.306921	0.248384
C106	C	0.288234	1.385259	0.326702
C107	C	0.257921	1.368941	0.421368
C108	C	0.288223	1.274278	0.437715
C109	C	0.348831	1.195942	0.359397
C110	C	0.918609	0.459635	-0.376887
C111	C	0.979233	0.381298	-0.455205
C112	C	1.009549	0.397616	-0.549871
C113	C	0.979244	0.492279	-0.566217
C114	C	0.918625	0.570614	-0.487900
C115	C	0.918611	0.534201	0.012628
C116	C	0.979234	0.449731	0.018776
C117	C	1.009550	0.359519	-0.026110
C118	C	0.979246	0.353778	-0.077156
C119	C	0.918629	0.438248	-0.083309
C120	C	0.918597	0.960164	-0.413317
C121	C	0.979202	0.966335	-0.497786
C122	C	1.009515	0.921451	-0.587997
C123	C	0.979215	0.870401	-0.593739
C124	C	0.918607	0.864237	-0.509271
H125	H	0.263534	0.983957	-0.164951
F126	F	1.011472	0.455860	0.073111
H127	H	0.373492	0.769838	0.211401
F128	F	0.886358	0.630204	0.060405
H129	H	0.263577	0.932737	0.538675
F130	F	0.255994	1.485998	0.309285
H131	H	0.633726	0.357662	0.106019
H132	H	1.058909	0.290745	-0.021092
H133	H	0.208570	1.432735	0.485130
F134	F	0.255953	1.256926	0.538472
F135	F	0.381058	1.334436	0.009128
H136	H	0.208576	0.840133	0.528322
H137	H	0.373490	1.118874	0.372721
H138	H	0.373507	0.983948	-0.164961
F139	F	0.633737	0.520157	0.112391
H140	H	0.893929	0.446330	-0.299811
F141	F	0.633722	0.757877	-0.405371
F142	F	0.381094	1.324310	0.147640
H143	H	0.263531	0.782591	0.036430
F144	F	0.381076	0.768716	0.050317
F145	F	1.074065	0.314234	-0.633215
F146	F	0.633701	0.246410	-0.240894
F147	F	0.255956	0.745921	0.363256
F148	F	0.011489	0.768718	0.050323
F149	F	1.011473	0.280559	-0.437788
F150	F	0.633725	0.693935	-0.526758
H151	H	0.633720	0.530267	-0.170590
F152	F	1.011518	0.257759	-0.124920
H153	H	0.893952	0.647684	-0.501222
F154	F	1.011515	0.509631	-0.666975
H155	H	1.058867	0.926477	-0.656769
F156	F	0.381091	1.136354	-0.188919
F157	F	0.633727	1.008669	-0.723147
H158	H	0.263526	1.486243	-0.014837
F159	F	0.011491	0.997838	-0.178819
H160	H	0.893959	0.433559	-0.124868
F161	F	0.886345	1.007941	-0.317316
H162	H	1.003866	1.007902	-0.493093
F163	F	0.886378	0.809895	-0.515397
F164	F	-0.113639	0.997845	-0.178807
F165	F	-0.113634	0.768717	0.050325
H166	H	0.633714	0.408885	-0.234527
F167	F	0.633714	0.224390	0.061147
H168	H	1.003906	0.833859	-0.667200
F169	F	0.193409	1.496935	-0.108997
F170	F	0.633714	1.072619	-0.601751
F171	F	0.633740	0.706612	-0.701145
F172	F	0.633704	1.059942	-0.427350
H173	H	0.263567	1.312136	-0.188881
H174	H	0.373519	0.943892	0.385421
