data_functionalizedCrystal
_audit_creation_method	'MofGen! by Chris Wilmer'
_symmetry_space_group_name_H-M	'P1'
_symmetry_Int_Tables_number	1
_symmetry_cell_setting	triclinic
loop_
_symmetry_equiv_pos_as_xyz
  x,y,z
_cell_length_a	12.645331
_cell_length_b	19.121063
_cell_length_c	12.645323
_cell_angle_alpha	87.591876
_cell_angle_beta	90.015738
_cell_angle_gamma	92.467941
loop_
_atom_site_label
_atom_site_type_symbol
_atom_site_fract_x
_atom_site_fract_y
_atom_site_fract_z
Zn1	Zn	1.602654	-0.279622	0.617194
Zn2	Zn	1.594942	-0.397081	0.447472
Zn3	Zn	1.425367	-0.279647	0.439961
Zn4	Zn	1.417760	-0.397036	0.624706
O5	O	1.510181	-0.338346	0.532333
O6	O	1.749978	-0.295212	0.594679
O7	O	1.572404	-0.381532	0.298130
O8	O	1.455296	-0.181359	0.457185
O9	O	1.744312	-0.381509	0.469985
O10	O	1.585548	-0.181341	0.587397
O11	O	1.447818	-0.295254	0.292612
O12	O	1.276011	-0.295210	0.464469
O13	O	1.442330	-0.381431	0.772055
O14	O	1.270422	-0.381455	0.600199
O15	O	1.578171	-0.295168	0.766536
O16	O	1.565028	-0.495359	0.477269
O17	O	1.434852	-0.495326	0.607482
C18	C	1.234752	-0.338330	0.532335
C19	C	1.116921	-0.338341	0.532362
C20	C	0.945858	-0.392895	0.617342
C21	C	1.068429	-0.392719	0.617671
C22	C	1.077226	-0.264366	0.558136
C23	C	0.954606	-0.264699	0.558731
C24	C	0.948459	-0.357165	0.421310
C25	C	1.070960	-0.358783	0.422020
C26	C	1.498306	-0.520827	0.544028
C27	C	1.493323	-0.598893	0.549067
C28	C	1.558810	-0.635562	0.483696
C29	C	1.554130	-0.708913	0.488441
C30	C	1.483957	-0.745594	0.558553
C31	C	1.418468	-0.708919	0.623932
C32	C	1.423154	-0.635569	0.619191
C33	C	1.466419	-0.967063	0.576260
C34	C	1.461736	-1.040418	0.580993
C35	C	1.597401	-1.040407	0.445503
C36	C	1.602076	-0.967056	0.440765
C37	C	1.536590	-0.930388	0.506147
C38	C	1.479169	-0.820570	0.563403
C39	C	1.541384	-0.855412	0.501302
C40	C	1.786685	-0.338363	0.532332
C41	C	1.904515	-0.338370	0.532332
C42	C	1.510262	-0.338292	0.808835
C43	C	1.510297	-0.338269	0.926664
C44	C	1.522130	-0.155153	0.520615
C45	C	1.527223	-0.077088	0.515622
C46	C	1.510164	-0.338350	0.256904
C47	C	1.510347	-0.338175	0.139063
C48	C	1.424603	-0.392281	1.097683
C49	C	1.424801	-0.392549	0.975140
C50	C	1.620698	-0.358357	0.972459
C51	C	1.620225	-0.358696	1.095079
C52	C	1.486666	-0.263867	1.089090
C53	C	1.484145	-0.264313	0.966513
H54	H	0.927646	-0.222618	0.499384
C55	C	1.120137	-0.242432	0.666361
H56	H	1.095681	-0.197594	0.681250
H57	H	1.095891	-0.275688	0.719809
H58	H	1.195318	-0.240473	0.664783
C59	C	1.445443	-0.466957	0.940298
H60	H	1.445625	-0.467377	0.865198
H61	H	1.512119	-0.480721	0.966600
H62	H	1.391304	-0.498681	0.967589
H63	H	1.607456	-0.738766	0.435207
C64	C	1.115524	-0.309023	0.332379
H65	H	1.162949	-0.274974	0.361203
H66	H	1.152111	-0.335144	0.282834
H67	H	1.058998	-0.286237	0.297808
H68	H	1.342334	-0.379832	1.126368
H69	H	1.361336	-0.738790	0.681023
C70	C	0.917390	-0.243172	0.668183
H71	H	0.977204	-0.234310	0.711867
H72	H	0.878214	-0.201992	0.660275
H73	H	0.873806	-0.279946	0.699944
C74	C	1.709040	-0.306811	0.929778
H75	H	1.679307	-0.272502	0.883535
H76	H	1.742843	-0.284492	0.987206
H77	H	1.759463	-0.331642	0.892239
C78	C	0.912727	-0.303521	0.335815
H79	H	0.939530	-0.315149	0.268910
H80	H	0.837604	-0.304312	0.333385
H81	H	0.939020	-0.258001	0.352407
H82	H	0.912808	-0.447933	0.601957
C83	C	1.109176	-0.375917	0.728926
H84	H	1.184313	-0.375760	0.729511
H85	H	1.086671	-0.331173	0.746959
H86	H	1.081694	-0.410465	0.778948
C87	C	1.669436	-1.080740	0.373593
H88	H	1.711894	-1.048389	0.331154
H89	H	1.713779	-1.109311	0.416027
H90	H	1.627072	-1.109396	0.329217
H91	H	1.342785	-0.379978	0.944242
C92	C	0.902050	-0.428787	0.388415
H93	H	0.929579	-0.439130	0.321217
H94	H	0.920783	-0.464028	0.439360
H95	H	0.827148	-0.427386	0.384364
C96	C	1.120229	-0.207989	0.476833
H97	H	1.162881	-0.229116	0.426329
H98	H	1.062749	-0.186546	0.441851
H99	H	1.161611	-0.173530	0.512164
C100	C	1.444962	-0.466234	1.144067
H101	H	1.505493	-0.464280	1.188536
H102	H	1.385153	-0.483448	1.184179
H103	H	1.456820	-0.496596	1.088098
H104	H	1.615948	-0.605702	0.426598
C105	C	1.401978	-0.860918	0.640520
H106	H	1.363646	-0.828576	0.678782
H107	H	1.353985	-0.889580	0.601783
H108	H	1.440693	-0.889484	0.688592
C109	C	1.618572	-0.815070	0.424182
H110	H	1.656910	-0.847412	0.385926
H111	H	1.579865	-0.786498	0.376121
H112	H	1.666575	-0.786414	0.462927
C113	C	1.351120	-0.595233	0.691101
H114	H	1.308651	-0.627582	0.733532
H115	H	1.393483	-0.566576	0.735469
H116	H	1.306771	-0.566662	0.648664
H117	H	1.659217	-0.937192	0.383674
C118	C	1.648088	-0.432078	1.138441
H119	H	1.659583	-0.461402	1.081099
H120	H	1.710487	-0.428508	1.180057
H121	H	1.591364	-0.451602	1.180903
C122	C	1.709119	-0.307784	1.131901
H123	H	1.745366	-0.286991	1.071923
H124	H	1.679407	-0.272248	1.171355
H125	H	1.757444	-0.332717	1.175128
C126	C	1.105505	-0.432313	0.395627
H127	H	1.147764	-0.450484	0.451611
H128	H	1.044649	-0.462430	0.387130
H129	H	1.145448	-0.429382	0.331858
C130	C	1.384551	-1.080765	0.658129
H131	H	1.346229	-1.048422	0.696398
H132	H	1.336549	-1.109424	0.619397
H133	H	1.423270	-1.109334	0.706193
C134	C	1.649181	-0.430972	0.935672
H135	H	1.593944	-0.449145	0.892424
H136	H	1.713239	-0.426803	0.896248
H137	H	1.657907	-0.461776	0.995659
H138	H	1.407816	-0.245556	1.118829
C139	C	1.374431	-0.243839	0.925893
H140	H	1.344680	-0.280204	0.884814
H141	H	1.329447	-0.236962	0.984363
H142	H	1.381485	-0.201722	0.883415
H143	H	1.542416	-0.221869	0.933161
C144	C	1.571101	-0.209405	1.124779
H145	H	1.556375	-0.164612	1.094322
H146	H	1.570044	-0.207737	1.199742
H147	H	1.638982	-0.222269	1.102271
C148	C	1.104269	-0.466825	0.596599
H149	H	1.043876	-0.497310	0.587764
H150	H	1.146235	-0.465289	0.534183
H151	H	1.144790	-0.483601	0.654870
H152	H	1.413096	-0.937213	0.629495
H153	H	0.915860	-0.380617	0.699227
