data_functionalizedCrystal
_audit_creation_method	'MofGen! by Chris Wilmer'
_symmetry_space_group_name_H-M	'P1'
_symmetry_Int_Tables_number	1
_symmetry_cell_setting	triclinic
loop_
_symmetry_equiv_pos_as_xyz
  x,y,z
_cell_length_a	27.732048
_cell_length_b	27.732048
_cell_length_c	26.809956
_cell_angle_alpha	89.999364
_cell_angle_beta	89.996742
_cell_angle_gamma	82.642655
loop_
_atom_site_label
_atom_site_type_symbol
_atom_site_fract_x
_atom_site_fract_y
_atom_site_fract_z
O1	O	0.640931	0.057510	-0.041421
O2	O	1.140931	0.557510	0.458579
O3	O	0.500138	0.066256	-0.041436
O4	O	1.000138	0.566256	0.458564
O5	O	0.574907	-0.008514	-0.041419
O6	O	1.074907	0.491486	0.458581
O7	O	0.566162	0.132280	-0.041439
O8	O	1.066162	0.632280	0.458561
O9	O	0.574893	-0.008502	0.041541
O10	O	1.074893	0.491498	0.541541
O11	O	0.500123	0.066267	0.041523
O12	O	1.000123	0.566267	0.541523
O13	O	0.640917	0.057522	0.041539
O14	O	1.140917	0.557522	0.541539
Zn15	Zn	0.570518	0.061896	0.054702
Zn16	Zn	1.070518	0.561896	0.554702
Zn17	Zn	0.570536	0.061881	-0.054600
Zn18	Zn	1.070536	0.561881	0.445400
O19	O	0.566147	0.132291	0.041521
O20	O	1.066147	0.632291	0.541521
C21	C	0.482124	0.066078	0.000041
C22	C	0.982124	0.566078	0.500041
C23	C	0.428469	0.065525	0.000036
C24	C	0.928469	0.565525	0.500036
C25	C	0.089654	0.106229	0.000051
C26	C	0.589654	0.606229	0.500051
C27	C	-0.112006	0.104178	0.000056
C28	C	0.387994	0.604178	0.500056
O29	O	-0.143262	0.141398	0.000073
O30	O	0.356738	0.641398	0.500073
N31	N	-0.131130	0.059843	0.000062
N32	N	0.368870	0.559843	0.500062
C33	C	-0.099835	0.016017	0.000069
C34	C	0.400165	0.516017	0.500069
O35	O	-0.120728	-0.021740	0.000079
O36	O	0.379272	0.478260	0.500079
C37	C	0.101824	0.018068	0.000068
C38	C	0.601824	0.518068	0.500068
C39	C	0.120944	0.062407	0.000057
C40	C	0.620944	0.562407	0.500057
C41	C	0.108775	0.150563	0.000042
C42	C	0.608775	0.650563	0.500042
C43	C	0.159187	0.151076	0.000038
C44	C	0.659187	0.651076	0.500038
C45	C	0.190477	0.107253	0.000044
C46	C	0.690477	0.607253	0.500044
C47	C	0.171356	0.062919	0.000054
C48	C	0.671356	0.562919	0.500054
C49	C	0.133117	-0.025757	0.000079
C50	C	0.633117	0.474243	0.500079
C51	C	0.183535	-0.025240	0.000080
C52	C	0.683535	0.474760	0.500080
C53	C	0.202655	0.019098	0.000069
C54	C	0.702655	0.519098	0.500069
C55	C	0.253059	0.019609	0.000056
C56	C	0.753059	0.519609	0.500056
N57	N	0.272183	0.063944	0.000050
N58	N	0.772183	0.563944	0.500050
C59	C	0.240892	0.107766	0.000044
C60	C	0.740892	0.607766	0.500044
C61	C	-0.205709	0.014943	0.000069
C62	C	0.294291	0.514943	0.500069
C63	C	-0.256124	0.014430	0.000068
C64	C	0.243876	0.514430	0.500068
C65	C	-0.268291	0.102591	0.000056
C66	C	0.231709	0.602591	0.500056
C67	C	-0.217876	0.103104	0.000053
C68	C	0.282124	0.603104	0.500053
C69	C	-0.186585	0.059278	0.000063
C70	C	0.313415	0.559278	0.500063
C71	C	0.346761	0.108839	0.000036
C72	C	0.846761	0.608839	0.500036
C73	C	0.397178	0.109347	0.000030
C74	C	0.897178	0.609347	0.500030
C75	C	0.409341	0.021186	0.000044
C76	C	0.909341	0.521186	0.500044
C77	C	0.358929	0.020678	0.000048
C78	C	0.858929	0.520678	0.500048
C79	C	0.327639	0.064508	0.000045
C80	C	0.827639	0.564508	0.500045
O81	O	0.284343	-0.017592	0.000045
O82	O	0.784343	0.482408	0.500045
O83	O	0.261794	0.145518	0.000045
O84	O	0.761794	0.645518	0.500045
C85	C	0.039242	0.105716	0.000055
C86	C	0.539242	0.605716	0.500055
C87	C	0.020120	0.061382	0.000065
C88	C	0.520120	0.561382	0.500065
C89	C	0.051411	0.017560	0.000071
C90	C	0.551411	0.517560	0.500071
C91	C	-0.030294	0.060869	0.000065
C92	C	0.469706	0.560869	0.500065
C93	C	-0.061585	0.104691	0.000059
C94	C	0.438415	0.604691	0.500059
C95	C	-0.042461	0.149026	0.000053
C96	C	0.457539	0.649026	0.500053
C97	C	0.007951	0.149539	0.000049
C98	C	0.507951	0.649539	0.500049
C99	C	0.032287	-0.026775	0.000077
C100	C	0.532287	0.473225	0.500077
C101	C	-0.018125	-0.027284	0.000080
C102	C	0.481875	0.472716	0.500080
C103	C	-0.049416	0.016538	0.000074
C104	C	0.450584	0.516538	0.500074
C105	C	0.574716	-0.026515	0.000062
C106	C	1.074716	0.473485	0.500062
C107	C	0.574164	-0.080170	0.000066
C108	C	1.074164	0.419830	0.500066
C109	C	0.614867	-0.418985	0.000045
C110	C	1.114867	0.081015	0.500045
C111	C	0.612816	-0.620645	0.000038
C112	C	1.112816	-0.120645	0.500038
O113	O	0.650037	-0.651900	0.000021
O114	O	1.150037	-0.151900	0.500021
N115	N	0.568481	-0.639768	0.000034
N116	N	1.068481	-0.139768	0.500034
C117	C	0.524656	-0.608474	0.000028
C118	C	1.024656	-0.108474	0.500028
O119	O	0.486899	-0.629367	0.000019
O120	O	0.986899	-0.129367	0.500019
C121	C	0.526707	-0.406815	0.000031
C122	C	1.026707	0.093185	0.500031
C123	C	0.571045	-0.387694	0.000041
C124	C	1.071045	0.112306	0.500041
C125	C	0.659202	-0.399864	0.000054
C126	C	1.159202	0.100136	0.500054
C127	C	0.659714	-0.349452	0.000059
C128	C	1.159714	0.150548	0.500059
C129	C	0.615892	-0.318161	0.000054
C130	C	1.115892	0.181839	0.500054
C131	C	0.571557	-0.337282	0.000045
C132	C	1.071557	0.162718	0.500045
C133	C	0.482882	-0.375521	0.000022
C134	C	0.982882	0.124479	0.500022
C135	C	0.483399	-0.325104	0.000021
C136	C	0.983399	0.174896	0.500021
C137	C	0.527737	-0.305983	0.000031
C138	C	1.027737	0.194017	0.500031
C139	C	0.528247	-0.255580	0.000045
C140	C	1.028247	0.244420	0.500045
N141	N	0.572583	-0.236456	0.000050
N142	N	1.072583	0.263544	0.500050
C143	C	0.616405	-0.267747	0.000054
C144	C	1.116405	0.232253	0.500054
C145	C	0.523582	-0.714348	0.000027
C146	C	1.023582	-0.214348	0.500027
C147	C	0.523069	-0.764762	0.000027
C148	C	1.023069	-0.264762	0.500027
C149	C	0.611230	-0.776930	0.000036
C150	C	1.111230	-0.276930	0.500036
C151	C	0.611742	-0.726514	0.000040
C152	C	1.111742	-0.226514	0.500040
C153	C	0.567917	-0.695224	0.000031
C154	C	1.067917	-0.195224	0.500031
C155	C	0.617477	-0.161878	0.000064
C156	C	1.117477	0.338122	0.500064
C157	C	0.617986	-0.111461	0.000071
C158	C	1.117986	0.388539	0.500071
C159	C	0.529825	-0.099298	0.000059
C160	C	1.029825	0.400702	0.500059
C161	C	0.529316	-0.149710	0.000055
C162	C	1.029316	0.350290	0.500055
C163	C	0.573147	-0.180999	0.000056
C164	C	1.073147	0.319001	0.500056
O165	O	0.491047	-0.224296	0.000057
O166	O	0.991047	0.275704	0.500057
O167	O	0.654156	-0.246844	0.000053
O168	O	1.154156	0.253156	0.500053
C169	C	0.614355	-0.469397	0.000041
C170	C	1.114355	0.030603	0.500041
C171	C	0.570021	-0.488518	0.000032
C172	C	1.070021	0.011482	0.500032
C173	C	0.526198	-0.457228	0.000027
C174	C	1.026198	0.042772	0.500027
C175	C	0.569508	-0.538933	0.000032
C176	C	1.069508	-0.038933	0.500032
C177	C	0.613330	-0.570223	0.000036
C178	C	1.113330	-0.070223	0.500036
C179	C	0.657665	-0.551100	0.000041
C180	C	1.157665	-0.051100	0.500041
C181	C	0.658177	-0.500688	0.000045
C182	C	1.158177	-0.000688	0.500045
C183	C	0.481863	-0.476351	0.000023
C184	C	0.981863	0.023649	0.500023
C185	C	0.481355	-0.526764	0.000019
C186	C	0.981355	-0.026764	0.500019
C187	C	0.525177	-0.558054	0.000023
C188	C	1.025177	-0.058054	0.500023
C189	C	0.658931	0.057699	0.000060
C190	C	1.158931	0.557699	0.500060
C191	C	0.712586	0.058252	0.000062
C192	C	1.212586	0.558252	0.500062
C193	C	0.566338	0.150292	0.000039
C194	C	1.066338	0.650292	0.500039
C195	C	0.566891	0.203947	0.000031
C196	C	1.066891	0.703947	0.500031
N197	N	0.570509	0.061906	0.129298
N198	N	1.070509	0.561906	0.629298
N199	N	0.570549	0.061867	-0.129196
N200	N	1.070549	0.561867	0.370804
C201	C	0.603640	0.028781	0.473932
C202	C	1.103640	0.528781	0.973932
C203	C	0.603652	0.028774	0.682810
C204	C	1.103652	0.528774	1.182810
O205	O	0.631801	0.000613	0.709820
O206	O	1.131801	0.500613	1.209820
N207	N	0.570539	0.061870	0.708925
N208	N	1.070539	0.561870	1.208925
C209	C	0.537419	0.094969	0.682818
C210	C	1.037419	0.594969	1.182818
O211	O	0.509252	0.123116	0.709824
O212	O	1.009252	0.623116	1.209824
C213	C	0.537406	0.094974	0.473941
C214	C	1.037406	0.594974	0.973941
C215	C	0.570524	0.061878	0.447829
C216	C	1.070524	0.561878	0.947829
C217	C	0.636755	-0.004312	0.447819
C218	C	1.136755	0.495688	0.947819
C219	C	0.636754	-0.004308	0.395603
C220	C	1.136754	0.495692	0.895603
C221	C	0.603637	0.028789	0.369500
C222	C	1.103637	0.528789	0.869500
C223	C	0.570522	0.061882	0.395612
C224	C	1.070522	0.561882	0.895612
C225	C	0.504284	0.128070	0.447835
C226	C	1.004284	0.628070	0.947835
C227	C	0.504283	0.128067	0.395613
C228	C	1.004283	0.628067	0.895613
C229	C	0.537401	0.094972	0.369500
C230	C	1.037401	0.594972	0.869500
C231	C	0.537405	0.094983	0.317293
C232	C	1.037405	0.594983	0.817293
N233	N	0.570517	0.061887	0.291177
N234	N	1.070517	0.561887	0.791177
C235	C	0.603633	0.028790	0.317281
C236	C	1.103633	0.528790	0.817281
C237	C	0.537429	0.094965	0.792481
C238	C	1.037429	0.594965	1.292481
C239	C	0.537433	0.094964	0.844700
C240	C	1.037433	0.594964	1.344700
C241	C	0.603665	0.028768	0.844689
C242	C	1.103665	0.528768	1.344689
C243	C	0.603663	0.028772	0.792469
C244	C	1.103663	0.528772	1.292469
C245	C	0.570542	0.061868	0.766366
C246	C	1.070542	0.561868	1.266366
C247	C	0.603628	0.028801	0.207623
C248	C	1.103628	0.528801	0.707623
C249	C	0.603625	0.028809	0.155402
C250	C	1.103625	0.528809	0.655402
C251	C	0.537392	0.095003	0.155418
C252	C	1.037392	0.595003	0.655418
C253	C	0.537396	0.094997	0.207635
C254	C	1.037396	0.594997	0.707635
C255	C	0.570516	0.061892	0.233735
C256	C	1.070516	0.561892	0.733735
O257	O	0.509266	0.123126	0.290250
O258	O	1.009266	0.623126	0.790250
O259	O	0.631789	0.000640	0.290266
O260	O	1.131789	0.500640	0.790266
C261	C	0.603642	0.028777	0.526149
C262	C	1.103642	0.528777	1.026149
C263	C	0.570527	0.061870	0.552261
C264	C	1.070527	0.561870	1.052261
C265	C	0.537410	0.094968	0.526158
C266	C	1.037410	0.594968	1.026158
C267	C	0.570531	0.061870	0.604480
C268	C	1.070531	0.561870	1.104480
C269	C	0.603647	0.028773	0.630584
C270	C	1.103647	0.528773	1.130584
C271	C	0.636759	-0.004324	0.604468
C272	C	1.136759	0.495676	1.104468
C273	C	0.636758	-0.004320	0.552252
C274	C	1.136758	0.495680	1.052252
C275	C	0.504298	0.128064	0.552273
C276	C	1.004298	0.628064	1.052273
C277	C	0.504303	0.128058	0.604489
C278	C	1.004303	0.628058	1.104489
C279	C	0.537419	0.094961	0.630593
C280	C	1.037419	0.594961	1.130593
H281	H	0.083302	0.186251	0.000038
H282	H	0.583302	0.686251	0.500038
O283	O	0.468582	0.163766	0.632643
O284	O	0.968582	0.663766	1.132643
H285	H	0.445239	0.143585	0.656438
H286	H	0.945239	0.643585	1.156438
O287	O	0.659566	-0.705897	0.000043
O288	O	1.159566	-0.205897	0.500043
H289	H	0.661909	-0.683221	0.033857
H290	H	1.161909	-0.183221	0.533857
H291	H	0.630630	0.001820	0.865951
H292	H	1.130630	0.501820	1.365951
O293	O	-0.171963	-0.032329	0.000080
O294	O	0.328037	0.467671	0.500080
H295	H	-0.178719	-0.053565	-0.033732
H296	H	0.321281	0.446435	0.466268
O297	O	0.468550	0.163760	0.367462
O298	O	0.968550	0.663760	0.867462
H299	H	0.474104	0.158200	0.326763
H300	H	0.974104	0.658200	0.826763
O301	O	0.434596	-0.442604	0.000027
O302	O	0.934596	0.057396	0.500027
H303	H	0.403684	-0.464377	0.000029
H304	H	0.903684	0.035623	0.500029
H305	H	0.663720	-0.031258	0.374345
H306	H	1.163720	0.468742	0.874345
O307	O	0.501719	0.130673	0.872854
O308	O	1.001719	0.630673	1.372854
H309	H	0.478377	0.110495	0.896653
H310	H	0.978377	0.610495	1.396653
H311	H	0.510457	0.121917	0.771232
H312	H	1.010457	0.621917	1.271232
O313	O	0.704932	-0.584853	0.000046
O314	O	1.204932	-0.084853	0.500046
H315	H	0.697122	-0.623120	0.000038
H316	H	1.197122	-0.123120	0.500038
O317	O	0.639376	-0.006935	0.764312
O318	O	1.139376	0.493065	1.264312
H319	H	0.619199	-0.030288	0.740528
H320	H	1.119199	0.469712	1.240528
H321	H	-0.271687	-0.021674	0.000069
H322	H	0.228313	0.478326	0.500069
O323	O	0.705999	-0.480067	0.000046
O324	O	1.205999	0.019933	0.500046
H325	H	0.736381	-0.510301	0.000042
H326	H	1.236381	-0.010301	0.500042
O327	O	0.112501	-0.073579	0.000101
O328	O	0.612501	0.426421	0.500101
H329	H	0.142736	-0.103960	0.000114
H330	H	0.642736	0.396040	0.500114
O331	O	0.217285	-0.072509	0.000089
O332	O	0.717285	0.427491	0.500089
H333	H	0.195515	-0.103423	0.000093
H334	H	0.695515	0.396577	0.500093
O335	O	0.433530	-0.547385	0.000010
O336	O	0.933530	-0.047385	0.500010
H337	H	0.403146	-0.517152	0.000003
H338	H	0.903146	-0.017152	0.500003
H339	H	0.446777	-0.391080	0.000011
H340	H	0.946777	0.108920	0.500011
H341	H	0.630595	0.001859	0.134142
H342	H	1.130595	0.501859	0.634142
O343	O	-0.038745	-0.075109	0.000090
O344	O	0.461255	0.424891	0.500090
H345	H	-0.061424	-0.077443	0.033905
H346	H	0.438576	0.422557	0.533905
H347	H	0.487892	-0.688875	0.000020
H348	H	0.987892	-0.188875	0.500020
O349	O	0.482561	-0.065544	0.000056
O350	O	0.982561	0.434456	0.500056
H351	H	0.480694	-0.042286	-0.033759
H352	H	0.980694	0.457714	0.466241
H353	H	-0.202311	0.139207	0.000047
H354	H	0.297689	0.639207	0.500047
H355	H	0.663722	-0.031266	0.469068
H356	H	1.163722	0.468734	0.969068
O357	O	0.468581	0.163783	0.475993
O358	O	0.968581	0.663783	0.975993
H359	H	0.445559	0.186796	0.449060
H360	H	0.945559	0.686796	0.949060
O361	O	0.436128	-0.291356	0.000019
O362	O	0.936128	0.208644	0.500019
H363	H	0.414897	-0.298116	-0.033795
H364	H	0.914897	0.201884	0.466205
H365	H	0.343360	-0.015426	0.000049
H366	H	0.843360	0.484574	0.500049
H367	H	0.646911	-0.802415	0.000040
H368	H	1.146911	-0.302415	0.500040
H369	H	0.023514	0.185643	0.000042
H370	H	0.523514	0.685643	0.500042
H371	H	0.510433	0.121951	0.228896
H372	H	1.010433	0.621951	0.728896
H373	H	0.477330	0.155015	0.531024
H374	H	0.977330	0.655015	1.031024
O375	O	0.066032	-0.074045	0.000085
O376	O	0.566032	0.425955	0.500085
H377	H	0.089294	-0.075926	-0.033728
H378	H	0.589294	0.424074	0.466272
H379	H	0.630597	0.001843	0.228868
H380	H	1.130597	0.501843	0.728868
O381	O	0.443094	-0.026078	0.000058
O382	O	0.943094	0.473922	0.500058
H383	H	0.481361	-0.018269	0.000062
H384	H	0.981361	0.481731	0.500062
H385	H	0.412743	0.145454	0.000021
H386	H	0.912743	0.645454	0.500021
O387	O	0.665811	-0.090841	0.000080
O388	O	1.165811	0.409159	0.500080
H389	H	0.658809	-0.050527	0.000087
H390	H	1.158809	0.449473	0.500087
O391	O	0.664750	-0.195622	0.000073
O392	O	1.164750	0.304378	0.500073
H393	H	0.695660	-0.173849	0.000086
H394	H	1.195660	0.326151	0.500086
H395	H	0.510430	0.121952	0.134157
H396	H	1.010430	0.621952	0.634157
O397	O	0.672473	-0.040020	0.524090
O398	O	1.172473	0.459980	1.024090
H399	H	0.695495	-0.063035	0.551021
H400	H	1.195495	0.436965	1.051021
O401	O	-0.076219	0.196291	0.000051
O402	O	0.423781	0.696291	0.500051
H403	H	-0.069469	0.217525	-0.033766
H404	H	0.430531	0.717525	0.466234
O405	O	0.672478	-0.040024	0.632627
O406	O	1.172478	0.459976	1.132627
H407	H	0.666908	-0.034465	0.673324
H408	H	1.166908	0.465535	1.173324
H409	H	0.321291	0.144530	0.000035
H410	H	0.821291	0.644530	0.500035
O411	O	0.481497	-0.170338	0.000046
O412	O	0.981497	0.329662	0.500046
H413	H	0.451111	-0.140108	0.000042
H414	H	0.951111	0.359892	0.500042
H415	H	-0.293777	0.138273	0.000051
H416	H	0.206223	0.638273	0.500051
O417	O	0.179803	0.198900	0.000041
O418	O	0.679803	0.698900	0.500041
H419	H	0.167205	0.219940	-0.033769
H420	H	0.667205	0.719940	0.466231
O421	O	0.707538	-0.328836	0.000055
O422	O	1.207538	0.171164	0.500055
H423	H	0.728577	-0.341436	0.033865
H424	H	1.228577	0.158564	0.533865
O425	O	0.706471	-0.433610	0.000066
O426	O	1.206471	0.066390	0.500066
H427	H	0.737381	-0.411835	0.000078
H428	H	1.237381	0.088165	0.500078
O429	O	0.475247	-0.785384	0.000023
O430	O	0.975247	-0.285384	0.500023
H431	H	0.444864	-0.755151	0.000015
H432	H	0.944864	-0.255151	0.500015
