data_functionalizedCrystal
_audit_creation_method	'MofGen! by Chris Wilmer'
_symmetry_space_group_name_H-M	'P1'
_symmetry_Int_Tables_number	1
_symmetry_cell_setting	triclinic
loop_
_symmetry_equiv_pos_as_xyz
  x,y,z
_cell_length_a	19.805407
_cell_length_b	19.805405
_cell_length_c	10.685884
_cell_angle_alpha	85.610963
_cell_angle_beta	94.365737
_cell_angle_gamma	90.029324
loop_
_atom_site_label
_atom_site_type_symbol
_atom_site_fract_x
_atom_site_fract_y
_atom_site_fract_z
Zn1	Zn	-1.005286	0.240291	0.713489
Zn2	Zn	-1.013888	0.362132	0.502470
Zn3	Zn	-0.900800	0.248954	0.502497
Zn4	Zn	-0.892054	0.353439	0.713411
O5	O	-0.953007	0.301204	0.607967
O6	O	-1.101143	0.256466	0.685518
O7	O	-1.006147	0.354383	0.325893
O8	O	-0.914721	0.153086	0.530529
O9	O	-1.107463	0.345982	0.530483
O10	O	-0.991486	0.146721	0.685544
O11	O	-0.923062	0.271231	0.325913
O12	O	-0.804925	0.262801	0.530454
O13	O	-0.899815	0.331165	0.890002
O14	O	-0.798499	0.339566	0.685412
O15	O	-0.983006	0.248036	0.890059
O16	O	-0.997667	0.455697	0.530408
O17	O	-0.908156	0.449310	0.685385
C18	C	-0.777153	0.301181	0.607928
C19	C	-0.701920	0.301186	0.607941
C20	C	-0.663281	0.254645	0.688789
C21	C	-0.592593	0.254648	0.688791
C22	C	-0.560545	0.301194	0.607950
C23	C	-0.599189	0.347736	0.527093
C24	C	-0.669876	0.347730	0.527086
C25	C	-0.314115	0.347760	0.527119
C26	C	-0.243422	0.347763	0.527135
C27	C	-0.236831	0.254677	0.688824
C28	C	-0.307518	0.254671	0.688817
C29	C	-0.346157	0.301211	0.607956
C30	C	-0.422805	0.301207	0.607953
C31	C	-0.483897	0.301201	0.607958
C32	C	-0.952913	0.477062	0.607913
C33	C	-0.952932	0.552293	0.607932
C34	C	-0.939475	0.287665	0.937096
C35	C	-0.933709	0.281895	1.077351
C36	C	-0.129549	0.301223	0.607995
C37	C	-0.204782	0.301219	0.607978
C38	C	-0.992872	0.584263	0.688710
C39	C	-0.992888	0.654950	0.688730
C40	C	-0.952967	0.693667	0.607965
C41	C	-0.913023	0.661693	0.527183
C42	C	-0.913004	0.591007	0.527170
C43	C	-0.913097	0.946765	0.527235
C44	C	-0.913121	1.017456	0.527251
C45	C	-0.992981	1.010708	0.688794
C46	C	-0.992962	0.940021	0.688781
C47	C	-0.953015	0.908053	0.608005
C48	C	-0.952998	0.831406	0.607986
C49	C	-0.952988	0.770314	0.607977
C50	C	-0.953092	1.124658	0.608037
C51	C	-0.953057	1.049426	0.608036
C52	C	-0.966482	0.314704	1.280117
C53	C	-0.972248	0.320468	1.139862
H54	H	-0.333608	0.216771	0.754650
H55	H	-1.009660	0.357902	1.086074
C56	C	-1.036826	0.690117	0.777572
H57	H	-1.031117	0.737760	0.766024
H58	H	-1.083063	0.679256	0.759171
H59	H	-1.023397	0.675037	0.862343
C60	C	-0.550092	0.203454	0.777726
H61	H	-0.579303	0.175738	0.825881
H62	H	-0.524507	0.175904	0.729562
H63	H	-0.520254	0.227141	0.832624
C64	C	-0.883168	0.231330	1.149997
H65	H	-0.885786	0.233964	1.237896
H66	H	-0.893968	0.186725	1.128493
H67	H	-0.838560	0.242117	1.128440
H68	H	-0.689369	0.216744	0.754622
C69	C	-1.036916	1.045874	0.777659
H70	H	-1.031206	1.093517	0.766114
H71	H	-1.083153	1.035014	0.759267
H72	H	-1.023481	1.030791	0.862427
H73	H	-0.205363	0.216780	0.754660
C74	C	-0.208170	0.398962	0.438198
H75	H	-0.241306	0.426674	0.390029
H76	H	-0.178607	0.426516	0.486367
H77	H	-0.182858	0.375275	0.383312
C78	C	-0.356608	0.398953	0.438181
H79	H	-0.327395	0.426678	0.390048
H80	H	-0.386444	0.375272	0.383282
H81	H	-0.382195	0.426505	0.486350
C82	C	-0.563938	0.398937	0.438172
H83	H	-0.516304	0.392280	0.449764
H84	H	-0.579001	0.392447	0.353420
H85	H	-0.574753	0.443676	0.456496
C86	C	-1.036785	0.541677	0.777548
H87	H	-1.031060	0.494999	0.765966
H88	H	-1.023362	0.549766	0.862316
H89	H	-1.083032	0.553987	0.759153
C90	C	-0.712379	0.398930	0.438164
H91	H	-0.683169	0.426657	0.390029
H92	H	-0.742219	0.375252	0.383267
H93	H	-0.737963	0.426478	0.486346
C94	C	-1.036872	0.897436	0.777627
H95	H	-1.060656	0.926599	0.825749
H96	H	-1.068359	0.871827	0.729410
H97	H	-1.008682	0.867614	0.832559
H98	H	-0.880609	1.048978	0.461480
C99	C	-0.869160	0.911605	0.438386
H100	H	-0.874856	0.863961	0.449951
H101	H	-0.882588	0.926683	0.353620
H102	H	-0.822921	0.922470	0.456791
C103	C	-0.869107	0.704277	0.438345
H104	H	-0.845313	0.675111	0.390244
H105	H	-0.897287	0.734102	0.383413
H106	H	-0.837618	0.729881	0.486579
C107	C	-0.869071	0.555841	0.438314
H108	H	-0.845302	0.589022	0.390207
H109	H	-0.837570	0.526297	0.486529
H110	H	-0.897241	0.530516	0.383367
