data_functionalizedCrystal
_audit_creation_method	'MofGen! by Chris Wilmer'
_symmetry_space_group_name_H-M	'P1'
_symmetry_Int_Tables_number	1
_symmetry_cell_setting	triclinic
loop_
_symmetry_equiv_pos_as_xyz
  x,y,z
_cell_length_a	12.759401
_cell_length_b	19.077114
_cell_length_c	12.759386
_cell_angle_alpha	87.767809
_cell_angle_beta	89.958941
_cell_angle_gamma	87.670160
loop_
_atom_site_label
_atom_site_type_symbol
_atom_site_fract_x
_atom_site_fract_y
_atom_site_fract_z
Zn1	Zn	1.589593	0.279902	-0.610772
Zn2	Zn	1.582318	0.397681	-0.442141
Zn3	Zn	1.413823	0.280007	-0.435113
Zn4	Zn	1.406787	0.397564	-0.617771
O5	O	1.498130	0.338788	-0.526449
O6	O	1.735648	0.295530	-0.588415
O7	O	1.559868	0.382164	-0.294193
O8	O	1.443129	0.181505	-0.452545
O9	O	1.730304	0.382062	-0.464522
O10	O	1.572266	0.181427	-0.581601
O11	O	1.436075	0.295710	-0.289030
O12	O	1.265869	0.295596	-0.459331
O13	O	1.431136	0.381862	-0.763858
O14	O	1.260699	0.381965	-0.593529
O15	O	1.565443	0.295417	-0.758716
O16	O	1.553044	0.496154	-0.471309
O17	O	1.424082	0.496068	-0.600343
C18	C	1.225163	0.338780	-0.526428
C19	C	1.108386	0.338793	-0.526445
C20	C	1.487039	0.521648	-0.537371
C21	C	1.482390	0.599876	-0.542078
C22	C	1.050855	0.383833	-0.596220
C23	C	0.941131	0.383836	-0.596241
C24	C	0.946478	0.293756	-0.456702
C25	C	1.056200	0.293750	-0.456687
C26	C	1.547402	0.636649	-0.477164
C27	C	1.543035	0.710152	-0.481598
C28	C	1.473651	0.746881	-0.550941
C29	C	1.408637	0.710103	-0.615863
C30	C	1.413009	0.636601	-0.611434
C31	C	1.453374	0.966707	-0.571391
C32	C	1.449004	1.040214	-0.575813
C33	C	1.583405	1.040258	-0.441549
C34	C	1.587767	0.966754	-0.437122
C35	C	1.522756	0.929983	-0.502047
N36	N	1.469184	0.822013	-0.555473
N37	N	1.527229	0.854852	-0.497520
C38	C	1.772163	0.338797	-0.526471
C39	C	1.888939	0.338801	-0.526481
C40	C	1.509285	1.155215	-0.515521
C41	C	1.514016	1.076987	-0.510899
C42	C	1.498316	0.338615	-0.800473
C43	C	1.498395	0.338541	-0.917245
C44	C	1.498009	0.338910	-0.253489
C45	C	1.498146	0.338786	-0.136705
C46	C	1.428755	0.384059	-0.084250
C47	C	1.428876	0.383935	0.025481
C48	C	1.567789	0.293263	0.030293
C49	C	1.567661	0.293384	-0.079436
H50	H	1.093342	0.420508	-0.653023
C51	C	1.180080	0.283906	-0.314787
C52	C	1.119450	0.244240	-0.379984
H53	H	1.219132	0.253339	-0.267444
H54	H	1.135385	0.314547	-0.276359
H55	H	1.226856	0.310725	-0.356346
H56	H	1.072668	0.217424	-0.338426
H57	H	1.164150	0.213586	-0.418416
C58	C	0.946874	0.472881	-0.734155
C59	C	0.877893	0.433349	-0.672936
H60	H	0.907832	0.503452	-0.781500
H61	H	0.991561	0.442233	-0.772581
H62	H	0.988000	0.499778	-0.689898
H63	H	0.836773	0.406448	-0.717192
H64	H	0.833188	0.464001	-0.634507
C65	C	1.679815	0.644083	-0.344901
C66	C	1.623672	0.596280	-0.400938
H67	H	1.726907	0.619160	-0.297848
H68	H	1.632338	0.672813	-0.306407
H69	H	1.718290	0.672687	-0.392449
H70	H	1.585190	0.567679	-0.353391
H71	H	1.671155	0.567537	-0.439434
C72	C	1.286770	0.394660	-0.207985
C73	C	1.352341	0.433959	-0.147205
H74	H	1.239599	0.425468	-0.246853
H75	H	1.248155	0.364151	-0.163408
H76	H	1.328092	0.367718	-0.254927
H77	H	1.311020	0.460898	-0.100257
H78	H	1.390960	0.464481	-0.191787
C79	C	1.316608	1.032791	-0.708111
C80	C	1.372742	1.080588	-0.652052
H81	H	1.269536	1.057719	-0.755178
H82	H	1.278122	1.004190	-0.660586
H83	H	1.364101	1.004058	-0.746601
H84	H	1.325249	1.109318	-0.613556
H85	H	1.411230	1.109202	-0.699583
C86	C	0.780654	0.253767	-0.394767
C87	C	0.889111	0.244250	-0.380024
H88	H	0.745242	0.223205	-0.347422
H89	H	0.763362	0.243498	-0.464765
H90	H	0.759803	0.301051	-0.382095
H91	H	0.909963	0.196966	-0.392703
H92	H	0.906411	0.254513	-0.310010
H93	H	1.624388	0.256299	0.076934
H94	H	1.400437	0.936773	-0.624254
C95	C	1.624770	0.173998	-0.106649
C96	C	1.643944	0.243614	-0.137098
H97	H	1.671865	0.143273	-0.142242
H98	H	1.554662	0.164066	-0.123953
H99	H	1.634799	0.167439	-0.033101
H100	H	1.633908	0.250174	-0.210645
H101	H	1.714069	0.253549	-0.119801
C102	C	1.679628	0.792598	-0.472309
C103	C	1.614673	0.750508	-0.410331
H104	H	1.723912	0.817488	-0.428335
H105	H	1.637686	0.825040	-0.514149
H106	H	1.721348	0.763805	-0.516465
H107	H	1.572947	0.779301	-0.366181
H108	H	1.656619	0.718063	-0.368473
H109	H	1.636334	1.070205	-0.388692
C110	C	1.720198	0.974184	-0.304873
C111	C	1.664049	0.926384	-0.360910
H112	H	1.767296	0.949259	-0.257828
H113	H	1.672725	1.002911	-0.266369
H114	H	1.758667	1.002792	-0.352421
H115	H	1.625574	0.897780	-0.313362
H116	H	1.711529	0.897645	-0.399416
C117	C	1.291569	0.473580	0.009695
C118	C	1.352605	0.433705	0.083139
H119	H	1.244486	0.504309	0.045292
H120	H	1.252852	0.443160	-0.031330
H121	H	1.335979	0.500322	-0.034675
H122	H	1.308196	0.406959	0.127504
H123	H	1.391325	0.464128	0.124182
H124	H	1.352147	0.740014	-0.672328
H125	H	1.360071	0.606661	-0.664295
