data_functionalizedCrystal
_audit_creation_method	'MofGen! by Chris Wilmer'
_symmetry_space_group_name_H-M	'P1'
_symmetry_Int_Tables_number	1
_symmetry_cell_setting	triclinic
loop_
_symmetry_equiv_pos_as_xyz
  x,y,z
_cell_length_a	10.654562
_cell_length_b	10.723023
_cell_length_c	9.730223
_cell_angle_alpha	89.999649
_cell_angle_beta	89.996961
_cell_angle_gamma	84.478826
loop_
_atom_site_label
_atom_site_type_symbol
_atom_site_fract_x
_atom_site_fract_y
_atom_site_fract_z
O1	O	1.667798	0.175345	-0.114377
O2	O	1.302319	0.192027	-0.114360
O3	O	1.493489	0.002112	-0.114363
O4	O	1.476627	0.365261	-0.114374
O5	O	1.493487	0.002116	0.114217
O6	O	1.302317	0.192032	0.114220
O7	O	1.667796	0.175350	0.114203
Zn8	Zn	1.485056	0.183692	0.150504
Zn9	Zn	1.485059	0.183685	-0.150660
O10	O	1.476625	0.365266	0.114206
C11	C	1.255520	0.190802	-0.000068
C12	C	1.116078	0.187127	-0.000061
C13	C	1.050547	0.185416	0.124527
C14	C	0.919525	0.181973	0.124504
C15	C	0.919577	0.181958	-0.124706
C16	C	1.050598	0.185392	-0.124682
C17	C	1.050515	0.185429	0.268407
C18	C	0.919493	0.181986	0.268384
C19	C	1.492261	-0.044386	-0.000075
C20	C	1.488591	-0.182941	-0.000079
C21	C	1.486955	-0.244709	-0.118492
C22	C	1.483161	-0.387913	-0.118499
C23	C	1.714594	0.176576	-0.000092
C24	C	1.854036	0.180250	-0.000108
C25	C	1.477853	0.411763	-0.000085
C26	C	1.481524	0.550318	-0.000090
N27	N	1.485063	0.183695	0.356040
N28	N	1.485061	0.183672	-0.356197
C29	C	1.569735	0.099629	0.427964
C30	C	1.569732	0.099614	0.571847
C31	C	1.400380	0.267742	0.571869
C32	C	1.400378	0.267750	0.427988
C33	C	1.667513	0.002566	0.427953
C34	C	1.667509	0.002550	0.571836
H35	H	0.873193	0.268231	0.323618
C36	C	1.090456	0.308376	0.328731
N37	N	1.120541	0.400979	0.374168
H38	H	1.637011	-0.088092	0.616456
C39	C	1.483421	-0.377931	0.136878
N40	N	1.484847	-0.323879	0.240042
H41	H	1.646085	-0.093353	0.388903
H42	H	1.331431	0.336176	0.630464
C43	C	0.847536	0.180055	-0.261781
N44	N	0.793275	0.178625	-0.365030
C45	C	1.307329	0.360325	0.348876
N46	N	1.237280	0.430095	0.289290
C47	C	1.488866	-0.172933	-0.255447
N48	N	1.490310	-0.118872	-0.358606
C49	C	1.481262	-0.459672	-0.255461
N50	N	1.479828	-0.513723	-0.358626
H51	H	1.487174	-0.236076	0.101293
C52	C	1.797854	0.031536	0.624591
N53	N	1.896013	0.053405	0.664326
C54	C	1.122682	0.187244	-0.261738
N55	N	1.176976	0.188634	-0.364975
C56	C	1.113033	0.068922	0.343046
N57	N	1.160121	-0.018831	0.399260
C58	C	0.879531	0.059048	0.328724
N59	N	0.849429	-0.033545	0.374174
H60	H	1.758691	0.032963	0.383322
