data_functionalizedCrystal
_audit_creation_method	'MofGen! by Chris Wilmer'
_symmetry_space_group_name_H-M	'P1'
_symmetry_Int_Tables_number	1
_symmetry_cell_setting	triclinic
loop_
_symmetry_equiv_pos_as_xyz
  x,y,z
_cell_length_a	21.295417
_cell_length_b	16.120490
_cell_length_c	21.295411
_cell_angle_alpha	87.080431
_cell_angle_beta	89.978356
_cell_angle_gamma	87.122615
loop_
_atom_site_label
_atom_site_type_symbol
_atom_site_fract_x
_atom_site_fract_y
_atom_site_fract_z
Zn1	Zn	-0.299608	1.274548	-0.404623
Zn2	Zn	-0.404855	1.274419	-0.299343
Zn3	Zn	-0.294256	1.135119	-0.294039
Zn4	Zn	-0.399489	1.135079	-0.399250
O5	O	-0.349552	1.204791	-0.349314
O6	O	-0.318054	1.391197	-0.395126
O7	O	-0.390189	1.255903	-0.210549
O8	O	-0.206879	1.153686	-0.308737
O9	O	-0.395379	1.391102	-0.317777
O10	O	-0.210811	1.256124	-0.389983
O11	O	-0.308933	1.153560	-0.206652
O12	O	-0.303730	1.018448	-0.303527
O13	O	-0.386234	1.153617	-0.488053
O14	O	-0.381045	1.018418	-0.380825
O15	O	-0.312852	1.256084	-0.492001
O16	O	-0.492230	1.255864	-0.312567
O17	O	-0.488288	1.153491	-0.385968
C18	C	-0.341225	0.988183	-0.341018
C19	C	-0.337678	0.895517	-0.337483
C20	C	-0.367947	0.684574	-0.367647
C21	C	-0.331207	0.725860	-0.331030
C22	C	-0.334808	0.820266	-0.334622
C23	C	-0.364347	0.590160	-0.364056
C24	C	-0.513099	1.204682	-0.349275
C25	C	-0.583069	1.204712	-0.349282
C26	C	-0.617969	1.258064	-0.311105
C27	C	-0.683713	1.258103	-0.311121
C28	C	-0.714554	1.204775	-0.349306
C29	C	-0.679645	1.151418	-0.387490
C30	C	-0.613903	1.151387	-0.387478
N31	N	-0.815021	1.131844	-0.351312
N32	N	-0.877473	1.131876	-0.351320
C33	C	-0.912632	1.204868	-0.349346
N34	N	-0.882979	1.277828	-0.347351
N35	N	-0.820520	1.277795	-0.347340
C36	C	-0.785840	1.204804	-0.349324
C37	C	-1.018819	1.258268	-0.311184
C38	C	-1.084565	1.258308	-0.311204
C39	C	-1.080496	1.151616	-0.387570
C40	C	-1.014752	1.151583	-0.387554
C41	C	-0.983918	1.204908	-0.349357
C42	C	-0.185367	1.204924	-0.349368
C43	C	-0.115401	1.204980	-0.349390
C44	C	-0.349541	1.204860	-0.513507
C45	C	-0.349537	1.204890	-0.583476
C46	C	-0.357912	1.422246	-0.357643
C47	C	-0.361475	1.514912	-0.361192
C48	C	-0.311325	1.258243	-0.618399
C49	C	-0.311297	1.258241	-0.684142
C50	C	-0.349494	1.204896	-0.714959
C51	C	-0.387708	1.151533	-0.680027
C52	C	-0.387730	1.151530	-0.614286
N53	N	-0.404315	1.198464	-0.817928
N54	N	-0.404292	1.198472	-0.880380
C55	C	-0.349430	1.204902	-0.913034
N56	N	-0.294590	1.211339	-0.880877
N57	N	-0.294613	1.211336	-0.818420
C58	C	-0.349474	1.204894	-0.786244
C59	C	-0.311185	1.258256	-1.019243
C60	C	-0.311156	1.258249	-1.084986
C61	C	-0.387573	1.151545	-1.080871
C62	C	-0.387596	1.151548	-1.015128
C63	C	-0.349403	1.204908	-0.984318
C64	C	-0.349519	1.204770	-0.185761
C65	C	-0.349352	1.204902	-0.115799
H66	H	-0.592866	1.301487	-0.280005
H67	H	-0.712134	1.301553	-0.280033
H68	H	-0.402104	0.720126	-0.401691
C69	C	-0.285059	0.677834	-0.285038
H70	H	-0.288663	0.619763	-0.288625
H71	H	-0.243311	0.692082	-0.294861
H72	H	-0.294742	0.692018	-0.243252
C73	C	-0.713567	1.092757	-0.429492
H74	H	-0.757720	1.100410	-0.424027
H75	H	-0.703231	1.104924	-0.472259
H76	H	-0.700684	1.036739	-0.418093
H77	H	-0.280036	1.301694	-1.113420
C78	C	-0.575511	1.092691	-0.429471
H79	H	-0.603292	1.060932	-0.452214
H80	H	-0.551049	1.124551	-0.458132
H81	H	-0.548512	1.056365	-0.403967
H82	H	-0.418667	1.108102	-1.105961
C83	C	-0.269165	1.316934	-0.985348
H84	H	-0.246393	1.348699	-1.015565
H85	H	-0.294644	1.353243	-0.961099
H86	H	-0.240520	1.285052	-0.958478
H87	H	-0.993713	1.301691	-0.280084
C88	C	-0.429635	1.092866	-0.976711
H89	H	-0.452383	1.061098	-1.004479
H90	H	-0.404168	1.056559	-0.949668
H91	H	-0.458299	1.124739	-0.952293
H92	H	-1.112980	1.301760	-0.280117
H93	H	-1.105606	1.108198	-0.418664
H94	H	-0.418806	1.108097	-0.705123
C95	C	-0.269308	1.316926	-0.584508
H96	H	-0.274795	1.309288	-0.540353
H97	H	-0.226543	1.304760	-0.594818
H98	H	-0.280675	1.372938	-0.597438
C99	C	-0.429767	1.092845	-0.575866
H100	H	-0.424307	1.100482	-0.532300
H101	H	-0.472526	1.105008	-0.587108
H102	H	-0.418391	1.036833	-0.584481
H103	H	-0.986334	1.108134	-0.418638
H104	H	-0.280177	1.301686	-0.712581
