data_functionalizedCrystal
_audit_creation_method	'MofGen! by Chris Wilmer'
_symmetry_space_group_name_H-M	'P1'
_symmetry_Int_Tables_number	1
_symmetry_cell_setting	triclinic
loop_
_symmetry_equiv_pos_as_xyz
  x,y,z
_cell_length_a	6.817900
_cell_length_b	17.296643
_cell_length_c	17.110486
_cell_angle_alpha	100.228577
_cell_angle_beta	99.060439
_cell_angle_gamma	102.619114
loop_
_atom_site_label
_atom_site_type_symbol
_atom_site_fract_x
_atom_site_fract_y
_atom_site_fract_z
V1	V	-3.976383	-0.110854	-0.254664
O2	O	-3.965399	0.005573	-0.241624
O3	O	-3.927722	-0.220041	-0.260802
O4	O	-3.906249	-0.109041	-0.362138
O5	O	-3.987020	-0.106196	-0.139587
V6	V	-4.462861	-0.096941	-0.239943
O7	O	-4.231160	-0.141374	-0.286957
O8	O	-4.658282	-0.066421	-0.207650
O9	O	-4.288316	0.012247	-0.233806
O10	O	-4.591242	-0.213367	-0.252983
O11	O	-4.569621	-0.101599	-0.355020
O12	O	-4.309789	-0.098754	-0.132470
C13	C	-3.773362	-0.246662	-0.258817
C14	C	-3.814718	-0.335923	-0.264552
C15	C	-4.050018	-0.841340	-0.300648
C16	C	-4.011151	-0.757470	-0.295260
C17	C	-3.966150	-0.704136	-0.219283
C18	C	-3.960039	-0.734677	-0.148689
C19	C	-3.998920	-0.818546	-0.154078
C20	C	-3.847488	-0.450334	-0.199347
C21	C	-3.808599	-0.366459	-0.193963
C22	C	-3.859718	-0.389258	-0.340535
C23	C	-3.898586	-0.473128	-0.345916
C24	C	-3.892481	-0.503662	-0.275323
C25	C	-3.926414	-0.618406	-0.213774
C26	C	-3.932231	-0.589390	-0.280833
C27	C	-3.745971	-0.105069	-0.388080
C28	C	-3.769911	-0.104309	-0.475992
C29	C	-3.962435	-0.107959	-0.521611
C30	C	-3.984917	-0.107245	-0.604213
C31	C	-3.814875	-0.102886	-0.641196
C32	C	-3.622334	-0.099233	-0.595570
C33	C	-3.599852	-0.099941	-0.512968
C34	C	-3.873685	-0.100540	-0.890382
C35	C	-3.896184	-0.099834	-0.972991
C36	C	-4.258766	-0.107844	-0.981629
C37	C	-4.236269	-0.108558	-0.899026
C38	C	-4.043729	-0.104900	-0.853406
C39	C	-3.837852	-0.102158	-0.725629
C40	C	-4.020751	-0.105623	-0.768973
C41	C	-4.106018	0.038863	-0.235788
C42	C	-4.043900	0.128124	-0.230059
C43	C	-4.133410	-0.102728	-0.106523
C44	C	-4.088709	-0.103484	-0.018610
H45	H	-3.889767	-0.574972	-0.151913
H46	H	-4.086644	-0.884760	-0.362516
C47	C	-4.017859	-0.723876	-0.372906
C48	C	-4.170858	-0.673237	-0.393401
C49	C	-4.177564	-0.639642	-0.471050
C50	C	-4.031270	-0.656686	-0.528204
C51	C	-3.878259	-0.707328	-0.507710
C52	C	-3.871553	-0.740923	-0.430061
H53	H	-4.279164	-0.660617	-0.351092
H54	H	-4.290833	-0.602153	-0.486221
H55	H	-4.036234	-0.631817	-0.585684
H56	H	-3.769953	-0.719948	-0.550019
H57	H	-3.758284	-0.778411	-0.414890
H58	H	-3.771940	-0.323035	-0.132090
C59	C	-3.910493	-0.676003	-0.065116
C60	C	-4.049383	-0.619074	-0.045282
C61	C	-3.999808	-0.560398	0.038292
C62	C	-3.811343	-0.558650	0.102032
C63	C	-3.672441	-0.615581	0.082200
C64	C	-3.722016	-0.674258	-0.001374
H65	H	-4.188907	-0.620366	-0.092468
H66	H	-4.102634	-0.518254	0.052972
H67	H	-3.774645	-0.515215	0.163899
H68	H	-3.532918	-0.614289	0.129386
H69	H	-3.619191	-0.716402	-0.016054
H70	H	-3.842510	-0.475184	-0.141864
C71	C	-3.866455	-0.355669	-0.418184
C72	C	-3.674063	-0.297261	-0.430604
C73	C	-3.680812	-0.263673	-0.508257
C74	C	-3.879952	-0.288492	-0.573490
C75	C	-4.072358	-0.346903	-0.561072
C76	C	-4.065610	-0.380492	-0.483419
H77	H	-3.526634	-0.278885	-0.382312
H78	H	-3.538379	-0.220433	-0.517449
H79	H	-3.884948	-0.263628	-0.630973
H80	H	-4.219787	-0.365279	-0.609363
H81	H	-4.208043	-0.423732	-0.474227
H82	H	-4.100909	-0.111514	-0.491508
H83	H	-3.935229	-0.516548	-0.407785
H84	H	-3.716925	-0.097590	-0.853255
H85	H	-3.443070	-0.096949	-0.475821
H86	H	-4.159196	-0.109169	-0.738858
H87	H	-3.968880	-0.632818	-0.342694
C88	C	-3.992188	-0.852140	-0.076429
C89	C	-4.138456	-0.835087	-0.019267
C90	C	-4.131735	-0.868680	0.058383
C91	C	-3.978746	-0.919325	0.078871
C92	C	-3.832466	-0.936381	0.021707
C93	C	-3.839187	-0.902788	-0.055943
H94	H	-4.251718	-0.797594	-0.034432
H95	H	-4.240022	-0.856054	0.100699
H96	H	-3.973770	-0.944192	0.136352
H97	H	-3.719204	-0.973874	0.036872
H98	H	-3.730901	-0.915414	-0.098259
H99	H	-4.141685	-0.110213	-0.641352
H100	H	-4.374739	-0.112107	-0.868921
H101	H	-4.415525	-0.110821	-1.018781
H102	H	-3.757704	-0.096281	-1.003098
H103	H	-3.483882	-0.095678	-0.625686
H104	H	-3.699409	-0.098612	-0.755750
