data_functionalizedCrystal
_audit_creation_method	'MofGen! by Chris Wilmer'
_symmetry_space_group_name_H-M	'P1'
_symmetry_Int_Tables_number	1
_symmetry_cell_setting	triclinic
loop_
_symmetry_equiv_pos_as_xyz
  x,y,z
_cell_length_a	21.295417
_cell_length_b	19.805407
_cell_length_c	19.805399
_cell_angle_alpha	89.982197
_cell_angle_beta	89.969157
_cell_angle_gamma	90.027823
loop_
_atom_site_label
_atom_site_type_symbol
_atom_site_fract_x
_atom_site_fract_y
_atom_site_fract_z
Zn1	Zn	-0.250669	1.034716	-0.382672
Zn2	Zn	0.082664	1.368050	-0.049339
Zn3	Zn	0.415998	1.701383	0.283994
Zn4	Zn	-0.355938	1.034623	-0.269478
Zn5	Zn	-0.022604	1.367956	0.063856
Zn6	Zn	0.310729	1.701290	0.397189
Zn7	Zn	-0.250681	0.921531	-0.269500
Zn8	Zn	0.082652	1.254864	0.063833
Zn9	Zn	0.415985	1.588198	0.397166
Zn10	Zn	-0.355899	0.921486	-0.382628
Zn11	Zn	-0.022566	1.254820	-0.049295
Zn12	Zn	0.310767	1.588153	0.284039
O13	O	-0.303297	0.978089	-0.326070
O14	O	0.030037	1.311423	0.007264
O15	O	0.363370	1.644756	0.340597
O16	O	-0.264644	1.129421	-0.367666
O17	O	0.068689	1.462754	-0.034333
O18	O	0.402023	1.796087	0.299001
O19	O	-0.341996	1.019601	-0.174764
O20	O	-0.008663	1.352934	0.158569
O21	O	0.324670	1.686267	0.491903
O22	O	-0.162590	0.936603	-0.284541
O23	O	0.170743	1.269936	0.048792
O24	O	0.504076	1.603270	0.382126
O25	O	-0.341984	1.129352	-0.284502
O26	O	-0.008651	1.462685	0.048831
O27	O	0.324682	1.796019	0.382164
O28	O	-0.162581	1.019760	-0.367688
O29	O	0.170752	1.353093	-0.034355
O30	O	0.504086	1.686426	0.298979
O31	O	-0.264665	0.936513	-0.174781
O32	O	0.068668	1.269846	0.158553
O33	O	0.402002	1.603179	0.491886
O34	O	-0.264628	0.826809	-0.284498
O35	O	0.068705	1.160142	0.048835
O36	O	0.402039	1.493475	0.382169
O37	O	-0.341919	0.936527	-0.477350
O38	O	-0.008586	1.269860	-0.144017
O39	O	0.324748	1.603194	0.189316
O40	O	-0.341931	0.826776	-0.367612
O41	O	-0.008598	1.160109	-0.034279
O42	O	0.324736	1.493442	0.299054
O43	O	-0.264607	1.019717	-0.477383
O44	O	0.068727	1.353050	-0.144050
O45	O	0.402060	1.686383	0.189284
O46	O	-0.444022	1.019558	-0.284459
O47	O	-0.110689	1.352891	0.048874
O48	O	0.222645	1.686224	0.382208
O49	O	-0.443994	0.936437	-0.367590
O50	O	-0.110660	1.269770	-0.034257
O51	O	0.222673	1.603103	0.299077
C52	C	-0.303277	0.802233	-0.326053
C53	C	0.030056	1.135567	0.007280
C54	C	0.363390	1.468900	0.340614
C55	C	-0.303284	0.727001	-0.326062
C56	C	0.030050	1.060335	0.007271
C57	C	0.363383	1.393668	0.340605
C58	C	-0.263084	0.691693	-0.369431
C59	C	0.070250	1.025027	-0.036098
C60	C	0.403583	1.358360	0.297235
C61	C	-0.263087	0.621005	-0.369434
C62	C	0.070246	0.954338	-0.036101
C63	C	0.403580	1.287672	0.297233
C64	C	-0.303294	0.585626	-0.326070
C65	C	0.030039	0.918959	0.007263
C66	C	0.363373	1.252292	0.340596
C67	C	-0.343496	0.620938	-0.282696
C68	C	-0.010162	0.954272	0.050637
C69	C	0.323171	1.287605	0.383970
C70	C	-0.343489	0.691626	-0.282691
C71	C	-0.010155	1.024959	0.050643
C72	C	0.323178	1.358292	0.383976
C73	C	-0.343524	0.335865	-0.282717
C74	C	-0.010191	0.669198	0.050616
C75	C	0.323143	1.002532	0.383950
C76	C	-0.343529	0.265173	-0.282727
C77	C	-0.010196	0.598506	0.050606
C78	C	0.323137	0.931840	0.383939
C79	C	-0.263122	0.265244	-0.369460
C80	C	0.070211	0.598578	-0.036127
C81	C	0.403544	0.931911	0.297207
C82	C	-0.263115	0.335932	-0.369455
C83	C	0.070218	0.669265	-0.036121
C84	C	0.403551	1.002598	0.297212
C85	C	-0.303315	0.371238	-0.326079
C86	C	0.030019	0.704572	0.007255
C87	C	0.363352	1.037905	0.340588
C88	C	-0.303310	0.447887	-0.326075
C89	C	0.030024	0.781220	0.007258
C90	C	0.363357	1.114553	0.340591
C91	C	-0.303303	0.508979	-0.326076
C92	C	0.030031	0.842312	0.007257
C93	C	0.363364	1.175645	0.340590
C94	C	-0.466848	0.978001	-0.326032
C95	C	-0.133515	1.311334	0.007301
C96	C	0.199818	1.644667	0.340635
C97	C	-0.536816	0.978024	-0.326039
C98	C	-0.203483	1.311358	0.007295
C99	C	0.129850	1.644691	0.340628
C100	C	-0.569677	1.021344	-0.282797
C101	C	-0.236344	1.354677	0.050537
C102	C	0.096990	1.688011	0.383870
C103	C	-0.635419	1.021376	-0.282812
C104	C	-0.302086	1.354709	0.050521
C105	C	0.031247	1.688042	0.383855
C106	C	-0.668299	0.978076	-0.326062
C107	C	-0.334966	1.311409	0.007271
C108	C	-0.001632	1.644742	0.340605
C109	C	-0.635431	0.934753	-0.369312
C110	C	-0.302097	1.268087	-0.035979
C111	C	0.031236	1.601420	0.297354
C112	C	-0.569689	0.934728	-0.369301
C113	C	-0.236356	1.268061	-0.035967
C114	C	0.096977	1.601394	0.297366
N115	N	-0.771562	0.918865	-0.331216
N116	N	-0.438229	1.252199	0.002117
N117	N	-0.104896	1.585532	0.335450
N118	N	-0.834014	0.918892	-0.331224
N119	N	-0.500680	1.252225	0.002110
N120	N	-0.167347	1.585558	0.335443
C121	C	-0.866374	0.978152	-0.326101
C122	C	-0.533040	1.311485	0.007233
C123	C	-0.199707	1.644818	0.340566
N124	N	-0.833923	1.037386	-0.320957
N125	N	-0.500590	1.370719	0.012376
N126	N	-0.167256	1.704052	0.345709
N127	N	-0.771466	1.037358	-0.320947
N128	N	-0.438132	1.370692	0.012387
N129	N	-0.104799	1.704025	0.345720
C130	C	-0.739584	0.978099	-0.326080
C131	C	-0.406251	1.311433	0.007254
C132	C	-0.072918	1.644766	0.340587
C133	C	-0.970520	1.021509	-0.282873
C134	C	-0.637186	1.354843	0.050460
C135	C	-0.303853	1.688176	0.383794
C136	C	-1.036263	1.021542	-0.282893
C137	C	-0.702930	1.354875	0.050440
C138	C	-0.369597	1.688209	0.383774
C139	C	-1.036273	0.934914	-0.369390
C140	C	-0.702940	1.268247	-0.036057
C141	C	-0.369607	1.601580	0.297277
C142	C	-0.970531	0.934887	-0.369373
C143	C	-0.637197	1.268220	-0.036040
C144	C	-0.303864	1.601553	0.297293
C145	C	-0.937658	0.978184	-0.326111
C146	C	-0.604325	1.311517	0.007222
C147	C	-0.270991	1.644850	0.340555
C148	C	-0.139106	0.978197	-0.326122
C149	C	0.194227	1.311530	0.007211
C150	C	0.527560	1.644863	0.340545
C151	C	-0.069138	0.978243	-0.326144
C152	C	0.264195	1.311576	0.007189
C153	C	0.597528	1.644909	0.340522
C154	C	-0.303257	0.978127	-0.502612
C155	C	0.030076	1.311461	-0.169279
C156	C	0.363410	1.644794	0.164054
C157	C	-0.303240	0.978143	-0.577844
C158	C	0.030093	1.311477	-0.244511
C159	C	0.363426	1.644810	0.088822
C160	C	-0.303317	1.154632	-0.326086
C161	C	0.030016	1.487965	0.007247
C162	C	0.363350	1.821299	0.340580
C163	C	-0.303326	1.229864	-0.326094
C164	C	0.030008	1.563197	0.007240
C165	C	0.363341	1.896531	0.340573
C166	C	-0.262982	1.021461	-0.613207
C167	C	0.070352	1.354794	-0.279873
C168	C	0.403685	1.688128	0.053460
C169	C	-0.262963	1.021468	-0.683895
C170	C	0.070370	1.354801	-0.350562
C171	C	0.403703	1.688135	-0.017228
C172	C	-0.303207	0.978160	-0.719220
C173	C	0.030126	1.311494	-0.385887
C174	C	0.363459	1.644827	-0.052553
C175	C	-0.343468	0.934838	-0.683853
C176	C	-0.010134	1.268171	-0.350519
C177	C	0.323199	1.601504	-0.017186
C178	C	-0.343482	0.934828	-0.613166
C179	C	-0.010149	1.268161	-0.279832
C180	C	0.323184	1.601494	0.053501
C181	C	-0.343409	0.934876	-0.968926
C182	C	-0.010076	1.268209	-0.635593
C183	C	0.323258	1.601543	-0.302260
C184	C	-0.343393	0.934891	-1.039618
C185	C	-0.010059	1.268224	-0.706285
C186	C	0.323274	1.601557	-0.372952
C187	C	-0.262890	1.021516	-1.039656
C188	C	0.070443	1.354849	-0.706322
C189	C	0.403777	1.688183	-0.372989
C190	C	-0.262905	1.021506	-0.968969
C191	C	0.070429	1.354840	-0.635635
C192	C	0.403762	1.688173	-0.302302
C193	C	-0.303162	0.978182	-0.933608
C194	C	0.030171	1.311515	-0.600274
C195	C	0.363504	1.644848	-0.266941
C196	C	-0.303181	0.978174	-0.856959
C197	C	0.030152	1.311507	-0.523626
C198	C	0.363486	1.644840	-0.190292
C199	C	-0.303193	0.978171	-0.795867
C200	C	0.030141	1.311504	-0.462534
C201	C	0.363474	1.644838	-0.129201
C202	C	-0.303291	0.978090	-0.150214
C203	C	0.030043	1.311424	0.183120
C204	C	0.363376	1.644757	0.516453
C205	C	-0.303130	0.978205	-0.074982
C206	C	0.030203	1.311539	0.258351
C207	C	0.363536	1.644872	0.591685
H208	H	-0.230353	0.592260	-0.404751
H209	H	0.102980	0.925594	-0.071417
H210	H	0.436313	1.258927	0.261916
H211	H	-0.376233	0.899573	-0.712620
H212	H	-0.042899	1.232906	-0.379287
H213	H	0.290434	1.566240	-0.045953
H214	H	-0.376165	0.899621	-1.068378
H215	H	-0.042832	1.232954	-0.735045
H216	H	0.290501	1.566288	-0.401711
F217	F	-0.220136	1.067596	-0.721527
F218	F	0.113197	1.400929	-0.388194
F219	F	0.446530	1.734263	-0.054860
F220	F	-0.386324	0.227521	-0.236570
F221	F	-0.052991	0.560854	0.096763
F222	F	0.280343	0.894188	0.430096
F223	F	-0.386255	0.888766	-0.931301
F224	F	-0.052921	1.222099	-0.597968
F225	F	0.280412	1.555432	-0.264635
F226	F	-1.071262	0.888834	-0.415424
F227	F	-0.737928	1.222167	-0.082091
F228	F	-0.404595	1.555501	0.251242
F229	F	-1.071236	1.067656	-0.236871
F230	F	-0.737902	1.400989	0.096462
F231	F	-0.404569	1.734322	0.429796
H232	H	-0.376259	0.899547	-0.584375
H233	H	-0.042925	1.232881	-0.251041
H234	H	0.290408	1.566214	0.082292
H235	H	-0.230136	1.056774	-0.940210
H236	H	0.103197	1.390108	-0.606877
H237	H	0.436530	1.723441	-0.273544
F238	F	-0.935557	0.888777	-0.415395
F239	F	-0.602224	1.222110	-0.082062
F240	F	-0.268890	1.555443	0.251271
F241	F	-0.220151	1.067560	-0.575617
F242	F	0.113182	1.400893	-0.242284
F243	F	0.446516	1.734226	0.091049
F244	F	-0.935532	1.067588	-0.236830
F245	F	-0.602198	1.400922	0.096503
F246	F	-0.268865	1.734255	0.429837
H247	H	-0.230108	1.056791	-1.068455
H248	H	0.103225	1.390124	-0.735122
H249	H	0.436558	1.723458	-0.401789
H250	H	-0.662180	1.056654	-0.247599
H251	H	-0.328846	1.389987	0.085734
H252	H	0.004487	1.723321	0.419067
F253	F	-0.670424	0.888673	-0.415345
F254	F	-0.337091	1.222006	-0.082011
F255	F	-0.003757	1.555340	0.251322
F256	F	-0.220325	0.373581	-0.415611
F257	F	0.113009	0.706914	-0.082278
F258	F	0.446342	1.040248	0.251056
F259	F	-0.220292	0.729340	-0.415589
F260	F	0.113041	1.062674	-0.082255
F261	F	0.446374	1.396007	0.251078
H262	H	-0.230388	0.236489	-0.404777
H263	H	0.102945	0.569823	-0.071443
H264	H	0.436279	0.903156	0.261890
F265	F	-0.386284	0.583283	-0.236542
F266	F	-0.052950	0.916617	0.096792
F267	F	0.280383	1.249950	0.430125
H268	H	-0.376257	0.364603	-0.247398
H269	H	-0.042924	0.697937	0.085935
H270	H	0.290409	1.031270	0.419268
H271	H	-0.542934	0.899451	-0.404514
H272	H	-0.209600	1.232784	-0.071181
H273	H	0.123733	1.566118	0.262152
H274	H	-0.542914	1.056601	-0.247572
H275	H	-0.209580	1.389934	0.085761
H276	H	0.123753	1.723267	0.419095
F277	F	-0.386276	0.729202	-0.236532
F278	F	-0.052942	1.062536	0.096801
F279	F	0.280391	1.395869	0.430135
