data_functionalizedCrystal
_audit_creation_method	'MofGen! by Chris Wilmer'
_symmetry_space_group_name_H-M	'P1'
_symmetry_Int_Tables_number	1
_symmetry_cell_setting	triclinic
loop_
_symmetry_equiv_pos_as_xyz
  x,y,z
_cell_length_a	9.065218
_cell_length_b	15.625429
_cell_length_c	14.750426
_cell_angle_alpha	93.443197
_cell_angle_beta	75.983047
_cell_angle_gamma	84.604571
loop_
_atom_site_label
_atom_site_type_symbol
_atom_site_fract_x
_atom_site_fract_y
_atom_site_fract_z
O1	O	1.915925	0.106276	0.116819
O2	O	2.415925	0.606276	0.616819
O3	O	1.485169	0.116341	0.120324
O4	O	1.985169	0.616341	0.620324
O5	O	1.727205	-0.010434	0.076194
O6	O	2.227205	0.489566	0.576194
O7	O	1.673889	0.233051	0.160950
O8	O	2.173889	0.733051	0.660950
O9	O	1.780289	0.022441	-0.072021
O10	O	2.280289	0.522441	0.427979
O11	O	1.538253	0.149216	-0.027890
O12	O	2.038253	0.649216	0.472110
O13	O	1.969008	0.139151	-0.031395
O14	O	2.469008	0.639151	0.468605
Zn15	Zn	1.762059	0.149403	-0.053175
Zn16	Zn	2.262059	0.649403	0.446825
Zn17	Zn	1.692119	0.106089	0.142104
Zn18	Zn	2.192119	0.606089	0.642104
O19	O	1.726972	0.265926	0.012736
O20	O	2.226972	0.765926	0.512736
C21	C	1.456865	0.131811	0.045880
C22	C	1.956865	0.631811	0.545880
C23	C	1.293445	0.128919	0.044874
C24	C	1.793445	0.628919	0.544874
C25	C	1.756597	-0.025184	-0.008768
C26	C	2.256597	0.474816	0.491232
C27	C	1.765071	-0.118115	-0.041111
C28	C	2.265071	0.381885	0.458889
C29	C	1.648231	-0.513348	0.256443
C30	C	2.148231	-0.013348	0.756443
C31	C	1.656197	-0.600664	0.226024
C32	C	2.156197	-0.100664	0.726024
C33	C	1.714066	-0.564812	0.064452
C34	C	2.214066	-0.064812	0.564452
C35	C	1.706112	-0.477492	0.094856
C36	C	2.206112	0.022508	0.594856
C37	C	1.673192	-0.451767	0.190853
C38	C	2.173192	0.048233	0.690853
C39	C	1.731073	-0.415911	0.029267
C40	C	2.231073	0.084089	0.529267
C41	C	1.723112	-0.328598	0.059670
C42	C	2.223112	0.171402	0.559670
C43	C	1.690190	-0.302865	0.155662
C44	C	2.190190	0.197135	0.655662
C45	C	1.665231	-0.364454	0.221256
C46	C	2.165231	0.135546	0.721256
C47	C	1.763982	-0.441636	-0.066729
C48	C	2.263982	0.058364	0.433271
C49	C	1.788943	-0.380056	-0.132319
C50	C	2.288943	0.119944	0.367681
C51	C	1.780993	-0.292741	-0.101917
C52	C	2.280993	0.207259	0.398083
C53	C	1.748070	-0.267009	-0.005924
C54	C	2.248070	0.232991	0.494076
C55	C	1.805951	-0.231153	-0.167510
C56	C	2.305951	0.268847	0.332490
C57	C	1.797990	-0.143840	-0.137107
C58	C	2.297990	0.356160	0.362893
C59	C	1.740109	-0.179696	0.024479
C60	C	2.240109	0.320304	0.524479
C61	C	1.997311	0.123680	0.043051
C62	C	2.497311	0.623680	0.543051
C63	C	2.160729	0.126572	0.044063
C64	C	2.660729	0.626572	0.544063
C65	C	1.697580	0.280676	0.097699
C66	C	2.197580	0.780676	0.597699
C67	C	1.689104	0.373605	0.130048
C68	C	2.189104	0.873605	0.630048
N69	N	1.809802	0.178964	-0.186447
N70	N	2.309802	0.678964	0.313553
C71	C	1.943121	0.261464	-0.308473
C72	C	2.443121	0.761464	0.191527
C73	C	1.909664	0.240765	-0.215174
C74	C	2.409664	0.740765	0.284826
C75	C	1.743362	0.137834	-0.251017
C76	C	2.243362	0.637834	0.248983
C77	C	1.776810	0.158522	-0.344322
C78	C	2.276810	0.658522	0.155678
C79	C	1.876689	0.220338	-0.373041
C80	C	2.376689	0.720338	0.126959
C81	C	1.710379	0.117396	-0.408891
C82	C	2.210379	0.617396	0.091109
C83	C	1.743819	0.138085	-0.502186
C84	C	2.243819	0.638085	-0.002186
C85	C	1.843690	0.199901	-0.530913
C86	C	2.343690	0.699901	-0.030913
C87	C	1.910129	0.241028	-0.466337
C88	C	2.410129	0.741028	0.033663
C89	C	1.610492	0.055584	-0.380168
C90	C	2.110492	0.555584	0.119832
C91	C	1.544060	0.014458	-0.444736
C92	C	2.044060	0.514458	0.055264
C93	C	1.577508	0.035143	-0.538035
C94	C	2.077508	0.535143	-0.038035
C95	C	1.677380	0.096958	-0.566762
C96	C	2.177380	0.596958	-0.066762
C97	C	1.511069	-0.005984	-0.602611
C98	C	2.011069	0.494016	-0.102611
C99	C	1.544509	0.014706	-0.695906
C100	C	2.044509	0.514706	-0.195906
C101	C	1.710820	0.117648	-0.660057
C102	C	2.210820	0.617648	-0.160057
N103	N	1.644388	0.076522	0.275374
N104	N	2.144388	0.576522	0.775374
H105	H	1.713316	-0.158751	0.102649
H106	H	2.213316	0.341249	0.602649
F107	F	1.824563	-0.078298	-0.206915
F108	F	2.324563	0.421702	0.293085
F109	F	2.016452	0.306810	-0.496910
F110	F	2.516452	0.806810	0.003090
H111	H	1.832739	-0.252111	-0.245671
H112	H	2.332739	0.247889	0.254329
H113	H	1.792161	0.167980	-0.683443
H114	H	2.292161	0.667980	-0.183443
H115	H	1.740863	-0.585769	-0.013709
H116	H	2.240863	-0.085769	0.486291
H117	H	1.870913	0.216747	-0.606880
H118	H	2.370913	0.716747	-0.106880
F119	F	1.637061	0.072049	-0.220440
F120	F	2.137061	0.572049	0.279560
F121	F	1.681720	-0.209938	0.188020
F122	F	2.181720	0.290062	0.688020
H123	H	1.462734	-0.035871	-0.421339
H124	H	1.962734	0.464129	0.078661
H125	H	1.638438	-0.343509	0.299426
H126	H	2.138438	0.156491	0.799426
H127	H	2.024462	0.311796	-0.331859
H128	H	2.524462	0.811796	0.168141
H129	H	1.963762	0.274263	-0.162601
H130	H	2.463762	0.774263	0.337399
F131	F	1.823965	-0.407443	-0.234483
F132	F	2.323965	0.092557	0.265517
F133	F	1.574892	0.033572	-0.280871
F134	F	2.074892	0.533572	0.219129
H135	H	1.770446	-0.512732	-0.091480
H136	H	2.270446	-0.012732	0.408520
H137	H	1.490410	-0.018782	-0.748480
H138	H	1.990410	0.481218	-0.248480
F139	F	1.613214	-0.485967	0.358614
F140	F	2.113214	0.014033	0.858614
F141	F	1.629620	-0.666202	0.295842
F142	F	2.129620	-0.166202	0.795842
H143	H	1.429736	-0.056309	-0.579211
H144	H	1.929736	0.443691	-0.079211
