data_functionalizedCrystal
_audit_creation_method	'MofGen! by Chris Wilmer'
_symmetry_space_group_name_H-M	'P1'
_symmetry_Int_Tables_number	1
_symmetry_cell_setting	triclinic
loop_
_symmetry_equiv_pos_as_xyz
  x,y,z
_cell_length_a	11.792241
_cell_length_b	10.868271
_cell_length_c	11.792241
_cell_angle_alpha	90.005281
_cell_angle_beta	84.193416
_cell_angle_gamma	90.000107
loop_
_atom_site_label
_atom_site_type_symbol
_atom_site_fract_x
_atom_site_fract_y
_atom_site_fract_z
O1	O	-1.506908	-0.102203	-0.155568
O2	O	-1.006908	0.397797	0.344432
O3	O	-1.176567	-0.102232	-0.171601
O4	O	-0.676567	0.397768	0.328399
O5	O	-1.349754	-0.102208	0.001586
O6	O	-0.849754	0.397792	0.501586
O7	O	-1.333721	-0.102227	-0.328755
O8	O	-0.833721	0.397773	0.171245
O9	O	-1.349740	0.102436	0.001592
O10	O	-0.849740	0.602436	0.501592
O11	O	-1.176553	0.102413	-0.171595
O12	O	-0.676553	0.602413	0.328405
O13	O	-1.506894	0.102441	-0.155562
O14	O	-1.006894	0.602441	0.344438
Zn15	Zn	-1.341721	0.134919	-0.163577
Zn16	Zn	-0.841721	0.634919	0.336423
Zn17	Zn	-1.341740	-0.134709	-0.163586
Zn18	Zn	-0.841740	0.365291	0.336414
O19	O	-1.333707	0.102418	-0.328749
O20	O	-0.833707	0.602418	0.171251
C21	C	-1.134269	0.000087	-0.170591
C22	C	-0.634269	0.500087	0.329409
C23	C	-1.008255	0.000076	-0.167576
C24	C	-0.508255	0.500076	0.332424
C25	C	-1.348740	0.000114	0.043880
C26	C	-0.848740	0.500114	0.543880
C27	C	-1.345726	0.000112	0.169894
C28	C	-0.845726	0.500112	0.669894
C29	C	-1.549192	0.000120	-0.156572
C30	C	-1.049192	0.500120	0.343428
C31	C	-1.675206	0.000123	-0.159587
C32	C	-1.175206	0.500123	0.340413
C33	C	-0.777543	0.000112	-0.162034
C34	C	-0.277543	0.500112	0.337966
C35	C	-0.905928	0.000092	-0.165113
C36	C	-0.405928	0.500092	0.334887
N37	N	-1.341717	0.318933	-0.163570
N38	N	-0.841717	0.818933	0.336430
N39	N	-1.341754	-0.318723	-0.163584
N40	N	-0.841754	0.181277	0.336416
C41	C	-1.341734	0.569939	-0.163584
C42	C	-0.841734	1.069939	0.336416
C43	C	-1.341721	0.430261	-0.163580
C44	C	-0.841721	0.930261	0.336420
C45	C	-1.334721	0.000093	-0.371043
C46	C	-0.834721	0.500093	0.128957
C47	C	-1.337736	0.000087	-0.497057
C48	C	-0.837736	0.500087	0.002943
C49	C	-1.340183	0.000091	0.400606
C50	C	-0.840183	0.500091	0.900606
C51	C	-1.343262	0.000102	0.272221
C52	C	-0.843262	0.500102	0.772221
