data_functionalizedCrystal
_audit_creation_method	'MofGen! by Chris Wilmer'
_symmetry_space_group_name_H-M	'P1'
_symmetry_Int_Tables_number	1
_symmetry_cell_setting	triclinic
loop_
_symmetry_equiv_pos_as_xyz
  x,y,z
_cell_length_a	23.532407
_cell_length_b	23.532407
_cell_length_c	9.798715
_cell_angle_alpha	89.992208
_cell_angle_beta	89.999003
_cell_angle_gamma	82.848712
loop_
_atom_site_label
_atom_site_type_symbol
_atom_site_fract_x
_atom_site_fract_y
_atom_site_fract_z
O1	O	0.755259	0.069134	-0.113419
O2	O	0.589396	0.079137	-0.113442
O3	O	0.677329	-0.008796	-0.113405
O4	O	0.667326	0.157067	-0.113456
O5	O	0.677322	-0.008796	0.113577
O6	O	0.589389	0.079137	0.113540
O7	O	0.755252	0.069134	0.113564
Zn8	Zn	0.672320	0.074135	0.149590
Zn9	Zn	0.672328	0.074136	-0.149469
O10	O	0.667319	0.157067	0.113526
C11	C	0.568176	0.078882	0.000046
C12	C	0.504959	0.078116	0.000038
C13	C	0.238792	0.022921	0.000093
C14	C	0.298192	0.023632	0.000092
O15	O	0.334937	-0.020153	0.000153
N16	N	0.320818	0.075909	0.000067
C17	C	0.284041	0.127477	0.000056
O18	O	0.308740	0.172007	0.000035
C19	C	0.224642	0.126765	0.000066
C20	C	0.202019	0.074485	0.000078
C21	C	0.216169	-0.029354	0.000106
C22	C	0.156772	-0.030066	0.000104
C23	C	0.119999	0.021499	0.000089
C24	C	0.142623	0.073774	0.000076
C25	C	0.187865	0.178333	0.000065
C26	C	0.128463	0.177616	0.000076
C27	C	0.105840	0.125336	0.000088
C28	C	0.046454	0.124627	0.000058
N29	N	0.023828	0.072351	0.000084
C30	C	0.060600	0.020787	0.000099
C31	C	0.408783	0.128968	0.000036
C32	C	0.468181	0.129681	0.000016
C33	C	0.482328	0.025836	0.000055
C34	C	0.422929	0.025124	0.000066
C35	C	0.386157	0.076692	0.000062
C36	C	-0.064136	0.019297	0.000094
C37	C	-0.123538	0.018590	0.000086
C38	C	-0.137680	0.122435	0.000054
C39	C	-0.078284	0.123142	0.000055
C40	C	-0.041512	0.071568	0.000079
O41	O	0.009675	0.168390	0.000003
O42	O	0.035892	-0.023737	0.000137
C43	C	0.677071	-0.030012	0.000090
C44	C	0.676305	-0.093229	0.000100
C45	C	0.723538	-0.492332	0.000032
C46	C	0.722827	-0.551733	0.000022
O47	O	0.766613	-0.588477	-0.000022
N48	N	0.670551	-0.574359	0.000015
C49	C	0.618982	-0.537581	0.000005
O50	O	0.574452	-0.562281	-0.000002
C51	C	0.619695	-0.478182	0.000006
C52	C	0.671974	-0.455559	0.000026
C53	C	0.775814	-0.469709	0.000051
C54	C	0.776525	-0.410313	0.000064
C55	C	0.724961	-0.373540	0.000058
C56	C	0.672685	-0.396163	0.000039
C57	C	0.568127	-0.441406	-0.000014
C58	C	0.568843	-0.382003	-0.000014
C59	C	0.621123	-0.359381	0.000006
C60	C	0.621832	-0.299994	0.000047
N61	N	0.674109	-0.277368	0.000053
C62	C	0.725673	-0.314141	0.000059
C63	C	0.617491	-0.662324	0.000002
C64	C	0.616778	-0.721722	0.000011
C65	C	0.720623	-0.735869	0.000024
C66	C	0.721335	-0.676470	0.000025
C67	C	0.669767	-0.639698	0.000008
C68	C	0.727163	-0.189404	0.000087
C69	C	0.727869	-0.130002	0.000106
C70	C	0.624025	-0.115860	0.000085
C71	C	0.623318	-0.175257	0.000074
C72	C	0.674891	-0.212028	0.000070
O73	O	0.578069	-0.263215	0.000085
O74	O	0.770196	-0.289433	0.000049
C75	C	0.776472	0.069389	0.000072
C76	C	0.839689	0.070155	0.000071
C77	C	0.667577	0.178283	0.000029
C78	C	0.668343	0.241500	0.000009
N79	N	0.672318	0.074135	0.353690
N80	N	0.672334	0.074132	-0.353568
C81	C	0.709241	0.037054	0.421482
C82	C	0.709250	0.037052	0.578645
H83	H	0.246104	-0.071347	0.000123
H84	H	0.640723	0.105882	0.588142
H85	H	0.762610	-0.765821	0.000024
C86	C	0.568000	-0.075994	-0.000144
C87	C	0.536505	-0.086174	-0.116920
C88	C	0.484889	-0.049464	-0.117182
H89	H	0.575836	-0.037360	-0.000212
H90	H	0.546510	-0.082829	0.078958
H91	H	0.557991	-0.079334	-0.196001
H92	H	0.528654	-0.124801	-0.116877
H93	H	0.463398	-0.056299	-0.038080
H94	H	0.492731	-0.010832	-0.117245
H95	H	0.463511	-0.056369	-0.196406
C96	C	-0.177586	0.178434	-0.000240
C97	C	-0.167423	0.209932	-0.117040
C98	C	-0.204180	0.261517	-0.117357
H99	H	-0.170794	0.199951	0.078817
H100	H	-0.216209	0.170541	-0.000308
H101	H	-0.128810	0.217826	-0.116960
H102	H	-0.174218	0.188432	-0.196116
H103	H	-0.242803	0.253624	-0.117424
H104	H	-0.197386	0.283029	-0.038294
H105	H	-0.197294	0.282893	-0.196610
H106	H	-0.059864	0.165712	0.000044
H107	H	0.740864	0.005307	0.636944
C108	C	0.492657	0.186486	-0.000229
C109	C	0.473923	0.217638	-0.117002
C110	C	0.496448	0.269975	-0.117259
H111	H	0.533298	0.179615	-0.000299
H112	H	0.479994	0.207733	0.078875
H113	H	0.486589	0.196395	-0.196086
H114	H	0.433285	0.224524	-0.116957
H115	H	0.483785	0.291222	-0.038155
H116	H	0.537088	0.263098	-0.117324
H117	H	0.483736	0.291120	-0.196480
C118	C	0.831865	-0.509534	0.000134
C119	C	0.877790	-0.476995	0.000184
C120	C	0.929437	-0.513658	0.000291
H121	H	0.833838	-0.533011	-0.078995
H122	H	0.833776	-0.532994	0.079323
H123	H	0.875880	-0.453545	-0.078998
H124	H	0.875836	-0.453519	0.079306
H125	H	0.931348	-0.537117	0.079480
H126	H	0.931404	-0.537133	-0.078839
H127	H	0.960603	-0.491586	0.000337
C128	C	0.751320	-0.005356	0.343781
C129	C	0.742265	-0.061253	0.378392
C130	C	0.781014	-0.100331	0.306815
H131	H	0.789358	0.000446	0.367044
H132	H	0.745700	0.000247	0.248476
H133	H	0.747890	-0.066853	0.473676
H134	H	0.704235	-0.067072	0.355126
H135	H	0.775394	-0.094728	0.211510
H136	H	0.819049	-0.094524	0.330083
H137	H	0.774872	-0.138261	0.330279
H138	H	-0.034204	-0.022699	0.000113
H139	H	0.770443	-0.111587	0.000126
H140	H	0.640711	0.105878	0.412001
C141	C	0.783217	-0.229227	0.000160
C142	C	0.829144	-0.196690	0.000216
C143	C	0.880789	-0.233355	0.000311
H144	H	0.785189	-0.252701	-0.078974
H145	H	0.785129	-0.252690	0.079344
H146	H	0.827234	-0.173237	-0.078959
H147	H	0.827192	-0.173218	0.079345
H148	H	0.882701	-0.256818	0.079494
H149	H	0.882755	-0.256827	-0.078825
H150	H	0.911957	-0.211284	0.000362
C151	C	0.132326	-0.086886	0.000208
C152	C	0.177253	-0.131885	0.000263
C153	C	0.154761	-0.184239	0.000385
H154	H	0.109457	-0.089413	-0.078917
H155	H	0.109469	-0.089353	0.079400
H156	H	0.200101	-0.129420	-0.078922
H157	H	0.200127	-0.129378	0.079382
H158	H	0.131903	-0.186706	0.079577
H159	H	0.131891	-0.186760	-0.078742
H160	H	0.185239	-0.214777	0.000435
H161	H	0.580747	-0.193677	0.000095
C162	C	0.368794	0.184918	-0.000207
C163	C	0.334270	0.187537	-0.116966
C164	C	0.297424	0.239065	-0.117227
H165	H	0.390710	0.216197	-0.000297
H166	H	0.345295	0.186810	0.078906
H167	H	0.357767	0.185650	-0.196059
H168	H	0.312342	0.156270	-0.116901
H169	H	0.273924	0.240957	-0.038114
H170	H	0.319344	0.270340	-0.117314
H171	H	0.273991	0.240847	-0.196440
H172	H	0.574207	-0.740135	0.000018
H173	H	0.763906	-0.658055	0.000040
C174	C	-0.147988	-0.038232	0.000173
C175	C	-0.103066	-0.083236	0.000227
C176	C	-0.125565	-0.135586	0.000327
H177	H	-0.170855	-0.040752	-0.078959
H178	H	-0.170850	-0.040700	0.079359
H179	H	-0.080214	-0.080769	-0.078951
H180	H	-0.080195	-0.080735	0.079352
H181	H	-0.148427	-0.138054	0.079513
H182	H	-0.148432	-0.138100	-0.078806
H183	H	-0.095089	-0.166127	0.000376
C184	C	0.561516	-0.622374	-0.000277
C185	C	0.558880	-0.587862	-0.117069
C186	C	0.507322	-0.551062	-0.117383
H187	H	0.559576	-0.598859	0.078786
H188	H	0.530268	-0.644341	-0.000353
H189	H	0.590119	-0.565896	-0.116981
H190	H	0.560810	-0.611361	-0.196150
H191	H	0.476073	-0.573029	-0.117459
H192	H	0.505386	-0.527551	-0.038316
H193	H	0.505524	-0.527645	-0.196631
H194	H	0.404515	-0.017447	0.000076
H195	H	0.512280	-0.016150	0.000068
H196	H	0.206274	0.220904	0.000049
C197	C	0.088634	0.233667	-0.000005
C198	C	0.121165	0.279599	-0.000053
C199	C	0.084496	0.331241	-0.000151
H200	H	0.065153	0.235631	0.079125
H201	H	0.065177	0.235582	-0.079193
H202	H	0.144611	0.277685	0.079127
H203	H	0.144644	0.277654	-0.079177
H204	H	0.061039	0.333155	-0.079339
H205	H	0.061017	0.333198	0.078980
H206	H	0.106563	0.362411	-0.000196
H207	H	0.819097	-0.391900	0.000075
H208	H	0.525555	-0.459814	-0.000038
H209	H	0.526850	-0.352065	-0.000030
