data_functionalizedCrystal
_audit_creation_method	'MofGen! by Chris Wilmer'
_symmetry_space_group_name_H-M	'P1'
_symmetry_Int_Tables_number	1
_symmetry_cell_setting	triclinic
loop_
_symmetry_equiv_pos_as_xyz
  x,y,z
_cell_length_a	15.538191
_cell_length_b	15.711784
_cell_length_c	7.681481
_cell_angle_alpha	97.441369
_cell_angle_beta	86.544245
_cell_angle_gamma	83.430448
loop_
_atom_site_label
_atom_site_type_symbol
_atom_site_fract_x
_atom_site_fract_y
_atom_site_fract_z
O1	O	0.471754	0.990749	-0.146432
O2	O	0.407023	0.759395	-0.146429
O3	O	0.317778	0.920106	-0.146439
O4	O	0.560998	0.830038	-0.146421
O5	O	0.306757	0.939899	0.146417
O6	O	0.396002	0.779187	0.146428
O7	O	0.460733	1.010541	0.146424
Zn8	Zn	0.426617	0.898007	0.192923
Zn9	Zn	0.441138	0.871930	-0.192928
O10	O	0.549977	0.849830	0.146435
C11	C	0.390938	0.740405	-0.000000
C12	C	0.359420	0.654335	0.000000
C13	C	0.240766	0.566615	-0.000007
C14	C	0.270391	0.647486	-0.000007
C15	C	0.418861	0.580307	-0.000003
C16	C	0.389249	0.499428	-0.000012
C17	C	0.300201	0.492590	-0.000012
C18	C	0.448683	0.425402	-0.000016
C19	C	0.419073	0.344531	-0.000016
C20	C	0.330029	0.337685	-0.000011
C21	C	0.270591	0.411718	-0.000011
C22	C	0.537731	0.432243	-0.000004
C23	C	0.597165	0.358217	-0.000009
C24	C	0.567556	0.277343	-0.000021
C25	C	0.478511	0.270497	-0.000016
C26	C	0.626994	0.203310	-0.000020
C27	C	0.597384	0.122438	-0.000020
C28	C	0.448901	0.189626	-0.000015
C29	C	0.280420	0.939426	-0.000017
C30	C	0.185520	0.967495	-0.000035
C31	C	-0.198371	0.688629	0.000007
C32	C	-0.287541	0.715025	0.000010
C33	C	-0.258821	0.863495	0.000007
C34	C	-0.169646	0.837110	-0.000005
C35	C	-0.139429	0.749676	-0.000003
C36	C	-0.110704	0.898158	-0.000015
C37	C	-0.021538	0.871777	-0.000018
C38	C	0.008687	0.784347	-0.000011
C39	C	-0.050262	0.723295	-0.000006
C40	C	-0.140924	0.985593	-0.000004
C41	C	-0.081982	1.046641	-0.000014
C42	C	0.007187	1.020258	-0.000029
C43	C	0.037411	0.932829	-0.000022
C44	C	0.066136	1.081310	-0.000034
C45	C	0.155303	1.054929	-0.000037
C46	C	0.126578	0.906447	-0.000025
C47	C	0.587336	0.830510	0.000009
C48	C	0.682236	0.802441	0.000015
C49	C	0.476817	1.029531	-0.000008
C50	C	0.508336	1.115600	-0.000020
N51	N	0.416709	0.915810	0.456256
N52	N	0.451042	0.854135	-0.456261
H53	H	0.305921	0.271833	0.000006
H54	H	0.041519	1.152500	-0.000018
H55	H	0.221985	0.707761	-0.000009
Br56	Br	0.509451	0.749202	0.418417
Br57	Br	-0.157352	0.569965	-0.000016
Br58	Br	-0.367535	0.632165	0.000043
H59	H	0.491364	0.585888	0.000004
Br60	Br	-0.299839	0.982152	0.000026
Br61	Br	0.358315	1.020756	0.581585
Br62	Br	0.119913	0.557327	-0.000008
Br63	Br	-0.123000	1.165298	0.000005
H64	H	0.376390	0.184058	-0.000034
H65	H	0.081292	0.762869	-0.000003
H66	H	0.203295	1.104640	-0.000043
Br67	Br	0.149738	0.402430	-0.000012
Br68	Br	0.577910	0.542011	0.000189
H69	H	0.669669	0.363798	-0.000002
H70	H	0.699497	0.208892	-0.000003
Br71	Br	0.167597	0.787783	-0.000048
H72	H	-0.025658	0.652096	-0.000018
H73	H	0.645782	0.062163	-0.000017
H74	H	-0.213529	1.007069	-0.000018
