data_functionalizedCrystal
_audit_creation_method	'MofGen! by Chris Wilmer'
_symmetry_space_group_name_H-M	'P1'
_symmetry_Int_Tables_number	1
_symmetry_cell_setting	triclinic
loop_
_symmetry_equiv_pos_as_xyz
  x,y,z
_cell_length_a	6.817900
_cell_length_b	16.417825
_cell_length_c	14.125465
_cell_angle_alpha	95.891451
_cell_angle_beta	100.398878
_cell_angle_gamma	103.385495
loop_
_atom_site_label
_atom_site_type_symbol
_atom_site_fract_x
_atom_site_fract_y
_atom_site_fract_z
V1	V	-3.990804	-0.115165	-0.300311
V2	V	-3.490804	0.384835	0.199689
O3	O	-3.979536	0.006275	-0.294248
O4	O	-3.479536	0.506275	0.205752
O5	O	-3.942053	-0.229065	-0.298591
O6	O	-3.442053	0.270935	0.201409
O7	O	-3.926955	-0.113069	-0.431135
O8	O	-3.426955	0.386931	0.068865
O9	O	-3.994738	-0.110525	-0.160786
O10	O	-3.494738	0.389475	0.339214
V11	V	-4.476479	-0.100678	-0.283583
V12	V	-3.976479	0.399322	0.216417
O13	O	-4.247341	-0.146944	-0.337008
O14	O	-3.747341	0.353056	0.162992
O15	O	-4.670139	-0.068899	-0.246886
O16	O	-4.170139	0.431101	0.253114
O17	O	-4.302024	0.013222	-0.285303
O18	O	-3.802024	0.513222	0.214697
O19	O	-4.605144	-0.222117	-0.289646
O20	O	-4.105144	0.277883	0.210354
O21	O	-4.589942	-0.105318	-0.423108
O22	O	-4.089942	0.394682	0.076892
O23	O	-4.317121	-0.102774	-0.152759
O24	O	-3.817121	0.397226	0.347241
C25	C	-3.787468	-0.256842	-0.293940
C26	C	-3.287468	0.243158	0.206060
C27	C	-3.828792	-0.349954	-0.293405
C28	C	-3.328792	0.150046	0.206595
C29	C	-3.894128	-0.552433	-0.204054
C30	C	-3.394128	-0.052433	0.295946
C31	C	-3.932978	-0.639923	-0.203559
C32	C	-3.432978	-0.139923	0.296441
C33	C	-3.992533	-0.663411	-0.379851
C34	C	-3.492533	-0.163411	0.120149
C35	C	-3.953698	-0.575922	-0.380345
C36	C	-3.453698	-0.075922	0.119655
C37	C	-3.904485	-0.520434	-0.292443
C38	C	-3.404485	-0.020434	0.207557
C39	C	-3.982171	-0.695414	-0.291454
C40	C	-3.482171	-0.195414	0.208546
C41	C	-4.024294	-0.790275	-0.290919
C42	C	-3.524294	-0.290275	0.209081
C43	C	-3.862363	-0.425567	-0.292978
C44	C	-3.362363	0.074433	0.207022
C45	C	-3.768209	-0.108876	-0.463012
C46	C	-3.268209	0.391124	0.036988
C47	C	-3.797287	-0.107915	-0.569963
C48	C	-3.297287	0.392085	-0.069963
C49	C	-3.850585	-0.106154	-0.765781
C50	C	-3.350585	0.393846	-0.265781
C51	C	-4.036067	-0.109687	-0.818113
C52	C	-3.536067	0.390313	-0.318113
C53	C	-4.065724	-0.108707	-0.927073
C54	C	-3.565724	0.391293	-0.427073
C55	C	-3.820919	-0.107134	-0.656811
C56	C	-3.320919	0.392866	-0.156811
C57	C	-4.119951	0.040994	-0.289952
C58	C	-3.619951	0.540994	0.210048
C59	C	-4.057864	0.134106	-0.290492
C60	C	-3.557864	0.634106	0.209508
C61	C	-4.139210	-0.106970	-0.120877
C62	C	-3.639210	0.393030	0.379123
C63	C	-4.089371	-0.107926	-0.013925
C64	C	-3.589371	0.392074	0.486075
H65	H	-3.924544	-0.665971	-0.131584
H66	H	-3.424544	-0.165971	0.368416
H67	H	-4.172593	-0.113456	-0.781085
H68	H	-3.672593	0.386544	-0.281085
H69	H	-3.962145	-0.549870	-0.452326
H70	H	-3.462145	-0.049870	0.047674
H71	H	-4.032603	-0.708599	-0.451417
H72	H	-3.532603	-0.208599	0.048583
H73	H	-3.714074	-0.102395	-0.802808
H74	H	-3.214074	0.397605	-0.302808
H75	H	-3.854057	-0.507256	-0.132479
H76	H	-3.354057	-0.007256	0.367521
