data_functionalizedCrystal
_audit_creation_method	'MofGen! by Chris Wilmer'
_symmetry_space_group_name_H-M	'P1'
_symmetry_Int_Tables_number	1
_symmetry_cell_setting	triclinic
loop_
_symmetry_equiv_pos_as_xyz
  x,y,z
_cell_length_a	14.519731
_cell_length_b	10.654556
_cell_length_c	9.730223
_cell_angle_alpha	89.998368
_cell_angle_beta	89.998958
_cell_angle_gamma	95.911805
loop_
_atom_site_label
_atom_site_type_symbol
_atom_site_fract_x
_atom_site_fract_y
_atom_site_fract_z
O1	O	-0.129559	1.666602	-0.114220
O2	O	-0.141894	1.301007	-0.114232
O3	O	-0.001540	1.493484	-0.114235
O4	O	-0.269913	1.474125	-0.114216
O5	O	-0.001536	1.493472	0.114344
O6	O	-0.141890	1.300995	0.114348
O7	O	-0.129555	1.666590	0.114360
Zn8	Zn	-0.135722	1.483790	0.150646
Zn9	Zn	-0.135727	1.483807	-0.150518
O10	O	-0.269909	1.474113	0.114364
C11	C	-0.140985	1.254212	0.000056
C12	C	-0.138271	1.114795	0.000050
C13	C	-0.134453	0.918293	-0.124538
C14	C	-0.136997	1.049291	-0.124547
C15	C	-0.136993	1.049296	0.124664
C16	C	-0.134442	0.918301	0.124671
C17	C	-0.304275	1.475026	0.000076
C18	C	-0.406670	1.477744	0.000084
C19	C	-0.489825	1.479953	0.000078
C20	C	-0.594148	1.482713	0.000065
C21	C	-0.677299	1.484903	0.000054
C22	C	-0.781629	1.487662	0.000044
C23	C	0.032827	1.492571	0.000049
C24	C	0.135221	1.489853	0.000033
C25	C	-0.130464	1.713385	0.000069
C26	C	-0.133177	1.852802	0.000066
N27	N	-0.135718	1.483788	0.356182
N28	N	-0.135724	1.483819	-0.356054
C29	C	-0.073595	1.569046	0.428107
C30	C	-0.073596	1.569059	0.571990
C31	C	-0.197849	1.398552	0.572011
C32	C	-0.197843	1.398534	0.428131
H33	H	-0.138024	1.102641	0.226113
H34	H	-0.133402	0.864978	0.226144
O35	O	-0.013155	1.651897	0.358428
C36	C	0.041660	1.727169	0.452772
H37	H	0.043049	1.675692	0.555343
H38	H	0.115183	1.746154	0.411204
H39	H	0.011077	1.820526	0.468055
O40	O	-0.133182	0.854868	-0.245697
C41	C	-0.134877	0.940765	-0.355676
H42	H	-0.107547	1.039272	-0.319151
H43	H	-0.089448	0.910782	-0.442825
H44	H	-0.209005	0.941698	-0.393984
O45	O	-0.258104	1.315573	0.641847
C46	C	-0.242270	1.191225	0.606690
H47	H	-0.168427	1.190444	0.567141
H48	H	-0.252446	1.128240	0.701325
H49	H	-0.293133	1.154441	0.523179
O50	O	-0.258323	1.315836	0.358318
C51	C	-0.349760	1.336436	0.393487
H52	H	-0.350904	1.436982	0.433022
H53	H	-0.395940	1.322085	0.298863
H54	H	-0.376375	1.266902	0.477012
O55	O	-0.013160	1.651708	0.641918
C56	C	0.044185	1.584342	0.725182
H57	H	0.046426	1.485300	0.681839
H58	H	0.117136	1.635417	0.726806
H59	H	0.015367	1.577836	0.834227
O60	O	-0.138079	1.112992	-0.245551
C61	C	-0.059835	1.202818	-0.253011
H62	H	-0.003336	1.173153	-0.182308
H63	H	-0.033107	1.209009	-0.363220
H64	H	-0.079789	1.298926	-0.219540
