data_functionalizedCrystal
_audit_creation_method	'MofGen! by Chris Wilmer'
_symmetry_space_group_name_H-M	'P1'
_symmetry_Int_Tables_number	1
_symmetry_cell_setting	triclinic
loop_
_symmetry_equiv_pos_as_xyz
  x,y,z
_cell_length_a	15.995350
_cell_length_b	13.339070
_cell_length_c	11.804365
_cell_angle_alpha	74.887832
_cell_angle_beta	101.844755
_cell_angle_gamma	99.560835
loop_
_atom_site_label
_atom_site_type_symbol
_atom_site_fract_x
_atom_site_fract_y
_atom_site_fract_z
O1	O	-1.153436	-0.109993	-0.098919
O2	O	-0.653436	0.390007	0.401081
O3	O	-0.913404	-0.126090	-0.098942
O4	O	-0.413404	0.373910	0.401058
O5	O	-1.005872	0.029222	-0.098930
O6	O	-0.505872	0.529222	0.401070
O7	O	-1.060968	-0.265305	-0.098931
O8	O	-0.560968	0.234695	0.401069
O9	O	-0.981519	-0.011624	0.099123
O10	O	-0.481519	0.488376	0.599123
O11	O	-0.889052	-0.166936	0.099110
O12	O	-0.389052	0.333064	0.599110
O13	O	-1.129083	-0.150839	0.099134
O14	O	-0.629083	0.349161	0.599134
Cu15	Cu	-1.006844	-0.162617	0.117206
Cu16	Cu	-0.506844	0.337383	0.617206
Cu17	Cu	-1.035644	-0.114312	-0.117014
Cu18	Cu	-0.535644	0.385688	0.382986
O19	O	-1.036616	-0.306151	0.099121
O20	O	-0.536616	0.193849	0.599121
C21	C	-0.869879	-0.145847	0.000081
C22	C	-0.369879	0.354153	0.500081
C23	C	-0.776466	-0.143849	0.000072
C24	C	-0.276466	0.356151	0.500072
C25	C	-0.984389	0.046489	0.000094
C26	C	-0.484389	0.546489	0.500094
C27	C	-0.956648	0.158792	0.000087
C28	C	-0.456648	0.658792	0.500087
C29	C	-1.172609	-0.131082	0.000108
C30	C	-0.672609	0.368918	0.500108
C31	C	-1.266023	-0.133078	0.000110
C32	C	-0.766023	0.366922	0.500110
C33	C	-0.437050	-0.136687	0.000097
C34	C	0.062950	0.363313	0.500097
C35	C	-0.458733	-0.026166	0.000539
C36	C	0.041267	0.473834	0.500539
C37	C	-0.555943	-0.028068	0.000084
C38	C	-0.055943	0.471932	0.500084
C39	C	-0.605438	-0.140240	0.000085
C40	C	-0.105438	0.359760	0.500085
C41	C	-0.590932	-0.171473	-0.113008
C42	C	-0.090932	0.328527	0.386992
C43	C	-0.493661	-0.168676	-0.113095
C44	C	0.006339	0.331324	0.386905
C45	C	-0.466160	-0.217412	0.112128
C46	C	0.033840	0.282588	0.612128
C47	C	-0.562916	-0.217692	0.113614
C48	C	-0.062916	0.282308	0.613614
C49	C	-0.700605	-0.142253	0.000074
C50	C	-0.200605	0.357747	0.500074
C51	C	-0.341885	-0.134676	0.000099
C52	C	0.158115	0.365324	0.500099
C53	C	-1.058099	-0.323417	0.000095
C54	C	-0.558099	0.176583	0.500095
C55	C	-1.085841	-0.435719	0.000095
C56	C	-0.585841	0.064281	0.500095
N57	N	-0.986593	-0.196592	0.281944
N58	N	-0.486593	0.303408	0.781944
C59	C	-1.172349	0.523580	0.000109
C60	C	-0.672349	1.023580	0.500109
C61	C	-1.198415	0.418065	0.000122
C62	C	-0.698415	0.918065	0.500122
C63	C	-1.137975	0.353242	0.000113
C64	C	-0.637975	0.853242	0.500113
C65	C	-1.051466	0.393944	0.000091
C66	C	-0.551466	0.893944	0.500091
C67	C	-1.025397	0.499468	0.000086
C68	C	-0.525397	0.999468	0.500086
C69	C	-0.991023	0.329129	0.000091
C70	C	-0.491023	0.829129	0.500091
C71	C	-0.904514	0.369832	0.000068
C72	C	-0.404514	0.869832	0.500068
C73	C	-0.878449	0.475346	0.000063
C74	C	-0.378449	0.975346	0.500063
C75	C	-0.938888	0.540169	0.000072
C76	C	-0.438888	1.040169	0.500072
C77	C	-1.017092	0.223605	0.000095
C78	C	-0.517092	0.723605	0.500095
C79	C	-0.870140	0.199493	0.000073
C80	C	-0.370140	0.699493	0.500073
C81	C	-0.844074	0.305009	0.000059
C82	C	-0.344074	0.805009	0.500059
N83	N	-1.055899	-0.080328	-0.281752
N84	N	-0.555899	0.419672	0.218248
C85	C	-1.104523	0.001277	0.655909
C86	C	-0.604523	0.501277	1.155909
C87	C	-1.119840	0.026984	0.531249
C88	C	-0.619840	0.526984	1.031249
C89	C	-1.086529	-0.028908	0.468917
C90	C	-0.586529	0.471092	0.968917
C91	C	-1.037899	-0.110511	0.531256
C92	C	-0.537899	0.389489	1.031256
C93	C	-1.022586	-0.136225	0.655928
C94	C	-0.522586	0.363775	1.155928
C95	C	-1.004593	-0.166410	0.468936
C96	C	-0.504593	0.333590	0.968936
C97	C	-0.955963	-0.248013	0.531275
C98	C	-0.455963	0.251987	1.031275
C99	C	-0.940652	-0.273723	0.655935
C100	C	-0.440652	0.226277	1.155935
C101	C	-0.973962	-0.217831	0.718267
C102	C	-0.473962	0.282169	1.218267
C103	C	-1.019906	-0.140696	0.344264
C104	C	-0.519906	0.359304	0.844264
C105	C	-0.937970	-0.278198	0.344283
C106	C	-0.437970	0.221802	0.844283
C107	C	-0.922652	-0.303905	0.468943
C108	C	-0.422652	0.196095	0.968943
H109	H	-0.564440	-0.001903	0.081155
H110	H	-0.064440	0.498097	0.581155
Cl111	Cl	-0.879529	-0.376320	0.734306
Cl112	Cl	-0.379529	0.123680	1.234306
H113	H	-0.426683	-0.198930	0.197850
H114	H	0.073317	0.301070	0.697850
Cl115	Cl	-0.906141	0.672853	-0.000086
Cl116	Cl	-0.406141	1.172853	0.499914
Cl117	Cl	-0.954701	-0.250145	0.874989
Cl118	Cl	-0.454701	0.249855	1.374989
Cl119	Cl	-1.081038	-0.038113	0.265910
Cl120	Cl	-0.581038	0.461887	0.765910
H121	H	-0.883057	-0.370348	0.519715
H122	H	-0.383057	0.129652	1.019715
Cl123	Cl	-0.428002	0.067472	-0.123980
Cl124	Cl	0.071998	0.567472	0.376020
Cl125	Cl	-0.769692	0.526508	0.000052
Cl126	Cl	-0.269692	1.026508	0.500052
Cl127	Cl	-0.794153	0.118007	0.000069
Cl128	Cl	-0.294153	0.618007	0.500069
Cl129	Cl	-0.896095	-0.348470	0.265930
Cl130	Cl	-0.396095	0.151530	0.765930
Cl131	Cl	-0.735323	0.356190	0.000029
Cl132	Cl	-0.235323	0.856190	0.500029
H133	H	-1.268850	0.384932	0.000142
H134	H	-0.768850	0.884932	0.500142
H135	H	-1.099003	-0.007974	0.367413
H136	H	-0.599003	0.492026	0.867413
H137	H	-1.159435	0.093423	0.480497
H138	H	-0.659435	0.593423	0.980497
Cl139	Cl	-0.398875	0.016275	0.125757
Cl140	Cl	0.101125	0.516275	0.625757
Cl141	Cl	-1.146403	0.071525	0.734270
Cl142	Cl	-0.646403	0.571525	1.234270
Cl143	Cl	-1.170746	0.220593	0.000124
Cl144	Cl	-0.670746	0.720593	0.500124
H145	H	-0.476505	-0.111455	-0.197635
H146	H	0.023495	0.388545	0.302365
Cl147	Cl	-0.473970	-0.292419	-0.121021
Cl148	Cl	0.026030	0.207581	0.378979
Cl149	Cl	-0.598953	0.064202	-0.125514
Cl150	Cl	-0.098953	0.564202	0.374486
H151	H	-0.624719	-0.253015	-0.117213
H152	H	-0.124719	0.246985	0.382787
H153	H	-0.596445	-0.300900	0.120446
H154	H	-0.096445	0.199100	0.620446
H155	H	-1.087528	0.190476	0.000114
H156	H	-0.587528	0.690476	0.500114
Cl157	Cl	-0.574795	-0.182743	0.242789
Cl158	Cl	-0.074795	0.317257	0.742789
Cl159	Cl	-0.637122	-0.086169	-0.242959
Cl160	Cl	-0.137122	0.413831	0.257041
Cl161	Cl	-1.248316	0.605070	0.000142
Cl162	Cl	-0.748316	1.105070	0.500142
H163	H	-0.453251	-0.299123	0.112893
H164	H	0.046749	0.200877	0.612893
