data_functionalizedCrystal
_audit_creation_method	'MofGen! by Chris Wilmer'
_symmetry_space_group_name_H-M	'P1'
_symmetry_Int_Tables_number	1
_symmetry_cell_setting	triclinic
loop_
_symmetry_equiv_pos_as_xyz
  x,y,z
_cell_length_a	9.065215
_cell_length_b	8.140239
_cell_length_c	19.288865
_cell_angle_alpha	89.991261
_cell_angle_beta	95.924528
_cell_angle_gamma	90.002190
loop_
_atom_site_label
_atom_site_type_symbol
_atom_site_fract_x
_atom_site_fract_y
_atom_site_fract_z
O1	O	1.956833	0.136617	-0.101830
O2	O	1.527255	0.136626	-0.110186
O3	O	1.754457	0.136588	-0.004974
O4	O	1.729631	0.136654	-0.207042
O5	O	1.754444	-0.136639	-0.004973
O6	O	1.527242	-0.136601	-0.110185
O7	O	1.956820	-0.136611	-0.101829
Zn8	Zn	1.742029	-0.179987	-0.106007
Zn9	Zn	1.742046	0.180002	-0.106008
O10	O	1.729619	-0.136573	-0.207041
C11	C	1.472290	0.000013	-0.109383
C12	C	1.308531	0.000015	-0.106983
N13	N	1.742029	-0.425669	-0.106005
C14	C	2.011785	0.000006	-0.102632
C15	C	2.175544	0.000015	-0.105032
C16	C	1.753652	-0.000030	0.020909
C17	C	1.751254	-0.000044	0.098031
N18	N	1.742058	0.425684	-0.106004
C19	C	1.730424	0.000049	-0.232924
C20	C	1.732822	0.000074	-0.310046
C21	C	1.884565	-0.000055	0.141693
C22	C	1.882313	-0.000029	0.214158
C23	C	1.746741	-0.000025	0.242957
C24	C	1.613411	-0.000005	0.199286
C25	C	1.615668	-0.000015	0.126823
C26	C	1.640161	-0.095729	0.352072
C27	C	1.637910	-0.095729	0.424534
C28	C	1.739775	0.000012	0.466457
C29	C	1.843916	0.095732	0.435910
C30	C	1.846173	0.095722	0.363447
C31	C	1.744279	-0.000014	0.321530
C32	C	1.870653	0.000031	0.588694
C33	C	1.868395	0.000067	0.661159
C34	C	1.599490	0.000075	0.646286
C35	C	1.601752	0.000055	0.573822
C36	C	1.737338	0.000026	0.545030
H37	H	1.990874	-0.000032	0.249714
C38	C	1.523363	-0.201016	0.458129
H39	H	1.463001	-0.258014	0.422784
H40	H	1.573472	-0.277993	0.489223
H41	H	1.462922	-0.131983	0.483097
C42	C	1.450363	0.000085	0.677956
H43	H	1.468110	0.000082	0.727367
H44	H	1.395495	0.095364	0.663016
H45	H	1.395488	-0.095209	0.663035
H46	H	1.503028	0.000002	0.222739
C47	C	1.960703	0.201022	0.329847
H48	H	2.021045	0.258057	0.365188
H49	H	2.021146	0.132013	0.304876
H50	H	1.910564	0.277994	0.298754
H51	H	1.976958	0.000068	0.696709
H52	H	1.994970	-0.000074	0.118256
C53	C	1.955967	0.201063	0.482015
H54	H	1.939699	0.187381	0.529546
H55	H	2.053941	0.167410	0.475545
H56	H	1.943361	0.313392	0.469407
C57	C	1.528100	-0.201049	0.305963
H58	H	1.465772	-0.258070	0.334533
H59	H	1.469417	-0.132042	0.274395
H60	H	1.579989	-0.278032	0.280524
C61	C	2.019788	0.000017	0.557020
H62	H	2.098864	0.000039	0.593405
H63	H	2.026256	-0.095270	0.529071
H64	H	2.026259	0.095303	0.529051
H65	H	1.507106	-0.000006	0.091273
H66	H	1.493195	0.000055	0.538271
