data_functionalizedCrystal
_audit_creation_method	'MofGen! by Chris Wilmer'
_symmetry_space_group_name_H-M	'P1'
_symmetry_Int_Tables_number	1
_symmetry_cell_setting	triclinic
loop_
_symmetry_equiv_pos_as_xyz
  x,y,z
_cell_length_a	27.731993
_cell_length_b	27.732048
_cell_length_c	26.809956
_cell_angle_alpha	90.024325
_cell_angle_beta	90.008964
_cell_angle_gamma	82.631525
loop_
_atom_site_label
_atom_site_type_symbol
_atom_site_fract_x
_atom_site_fract_y
_atom_site_fract_z
O1	O	0.640955	0.057400	0.041351
O2	O	0.890955	0.307400	0.291351
O3	O	1.140955	0.557400	0.541351
O4	O	1.390955	0.807400	0.791351
O5	O	0.500157	0.066173	0.041382
O6	O	0.750157	0.316173	0.291382
O7	O	1.000157	0.566173	0.541382
O8	O	1.250157	0.816173	0.791382
O9	O	0.574929	-0.008611	0.041356
O10	O	0.824929	0.241389	0.291356
O11	O	1.074929	0.491389	0.541356
O12	O	1.324929	0.741389	0.791356
O13	O	0.566183	0.132184	0.041377
O14	O	0.816183	0.382184	0.291377
O15	O	1.066183	0.632184	0.541377
O16	O	1.316183	0.882184	0.791377
O17	O	0.574902	-0.008631	-0.041603
O18	O	0.824902	0.241369	0.208397
O19	O	1.074902	0.491369	0.458397
O20	O	1.324902	0.741369	0.708397
O21	O	0.500131	0.066153	-0.041577
O22	O	0.750131	0.316153	0.208423
O23	O	1.000131	0.566153	0.458423
O24	O	1.250131	0.816153	0.708423
O25	O	0.640928	0.057380	-0.041609
O26	O	0.890928	0.307380	0.208391
O27	O	1.140928	0.557380	0.458391
O28	O	1.390928	0.807380	0.708391
Zn29	Zn	0.570525	0.061764	-0.054765
Zn30	Zn	0.820525	0.311764	0.195235
Zn31	Zn	1.070525	0.561764	0.445235
Zn32	Zn	1.320525	0.811764	0.695235
Zn33	Zn	0.570560	0.061790	0.054538
Zn34	Zn	0.820560	0.311790	0.304538
Zn35	Zn	1.070560	0.561790	0.554538
Zn36	Zn	1.320560	0.811790	0.804538
O37	O	0.566157	0.132164	-0.041582
O38	O	0.816157	0.382164	0.208418
O39	O	1.066157	0.632164	0.458418
O40	O	1.316157	0.882164	0.708418
C41	C	0.482137	0.065983	-0.000094
C42	C	0.732137	0.315983	0.249906
C43	C	0.982137	0.565983	0.499906
C44	C	1.232137	0.815983	0.749906
C45	C	0.428480	0.065441	-0.000082
C46	C	0.678480	0.315441	0.249918
C47	C	0.928480	0.565441	0.499918
C48	C	1.178480	0.815441	0.749918
C49	C	0.045335	0.061521	0.045114
C50	C	0.295335	0.311521	0.295114
C51	C	0.545335	0.561521	0.545114
C52	C	0.795335	0.811521	0.795114
C53	C	0.246992	0.063588	0.045128
C54	C	0.496992	0.313588	0.295128
C55	C	0.746992	0.563588	0.545128
C56	C	0.996992	0.813588	0.795128
O57	O	0.273077	0.063846	0.083588
O58	O	0.523077	0.313846	0.333588
O59	O	0.773077	0.563846	0.583588
O60	O	1.023077	0.813846	0.833588
N61	N	0.272198	0.063836	-0.000092
N62	N	0.522198	0.313836	0.249908
N63	N	0.772198	0.563836	0.499908
N64	N	1.022198	0.813836	0.749908
C65	C	0.246987	0.063564	-0.045319
C66	C	0.496987	0.313564	0.204681
C67	C	0.746987	0.563564	0.454681
C68	C	0.996987	0.813564	0.704681
O69	O	0.273054	0.063817	-0.083781
O70	O	0.523054	0.313817	0.166219
O71	O	0.773054	0.563817	0.416219
O72	O	1.023054	0.813817	0.666219
C73	C	0.045331	0.061493	-0.045332
C74	C	0.295331	0.311493	0.204668
C75	C	0.545331	0.561493	0.454668
C76	C	0.795331	0.811493	0.704668
C77	C	0.020127	0.061251	-0.000109
C78	C	0.270127	0.311251	0.249891
C79	C	0.520127	0.561251	0.499891
C80	C	0.770127	0.811251	0.749891
C81	C	0.020131	0.061278	0.090333
C82	C	0.270131	0.311278	0.340333
C83	C	0.520131	0.561278	0.590333
C84	C	0.770131	0.811278	0.840333
C85	C	-0.030281	0.060764	0.090329
C86	C	0.219719	0.310764	0.340329
C87	C	0.469719	0.560764	0.590329
C88	C	0.719719	0.810764	0.840329
C89	C	-0.055489	0.060493	0.045106
C90	C	0.194511	0.310493	0.295106
C91	C	0.444511	0.560493	0.545106
C92	C	0.694511	0.810493	0.795106
C93	C	-0.030285	0.060736	-0.000113
C94	C	0.219715	0.310736	0.249887
C95	C	0.469715	0.560736	0.499887
C96	C	0.719715	0.810736	0.749887
C97	C	0.020121	0.061217	-0.090558
C98	C	0.270121	0.311217	0.159442
C99	C	0.520121	0.561217	0.409442
C100	C	0.770121	0.811217	0.659442
C101	C	-0.030296	0.060698	-0.090558
C102	C	0.219704	0.310698	0.159442
C103	C	0.469704	0.560698	0.409442
C104	C	0.719704	0.810698	0.659442
C105	C	-0.055500	0.060456	-0.045335
C106	C	0.194500	0.310456	0.204665
C107	C	0.444500	0.560456	0.454665
C108	C	0.694500	0.810456	0.704665
C109	C	-0.105905	0.059952	-0.045340
C110	C	0.144095	0.309952	0.204660
C111	C	0.394095	0.559952	0.454660
C112	C	0.644095	0.809952	0.704660
N113	N	-0.131110	0.059704	-0.000120
N114	N	0.118890	0.309704	0.249880
N115	N	0.368890	0.559704	0.499880
N116	N	0.618890	0.809704	0.749880
C117	C	-0.105902	0.059975	0.045103
C118	C	0.144098	0.309975	0.295103
C119	C	0.394098	0.559975	0.545103
C120	C	0.644098	0.809975	0.795103
C121	C	0.352859	0.064652	-0.045309
C122	C	0.602859	0.314652	0.204691
C123	C	0.852859	0.564652	0.454691
C124	C	1.102859	0.814652	0.704691
C125	C	0.403272	0.065170	-0.045306
C126	C	0.653272	0.315170	0.204694
C127	C	0.903272	0.565170	0.454694
C128	C	1.153272	0.815170	0.704694
C129	C	0.403274	0.065194	0.045141
C130	C	0.653274	0.315194	0.295141
C131	C	0.903274	0.565194	0.545141
C132	C	1.153274	0.815194	0.795141
C133	C	0.352859	0.064679	0.045138
C134	C	0.602859	0.314679	0.295138
C135	C	0.852859	0.564679	0.545138
C136	C	1.102859	0.814679	0.795138
C137	C	0.327653	0.064404	-0.000089
C138	C	0.577653	0.314404	0.249911
C139	C	0.827653	0.564404	0.499911
C140	C	1.077653	0.814404	0.749911
C141	C	-0.211771	0.058896	0.045091
C142	C	0.038229	0.308896	0.295091
C143	C	0.288229	0.558896	0.545091
C144	C	0.538229	0.808896	0.795091
C145	C	-0.262187	0.058383	0.045083
C146	C	-0.012187	0.308383	0.295083
C147	C	0.237813	0.558383	0.545083
C148	C	0.487813	0.808383	0.795083
C149	C	-0.262184	0.058357	-0.045363
C150	C	-0.012184	0.308357	0.204637
C151	C	0.237816	0.558357	0.454637
C152	C	0.487816	0.808357	0.704637
C153	C	-0.211773	0.058872	-0.045356
C154	C	0.038227	0.308872	0.204644
C155	C	0.288227	0.558872	0.454644
C156	C	0.538227	0.808872	0.704644
C157	C	-0.186567	0.059139	-0.000124
C158	C	0.063433	0.309139	0.249876
C159	C	0.313433	0.559139	0.499876
C160	C	0.563433	0.809139	0.749876
O161	O	-0.132020	0.059689	-0.083780
O162	O	0.117980	0.309689	0.166220
O163	O	0.367980	0.559689	0.416220
O164	O	0.617980	0.809689	0.666220
O165	O	-0.131977	0.059711	0.083559
O166	O	0.118023	0.309711	0.333559
O167	O	0.368023	0.559711	0.583559
O168	O	0.618023	0.809711	0.833559
C169	C	0.095746	0.062035	0.045118
C170	C	0.345746	0.312035	0.295118
C171	C	0.595746	0.562035	0.545118
C172	C	0.845746	0.812035	0.795118
C173	C	0.120950	0.062279	-0.000101
C174	C	0.370950	0.312279	0.249899
C175	C	0.620950	0.562279	0.499899
C176	C	0.870950	0.812279	0.749899
C177	C	0.095742	0.062008	-0.045325
C178	C	0.345742	0.312008	0.204675
C179	C	0.595742	0.562008	0.454675
C180	C	0.845742	0.812008	0.704675
C181	C	0.171364	0.062797	-0.000098
C182	C	0.421364	0.312797	0.249902
C183	C	0.671364	0.562797	0.499902
C184	C	0.921364	0.812797	0.749902
C185	C	0.196572	0.063068	0.045125
C186	C	0.446572	0.313068	0.295125
C187	C	0.696572	0.563068	0.545125
C188	C	0.946572	0.813068	0.795125
C189	C	0.171366	0.062820	0.090345
C190	C	0.421366	0.312820	0.340345
C191	C	0.671366	0.562820	0.590345
C192	C	0.921366	0.812820	0.840345
C193	C	0.120954	0.062306	0.090341
C194	C	0.370954	0.312306	0.340341
C195	C	0.620954	0.562306	0.590341
C196	C	0.870954	0.812306	0.840341
C197	C	0.120948	0.062255	-0.090545
C198	C	0.370948	0.312255	0.159455
C199	C	0.620948	0.562255	0.409455
C200	C	0.870948	0.812255	0.659455
C201	C	0.171360	0.062770	-0.090537
C202	C	0.421360	0.312770	0.159463
C203	C	0.671360	0.562770	0.409463
C204	C	0.921360	0.812770	0.659463
C205	C	0.196568	0.063041	-0.045314
C206	C	0.446568	0.313041	0.204686
C207	C	0.696568	0.563041	0.454686
C208	C	0.946568	0.813041	0.704686
C209	C	0.574732	-0.026628	-0.000125
C210	C	0.824732	0.223372	0.249875
C211	C	1.074732	0.473372	0.499875
C212	C	1.324732	0.723372	0.749875
C213	C	0.574179	-0.080282	-0.000129
C214	C	0.824179	0.169718	0.249871
C215	C	1.074179	0.419718	0.499871
C216	C	1.324179	0.669718	0.749871
C217	C	0.614884	-0.419105	-0.000113
C218	C	0.864884	-0.169105	0.249887
C219	C	1.114884	0.080895	0.499887
C220	C	1.364884	0.330895	0.749887
C221	C	0.612833	-0.620765	-0.000105
C222	C	0.862833	-0.370765	0.249895
C223	C	1.112833	-0.120765	0.499895
C224	C	1.362833	0.129235	0.749895
O225	O	0.650055	-0.652028	-0.000092
O226	O	0.900055	-0.402028	0.249908
O227	O	1.150055	-0.152028	0.499908
O228	O	1.400055	0.097972	0.749908
N229	N	0.568497	-0.639880	-0.000096
N230	N	0.818497	-0.389880	0.249904
N231	N	1.068497	-0.139880	0.499904
N232	N	1.318497	0.110120	0.749904
C233	C	0.524670	-0.608577	-0.000085
C234	C	0.774670	-0.358577	0.249915
C235	C	1.024670	-0.108577	0.499915
C236	C	1.274670	0.141423	0.749915
O237	O	0.486912	-0.629462	-0.000072
O238	O	0.736912	-0.379462	0.249928
O239	O	0.986912	-0.129462	0.499928
O240	O	1.236912	0.120538	0.749928
C241	C	0.526721	-0.406918	-0.000089
C242	C	0.776721	-0.156918	0.249911
C243	C	1.026721	0.093082	0.499911
C244	C	1.276721	0.343082	0.749911
C245	C	0.571061	-0.387806	-0.000103
C246	C	0.821061	-0.137806	0.249897
C247	C	1.071061	0.112194	0.499897
C248	C	1.321061	0.362194	0.749897
C249	C	0.659220	-0.399993	-0.000126
C250	C	0.909220	-0.149993	0.249874
C251	C	1.159220	0.100007	0.499874
C252	C	1.409220	0.350007	0.749874
C253	C	0.659732	-0.349581	-0.000131
C254	C	0.909732	-0.099581	0.249869
C255	C	1.159732	0.150419	0.499869
C256	C	1.409732	0.400419	0.749869
C257	C	0.615909	-0.318282	-0.000122
C258	C	0.865909	-0.068282	0.249878
C259	C	1.115909	0.181718	0.499878
C260	C	1.365909	0.431718	0.749878
C261	C	0.571573	-0.337394	-0.000108
C262	C	0.821573	-0.087394	0.249892
C263	C	1.071573	0.162606	0.499892
C264	C	1.321573	0.412606	0.749892
C265	C	0.482895	-0.375616	-0.000074
C266	C	0.732895	-0.125616	0.249926
C267	C	0.982895	0.124384	0.499926
C268	C	1.232895	0.374384	0.749926
C269	C	0.483412	-0.325199	-0.000074
C270	C	0.733412	-0.075199	0.249926
C271	C	0.983412	0.174801	0.499926
C272	C	1.233412	0.424801	0.749926
C273	C	0.527751	-0.306087	-0.000089
C274	C	0.777751	-0.056087	0.249911
C275	C	1.027751	0.193913	0.499911
C276	C	1.277751	0.443913	0.749911
C277	C	0.528262	-0.255683	-0.000103
C278	C	0.778262	-0.005683	0.249897
C279	C	1.028262	0.244317	0.499897
C280	C	1.278262	0.494317	0.749897
N281	N	0.572598	-0.236568	-0.000112
N282	N	0.822598	0.013432	0.249888
N283	N	1.072598	0.263432	0.499888
N284	N	1.322598	0.513432	0.749888
C285	C	0.616422	-0.267867	-0.000122
C286	C	0.866422	-0.017867	0.249878
C287	C	1.116422	0.232133	0.499878
C288	C	1.366422	0.482133	0.749878
C289	C	0.523596	-0.714450	-0.000084
C290	C	0.773596	-0.464450	0.249916
C291	C	1.023596	-0.214450	0.499916
C292	C	1.273596	0.035550	0.749916
C293	C	0.523083	-0.764865	-0.000084
C294	C	0.773083	-0.514865	0.249916
C295	C	1.023083	-0.264865	0.499916
C296	C	1.273083	-0.014865	0.749916
C297	C	0.611246	-0.777049	-0.000103
C298	C	0.861246	-0.527049	0.249897
C299	C	1.111246	-0.277049	0.499897
C300	C	1.361246	-0.027049	0.749897
C301	C	0.611759	-0.726634	-0.000107
C302	C	0.861759	-0.476634	0.249893
C303	C	1.111759	-0.226634	0.499893
C304	C	1.361759	0.023366	0.749893
C305	C	0.567932	-0.695335	-0.000093
C306	C	0.817932	-0.445335	0.249907
C307	C	1.067932	-0.195335	0.499907
C308	C	1.317932	0.054665	0.749907
C309	C	0.617494	-0.161999	-0.000132
C310	C	0.867494	0.088001	0.249868
C311	C	1.117494	0.338001	0.499868
C312	C	1.367494	0.588001	0.749868
C313	C	0.618002	-0.111582	-0.000138
C314	C	0.868002	0.138418	0.249862
C315	C	1.118002	0.388418	0.499862
C316	C	1.368002	0.638418	0.749862
C317	C	0.529839	-0.099401	-0.000117
C318	C	0.779839	0.150599	0.249883
C319	C	1.029839	0.400599	0.499883
C320	C	1.279839	0.650599	0.749883
C321	C	0.529331	-0.149814	-0.000113
C322	C	0.779331	0.100186	0.249887
C323	C	1.029331	0.350186	0.499887
C324	C	1.279331	0.600186	0.749887
C325	C	0.573162	-0.181112	-0.000118
C326	C	0.823162	0.068888	0.249882
C327	C	1.073162	0.318888	0.499882
C328	C	1.323162	0.568888	0.749882
O329	O	0.491060	-0.224392	-0.000111
O330	O	0.741060	0.025608	0.249889
O331	O	0.991060	0.275608	0.499889
O332	O	1.241060	0.525608	0.749889
O333	O	0.654174	-0.246972	-0.000124
O334	O	0.904174	0.003028	0.249876
O335	O	1.154174	0.253028	0.499876
O336	O	1.404174	0.503028	0.749876
C337	C	0.614372	-0.469517	-0.000108
C338	C	0.864372	-0.219517	0.249892
C339	C	1.114372	0.030483	0.499892
C340	C	1.364372	0.280483	0.749892
C341	C	0.570036	-0.488630	-0.000094
C342	C	0.820036	-0.238630	0.249906
C343	C	1.070036	0.011370	0.499906
C344	C	1.320036	0.261370	0.749906
C345	C	0.526213	-0.457331	-0.000085
C346	C	0.776213	-0.207331	0.249915
C347	C	1.026213	0.042669	0.499915
C348	C	1.276213	0.292669	0.749915
C349	C	0.569523	-0.539044	-0.000094
C350	C	0.819523	-0.289044	0.249906
C351	C	1.069523	-0.039044	0.499906
C352	C	1.319523	0.210956	0.749906
C353	C	0.613346	-0.570343	-0.000103
C354	C	0.863346	-0.320343	0.249897
C355	C	1.113346	-0.070343	0.499897
C356	C	1.363346	0.179657	0.749897
C357	C	0.657683	-0.551228	-0.000113
C358	C	0.907683	-0.301228	0.249887
C359	C	1.157683	-0.051228	0.499887
C360	C	1.407683	0.198772	0.749887
C361	C	0.658195	-0.500817	-0.000117
C362	C	0.908195	-0.250817	0.249883
C363	C	1.158195	-0.000817	0.499883
C364	C	1.408195	0.249183	0.749883
C365	C	0.481876	-0.476446	-0.000075
C366	C	0.731876	-0.226446	0.249925
C367	C	0.981876	0.023554	0.499925
C368	C	1.231876	0.273554	0.749925
C369	C	0.481368	-0.526858	-0.000071
C370	C	0.731368	-0.276858	0.249929
C371	C	0.981368	-0.026858	0.499929
C372	C	1.231368	0.223142	0.749929
C373	C	0.525191	-0.558157	-0.000081
C374	C	0.775191	-0.308157	0.249919
C375	C	1.025191	-0.058157	0.499919
C376	C	1.275191	0.191843	0.749919
C377	C	0.658949	0.057570	-0.000132
C378	C	0.908949	0.307570	0.249868
C379	C	1.158949	0.557570	0.499868
C380	C	1.408949	0.807570	0.749868
C381	C	0.712605	0.058113	-0.000140
C382	C	0.962605	0.308113	0.249860
C383	C	1.212605	0.558113	0.499860
C384	C	1.462605	0.808113	0.749860
C385	C	0.566353	0.150181	-0.000100
C386	C	0.816353	0.400181	0.249900
C387	C	1.066353	0.650181	0.499900
C388	C	1.316353	0.900181	0.749900
C389	C	0.566906	0.203836	-0.000093
C390	C	0.816906	0.453836	0.249907
C391	C	1.066906	0.703836	0.499907
C392	C	1.316906	0.953836	0.749907
N393	N	0.570505	0.061745	-0.129360
N394	N	0.820505	0.311745	0.120640
N395	N	1.070505	0.561745	0.370640
N396	N	1.320505	0.811745	0.620640
C397	C	0.541454	0.032657	-0.526251
C398	C	0.791454	0.282657	-0.276251
C399	C	1.041454	0.532657	-0.026251
C400	C	1.291454	0.782657	0.223749
C401	C	0.541431	0.032643	-0.317374
C402	C	0.791431	0.282643	-0.067374
C403	C	1.041431	0.532643	0.182626
C404	C	1.291431	0.782643	0.432626
O405	O	0.516699	0.007870	-0.290379
O406	O	0.766699	0.257870	-0.040379
O407	O	1.016699	0.507870	0.209621
O408	O	1.266699	0.757870	0.459621
N409	N	0.570524	0.061753	-0.291239
N410	N	0.820524	0.311753	-0.041239
N411	N	1.070524	0.561753	0.208761
N412	N	1.320524	0.811753	0.458761
C413	C	0.599628	0.090865	-0.317327
C414	C	0.849628	0.340865	-0.067327
C415	C	1.099628	0.590865	0.182673
C416	C	1.349628	0.840865	0.432673
O417	O	0.624376	0.115620	-0.290305
O418	O	0.874376	0.365620	-0.040305
O419	O	1.124376	0.615620	0.209695
O420	O	1.374376	0.865620	0.459695
C421	C	0.599653	0.090875	-0.526204
C422	C	0.849653	0.340875	-0.276204
C423	C	1.099653	0.590875	-0.026204
C424	C	1.349653	0.840875	0.223796
C425	C	0.570554	0.061768	-0.552336
C426	C	0.820554	0.311768	-0.302336
C427	C	1.070554	0.561768	-0.052336
C428	C	1.320554	0.811768	0.197664
C429	C	0.512358	0.003551	-0.552383
C430	C	0.762358	0.253551	-0.302383
C431	C	1.012358	0.503551	-0.052383
C432	C	1.262358	0.753551	0.197617
C433	C	0.512362	0.003557	-0.604600
C434	C	0.762362	0.253557	-0.354600
C435	C	1.012362	0.503557	-0.104600
C436	C	1.262362	0.753557	0.145400
C437	C	0.541462	0.032668	-0.630684
C438	C	0.791462	0.282668	-0.380684
C439	C	1.041462	0.532668	-0.130684
C440	C	1.291462	0.782668	0.119316
C441	C	0.570558	0.061773	-0.604552
C442	C	0.820558	0.311773	-0.354552
C443	C	1.070558	0.561773	-0.104552
C444	C	1.320558	0.811773	0.145448
C445	C	0.628758	0.119984	-0.552291
C446	C	0.878758	0.369984	-0.302291
C447	C	1.128758	0.619984	-0.052291
C448	C	1.378758	0.869984	0.197709
C449	C	0.628763	0.119984	-0.604513
C450	C	0.878763	0.369984	-0.354513
C451	C	1.128763	0.619984	-0.104513
C452	C	1.378763	0.869984	0.145487
C453	C	0.599664	0.090876	-0.630645
C454	C	0.849664	0.340876	-0.380645
C455	C	1.099664	0.590876	-0.130645
C456	C	1.349664	0.840876	0.119355
C457	C	0.599662	0.090890	-0.682853
C458	C	0.849662	0.340890	-0.432853
C459	C	1.099662	0.590890	-0.182853
C460	C	1.349662	0.840890	0.067147
N461	N	0.570569	0.061781	-0.708987
N462	N	0.820569	0.311781	-0.458987
N463	N	1.070569	0.561781	-0.208987
N464	N	1.320569	0.811781	0.041013
C465	C	0.541469	0.032670	-0.682903
C466	C	0.791469	0.282670	-0.432903
C467	C	1.041469	0.532670	-0.182903
C468	C	1.291469	0.782670	0.067097
C469	C	0.599612	0.090858	-0.207664
C470	C	0.849612	0.340858	0.042336
C471	C	1.099612	0.590858	0.292336
C472	C	1.349612	0.840858	0.542336
C473	C	0.599605	0.090856	-0.155445
C474	C	0.849605	0.340856	0.094555
C475	C	1.099605	0.590856	0.344555
C476	C	1.349605	0.840856	0.594555
C477	C	0.541409	0.032634	-0.155495
C478	C	0.791409	0.282634	0.094505
C479	C	1.041409	0.532634	0.344505
C480	C	1.291409	0.782634	0.594505
C481	C	0.541414	0.032639	-0.207715
C482	C	0.791414	0.282639	0.042285
C483	C	1.041414	0.532639	0.292285
C484	C	1.291414	0.782639	0.542285
C485	C	0.570519	0.061749	-0.233798
C486	C	0.820519	0.311749	0.016202
C487	C	1.070519	0.561749	0.266202
C488	C	1.320519	0.811749	0.516202
C489	C	0.541479	0.032684	-0.792561
C490	C	0.791479	0.282684	-0.542561
C491	C	1.041479	0.532684	-0.292561
C492	C	1.291479	0.782684	-0.042561
C493	C	0.541484	0.032694	-0.844782
C494	C	0.791484	0.282694	-0.594782
C495	C	1.041484	0.532694	-0.344782
C496	C	1.291484	0.782694	-0.094782
C497	C	0.599682	0.090914	-0.844727
C498	C	0.849682	0.340914	-0.594727
C499	C	1.099682	0.590914	-0.344727
C500	C	1.349682	0.840914	-0.094727
C501	C	0.599675	0.090906	-0.792511
C502	C	0.849675	0.340906	-0.542511
C503	C	1.099675	0.590906	-0.292511
C504	C	1.349675	0.840906	-0.042511
C505	C	0.570572	0.061787	-0.766429
C506	C	0.820572	0.311787	-0.516429
C507	C	1.070572	0.561787	-0.266429
C508	C	1.320572	0.811787	-0.016429
O509	O	0.624386	0.115646	-0.709879
O510	O	0.874386	0.365646	-0.459879
O511	O	1.124386	0.615646	-0.209879
O512	O	1.374386	0.865646	0.040121
O513	O	0.516732	0.007910	-0.709934
O514	O	0.766732	0.257910	-0.459934
O515	O	1.016732	0.507910	-0.209934
O516	O	1.266732	0.757910	0.040066
C517	C	0.541450	0.032651	-0.474035
C518	C	0.791450	0.282651	-0.224035
C519	C	1.041450	0.532651	0.025965
C520	C	1.291450	0.782651	0.275965
C521	C	0.570546	0.061756	-0.447903
C522	C	0.820546	0.311756	-0.197903
C523	C	1.070546	0.561756	0.052097
C524	C	1.320546	0.811756	0.302097
C525	C	0.599646	0.090868	-0.473987
C526	C	0.849646	0.340868	-0.223987
C527	C	1.099646	0.590868	0.026013
C528	C	1.349646	0.840868	0.276013
C529	C	0.570539	0.061755	-0.395684
C530	C	0.820539	0.311755	-0.145684
C531	C	1.070539	0.561755	0.104316
C532	C	1.320539	0.811755	0.354316
C533	C	0.541439	0.032643	-0.369600
C534	C	0.791439	0.282643	-0.119600
C535	C	1.041439	0.532643	0.130400
C536	C	1.291439	0.782643	0.380400
C537	C	0.512346	0.003534	-0.395734
C538	C	0.762346	0.253534	-0.145734
C539	C	1.012346	0.503534	0.104266
C540	C	1.262346	0.753534	0.354266
C541	C	0.512350	0.003540	-0.447951
C542	C	0.762350	0.253540	-0.197951
C543	C	1.012350	0.503540	0.052049
C544	C	1.262350	0.753540	0.302049
C545	C	0.628739	0.119977	-0.447853
C546	C	0.878739	0.369977	-0.197853
C547	C	1.128739	0.619977	0.052147
C548	C	1.378739	0.869977	0.302147
C549	C	0.628732	0.119969	-0.395637
C550	C	0.878732	0.369969	-0.145637
C551	C	1.128732	0.619969	0.104363
C552	C	1.378732	0.869969	0.354363
C553	C	0.599632	0.090858	-0.369552
C554	C	0.849632	0.340858	-0.119552
C555	C	1.099632	0.590858	0.130448
C556	C	1.349632	0.840858	0.380448
N557	N	0.570584	0.061805	0.129134
N558	N	0.820584	0.311805	0.379134
N559	N	1.070584	0.561805	0.629134
N560	N	1.320584	0.811805	0.879134
H561	H	-0.282718	0.058139	-0.082183
H562	H	-0.032718	0.308139	0.167817
H563	H	0.217282	0.558139	0.417817
H564	H	0.467282	0.808139	0.667817
F565	F	0.630649	0.121882	-0.764698
F566	F	0.880649	0.371882	-0.514698
F567	F	1.130649	0.621882	-0.264698
F568	F	1.380649	0.871882	-0.014698
H569	H	0.652465	0.143688	-0.625748
H570	H	0.902465	0.393688	-0.375748
H571	H	1.152465	0.643688	-0.125748
H572	H	1.402465	0.893688	0.124252
H573	H	0.517781	0.008973	-0.771331
H574	H	0.767781	0.258973	-0.521331
H575	H	1.017781	0.508973	-0.271331
H576	H	1.267781	0.758973	-0.021331
F577	F	0.326040	0.064420	0.093270
F578	F	0.576040	0.314420	0.343270
F579	F	0.826040	0.564420	0.593270
F580	F	1.076040	0.814420	0.843270
F581	F	-0.184952	0.059180	0.093231
F582	F	0.065048	0.309180	0.343231
F583	F	0.315048	0.559180	0.593231
F584	F	0.565048	0.809180	0.843231
F585	F	-0.289008	0.058127	0.093218
F586	F	-0.039008	0.308127	0.343218
F587	F	0.210992	0.558127	0.593218
F588	F	0.460992	0.808127	0.843218
F589	F	0.481393	-0.027426	-0.632405
F590	F	0.731393	0.222574	-0.382405
F591	F	0.981393	0.472574	-0.132405
F592	F	1.231393	0.722574	0.117595
F593	F	0.046951	0.061565	0.138470
F594	F	0.296951	0.311565	0.388470
F595	F	0.546951	0.561565	0.638470
F596	F	0.796951	0.811565	0.888470
F597	F	0.094137	0.062048	0.138474
F598	F	0.344137	0.312048	0.388474
F599	F	0.594137	0.562048	0.638474
F600	F	0.844137	0.812048	0.888474
H601	H	0.445259	-0.542414	-0.000064
H602	H	0.695259	-0.292414	0.249936
H603	H	0.945259	-0.042414	0.499936
H604	H	1.195259	0.207586	0.749936
H605	H	0.693365	-0.576721	-0.000122
H606	H	0.943365	-0.326721	0.249878
H607	H	1.193365	-0.076721	0.499878
H608	H	1.443365	0.173279	0.749878
F609	F	0.510511	0.001713	-0.872590
F610	F	0.760511	0.251713	-0.622590
F611	F	1.010511	0.501713	-0.372590
F612	F	1.260511	0.751713	-0.122590
H613	H	0.423807	0.065416	0.081964
H614	H	0.673807	0.315416	0.331964
H615	H	0.923807	0.565416	0.581964
H616	H	1.173807	0.815416	0.831964
H617	H	0.488661	-0.020157	-0.531151
H618	H	0.738661	0.229843	-0.281151
H619	H	0.988661	0.479843	-0.031151
H620	H	1.238661	0.729843	0.218849
F621	F	0.430090	0.065438	-0.093438
F622	F	0.680090	0.315438	0.156562
F623	F	0.930090	0.565438	0.406562
F624	F	1.180090	0.815438	0.656562
F625	F	0.630648	0.121897	-0.872497
F626	F	0.880648	0.371897	-0.622497
F627	F	1.130648	0.621897	-0.372497
F628	F	1.380648	0.871897	-0.122497
F629	F	0.436764	-0.291891	-0.000059
F630	F	0.686764	-0.041891	0.249941
F631	F	0.936764	0.208109	0.499941
F632	F	1.186764	0.458109	0.749941
H633	H	0.191876	0.062972	-0.127366
H634	H	0.441876	0.312972	0.122634
H635	H	0.691876	0.562972	0.372634
H636	H	0.941876	0.812972	0.622634
H637	H	0.652427	0.143677	-0.374364
H638	H	0.902427	0.393677	-0.124364
H639	H	1.152427	0.643677	0.125636
H640	H	1.402427	0.893677	0.375636
F641	F	0.326038	0.064364	-0.093448
F642	F	0.576038	0.314364	0.156552
F643	F	0.826038	0.564364	0.406552
F644	F	1.076038	0.814364	0.656552
H645	H	0.694908	-0.425472	-0.000132
H646	H	0.944908	-0.175472	0.249868
H647	H	1.194908	0.074528	0.499868
H648	H	1.444908	0.324528	0.749868
F649	F	0.435231	-0.443141	-0.000064
F650	F	0.685231	-0.193141	0.249936
F651	F	0.935231	0.056859	0.499936
F652	F	1.185231	0.306859	0.749936
F653	F	0.482140	-0.170155	-0.000106
F654	F	0.732140	0.079845	0.249894
F655	F	0.982140	0.329845	0.499894
F656	F	1.232140	0.579845	0.749894
H657	H	0.517719	0.008937	-0.228988
H658	H	0.767719	0.258937	0.021012
H659	H	1.017719	0.508937	0.271012
H660	H	1.267719	0.758937	0.521012
H661	H	0.494160	-0.073909	-0.000111
H662	H	0.744160	0.176091	0.249889
H663	H	0.994160	0.426091	0.499889
H664	H	1.244160	0.676091	0.749889
F665	F	0.510439	0.001651	-0.127725
F666	F	0.760439	0.251651	0.122275
F667	F	1.010439	0.501651	0.372275
F668	F	1.260439	0.751651	0.622275
H669	H	0.486977	-0.780421	-0.000081
H670	H	0.736977	-0.530421	0.249919
H671	H	0.986977	-0.280421	0.499919
H672	H	1.236977	-0.030421	0.749919
F673	F	0.705387	-0.480483	-0.000130
F674	F	0.955387	-0.230483	0.249870
F675	F	1.205387	0.019517	0.499870
F676	F	1.455387	0.269517	0.749870
F677	F	0.435702	-0.395945	-0.000057
F678	F	0.685702	-0.145945	0.249943
F679	F	0.935702	0.104055	0.499943
F680	F	1.185702	0.354055	0.749943
F681	F	0.658950	-0.706298	-0.000122
F682	F	0.908950	-0.456298	0.249878
F683	F	1.158950	-0.206298	0.499878
F684	F	1.408950	0.043702	0.749878
F685	F	0.664144	-0.195301	-0.000138
F686	F	0.914144	0.054699	0.249862
F687	F	1.164144	0.304699	0.499862
F688	F	1.414144	0.554699	0.749862
H689	H	0.040633	0.061414	-0.127384
H690	H	0.290633	0.311414	0.122616
H691	H	0.540633	0.561414	0.372616
H692	H	0.790633	0.811414	0.622616
H693	H	-0.050817	0.060479	-0.127387
H694	H	0.199183	0.310479	0.122613
H695	H	0.449183	0.560479	0.372613
H696	H	0.699183	0.810479	0.622613
H697	H	0.623294	0.114564	-0.134173
H698	H	0.873294	0.364564	0.115827
H699	H	1.123294	0.614564	0.365827
H700	H	1.373294	0.864564	0.615827
F701	F	0.481379	-0.027441	-0.475756
F702	F	0.731379	0.222559	-0.225756
F703	F	0.981379	0.472559	0.024244
F704	F	1.231379	0.722559	0.274244
H705	H	0.488650	-0.020167	-0.374487
H706	H	0.738650	0.229833	-0.124487
H707	H	0.988650	0.479833	0.125513
H708	H	1.238650	0.729833	0.375513
H709	H	0.623314	0.114564	-0.228896
H710	H	0.873314	0.364564	0.021104
H711	H	1.123314	0.614564	0.271104
H712	H	1.373314	0.864564	0.521104
F713	F	0.659712	0.150963	-0.475607
F714	F	0.909712	0.400963	-0.225607
F715	F	1.159712	0.650963	0.024393
F716	F	1.409712	0.900963	0.274393
F717	F	0.659721	0.150974	-0.524491
F718	F	0.909721	0.400974	-0.274491
F719	F	1.159721	0.650974	-0.024491
F720	F	1.409721	0.900974	0.225509
F721	F	0.706924	-0.329247	-0.000136
F722	F	0.956924	-0.079247	0.249864
F723	F	1.206924	0.170753	0.499864
F724	F	1.456924	0.420753	0.749864
F725	F	-0.057098	0.060502	0.138462
F726	F	0.192902	0.310502	0.388462
F727	F	0.442902	0.560502	0.638462
F728	F	0.692902	0.810502	0.888462
H729	H	0.191898	0.063044	0.127167
H730	H	0.441898	0.313044	0.377167
H731	H	0.691898	0.563044	0.627167
H732	H	0.941898	0.813044	0.877167
F733	F	-0.184949	0.059137	-0.093487
F734	F	0.065051	0.309137	0.156513
F735	F	0.315051	0.559137	0.406513
F736	F	0.565051	0.809137	0.656513
H737	H	0.100429	0.062032	-0.127372
H738	H	0.350429	0.312032	0.122628
H739	H	0.600429	0.562032	0.372628
H740	H	0.850429	0.812032	0.622628
H741	H	0.654110	-0.096024	-0.000151
H742	H	0.904110	0.153976	0.249849
H743	H	1.154110	0.403976	0.499849
H744	H	1.404110	0.653976	0.749849
F745	F	0.476946	-0.681145	-0.000069
F746	F	0.726946	-0.431145	0.249931
F747	F	0.976946	-0.181145	0.499931
F748	F	1.226946	0.068855	0.749931
F749	F	0.657886	-0.810369	-0.000112
F750	F	0.907886	-0.560369	0.249888
F751	F	1.157886	-0.310369	0.499888
F752	F	1.407886	-0.060369	0.749888
