data_functionalizedCrystal
_audit_creation_method	'MofGen! by Chris Wilmer'
_symmetry_space_group_name_H-M	'P1'
_symmetry_Int_Tables_number	1
_symmetry_cell_setting	triclinic
loop_
_symmetry_equiv_pos_as_xyz
  x,y,z
_cell_length_a	27.731994
_cell_length_b	14.044220
_cell_length_c	13.101039
_cell_angle_alpha	93.667477
_cell_angle_beta	86.677219
_cell_angle_gamma	87.904706
loop_
_atom_site_label
_atom_site_type_symbol
_atom_site_fract_x
_atom_site_fract_y
_atom_site_fract_z
O1	O	0.648650	0.107208	-0.085070
O2	O	0.508661	0.124398	-0.085104
O3	O	0.576554	-0.022150	-0.085077
O4	O	0.580757	0.253755	-0.085096
O5	O	0.571684	-0.011618	0.085351
O6	O	0.503790	0.134929	0.085324
O7	O	0.643780	0.117740	0.085358
Zn8	Zn	0.573012	0.128007	0.112400
Zn9	Zn	0.579429	0.114131	-0.112146
O10	O	0.575887	0.264287	0.085331
C11	C	0.572279	-0.052170	0.000137
C12	C	0.566792	-0.157314	0.000137
C13	C	0.488202	0.129310	0.000106
C14	C	0.434496	0.128247	0.000093
C15	C	0.556761	-0.349825	0.000119
C16	C	0.595678	-0.408043	0.000126
C17	C	0.590096	-0.515163	0.000116
C18	C	0.562342	-0.242695	0.000129
C19	C	0.098807	0.127297	0.093033
C20	C	-0.103041	0.123257	0.093045
O21	O	-0.131398	0.127577	0.172053
N22	N	-0.125624	0.117015	0.000145
C23	C	-0.097742	0.111775	-0.092765
O24	O	-0.121582	0.106363	-0.171782
C25	C	0.104105	0.115808	-0.092776
C26	C	0.126685	0.122060	0.000131
C27	C	0.121388	0.133548	0.185932
C28	C	0.171847	0.134563	0.185928
C29	C	0.199725	0.129326	0.093025
C30	C	0.177144	0.123075	0.000127
C31	C	0.131986	0.110562	-0.185684
C32	C	0.182451	0.111568	-0.185679
C33	C	0.205031	0.117821	-0.092773
C34	C	0.255481	0.118854	-0.092780
N35	N	0.278065	0.125097	0.000120
C36	C	0.250187	0.130333	0.093023
C37	C	-0.203715	0.109660	-0.092753
C38	C	-0.254177	0.108654	-0.092750
C39	C	-0.259472	0.120134	0.093060
C40	C	-0.209009	0.121148	0.093057
C41	C	-0.181132	0.115903	0.000148
C42	C	0.356154	0.132465	0.093008
C43	C	0.406618	0.133483	0.092995
C44	C	0.411908	0.121998	-0.092814
C45	C	0.361449	0.120984	-0.092803
C46	C	0.333573	0.126215	0.000117
O47	O	0.283869	0.114527	-0.171746
O48	O	0.274036	0.135723	0.172028
C49	C	0.048348	0.126282	0.093037
C50	C	0.025768	0.120031	0.000138
C51	C	0.053646	0.114794	-0.092764
C52	C	-0.024694	0.119024	0.000141
C53	C	-0.052572	0.124260	0.093043
C54	C	-0.029989	0.130503	0.185944
C55	C	0.020470	0.131518	0.185940
C56	C	0.031062	0.108552	-0.185664
C57	C	-0.019397	0.107538	-0.185653
C58	C	-0.047275	0.112775	-0.092750
C59	C	0.664239	0.112827	0.000146
C60	C	0.717945	0.113890	0.000152
C61	C	0.580161	0.294308	0.000115
C62	C	0.585649	0.399451	0.000109
N63	N	0.568636	0.137476	0.265647
N64	N	0.583808	0.104654	-0.265393
C65	C	0.562682	0.150369	0.474687
C66	C	0.589760	0.091765	0.525574
C67	C	0.586448	0.098938	0.641891
C68	C	0.565994	0.143196	0.358360
H69	H	0.633190	-0.377439	0.000066
H70	H	0.615431	0.036205	0.481781
Cl71	Cl	-0.168676	0.103070	-0.209565
Cl72	Cl	0.523054	0.236148	0.542293
H73	H	0.519254	-0.380432	0.000108
H74	H	0.425000	0.138578	0.168654
H75	H	0.333463	0.136733	0.168671
H76	H	0.113610	0.105469	-0.261339
Cl77	Cl	-0.294528	0.126714	0.209851
H78	H	0.190227	0.139648	0.261582
H79	H	0.038850	0.136609	0.261594
Cl80	Cl	0.086350	0.140137	0.302740
H81	H	-0.272558	0.103578	-0.168404
Cl82	Cl	-0.180628	0.129005	0.209857
Cl83	Cl	0.217494	0.104972	-0.302487
Cl84	Cl	0.333061	0.113139	-0.209600
H85	H	0.434616	0.117738	-0.168453
H86	H	-0.052696	0.134771	0.261588
H87	H	-0.037777	0.102454	-0.261314
H88	H	0.053756	0.104285	-0.261319
