data_functionalizedCrystal
_audit_creation_method	'MofGen! by Chris Wilmer'
_symmetry_space_group_name_H-M	'P1'
_symmetry_Int_Tables_number	1
_symmetry_cell_setting	triclinic
loop_
_symmetry_equiv_pos_as_xyz
  x,y,z
_cell_length_a	16.992694
_cell_length_b	10.489716
_cell_length_c	15.455313
_cell_angle_alpha	92.696181
_cell_angle_beta	87.142206
_cell_angle_gamma	87.598679
loop_
_atom_site_label
_atom_site_type_symbol
_atom_site_fract_x
_atom_site_fract_y
_atom_site_fract_z
O1	O	1.045307	0.265391	-0.072009
O2	O	0.817006	0.262420	-0.072035
O3	O	0.936361	0.078758	-0.072025
O4	O	0.925951	0.449053	-0.072020
O5	O	0.929536	0.089215	0.072237
O6	O	0.810180	0.272877	0.072227
O7	O	1.038481	0.275847	0.072252
Cu8	Cu	0.923707	0.275317	0.085412
Cu9	Cu	0.931779	0.262951	-0.085194
O10	O	0.919126	0.459509	0.072242
C11	C	0.784359	0.263829	0.000092
C12	C	0.697252	0.252433	0.000082
C13	C	0.647626	0.362383	0.000084
C14	C	0.565779	0.351669	0.000096
C15	C	0.533560	0.231003	0.000100
C16	C	0.583192	0.121045	0.000100
C17	C	0.665037	0.131761	0.000095
C18	C	0.289712	0.186592	0.000122
C19	C	0.207861	0.175884	0.000125
C20	C	0.190454	0.406509	0.000123
C21	C	0.272302	0.417214	0.000112
C22	C	0.321926	0.307256	0.000117
N23	N	0.449899	0.220049	0.000109
N24	N	0.405585	0.318212	0.000114
C25	C	0.932166	0.036386	0.000103
C26	C	0.929827	-0.105449	0.000095
C27	C	1.003019	-0.196754	0.000111
C28	C	0.967707	-0.282635	-0.071019
C29	C	0.960961	-0.272292	0.071211
C30	C	0.894549	-0.189466	-0.071094
C31	C	0.887810	-0.179112	0.071200
C32	C	0.852446	-0.264950	0.000052
C33	C	1.071128	0.274438	0.000123
C34	C	1.158235	0.285834	0.000127
C35	C	0.923320	0.501881	0.000112
C36	C	0.925660	0.643716	0.000114
N37	N	0.918036	0.284014	0.205407
N38	N	0.937457	0.254244	-0.205189
C39	C	0.968760	0.206020	0.250805
C40	C	0.964478	0.212610	0.341613
C41	C	0.909475	0.297201	0.387020
C42	C	0.858745	0.375198	0.341615
C43	C	0.863024	0.368601	0.250809
C44	C	0.891006	0.325643	0.658600
C45	C	0.886733	0.332238	0.749412
C46	C	0.992465	0.169647	0.749403
C47	C	0.996742	0.163063	0.658596
C48	C	0.946010	0.241055	0.613199
N49	N	0.905099	0.303942	0.479840
N50	N	0.950383	0.234307	0.520381
H51	H	0.525377	0.441202	0.000097
F52	F	0.306586	0.545642	0.000104
F53	F	1.086236	-0.157263	0.000029
H54	H	1.001450	-0.327801	-0.131149
F55	F	0.548899	-0.007377	0.000109
H56	H	0.866516	-0.153213	-0.131296
H57	H	1.013553	0.137143	0.213841
H58	H	0.788735	-0.294926	0.000007
H59	H	1.041530	0.094183	0.621627
F60	F	0.137635	0.523526	0.000120
H61	H	0.854095	-0.133921	0.131332
F62	F	0.173572	0.047450	0.000144
F63	F	0.342516	0.069563	0.000127
F64	F	1.046453	0.086645	0.797724
H65	H	0.989029	-0.308716	0.131345
H66	H	0.705442	0.042227	0.000092
F67	F	0.809033	0.451609	0.202494
H68	H	1.005781	0.149101	0.378576
F69	F	0.828188	0.422279	0.797732
H70	H	0.849699	0.389150	0.621645
H71	H	0.813957	0.444069	0.378591
H72	H	0.673852	0.460642	0.000081
