data_functionalizedCrystal
_audit_creation_method	'MofGen! by Chris Wilmer'
_symmetry_space_group_name_H-M	'P1'
_symmetry_Int_Tables_number	1
_symmetry_cell_setting	triclinic
loop_
_symmetry_equiv_pos_as_xyz
  x,y,z
_cell_length_a	12.759401
_cell_length_b	12.759399
_cell_length_c	12.759393
_cell_angle_alpha	89.968715
_cell_angle_beta	89.981433
_cell_angle_gamma	90.014595
loop_
_atom_site_label
_atom_site_type_symbol
_atom_site_fract_x
_atom_site_fract_y
_atom_site_fract_z
Zn1	Zn	1.606249	-0.418231	-0.593985
Zn2	Zn	1.606141	-0.593950	-0.418306
Zn3	Zn	1.430551	-0.418283	-0.418325
Zn4	Zn	1.430537	-0.593866	-0.593948
O5	O	1.518370	-0.506082	-0.506141
O6	O	1.753256	-0.441554	-0.570689
O7	O	1.582809	-0.570704	-0.271288
O8	O	1.453909	-0.271255	-0.441650
O9	O	1.753176	-0.570654	-0.441619
O10	O	1.582994	-0.271217	-0.570707
O11	O	1.453804	-0.441642	-0.271301
O12	O	1.283528	-0.441560	-0.441613
O13	O	1.453885	-0.570511	-0.740974
O14	O	1.283518	-0.570561	-0.570643
O15	O	1.582980	-0.441473	-0.741001
O16	O	1.582796	-0.740960	-0.441582
O17	O	1.453780	-0.740898	-0.570625
C18	C	1.518303	-0.779050	-0.506120
C19	C	1.518371	-0.895826	-0.506147
C20	C	1.245402	-0.506058	-0.506126
C21	C	1.128626	-0.506072	-0.506145
C22	C	1.451244	-1.060419	-0.573317
C23	C	1.451179	-0.950695	-0.573292
C24	C	1.585640	-0.950687	-0.439030
C25	C	1.585709	-1.060409	-0.439061
C26	C	1.373611	-1.060423	-0.650829
C27	C	1.373546	-0.950699	-0.650804
C28	C	1.073798	-0.438977	-0.573456
C29	C	0.964074	-0.438997	-0.573463
C30	C	0.964015	-0.573217	-0.438844
C31	C	1.073737	-0.573191	-0.438833
C32	C	1.128687	-0.371858	-0.640768
C33	C	1.073859	-0.304758	-0.708086
C34	C	0.964135	-0.304778	-0.708092
C35	C	0.909239	-0.371899	-0.640781
C36	C	1.792403	-0.506108	-0.506156
C37	C	1.909179	-0.506119	-0.506163
C38	C	1.518443	-0.505976	-0.780174
C39	C	1.518475	-0.505931	-0.896951
C40	C	1.518465	-0.232049	-0.506185
C41	C	1.518506	-0.115272	-0.506203
C42	C	1.585703	-0.438735	-0.951829
C43	C	1.585728	-0.438697	-1.061553
C44	C	1.451293	-0.573061	-1.061512
C45	C	1.451263	-0.573093	-0.951789
C46	C	1.652915	-0.371573	-0.896991
C47	C	1.720150	-0.304372	-0.951869
C48	C	1.720175	-0.304334	-1.061593
C49	C	1.652965	-0.371497	-1.116439
C50	C	1.518357	-0.506112	-0.233174
C51	C	1.518529	-0.505861	-0.116397
H52	H	1.640489	-1.105067	-0.384420
H53	H	1.402625	-0.916579	-0.728118
F54	F	0.905587	-0.644648	-0.367214
F55	F	1.272635	-1.105033	-0.612656
H56	H	1.774864	-0.249684	-0.907207
F57	F	1.132092	-0.644609	-0.367201
F58	F	1.379771	-0.644538	-1.119886
F59	F	1.267185	-0.911888	-0.622208
H60	H	1.218030	-0.371834	-0.640770
F61	F	1.132285	-0.233321	-0.779711
H62	H	0.919497	-0.250135	-0.762898
F63	F	0.792459	-0.371907	-0.640782
F64	F	1.652897	-0.371611	-0.780214
H65	H	1.652978	-0.371449	-1.205784
H66	H	1.774913	-0.249608	-1.106272
H67	H	1.396503	-0.627794	-0.907107
H68	H	1.395359	-1.090112	-0.732231
F69	F	1.657159	-0.892289	-0.367578
