data_functionalizedCrystal
_audit_creation_method	'MofGen! by Chris Wilmer'
_symmetry_space_group_name_H-M	'P1'
_symmetry_Int_Tables_number	1
_symmetry_cell_setting	triclinic
loop_
_symmetry_equiv_pos_as_xyz
  x,y,z
_cell_length_a	18.215407
_cell_length_b	16.959454
_cell_length_c	18.215398
_cell_angle_alpha	90.021170
_cell_angle_beta	90.019464
_cell_angle_gamma	90.020523
loop_
_atom_site_label
_atom_site_type_symbol
_atom_site_fract_x
_atom_site_fract_y
_atom_site_fract_z
Zn1	Zn	1.125094	-0.314700	0.416138
Zn2	Zn	1.625094	0.185300	0.916138
Zn3	Zn	1.125013	-0.446879	0.293080
Zn4	Zn	1.625013	0.053121	0.793080
Zn5	Zn	1.002027	-0.314720	0.293085
Zn6	Zn	1.502027	0.185280	0.793085
Zn7	Zn	1.002003	-0.446841	0.416105
Zn8	Zn	1.502003	0.053159	0.916105
O9	O	1.063534	-0.380785	0.354602
O10	O	1.563534	0.119215	0.854602
O11	O	1.228067	-0.332241	0.399825
O12	O	1.728067	0.167759	0.899825
O13	O	1.108676	-0.429373	0.190097
O14	O	1.608676	0.070627	0.690097
O15	O	1.018396	-0.204106	0.309424
O16	O	1.518396	0.295894	0.809424
O17	O	1.228008	-0.429353	0.309416
O18	O	1.728008	0.070647	0.809416
O19	O	1.108813	-0.204092	0.399830
O20	O	1.608813	0.295908	0.899830
O21	O	1.018318	-0.332276	0.190100
O22	O	1.518318	0.167724	0.690100
O23	O	0.899040	-0.332239	0.309392
O24	O	1.399040	0.167761	0.809392
O25	O	1.018354	-0.429288	0.519094
O26	O	1.518354	0.070712	1.019094
O27	O	0.899022	-0.429308	0.399775
O28	O	1.399022	0.070692	0.899775
O29	O	1.108789	-0.332204	0.519118
O30	O	1.608789	0.167796	1.019118
O31	O	1.108652	-0.557485	0.309385
O32	O	1.608652	-0.057485	0.809385
O33	O	1.018276	-0.557457	0.399770
O34	O	1.518276	-0.057457	0.899770
C35	C	0.872328	-0.380772	0.354581
C36	C	1.372328	0.119228	0.854581
C37	C	0.790529	-0.380785	0.354589
C38	C	1.290529	0.119215	0.854589
C39	C	0.602345	-0.431408	0.401593
C40	C	1.102345	0.068592	0.901593
C41	C	0.525486	-0.431411	0.401602
C42	C	1.025486	0.068589	0.901602
C43	C	0.525476	-0.330176	0.307628
C44	C	1.025476	0.169824	0.807628
C45	C	0.602333	-0.330171	0.307623
C46	C	1.102333	0.169829	0.807623
C47	C	0.640766	-0.380791	0.354604
C48	C	1.140766	0.119209	0.854604
C49	C	0.487050	-0.380799	0.354618
C50	C	0.987050	0.119201	0.854618
C51	C	0.403716	-0.380802	0.354628
C52	C	0.903716	0.119198	0.854628
C53	C	0.724105	-0.380788	0.354596
C54	C	1.224105	0.119212	0.854596
C55	C	1.063473	-0.586151	0.354590
C56	C	1.563473	-0.086151	0.854590
C57	C	1.063514	-0.674008	0.354609
C58	C	1.563514	-0.174008	0.854609
C59	C	1.016544	-1.045499	0.401661
C60	C	1.516544	-0.545499	0.901661
C61	C	1.110729	-1.045468	0.307618
C62	C	1.610729	-0.545468	0.807618
C63	C	1.110704	-0.962922	0.307611
C64	C	1.610704	-0.462922	0.807611
C65	C	1.063597	-0.921661	0.354629
C66	C	1.563597	-0.421661	0.854629
C67	C	1.016515	-0.962945	0.401654
C68	C	1.516515	-0.462945	0.901654
C69	C	1.157779	-0.921632	0.260582
C70	C	1.657779	-0.421632	0.760582
C71	C	1.157755	-0.839081	0.260573
C72	C	1.657755	-0.339081	0.760573
C73	C	1.110651	-0.797818	0.307595
C74	C	1.610651	-0.297818	0.807595
C75	C	1.063568	-0.839107	0.354622
C76	C	1.563568	-0.339107	0.854622
C77	C	1.016461	-0.797846	0.401640
C78	C	1.516461	-0.297846	0.901640
C79	C	0.969381	-0.839134	0.448672
C80	C	1.469381	-0.339134	0.948672
C81	C	0.969411	-0.921683	0.448676
C82	C	1.469411	-0.421683	0.948676
C83	C	1.110621	-0.715269	0.307591
C84	C	1.610621	-0.215269	0.807591
C85	C	1.016432	-0.715292	0.401634
C86	C	1.516432	-0.215292	0.901634
C87	C	1.255487	-0.380799	0.354624
C88	C	1.755487	0.119201	0.854624
C89	C	1.337286	-0.380805	0.354633
C90	C	1.837286	0.119195	0.854633
C91	C	1.063578	-0.380740	0.546555
C92	C	1.563578	0.119260	1.046555
C93	C	1.063596	-0.380720	0.628354
C94	C	1.563596	0.119280	1.128354
C95	C	1.063616	-0.174617	0.354631
C96	C	1.563616	0.325383	0.854631
C97	C	1.063651	-0.086760	0.354643
C98	C	1.563651	0.413240	0.854643
C99	C	1.063533	-0.380773	0.163396
C100	C	1.563533	0.119227	0.663396
C101	C	1.063657	-0.380570	0.081597
C102	C	1.563657	0.119430	0.581597
C103	C	1.110679	-0.431181	0.893414
C104	C	1.610679	0.068819	1.393414
C105	C	1.110668	-0.431209	0.816556
C106	C	1.610668	0.068791	1.316556
C107	C	1.016569	-0.330107	0.816542
C108	C	1.516569	0.169893	1.316542
C109	C	1.016577	-0.330084	0.893400
C110	C	1.516577	0.169916	1.393400
C111	C	1.063636	-0.380620	0.931834
C112	C	1.563636	0.119380	1.431834
C113	C	1.063617	-0.380670	0.778118
C114	C	1.563617	0.119330	1.278118
C115	C	1.063605	-0.380700	0.694784
C116	C	1.563605	0.119300	1.194784
C117	C	1.063648	-0.380592	1.015173
C118	C	1.563648	0.119408	1.515173
H119	H	0.633616	-0.288947	0.269359
H120	H	1.133616	0.211053	0.769359
C121	C	0.644618	-0.487086	0.453279
C122	C	1.144618	0.012914	0.953279
N123	N	0.676457	-0.529022	0.492213
N124	N	1.176457	-0.029022	0.992213
H125	H	0.978266	-0.288910	0.924682
H126	H	1.478266	0.211090	1.424682
C127	C	0.483227	-0.487101	0.453286
C128	C	0.983227	0.012899	0.953286
N129	N	0.451398	-0.529052	0.492215
N130	N	0.951398	-0.029052	0.992215
C131	C	0.483192	-0.274501	0.255947
C132	C	0.983192	0.225499	0.755947
N133	N	0.451345	-0.232567	0.217018
N134	N	0.951345	0.267433	0.717018
H135	H	0.978074	-0.681702	0.439924
H136	H	1.478074	-0.181702	0.939924
C137	C	0.917565	-0.793736	0.500390
C138	C	1.417565	-0.293736	1.000390
N139	N	0.878538	-0.759539	0.539343
N140	N	1.378538	-0.259539	1.039343
C141	C	0.917620	-0.967105	0.500398
C142	C	1.417620	-0.467105	1.000398
N143	N	0.878608	-1.001321	0.539350
N144	N	1.378608	-0.501321	1.039350
C145	C	0.964756	-1.090916	0.453390
C146	C	1.464756	-0.590916	0.953390
N147	N	0.925747	-1.125125	0.492351
N148	N	1.425747	-0.625125	0.992351
H149	H	1.149078	-1.079068	0.269334
H150	H	1.649078	-0.579068	0.769334
C151	C	1.162439	-0.486779	0.935689
C152	C	1.662439	0.013221	1.435689
N153	N	1.201424	-0.528659	0.967528
N154	N	1.701424	-0.028659	1.467528
C155	C	1.162434	-0.486813	0.774298
C156	C	1.662434	0.013187	1.274298
N157	N	1.201432	-0.528692	0.742470
N158	N	1.701432	-0.028692	1.242470
H159	H	0.978256	-0.288961	0.785240
H160	H	1.478256	0.211039	1.285240
H161	H	1.196126	-0.955233	0.222297
H162	H	1.696126	-0.455233	0.722297
H163	H	1.196090	-0.805469	0.222279
H164	H	1.696090	-0.305469	0.722279
C165	C	1.162406	-0.669856	0.255861
C166	C	1.662406	-0.169856	0.755861
N167	N	1.201415	-0.635652	0.216896
N168	N	1.701415	-0.135652	0.716896
