data_functionalizedCrystal
_audit_creation_method	'MofGen! by Chris Wilmer'
_symmetry_space_group_name_H-M	'P1'
_symmetry_Int_Tables_number	1
_symmetry_cell_setting	triclinic
loop_
_symmetry_equiv_pos_as_xyz
  x,y,z
_cell_length_a	17.077404
_cell_length_b	12.759400
_cell_length_c	17.077396
_cell_angle_alpha	89.975532
_cell_angle_beta	89.981638
_cell_angle_gamma	90.011136
loop_
_atom_site_label
_atom_site_type_symbol
_atom_site_fract_x
_atom_site_fract_y
_atom_site_fract_z
Zn1	Zn	1.200108	-0.418323	-0.443841
Zn2	Zn	1.700108	0.081677	0.056159
Zn3	Zn	1.200037	-0.594024	-0.312584
Zn4	Zn	1.700037	-0.094024	0.187416
Zn5	Zn	1.068839	-0.418353	-0.312591
Zn6	Zn	1.568839	0.081647	0.187409
Zn7	Zn	1.068830	-0.593954	-0.443810
Zn8	Zn	1.568830	-0.093954	0.056190
O9	O	1.134453	-0.506164	-0.378207
O10	O	1.634453	-0.006164	0.121793
O11	O	1.309945	-0.441647	-0.426439
O12	O	1.809945	0.058353	0.073561
O13	O	1.182608	-0.570762	-0.202738
O14	O	1.682608	-0.070762	0.297262
O15	O	1.086286	-0.271328	-0.330018
O16	O	1.586286	0.228672	0.169982
O17	O	1.309893	-0.570733	-0.330005
O18	O	1.809893	-0.070733	0.169995
O19	O	1.182728	-0.271306	-0.426446
O20	O	1.682728	0.228694	0.073554
O21	O	1.086218	-0.441698	-0.202743
O22	O	1.586218	0.058302	0.297257
O23	O	0.958991	-0.441631	-0.329988
O24	O	1.458991	0.058369	0.170012
O25	O	1.086269	-0.570615	-0.553661
O26	O	1.586269	-0.070615	-0.053661
O27	O	0.958984	-0.570644	-0.426394
O28	O	1.458984	-0.070644	0.073606
O29	O	1.182719	-0.441580	-0.553684
O30	O	1.682719	0.058420	-0.053684
O31	O	1.182598	-0.741036	-0.329975
O32	O	1.682598	-0.241036	0.170025
O33	O	1.086201	-0.740985	-0.426387
O34	O	1.586201	-0.240985	0.073613
C35	C	0.930506	-0.506134	-0.378189
C36	C	1.430506	-0.006134	0.121811
C37	C	0.843256	-0.506146	-0.378200
C38	C	1.343256	-0.006146	0.121800
C39	C	0.802293	-0.439051	-0.428490
C40	C	1.302293	0.060949	0.071510
C41	C	0.720313	-0.439057	-0.428493
C42	C	1.220313	0.060943	0.071507
C43	C	0.679296	-0.506166	-0.378211
C44	C	1.179296	-0.006166	0.121789
C45	C	0.720264	-0.573265	-0.327915
C46	C	1.220264	-0.073265	0.172085
C47	C	0.802243	-0.573252	-0.327908
C48	C	1.302243	-0.073252	0.172092
C49	C	0.549394	-0.573289	-0.327935
C50	C	1.049394	-0.073289	0.172065
C51	C	0.467410	-0.573303	-0.327943
C52	C	0.967410	-0.073303	0.172057
C53	C	0.467464	-0.439094	-0.428520
C54	C	0.967464	0.060906	0.071480
C55	C	0.549443	-0.439081	-0.428513
C56	C	1.049443	0.060919	0.071487
C57	C	0.590405	-0.506182	-0.378218
C58	C	1.090405	-0.006182	0.121782
C59	C	1.134412	-0.779131	-0.378194
C60	C	1.634412	-0.279131	0.121806
C61	C	1.134466	-0.895908	-0.378215
C62	C	1.634466	-0.395908	0.121785
C63	C	1.184659	-0.950678	-0.428466
C64	C	1.684659	-0.450678	0.071534
C65	C	1.184695	-1.060402	-0.428486
C66	C	1.684695	-0.560402	0.071514
C67	C	1.084345	-1.060575	-0.327995
C68	C	1.584345	-0.560575	0.172005
C69	C	1.084305	-0.950853	-0.327981
C70	C	1.584305	-0.450853	0.172019
C71	C	1.242598	-0.950580	-0.486482
C72	C	1.742598	-0.450580	0.013518
C73	C	1.242634	-1.060304	-0.486501
C74	C	1.742634	-0.560304	0.013499
C75	C	1.339198	-0.506194	-0.378225
C76	C	1.839198	-0.006194	0.121775
C77	C	1.426447	-0.506207	-0.378232
C78	C	1.926447	-0.006207	0.121768
C79	C	1.134501	-0.506086	-0.582951
C80	C	1.634501	-0.006086	-0.082951
C81	C	1.134521	-0.506053	-0.670201
C82	C	1.634521	-0.006053	-0.170201
C83	C	1.134516	-0.232130	-0.378236
C84	C	1.634516	0.267870	0.121764
C85	C	1.134543	-0.115354	-0.378249
C86	C	1.634543	0.384646	0.121751
C87	C	1.184744	-0.438859	-0.711204
C88	C	1.684744	0.061141	-0.211204
C89	C	1.184754	-0.438824	-0.793184
C90	C	1.684754	0.061176	-0.293184
C91	C	1.134543	-0.505989	-0.834160
C92	C	1.634543	-0.005989	-0.334160
C93	C	1.084315	-0.573187	-0.793151
C94	C	1.584315	-0.073187	-0.293151
C95	C	1.084302	-0.573216	-0.711172
C96	C	1.584302	-0.073216	-0.211172
C97	C	1.084347	-0.573124	-0.964022
C98	C	1.584347	-0.073124	-0.464022
C99	C	1.084360	-0.573096	-1.046006
C100	C	1.584360	-0.073096	-0.546006
C101	C	1.184798	-0.438732	-1.046034
C102	C	1.684798	0.061268	-0.546034
C103	C	1.184785	-0.438761	-0.964055
C104	C	1.684785	0.061239	-0.464055
C105	C	1.134557	-0.505960	-0.923051
C106	C	1.634557	-0.005960	-0.423051
C107	C	1.134451	-0.506165	-0.174259
C108	C	1.634451	-0.006165	0.325741
C109	C	1.134583	-0.505902	-0.087009
C110	C	1.634583	-0.005902	0.412991
H111	H	0.835594	-0.627888	-0.286957
H112	H	1.335594	-0.127888	0.213043
C113	C	1.029122	-0.646975	-1.091078
C114	C	1.529122	-0.146975	-0.591078
N115	N	0.987514	-0.702621	-1.125026
N116	N	1.487514	-0.202621	-0.625026
C117	C	1.029096	-0.647050	-0.918920
C118	C	1.529096	-0.147050	-0.418920
N119	N	0.987486	-0.702736	-0.884949
N120	N	1.487486	-0.202736	-0.384949
C121	C	1.240004	-0.364906	-0.838284
C122	C	1.740004	0.135094	-0.338284
N123	N	1.281622	-0.309228	-0.872253
N124	N	1.781622	0.190772	-0.372253
H125	H	0.686965	-0.384423	-0.469446
H126	H	1.186965	0.115577	0.030554
H127	H	1.225694	-0.384014	-1.079422
H128	H	1.725694	0.115986	-0.579422
H129	H	1.220823	-1.094306	-0.544234
H130	H	1.720823	-0.594306	-0.044234
H131	H	1.226272	-0.920769	-0.547259
H132	H	1.726272	-0.420769	-0.047259
C133	C	1.029054	-0.647137	-0.666069
C134	C	1.529054	-0.147137	-0.166069
N135	N	0.987438	-0.702814	-0.632099
N136	N	1.487438	-0.202814	-0.132099
H137	H	0.835683	-0.384406	-0.469438
H138	H	1.335683	0.115594	0.030562
C139	C	1.029068	-0.890609	-0.272723
C140	C	1.529068	-0.390609	0.227277
N141	N	0.987455	-0.845233	-0.231105
N142	N	1.487455	-0.345233	0.268895
H143	H	0.582836	-0.384442	-0.469462
H144	H	1.082836	0.115558	0.030538
H145	H	0.434108	-0.384456	-0.469470
H146	H	0.934108	0.115544	0.030530
H147	H	1.300347	-0.916512	-0.464750
H148	H	1.800347	-0.416512	0.035250
C149	C	1.029203	-1.121025	-0.272708
C150	C	1.529203	-0.621025	0.227292
N151	N	0.987681	-1.166556	-0.231052
N152	N	1.487681	-0.666556	0.268948
H153	H	0.434016	-0.627950	-0.286999
H154	H	0.934016	-0.127950	0.213001
H155	H	0.582744	-0.627926	-0.286978
H156	H	1.082744	-0.127926	0.213022
H157	H	1.043430	-0.627870	-0.826520
H158	H	1.543430	-0.127870	-0.326520
C159	C	1.324790	-1.100482	-0.464574
C160	C	1.824790	-0.600482	0.035426
N161	N	1.386666	-1.130744	-0.448058
N162	N	1.886666	-0.630744	0.051942
H163	H	0.686862	-0.627901	-0.286970
H164	H	1.186862	-0.127901	0.213030
H165	H	1.225634	-0.384168	-0.677847
H166	H	1.725634	0.115832	-0.177847
H167	H	1.225675	-0.384075	-0.930694
H168	H	1.725675	0.115925	-0.430694
