data_functionalizedCrystal
_audit_creation_method	'MofGen! by Chris Wilmer'
_symmetry_space_group_name_H-M	'P1'
_symmetry_Int_Tables_number	1
_symmetry_cell_setting	triclinic
loop_
_symmetry_equiv_pos_as_xyz
  x,y,z
_cell_length_a	11.792241
_cell_length_b	11.792241
_cell_length_c	10.065875
_cell_angle_alpha	98.849501
_cell_angle_beta	81.196375
_cell_angle_gamma	84.193416
loop_
_atom_site_label
_atom_site_type_symbol
_atom_site_fract_x
_atom_site_fract_y
_atom_site_fract_z
O1	O	1.523393	0.139006	-0.113360
O2	O	1.193057	0.155034	-0.113392
O3	O	1.366240	-0.018149	-0.113365
O4	O	1.350210	0.312189	-0.113386
O5	O	1.333217	0.015008	0.113618
O6	O	1.160034	0.188191	0.113592
O7	O	1.490371	0.172163	0.113624
Zn8	Zn	1.319959	0.185441	0.149647
Zn9	Zn	1.363468	0.141756	-0.149414
O10	O	1.317187	0.345346	0.113598
C11	C	1.134255	0.170605	0.000096
C12	C	1.008243	0.167589	0.000084
C13	C	0.777525	0.162052	0.000124
C14	C	0.905914	0.165128	0.000102
C15	C	1.348722	-0.043862	0.000126
C16	C	1.345708	-0.169875	0.000124
C17	C	1.340168	-0.400591	0.000101
C18	C	1.343246	-0.272204	0.000114
C19	C	1.549173	0.156592	0.000133
C20	C	1.675186	0.159606	0.000136
C21	C	1.334706	0.371058	0.000103
C22	C	1.337722	0.497071	0.000096
N23	N	1.290274	0.215255	0.353748
N24	N	1.393163	0.111933	-0.353515
C25	C	1.353133	0.152122	0.421536
C26	C	1.330295	0.175076	0.578700
H27	H	1.423852	0.081072	0.363222
O28	O	1.245983	0.259971	0.648101
C29	C	1.270485	0.367315	0.613306
H30	H	1.329247	0.352274	0.509519
H31	H	1.186329	0.422171	0.608571
H32	H	1.315689	0.414303	0.693690
O33	O	1.477281	0.026915	0.576924
C34	C	1.427578	-0.055298	0.494512
H35	H	1.342339	-0.013376	0.473119
H36	H	1.489316	-0.087990	0.394023
H37	H	1.410888	-0.131006	0.549749
O38	O	1.205828	0.299879	0.423457
C39	C	1.123285	0.250837	0.506096
H40	H	1.164638	0.165313	0.527358
H41	H	1.091216	0.312729	0.606636
H42	H	1.047255	0.234814	0.451123
