data_functionalizedCrystal
_audit_creation_method	'MofGen! by Chris Wilmer'
_symmetry_space_group_name_H-M	'P1'
_symmetry_Int_Tables_number	1
_symmetry_cell_setting	triclinic
loop_
_symmetry_equiv_pos_as_xyz
  x,y,z
_cell_length_a	11.026607
_cell_length_b	7.540329
_cell_length_c	9.065218
_cell_angle_alpha	89.998243
_cell_angle_beta	96.800951
_cell_angle_gamma	89.997535
loop_
_atom_site_label
_atom_site_type_symbol
_atom_site_fract_x
_atom_site_fract_y
_atom_site_fract_z
O1	O	1.616971	-0.147471	0.619586
O2	O	2.116971	0.352529	1.119586
O3	O	1.262889	-0.147474	0.549033
O4	O	1.762889	0.352526	1.049033
O5	O	1.447249	-0.147469	0.371492
O6	O	1.947249	0.352531	0.871492
O7	O	1.432611	-0.147476	0.797127
O8	O	1.932611	0.352524	1.297127
O9	O	1.447238	0.147496	0.371486
O10	O	1.947238	0.647496	0.871486
O11	O	1.262878	0.147491	0.549027
O12	O	1.762878	0.647491	1.049027
O13	O	1.616960	0.147494	0.619580
O14	O	2.116960	0.647494	1.119580
Cu15	Cu	1.439918	0.174425	0.584303
Cu16	Cu	1.939918	0.674425	1.084303
Cu17	Cu	1.439931	-0.174405	0.584310
Cu18	Cu	1.939931	0.325595	1.084310
O19	O	1.432600	0.147489	0.797121
O20	O	1.932600	0.647489	1.297121
C21	C	1.217530	0.000008	0.536015
C22	C	1.717530	0.500008	1.036015
C23	C	1.082389	0.000006	0.497214
C24	C	1.582389	0.500006	0.997214
N25	N	1.439917	0.419774	0.584300
N26	N	1.939917	0.919774	1.084300
N27	N	1.439941	-0.419754	0.584304
N28	N	1.939941	0.080246	1.084304
C29	C	1.009761	0.000003	0.604348
C30	C	1.509761	0.500003	1.104348
C31	C	0.870086	0.000001	0.564249
C32	C	1.370086	0.500001	1.064249
C33	C	1.662319	0.000008	0.632598
C34	C	2.162319	0.500008	1.132598
C35	C	1.797460	-0.000002	0.671399
C36	C	2.297460	0.499998	1.171399
C37	C	1.445836	0.000011	0.316152
C38	C	1.945836	0.500011	0.816152
C39	C	1.441630	0.000002	0.151260
C40	C	1.941630	0.500002	0.651260
C41	C	1.434012	0.000005	0.852461
C42	C	1.934012	0.500005	1.352461
C43	C	1.438219	0.000002	1.017353
C44	C	1.938219	0.500002	1.517353
H45	H	1.050987	0.000011	0.725756
H46	H	1.550987	0.500011	1.225756
H47	H	0.838678	0.000008	0.792815
H48	H	1.338678	0.500008	1.292815
N49	N	1.027787	0.000025	0.336395
N50	N	1.527787	0.500025	0.836395
H51	H	0.975672	-0.109316	0.315511
H52	H	1.475672	0.390684	0.815511
H53	H	1.095509	0.000097	0.270507
H54	H	1.595509	0.500097	0.770507
N55	N	0.815500	0.000026	0.403417
N56	N	1.315500	0.500026	0.903417
H57	H	0.723459	0.000029	0.397568
H58	H	1.223459	0.500029	0.897568
H59	H	0.843325	-0.109318	0.352554
H60	H	1.343325	0.390682	0.852554
