data_functionalizedCrystal
_audit_creation_method	'MofGen! by Chris Wilmer'
_symmetry_space_group_name_H-M	'P1'
_symmetry_Int_Tables_number	1
_symmetry_cell_setting	triclinic
loop_
_symmetry_equiv_pos_as_xyz
  x,y,z
_cell_length_a	12.645331
_cell_length_b	12.645330
_cell_length_c	12.645323
_cell_angle_alpha	90.027006
_cell_angle_beta	90.015738
_cell_angle_gamma	90.011881
loop_
_atom_site_label
_atom_site_type_symbol
_atom_site_fract_x
_atom_site_fract_y
_atom_site_fract_z
Zn1	Zn	1.620768	-0.422053	0.599234
Zn2	Zn	1.620666	-0.599341	0.421968
Zn3	Zn	1.443483	-0.422089	0.422000
Zn4	Zn	1.443480	-0.599272	0.599205
O5	O	1.532099	-0.510689	0.510602
O6	O	1.769102	-0.445584	0.575718
O7	O	1.597120	-0.575872	0.273625
O8	O	1.467044	-0.273737	0.445537
O9	O	1.769026	-0.575836	0.445481
O10	O	1.597295	-0.273710	0.575750
O11	O	1.466945	-0.445646	0.273648
O12	O	1.295135	-0.445580	0.445508
O13	O	1.467040	-0.575720	0.747556
O14	O	1.295133	-0.575755	0.575699
O15	O	1.597293	-0.445517	0.747578
O16	O	1.597118	-0.747679	0.445453
O17	O	1.466940	-0.747629	0.575668
C18	C	1.256670	-0.510665	0.510604
C19	C	1.138840	-0.510680	0.510631
C20	C	0.971310	-0.593022	0.592107
C21	C	1.093870	-0.592757	0.592448
C22	C	1.094352	-0.399025	0.541156
C23	C	0.971754	-0.399528	0.541730
C24	C	0.971596	-0.539093	0.398370
C25	C	1.094203	-0.541535	0.398976
C26	C	1.532046	-0.786118	0.510577
C27	C	1.532120	-0.903948	0.510601
C28	C	1.613884	-1.071500	0.428517
C29	C	1.614150	-0.948940	0.428718
C30	C	1.562421	-0.948331	0.622343
C31	C	1.563069	-1.070929	0.621907
C32	C	1.420025	-1.071274	0.482046
C33	C	1.420562	-0.948670	0.479540
C34	C	1.808604	-0.510714	0.510600
C35	C	1.926435	-0.510724	0.510599
C36	C	1.532177	-0.510607	0.787107
C37	C	1.532211	-0.510572	0.904937
C38	C	1.532181	-0.234183	0.510650
C39	C	1.532217	-0.116353	0.510671
C40	C	1.532083	-0.510694	0.235172
C41	C	1.532255	-0.510430	0.117342
C42	C	1.450016	-0.592096	1.072488
C43	C	1.450231	-0.592500	0.949928
C44	C	1.643913	-0.540892	0.949442
C45	C	1.643462	-0.541403	1.072041
C46	C	1.503759	-0.398272	1.072143
C47	C	1.501267	-0.398944	0.949537
H48	H	1.123949	-0.675555	0.573316
C49	C	1.337782	-0.566711	1.112306
H50	H	1.340069	-0.506085	1.156649
H51	H	1.292846	-0.553186	1.053642
H52	H	1.311196	-0.625200	1.151218
C53	C	1.728915	-0.463091	0.910072
H54	H	1.696960	-0.411305	0.866033
H55	H	1.761273	-0.429403	0.968934
H56	H	1.780947	-0.500570	0.870938
H57	H	1.125074	-0.374524	0.622311
H58	H	1.506192	-1.100596	0.685226
C59	C	1.673851	-1.109460	0.654648
H60	H	1.675223	-1.184576	0.654675
H61	H	1.724802	-1.083509	0.605948
H62	H	1.689867	-1.084073	0.723536
C63	C	0.932368	-0.458134	0.316321
H64	H	0.888681	-0.407287	0.350236
H65	H	0.991298	-0.423624	0.285043
H66	H	0.892896	-0.493550	0.263075
H67	H	1.367400	-0.573526	0.919837
H68	H	1.595192	-0.918936	0.345863
C69	C	1.133523	-0.567379	0.704779
H70	H	1.074704	-0.557182	0.750380
H71	H	1.175244	-0.624475	0.730094
H72	H	1.175073	-0.504801	0.703167
H73	H	1.595163	-1.101052	0.345419
H74	H	0.940682	-0.619123	0.370626
C75	C	1.135534	-0.466428	0.312528
H76	H	1.107312	-0.486929	0.245968
H77	H	1.114255	-0.396106	0.328196
H78	H	1.210538	-0.469921	0.310078
C79	C	1.725540	-1.112999	0.453808
H80	H	1.722605	-1.157538	0.514219
H81	H	1.751620	-1.152034	0.395155
H82	H	1.771280	-1.055018	0.467677
C83	C	1.333923	-0.907315	0.554444
H84	H	1.364791	-0.862038	0.605876
H85	H	1.282767	-0.869095	0.514892
H86	H	1.300772	-0.965307	0.588799
C87	C	0.931473	-0.705247	0.566561
H88	H	0.887109	-0.702921	0.505963
H89	H	0.990127	-0.750149	0.552933
H90	H	0.892578	-0.731903	0.625028
C91	C	0.931638	-0.313890	0.465033
H92	H	0.856509	-0.313623	0.464857
H93	H	0.956890	-0.246667	0.487148
H94	H	0.956757	-0.328562	0.395768
C95	C	0.933143	-0.367036	0.652565
H96	H	0.992383	-0.353659	0.696818
H97	H	0.891299	-0.304880	0.647302
H98	H	0.891941	-0.422542	0.681963
H99	H	1.668479	-0.622023	0.918748
H100	H	1.504749	-0.919184	0.685193
C101	C	1.726401	-0.909205	0.454300
H102	H	1.772015	-0.967992	0.464621
H103	H	1.751816	-0.867518	0.397231
H104	H	1.724627	-0.867605	0.516851
H105	H	1.643501	-0.917544	0.646995
H106	H	1.392472	-1.102283	0.401984
H107	H	1.397716	-0.919673	0.397308
C108	C	1.337856	-1.110306	0.562981
H109	H	1.371694	-1.153882	0.613959
H110	H	1.306586	-1.051260	0.597325
H111	H	1.284616	-1.149835	0.527622
H112	H	1.468644	-0.674725	1.103301
C113	C	1.475634	-0.704825	0.910312
H114	H	1.485879	-0.750383	0.969146
H115	H	1.418515	-0.730213	0.868611
H116	H	1.538184	-0.703182	0.868749
C117	C	1.584667	-0.316070	1.111329
H118	H	1.567039	-0.248460	1.083750
H119	H	1.583501	-0.313552	1.186400
H120	H	1.653381	-0.335485	1.087995
C121	C	1.729031	-0.464533	1.112138
H122	H	1.729325	-0.464313	1.187267
H123	H	1.796270	-0.486539	1.086902
H124	H	1.714270	-0.395309	1.086991
C125	C	1.676078	-0.652164	1.110689
H126	H	1.689474	-0.696425	1.051464
H127	H	1.738247	-0.646775	1.152535
H128	H	1.620619	-0.681633	1.151898
C129	C	1.133703	-0.313932	0.463474
H130	H	1.177724	-0.345820	0.411614
H131	H	1.074833	-0.281567	0.429869
H132	H	1.172852	-0.261920	0.501019
C133	C	1.395642	-0.360931	1.113904
H134	H	1.366865	-0.413403	1.159299
H135	H	1.404326	-0.296800	1.152083
H136	H	1.349022	-0.349580	1.056091
H137	H	1.419064	-0.376079	0.920448
H138	H	1.556789	-0.334882	0.918911
H139	H	1.123293	-0.623697	0.375953
C140	C	0.929730	-0.567984	0.703795
H141	H	0.885143	-0.507592	0.700969
H142	H	0.890727	-0.626713	0.729717
H143	H	0.987674	-0.554179	0.749602
