data_functionalizedCrystal
_audit_creation_method	'MofGen! by Chris Wilmer'
_symmetry_space_group_name_H-M	'P1'
_symmetry_Int_Tables_number	1
_symmetry_cell_setting	triclinic
loop_
_symmetry_equiv_pos_as_xyz
  x,y,z
_cell_length_a	19.805407
_cell_length_b	25.639239
_cell_length_c	25.639233
_cell_angle_alpha	89.981253
_cell_angle_beta	89.985655
_cell_angle_gamma	90.038686
loop_
_atom_site_label
_atom_site_type_symbol
_atom_site_fract_x
_atom_site_fract_y
_atom_site_fract_z
Zn1	Zn	1.034643	-0.208214	-0.295633
Zn2	Zn	1.534643	0.291786	0.204367
Zn3	Zn	1.034544	-0.295633	-0.208197
Zn4	Zn	1.534544	0.204367	0.291803
Zn5	Zn	0.921468	-0.208214	-0.208209
Zn6	Zn	1.421468	0.291786	0.291791
Zn7	Zn	0.921397	-0.295621	-0.295599
Zn8	Zn	1.421397	0.204379	0.204401
O9	O	0.978013	-0.251920	-0.251910
O10	O	1.478013	0.248080	0.248090
O11	O	1.129346	-0.219816	-0.284044
O12	O	1.629346	0.280184	0.215956
O13	O	1.019532	-0.284042	-0.135034
O14	O	1.519532	0.215958	0.364966
O15	O	0.936552	-0.135048	-0.219825
O16	O	1.436552	0.364952	0.280175
O17	O	1.129274	-0.284043	-0.219805
O18	O	1.629274	0.215957	0.280195
O19	O	1.019701	-0.135049	-0.284055
O20	O	1.519701	0.364951	0.215945
O21	O	0.936456	-0.219815	-0.135042
O22	O	1.436456	0.280185	0.364958
O23	O	0.826742	-0.219803	-0.219792
O24	O	1.326742	0.280197	0.280208
O25	O	0.936431	-0.284021	-0.368769
O26	O	1.436431	0.215979	0.131231
O27	O	0.826690	-0.284020	-0.283998
O28	O	1.326690	0.215980	0.216002
O29	O	1.019632	-0.219804	-0.368794
O30	O	1.519632	0.280196	0.131206
O31	O	1.019463	-0.368797	-0.219773
O32	O	1.519463	0.131203	0.280227
O33	O	0.936335	-0.368788	-0.283986
O34	O	1.436335	0.131212	0.216014
C35	C	0.802157	-0.251910	-0.251893
C36	C	1.302157	0.248090	0.248107
C37	C	0.726925	-0.251919	-0.251898
C38	C	1.226925	0.248081	0.248102
C39	C	0.977899	-0.387763	-0.251886
C40	C	1.477899	0.112237	0.248114
C41	C	0.977912	-0.445877	-0.251893
C42	C	1.477912	0.054123	0.248107
C43	C	0.691571	-0.285407	-0.285276
C44	C	1.191571	0.214593	0.214724
C45	C	0.620883	-0.285408	-0.285283
C46	C	1.120883	0.214592	0.214717
C47	C	0.585549	-0.251923	-0.251910
C48	C	1.085549	0.248077	0.248090
C49	C	0.620908	-0.218431	-0.218531
C50	C	1.120908	0.281569	0.281469
C51	C	0.691595	-0.218428	-0.218526
C52	C	1.191595	0.281572	0.281474
C53	C	0.335835	-0.218442	-0.218548
C54	C	0.835835	0.281558	0.281452
C55	C	0.265143	-0.218449	-0.218554
C56	C	0.765143	0.281551	0.281446
C57	C	0.265122	-0.285423	-0.285305
C58	C	0.765122	0.214577	0.214695
C59	C	0.335810	-0.285420	-0.285300
C60	C	0.835810	0.214580	0.214700
C61	C	0.371162	-0.251926	-0.251923
C62	C	0.871162	0.248074	0.248077
C63	C	0.447810	-0.251925	-0.251917
C64	C	0.947810	0.248075	0.248083
C65	C	0.508902	-0.251926	-0.251914
C66	C	1.008902	0.248074	0.248086
C67	C	1.021411	-0.806232	-0.218531
C68	C	1.521411	-0.306232	0.281469
C69	C	1.021437	-0.860837	-0.218538
C70	C	1.521437	-0.360837	0.281462
O71	O	1.058303	-0.889067	-0.190145
O72	O	1.558303	-0.389067	0.309855
N73	N	0.978132	-0.888159	-0.251944
N74	N	1.478132	-0.388159	0.248056
C75	C	0.934802	-0.860875	-0.285350
C76	C	1.434802	-0.360875	0.214650
O77	O	0.897971	-0.889129	-0.313766
O78	O	1.397971	-0.389129	0.186234
C79	C	0.934780	-0.806272	-0.285345
C80	C	1.434780	-0.306272	0.214655
C81	C	0.978083	-0.778952	-0.251933
C82	C	1.478083	-0.278952	0.248067
C83	C	1.064711	-0.778912	-0.185121
C84	C	1.564711	-0.278912	0.314879
C85	C	1.064684	-0.724312	-0.185114
C86	C	1.564684	-0.224312	0.314886
C87	C	1.021356	-0.697031	-0.218516
C88	C	1.521356	-0.197031	0.281484
C89	C	0.978056	-0.724351	-0.251925
C90	C	1.478056	-0.224351	0.248075
C91	C	0.891455	-0.778989	-0.318753
C92	C	1.391455	-0.278989	0.181247
C93	C	0.891436	-0.724382	-0.318746
C94	C	1.391436	-0.224382	0.181254
C95	C	0.934740	-0.697062	-0.285333
C96	C	1.434740	-0.197062	0.214667
C97	C	0.934701	-0.642470	-0.285320
C98	C	1.434701	-0.142470	0.214680
N99	N	0.978006	-0.615148	-0.251913
N100	N	1.478006	-0.115148	0.248087
C101	C	1.021334	-0.642428	-0.218511
C102	C	1.521334	-0.142428	0.281489
C103	C	0.934853	-0.975546	-0.285358
C104	C	1.434853	-0.475546	0.214642
C105	C	0.934872	-1.030148	-0.285361
C106	C	1.434872	-0.530148	0.214639
C107	C	1.021508	-1.030106	-0.218549
C108	C	1.521508	-0.530106	0.281451
C109	C	1.021485	-0.975502	-0.218544
C110	C	1.521485	-0.475502	0.281456
C111	C	0.978159	-0.948223	-0.251951
C112	C	1.478159	-0.448223	0.248049
C113	C	1.021273	-0.527763	-0.218497
C114	C	1.521273	-0.027763	0.281503
C115	C	1.021240	-0.473158	-0.218491
C116	C	1.521240	0.026842	0.281509
C117	C	0.934607	-0.473205	-0.285305
C118	C	1.434607	0.026795	0.214695
C119	C	0.934637	-0.527805	-0.285309
C120	C	1.434637	-0.027805	0.214691
C121	C	0.977976	-0.555083	-0.251904
C122	C	1.477976	-0.055083	0.248096
O123	O	0.897856	-0.614206	-0.313699
O124	O	1.397856	-0.114206	0.186301
O125	O	1.058166	-0.614167	-0.190104
O126	O	1.558166	-0.114167	0.309896
C127	C	1.154556	-0.251931	-0.251927
C128	C	1.654556	0.248069	0.248073
C129	C	1.229788	-0.251935	-0.251934
C130	C	1.729788	0.248065	0.248066
C131	C	0.978035	-0.251911	-0.388283
C132	C	1.478035	0.248089	0.111717
C133	C	0.978044	-0.251907	-0.446397
C134	C	1.478044	0.248093	0.053603
C135	C	0.978146	-0.115547	-0.251945
C136	C	1.478146	0.384453	0.248055
C137	C	0.978202	-0.057433	-0.251960
C138	C	1.478202	0.442567	0.248040
C139	C	1.021422	-0.218370	-0.806779
C140	C	1.521422	0.281630	-0.306779
C141	C	1.021430	-0.218356	-0.861383
C142	C	1.521430	0.281644	-0.361383
O143	O	1.058257	-0.189903	-0.889636
O144	O	1.558257	0.310097	-0.389636
N145	N	0.978119	-0.251785	-0.888680
N146	N	1.478119	0.248215	-0.388680
C147	C	0.934791	-0.285227	-0.861369
C148	C	1.434791	0.214773	-0.361369
O149	O	0.897951	-0.313659	-0.889601
O150	O	1.397951	0.186341	-0.389601
C151	C	0.934780	-0.285238	-0.806766
C152	C	1.434780	0.214762	-0.306766
C153	C	0.978099	-0.251811	-0.779472
C154	C	1.478099	0.248189	-0.279472
C155	C	1.064737	-0.184945	-0.779485
C156	C	1.564737	0.315055	-0.279485
C157	C	1.064730	-0.184960	-0.724884
C158	C	1.564730	0.315040	-0.224884
C159	C	1.021407	-0.218401	-0.697578
C160	C	1.521407	0.281599	-0.197578
C161	C	0.978091	-0.251826	-0.724871
C162	C	1.478091	0.248174	-0.224871
C163	C	0.891449	-0.318677	-0.779456
C164	C	1.391449	0.181323	-0.279456
C165	C	0.891441	-0.318685	-0.724849
C166	C	1.391441	0.181315	-0.224849
C167	C	0.934761	-0.285258	-0.697555
C168	C	1.434761	0.214742	-0.197555
C169	C	0.934761	-0.285282	-0.642964
C170	C	1.434761	0.214718	-0.142964
N171	N	0.978073	-0.251853	-0.615667
N172	N	1.478073	0.248147	-0.115667
C173	C	1.021395	-0.218412	-0.642974
C174	C	1.521395	0.281588	-0.142974
C175	C	0.934817	-0.285200	-0.976040
C176	C	1.434817	0.214800	-0.476040
C177	C	0.934831	-0.285191	-1.030642
C178	C	1.434831	0.214809	-0.530642
C179	C	1.021470	-0.218319	-1.030652
C180	C	1.521470	0.281681	-0.530652
C181	C	1.021459	-0.218331	-0.976049
C182	C	1.521459	0.281669	-0.476049
C183	C	0.978129	-0.251770	-0.948743
C184	C	1.478129	0.248230	-0.448743
C185	C	1.021376	-0.218447	-0.528309
C186	C	1.521376	0.281553	-0.028309
C187	C	1.021367	-0.218467	-0.473704
C188	C	1.521367	0.281533	0.026296
C189	C	0.934726	-0.285337	-0.473698
C190	C	1.434726	0.214663	0.026302
C191	C	0.934738	-0.285319	-0.528299
C192	C	1.434738	0.214681	-0.028299
C193	C	0.978065	-0.251870	-0.555603
C194	C	1.478065	0.248130	-0.055603
O195	O	0.897951	-0.313718	-0.614677
O196	O	1.397951	0.186282	-0.114677
O197	O	1.058223	-0.189980	-0.614736
O198	O	1.558223	0.310020	-0.114736
C199	C	0.978030	-0.251892	-0.116067
C200	C	1.478030	0.248108	0.383933
C201	C	0.978152	-0.251748	-0.057954
C202	C	1.478152	0.248252	0.442046
H203	H	0.592101	-0.312678	-0.312462
H204	H	1.092101	0.187322	0.187538
H205	H	0.720335	-0.312677	-0.312450
H206	H	1.220335	0.187323	0.187550
H207	H	1.056732	-0.191110	-0.953830
H208	H	1.556732	0.308890	-0.453830
N209	N	0.371890	-0.319631	-0.319390
N210	N	0.871890	0.180369	0.180610
N211	N	0.340316	-0.349529	-0.349190
N212	N	0.840316	0.150471	0.150810
H213	H	0.365797	-0.373691	-0.373268
H214	H	0.865797	0.126309	0.126732
N215	N	0.890550	-0.319358	-0.948150
N216	N	1.390550	0.180642	-0.448150
N217	N	0.828100	-0.315884	-0.954249
N218	N	1.328100	0.184116	-0.454249
H219	H	0.796834	-0.340007	-0.934554
H220	H	1.296834	0.159993	-0.434554
N221	N	0.584817	-0.184218	-0.184449
N222	N	1.084817	0.315782	0.315551
N223	N	0.545408	-0.150931	-0.202908
N224	N	1.045408	0.349069	0.297092
H225	H	0.519920	-0.126767	-0.178837
H226	H	1.019920	0.373233	0.321163
H227	H	0.236330	-0.312693	-0.312484
H228	H	0.736330	0.187307	0.187516
H229	H	0.899566	-0.953337	-0.312561
H230	H	1.399566	-0.453337	0.187439
H231	H	0.236376	-0.191178	-0.191377
H232	H	0.736376	0.308822	0.308623
N233	N	0.371930	-0.184230	-0.184449
N234	N	0.871930	0.315770	0.315551
N235	N	0.340371	-0.154340	-0.154652
N236	N	0.840371	0.345660	0.345348
H237	H	0.365865	-0.130177	-0.130567
H238	H	0.865865	0.369823	0.369433
N239	N	0.847180	-0.352838	-0.696949
N240	N	1.347180	0.147162	-0.196949
N241	N	0.804064	-0.334447	-0.666477
N242	N	1.304064	0.165553	-0.166477
H243	H	0.772806	-0.358567	-0.646772
H244	H	1.272806	0.141433	-0.146772
N245	N	0.890485	-0.319494	-0.445791
N246	N	1.390485	0.180506	0.054209
N247	N	0.890489	-0.319498	-0.397039
N248	N	1.390489	0.180502	0.102961
H249	H	0.859241	-0.343621	-0.377327
H250	H	1.359241	0.156379	0.122673
N251	N	0.847206	-0.352836	-0.807319
N252	N	1.347206	0.147164	-0.307319
N253	N	0.808536	-0.382690	-0.782921
N254	N	1.308536	0.117310	-0.282921
H255	H	0.777290	-0.406820	-0.802597
H256	H	1.277290	0.093180	-0.302597
H257	H	1.100003	-0.157739	-0.702667
H258	H	1.600003	0.342261	-0.202667
H259	H	1.056656	-0.191208	-0.550534
H260	H	1.556656	0.308792	-0.050534
H261	H	0.899378	-0.550050	-0.312518
H262	H	1.399378	-0.050050	0.187482
H263	H	1.099947	-0.702071	-0.157908
H264	H	1.599947	-0.202071	0.342092
N265	N	0.890473	-0.319457	-0.556174
N266	N	1.390473	0.180543	-0.056174
N267	N	0.851785	-0.349304	-0.531783
N268	N	1.351785	0.150696	-0.031783
H269	H	0.820511	-0.373407	-0.551466
H270	H	1.320511	0.126593	-0.051466
H271	H	1.100016	-0.157711	-0.801712
H272	H	1.600016	0.342289	-0.301712
N273	N	0.890361	-0.445323	-0.319422
N274	N	1.390361	0.054677	0.180578
N275	N	0.914142	-0.414818	-0.352747
N276	N	1.414142	0.085182	0.147253
H277	H	0.882896	-0.395124	-0.376845
H278	H	1.382896	0.104876	0.123155
N279	N	0.727700	-0.184212	-0.184434
N280	N	1.227700	0.315788	0.315566
N281	N	0.696146	-0.154314	-0.154641
N282	N	1.196146	0.345686	0.345359
H283	H	0.721644	-0.130145	-0.130564
H284	H	1.221644	0.369855	0.369436
N285	N	1.065711	-0.947591	-0.184415
N286	N	1.565711	-0.447591	0.315585
N287	N	1.041915	-0.917155	-0.151077
N288	N	1.541915	-0.417155	0.348923
H289	H	1.073150	-0.897444	-0.126971
H290	H	1.573150	-0.397444	0.373029
N291	N	1.065476	-0.445260	-0.184353
N292	N	1.565476	0.054740	0.315647
N293	N	1.104157	-0.469628	-0.154533
N294	N	1.604157	0.030372	0.345467
H295	H	1.135399	-0.449927	-0.130424
H296	H	1.635399	0.050073	0.369576
N297	N	0.847177	-0.696525	-0.352879
N298	N	1.347177	-0.196525	0.147121
N299	N	0.808523	-0.720929	-0.382707
N300	N	1.308523	-0.220929	0.117293
H301	H	0.777264	-0.701257	-0.406813
H302	H	1.277264	-0.201257	0.093187
N303	N	1.065782	-1.057970	-0.184433
N304	N	1.565782	-0.557970	0.315567
N305	N	1.104450	-1.033575	-0.154607
N306	N	1.604450	-0.533575	0.345393
H307	H	1.135718	-1.053255	-0.130515
H308	H	1.635718	-0.553255	0.369485
N309	N	1.065544	-0.555613	-0.184371
N310	N	1.565544	-0.055613	0.315629
N311	N	1.104197	-0.531205	-0.154544
N312	N	1.604197	-0.031205	0.345456
H313	H	1.135461	-0.550873	-0.130439
H314	H	1.635461	-0.050873	0.369561
N315	N	1.108981	-0.806765	-0.150998
N316	N	1.608981	-0.306765	0.349002
N317	N	1.147636	-0.782355	-0.121175
N318	N	1.647636	-0.282355	0.378825
H319	H	1.178903	-0.802022	-0.097071
H320	H	1.678903	-0.302022	0.402929
H321	H	1.056645	-0.191246	-0.451484
H322	H	1.556645	0.308754	0.048516
N323	N	0.847221	-0.806893	-0.352879
N324	N	1.347221	-0.306893	0.147121
N325	N	0.804113	-0.837403	-0.334464
N326	N	1.304113	-0.337403	0.165536
H327	H	0.772870	-0.857110	-0.358568
H328	H	1.272870	-0.357110	0.141432
N329	N	0.890623	-1.058043	-0.319486
N330	N	1.390623	-0.558043	0.180514
N331	N	0.851941	-1.033673	-0.349303
N332	N	1.351941	-0.533673	0.150697
H333	H	0.820690	-1.053371	-0.373407
H334	H	1.320690	-0.553371	0.126593
N335	N	1.065721	-0.184163	-1.058559
N336	N	1.565721	0.315837	-0.558559
N337	N	1.065717	-0.184160	-1.107312
N338	N	1.565717	0.315840	-0.607312
H339	H	1.096967	-0.160039	-1.127023
H340	H	1.596967	0.339961	-0.627023
N341	N	0.890587	-0.319347	-1.058510
N342	N	1.390587	0.180653	-0.558510
N343	N	0.851913	-0.349202	-1.034116
N344	N	1.351913	0.150798	-0.534116
H345	H	0.820661	-0.373325	-1.053796
H346	H	1.320661	0.126675	-0.553796
