data_functionalizedCrystal
_audit_creation_method	'MofGen! by Chris Wilmer'
_symmetry_space_group_name_H-M	'P1'
_symmetry_Int_Tables_number	1
_symmetry_cell_setting	triclinic
loop_
_symmetry_equiv_pos_as_xyz
  x,y,z
_cell_length_a	13.033409
_cell_length_b	13.031981
_cell_length_c	12.759393
_cell_angle_alpha	97.216555
_cell_angle_beta	82.830368
_cell_angle_gamma	90.920217
loop_
_atom_site_label
_atom_site_type_symbol
_atom_site_fract_x
_atom_site_fract_y
_atom_site_fract_z
Zn1	Zn	1.520224	-0.608974	0.321712
Zn2	Zn	1.498275	-0.781001	0.126853
Zn3	Zn	1.348241	-0.587201	0.170831
Zn4	Zn	1.326407	-0.759114	0.327273
O5	O	1.423287	-0.684072	0.236667
O6	O	1.661215	-0.650065	0.275132
O7	O	1.478324	-0.755341	-0.014335
O8	O	1.389379	-0.446149	0.206924
O9	O	1.645089	-0.776453	0.131969
O10	O	1.515733	-0.462145	0.317776
O11	O	1.368096	-0.612957	0.017976
O12	O	1.201442	-0.591734	0.212316
O13	O	1.352165	-0.739150	0.473557
O14	O	1.185401	-0.718038	0.327253
O15	O	1.494561	-0.628842	0.469471
O16	O	1.457152	-0.922038	0.137361
O17	O	1.330882	-0.905958	0.284609
C18	C	1.156109	-0.650149	0.275160
C19	C	1.041806	-0.635661	0.291650
C20	C	0.864739	-0.676667	0.245123
C21	C	0.982876	-0.691644	0.228075
C22	C	1.389294	-0.951323	0.206835
C23	C	1.374846	-1.065666	0.194094
C24	C	1.430882	-1.124470	0.243330
C25	C	1.415950	-1.242650	0.230163
C26	C	1.691507	-0.718129	0.198024
C27	C	1.805807	-0.732642	0.181557
C28	C	1.423376	-0.683983	0.510701
C29	C	1.423414	-0.683946	0.627477
C30	C	1.457440	-0.415781	0.266635
C31	C	1.471994	-0.301452	0.279405
C32	C	1.423266	-0.684094	-0.036300
C33	C	1.423464	-0.683868	-0.153073
C34	C	1.497566	-0.626498	0.680214
C35	C	1.497589	-0.626456	0.789941
C36	C	1.349304	-0.741317	0.794183
C37	C	1.349278	-0.741352	0.684460
H38	H	1.004805	-0.576649	0.358701
Cl39	Cl	1.039997	-0.782765	0.124562
Cl40	Cl	1.256114	-0.813488	0.865825
H41	H	0.842813	-0.791658	0.114519
H42	H	1.288887	-0.788131	0.641522
H43	H	1.356913	-1.279792	0.178265
Cl44	Cl	1.522010	-1.067125	0.323476
Cl45	Cl	1.563137	-1.244115	0.359543
H46	H	1.315813	-1.102813	0.142200
H47	H	0.827731	-0.617660	0.312170
Cl48	Cl	1.590763	-0.554325	0.608583
Cl49	Cl	1.590821	-0.554244	0.856232
