data_functionalizedCrystal
_audit_creation_method	'MofGen! by Chris Wilmer'
_symmetry_space_group_name_H-M	'P1'
_symmetry_Int_Tables_number	1
_symmetry_cell_setting	triclinic
loop_
_symmetry_equiv_pos_as_xyz
  x,y,z
_cell_length_a	18.215407
_cell_length_b	19.805405
_cell_length_c	18.215399
_cell_angle_alpha	89.969667
_cell_angle_beta	89.983176
_cell_angle_gamma	90.027174
loop_
_atom_site_label
_atom_site_type_symbol
_atom_site_fract_x
_atom_site_fract_y
_atom_site_fract_z
Zn1	Zn	1.125041	-0.269446	-0.416116
Zn2	Zn	1.458374	0.063887	-0.082783
Zn3	Zn	1.791707	0.397221	0.250551
Zn4	Zn	1.124952	-0.382642	-0.293050
Zn5	Zn	1.458285	-0.049308	0.040284
Zn6	Zn	1.791618	0.284025	0.373617
Zn7	Zn	1.001980	-0.269473	-0.293063
Zn8	Zn	1.335313	0.063860	0.040270
Zn9	Zn	1.668646	0.397194	0.373603
Zn10	Zn	1.001935	-0.382599	-0.416075
Zn11	Zn	1.335269	-0.049266	-0.082741
Zn12	Zn	1.668602	0.284067	0.250592
O13	O	1.063477	-0.326040	-0.354576
O14	O	1.396810	0.007293	-0.021243
O15	O	1.730143	0.340627	0.312091
O16	O	1.228013	-0.284468	-0.399803
O17	O	1.561346	0.048865	-0.066469
O18	O	1.894680	0.382199	0.266864
O19	O	1.108620	-0.367659	-0.190067
O20	O	1.441954	-0.034325	0.143266
O21	O	1.775287	0.299008	0.476599
O22	O	1.018360	-0.174753	-0.309410
O23	O	1.351693	0.158581	0.023924
O24	O	1.685027	0.491914	0.357257
O25	O	1.227948	-0.367633	-0.309386
O26	O	1.561281	-0.034299	0.023947
O27	O	1.894614	0.299034	0.357280
O28	O	1.108772	-0.174733	-0.399816
O29	O	1.442106	0.158600	-0.066482
O30	O	1.775439	0.491934	0.266851
O31	O	1.018274	-0.284514	-0.190077
O32	O	1.351607	0.048819	0.143256
O33	O	1.684940	0.382153	0.476589
O34	O	0.898990	-0.284473	-0.309369
O35	O	1.232323	0.048861	0.023964
O36	O	1.565656	0.382194	0.357297
O37	O	1.018284	-0.367560	-0.519064
O38	O	1.351617	-0.034227	-0.185731
O39	O	1.684951	0.299106	0.147602
O40	O	0.898957	-0.367586	-0.399745
O41	O	1.232290	-0.034253	-0.066412
O42	O	1.565624	0.299080	0.266921
O43	O	1.108729	-0.284427	-0.519095
O44	O	1.442062	0.048906	-0.185761
O45	O	1.775396	0.382240	0.147572
O46	O	1.108577	-0.477353	-0.309346
O47	O	1.441911	-0.144019	0.023987
O48	O	1.775244	0.189314	0.357320
O49	O	1.018198	-0.477321	-0.399732
O50	O	1.351531	-0.143988	-0.066399
O51	O	1.684864	0.189345	0.266935
C52	C	0.872271	-0.326028	-0.354555
C53	C	1.205604	0.007305	-0.021221
C54	C	1.538937	0.340638	0.312112
C55	C	0.790472	-0.326040	-0.354563
C56	C	1.123805	0.007294	-0.021230
C57	C	1.457138	0.340627	0.312103
C58	C	1.063393	-0.501896	-0.354549
C59	C	1.396726	-0.168563	-0.021216
C60	C	1.730060	0.164771	0.312117
C61	C	1.063424	-0.577128	-0.354563
C62	C	1.396758	-0.243795	-0.021229
C63	C	1.730091	0.089539	0.312104
C64	C	0.602280	-0.369385	-0.401563
C65	C	0.935613	-0.036052	-0.068230
C66	C	1.268947	0.297282	0.265104
C67	C	0.525421	-0.369387	-0.401572
C68	C	0.858755	-0.036054	-0.068239
C69	C	1.192088	0.297280	0.265095
C70	C	0.525426	-0.282707	-0.307605
C71	C	0.858759	0.050626	0.025728
C72	C	1.192092	0.383959	0.359062
C73	C	0.602283	-0.282702	-0.307600
C74	C	0.935616	0.050631	0.025733
C75	C	1.268950	0.383965	0.359067
C76	C	0.640708	-0.326045	-0.354578
C77	C	0.974041	0.007288	-0.021245
C78	C	1.307375	0.340622	0.312089
C79	C	0.486992	-0.326052	-0.354592
C80	C	0.820325	0.007281	-0.021259
C81	C	1.153659	0.340615	0.312075
C82	C	0.403658	-0.326054	-0.354602
C83	C	0.736992	0.007279	-0.021268
C84	C	1.070325	0.340613	0.312065
C85	C	0.724047	-0.326042	-0.354570
C86	C	1.057380	0.007291	-0.021236
C87	C	1.390714	0.340624	0.312097
C88	C	1.110474	-0.612404	-0.401674
C89	C	1.443808	-0.279070	-0.068341
C90	C	1.777141	0.054263	0.264993
C91	C	1.110501	-0.683092	-0.401688
C92	C	1.443834	-0.349759	-0.068354
C93	C	1.777168	-0.016425	0.264979
C94	C	1.063481	-0.718503	-0.354586
C95	C	1.396814	-0.385170	-0.021252
C96	C	1.730147	-0.051837	0.312081
C97	C	1.016426	-0.683223	-0.307472
C98	C	1.349759	-0.349890	0.025861
C99	C	1.683092	-0.016556	0.359195
C100	C	1.016396	-0.612536	-0.307463
C101	C	1.349729	-0.279202	0.025871
C102	C	1.683063	0.054131	0.359204
C103	C	1.016544	-0.968296	-0.307510
C104	C	1.349877	-0.634963	0.025823
C105	C	1.683210	-0.301629	0.359157
C106	C	1.016579	-1.038988	-0.307521
C107	C	1.349912	-0.705655	0.025812
C108	C	1.683245	-0.372322	0.359145
C109	C	1.110649	-1.038852	-0.401735
C110	C	1.443982	-0.705519	-0.068401
C111	C	1.777315	-0.372186	0.264932
C112	C	1.110619	-0.968165	-0.401725
C113	C	1.443952	-0.634832	-0.068392
C114	C	1.777286	-0.301499	0.264941
C115	C	1.063562	-0.932891	-0.354615
C116	C	1.396895	-0.599557	-0.021282
C117	C	1.730228	-0.266224	0.312052
C118	C	1.063532	-0.856242	-0.354602
C119	C	1.396866	-0.522909	-0.021268
C120	C	1.730199	-0.189576	0.312065
C121	C	1.063513	-0.795151	-0.354595
C122	C	1.396846	-0.461817	-0.021261
C123	C	1.730180	-0.128484	0.312072
C124	C	1.255430	-0.326052	-0.354598
C125	C	1.588763	0.007281	-0.021264
C126	C	1.922096	0.340615	0.312069
C127	C	1.337229	-0.326057	-0.354607
C128	C	1.670562	0.007276	-0.021273
C129	C	2.003895	0.340609	0.312060
C130	C	1.063512	-0.325986	-0.546529
C131	C	1.396845	0.007347	-0.213196
C132	C	1.730178	0.340681	0.120138
C133	C	1.063526	-0.325963	-0.628328
C134	C	1.396860	0.007371	-0.294995
C135	C	1.730193	0.340704	0.038339
C136	C	1.063581	-0.149497	-0.354619
C137	C	1.396914	0.183836	-0.021285
C138	C	1.730248	0.517170	0.312048
C139	C	1.063625	-0.074265	-0.354637
C140	C	1.396959	0.259068	-0.021304
C141	C	1.730292	0.592402	0.312030
C142	C	1.016523	-0.282640	-0.816528
C143	C	1.349856	0.050693	-0.483195
C144	C	1.683189	0.384026	-0.149861
C145	C	1.016535	-0.282627	-0.893387
C146	C	1.349869	0.050707	-0.560053
C147	C	1.683202	0.384040	-0.226720
C148	C	1.110618	-0.369205	-0.893366
C149	C	1.443952	-0.035871	-0.560032
C150	C	1.777285	0.297462	-0.226699
C151	C	1.110601	-0.369221	-0.816508
C152	C	1.443935	-0.035888	-0.483175
C153	C	1.777268	0.297445	-0.149842
C154	C	1.063554	-0.325935	-0.778091
C155	C	1.396888	0.007398	-0.444758
C156	C	1.730221	0.340732	-0.111425
C157	C	1.063584	-0.325905	-0.931808
C158	C	1.396918	0.007428	-0.598474
C159	C	1.730251	0.340762	-0.265141
C160	C	1.063598	-0.325890	-1.015141
C161	C	1.396932	0.007443	-0.681808
C162	C	1.730265	0.340776	-0.348475
C163	C	1.063539	-0.325950	-0.694752
C164	C	1.396872	0.007383	-0.361419
C165	C	1.730206	0.340716	-0.028086
C166	C	1.063485	-0.326045	-0.163370
C167	C	1.396818	0.007288	0.169964
C168	C	1.730151	0.340622	0.503297
C169	C	1.063612	-0.325877	-0.081571
C170	C	1.396946	0.007456	0.251762
C171	C	1.730279	0.340789	0.585095
H172	H	0.633563	-0.404676	-0.439817
H173	H	0.966897	-0.071342	-0.106484
H174	H	1.300230	0.261991	0.226850
C175	C	0.964762	-0.929503	-0.255704
C176	C	1.298096	-0.596170	0.077630
C177	C	1.631429	-0.262837	0.410963
N178	N	0.925752	-0.900282	-0.216687
N179	N	1.259085	-0.566949	0.116646
N180	N	1.592418	-0.233616	0.449980
C181	C	1.162356	-0.416839	-0.774226
C182	C	1.495690	-0.083506	-0.440892
C183	C	1.829023	0.249827	-0.107559
N184	N	1.201340	-0.452700	-0.742378
N185	N	1.534674	-0.119367	-0.409045
N186	N	1.868007	0.213967	-0.075712
C187	C	0.964764	-0.235030	-0.774272
C188	C	1.298097	0.098304	-0.440939
C189	C	1.631431	0.431637	-0.107606
N190	N	0.925775	-0.199170	-0.742447
N191	N	1.259108	0.134163	-0.409114
N192	N	1.592442	0.467496	-0.075781
C193	C	0.964638	-0.573733	-0.255636
C194	C	1.297971	-0.240400	0.077697
C195	C	1.631305	0.092934	0.411031
N196	N	0.925651	-0.544508	-0.216600
N197	N	1.258984	-0.211174	0.116734
N198	N	1.592317	0.122159	0.450067
C199	C	0.964801	-0.234995	-0.935664
C200	C	1.298134	0.098339	-0.602330
C201	C	1.631467	0.431672	-0.268997
N202	N	0.925833	-0.199115	-0.967506
N203	N	1.259166	0.134218	-0.634173
N204	N	1.592499	0.467551	-0.300839
C205	C	0.644557	-0.235022	-0.255910
C206	C	0.977890	0.098311	0.077423
C207	C	1.311223	0.431644	0.410757
N208	N	0.676397	-0.199111	-0.216980
N209	N	1.009730	0.134223	0.116354
N210	N	1.343064	0.467556	0.449687
C211	C	0.483151	-0.235036	-0.255928
C212	C	0.816484	0.098297	0.077405
C213	C	1.149818	0.431630	0.410738
N214	N	0.451310	-0.199131	-0.217002
N215	N	0.784643	0.134202	0.116331
N216	N	1.117977	0.467535	0.449664
H217	H	1.148767	-0.583576	-0.440027
H218	H	1.482100	-0.250243	-0.106693
H219	H	1.815433	0.083091	0.226640
C220	C	1.162269	-0.721892	-0.453504
C221	C	1.495603	-0.388559	-0.120171
C222	C	1.828936	-0.055225	0.213162
N223	N	1.201267	-0.751116	-0.492532
N224	N	1.534600	-0.417782	-0.159199
N225	N	1.867933	-0.084449	0.174135
C226	C	1.162205	-0.416965	-0.935631
C227	C	1.495539	-0.083632	-0.602298
C228	C	1.828872	0.249702	-0.268964
N229	N	1.201004	-0.452992	-0.967465
N230	N	1.534337	-0.119659	-0.634131
N231	N	1.867670	0.213674	-0.300798
H232	H	0.494136	-0.404678	-0.439833
H233	H	0.827470	-0.071345	-0.106500
H234	H	1.160803	0.261989	0.226834
C235	C	1.162349	-0.929217	-0.453536
C236	C	1.495683	-0.595883	-0.120203
C237	C	1.829016	-0.262550	0.213130
N238	N	1.201313	-0.899881	-0.492562
N239	N	1.534647	-0.566548	-0.159229
N240	N	1.867980	-0.233215	0.174104
C241	C	1.162408	-1.077660	-0.453564
C242	C	1.495741	-0.744327	-0.120230
C243	C	1.829074	-0.410994	0.213103
N244	N	1.201392	-1.106890	-0.492599
N245	N	1.534726	-0.773556	-0.159266
N246	N	1.868059	-0.440223	0.174067
H247	H	0.978138	-0.712061	-0.269124
H248	H	1.311471	-0.378727	0.064209
H249	H	1.644805	-0.045394	0.397543
H250	H	0.978286	-1.067818	-0.269164
H251	H	1.311619	-0.734485	0.064169
H252	H	1.644952	-0.401152	0.397503
