data_functionalizedCrystal
_audit_creation_method	'MofGen! by Chris Wilmer'
_symmetry_space_group_name_H-M	'P1'
_symmetry_Int_Tables_number	1
_symmetry_cell_setting	triclinic
loop_
_symmetry_equiv_pos_as_xyz
  x,y,z
_cell_length_a	21.295417
_cell_length_b	12.645331
_cell_length_c	21.295412
_cell_angle_alpha	89.990320
_cell_angle_beta	89.968813
_cell_angle_gamma	90.029742
loop_
_atom_site_label
_atom_site_type_symbol
_atom_site_fract_x
_atom_site_fract_y
_atom_site_fract_z
Zn1	Zn	-0.250635	1.620573	-0.355798
Zn2	Zn	-0.355904	1.620434	-0.250523
Zn3	Zn	-0.250651	1.443307	-0.250555
Zn4	Zn	-0.355868	1.443230	-0.355767
O5	O	-0.303265	1.531886	-0.303161
O6	O	-0.264607	1.768902	-0.341832
O7	O	-0.341964	1.596912	-0.162438
O8	O	-0.162560	1.466912	-0.264542
O9	O	-0.341948	1.768800	-0.264487
O10	O	-0.162547	1.597149	-0.341863
O11	O	-0.264635	1.466777	-0.162462
O12	O	-0.264601	1.294949	-0.264513
O13	O	-0.341887	1.466781	-0.443861
O14	O	-0.341903	1.294893	-0.341811
O15	O	-0.264572	1.597075	-0.443883
O16	O	-0.443989	1.596837	-0.264458
O17	O	-0.443963	1.466646	-0.341780
C18	C	-0.303250	1.256456	-0.303162
C19	C	-0.303259	1.138626	-0.303178
C20	C	-0.352157	0.971062	-0.351553
C21	C	-0.351999	1.093622	-0.351756
C22	C	-0.236959	1.094170	-0.321312
C23	C	-0.237257	0.971572	-0.321653
C24	C	-0.320128	0.971386	-0.236515
C25	C	-0.321578	1.093992	-0.236875
C26	C	-0.466816	1.531747	-0.303126
C27	C	-0.536784	1.531785	-0.303132
C28	C	-0.569644	1.599635	-0.262912
C29	C	-0.635386	1.599685	-0.262926
C30	C	-0.668267	1.531865	-0.303154
C31	C	-0.635399	1.464010	-0.343382
C32	C	-0.569658	1.463969	-0.343371
N33	N	-0.771532	1.439128	-0.307953
N34	N	-0.833983	1.439169	-0.307960
C35	C	-0.866341	1.531984	-0.303190
N36	N	-0.833889	1.624758	-0.298401
N37	N	-0.771432	1.624715	-0.298391
C38	C	-0.739552	1.531902	-0.303170
C39	C	-0.970486	1.599894	-0.262983
C40	C	-1.036230	1.599946	-0.263001
C41	C	-1.036242	1.464261	-0.343454
C42	C	-0.970500	1.464219	-0.343439
C43	C	-0.937626	1.532034	-0.303200
C44	C	-0.139074	1.532054	-0.303210
C45	C	-0.069106	1.532126	-0.303230
C46	C	-0.303224	1.531935	-0.467351
C47	C	-0.303207	1.531956	-0.537319
C48	C	-0.303279	1.808391	-0.303160
C49	C	-0.303286	1.926221	-0.303159
C50	C	-0.262849	1.599900	-1.036790
C51	C	-0.262864	1.599892	-0.971048
C52	C	-0.303123	1.532048	-0.938159
C53	C	-0.343382	1.464226	-0.971018
C54	C	-0.343370	1.464244	-1.036760
N55	N	-0.307966	1.439220	-0.834937
N56	N	-0.307974	1.439207	-0.772485
C57	C	-0.303163	1.531992	-0.740084
N58	N	-0.298331	1.624794	-0.772494
N59	N	-0.298320	1.624806	-0.834951
C60	C	-0.303141	1.532021	-0.866874
C61	C	-0.262927	1.599806	-0.635947
C62	C	-0.262946	1.599799	-0.570203
C63	C	-0.343460	1.464124	-0.570175
C64	C	-0.343444	1.464140	-0.635918
C65	C	-0.303174	1.531979	-0.668800
C66	C	-0.303260	1.531898	-0.139609
C67	C	-0.303100	1.532083	-0.069642
H68	H	-0.222971	0.942994	-0.370373
H69	H	-0.943719	1.655117	-0.230219
H70	H	-0.199540	0.941911	-0.288022
N71	N	-0.338010	1.130472	-0.413694
N72	N	-0.376622	1.187121	-0.442341
H73	H	-0.366738	1.213151	-0.486086
N74	N	-0.384484	1.394974	-1.070329
N75	N	-0.424588	1.432243	-1.107003
H76	H	-0.453624	1.383320	-1.130714
H77	H	-0.341155	0.940267	-0.400646
N78	N	-0.280150	1.132393	-0.189215
N79	N	-0.248454	1.068805	-0.157388
H80	H	-0.219189	1.095924	-0.123730
N81	N	-0.221730	1.669217	-1.070378
N82	N	-0.243875	1.736761	-1.107052
H83	H	-0.214836	1.785719	-1.130775
N84	N	-0.190042	1.130742	-0.278472
N85	N	-0.204982	1.190123	-0.233992
H86	H	-0.171849	1.215953	-0.203735
H87	H	-0.222413	1.124892	-0.369504
H88	H	-1.062983	1.655204	-0.230250
H89	H	-0.662175	1.408792	-0.376137
N90	N	-0.379736	0.932550	-0.215839
N91	N	-0.410532	0.871105	-0.249976
H92	H	-0.452632	0.843674	-0.235380
N93	N	-0.382788	1.130438	-0.219729
N94	N	-0.412843	1.189071	-0.256170
H95	H	-0.456074	1.214817	-0.244063
H96	H	-0.230171	1.655032	-0.543457
N97	N	-0.384554	1.394872	-0.669491
N98	N	-0.424658	1.432147	-0.706163
H99	H	-0.453695	1.383228	-0.729875
N100	N	-0.275462	0.935019	-0.191288
N101	N	-0.231400	0.876095	-0.207978
H102	H	-0.199850	0.850410	-0.176042
H103	H	-0.542904	1.408716	-0.376125
H104	H	-1.063013	1.409045	-0.376212
H105	H	-0.542879	1.654857	-0.230148
N106	N	-0.668970	1.668976	-0.221836
N107	N	-0.727667	1.668993	-0.221850
H108	H	-0.751386	1.717927	-0.192829
N109	N	-0.221735	1.669146	-0.937481
N110	N	-0.181631	1.631856	-0.900814
H111	H	-0.152582	1.680764	-0.877108
N112	N	-0.384505	1.394937	-0.937417
N113	N	-0.384510	1.394929	-0.878720
H114	H	-0.413557	1.345995	-0.854988
H115	H	-0.943744	1.408964	-0.376188
H116	H	-0.230136	1.655044	-0.662721
N117	N	-0.384576	1.394804	-0.536590
N118	N	-0.380393	1.296991	-0.543935
H119	H	-0.409433	1.248031	-0.520213
H120	H	-0.401486	0.941554	-0.340312
N121	N	-0.413679	1.131318	-0.337498
N122	N	-0.457145	1.067081	-0.327330
H123	H	-0.500710	1.093697	-0.317263
