data_functionalizedCrystal
_audit_creation_method	'MofGen! by Chris Wilmer'
_symmetry_space_group_name_H-M	'P1'
_symmetry_Int_Tables_number	1
_symmetry_cell_setting	triclinic
loop_
_symmetry_equiv_pos_as_xyz
  x,y,z
_cell_length_a	12.827893
_cell_length_b	12.827892
_cell_length_c	19.076919
_cell_angle_alpha	92.275535
_cell_angle_beta	92.282940
_cell_angle_gamma	90.015553
loop_
_atom_site_label
_atom_site_type_symbol
_atom_site_fract_x
_atom_site_fract_y
_atom_site_fract_z
Zn1	Zn	1.573891	-0.439788	-0.397934
Zn2	Zn	1.580818	-0.607524	-0.280248
Zn3	Zn	1.406164	-0.432799	-0.280257
Zn4	Zn	1.399119	-0.614487	-0.397907
O5	O	1.489998	-0.523650	-0.339086
O6	O	1.721045	-0.462050	-0.382330
O7	O	1.563496	-0.578507	-0.181759
O8	O	1.428463	-0.287491	-0.295882
O9	O	1.726134	-0.585285	-0.295866
O10	O	1.551691	-0.292626	-0.382339
O11	O	1.435179	-0.450137	-0.181766
O12	O	1.258994	-0.456889	-0.295856
O13	O	1.416456	-0.597152	-0.496400
O14	O	1.253818	-0.590374	-0.382293
O15	O	1.544860	-0.468802	-0.496420
O16	O	1.556665	-0.754683	-0.295841
O17	O	1.423172	-0.759799	-0.382285
C18	C	1.218489	-0.523630	-0.339073
C19	C	1.102335	-0.523647	-0.339084
C20	C	0.933027	-0.584543	-0.296255
C21	C	1.053078	-0.584526	-0.296242
C22	C	1.489933	-0.795159	-0.339074
C23	C	1.490000	-0.911313	-0.339092
C24	C	1.556129	-0.960534	-0.296364
C25	C	1.556199	-1.080586	-0.296382
C26	C	1.762567	-0.523670	-0.339100
C27	C	1.878720	-0.523679	-0.339106
C28	C	1.479100	-0.534533	-0.522661
C29	C	1.474455	-0.539172	-0.600890
C30	C	1.490090	-0.251081	-0.339114
C31	C	1.490130	-0.134929	-0.339126
C32	C	1.539123	-0.474528	-0.637654
C33	C	1.534747	-0.478882	-0.711158
C34	C	1.465707	-0.547886	-0.747897
C35	C	1.401032	-0.612531	-0.711129
C36	C	1.405404	-0.608171	-0.637626
C37	C	1.445458	-0.568086	-0.967726
C38	C	1.441093	-0.572443	-1.041234
C39	C	1.574807	-0.438792	-1.041258
C40	C	1.579177	-0.434443	-0.967754
C41	C	1.514498	-0.499085	-0.930992
N42	N	1.461234	-0.552340	-0.823030
N43	N	1.518967	-0.494624	-0.855860
C44	C	1.500914	-0.512733	-0.156226
C45	C	1.505761	-0.507800	-0.077997
H46	H	1.612697	-0.913800	-0.259773
C47	C	1.039272	-0.453245	-0.388651
C48	C	1.054524	-0.334086	-0.383052
C49	C	0.991452	-0.263685	-0.432619
C50	C	0.913127	-0.312443	-0.487785
C51	C	0.897872	-0.431608	-0.493386
C52	C	0.960944	-0.502009	-0.443819
H53	H	1.112508	-0.297988	-0.342213
H54	H	1.002746	-0.175471	-0.428472
H55	H	0.866437	-0.260327	-0.524477
H56	H	0.839888	-0.467707	-0.534226
H57	H	0.949650	-0.590224	-0.447966
H58	H	1.352734	-0.660800	-0.607694
H59	H	0.921103	-0.471555	-0.375781
C60	C	1.645941	-0.367682	-1.081698
C61	C	1.724964	-0.415962	-1.132234
C62	C	1.796099	-0.344845	-1.172674
C63	C	1.788210	-0.225448	-1.162577
C64	C	1.709183	-0.177162	-1.112039
C65	C	1.638049	-0.248279	-1.071599
H66	H	1.730807	-0.504353	-1.139710
H67	H	1.854599	-0.380590	-1.210086
H68	H	1.840868	-0.172803	-1.192513
H69	H	1.703340	-0.088771	-1.104563
H70	H	1.579548	-0.212533	-1.034187
H71	H	1.099771	-0.636640	-0.259559
C72	C	0.875780	-0.654959	-0.246703
C73	C	0.803979	-0.606221	-0.191553
C74	C	0.746734	-0.676639	-0.142000
C75	C	0.761291	-0.795794	-0.147596
C76	C	0.833095	-0.844538	-0.202748
C77	C	0.890340	-0.774120	-0.252302
H78	H	0.793200	-0.518010	-0.187408
H79	H	0.693579	-0.640555	-0.101173
H80	H	0.718915	-0.847922	-0.110914
H81	H	0.843874	-0.932749	-0.206893
H82	H	0.943495	-0.810204	-0.293129
H83	H	1.612812	-1.122925	-0.259800
C84	C	1.413637	-1.077748	-0.388550
C85	C	1.333471	-1.000960	-0.357947
C86	C	1.256978	-0.943770	-0.407370
C87	C	1.260653	-0.963369	-0.487397
C88	C	1.340823	-1.040161	-0.518004
C89	C	1.417315	-1.097350	-0.468581
H90	H	1.330748	-0.986448	-0.298703
H91	H	1.197631	-0.886924	-0.384712
H92	H	1.204029	-0.921034	-0.523983
H93	H	1.343546	-1.054672	-0.577249
H94	H	1.476662	-1.154197	-0.491239
H95	H	1.433441	-0.958050	-0.375689
C96	C	1.605885	-0.407771	-0.751594
C97	C	1.725280	-0.415714	-0.741500
C98	C	1.796420	-0.344596	-0.781934
C99	C	1.748164	-0.265534	-0.832463
C100	C	1.628762	-0.257588	-0.842560
C101	C	1.557623	-0.328706	-0.802125
H102	H	1.761008	-0.474243	-0.704093
H103	H	1.884809	-0.350478	-0.774459
H104	H	1.800826	-0.212888	-0.862395
H105	H	1.593035	-0.199058	-0.879966
H106	H	1.469233	-0.322823	-0.809600
H107	H	1.595346	-0.418342	-0.607746
H108	H	1.635399	-0.378256	-0.937845
C109	C	1.365177	-0.648384	-1.081649
C110	C	1.294057	-0.719513	-1.041215
C111	C	1.218165	-0.795469	-1.081630
C112	C	1.213393	-0.800294	-1.162481
C113	C	1.284515	-0.729162	-1.202920
C114	C	1.360407	-0.653207	-1.162504
H115	H	1.297587	-0.715943	-0.981360
H116	H	1.165516	-0.848125	-1.051694
H117	H	1.157213	-0.856521	-1.192399
H118	H	1.280985	-0.732732	-1.262774
H119	H	1.413057	-0.600550	-1.192440
H120	H	1.392807	-0.620737	-0.937803
C121	C	1.325087	-0.688436	-0.751540
C122	C	1.320278	-0.693241	-0.832390
C123	C	1.244333	-0.769151	-0.872799
C124	C	1.173197	-0.840256	-0.832358
C125	C	1.178003	-0.835453	-0.751503
C126	C	1.253948	-0.759544	-0.711094
H127	H	1.372939	-0.640603	-0.862331
H128	H	1.240776	-0.772705	-0.932653
H129	H	1.116978	-0.896449	-0.862271
H130	H	1.125342	-0.888092	-0.721562
H131	H	1.257505	-0.755989	-0.651240
