data_functionalizedCrystal
_audit_creation_method	'MofGen! by Chris Wilmer'
_symmetry_space_group_name_H-M	'P1'
_symmetry_Int_Tables_number	1
_symmetry_cell_setting	triclinic
loop_
_symmetry_equiv_pos_as_xyz
  x,y,z
_cell_length_a	19.121102
_cell_length_b	25.639240
_cell_length_c	19.120904
_cell_angle_alpha	87.596818
_cell_angle_beta	89.911827
_cell_angle_gamma	87.586654
loop_
_atom_site_label
_atom_site_type_symbol
_atom_site_fract_x
_atom_site_fract_y
_atom_site_fract_z
Zn1	Zn	1.054802	-0.255751	0.442001
Zn2	Zn	1.059707	-0.339618	0.324744
Zn3	Zn	0.942572	-0.248315	0.319786
Zn4	Zn	0.937519	-0.339266	0.436946
O5	O	0.998650	-0.295737	0.380869
O6	O	1.153558	-0.270136	0.430636
O7	O	1.048337	-0.324541	0.225982
O8	O	0.957522	-0.176139	0.336039
O9	O	1.157162	-0.331752	0.344488
O10	O	1.039977	-0.181603	0.425829
O11	O	0.962278	-0.257461	0.222340
O12	O	0.843797	-0.257120	0.331138
O13	O	0.948909	-0.331153	0.535721
O14	O	0.840084	-0.323942	0.417215
O15	O	1.035076	-0.269795	0.539434
O16	O	1.043437	-0.412733	0.339587
O17	O	0.953665	-0.412475	0.422022
C18	C	0.816503	-0.289687	0.373090
C19	C	0.738579	-0.287111	0.369779
C20	C	0.700059	-0.320740	0.412969
C21	C	0.626841	-0.318313	0.409861
C22	C	0.592145	-0.282260	0.363559
C23	C	0.630670	-0.248627	0.320368
C24	C	0.703887	-0.251052	0.323480
C25	C	0.371174	-0.273193	0.351928
C26	C	0.297952	-0.270772	0.348818
C27	C	0.294127	-0.340458	0.438312
C28	C	0.367346	-0.342881	0.441417
C29	C	0.405865	-0.309247	0.398228
C30	C	0.517304	-0.279779	0.360380
C31	C	0.480704	-0.311725	0.401411
C32	C	0.998553	-0.431575	0.380810
C33	C	0.998575	-0.489690	0.380811
C34	C	1.041603	-0.852867	0.427705
C35	C	1.041623	-0.907472	0.427720
O36	O	1.078092	-0.938096	0.467529
N37	N	0.998745	-0.931982	0.380941
C38	C	0.955838	-0.901883	0.334149
O39	O	0.919367	-0.927744	0.294362
C40	C	0.955815	-0.847279	0.334138
C41	C	0.998701	-0.822772	0.380915
C42	C	1.084486	-0.828360	0.474479
C43	C	1.084467	-0.773758	0.474463
C44	C	1.041565	-0.743663	0.427673
C45	C	0.998682	-0.768170	0.380899
C46	C	0.912905	-0.817181	0.287349
C47	C	0.912885	-0.762573	0.287343
C48	C	0.955771	-0.738066	0.334120
C49	C	0.955761	-0.683474	0.334092
N50	N	0.998639	-0.658964	0.380871
C51	C	1.041541	-0.689059	0.427661
C52	C	0.955889	-1.016556	0.334177
C53	C	0.955915	-1.071160	0.334184
C54	C	1.041700	-1.076745	0.427756
C55	C	1.041677	-1.022140	0.427745
C56	C	0.998768	-0.992046	0.380956
C57	C	1.041498	-0.574391	0.427623
C58	C	1.041477	-0.519785	0.427601
C59	C	0.955690	-0.514204	0.334032
C60	C	0.955713	-0.568806	0.334051
C61	C	0.998620	-0.598899	0.380853
O62	O	0.919309	-0.652817	0.294305
O63	O	1.077999	-0.663190	0.467448
C64	C	1.181508	-0.301812	0.388679
C65	C	1.259432	-0.304401	0.392007
C66	C	0.990882	-0.301264	0.563726
C67	C	0.987571	-0.303619	0.641649
C68	C	0.998766	-0.159371	0.380945
C69	C	0.998815	-0.101259	0.380977
C70	C	1.006429	-0.290196	0.198725
C71	C	1.009875	-0.287698	0.120809
C72	C	1.030877	-0.272781	0.680192
C73	C	1.027758	-0.274992	0.753408
C74	C	0.981337	-0.308044	0.788080
C75	C	0.938027	-0.338883	0.749532
C76	C	0.941143	-0.336669	0.676317
C77	C	0.969681	-0.316323	1.009046
C78	C	0.966570	-0.318536	1.082266
C79	C	1.056300	-0.254644	1.086137
C80	C	1.059415	-0.252436	1.012920
C81	C	1.016102	-0.283273	0.974378
C82	C	0.978149	-0.310305	0.862919
C83	C	1.019287	-0.281008	0.899541
H84	H	0.602415	-0.219270	0.282671
H85	H	1.076403	-0.499833	0.465693
H86	H	0.900227	-0.365792	0.777768
H87	H	0.735249	-0.223665	0.288314
H88	H	0.402528	-0.245810	0.316755
H89	H	1.076431	-0.598887	0.465738
H90	H	1.119386	-0.753808	0.512554
H91	H	1.091562	-0.229538	1.117525
H92	H	0.921001	-1.091108	0.296086
H93	H	1.119421	-0.852858	0.512585
H94	H	1.076598	-1.002191	0.465835
H95	H	0.920949	-0.992056	0.296070
H96	H	0.920797	-0.588760	0.295956
H97	H	1.076632	-1.101258	0.465857
H98	H	0.928766	-0.345452	1.110494
H99	H	1.063023	-0.249882	0.784786
H100	H	0.262757	-0.367840	0.473474
H101	H	0.920762	-0.489692	0.295934
H102	H	0.508956	-0.341078	0.439113
H103	H	0.934423	-0.341441	0.977674
H104	H	0.940356	-0.337219	0.891158
H105	H	0.489047	-0.250426	0.322679
H106	H	0.595480	-0.345698	0.445030
H107	H	0.728303	-0.350100	0.450670
H108	H	0.905872	-0.361775	0.644936
H109	H	1.068680	-0.245869	0.651967
H110	H	0.877982	-0.837124	0.249258
H111	H	0.269705	-0.241408	0.311118
H112	H	1.097218	-0.225523	0.984695
H113	H	1.057080	-0.254095	0.871307
H114	H	0.395590	-0.372241	0.479119
H115	H	0.877940	-0.738073	0.249242
