data_functionalizedCrystal
_audit_creation_method	'MofGen! by Chris Wilmer'
_symmetry_space_group_name_H-M	'P1'
_symmetry_Int_Tables_number	1
_symmetry_cell_setting	triclinic
loop_
_symmetry_equiv_pos_as_xyz
  x,y,z
_cell_length_a	10.654550
_cell_length_b	17.038272
_cell_length_c	9.130313
_cell_angle_alpha	89.995195
_cell_angle_beta	89.999724
_cell_angle_gamma	87.798243
loop_
_atom_site_label
_atom_site_type_symbol
_atom_site_fract_x
_atom_site_fract_y
_atom_site_fract_z
O1	O	1.678042	0.109878	-0.121691
O2	O	1.313536	0.120346	-0.121718
O3	O	1.493623	0.001285	-0.121693
O4	O	1.497955	0.228940	-0.121716
O5	O	1.493609	0.001281	0.121906
O6	O	1.313522	0.120343	0.121881
O7	O	1.678029	0.109875	0.121908
Cu8	Cu	1.495774	0.115108	0.144137
Cu9	Cu	1.495790	0.115113	-0.143947
O10	O	1.497942	0.228936	0.121883
C11	C	1.266660	0.119576	0.000078
C12	C	1.127003	0.117276	0.000068
C13	C	1.054026	0.187378	0.000065
C14	C	0.922805	0.185213	0.000091
C15	C	0.937548	0.042838	0.000116
C16	C	1.068767	0.045004	0.000101
C17	C	1.489675	-0.027867	0.000106
C18	C	1.477918	-0.114726	0.000104
C19	C	1.585862	-0.164237	0.000114
C20	C	1.574808	-0.245849	0.000099
C21	C	1.455808	-0.277949	0.000085
C22	C	1.347855	-0.228431	0.000072
C23	C	1.358911	-0.146820	0.000076
C24	C	1.416750	-0.523925	0.000063
C25	C	1.405702	-0.605542	0.000063
C26	C	1.632655	-0.622955	0.000088
C27	C	1.643701	-0.541341	0.000101
C28	C	1.535748	-0.491831	0.000079
C29	C	1.444505	-0.361369	0.000075
C30	C	1.547052	-0.408412	0.000079
C31	C	1.724905	0.110645	0.000108
C32	C	1.864561	0.112945	0.000109
C33	C	1.501889	0.258088	0.000081
C34	C	1.513646	0.344947	0.000072
N35	N	1.495772	0.115105	0.346759
N36	N	1.495802	0.115110	-0.346570
C37	C	1.575545	0.062407	0.423422
C38	C	1.575557	0.062407	0.576759
C39	C	1.416019	0.167810	0.576757
C40	C	1.416002	0.167806	0.423423
H41	H	0.863392	0.242297	0.000091
O42	O	0.881116	-0.027411	-0.000064
C43	C	0.917634	-0.070178	-0.126243
H44	H	1.010811	-0.048364	-0.168312
H45	H	0.842756	-0.061526	-0.214582
C46	C	0.818363	-0.184840	-0.036243
C47	C	0.932810	-0.158053	-0.087906
H48	H	0.827720	-0.239046	-0.012599
H49	H	0.793756	-0.156027	0.048764
H50	H	0.755977	-0.177623	-0.109869
H51	H	0.995190	-0.165261	-0.014275
H52	H	0.957429	-0.186869	-0.172900
O53	O	1.338480	0.218897	0.651395
C54	C	1.256482	0.176553	0.740091
H55	H	1.299998	0.115627	0.763068
H56	H	1.163039	0.170698	0.681019
C57	C	1.180910	0.295340	0.857516
C58	C	1.234362	0.220511	0.885747
H59	H	1.167260	0.322456	0.947361
H60	H	1.236150	0.323869	0.797757
H61	H	1.103047	0.290450	0.808286
H62	H	1.312230	0.225402	0.934959
H63	H	1.179134	0.191984	0.945518
H64	H	1.351035	0.210719	0.360999
H65	H	1.101438	0.246227	0.000049
H66	H	1.128187	-0.012085	0.000107
H67	H	1.682764	-0.138109	0.000134
O68	O	1.311761	-0.475950	0.000126
C69	C	1.204363	-0.521786	0.000088
H70	H	1.229756	-0.582516	0.046201
H71	H	1.168296	-0.527781	-0.116779
C72	C	1.070277	-0.407128	0.038985
C73	C	1.101463	-0.481716	0.095634
H74	H	1.006800	-0.382411	0.097916
H75	H	1.142632	-0.376247	0.039005
H76	H	1.040229	-0.412135	-0.058403
H77	H	1.131525	-0.476708	0.193013
H78	H	1.029111	-0.512596	0.095633
H79	H	1.271011	-0.106509	0.000068
H80	H	1.643941	-0.382273	0.000058
H81	H	1.640497	0.019494	0.361007
H82	H	1.720544	-0.663274	0.000102
H83	H	1.347615	-0.387514	0.000067
H84	H	1.662708	-0.286159	0.000110
H85	H	1.740603	-0.515213	0.000112
H86	H	1.308794	-0.631674	0.000075
O87	O	1.232231	-0.259574	-0.000205
C88	C	1.165899	-0.234313	-0.126356
H89	H	1.235340	-0.216969	-0.214528
H90	H	1.101557	-0.181514	-0.097840
C91	C	1.001264	-0.322775	-0.075277
C92	C	1.086553	-0.301479	-0.183576
H93	H	0.952315	-0.364204	-0.110571
H94	H	1.045951	-0.339792	0.009717
H95	H	0.947659	-0.278770	-0.051523
H96	H	1.140167	-0.345481	-0.207315
H97	H	1.041874	-0.284471	-0.268576
H98	H	1.640514	0.019495	0.639174
