data_functionalizedCrystal
_audit_creation_method	'MofGen! by Chris Wilmer'
_symmetry_space_group_name_H-M	'P1'
_symmetry_Int_Tables_number	1
_symmetry_cell_setting	triclinic
loop_
_symmetry_equiv_pos_as_xyz
  x,y,z
_cell_length_a	19.077105
_cell_length_b	12.594516
_cell_length_c	12.594509
_cell_angle_alpha	90.024652
_cell_angle_beta	92.318522
_cell_angle_gamma	87.712633
loop_
_atom_site_label
_atom_site_type_symbol
_atom_site_fract_x
_atom_site_fract_y
_atom_site_fract_z
Zn1	Zn	1.076046	-0.489206	0.667170
Zn2	Zn	1.576046	0.010794	1.167170
Zn3	Zn	1.075973	-0.667207	0.489194
Zn4	Zn	1.575973	-0.167207	0.989194
Zn5	Zn	0.958344	-0.482085	0.482057
Zn6	Zn	1.458344	0.017915	0.982057
Zn7	Zn	0.958333	-0.659980	0.659985
Zn8	Zn	1.458333	-0.159980	1.159985
O9	O	1.017174	-0.574619	0.574601
O10	O	1.517174	-0.074619	1.074601
O11	O	1.174528	-0.518823	0.649555
O12	O	1.674528	-0.018823	1.149555
O13	O	1.060343	-0.642695	0.339299
O14	O	1.560343	-0.142695	0.839299
O15	O	0.973992	-0.334086	0.506633
O16	O	1.473992	0.165914	1.006633
O17	O	1.174474	-0.649600	0.518796
O18	O	1.674474	-0.149600	1.018796
O19	O	1.060467	-0.339318	0.642635
O20	O	1.560467	0.160682	1.142635
O21	O	0.973922	-0.506686	0.334056
O22	O	1.473922	-0.006686	0.834056
O23	O	0.859851	-0.499678	0.499666
O24	O	1.359851	0.000322	0.999666
O25	O	0.973973	-0.637282	0.809886
O26	O	1.473973	-0.137282	1.309886
O27	O	0.859842	-0.630377	0.630389
O28	O	1.359842	-0.130377	1.130389
O29	O	1.060457	-0.511815	0.815165
O30	O	1.560457	-0.011815	1.315165
O31	O	1.060333	-0.815192	0.511829
O32	O	1.560333	-0.315192	1.011829
O33	O	0.973903	-0.809882	0.637309
O34	O	1.473903	-0.309882	1.137309
C35	C	0.834309	-0.563471	0.563474
C36	C	1.334309	-0.063471	1.063474
C37	C	0.756078	-0.558728	0.558739
C38	C	1.256078	-0.058728	1.058739
C39	C	0.719340	-0.624650	0.624467
C40	C	1.219340	-0.124650	1.124467
C41	C	0.645834	-0.620178	0.620023
C42	C	1.145834	-0.120178	1.120023
C43	C	0.609068	-0.549790	0.549844
C44	C	1.109068	-0.049790	1.049844
C45	C	0.645812	-0.483861	0.484113
C46	C	1.145812	0.016139	0.984113
C47	C	0.719316	-0.488328	0.488563
C48	C	1.219316	0.011672	0.988563
C49	C	0.389232	-0.529119	0.529253
C50	C	0.889232	-0.029119	1.029253
C51	C	0.315722	-0.524659	0.524805
C52	C	0.815722	-0.024659	1.024805
C53	C	0.315749	-0.660976	0.660718
C54	C	0.815749	-0.160976	1.160718
C55	C	0.389255	-0.665441	0.665157
C56	C	0.889255	-0.165441	1.165157
C57	C	0.425992	-0.599508	0.599430
C58	C	0.925992	-0.099508	1.099430
N59	N	0.533933	-0.545221	0.545297
N60	N	1.033933	-0.045221	1.045297
N61	N	0.501126	-0.604073	0.603983
N62	N	1.001126	-0.104073	1.103983
C63	C	1.017128	-0.851158	0.574588
C64	C	1.517128	-0.351158	1.074588
C65	C	1.017172	-0.969466	0.574622
C66	C	1.517172	-0.469466	1.074622
C67	C	0.970159	-1.035869	0.642820
C68	C	1.470159	-0.535869	1.142820
C69	C	0.953010	-1.105688	0.544657
C70	C	1.453010	-0.605688	1.044657
C71	C	1.034385	-1.110449	0.672806
C72	C	1.534385	-0.610449	1.172806
C73	C	0.999989	-1.037725	0.476405
C74	C	1.499989	-0.537725	0.976405
C75	C	1.081395	-1.042481	0.604622
C76	C	1.581395	-0.542481	1.104622
C77	C	1.064271	-1.112270	0.506393
C78	C	1.564271	-0.612270	1.006393
C79	C	1.200753	-0.585812	0.585773
C80	C	1.700753	-0.085812	1.085773
C81	C	1.278983	-0.590581	0.590534
C82	C	1.778983	-0.090581	1.090534
C83	C	1.017222	-0.574537	0.852225
C84	C	1.517222	-0.074537	1.352225
C85	C	1.017242	-0.574501	0.970532
C86	C	1.517242	-0.074501	1.470532
C87	C	1.017239	-0.297003	0.574639
C88	C	1.517239	0.202997	1.074639
C89	C	1.017267	-0.178699	0.574655
C90	C	1.517267	0.321301	1.074655
C91	C	1.017166	-0.574628	0.298060
C92	C	1.517166	-0.074628	0.798060
C93	C	1.017282	-0.574371	0.179762
C94	C	1.517282	-0.074371	0.679762
C95	C	0.970234	-0.642655	1.107680
C96	C	1.470234	-0.142655	1.607680
C97	C	0.953026	-0.544543	1.035830
C98	C	1.453026	-0.044543	1.535830
C99	C	1.034419	-0.672602	1.040808
C100	C	1.534419	-0.172602	1.540808
C101	C	1.000041	-0.476205	1.109469
C102	C	1.500041	0.023795	1.609469
C103	C	1.081464	-0.604330	1.114455
C104	C	1.581464	-0.104330	1.614455
C105	C	1.064281	-0.506153	1.042639
C106	C	1.564281	-0.006153	1.542639
H107	H	0.749269	-0.681971	0.681611
H108	H	1.249269	-0.181971	1.181611
Cl109	Cl	0.908669	-0.984210	0.731723
Cl110	Cl	1.408669	-0.484210	1.231723
H111	H	1.048930	-0.755620	1.010613
H112	H	1.548930	-0.255620	1.510613
H113	H	0.985406	-1.005939	0.393358
H114	H	1.485406	-0.505939	0.893358
H115	H	0.898742	-1.133605	0.519308
H116	H	1.398742	-0.633605	1.019308
H117	H	1.104069	-1.145528	0.448665
H118	H	1.604069	-0.645528	0.948665
H119	H	0.749228	-0.434641	0.435045
H120	H	1.249228	0.065359	0.935045
H121	H	0.285829	-0.714653	0.714231
H122	H	0.785829	-0.214653	1.214231
Cl123	Cl	0.435469	-0.753935	0.753384
Cl124	Cl	0.935469	-0.253935	1.253384
Cl125	Cl	0.599651	-0.703056	0.702658
Cl126	Cl	1.099651	-0.203056	1.202658
H127	H	0.285789	-0.467328	0.467663
H128	H	0.785789	0.032672	0.967663
H129	H	0.419134	-0.475439	0.475724
H130	H	0.919134	0.024561	0.975724
Cl131	Cl	1.165162	-0.999378	0.643829
Cl132	Cl	1.665162	-0.499378	1.143829
H133	H	1.104051	-0.448393	1.014185
H134	H	1.604051	0.051607	1.514185
Cl135	Cl	1.056804	-1.159720	0.800980
Cl136	Cl	1.556804	-0.659720	1.300980
Cl137	Cl	0.908788	-0.731604	1.151919
Cl138	Cl	1.408788	-0.231604	1.651919
Cl139	Cl	0.599592	-0.395365	0.395894
Cl140	Cl	1.099592	0.104635	0.895894
H141	H	0.898731	-0.519253	1.001423
H142	H	1.398731	-0.019253	1.501423
Cl143	Cl	0.977540	-0.347988	1.155876
Cl144	Cl	1.477540	0.152012	1.655876
Cl145	Cl	1.165266	-0.643421	1.167618
Cl146	Cl	1.665266	-0.143421	1.667618
