data_functionalizedCrystal
_audit_creation_method	'MofGen! by Chris Wilmer'
_symmetry_space_group_name_H-M	'P1'
_symmetry_Int_Tables_number	1
_symmetry_cell_setting	triclinic
loop_
_symmetry_equiv_pos_as_xyz
  x,y,z
_cell_length_a	10.654541
_cell_length_b	9.198806
_cell_length_c	10.723024
_cell_angle_alpha	89.997988
_cell_angle_beta	84.475899
_cell_angle_gamma	89.997395
loop_
_atom_site_label
_atom_site_type_symbol
_atom_site_fract_x
_atom_site_fract_y
_atom_site_fract_z
O1	O	1.667817	-0.120844	0.175258
O2	O	1.302335	-0.120856	0.191960
O3	O	1.493506	-0.120844	0.002034
O4	O	1.476646	-0.120856	0.365184
O5	O	1.493491	0.120941	0.002033
O6	O	1.302320	0.120929	0.191959
O7	O	1.667802	0.120941	0.175257
Cu8	Cu	1.485059	0.143012	0.183608
Cu9	Cu	1.485077	-0.142927	0.183609
O10	O	1.476630	0.120929	0.365183
C11	C	1.255530	0.000035	0.190734
C12	C	1.116087	0.000030	0.187067
N13	N	1.485056	0.344126	0.183607
N14	N	1.485091	-0.344041	0.183600
C15	C	1.088082	0.000005	0.414175
C16	C	1.008571	-0.000014	0.526001
C17	C	0.877553	-0.000015	0.522548
C18	C	0.826045	0.000007	0.407256
C19	C	0.905556	0.000025	0.295430
C20	C	1.036575	0.000022	0.298896
C21	C	0.933561	0.000061	0.068324
C22	C	1.064579	0.000052	0.071775
C23	C	0.882053	0.000082	-0.046967
C24	C	0.961565	0.000090	-0.158796
C25	C	1.092590	0.000090	-0.155338
C26	C	1.144090	0.000070	-0.040051
C27	C	1.714607	0.000047	0.176483
C28	C	1.854050	0.000042	0.180150
C29	C	1.492272	0.000046	-0.044466
C30	C	1.488601	0.000041	-0.183021
C31	C	1.565323	0.416328	0.103511
C32	C	1.565343	0.583740	0.103507
C33	C	1.595570	0.000043	-0.257989
C34	C	1.591778	0.000037	-0.401193
C35	C	1.477865	0.000035	0.411683
C36	C	1.481536	0.000031	0.550238
H37	H	1.194762	-0.000026	0.416998
H38	H	0.919615	0.000107	-0.252658
C39	C	0.702011	-0.124204	-0.113766
C40	C	0.738037	0.000078	-0.050770
H41	H	0.613102	-0.124203	-0.116120
H42	H	0.726482	-0.208509	-0.071048
H43	H	0.742002	-0.124170	-0.196861
H44	H	0.698053	0.000038	0.032329
H45	H	0.713553	0.084405	-0.093485
H46	H	1.689957	0.000055	-0.216153
H47	H	0.812814	-0.000020	0.613606
C48	C	1.314566	0.515517	0.209431
C49	C	1.392301	0.427982	0.276178
H50	H	1.257307	0.567289	0.266584
H51	H	1.268733	0.456146	0.157274
H52	H	1.364941	0.582501	0.159181
H53	H	1.341926	0.360991	0.326421
H54	H	1.438137	0.487358	0.328357
H55	H	1.416372	0.593878	0.252182
H56	H	1.250770	0.000053	-0.037224
H57	H	1.683352	0.000045	-0.465612
H58	H	1.634025	0.354206	0.034935
H59	H	0.719363	0.000023	0.404454
C60	C	1.636614	0.630868	-0.111955
C61	C	1.658115	0.667548	0.010925
H62	H	1.693895	0.682605	-0.169111
H63	H	1.552612	0.655765	-0.126010
H64	H	1.648775	0.529357	-0.124082
H65	H	1.645945	0.769058	0.023055
H66	H	1.742138	0.642661	0.024986
H67	H	1.389957	0.000040	-0.385349
C68	C	1.352321	-0.124262	-0.313507
C69	C	1.361174	0.000033	-0.239486
H70	H	1.273654	-0.124260	-0.348368
H71	H	1.358349	-0.208558	-0.263275
H72	H	1.418949	-0.124247	-0.379091
H73	H	1.294552	0.000013	-0.173895
H74	H	1.355134	0.084351	-0.289720
H75	H	1.157321	0.000110	-0.246401
C76	C	1.025046	-0.124340	0.720639
C77	C	1.065189	-0.000039	0.652727
H78	H	1.059992	-0.124345	0.798876
H79	H	1.052281	-0.208632	0.674542
H80	H	0.935637	-0.124325	0.734574
H81	H	1.154599	-0.000059	0.638784
H82	H	1.037961	0.084275	0.698835
