data_functionalizedCrystal
_audit_creation_method	'MofGen! by Chris Wilmer'
_symmetry_space_group_name_H-M	'P1'
_symmetry_Int_Tables_number	1
_symmetry_cell_setting	triclinic
loop_
_symmetry_equiv_pos_as_xyz
  x,y,z
_cell_length_a	13.897448
_cell_length_b	13.033304
_cell_length_c	13.032268
_cell_angle_alpha	90.922231
_cell_angle_beta	97.148041
_cell_angle_gamma	82.813841
loop_
_atom_site_label
_atom_site_type_symbol
_atom_site_fract_x
_atom_site_fract_y
_atom_site_fract_z
Zn1	Zn	-0.300132	-1.498457	-0.781522
Zn2	Zn	-0.050132	-1.248457	-0.531522
Zn3	Zn	0.199868	-0.998457	-0.281522
Zn4	Zn	0.449868	-0.748457	-0.031522
Zn5	Zn	-0.438750	-1.520199	-0.609548
Zn6	Zn	-0.188750	-1.270199	-0.359548
Zn7	Zn	0.061250	-1.020199	-0.109548
Zn8	Zn	0.311250	-0.770199	0.140452
Zn9	Zn	-0.295035	-1.348318	-0.587693
Zn10	Zn	-0.045035	-1.098318	-0.337693
Zn11	Zn	0.204965	-0.848318	-0.087693
Zn12	Zn	0.454965	-0.598318	0.162307
Zn13	Zn	-0.478956	-1.326451	-0.759583
Zn14	Zn	-0.228956	-1.076451	-0.509583
Zn15	Zn	0.021044	-0.826451	-0.259583
Zn16	Zn	0.271044	-0.576451	-0.009583
O17	O	-0.378218	-1.423356	-0.684587
O18	O	-0.128218	-1.173356	-0.434587
O19	O	0.121782	-0.923356	-0.184587
O20	O	0.371782	-0.673356	0.065413
O21	O	-0.303827	-1.645259	-0.777037
O22	O	-0.053827	-1.395259	-0.527037
O23	O	0.196173	-1.145259	-0.277037
O24	O	0.446173	-0.895259	-0.027037
O25	O	-0.400726	-1.515650	-0.462741
O26	O	-0.150726	-1.265650	-0.212741
O27	O	0.099274	-1.015650	0.037259
O28	O	0.349274	-0.765650	0.287259
O29	O	-0.160728	-1.368286	-0.613440
O30	O	0.089272	-1.118286	-0.363440
O31	O	0.339272	-0.868286	-0.113440
O32	O	0.589272	-0.618286	0.136560
O33	O	-0.405669	-1.661233	-0.650689
O34	O	-0.155669	-1.411233	-0.400689
O35	O	0.094331	-1.161233	-0.150689
O36	O	0.344331	-0.911233	0.099311
O37	O	-0.164473	-1.478592	-0.755845
O38	O	0.085527	-1.228592	-0.505845
O39	O	0.335527	-0.978592	-0.255845
O40	O	0.585527	-0.728592	-0.005845
O41	O	-0.295140	-1.389369	-0.446685
O42	O	-0.045140	-1.139369	-0.196685
O43	O	0.204860	-0.889369	0.053315
O44	O	0.454860	-0.639369	0.303315
O45	O	-0.334126	-1.201499	-0.592167
O46	O	-0.084126	-0.951499	-0.342167
O47	O	0.165874	-0.701499	-0.092167
O48	O	0.415874	-0.451499	0.157833
O49	O	-0.474194	-1.331017	-0.906401
O50	O	-0.224194	-1.081017	-0.656401
O51	O	0.025806	-0.831017	-0.406401
O52	O	0.275806	-0.581017	-0.156401
O53	O	-0.469252	-1.185433	-0.718453
O54	O	-0.219252	-0.935433	-0.468453
O55	O	0.030748	-0.685433	-0.218453
O56	O	0.280748	-0.435433	0.031547
O57	O	-0.342813	-1.457389	-0.922519
O58	O	-0.092813	-1.207389	-0.672519
O59	O	0.157187	-0.957389	-0.422519
O60	O	0.407187	-0.707389	-0.172519
O61	O	-0.579067	-1.494446	-0.629416
O62	O	-0.329067	-1.244446	-0.379416
O63	O	-0.079067	-0.994446	-0.129416
O64	O	0.170933	-0.744446	0.120584
O65	O	-0.608606	-1.352100	-0.739645
O66	O	-0.358606	-1.102100	-0.489645
O67	O	-0.108606	-0.852100	-0.239645
O68	O	0.141394	-0.602100	0.010355
C69	C	-0.405499	-1.156150	-0.650558
C70	C	-0.155499	-0.906150	-0.400558
C71	C	0.094501	-0.656150	-0.150558
C72	C	0.344501	-0.406150	0.099442
C73	C	-0.417197	-1.041834	-0.636025
C74	C	-0.167197	-0.791834	-0.386025
C75	C	0.082803	-0.541834	-0.136025
C76	C	0.332803	-0.291834	0.113975
C77	C	-0.372126	-0.982953	-0.692157
C78	C	-0.122126	-0.732953	-0.442157
C79	C	0.127874	-0.482953	-0.192157
C80	C	0.377874	-0.232953	0.057843
C81	C	-0.384215	-0.864802	-0.677138
C82	C	-0.134215	-0.614802	-0.427138
C83	C	0.115785	-0.364802	-0.177138
C84	C	0.365785	-0.114802	0.072862
C85	C	-0.628836	-1.423285	-0.684547
C86	C	-0.378836	-1.173285	-0.434547
C87	C	-0.128836	-0.923285	-0.184547
C88	C	0.121164	-0.673285	0.065453
C89	C	-0.736047	-1.423344	-0.684577
C90	C	-0.486047	-1.173344	-0.434577
C91	C	-0.236047	-0.923344	-0.184577
C92	C	0.013953	-0.673344	0.065423
C93	C	-0.932339	-1.423444	-0.684655
C94	C	-0.682339	-1.173444	-0.434655
C95	C	-0.432339	-0.923444	-0.184655
C96	C	-0.182339	-0.673444	0.065345
C97	C	-0.823109	-1.423385	-0.684614
C98	C	-0.573109	-1.173385	-0.434614
C99	C	-0.323109	-0.923385	-0.184614
C100	C	-0.073109	-0.673385	0.065386
C101	C	-0.126622	-1.423453	-0.684652
C102	C	0.123378	-1.173453	-0.434652
C103	C	0.373378	-0.923453	-0.184652
C104	C	0.623378	-0.673453	0.065348
C105	C	-0.019406	-1.423494	-0.684680
C106	C	0.230594	-1.173494	-0.434680
C107	C	0.480594	-0.923494	-0.184680
C108	C	0.730594	-0.673494	0.065320
C109	C	-0.413557	-1.389339	-0.952817
C110	C	-0.163557	-1.139339	-0.702817
C111	C	0.086443	-0.889339	-0.452817
C112	C	0.336443	-0.639339	-0.202817
C113	C	-0.428617	-1.374842	-1.067121
C114	C	-0.178617	-1.124842	-0.817121
C115	C	0.071383	-0.874842	-0.567121
C116	C	0.321383	-0.624842	-0.317121
C117	C	-0.350826	-0.691607	-0.718741
C118	C	-0.100826	-0.441607	-0.468741
C119	C	0.149174	-0.191607	-0.218741
C120	C	0.399174	0.058393	0.031259
C121	C	-0.339138	-0.805922	-0.733278
C122	C	-0.089138	-0.555922	-0.483278
C123	C	0.160862	-0.305922	-0.233278
C124	C	0.410862	-0.055922	0.016722
C125	C	-0.370326	-1.430906	-1.126056
C126	C	-0.120326	-1.180906	-0.876056
C127	C	0.129674	-0.930906	-0.626056
C128	C	0.379674	-0.680906	-0.376056
C129	C	-0.385889	-1.415925	-1.244195
C130	C	-0.135889	-1.165925	-0.994195
C131	C	0.114111	-0.915925	-0.744195
C132	C	0.364111	-0.665925	-0.494195
C133	C	-0.342941	-1.457301	-0.417407
C134	C	-0.092941	-1.207301	-0.167407
C135	C	0.157059	-0.957301	0.082593
C136	C	0.407059	-0.707301	0.332593
C137	C	-0.327590	-1.471996	-0.303129
C138	C	-0.077590	-1.221996	-0.053129
C139	C	0.172410	-0.971996	0.196871
C140	C	0.422410	-0.721996	0.446871
H141	H	-0.464730	-1.004775	-0.576847
H142	H	-0.214730	-0.754775	-0.326847
H143	H	0.035270	-0.504775	-0.076847
H144	H	0.285270	-0.254775	0.173153
Br145	Br	-0.267914	-1.529365	-1.064386
Br146	Br	-0.017914	-1.279365	-0.814386
Br147	Br	0.232086	-1.029365	-0.564386
Br148	Br	0.482086	-0.779365	-0.314386
H149	H	-0.291593	-0.842976	-0.792453
H150	H	-0.041593	-0.592976	-0.542453
H151	H	0.208407	-0.342976	-0.292453
H152	H	0.458407	-0.092976	-0.042453
H153	H	-0.447314	-1.356825	-1.281195
H154	H	-0.197314	-1.106825	-1.031195
H155	H	0.052686	-0.856825	-0.781195
H156	H	0.302686	-0.606825	-0.531195
H157	H	-0.266154	-1.531084	-1.266129
H158	H	-0.016154	-1.281084	-1.016129
H159	H	0.233846	-1.031084	-0.766129
H160	H	0.483846	-0.781084	-0.516129
Br161	Br	-0.530996	-1.276344	-1.128786
Br162	Br	-0.280996	-1.026344	-0.878786
Br163	Br	-0.030996	-0.776344	-0.628786
Br164	Br	0.219004	-0.526344	-0.378786
H165	H	-0.324586	-1.020013	-0.751329
H166	H	-0.074586	-0.770013	-0.501329
H167	H	0.175414	-0.520013	-0.251329
H168	H	0.425414	-0.270013	-0.001329
H169	H	-0.431752	-0.827747	-0.617956
H170	H	-0.181752	-0.577747	-0.367956
H171	H	0.068248	-0.327747	-0.117956
H172	H	0.318248	-0.077747	0.132044
