data_functionalizedCrystal
_audit_creation_method	'MofGen! by Chris Wilmer'
_symmetry_space_group_name_H-M	'P1'
_symmetry_Int_Tables_number	1
_symmetry_cell_setting	triclinic
loop_
_symmetry_equiv_pos_as_xyz
  x,y,z
_cell_length_a	25.639242
_cell_length_b	18.215404
_cell_length_c	18.215399
_cell_angle_alpha	90.029924
_cell_angle_beta	89.974553
_cell_angle_gamma	89.980650
loop_
_atom_site_label
_atom_site_type_symbol
_atom_site_fract_x
_atom_site_fract_y
_atom_site_fract_z
Zn1	Zn	0.799296	0.293062	-0.416287
Zn2	Zn	1.299296	0.793062	0.083713
Zn3	Zn	0.799237	0.416139	-0.293222
Zn4	Zn	1.299237	0.916139	0.206778
Zn5	Zn	0.711867	0.293081	-0.293216
Zn6	Zn	1.211867	0.793081	0.206784
Zn7	Zn	0.711840	0.416082	-0.416228
Zn8	Zn	1.211840	0.916082	0.083772
O9	O	0.755560	0.354591	-0.354739
O10	O	1.255560	0.854591	0.145261
O11	O	0.872453	0.309404	-0.399990
O12	O	1.372453	0.809404	0.100010
O13	O	0.787634	0.399846	-0.190237
O14	O	1.287634	0.899846	0.309763
O15	O	0.723501	0.190094	-0.309564
O16	O	1.223501	0.690094	0.190436
O17	O	0.872410	0.399828	-0.309574
O18	O	1.372410	0.899828	0.190426
O19	O	0.787734	0.190080	-0.399984
O20	O	1.287734	0.690080	0.100016
O21	O	0.723444	0.309436	-0.190233
O22	O	1.223444	0.809436	0.309767
O23	O	0.638699	0.309381	-0.309507
O24	O	1.138699	0.809381	0.190493
O25	O	0.723455	0.399731	-0.519221
O26	O	1.223455	0.899731	-0.019221
O27	O	0.638679	0.399750	-0.399883
O28	O	1.138679	0.899750	0.100117
O29	O	0.787708	0.309349	-0.519264
O30	O	1.287708	0.809349	-0.019264
O31	O	0.787608	0.519115	-0.309517
O32	O	1.287608	1.019115	0.190483
O33	O	0.723398	0.519074	-0.399889
O34	O	1.223398	1.019074	0.100111
C35	C	0.619718	0.354562	-0.354689
C36	C	1.119718	0.854562	0.145311
C37	C	0.561604	0.354567	-0.354685
C38	C	1.061604	0.854567	0.145315
C39	C	0.755507	0.545797	-0.354713
C40	C	1.255507	1.045797	0.145287
C41	C	0.755533	0.627596	-0.354727
C42	C	1.255533	1.127596	0.145273
C43	C	0.755585	0.354532	-0.546692
C44	C	1.255585	0.854532	-0.046692
C45	C	0.755595	0.354507	-0.628490
C46	C	1.255595	0.854507	-0.128490
C47	C	0.201239	0.401724	-0.401753
C48	C	0.701239	0.901724	0.098247
C49	C	0.146635	0.401729	-0.401765
C50	C	0.646635	0.901729	0.098235
O51	O	0.118397	0.441787	-0.441741
O52	O	0.618397	0.941787	0.058259
N53	N	0.119321	0.354611	-0.354787
N54	N	0.619321	0.854611	0.145213
C55	C	0.146615	0.307481	-0.307799
C56	C	0.646615	0.807481	0.192201
O57	O	0.118368	0.267403	-0.267842
O58	O	0.618368	0.767403	0.232158
C59	C	0.201218	0.307473	-0.307792
C60	C	0.701218	0.807473	0.192208
C61	C	0.228529	0.354599	-0.354768
C62	C	0.728529	0.854599	0.145232
C63	C	0.228550	0.448846	-0.448726
C64	C	0.728550	0.948846	0.051274
C65	C	0.283150	0.448842	-0.448713
C66	C	0.783150	0.948842	0.051287
C67	C	0.310440	0.401717	-0.401727
C68	C	0.810440	0.901717	0.098273
C69	C	0.283129	0.354595	-0.354755
C70	C	0.783129	0.854595	0.145245
C71	C	0.228511	0.260339	-0.260809
C72	C	0.728511	0.760339	0.239191
C73	C	0.283118	0.260335	-0.260806
C74	C	0.783118	0.760335	0.239194
C75	C	0.310428	0.307461	-0.307781
C76	C	0.810428	0.807461	0.192219
C77	C	0.365020	0.307466	-0.307757
C78	C	0.865020	0.807466	0.192243
N79	N	0.392333	0.354584	-0.354735
N80	N	0.892333	0.854584	0.145265
C81	C	0.365043	0.401709	-0.401720
C82	C	0.865043	0.901709	0.098280
C83	C	0.031944	0.307499	-0.307819
C84	C	0.531944	0.807499	0.192181
C85	C	-0.022658	0.307510	-0.307822
C86	C	0.477342	0.807510	0.192178
C87	C	-0.022634	0.401758	-0.401789
C88	C	0.477366	0.901758	0.098211
C89	C	0.031969	0.401750	-0.401781
C90	C	0.531969	0.901750	0.098219
C91	C	0.059258	0.354617	-0.354797
C92	C	0.559258	0.854617	0.145203
C93	C	0.479708	0.401698	-0.401689
C94	C	0.979708	0.901698	0.098311
C95	C	0.534314	0.401692	-0.401670
C96	C	1.034314	0.901692	0.098330
C97	C	0.534285	0.307443	-0.307707
C98	C	1.034285	0.807443	0.192293
C99	C	0.479685	0.307451	-0.307723
C100	C	0.979685	0.807451	0.192277
C101	C	0.452398	0.354581	-0.354720
C102	C	0.952398	0.854581	0.145280
O103	O	0.393292	0.267426	-0.267802
O104	O	0.893292	0.767426	0.232198
O105	O	0.393296	0.441773	-0.441677
O106	O	0.893296	0.941773	0.058323
C107	C	0.891933	0.354620	-0.354789
C108	C	1.391933	0.854620	0.145211
C109	C	0.950047	0.354633	-0.354811
C110	C	1.450047	0.854633	0.145189
C111	C	0.789048	0.815787	-0.307767
C112	C	1.289048	1.315787	0.192233
C113	C	0.789072	0.892646	-0.307789
C114	C	1.289072	1.392646	0.192211
C115	C	0.722152	0.892642	-0.401816
C116	C	1.222152	1.392642	0.098184
C117	C	0.722131	0.815785	-0.401797
C118	C	1.222131	1.315785	0.098203
C119	C	0.755578	0.777359	-0.354769
C120	C	1.255578	1.277359	0.145231
C121	C	0.755624	0.931075	-0.354809
C122	C	1.255624	1.431075	0.145191
C123	C	0.755650	1.014409	-0.354833
C124	C	1.255650	1.514409	0.145167
C125	C	0.755553	0.694020	-0.354745
C126	C	1.255553	1.194020	0.145255
C127	C	0.755631	1.162638	-0.354793
C128	C	1.255631	1.662638	0.145207
C129	C	0.755669	1.080839	-0.354851
C130	C	1.255669	1.580839	0.145149
C131	C	0.722200	0.307399	-0.816683
C132	C	1.222200	0.807399	-0.316683
C133	C	0.722209	0.307384	-0.893542
C134	C	1.222209	0.807384	-0.393542
C135	C	0.789054	0.401527	-0.893536
C136	C	1.289054	0.901527	-0.393536
C137	C	0.789041	0.401545	-0.816678
C138	C	1.289041	0.901545	-0.316678
C139	C	0.755615	0.354477	-0.778254
C140	C	1.255615	0.854477	-0.278254
C141	C	0.755637	0.354444	-0.931970
C142	C	1.255637	0.854444	-0.431970
C143	C	0.755647	0.354428	-1.015304
C144	C	1.255647	0.854428	-0.515304
C145	C	0.755604	0.354493	-0.694915
C146	C	1.255604	0.854493	-0.194915
C147	C	0.755566	0.354596	-0.163532
C148	C	1.255566	0.854596	0.336468
C149	C	0.755656	0.354414	-0.081734
C150	C	1.255656	0.854414	0.418266
H151	H	0.457498	0.440074	-0.439961
H152	H	0.957498	0.940074	0.060039
H153	H	-0.044890	0.269143	-0.269562
H154	H	0.455110	0.769143	0.230438
O155	O	0.309647	0.214472	-0.215265
O156	O	0.809647	0.714472	0.284735
C157	C	0.371330	0.115119	-0.205519
C158	C	0.871330	0.615119	0.294481
C159	C	0.341311	0.166998	-0.257178
C160	C	0.841311	0.666998	0.242822
H161	H	0.396946	0.076734	-0.239384
H162	H	0.896946	0.576734	0.260616
H163	H	0.342449	0.081390	-0.171963
H164	H	0.842449	0.581390	0.328037
H165	H	0.396847	0.148870	-0.166954
H166	H	0.896847	0.648870	0.333046
H167	H	0.315794	0.133305	-0.295787
H168	H	0.815794	0.633305	0.204213
H169	H	0.370220	0.200730	-0.290682
H170	H	0.870220	0.700730	0.209318
H171	H	0.457447	0.269078	-0.269470
H172	H	0.957447	0.769078	0.230530
H173	H	0.816328	0.923930	-0.269516
H174	H	1.316328	1.423930	0.230484
H175	H	0.694876	0.784495	-0.440075
H176	H	1.194876	1.284495	0.059925
O177	O	0.821529	0.447178	-0.779262
O178	O	1.321529	0.947178	-0.279262
C179	C	0.892119	0.457109	-0.692535
C180	C	1.392119	0.957109	-0.192535
C181	C	0.855356	0.405349	-0.734849
C182	C	1.355356	0.905349	-0.234849
H183	H	0.919485	0.423311	-0.656628
H184	H	1.419485	0.923311	-0.156628
H185	H	0.868123	0.495581	-0.656485
H186	H	1.368123	0.995581	-0.156485
H187	H	0.915990	0.490760	-0.733212
H188	H	1.415990	0.990760	-0.233212
H189	H	0.831477	0.371650	-0.694225
H190	H	1.331477	0.871650	-0.194225
H191	H	0.879383	0.366926	-0.770910
H192	H	1.379383	0.866926	-0.270910
H193	H	0.816283	0.784503	-0.269474
H194	H	1.316283	1.284503	0.230526
O195	O	0.309595	0.494639	-0.494420
O196	O	0.809595	0.994639	0.005580
C197	C	0.303835	0.588145	-0.587596
C198	C	0.803835	1.088145	-0.087596
C199	C	0.273827	0.536305	-0.535877
C200	C	0.773827	1.036305	-0.035877
H201	H	0.274930	0.621857	-0.621116
H202	H	0.774930	1.121857	-0.121116
H203	H	0.329405	0.554439	-0.626184
H204	H	0.829405	1.054439	-0.126184
H205	H	0.329394	0.626555	-0.553732
H206	H	0.829394	1.126555	-0.053732
H207	H	0.248240	0.497885	-0.569681
H208	H	0.748240	0.997885	-0.069681
H209	H	0.248290	0.570057	-0.497286
H210	H	0.748290	1.070057	0.002714
H211	H	0.206336	0.487221	-0.486991
H212	H	0.706336	0.987221	0.013009
H213	H	0.556548	0.440071	-0.439924
H214	H	1.056548	0.940071	0.060076
H215	H	0.694982	0.269073	-0.785400
H216	H	1.194982	0.769073	-0.285400
H217	H	0.694920	0.923938	-0.440104
H218	H	1.194920	1.423938	0.059896
H219	H	0.206283	0.221966	-0.222554
H220	H	0.706283	0.721966	0.277446
H221	H	0.694998	0.269049	-0.924828
H222	H	1.194998	0.769049	-0.424828
O223	O	0.058415	0.447547	-0.447487
O224	O	0.558415	0.947547	0.052513
C225	C	0.052661	0.541059	-0.540657
C226	C	0.552661	1.041059	-0.040657
C227	C	0.022649	0.489219	-0.488941
C228	C	0.522649	0.989219	0.011059
H229	H	0.023757	0.574775	-0.574175
H230	H	0.523757	1.074775	-0.074175
H231	H	0.078229	0.507352	-0.579248
H232	H	0.578229	1.007352	-0.079248
H233	H	0.078221	0.579464	-0.506791
H234	H	0.578221	1.079464	-0.006791
H235	H	-0.002939	0.450803	-0.522748
H236	H	0.497061	0.950803	-0.022748
H237	H	-0.002886	0.522972	-0.450349
H238	H	0.497114	1.022972	0.049651
O239	O	-0.049230	0.447463	-0.447413
O240	O	0.450770	0.947463	0.052587
C241	C	-0.133346	0.489256	-0.489036
C242	C	0.366654	0.989256	0.010964
C243	C	-0.103290	0.437450	-0.437346
C244	C	0.396710	0.937450	0.062654
H245	H	-0.177059	0.481189	-0.480904
H246	H	0.322941	0.981189	0.019096
H247	H	-0.122625	0.476401	-0.548415
H248	H	0.377375	0.976401	-0.048415
H249	H	-0.122599	0.548575	-0.476020
H250	H	0.377401	1.048575	0.023980
H251	H	-0.114021	0.378113	-0.450296
H252	H	0.385979	0.878113	0.049704
H253	H	-0.114014	0.450368	-0.377983
H254	H	0.385986	0.950368	0.122017
O255	O	0.821580	0.447138	-0.930896
O256	O	1.321580	0.947138	-0.430896
C257	C	0.892160	0.457030	-1.017724
C258	C	1.392160	0.957030	-0.517724
C259	C	0.855363	0.405293	-0.975448
C260	C	1.355363	0.905293	-0.475448
H261	H	0.919474	0.423220	-1.053765
H262	H	1.419474	0.923220	-0.553765
H263	H	0.916079	0.490670	-0.977087
H264	H	1.416079	0.990670	-0.477087
H265	H	0.868137	0.495511	-1.053656
H266	H	1.368137	0.995511	-0.553656
H267	H	0.879345	0.366767	-0.939514
H268	H	1.379345	0.866767	-0.439514
H269	H	0.831442	0.371704	-1.016124
H270	H	1.331442	0.871704	-0.516124
O271	O	0.058370	0.261696	-0.262097
O272	O	0.558370	0.761696	0.237903
C273	C	0.052572	0.168193	-0.168921
C274	C	0.552572	0.668193	0.331079
C275	C	0.022584	0.220038	-0.220650
C276	C	0.522584	0.720038	0.279350
H277	H	0.023652	0.134488	-0.135409
H278	H	0.523652	0.634488	0.364591
H279	H	0.078098	0.201895	-0.130326
H280	H	0.578098	0.701895	0.369674
H281	H	0.078171	0.129777	-0.202776
H282	H	0.578171	0.629777	0.297224
H283	H	-0.003043	0.258465	-0.186854
H284	H	0.496957	0.758465	0.313146
H285	H	-0.002910	0.186291	-0.259248
H286	H	0.497090	0.686291	0.240752
O287	O	0.560881	0.261689	-0.262138
O288	O	1.060881	0.761689	0.237862
C289	C	0.644997	0.219945	-0.220466
C290	C	1.144997	0.719945	0.279534
C291	C	0.614941	0.271791	-0.272116
C292	C	1.114941	0.771791	0.227884
H293	H	0.688710	0.228106	-0.228504
H294	H	1.188710	0.728106	0.271496
H295	H	0.634318	0.160605	-0.233503
H296	H	1.134318	0.660605	0.266497
H297	H	0.634207	0.232779	-0.161108
H298	H	1.134207	0.732779	0.338892
H299	H	0.625715	0.259024	-0.331491
H300	H	1.125715	0.759024	0.168509
H301	H	0.625622	0.331116	-0.259016
H302	H	1.125622	0.831116	0.240984
