data_functionalizedCrystal
_audit_creation_method	'MofGen! by Chris Wilmer'
_symmetry_space_group_name_H-M	'P1'
_symmetry_Int_Tables_number	1
_symmetry_cell_setting	triclinic
loop_
_symmetry_equiv_pos_as_xyz
  x,y,z
_cell_length_a	12.759401
_cell_length_b	12.759400
_cell_length_c	11.169409
_cell_angle_alpha	90.032676
_cell_angle_beta	90.020052
_cell_angle_gamma	90.012209
loop_
_atom_site_label
_atom_site_type_symbol
_atom_site_fract_x
_atom_site_fract_y
_atom_site_fract_z
Zn1	Zn	1.606282	-0.418208	0.678547
Zn2	Zn	1.606176	-0.593934	0.477863
Zn3	Zn	1.430579	-0.418266	0.477881
Zn4	Zn	1.430577	-0.593843	0.678507
O5	O	1.518404	-0.506063	0.578199
O6	O	1.753289	-0.441532	0.651935
O7	O	1.582840	-0.570694	0.309915
O8	O	1.453932	-0.271238	0.504524
O9	O	1.753211	-0.570637	0.504493
O10	O	1.583020	-0.271195	0.651953
O11	O	1.453829	-0.441632	0.309929
O12	O	1.283558	-0.441543	0.504485
O13	O	1.453928	-0.570482	0.846462
O14	O	1.283557	-0.570538	0.651884
O15	O	1.583018	-0.441444	0.846492
O16	O	1.582838	-0.740943	0.504454
O17	O	1.453826	-0.740876	0.651867
C18	C	1.245436	-0.506038	0.578183
C19	C	1.128660	-0.506053	0.578204
C20	C	1.073831	-0.438955	0.655096
C21	C	0.964107	-0.438975	0.655104
C22	C	0.964050	-0.573200	0.501324
C23	C	1.073772	-0.573174	0.501311
C24	C	1.128719	-0.371834	0.731989
C25	C	1.073890	-0.304731	0.808888
C26	C	0.964166	-0.304751	0.808896
C27	C	0.909271	-0.371874	0.732004
C28	C	1.518349	-0.779030	0.578181
C29	C	1.518421	-0.895807	0.578213
C30	C	1.585604	-0.950567	0.655042
C31	C	1.585653	-1.060291	0.655071
C32	C	1.451334	-1.060485	0.501432
C33	C	1.451280	-0.950763	0.501409
C34	C	1.652745	-0.895610	0.731845
C35	C	1.719933	-0.950370	0.808679
C36	C	1.719982	-1.060094	0.808708
C37	C	1.652842	-1.115058	0.731903
C38	C	1.792437	-0.506088	0.578217
C39	C	1.909214	-0.506099	0.578224
C40	C	1.518484	-0.505946	0.891242
C41	C	1.518519	-0.505896	1.024642
C42	C	1.518488	-0.232029	0.578245
C43	C	1.518524	-0.115253	0.578264
C44	C	1.518384	-0.506103	0.266375
C45	C	1.518553	-0.505857	0.132975
H46	H	0.819926	-0.371862	0.731991
H47	H	0.919528	-0.250105	0.871502
C48	C	1.378335	-1.119968	0.417994
C49	C	1.319467	-1.048525	0.350725
C50	C	1.252203	-1.103281	0.273857
H51	H	1.418454	-1.162780	0.365644
H52	H	1.332503	-1.162751	0.463842
H53	H	1.365294	-1.005760	0.304880
H54	H	1.279327	-1.005711	0.403044
H55	H	1.206370	-1.146064	0.319706
H56	H	1.292330	-1.146091	0.221515
H57	H	1.212246	-1.054816	0.228214
H58	H	1.652715	-0.806267	0.731827
C59	C	1.133542	-0.232031	0.892512
C60	C	1.196538	-0.291587	0.969336
C61	C	1.251491	-0.224652	1.046397
H62	H	1.176416	-0.186180	0.846829
H63	H	1.085205	-0.192089	0.938376
H64	H	1.244870	-0.331512	0.923477
H65	H	1.153690	-0.337437	1.015045
H66	H	1.203154	-0.184709	1.092261
H67	H	1.294359	-0.178803	1.000705
H68	H	1.294233	-0.265051	1.098538
H69	H	1.118415	-0.627811	0.438699
C70	C	0.904263	-0.646041	0.417987
C71	C	0.796438	-0.631723	0.434481
C72	C	0.741331	-0.698820	0.357746
H73	H	0.922082	-0.630650	0.337325
H74	H	0.922194	-0.716667	0.435426
H75	H	0.778514	-0.561113	0.417033
H76	H	0.778587	-0.647121	0.515127
H77	H	0.759262	-0.769446	0.375185
H78	H	0.759159	-0.683423	0.277089
H79	H	0.668167	-0.689121	0.368934
C80	C	1.792781	-0.890511	0.891937
C81	C	1.778382	-0.782700	0.875448
C82	C	1.845481	-0.727529	0.952115
H83	H	1.777446	-0.908320	0.972615
H84	H	1.863410	-0.908399	0.874432
H85	H	1.707769	-0.764820	0.892960
H86	H	1.793725	-0.764860	0.794786
H87	H	1.916110	-0.745416	0.934611
H88	H	1.830140	-0.745346	1.032788
H89	H	1.835727	-0.654373	0.940930
H90	H	1.774682	-1.104677	0.871280
H91	H	1.396573	-0.906177	0.438849
C92	C	1.653074	-1.234188	0.732082
C93	C	1.726290	-1.270385	0.815794
C94	C	1.726542	-1.380119	0.815982
H95	H	1.585337	-1.259162	0.752822
H96	H	1.671338	-1.259099	0.654680
H97	H	1.708021	-1.245485	0.893179
H98	H	1.794038	-1.245441	0.795074
H99	H	1.744806	-1.405030	0.738580
H100	H	1.658802	-1.405082	0.836719
H101	H	1.776225	-1.404692	0.872771
H102	H	1.218062	-0.371809	0.731991
