data_functionalizedCrystal
_audit_creation_method	'MofGen! by Chris Wilmer'
_symmetry_space_group_name_H-M	'P1'
_symmetry_Int_Tables_number	1
_symmetry_cell_setting	triclinic
loop_
_symmetry_equiv_pos_as_xyz
  x,y,z
_cell_length_a	13.897448
_cell_length_b	12.759401
_cell_length_c	12.759393
_cell_angle_alpha	89.980324
_cell_angle_beta	89.967728
_cell_angle_gamma	90.018119
loop_
_atom_site_label
_atom_site_type_symbol
_atom_site_fract_x
_atom_site_fract_y
_atom_site_fract_z
Zn1	Zn	-0.383957	1.606244	-0.593972
Zn2	Zn	0.116043	2.106244	-0.093972
Zn3	Zn	-0.545284	1.606126	-0.418286
Zn4	Zn	-0.045284	2.106126	0.081714
Zn5	Zn	-0.384005	1.430543	-0.418311
Zn6	Zn	0.115995	1.930543	0.081689
Zn7	Zn	-0.545213	1.430526	-0.593928
Zn8	Zn	-0.045213	1.930526	-0.093928
O9	O	-0.464615	1.518360	-0.506124
O10	O	0.035385	2.018360	-0.006124
O11	O	-0.405367	1.753250	-0.570675
O12	O	0.094633	2.253250	-0.070675
O13	O	-0.523939	1.582793	-0.271269
O14	O	-0.023939	2.082793	0.228731
O15	O	-0.249017	1.453907	-0.441641
O16	O	0.250983	1.953907	0.058359
O17	O	-0.523893	1.753163	-0.441600
O18	O	-0.023893	2.253163	0.058400
O19	O	-0.248982	1.582994	-0.570699
O20	O	0.251018	2.082994	-0.070699
O21	O	-0.405449	1.453793	-0.271286
O22	O	0.094551	1.953793	0.228714
O23	O	-0.405381	1.283520	-0.441598
O24	O	0.094619	1.783520	0.058402
O25	O	-0.523773	1.453878	-0.740955
O26	O	-0.023773	1.953878	-0.240955
O27	O	-0.523819	1.283507	-0.570623
O28	O	-0.023819	1.783507	-0.070623
O29	O	-0.405299	1.582977	-0.740987
O30	O	0.094701	2.082977	-0.240987
O31	O	-0.680256	1.582776	-0.441557
O32	O	-0.180256	2.082776	0.058443
O33	O	-0.680204	1.453763	-0.570600
O34	O	-0.180204	1.953763	-0.070600
C35	C	-0.464598	1.245393	-0.506109
C36	C	0.035402	1.745393	-0.006109
C37	C	-0.464614	1.128616	-0.506128
C38	C	0.035386	1.628616	-0.006128
C39	C	-0.403010	1.073800	-0.573441
C40	C	0.096990	1.573800	-0.073441
C41	C	-0.403019	0.964076	-0.573448
C42	C	0.096981	1.464076	-0.073448
C43	C	-0.526247	0.963994	-0.438826
C44	C	-0.026247	1.463994	0.061174
C45	C	-0.526232	1.073716	-0.438814
C46	C	-0.026232	1.573716	0.061186
C47	C	-0.715229	1.518283	-0.506094
C48	C	-0.215229	2.018283	-0.006094
C49	C	-0.822443	1.518347	-0.506116
C50	C	-0.322443	2.018347	-0.006116
C51	C	-1.018738	1.518457	-0.506182
C52	C	-0.518738	2.018457	-0.006182
C53	C	-0.909506	1.518393	-0.506148
C54	C	-0.409506	2.018393	-0.006148
C55	C	-0.213022	1.518466	-0.506178
C56	C	0.286978	2.018466	-0.006178
C57	C	-0.105808	1.518511	-0.506200
C58	C	0.394192	2.018511	-0.006200
C59	C	-0.464522	1.518439	-0.780158
C60	C	0.035478	2.018439	-0.280158
C61	C	-0.464483	1.518472	-0.896934
C62	C	0.035517	2.018472	-0.396934
C63	C	-0.464632	1.792393	-0.506140
C64	C	0.035368	2.292393	-0.006140
C65	C	-0.464640	1.909170	-0.506146
C66	C	0.035360	2.409170	-0.006146
C67	C	-0.402784	1.585699	-0.951815
C68	C	0.097216	2.085699	-0.451815
C69	C	-0.402742	1.585717	-1.061539
C70	C	0.097258	2.085717	-0.561539
C71	C	-0.526107	1.451278	-1.061492
C72	C	-0.026107	1.951278	-0.561492
C73	C	-0.526143	1.451255	-0.951770
C74	C	-0.026143	1.951255	-0.451770
C75	C	-0.464638	1.518342	-0.233157
C76	C	0.035362	2.018342	0.266843
C77	C	-0.464405	1.518512	-0.116381
C78	C	0.035595	2.018512	0.383619
H79	H	-0.352853	0.919449	-0.628259
H80	H	0.147147	1.419449	-0.128259
H81	H	-0.576415	0.919281	-0.384022
H82	H	-0.076415	1.419281	0.115978
H83	H	-0.352573	1.640429	-0.907171
H84	H	0.147427	2.140429	-0.407171
H85	H	-0.576399	1.118348	-0.383994
H86	H	-0.076399	1.618348	0.116006
O87	O	-0.342779	1.651123	-1.114687
O88	O	0.157221	2.151123	-0.614687
C89	C	-0.220384	1.784425	-1.103147
C90	C	0.279616	2.284425	-0.603147
C91	C	-0.288263	1.710422	-1.042827
C92	C	0.211737	2.210422	-0.542827
H93	H	-0.176276	1.832372	-1.045075
H94	H	0.323724	2.332372	-0.545075
H95	H	-0.264610	1.839420	-1.154488
H96	H	0.235390	2.339420	-0.654488
H97	H	-0.169964	1.736207	-1.154546
H98	H	0.330036	2.236207	-0.654546
H99	H	-0.338697	1.758556	-0.991372
H100	H	0.161303	2.258556	-0.491372
H101	H	-0.243977	1.655425	-0.991552
H102	H	0.256023	2.155425	-0.491552
O103	O	-0.585975	1.386091	-1.114925
O104	O	-0.085975	1.886091	-0.614925
C105	C	-0.640554	1.326498	-1.283936
C106	C	-0.140554	1.826498	-0.783936
C107	C	-0.572719	1.400392	-1.223559
C108	C	-0.072719	1.900392	-0.723559
H109	H	-0.629846	1.338020	-1.371777
H110	H	-0.129846	1.838020	-0.871777
H111	H	-0.718363	1.344909	-1.262425
H112	H	-0.218363	1.844909	-0.762425
H113	H	-0.623625	1.241797	-1.262292
H114	H	-0.123625	1.741797	-0.762292
H115	H	-0.589562	1.485119	-1.245170
H116	H	-0.089562	1.985119	-0.745170
H117	H	-0.494930	1.381891	-1.245075
H118	H	0.005070	1.881891	-0.745075
O119	O	-0.586175	1.385915	-0.898615
O120	O	-0.086175	1.885915	-0.398615
C121	C	-0.708493	1.252528	-0.910138
C122	C	-0.208493	1.752528	-0.410138
C123	C	-0.640581	1.326488	-0.970467
C124	C	-0.140581	1.826488	-0.470467
H125	H	-0.752484	1.204446	-0.968204
H126	H	-0.252484	1.704446	-0.468204
H127	H	-0.759013	1.300682	-0.858792
H128	H	-0.259013	1.800682	-0.358792
H129	H	-0.664201	1.197650	-0.858743
H130	H	-0.164201	1.697650	-0.358743
H131	H	-0.684795	1.381381	-1.021919
H132	H	-0.184795	1.881381	-0.521919
H133	H	-0.590058	1.278269	-1.021747
H134	H	-0.090058	1.778269	-0.521747
H135	H	-0.352834	1.118496	-0.628249
H136	H	0.147166	1.618496	-0.128249
