data_functionalizedCrystal
_audit_creation_method	'MofGen! by Chris Wilmer'
_symmetry_space_group_name_H-M	'P1'
_symmetry_Int_Tables_number	1
_symmetry_cell_setting	triclinic
loop_
_symmetry_equiv_pos_as_xyz
  x,y,z
_cell_length_a	6.817900
_cell_length_b	17.296643
_cell_length_c	19.453114
_cell_angle_alpha	99.776586
_cell_angle_beta	101.709288
_cell_angle_gamma	102.619114
loop_
_atom_site_label
_atom_site_type_symbol
_atom_site_fract_x
_atom_site_fract_y
_atom_site_fract_z
V1	V	-4.007289	-0.111964	-0.226121
V2	V	-3.507289	0.388036	0.273879
O3	O	-3.994723	0.004520	-0.214543
O4	O	-3.494723	0.504520	0.285457
O5	O	-3.959373	-0.221178	-0.231571
O6	O	-3.459373	0.278822	0.268429
O7	O	-3.950198	-0.110619	-0.321549
O8	O	-3.450198	0.389381	0.178451
O9	O	-4.003961	-0.106804	-0.123942
O10	O	-3.503961	0.393196	0.376058
V11	V	-4.491981	-0.097986	-0.213050
V12	V	-3.991981	0.402014	0.286950
O13	O	-4.265985	-0.142625	-0.254794
O14	O	-3.765985	0.357375	0.245206
O15	O	-4.683483	-0.067326	-0.184377
O16	O	-4.183483	0.432674	0.315623
O17	O	-4.316691	0.011228	-0.207600
O18	O	-3.816691	0.511228	0.292400
O19	O	-4.621944	-0.214470	-0.224628
O20	O	-4.121944	0.285530	0.275372
O21	O	-4.612706	-0.103146	-0.315229
O22	O	-4.112706	0.396854	0.184771
O23	O	-4.325865	-0.099331	-0.117622
O24	O	-3.825865	0.400669	0.382378
C25	C	-3.804772	-0.247790	-0.229809
C26	C	-3.304772	0.252210	0.270191
C27	C	-3.846824	-0.337077	-0.234900
C28	C	-3.346824	0.162923	0.265100
C29	C	-4.086505	-0.842651	-0.266951
C30	C	-3.586505	-0.342651	0.233049
C31	C	-4.046983	-0.758757	-0.262167
C32	C	-3.546983	-0.258757	0.237833
C33	C	-3.992763	-0.705092	-0.194705
C34	C	-3.492763	-0.205092	0.305295
C35	C	-3.978083	-0.735325	-0.132024
C36	C	-3.478083	-0.235325	0.367976
C37	C	-4.017619	-0.819218	-0.136808
C38	C	-3.517619	-0.319218	0.363192
C39	C	-3.871680	-0.451203	-0.177003
C40	C	-3.371680	0.048797	0.322997
C41	C	-3.832138	-0.367305	-0.172223
C42	C	-3.332138	0.132695	0.327777
C43	C	-3.901045	-0.390742	-0.302367
C44	C	-3.401045	0.109258	0.197633
C45	C	-3.940566	-0.474636	-0.307146
C46	C	-3.440566	0.025364	0.192854
C47	C	-3.925894	-0.504862	-0.244464
C48	C	-3.425894	-0.004862	0.255536
C49	C	-3.952358	-0.619338	-0.189814
C50	C	-3.452358	-0.119338	0.310186
C51	C	-3.966313	-0.590615	-0.249357
C52	C	-3.466313	-0.090615	0.250643
C53	C	-3.793069	-0.106761	-0.344584
C54	C	-3.293069	0.393239	0.155416
C55	C	-3.827677	-0.106384	-0.422642
C56	C	-3.327677	0.393616	0.077358
C57	C	-4.025736	-0.110238	-0.463144
C58	C	-3.525736	0.389762	0.036856
C59	C	-4.058255	-0.109884	-0.536489
C60	C	-3.558255	0.390116	-0.036489
C61	C	-3.892712	-0.105692	-0.569331
C62	C	-3.392712	0.394308	-0.069331
C63	C	-3.694623	-0.101832	-0.528818
C64	C	-3.194623	0.398168	-0.028818
C65	C	-3.662105	-0.102178	-0.455474
C66	C	-3.162105	0.397822	0.044526
N67	N	-3.833157	-0.148109	-0.690818
N68	N	-3.333157	0.351891	-0.190818
N69	N	-3.864060	-0.147782	-0.760493
N70	N	-3.364060	0.352218	-0.260493
C71	C	-3.990674	-0.104648	-0.790313
C72	C	-3.490674	0.395352	-0.290313
N73	N	-4.085252	-0.061863	-0.747828
N74	N	-3.585252	0.438137	-0.247828
N75	N	-4.054354	-0.062194	-0.678148
N76	N	-3.554354	0.437806	-0.178148
C77	C	-3.927952	-0.105316	-0.648860
C78	C	-3.427952	0.394684	-0.148860
C79	C	-4.224006	-0.108118	-0.910343
C80	C	-3.724006	0.391882	-0.410343
C81	C	-4.256515	-0.107759	-0.983688
C82	C	-3.756515	0.392241	-0.483688
C83	C	-3.892881	-0.099715	-0.976017
C84	C	-3.392881	0.400285	-0.476017
C85	C	-3.860373	-0.100066	-0.902673
C86	C	-3.360373	0.399934	-0.402673
C87	C	-4.025945	-0.104271	-0.869841
C88	C	-3.525945	0.395729	-0.369841
C89	C	-4.134633	0.037836	-0.209361
C90	C	-3.634633	0.537836	0.290639
C91	C	-4.071820	0.127121	-0.204274
C92	C	-3.571820	0.627121	0.295726
C93	C	-4.146337	-0.103192	-0.094584
C94	C	-3.646337	0.396808	0.405416
C95	C	-4.090967	-0.103565	-0.016524
C96	C	-3.590967	0.396435	0.483476
H97	H	-4.005659	-0.843827	-0.085770
H98	H	-3.505659	-0.343827	0.414230
H99	H	-3.787970	-0.323611	-0.117285
H100	H	-3.287970	0.176389	0.382715
H101	H	-3.699098	-0.096936	-0.869697
H102	H	-3.199098	0.403064	-0.369697
H103	H	-3.859727	-0.475802	-0.125964
H104	H	-3.359727	0.024198	0.374036
H105	H	-3.758088	-0.096294	-1.002755
H106	H	-3.258088	0.403706	-0.502755
H107	H	-4.010469	-0.634312	-0.304284
H108	H	-3.510469	-0.134312	0.195716
H109	H	-4.358823	-0.111539	-0.883610
H110	H	-3.858823	0.388461	-0.383610
H111	H	-3.933946	-0.691624	-0.077095
H112	H	-3.433946	-0.191624	0.422905
H113	H	-4.130638	-0.886340	-0.321885
H114	H	-3.630638	-0.386340	0.178115
H115	H	-4.058926	-0.734149	-0.313205
H116	H	-3.558926	-0.234149	0.186795
H117	H	-3.912988	-0.366123	-0.353399
H118	H	-3.412988	0.133877	0.146601
H119	H	-3.908204	-0.575635	-0.134886
H120	H	-3.408204	-0.075635	0.365114
H121	H	-4.160560	-0.113660	-0.436417
H122	H	-3.660560	0.386340	0.063583
H123	H	-3.984718	-0.518325	-0.362080
H124	H	-3.484718	-0.018325	0.137920
H125	H	-4.219546	-0.113028	-0.569473
H126	H	-3.719546	0.386972	-0.069473
H127	H	-3.559837	-0.098416	-0.555562
H128	H	-3.059837	0.401584	-0.055562
H129	H	-3.500816	-0.099033	-0.422495
H130	H	-3.000816	0.400967	0.077505
H131	H	-4.417799	-0.110892	-1.016663
H132	H	-3.917799	0.389108	-0.516663
