data_functionalizedCrystal
_audit_creation_method	'MofGen! by Chris Wilmer'
_symmetry_space_group_name_H-M	'P1'
_symmetry_Int_Tables_number	1
_symmetry_cell_setting	triclinic
loop_
_symmetry_equiv_pos_as_xyz
  x,y,z
_cell_length_a	27.732046
_cell_length_b	15.021413
_cell_length_c	15.944551
_cell_angle_alpha	89.996935
_cell_angle_beta	96.929642
_cell_angle_gamma	89.998829
loop_
_atom_site_label
_atom_site_type_symbol
_atom_site_fract_x
_atom_site_fract_y
_atom_site_fract_z
O1	O	-0.641363	0.073907	0.099927
O2	O	-0.141363	0.573907	0.599927
O3	O	-0.500635	0.073937	0.115125
O4	O	-0.000635	0.573937	0.615125
O5	O	-0.574842	0.073914	-0.014799
O6	O	-0.074842	0.573914	0.485201
O7	O	-0.567156	0.073931	0.229851
O8	O	-0.067156	0.573931	0.729851
O9	O	-0.574830	-0.074151	-0.014781
O10	O	-0.074830	0.425849	0.485219
O11	O	-0.500624	-0.074127	0.115143
O12	O	-0.000624	0.425873	0.615143
O13	O	-0.641351	-0.074157	0.099945
O14	O	-0.141351	0.425843	0.599945
Zn15	Zn	-0.570986	-0.097650	0.107547
Zn16	Zn	-0.070986	0.402350	0.607547
Zn17	Zn	-0.571001	0.097431	0.107523
Zn18	Zn	-0.071001	0.597431	0.607523
O19	O	-0.567145	-0.074133	0.229869
O20	O	-0.067145	0.425867	0.729869
C21	C	-0.482621	-0.000091	0.114815
C22	C	0.017379	0.499909	0.614815
C23	C	-0.428962	-0.000080	0.113855
C24	C	0.071038	0.499920	0.613855
N25	N	-0.570979	-0.230788	0.107563
N26	N	-0.070979	0.269212	0.607563
C27	C	-0.574517	-0.000119	-0.046080
C28	C	-0.074517	0.499881	0.453920
C29	C	-0.573561	-0.000119	-0.139313
C30	C	-0.073561	0.499881	0.360687
C31	C	-0.090453	-0.000107	0.184588
C32	C	0.409547	0.499893	0.684588
C33	C	0.111222	-0.000112	0.181026
C34	C	0.611222	0.499888	0.681026
O35	O	0.142198	-0.000145	0.245703
O36	O	0.642198	0.499855	0.745703
N37	N	0.130680	-0.000115	0.103987
N38	N	0.630680	0.499885	0.603987
C39	C	0.099715	-0.000124	0.027833
C40	C	0.599715	0.499876	0.527833
O41	O	0.120892	-0.000136	-0.037775
O42	O	0.620892	0.499864	0.462225
C43	C	-0.101960	-0.000125	0.031396
C44	C	0.398040	0.499875	0.531396
C45	C	-0.121414	-0.000113	0.108440
C46	C	0.378586	0.499887	0.608440
C47	C	-0.109908	-0.000096	0.261625
C48	C	0.390092	0.499904	0.761625
C49	C	-0.160324	-0.000090	0.262515
C50	C	0.339676	0.499910	0.762515
C51	C	-0.191285	-0.000095	0.186367
C52	C	0.308715	0.499905	0.686367
C53	C	-0.171830	-0.000107	0.109329
C54	C	0.328170	0.499893	0.609329
C55	C	-0.132923	-0.000140	-0.044757
C56	C	0.367077	0.499860	0.455243
C57	C	-0.183345	-0.000143	-0.043860
C58	C	0.316655	0.499857	0.456140
C59	C	-0.202799	-0.000130	0.033184
C60	C	0.297201	0.499870	0.533184
C61	C	-0.253207	-0.000107	0.034071
C62	C	0.246793	0.499893	0.534071
N63	N	-0.272664	-0.000103	0.111110
N64	N	0.227336	0.499897	0.611110
C65	C	-0.241703	-0.000097	0.187258
C66	C	0.258297	0.499903	0.687258
C67	C	0.205597	-0.000121	0.025968
C68	C	0.705597	0.499879	0.525968
C69	C	0.256015	-0.000119	0.025077
C70	C	0.756015	0.499881	0.525077
C71	C	0.267519	-0.000108	0.178270
C72	C	0.767519	0.499892	0.678270
C73	C	0.217100	-0.000104	0.179160
C74	C	0.717100	0.499896	0.679160
C75	C	0.186140	-0.000117	0.103007
C76	C	0.686140	0.499883	0.603007
C77	C	-0.347580	-0.000084	0.189120
C78	C	0.152420	0.499916	0.689120
C79	C	-0.398001	-0.000074	0.190003
C80	C	0.101999	0.499926	0.690003
C81	C	-0.409501	-0.000089	0.036811
C82	C	0.090499	0.499911	0.536811
C83	C	-0.359084	-0.000094	0.035927
C84	C	0.140916	0.499906	0.535927
C85	C	-0.328125	-0.000095	0.112089
C86	C	0.171875	0.499905	0.612089
O87	O	-0.284211	-0.000083	-0.030571
O88	O	0.215789	0.499917	0.469429
O89	O	-0.262890	-0.000105	0.252856
O90	O	0.237110	0.499895	0.752856
C91	C	-0.040037	-0.000113	0.183698
C92	C	0.459963	0.499887	0.683698
C93	C	-0.020582	-0.000125	0.106660
C94	C	0.479418	0.499875	0.606660
C95	C	-0.051543	-0.000130	0.030512
C96	C	0.448457	0.499870	0.530512
C97	C	0.029836	-0.000123	0.105770
C98	C	0.529836	0.499877	0.605770
C99	C	0.060797	-0.000117	0.181918
C100	C	0.560797	0.499883	0.681918
C101	C	0.041339	-0.000114	0.258957
C102	C	0.541339	0.499886	0.758957
C103	C	-0.009076	-0.000108	0.259846
C104	C	0.490924	0.499892	0.759846
C105	C	-0.032086	-0.000134	-0.046527
C106	C	0.467914	0.499866	0.453473
C107	C	0.018331	-0.000139	-0.047410
C108	C	0.518331	0.499861	0.452590
C109	C	0.049291	-0.000133	0.028738
C110	C	0.549291	0.499867	0.528738
C111	C	0.340635	-0.000122	0.100257
C112	C	0.840635	0.499878	0.600257
C113	C	0.286976	-0.000113	0.101225
C114	C	0.786976	0.499887	0.601225
C115	C	-0.536660	-0.470460	0.167612
C116	C	-0.036660	0.029540	0.667612
C117	C	-0.580337	-0.529803	0.183348
C118	C	-0.080337	-0.029803	0.683348
C119	C	-0.570991	-0.412395	0.107542
C120	C	-0.070991	0.087605	0.607542
C121	C	-0.527325	-0.529794	0.091825
C122	C	-0.027325	-0.029794	0.591825
C123	C	-0.570999	-0.587819	0.107524
C124	C	-0.070999	-0.087819	0.607524
C125	C	-0.614690	-0.470431	0.123315
C126	C	-0.114690	0.029569	0.623315
C127	C	-0.561650	-0.470417	0.031760
C128	C	-0.061650	0.029583	0.531760
C129	C	-0.605358	-0.529733	0.047463
C130	C	-0.105358	-0.029733	0.547463
C131	C	-0.570986	-0.311337	0.107555
C132	C	-0.070986	0.188663	0.607555
C133	C	-0.571009	-0.688874	0.107510
C134	C	-0.071009	-0.188874	0.607510
N135	N	-0.571012	0.230568	0.107500
N136	N	-0.071012	0.730568	0.607500
C137	C	-0.525277	-0.000097	-0.353538
C138	C	-0.025277	0.499903	0.146462
C139	C	-0.547693	-0.073106	-0.414840
C140	C	-0.047693	0.426894	0.085160
C141	C	-0.571830	-0.000112	-0.310017
C142	C	-0.071830	0.499888	0.189983
C143	C	-0.547715	0.072874	-0.414842
C144	C	-0.047715	0.572874	0.085158
C145	C	-0.570155	-0.000101	-0.474907
C146	C	-0.070155	0.499899	0.025093
C147	C	-0.594258	-0.073181	-0.370090
C148	C	-0.094258	0.426819	0.129910
C149	C	-0.594274	0.072864	-0.370086
C150	C	-0.094274	0.572864	0.129914
C151	C	-0.616724	-0.000163	-0.431370
C152	C	-0.116724	0.499837	0.068630
C153	C	-0.572794	-0.000119	-0.215027
C154	C	-0.072794	0.499881	0.284973
C155	C	-0.569195	-0.000100	-0.569896
C156	C	-0.069195	0.499900	-0.069896
C157	C	-0.567470	-0.000099	0.261150
C158	C	-0.067470	0.499901	0.761150
C159	C	-0.568426	-0.000093	0.354383
C160	C	-0.068426	0.499907	0.854383
H161	H	-0.413838	-0.000064	0.252744
H162	H	0.086162	0.499936	0.752744
H163	H	-0.634426	-0.555594	-0.003348
H164	H	-0.134426	-0.055594	0.496652
Br165	Br	-0.676259	-0.427159	0.145581
Br166	Br	-0.176259	0.072841	0.645581
H167	H	-0.553728	-0.444312	-0.032298
H168	H	-0.053728	0.055688	0.467702
H169	H	-0.322379	-0.000087	0.251139
H170	H	0.177621	0.499913	0.751139
H171	H	-0.490395	-0.555872	0.078541
H172	H	0.009605	-0.055872	0.578541
H173	H	-0.486636	-0.000161	-0.319725
H174	H	0.013364	0.499839	0.180275
H175	H	-0.527998	-0.134821	-0.434683
H176	H	-0.027998	0.365179	0.065317
H177	H	-0.613927	-0.134973	-0.350349
H178	H	-0.113927	0.365027	0.149651
H179	H	-0.655398	-0.000213	-0.465035
H180	H	-0.155398	0.499787	0.034965
H181	H	-0.613952	0.134583	-0.350220
H182	H	-0.113952	0.634583	0.149780
Br183	Br	0.044726	-0.000141	-0.151980
Br184	Br	0.544726	0.499859	0.348020
H185	H	-0.528024	0.134602	-0.434668
H186	H	-0.028024	0.634602	0.065332
Br187	Br	-0.186718	-0.000077	0.367080
Br188	Br	0.313282	0.499923	0.867080
H189	H	0.201264	-0.000099	0.241896
H190	H	0.701264	0.499901	0.741896
Br191	Br	-0.067898	-0.000088	0.364984
Br192	Br	0.432102	0.499912	0.864984
H193	H	0.292736	-0.000104	0.240273
H194	H	0.792736	0.499896	0.740273
H195	H	0.180393	-0.000131	-0.036049
H196	H	0.680393	0.499869	0.463951
Br197	Br	0.282411	-0.000109	-0.079487
Br198	Br	0.782411	0.499891	0.420513
Br199	Br	-0.106534	-0.000138	-0.149324
Br200	Br	0.393466	0.499862	0.350676
H201	H	-0.343244	-0.000091	-0.026808
H202	H	0.156756	0.499909	0.473192
Br203	Br	-0.225360	-0.000165	-0.147217
Br204	Br	0.274640	0.499835	0.352783
H205	H	-0.434718	-0.000091	-0.025187
H206	H	0.065282	0.499909	0.474813
H207	H	-0.024911	-0.000099	0.322583
H208	H	0.475089	0.499901	0.822583
Br209	Br	-0.488319	-0.427078	0.252343
Br210	Br	0.011681	0.072922	0.752343
H211	H	-0.588246	-0.555887	0.247427
H212	H	-0.088246	-0.055887	0.747427
Br213	Br	0.083368	-0.000099	0.362299
Br214	Br	0.583368	0.499901	0.862299
H215	H	-0.057290	-0.000141	-0.108537
H216	H	0.442710	0.499859	0.391463
