data_functionalizedCrystal
_audit_creation_method	'MofGen! by Chris Wilmer'
_symmetry_space_group_name_H-M	'P1'
_symmetry_Int_Tables_number	1
_symmetry_cell_setting	triclinic
loop_
_symmetry_equiv_pos_as_xyz
  x,y,z
_cell_length_a	16.992694
_cell_length_b	13.596369
_cell_length_c	16.992695
_cell_angle_alpha	90.006189
_cell_angle_beta	90.668223
_cell_angle_gamma	89.999564
loop_
_atom_site_label
_atom_site_type_symbol
_atom_site_fract_x
_atom_site_fract_y
_atom_site_fract_z
O1	O	1.050851	0.081669	0.166918
O2	O	1.384185	0.415002	0.500251
O3	O	1.717518	0.748336	0.833585
O4	O	0.822451	0.081698	0.165087
O5	O	1.155785	0.415031	0.498420
O6	O	1.489118	0.748365	0.831753
O7	O	0.935736	0.081676	0.051802
O8	O	1.269069	0.415009	0.385136
O9	O	1.602402	0.748343	0.718469
O10	O	0.937567	0.081691	0.280202
O11	O	1.270900	0.415025	0.613536
O12	O	1.604234	0.748358	0.946869
O13	O	0.935723	-0.081907	0.051795
O14	O	1.269057	0.251426	0.385129
O15	O	1.602390	0.584760	0.718462
O16	O	0.822439	-0.081885	0.165080
O17	O	1.155772	0.251448	0.498413
O18	O	1.489106	0.584782	0.831746
O19	O	1.050839	-0.081914	0.166911
O20	O	1.384172	0.251419	0.500244
O21	O	1.717506	0.584753	0.833578
Zn22	Zn	0.936637	-0.107872	0.165994
Zn23	Zn	1.269970	0.225462	0.499327
Zn24	Zn	1.603304	0.558795	0.832661
Zn25	Zn	0.936653	0.107656	0.166003
Zn26	Zn	1.269987	0.440989	0.499337
Zn27	Zn	1.603320	0.774322	0.832670
O28	O	0.937555	-0.081892	0.280195
O29	O	1.270888	0.251442	0.613529
O30	O	1.604221	0.584775	0.946862
C31	C	0.793085	-0.000090	0.162727
C32	C	1.126418	0.333244	0.496061
C33	C	1.459752	0.666577	0.829394
C34	C	0.705600	-0.000079	0.155699
C35	C	1.038934	0.333254	0.489032
C36	C	1.372267	0.666588	0.822365
N37	N	0.936632	-0.254964	0.165988
N38	N	1.269965	0.078370	0.499321
N39	N	1.603298	0.411703	0.832654
C40	C	0.659610	-0.000075	0.223517
C41	C	0.992943	0.333258	0.556850
C42	C	1.326276	0.666592	0.890183
C43	C	0.577409	-0.000089	0.216908
C44	C	0.910742	0.333244	0.550241
C45	C	1.244076	0.666578	0.883574
C46	C	0.541201	-0.000100	0.142480
C47	C	0.874534	0.333233	0.475813
C48	C	1.207867	0.666567	0.809147
C49	C	0.587198	-0.000107	0.074657
C50	C	0.920531	0.333227	0.407990
C51	C	1.253864	0.666560	0.741324
C52	C	0.669397	-0.000100	0.081267
C53	C	1.002730	0.333234	0.414600
C54	C	1.336063	0.666567	0.747933
C55	C	0.295886	-0.000128	0.115086
C56	C	0.629220	0.333205	0.448419
C57	C	0.962553	0.666539	0.781752
C58	C	0.213681	-0.000132	0.108481
C59	C	0.547014	0.333201	0.441814
C60	C	0.880348	0.666535	0.775148
C61	C	0.203898	-0.000116	0.250732
C62	C	0.537231	0.333217	0.584066
C63	C	0.870565	0.666550	0.917399
C64	C	0.286099	-0.000104	0.257335
C65	C	0.619432	0.333230	0.590669
C66	C	0.952766	0.666563	0.924002
C67	C	0.332089	-0.000115	0.189512
C68	C	0.665422	0.333218	0.522846
C69	C	0.998756	0.666551	0.856179
N70	N	0.457178	-0.000111	0.135723
N71	N	0.790512	0.333222	0.469056
N72	N	1.123845	0.666556	0.802390
N73	N	0.416110	-0.000111	0.196270
N74	N	0.749443	0.333222	0.529604
N75	N	1.082776	0.666555	0.862937
C76	C	0.936652	-0.656254	0.166004
C77	C	1.269986	-0.322921	0.499338
C78	C	1.603319	0.010412	0.832671
C79	C	0.936644	-0.544603	0.166002
C80	C	1.269978	-0.211270	0.499335
C81	C	1.603311	0.122064	0.832669
C82	C	0.936642	-0.455613	0.165997
C83	C	1.269976	-0.122279	0.499330
C84	C	1.603309	0.211054	0.832663
C85	C	0.936634	-0.343954	0.165993
C86	C	1.269967	-0.010621	0.499326
C87	C	1.603300	0.322713	0.832660
C88	C	1.080205	-0.000124	0.169270
C89	C	1.413539	0.333209	0.502603
C90	C	1.746872	0.666543	0.835937
C91	C	1.167690	-0.000128	0.176299
C92	C	1.501023	0.333205	0.509632
C93	C	1.834357	0.666538	0.842966
C94	C	0.933374	-0.000115	0.022439
C95	C	1.266707	0.333218	0.355772
C96	C	1.600041	0.666551	0.689105
C97	C	0.926345	-0.000114	-0.065046
C98	C	1.259678	0.333219	0.268287
C99	C	1.593012	0.666553	0.601621
N100	N	0.936665	0.254748	0.166004
N101	N	1.269998	0.588081	0.499338
N102	N	1.603331	0.921414	0.832671
C103	C	0.994163	-0.000124	-0.111037
C104	C	1.327496	0.333210	0.222296
C105	C	1.660830	0.666543	0.555630
C106	C	0.987554	-0.000114	-0.193238
C107	C	1.320887	0.333220	0.140096
C108	C	1.654221	0.666553	0.473429
C109	C	0.913127	-0.000101	-0.229446
C110	C	1.246460	0.333233	0.103887
C111	C	1.579793	0.666566	0.437221
C112	C	0.845303	-0.000088	-0.183449
C113	C	1.178637	0.333245	0.149884
C114	C	1.511970	0.666578	0.483218
C115	C	0.851913	-0.000091	-0.101250
C116	C	1.185246	0.333242	0.232084
C117	C	1.518580	0.666575	0.565417
C118	C	0.885732	-0.000084	-0.474760
C119	C	1.219065	0.333250	-0.141427
C120	C	1.552399	0.666583	0.191906
C121	C	0.879127	-0.000084	-0.556966
C122	C	1.212461	0.333250	-0.223632
C123	C	1.545794	0.666583	0.109701
C124	C	1.021379	-0.000107	-0.566749
C125	C	1.354712	0.333226	-0.233415
C126	C	1.688045	0.666560	0.099918
C127	C	1.027982	-0.000116	-0.484547
C128	C	1.361315	0.333217	-0.151214
C129	C	1.694649	0.666551	0.182119
C130	C	0.960159	-0.000098	-0.438558
C131	C	1.293492	0.333235	-0.105224
C132	C	1.626826	0.666568	0.228109
N133	N	0.906369	-0.000093	-0.313468
N134	N	1.239703	0.333240	0.019865
N135	N	1.573036	0.666573	0.353199
N136	N	0.966917	-0.000099	-0.354537
N137	N	1.300250	0.333235	-0.021204
N138	N	1.633583	0.666568	0.312130
C139	C	0.939917	-0.000098	0.309559
C140	C	1.273250	0.333235	0.642892
C141	C	1.606583	0.666568	0.976226
C142	C	0.946945	-0.000093	0.397044
C143	C	1.280279	0.333240	0.730377
C144	C	1.613612	0.666573	1.063710
H145	H	0.689084	-0.000066	0.284124
H146	H	1.022417	0.333268	0.617457
H147	H	1.355751	0.666601	0.950790
Cl148	Cl	0.168163	-0.000168	0.014908
Cl149	Cl	0.501497	0.333166	0.348241
Cl150	Cl	0.834830	0.666499	0.681574
Cl151	Cl	0.146078	-0.000105	0.335990
Cl152	Cl	0.479411	0.333228	0.669323
Cl153	Cl	0.812745	0.666561	1.002656
Cl154	Cl	0.353691	-0.000142	0.029821
Cl155	Cl	0.687025	0.333191	0.363154
Cl156	Cl	1.020358	0.666525	0.696488
H157	H	0.557710	-0.000129	0.014056
H158	H	0.891044	0.333204	0.347390
H159	H	1.224377	0.666537	0.680723
H160	H	1.076596	-0.000120	-0.604202
H161	H	1.409930	0.333214	-0.270869
H162	H	1.743263	0.666547	0.062465
Cl163	Cl	0.727214	-0.000109	-0.003994
Cl164	Cl	1.060548	0.333225	0.329339
Cl165	Cl	1.393881	0.666558	0.662673
H166	H	0.539966	-0.000085	0.272133
H167	H	0.873300	0.333248	0.605466
H168	H	1.206633	0.666582	0.938799
H169	H	0.315574	-0.000083	0.317942
H170	H	0.648907	0.333250	0.651276
H171	H	0.982240	0.666583	0.984609
H172	H	1.054770	-0.000140	-0.081563
H173	H	1.388103	0.333193	0.251771
H174	H	1.721437	0.666527	0.585104
Cl175	Cl	1.072816	-0.000129	-0.251052
Cl176	Cl	1.406149	0.333205	0.082282
Cl177	Cl	1.739482	0.666538	0.415615
Cl178	Cl	1.121552	-0.000100	-0.439035
Cl179	Cl	1.454885	0.333233	-0.105701
Cl180	Cl	1.788219	0.666566	0.227632
H181	H	0.818516	-0.000089	-0.586443
H182	H	1.151850	0.333244	-0.253110
H183	H	1.485183	0.666578	0.080223
Cl184	Cl	0.800468	-0.000059	-0.416955
Cl185	Cl	1.133801	0.333274	-0.083622
Cl186	Cl	1.467134	0.666608	0.249712
H187	H	0.784703	-0.000072	-0.212936
H188	H	1.118036	0.333262	0.120397
H189	H	1.451369	0.666595	0.453730
H190	H	0.796688	-0.000083	-0.063804
H191	H	1.130022	0.333250	0.269529
H192	H	1.463355	0.666583	0.602862
