data_functionalizedCrystal
_audit_creation_method	'MofGen! by Chris Wilmer'
_symmetry_space_group_name_H-M	'P1'
_symmetry_Int_Tables_number	1
_symmetry_cell_setting	triclinic
loop_
_symmetry_equiv_pos_as_xyz
  x,y,z
_cell_length_a	18.101398
_cell_length_b	12.594516
_cell_length_c	18.101389
_cell_angle_alpha	90.013388
_cell_angle_beta	90.009745
_cell_angle_gamma	90.013729
loop_
_atom_site_label
_atom_site_type_symbol
_atom_site_fract_x
_atom_site_fract_y
_atom_site_fract_z
Zn1	Zn	1.132187	-0.423980	0.418576
Zn2	Zn	1.632187	0.076020	0.918576
Zn3	Zn	1.132111	-0.601948	0.294746
Zn4	Zn	1.632111	-0.101948	0.794746
Zn5	Zn	1.008346	-0.423970	0.294769
Zn6	Zn	1.508346	0.076030	0.794769
Zn7	Zn	1.008325	-0.601903	0.418566
Zn8	Zn	1.508325	-0.101903	0.918566
O9	O	1.070243	-0.512950	0.356664
O10	O	1.570243	-0.012950	0.856664
O11	O	1.235810	-0.447611	0.402145
O12	O	1.735810	0.052389	0.902145
O13	O	1.115671	-0.578353	0.191116
O14	O	1.615671	-0.078353	0.691116
O15	O	1.024815	-0.275025	0.311207
O16	O	1.524815	0.224975	0.811207
O17	O	1.235754	-0.578363	0.311167
O18	O	1.735754	-0.078363	0.811167
O19	O	1.115800	-0.275033	0.402167
O20	O	1.615800	0.224967	0.902167
O21	O	1.024741	-0.447593	0.191133
O22	O	1.524741	0.052407	0.691133
O23	O	0.904711	-0.447550	0.311196
O24	O	1.404711	0.052450	0.811196
O25	O	1.024779	-0.578287	0.522200
O26	O	1.524779	-0.078287	1.022200
O27	O	0.904695	-0.578277	0.402149
O28	O	1.404695	-0.078277	0.902149
O29	O	1.115780	-0.447567	0.522208
O30	O	1.615780	0.052433	1.022208
O31	O	1.115650	-0.750888	0.311157
O32	O	1.615650	-0.250888	0.811157
O33	O	1.024705	-0.750855	0.402127
O34	O	1.524705	-0.250855	0.902127
C35	C	0.877832	-0.512908	0.356675
C36	C	1.377832	-0.012908	0.856675
C37	C	0.795518	-0.512916	0.356697
C38	C	1.295518	-0.012916	0.856697
C39	C	0.496427	-0.512979	0.356666
C40	C	0.996427	-0.012979	0.856666
C41	C	0.527767	-0.595626	0.413608
C42	C	1.027767	-0.095626	0.913608
C43	C	0.613385	-0.595367	0.413842
C44	C	1.113385	-0.095367	0.913842
C45	C	0.644810	-0.512949	0.356681
C46	C	1.144810	-0.012949	0.856681
C47	C	0.613737	-0.400846	0.378002
C48	C	1.113737	0.099154	0.878002
C49	C	0.528092	-0.401342	0.378407
C50	C	1.028092	0.098658	0.878407
C51	C	0.527979	-0.541446	0.278265
C52	C	1.027979	-0.041446	0.778265
C53	C	0.613629	-0.543906	0.278684
C54	C	1.113629	-0.043906	0.778684
C55	C	0.728669	-0.512925	0.356689
C56	C	1.228669	-0.012925	0.856689
C57	C	0.412567	-0.512995	0.356660
C58	C	0.912567	-0.012995	0.856660
C59	C	1.070187	-0.789491	0.356654
C60	C	1.570187	-0.289491	0.856654
C61	C	1.070231	-0.907797	0.356675
C62	C	1.570231	-0.407797	0.856675
C63	C	1.020806	-1.047834	0.406128
C64	C	1.520806	-0.547834	0.906128
C65	C	1.088320	-0.976937	0.424287
C66	C	1.588320	-0.476937	0.924287
C67	C	1.002724	-0.977122	0.338549
C68	C	1.502724	-0.477122	0.838549
C69	C	1.137901	-1.047684	0.374896
C70	C	1.637901	-0.547684	0.874896
C71	C	1.052260	-1.047877	0.289127
C72	C	1.552260	-0.547877	0.789127
C73	C	1.119820	-0.977011	0.307259
C74	C	1.619820	-0.477011	0.807259
C75	C	1.263404	-0.512993	0.356654
C76	C	1.763404	-0.012993	0.856654
C77	C	1.345719	-0.513011	0.356650
C78	C	1.845719	-0.013011	0.856650
C79	C	1.070285	-0.512923	0.549826
C80	C	1.570285	-0.012923	1.049826
C81	C	1.070304	-0.512912	0.632140
C82	C	1.570304	-0.012912	1.132140
C83	C	1.070319	-0.235329	0.356691
C84	C	1.570319	0.264671	0.856691
C85	C	1.070351	-0.117024	0.356702
C86	C	1.570351	0.382976	0.856702
C87	C	1.070243	-0.512900	0.164254
C88	C	1.570243	-0.012900	0.664254
C89	C	1.070368	-0.512612	0.081940
C90	C	1.570368	-0.012612	0.581940
C91	C	1.070347	-0.512712	0.931232
C92	C	1.570347	-0.012712	1.431232
C93	C	1.012894	-0.594696	0.899902
C94	C	1.512894	-0.094696	1.399902
C95	C	1.013049	-0.595076	0.814283
C96	C	1.513049	-0.095076	1.314283
C97	C	1.070325	-0.512811	0.782849
C98	C	1.570325	-0.012811	1.282849
C99	C	1.148355	-0.543267	0.813937
C100	C	1.648355	-0.043267	1.313937
C101	C	1.148035	-0.543805	0.899582
C102	C	1.648035	-0.043805	1.399582
C103	C	1.050448	-0.400091	0.899654
C104	C	1.550448	0.099909	1.399654
C105	C	1.048712	-0.400742	0.814004
C106	C	1.548712	0.099258	1.314004
C107	C	1.070317	-0.512865	0.698989
C108	C	1.570317	-0.012865	1.198989
C109	C	1.070360	-0.512661	1.015091
C110	C	1.570360	-0.012661	1.515091
H111	H	0.507361	-0.337558	0.338834
H112	H	1.007361	0.162442	0.838834
F113	F	1.212612	-1.088027	0.395035
F114	F	1.712612	-0.588027	0.895035
F115	F	0.501995	-0.369782	0.453321
F116	F	1.001995	0.130218	0.953321
H117	H	1.192312	-0.485430	0.793576
H118	H	1.692312	0.014570	1.293576
H119	H	0.945583	-0.946121	0.323207
H120	H	1.445583	-0.446121	0.823207
H121	H	0.634092	-0.337599	0.337821
H122	H	1.134092	0.162401	0.837821
F123	F	0.641786	-0.368710	0.452102
F124	F	1.141786	0.131290	0.952102
F125	F	0.973651	-0.370725	0.787454
F126	F	1.473651	0.129275	1.287454
H127	H	0.506254	-0.577032	0.471363
H128	H	1.006254	-0.077032	0.971363
H129	H	1.026188	-0.678554	0.793803
H130	H	1.526188	-0.178554	1.293803
F131	F	0.640183	-0.570749	0.489771
F132	F	1.140183	-0.070749	0.989771
F133	F	1.174579	-0.936619	0.252611
F134	F	1.674579	-0.436619	0.752611
H135	H	1.103575	-0.945778	0.481422
H136	H	1.603575	-0.445778	0.981422
F137	F	1.099420	-0.316662	0.786044
F138	F	1.599420	0.183338	1.286044
F139	F	0.977366	-0.363826	0.927882
F140	F	1.477366	0.136174	1.427882
H141	H	1.036984	-1.079059	0.232008
H142	H	1.536984	-0.579059	0.732008
H143	H	0.979010	-1.078927	0.447970
H144	H	1.479010	-0.578927	0.947970
F145	F	1.105143	-0.320252	0.926136
F146	F	1.605143	0.179748	1.426136
F147	F	0.640173	-0.651736	0.257669
F148	F	1.140173	-0.151736	0.757669
F149	F	0.640847	-0.704034	0.396402
F150	F	1.140847	-0.204034	0.896402
F151	F	0.501486	-0.462764	0.222808
F152	F	1.001486	0.037236	0.722808
H153	H	0.954858	-0.575832	0.920501
H154	H	1.454858	-0.075832	1.420501
F155	F	0.500835	-0.704641	0.396344
F156	F	1.000835	-0.204641	0.896344
F157	F	0.937421	-0.570159	0.786808
F158	F	1.437421	-0.070159	1.286808
F159	F	1.029862	-0.703131	0.928082
F160	F	1.529862	-0.203131	1.428082
F161	F	0.499735	-0.646456	0.252931
F162	F	0.999735	-0.146456	0.752931
F163	F	1.170080	-0.651413	0.925705
F164	F	1.670080	-0.151413	1.425705
F165	F	1.205852	-0.469097	0.926674
F166	F	1.705852	0.030903	1.426674
H167	H	0.635021	-0.488079	0.233979
H168	H	1.135021	0.011921	0.733979
F169	F	1.170785	-0.649731	0.785913
F170	F	1.670785	-0.149731	1.285913
