data_functionalizedCrystal
_audit_creation_method	'MofGen! by Chris Wilmer'
_symmetry_space_group_name_H-M	'P1'
_symmetry_Int_Tables_number	1
_symmetry_cell_setting	triclinic
loop_
_symmetry_equiv_pos_as_xyz
  x,y,z
_cell_length_a	16.625548
_cell_length_b	19.077068
_cell_length_c	16.625539
_cell_angle_alpha	87.731298
_cell_angle_beta	89.982945
_cell_angle_gamma	87.671886
loop_
_atom_site_label
_atom_site_type_symbol
_atom_site_fract_x
_atom_site_fract_y
_atom_site_fract_z
Zn1	Zn	1.219728	0.280193	-0.468781
Zn2	Zn	1.553061	0.613527	-0.135448
Zn3	Zn	1.886394	0.946860	0.197886
Zn4	Zn	1.214210	0.397894	-0.339355
Zn5	Zn	1.547543	0.731227	-0.006022
Zn6	Zn	1.880877	1.064561	0.327312
Zn7	Zn	1.084897	0.280216	-0.333962
Zn8	Zn	1.418230	0.613550	-0.000629
Zn9	Zn	1.751563	0.946883	0.332704
Zn10	Zn	1.079432	0.397857	-0.474143
Zn11	Zn	1.412766	0.731191	-0.140810
Zn12	Zn	1.746099	1.064524	0.192523
O13	O	1.149567	0.339040	-0.404060
O14	O	1.482900	0.672374	-0.070727
O15	O	1.816233	1.005707	0.262606
O16	O	1.331828	0.295812	-0.451625
O17	O	1.665161	0.629146	-0.118292
O18	O	1.998495	0.962479	0.215042
O19	O	1.197034	0.382309	-0.225808
O20	O	1.530367	0.715642	0.107525
O21	O	1.863701	1.048975	0.440858
O22	O	1.107379	0.181722	-0.347345
O23	O	1.440712	0.515055	-0.014012
O24	O	1.774045	0.848389	0.319321
O25	O	1.327774	0.382286	-0.356536
O26	O	1.661107	0.715620	-0.023203
O27	O	1.994441	1.048953	0.310130
O28	O	1.206438	0.181705	-0.446396
O29	O	1.539772	0.515039	-0.113063
O30	O	1.873105	0.848372	0.220271
O31	O	1.102028	0.295852	-0.221847
O32	O	1.435361	0.629185	0.111487
O33	O	1.768695	0.962518	0.444820
O34	O	0.971340	0.295816	-0.352545
O35	O	1.304673	0.629149	-0.019212
O36	O	1.638007	0.962483	0.314122
O37	O	1.098065	0.382224	-0.586263
O38	O	1.431399	0.715557	-0.252930
O39	O	1.764732	1.048891	0.080403
O40	O	0.967325	0.382246	-0.455535
O41	O	1.300659	0.715580	-0.122202
O42	O	1.633992	1.048913	0.211131
O43	O	1.201140	0.295777	-0.582324
O44	O	1.534473	0.629110	-0.248990
O45	O	1.867806	0.962444	0.084343
O46	O	1.191735	0.496380	-0.361736
O47	O	1.525069	0.829714	-0.028403
O48	O	1.858402	1.163047	0.304931
O49	O	1.092715	0.496353	-0.460764
O50	O	1.426048	0.829687	-0.127431
O51	O	1.759382	1.163020	0.205902
C52	C	0.940076	0.339030	-0.404037
C53	C	1.273410	0.672364	-0.070704
C54	C	1.606743	1.005697	0.262629
C55	C	0.850455	0.339043	-0.404047
C56	C	1.183788	0.672376	-0.070714
C57	C	1.517121	1.005710	0.262619
C58	C	1.141055	0.521905	-0.412435
C59	C	1.474389	0.855238	-0.079101
C60	C	1.807722	1.188571	0.254232
C61	C	1.137488	0.600135	-0.416044
C62	C	1.470821	0.933468	-0.082711
C63	C	1.804155	1.266801	0.250622
C64	C	1.149608	0.338994	-0.614367
C65	C	1.482942	0.672327	-0.281034
C66	C	1.816275	1.005661	0.052299
C67	C	1.149626	0.338974	-0.703988
C68	C	1.482960	0.672307	-0.370654
C69	C	1.816293	1.005641	-0.037321
C70	C	0.522279	0.339048	-0.404082
C71	C	0.855612	0.672381	-0.070749
C72	C	1.188946	1.005714	0.262585
C73	C	0.613587	0.339044	-0.404070
C74	C	0.946921	0.672378	-0.070737
C75	C	1.280254	1.005711	0.262597
C76	C	0.686364	0.339046	-0.404064
C77	C	1.019697	0.672379	-0.070731
C78	C	1.353031	1.005712	0.262602
C79	C	0.777678	0.339042	-0.404053
C80	C	1.111012	0.672375	-0.070720
C81	C	1.444345	1.005708	0.262614
C82	C	1.359875	0.339051	-0.404084
C83	C	1.693208	0.672384	-0.070751
C84	C	2.026542	1.005718	0.262583
C85	C	1.449496	0.339055	-0.404094
C86	C	1.782829	0.672389	-0.070761
C87	C	2.116163	1.005722	0.262573
C88	C	1.158133	0.155462	-0.395671
C89	C	1.491467	0.488795	-0.062338
C90	C	1.824800	0.822129	0.270996
C91	C	1.161784	0.077232	-0.392096
C92	C	1.495117	0.410565	-0.058763
C93	C	1.828451	0.743898	0.274571
C94	C	1.187407	0.636878	-0.366224
C95	C	1.520740	0.970211	-0.032891
C96	C	1.854073	1.303545	0.300443
C97	C	1.184056	0.710383	-0.369624
C98	C	1.517389	1.043717	-0.036290
C99	C	1.850723	1.377050	0.297043
C100	C	1.130782	0.747144	-0.422840
C101	C	1.464115	1.080478	-0.089507
C102	C	1.797449	1.413811	0.243827
C103	C	1.080861	0.710396	-0.472666
C104	C	1.414195	1.043729	-0.139332
C105	C	1.747528	1.377063	0.194001
C106	C	1.084217	0.636892	-0.469270
C107	C	1.417550	0.970225	-0.135936
C108	C	1.750883	1.303558	0.197397
C109	C	1.115218	0.966979	-0.438525
C110	C	1.448552	1.300313	-0.105192
C111	C	1.781885	1.633646	0.228141
C112	C	1.111865	1.040489	-0.441916
C113	C	1.445199	1.373822	-0.108583
C114	C	1.778532	1.707155	0.224751
C115	C	1.215061	1.040471	-0.338875
C116	C	1.548395	1.373804	-0.005541
C117	C	1.881728	1.707138	0.327792
C118	C	1.218408	0.966966	-0.335480
C119	C	1.551742	1.300299	-0.002147
C120	C	1.885075	1.633632	0.331187
C121	C	1.168491	0.930223	-0.385308
C122	C	1.501824	1.263557	-0.051975
C123	C	1.835158	1.596890	0.281358
N124	N	1.127354	0.822279	-0.426315
N125	N	1.460688	1.155612	-0.092981
N126	N	1.794021	1.488945	0.240352
N127	N	1.171923	0.855090	-0.381837
N128	N	1.505257	1.188424	-0.048504
N129	N	1.838590	1.521757	0.284829
C130	C	1.149640	0.338958	-0.776769
C131	C	1.482973	0.672292	-0.443436
C132	C	1.816307	1.005625	-0.110103
C133	C	1.149660	0.338932	-0.868077
C134	C	1.482993	0.672266	-0.534743
C135	C	1.816327	1.005599	-0.201410
C136	C	1.149680	0.338908	-0.940852
C137	C	1.483014	0.672241	-0.607519
C138	C	1.816347	1.005574	-0.274185
C139	C	1.149702	0.338882	-1.032165
C140	C	1.483035	0.672215	-0.698832
C141	C	1.816368	1.005549	-0.365498
C142	C	1.149574	0.339036	-0.194569
C143	C	1.482907	0.672369	0.138764
C144	C	1.816241	1.005702	0.472097
C145	C	1.149722	0.338857	-0.104941
C146	C	1.483055	0.672191	0.228393
C147	C	1.816388	1.005524	0.561726
H148	H	1.230784	0.606952	-0.322886
H149	H	1.564118	0.940285	0.010447
H150	H	1.897451	1.273619	0.343781
F151	F	1.062090	0.927885	-0.491557
F152	F	1.395424	1.261218	-0.158224
F153	F	1.728757	1.594552	0.175110
H154	H	1.261788	0.937036	-0.292147
H155	H	1.595122	1.270370	0.041186
H156	H	1.928455	1.603703	0.374520
F157	F	1.237189	0.749485	-0.316600
F158	F	1.570522	1.082819	0.016733
F159	F	1.903856	1.416152	0.350066
H160	H	1.255703	1.070394	-0.298308
H161	H	1.589036	1.403728	0.035025
H162	H	1.922369	1.737061	0.368358
F163	F	1.055153	1.079611	-0.498551
F164	F	1.388486	1.412944	-0.165217
F165	F	1.721820	1.746277	0.168116
H166	H	1.037488	0.740332	-0.515999
H167	H	1.370821	1.073666	-0.182666
H168	H	1.704155	1.406999	0.150667
F169	F	1.031088	0.597787	-0.522297
F170	F	1.364422	0.931120	-0.188964
F171	F	1.697755	1.264454	0.144369
