data_functionalizedCrystal
_audit_creation_method	'MofGen! by Chris Wilmer'
_symmetry_space_group_name_H-M	'P1'
_symmetry_Int_Tables_number	1
_symmetry_cell_setting	triclinic
loop_
_symmetry_equiv_pos_as_xyz
  x,y,z
_cell_length_a	10.723022
_cell_length_b	10.489741
_cell_length_c	9.198806
_cell_angle_alpha	89.997101
_cell_angle_beta	89.996352
_cell_angle_gamma	84.503200
loop_
_atom_site_label
_atom_site_type_symbol
_atom_site_fract_x
_atom_site_fract_y
_atom_site_fract_z
O1	O	1.657298	0.178897	-0.120882
O2	O	1.294156	0.196024	-0.120887
O3	O	1.483990	0.001857	-0.120876
O4	O	1.467464	0.373063	-0.120893
O5	O	1.483975	0.001856	0.120909
O6	O	1.294141	0.196023	0.120898
O7	O	1.657283	0.178896	0.120903
Cu8	Cu	1.475711	0.187459	0.142977
Cu9	Cu	1.475729	0.187460	-0.142962
O10	O	1.467449	0.373063	0.120892
C11	C	1.247648	0.194777	0.000005
C12	C	1.109092	0.191050	0.000003
C13	C	1.060462	0.079080	0.000008
C14	C	0.917257	0.075225	0.000006
C15	C	1.482735	-0.045674	0.000016
C16	C	1.479000	-0.187301	0.000013
C17	C	1.358214	-0.255364	0.000001
C18	C	1.415265	-0.347523	0.119214
C19	C	1.415309	-0.347497	-0.119167
C20	C	1.536101	-0.277596	0.119325
C21	C	1.536127	-0.277560	-0.119163
C22	C	1.593266	-0.369692	0.000079
C23	C	1.703791	0.180142	0.000008
C24	C	1.842348	0.183870	-0.000000
C25	C	1.468705	0.420594	-0.000003
C26	C	1.472439	0.562221	-0.000010
N27	N	1.475707	0.187458	0.344091
N28	N	1.475742	0.187451	-0.344075
C29	C	1.555413	0.105574	0.416293
C30	C	1.555432	0.105569	0.583705
H31	H	1.044706	0.284056	-0.000008
H32	H	1.692665	-0.419180	0.000147
H33	H	0.875386	-0.020642	-0.000027
H34	H	1.623634	0.035467	0.354171
O35	O	1.226680	-0.189482	0.000149
H36	H	1.158417	-0.262614	0.001246
H37	H	1.364151	-0.378502	0.219999
O38	O	1.145731	-0.044130	0.000028
H39	H	1.244829	-0.021767	0.000043
O40	O	1.603726	-0.236817	0.252987
H41	H	1.605923	-0.131247	0.251977
H42	H	1.364192	-0.378428	-0.219962
H43	H	1.623676	0.035469	0.645796
O44	O	0.897780	0.310875	0.000003
H45	H	0.956447	0.317958	-0.098548
H46	H	1.407504	0.257564	0.593844
O47	O	1.385349	0.280348	0.426358
H48	H	1.287819	0.263511	0.397266
O49	O	1.603778	-0.236459	-0.252662
H50	H	1.553456	-0.264147	-0.351482
