data_functionalizedCrystal
_audit_creation_method	'MofGen! by Chris Wilmer'
_symmetry_space_group_name_H-M	'P1'
_symmetry_Int_Tables_number	1
_symmetry_cell_setting	triclinic
loop_
_symmetry_equiv_pos_as_xyz
  x,y,z
_cell_length_a	17.019372
_cell_length_b	17.019294
_cell_length_c	13.930277
_cell_angle_alpha	86.116472
_cell_angle_beta	93.869203
_cell_angle_gamma	83.656821
loop_
_atom_site_label
_atom_site_type_symbol
_atom_site_fract_x
_atom_site_fract_y
_atom_site_fract_z
O1	O	1.046553	0.100471	-0.001693
O2	O	1.546553	0.600471	0.498307
O3	O	0.816877	0.113292	-0.021725
O4	O	1.316877	0.613292	0.478275
O5	O	0.938122	-0.007959	-0.001682
O6	O	1.438122	0.492041	0.498318
O7	O	0.925309	0.221722	-0.021736
O8	O	1.425309	0.721722	0.478264
O9	O	0.938105	-0.007961	0.157979
O10	O	1.438105	0.492039	0.657979
O11	O	0.816861	0.113290	0.137936
O12	O	1.316861	0.613290	0.637936
O13	O	1.046536	0.100468	0.157968
O14	O	1.546536	0.600468	0.657968
Zn15	Zn	0.931696	0.106879	0.173301
Zn16	Zn	1.431696	0.606879	0.673301
Zn17	Zn	0.931718	0.106882	-0.037059
Zn18	Zn	1.431718	0.606882	0.462941
O19	O	0.925292	0.221719	0.137924
O20	O	1.425292	0.721719	0.637924
C21	C	0.787481	0.112806	0.055718
C22	C	1.287481	0.612806	0.555718
C23	C	0.699914	0.111351	0.048605
C24	C	1.199914	0.611351	0.548605
C25	C	0.204655	0.103095	0.003947
C26	C	0.704655	0.603095	0.503947
C27	C	0.286934	0.104462	0.010643
C28	C	0.786934	0.604462	0.510643
C29	C	0.328055	0.105150	0.101023
C30	C	0.828055	0.605150	0.601023
C31	C	0.286895	0.104463	0.184712
C32	C	0.786895	0.604463	0.684712
C33	C	0.204618	0.103090	0.178015
C34	C	0.704618	0.603090	0.678015
C35	C	0.576477	0.109290	0.125597
C36	C	1.076477	0.609290	0.625597
C37	C	0.658759	0.110666	0.132287
C38	C	1.158759	0.610666	0.632287
C39	C	0.658792	0.110663	-0.041782
C40	C	1.158792	0.610663	0.458218
C41	C	0.576514	0.109295	-0.048471
C42	C	1.076514	0.609295	0.451529
C43	C	0.535361	0.108604	0.035218
C44	C	1.035361	0.608604	0.535218
C45	C	0.412157	0.106550	0.107869
C46	C	0.912157	0.606550	0.607869
C47	C	0.451261	0.107198	0.028371
C48	C	0.951261	0.607198	0.528371
C49	C	0.937628	-0.037349	0.080537
C50	C	1.437628	0.462651	0.580537
C51	C	0.936170	-0.124917	0.087653
C52	C	1.436170	0.375083	0.587653
C53	C	0.935496	-0.166051	0.003965
C54	C	1.435496	0.333949	0.503965
C55	C	0.934121	-0.248331	0.010654
C56	C	1.434121	0.251669	0.510654
C57	C	0.933425	-0.289475	0.101031
C58	C	1.433425	0.210525	0.601031
C59	C	0.934097	-0.248335	0.184725
C60	C	1.434097	0.251665	0.684725
C61	C	0.935466	-0.166057	0.178034
C62	C	1.435466	0.333943	0.678034
C63	C	0.929285	-0.537903	0.125585
C64	C	1.429285	-0.037903	0.625585
C65	C	0.927918	-0.620188	0.132269
C66	C	1.427918	-0.120188	0.632269
C67	C	0.927940	-0.620178	-0.041803
C68	C	1.427940	-0.120178	0.458197
C69	C	0.929315	-0.537898	-0.048485
C70	C	1.429315	-0.037898	0.451515
C71	C	0.929982	-0.496765	0.035208
C72	C	1.429982	0.003235	0.535208
C73	C	0.932022	-0.373579	0.107871
C74	C	1.432022	0.126421	0.607871
C75	C	0.931379	-0.412662	0.028368
C76	C	1.431379	0.087338	0.528368
C77	C	1.075933	0.100955	0.080523
C78	C	1.575933	0.600955	0.580523
C79	C	1.163500	0.102410	0.087629
C80	C	1.663500	0.602410	0.587629
C81	C	0.925786	0.251109	0.055704
C82	C	1.425786	0.751109	0.555704
C83	C	0.927244	0.338678	0.048581
C84	C	1.427244	0.838678	0.548581
N85	N	0.931687	0.106876	0.316867
N86	N	1.431687	0.606876	0.816867
N87	N	0.931734	0.106878	-0.180623
N88	N	1.431734	0.606878	0.319377
C89	C	0.878029	0.160551	0.760265
C90	C	1.378029	0.660551	1.260265
C91	C	0.985429	0.053207	0.777983
C92	C	1.485429	0.553207	1.277983
C93	C	0.985420	0.053204	0.677487
C94	C	1.485420	0.553204	1.177487
C95	C	0.931715	0.106877	0.618375
C96	C	1.431715	0.606877	1.118375
C97	C	0.878019	0.160551	0.659759
C98	C	1.378019	0.660551	1.159759
C99	C	1.039119	-0.000464	0.636095
C100	C	1.539119	0.499536	1.136095
C101	C	1.039113	-0.000468	0.535593
C102	C	1.539113	0.499532	1.035593
C103	C	0.985403	0.053201	0.476479
C104	C	1.485403	0.553201	0.976479
C105	C	0.931705	0.106877	0.517869
C106	C	1.431705	0.606877	1.017869
C107	C	0.878001	0.160550	0.458756
C108	C	1.378001	0.660550	0.958756
C109	C	0.824298	0.214223	0.500144
C110	C	1.324298	0.714223	1.000144
C111	C	0.824310	0.214221	0.600644
C112	C	1.324310	0.714221	1.100644
C113	C	0.985391	0.053203	0.375979
C114	C	1.485391	0.553203	0.875979
C115	C	0.877991	0.160550	0.358251
C116	C	1.377991	0.660550	0.858251
H117	H	0.542982	0.108716	0.193744
H118	H	1.042982	0.608716	0.693744
F119	F	0.330662	0.105193	0.280901
F120	F	0.830662	0.605193	0.780901
H121	H	0.171110	0.102540	0.246158
H122	H	0.671110	0.602540	0.746158
F123	F	1.096278	-0.057579	0.699006
F124	F	1.596278	0.442421	1.199006
F125	F	0.767148	0.271348	0.437222
F126	F	1.267148	0.771348	0.937222
H127	H	0.417777	0.106635	-0.045215
H128	H	0.917777	0.606635	0.454785
H129	H	0.445647	0.107112	0.181457
H130	H	0.945647	0.607112	0.681457
F131	F	1.096265	-0.057592	0.491552
F132	F	1.596265	0.442408	0.991552
H133	H	0.543038	0.108734	-0.122068
H134	H	1.043038	0.608734	0.377932
H135	H	0.927348	-0.653685	0.205868
H136	H	1.427348	-0.153685	0.705868
F137	F	0.933404	-0.292105	-0.078418
F138	F	1.433404	0.207895	0.421582
H139	H	0.927396	-0.653678	-0.109941
H140	H	1.427396	-0.153678	0.390059
F141	F	0.929985	-0.494135	0.214658
F142	F	1.429985	0.005865	0.714658
F143	F	0.933348	-0.292125	0.280911
F144	F	1.433348	0.207875	0.780911
F145	F	1.042588	-0.003908	0.840894
F146	F	1.542588	0.496092	1.340894
F147	F	0.820874	0.217668	0.804310
F148	F	1.320874	0.717668	1.304310
F149	F	1.042546	-0.003911	0.331936
F150	F	1.542546	0.496089	0.831936
H151	H	0.320439	0.105015	-0.057500
H152	H	0.820439	0.605015	0.442500
F153	F	0.936241	-0.122270	-0.092227
F154	F	1.436241	0.377730	0.407773
F155	F	0.702596	0.111395	-0.130844
F156	F	1.202596	0.611395	0.369156
H157	H	0.171179	0.102540	-0.069651
H158	H	0.671179	0.602540	0.430349
H159	H	0.692237	0.111231	0.205889
H160	H	1.192237	0.611231	0.705889
H161	H	0.931459	-0.407088	0.181456
H162	H	1.431459	0.092912	0.681456
F163	F	0.930056	-0.494115	-0.144676
F164	F	1.430056	0.005885	0.355324
F165	F	0.820826	0.217674	0.295346
F166	F	1.320826	0.717674	0.795346
F167	F	0.936183	-0.122279	0.267106
F168	F	1.436183	0.377721	0.767106
F169	F	0.767162	0.271341	0.644696
F170	F	1.267162	0.771341	1.144696
F171	F	0.932121	-0.368872	-0.067815
F172	F	1.432121	0.131128	0.432185
