data_functionalizedCrystal
_audit_creation_method	'MofGen! by Chris Wilmer'
_symmetry_space_group_name_H-M	'P1'
_symmetry_Int_Tables_number	1
_symmetry_cell_setting	triclinic
loop_
_symmetry_equiv_pos_as_xyz
  x,y,z
_cell_length_a	11.792254
_cell_length_b	11.792241
_cell_length_c	14.586319
_cell_angle_alpha	90.004494
_cell_angle_beta	90.004084
_cell_angle_gamma	84.196007
loop_
_atom_site_label
_atom_site_type_symbol
_atom_site_fract_x
_atom_site_fract_y
_atom_site_fract_z
O1	O	1.506900	0.155636	0.076240
O2	O	1.176560	0.171654	0.076242
O3	O	1.349746	-0.001526	0.076235
O4	O	1.333714	0.328815	0.076247
O5	O	1.349732	-0.001530	-0.076246
O6	O	1.176546	0.171649	-0.076239
O7	O	1.506886	0.155631	-0.076241
Cu8	Cu	1.341715	0.163640	-0.090163
Cu9	Cu	1.341731	0.163645	0.090164
O10	O	1.333700	0.328811	-0.076233
C11	C	1.134263	0.170642	0.000002
C12	C	1.008250	0.167622	0.000002
C13	C	0.905913	0.165168	0.000006
C14	C	0.777527	0.162100	0.000007
C15	C	1.348732	-0.043819	-0.000006
C16	C	1.345718	-0.169832	-0.000005
C17	C	1.340175	-0.400545	0.000011
C18	C	1.343255	-0.272160	0.000002
C19	C	1.549183	0.156643	0.000001
C20	C	1.675196	0.159663	0.000007
C21	C	1.334714	0.371104	0.000009
C22	C	1.337728	0.497118	0.000014
N23	N	1.341711	0.163636	-0.216994
C24	C	1.418428	0.086978	-0.547991
C25	C	1.418426	0.086978	-0.452010
C26	C	1.265023	0.240307	-0.452014
C27	C	1.265032	0.240311	-0.547994
C28	C	1.341733	0.163640	-0.595980
C29	C	1.341722	0.163636	-0.404019
C30	C	1.341718	0.163637	-0.299952
C31	C	1.341739	0.163640	-0.700054
N32	N	1.341744	0.163640	0.216995
H33	H	1.480885	0.024549	-0.587059
H34	H	1.480879	0.024554	-0.412941
F35	F	1.183393	0.321899	-0.400938
F36	F	1.183404	0.321914	-0.599070
