data_functionalizedCrystal
_audit_creation_method	'MofGen! by Chris Wilmer'
_symmetry_space_group_name_H-M	'P1'
_symmetry_Int_Tables_number	1
_symmetry_cell_setting	triclinic
loop_
_symmetry_equiv_pos_as_xyz
  x,y,z
_cell_length_a	12.759401
_cell_length_b	16.120444
_cell_length_c	12.759393
_cell_angle_alpha	92.865361
_cell_angle_beta	89.980677
_cell_angle_gamma	92.925534
loop_
_atom_site_label
_atom_site_type_symbol
_atom_site_fract_x
_atom_site_fract_y
_atom_site_fract_z
Zn1	Zn	1.584968	-0.331893	-0.615160
Zn2	Zn	1.575915	-0.471327	-0.448375
Zn3	Zn	1.409266	-0.331929	-0.439501
Zn4	Zn	1.400317	-0.471264	-0.624012
O5	O	1.492616	-0.401603	-0.531762
O6	O	1.730787	-0.350400	-0.593045
O7	O	1.553765	-0.452877	-0.300180
O8	O	1.440107	-0.215259	-0.455385
O9	O	1.724136	-0.452841	-0.470509
O10	O	1.569195	-0.215232	-0.584441
O11	O	1.431329	-0.350462	-0.293660
O12	O	1.261058	-0.350402	-0.463968
O13	O	1.424855	-0.452735	-0.769856
O14	O	1.254484	-0.452770	-0.599527
O15	O	1.560517	-0.350339	-0.763353
O16	O	1.545087	-0.587984	-0.479092
O17	O	1.416076	-0.587938	-0.608132
C18	C	1.219650	-0.401584	-0.531746
C19	C	1.102873	-0.401596	-0.531765
C20	C	1.478657	-0.618211	-0.545558
C21	C	1.472781	-0.710877	-0.551495
C22	C	0.941730	-0.348370	-0.595688
C23	C	1.051455	-0.348353	-0.595680
C24	C	1.044559	-0.454863	-0.467862
C25	C	0.934836	-0.454883	-0.467876
C26	C	1.523355	-0.921822	-0.501189
C27	C	1.462073	-0.880533	-0.562346
C28	C	1.468033	-0.786128	-0.556307
C29	C	1.517396	-1.016236	-0.507227
C30	C	1.766648	-0.401623	-0.531780
C31	C	1.883424	-0.401632	-0.531787
C32	C	1.492698	-0.401526	-0.805791
C33	C	1.492732	-0.401492	-0.922565
C34	C	1.506659	-0.184149	-0.517935
C35	C	1.512643	-0.091483	-0.512043
C36	C	1.556516	-0.454758	-1.090554
C37	C	1.556488	-0.454797	-0.980832
C38	C	1.428992	-0.348151	-0.974026
C39	C	1.429015	-0.348116	-1.083746
C40	C	1.492600	-0.401620	-0.258796
C41	C	1.492784	-0.401419	-0.142007
H42	H	0.899875	-0.305009	-0.647728
H43	H	1.377076	-0.304753	-0.926577
H44	H	1.405131	-0.916086	-0.619240
C45	C	1.682528	-0.560183	-1.086257
C46	C	1.626599	-0.513355	-1.154596
H47	H	1.725787	-0.596364	-1.125794
H48	H	1.725052	-0.523877	-1.041160
H49	H	1.634670	-0.592079	-1.045482
H50	H	1.674457	-0.481455	-1.195365
H51	H	1.584071	-0.549665	-1.199711
C52	C	1.563819	-0.566987	-0.864596
C53	C	1.626547	-0.513430	-0.924276
H54	H	1.607073	-0.603189	-0.829688
H55	H	1.525853	-0.535249	-0.814196
H56	H	1.515999	-0.598856	-0.909436
H57	H	1.674362	-0.481556	-0.879435
H58	H	1.664530	-0.545171	-0.974682
H59	H	1.377111	-0.304680	-1.125640
C60	C	1.591299	-0.788247	-0.433188
C61	C	1.600210	-0.873834	-0.424378
H62	H	1.638740	-0.758615	-0.385761
H63	H	1.607531	-0.773976	-0.502887
H64	H	1.521585	-0.774103	-0.416872
H65	H	1.669923	-0.887978	-0.440702
H66	H	1.583986	-0.888109	-0.354664
H67	H	1.086431	-0.498217	-0.415825
C68	C	1.047244	-0.243068	-0.722010
C69	C	1.115545	-0.289802	-0.665916
H70	H	1.086813	-0.206917	-0.765368
H71	H	1.002134	-0.279436	-0.764443
H72	H	1.006476	-0.211146	-0.674258
H73	H	1.156308	-0.321729	-0.713669
H74	H	1.160674	-0.253430	-0.623480
H75	H	0.887361	-0.498260	-0.415840
