data_functionalizedCrystal
_audit_creation_method	'MofGen! by Chris Wilmer'
_symmetry_space_group_name_H-M	'P1'
_symmetry_Int_Tables_number	1
_symmetry_cell_setting	triclinic
loop_
_symmetry_equiv_pos_as_xyz
  x,y,z
_cell_length_a	10.654545
_cell_length_b	9.065218
_cell_length_c	9.130313
_cell_angle_alpha	89.989571
_cell_angle_beta	90.003278
_cell_angle_gamma	95.250485
loop_
_atom_site_label
_atom_site_type_symbol
_atom_site_fract_x
_atom_site_fract_y
_atom_site_fract_z
O1	O	1.668664	-0.207200	0.121812
O2	O	2.168664	0.292800	0.621812
O3	O	1.303263	-0.226951	0.121820
O4	O	1.803263	0.273049	0.621820
O5	O	1.493516	-0.002391	0.121778
O6	O	1.993516	0.497609	0.621778
O7	O	1.478411	-0.431759	0.121854
O8	O	1.978411	0.068241	0.621854
O9	O	1.493502	-0.002391	-0.121820
O10	O	1.993502	0.497609	0.378180
O11	O	1.303249	-0.226951	-0.121778
O12	O	1.803249	0.273049	0.378222
O13	O	1.668650	-0.207200	-0.121787
O14	O	2.168650	0.292800	0.378213
Cu15	Cu	1.485948	-0.217075	-0.144025
Cu16	Cu	1.985948	0.282925	0.355975
Cu17	Cu	1.485965	-0.217075	0.144058
Cu18	Cu	1.985965	0.282925	0.644058
O19	O	1.478397	-0.431759	-0.121745
O20	O	1.978397	0.068241	0.378255
C21	C	1.256452	-0.225502	0.000021
C22	C	1.756452	0.274498	0.500021
C23	C	1.116991	-0.221167	0.000023
C24	C	1.616991	0.278833	0.500023
C25	C	1.051471	-0.219127	-0.132764
C26	C	1.551471	0.280873	0.367236
C27	C	0.920435	-0.215029	-0.132765
C28	C	1.420435	0.284971	0.367235
C29	C	0.920452	-0.215020	0.132820
C30	C	1.420452	0.284980	0.632820
C31	C	1.051486	-0.219106	0.132819
C32	C	1.551486	0.280894	0.632819
C33	C	1.492057	0.052587	-0.000027
C34	C	1.992057	0.552587	0.499973
C35	C	1.487716	0.216406	-0.000047
C36	C	1.987716	0.716406	0.499953
C37	C	1.715461	-0.208649	0.000015
C38	C	2.215461	0.291351	0.500015
C39	C	1.854921	-0.212983	0.000023
C40	C	2.354921	0.287017	0.500023
C41	C	1.479855	0.513262	0.000023
C42	C	1.979855	1.013262	0.500023
C43	C	1.484196	0.349443	-0.000068
C44	C	1.984196	0.849443	0.499932
N45	N	1.485945	-0.217074	-0.346648
N46	N	1.985945	0.282926	0.153352
C47	C	1.563134	-0.307395	-0.423280
C48	C	2.063134	0.192605	0.076720
C49	C	1.563154	-0.307386	-0.576617
C50	C	2.063154	0.192614	-0.076617
C51	C	1.408785	-0.126734	-0.576676
C52	C	1.908785	0.373266	-0.076676
C53	C	1.408773	-0.126735	-0.423342
C54	C	1.908773	0.373265	0.076658
N55	N	1.485978	-0.217064	0.346681
N56	N	1.985978	0.282936	0.846681
H57	H	0.867101	-0.213343	0.240938
H58	H	1.367101	0.286657	0.740938
C59	C	1.648026	-0.406749	-0.338914
C60	C	2.148026	0.093251	0.161086
H61	H	1.636957	-0.393828	-0.236617
H62	H	2.136957	0.106172	0.263383
H63	H	1.733648	-0.380273	-0.364033
H64	H	2.233648	0.119727	0.135967
H65	H	1.625827	-0.507455	-0.364031
H66	H	2.125827	-0.007455	0.135969
C67	C	1.648056	-0.406746	-0.660906
C68	C	2.148056	0.093254	-0.160906
H69	H	1.694004	-0.460553	-0.593264
H70	H	2.194004	0.039447	-0.093264
H71	H	1.705182	-0.346920	-0.720721
H72	H	2.205182	0.153080	-0.220721
H73	H	1.597352	-0.474091	-0.720717
H74	H	2.097352	0.025909	-0.220717
C75	C	1.123527	-0.221351	-0.278833
C76	C	1.623527	0.278649	0.221167
H77	H	1.065736	-0.219527	-0.357914
H78	H	1.565736	0.280473	0.142086
H79	H	1.166049	-0.308825	-0.284360
H80	H	1.666049	0.191175	0.215640
H81	H	1.183240	-0.137035	-0.284350
H82	H	1.683240	0.362965	0.215650
C83	C	1.323835	-0.027414	-0.339035
C84	C	1.823835	0.472586	0.160965
H85	H	1.334883	-0.040354	-0.236731
H86	H	1.834883	0.459646	0.263269
H87	H	1.238222	-0.053913	-0.364185
H88	H	1.738222	0.446087	0.135815
H89	H	1.346016	0.073301	-0.364160
H90	H	1.846016	0.573301	0.135840
H91	H	0.867094	-0.213368	-0.240893
H92	H	1.367094	0.286632	0.259107
H93	H	1.345953	-0.053185	-0.639139
H94	H	1.845953	0.446815	-0.139139
C95	C	1.123563	-0.221356	0.278892
C96	C	1.623563	0.278644	0.778892
H97	H	1.065783	-0.219566	0.357981
H98	H	1.565783	0.280434	0.857981
H99	H	1.183287	-0.137063	0.284394
H100	H	1.683287	0.362937	0.784394
H101	H	1.166071	-0.308851	0.284423
H102	H	1.666071	0.191149	0.784423
