data_functionalizedCrystal
_audit_creation_method	'MofGen! by Chris Wilmer'
_symmetry_space_group_name_H-M	'P1'
_symmetry_Int_Tables_number	1
_symmetry_cell_setting	triclinic
loop_
_symmetry_equiv_pos_as_xyz
  x,y,z
_cell_length_a	11.792241
_cell_length_b	15.995350
_cell_length_c	10.268362
_cell_angle_alpha	89.996947
_cell_angle_beta	89.999626
_cell_angle_gamma	83.842895
loop_
_atom_site_label
_atom_site_type_symbol
_atom_site_fract_x
_atom_site_fract_y
_atom_site_fract_z
O1	O	1.505952	0.114763	-0.108167
O2	O	1.175512	0.126591	-0.108197
O3	O	1.349764	-0.001170	-0.108180
O4	O	1.331699	0.242524	-0.108184
O5	O	1.349749	-0.001175	0.108421
O6	O	1.175497	0.126586	0.108404
O7	O	1.505936	0.114758	0.108434
Cu8	Cu	1.340715	0.120671	0.128196
Cu9	Cu	1.340733	0.120678	-0.127959
O10	O	1.331684	0.242518	0.108417
C11	C	1.133220	0.125845	0.000100
C12	C	1.007224	0.123621	0.000088
C13	C	0.776546	0.119532	0.000126
C14	C	0.904913	0.121804	0.000105
C15	C	1.349010	-0.032370	0.000118
C16	C	1.346771	-0.125331	0.000111
C17	C	1.338730	-0.463115	0.000114
C18	C	1.214630	-0.416244	-0.000383
C19	C	1.216870	-0.319544	0.000106
C20	C	1.342718	-0.295536	0.000112
C21	C	1.403920	-0.336339	0.123804
C22	C	1.400803	-0.432989	0.123908
C23	C	1.403383	-0.433329	-0.122408
C24	C	1.403354	-0.336384	-0.124042
C25	C	1.344979	-0.200829	0.000115
C26	C	1.336473	-0.557823	0.000120
C27	C	1.548229	0.115504	0.000134
C28	C	1.674224	0.117727	0.000137
C29	C	1.332438	0.273719	0.000116
C30	C	1.334677	0.366680	0.000115
N31	N	1.340711	0.120666	0.308362
N32	N	1.340746	0.120676	-0.308125
C33	C	1.340727	0.120676	0.574033
C34	C	1.340715	0.120673	0.426195
H35	H	1.165035	-0.434999	-0.089086
C36	C	1.151635	-0.282128	0.120178
C37	C	1.046540	-0.217189	0.102558
C38	C	0.981401	-0.179743	0.222681
C39	C	1.021357	-0.207236	0.360423
C40	C	1.126457	-0.272178	0.378049
C41	C	1.191596	-0.309624	0.257926
H42	H	1.016958	-0.196834	0.000587
H43	H	0.903599	-0.131668	0.209632
H44	H	0.973137	-0.179516	0.449346
H45	H	1.156039	-0.292533	0.480020
H46	H	1.269398	-0.357699	0.270975
H47	H	1.495129	-0.320605	-0.131506
H48	H	1.361400	-0.308153	0.215848
C49	C	1.528823	-0.316689	0.130041
C50	C	1.576814	-0.263237	0.022631
C51	C	1.701717	-0.243586	0.028865
C52	C	1.778628	-0.277386	0.142509
C53	C	1.730639	-0.330841	0.249928
C54	C	1.605736	-0.350493	0.243694
H55	H	1.519879	-0.238213	-0.061503
H56	H	1.737242	-0.204015	-0.050654
H57	H	1.871089	-0.262839	0.147124
H58	H	1.787574	-0.355865	0.334061
H59	H	1.570211	-0.390064	0.323212
C60	C	1.340485	-0.457997	0.248801
C61	C	1.231187	-0.502399	0.239348
C62	C	1.170864	-0.527403	0.364242
C63	C	1.219840	-0.508004	0.498589
C64	C	1.329144	-0.463600	0.508047
C65	C	1.389466	-0.438597	0.383153
H66	H	1.194926	-0.516761	0.139892
H67	H	1.089950	-0.560274	0.357240
H68	H	1.175186	-0.526513	0.591043
H69	H	1.365404	-0.449238	0.607503
H70	H	1.470381	-0.405726	0.390155
H71	H	1.494881	-0.464675	-0.123234
H72	H	1.362816	-0.454051	-0.216159
H73	H	1.491914	-0.464823	0.129524
C74	C	1.342937	-0.299768	-0.247631
C75	C	1.216047	-0.309885	-0.270323
C76	C	1.155599	-0.273258	-0.393889
C77	C	1.222042	-0.226514	-0.494764
C78	C	1.348939	-0.216395	-0.472075
C79	C	1.409386	-0.253022	-0.348508
H80	H	1.166856	-0.344489	-0.195647
H81	H	1.061662	-0.280749	-0.410685
H82	H	1.177295	-0.199401	-0.586235
H83	H	1.398130	-0.181791	-0.546751
H84	H	1.503324	-0.245530	-0.331712
C85	C	1.151866	-0.281437	-0.119671
C86	C	1.213746	-0.231591	-0.220808
C87	C	1.148731	-0.193490	-0.340586
C88	C	1.021836	-0.205235	-0.359226
C89	C	0.959948	-0.255083	-0.258085
C90	C	1.024963	-0.293184	-0.138307
H91	H	1.307688	-0.222894	-0.207013
H92	H	1.194545	-0.156589	-0.415457
H93	H	0.973708	-0.177031	-0.447892
H94	H	0.866007	-0.263780	-0.271880
H95	H	0.979150	-0.330085	-0.063436
H96	H	1.165243	-0.436065	0.087817
