data_functionalizedCrystal
_audit_creation_method	'MofGen! by Chris Wilmer'
_symmetry_space_group_name_H-M	'P1'
_symmetry_Int_Tables_number	1
_symmetry_cell_setting	triclinic
loop_
_symmetry_equiv_pos_as_xyz
  x,y,z
_cell_length_a	15.995300
_cell_length_b	15.995292
_cell_length_c	12.503572
_cell_angle_alpha	93.525692
_cell_angle_beta	86.480794
_cell_angle_gamma	83.470212
loop_
_atom_site_label
_atom_site_type_symbol
_atom_site_fract_x
_atom_site_fract_y
_atom_site_fract_z
O1	O	1.115821	0.102882	-0.089353
O2	O	1.449154	0.436216	0.243981
O3	O	1.782487	0.769549	0.577314
O4	O	0.872036	0.116255	-0.089345
O5	O	1.205370	0.449588	0.243988
O6	O	1.538703	0.782921	0.577321
O7	O	1.000618	-0.012324	-0.089351
O8	O	1.333951	0.321009	0.243982
O9	O	1.667285	0.654343	0.577316
O10	O	0.987239	0.231461	-0.089347
O11	O	1.320572	0.564794	0.243986
O12	O	1.653906	0.898127	0.577319
O13	O	0.990948	-0.002638	0.089291
O14	O	1.324281	0.330695	0.422625
O15	O	1.657614	0.664029	0.755958
O16	O	0.862366	0.125940	0.089297
O17	O	1.195700	0.459274	0.422630
O18	O	1.529033	0.792607	0.755964
O19	O	1.106150	0.112568	0.089290
O20	O	1.439484	0.445901	0.422623
O21	O	1.772817	0.779235	0.755956
Cu22	Cu	0.983375	0.120139	0.105605
Cu23	Cu	1.316709	0.453472	0.438938
Cu24	Cu	1.650042	0.786805	0.772271
Cu25	Cu	0.994811	0.108684	-0.105661
Cu26	Cu	1.328145	0.442017	0.227673
Cu27	Cu	1.661478	0.775351	0.561006
O28	O	0.977569	0.241147	0.089295
O29	O	1.310902	0.574480	0.422628
O30	O	1.644236	0.907813	0.755962
C31	C	0.836006	0.120552	-0.000023
C32	C	1.169339	0.453885	0.333310
C33	C	1.502673	0.787219	0.666643
C34	C	0.743053	0.118917	-0.000021
C35	C	1.076387	0.452251	0.333313
C36	C	1.409720	0.785584	0.666646
C37	C	0.572871	0.115897	-0.000029
C38	C	0.906205	0.449231	0.333304
C39	C	1.239538	0.782564	0.666638
C40	C	0.525386	0.207448	-0.000025
C41	C	0.858720	0.540781	0.333308
C42	C	1.192053	0.874114	0.666641
C43	C	0.428721	0.205755	-0.000434
C44	C	0.762054	0.539089	0.332900
C45	C	1.095388	0.872422	0.666233
C46	C	0.405316	0.112925	-0.000036
C47	C	0.738649	0.446258	0.333297
C48	C	1.071982	0.779592	0.666631
C49	C	0.451969	0.061983	-0.101849
C50	C	0.785303	0.395317	0.231484
C51	C	1.118636	0.728650	0.564818
C52	C	0.548607	0.064295	-0.101932
C53	C	0.881940	0.397629	0.231402
C54	C	1.215273	0.730962	0.564735
C55	C	0.537889	0.073955	0.101225
C56	C	0.871222	0.407288	0.434558
C57	C	1.204556	0.740622	0.767892
C58	C	0.440872	0.074036	0.102560
C59	C	0.774206	0.407369	0.435894
C60	C	1.107539	0.740702	0.769227
C61	C	0.310621	0.111240	-0.000044
C62	C	0.643955	0.444573	0.333290
C63	C	0.977288	0.777907	0.666623
C64	C	0.667567	0.117579	-0.000029
C65	C	1.000900	0.450912	0.333305
C66	C	1.334233	0.784246	0.666638
C67	C	0.995238	-0.038677	-0.000032
C68	C	1.328572	0.294657	0.333301
C69	C	1.661905	0.627990	0.666634
C70	C	0.993606	-0.131630	-0.000040
C71	C	1.326940	0.201704	0.333293
C72	C	1.660273	0.535037	0.666626
C73	C	0.987605	-0.469367	-0.000030
C74	C	1.320938	-0.136033	0.333303
C75	C	1.654271	0.197300	0.666636
C76	C	1.080390	-0.446049	0.000366
C77	C	1.413723	-0.112716	0.333699
C78	C	1.747056	0.220617	0.667033
C79	C	1.082176	-0.349396	-0.000041
C80	C	1.415509	-0.016063	0.333293
C81	C	1.748842	0.317270	0.666626
C82	C	0.990583	-0.301811	-0.000035
C83	C	1.323916	0.031522	0.333299
C84	C	1.657249	0.364855	0.666632
C85	C	0.949706	-0.336435	-0.102044
C86	C	1.283039	-0.003102	0.231290
C87	C	1.616372	0.330232	0.564623
C88	C	0.948593	-0.433230	-0.102125
C89	C	1.281926	-0.099896	0.231208
C90	C	1.615260	0.233437	0.564542
C91	C	0.935701	-0.422072	0.101025
C92	C	1.269034	-0.088738	0.434358
C93	C	1.602368	0.244595	0.767691
C94	C	0.939067	-0.325507	0.102369
C95	C	1.272401	0.007826	0.435702
C96	C	1.605734	0.341160	0.769036
C97	C	0.992261	-0.207116	-0.000041
C98	C	1.325594	0.126217	0.333293
C99	C	1.658928	0.459551	0.666626
C100	C	0.985924	-0.564062	-0.000032
C101	C	1.319257	-0.230729	0.333302
C102	C	1.652590	0.102605	0.666635
C103	C	1.142181	0.108270	-0.000035
C104	C	1.475514	0.441604	0.333299
C105	C	1.808848	0.774937	0.666632
C106	C	1.235134	0.109905	-0.000044
C107	C	1.568467	0.443238	0.333289
C108	C	1.901800	0.776572	0.666622
C109	C	0.982948	0.267499	-0.000026
C110	C	1.316282	0.600832	0.333308
C111	C	1.649615	0.934166	0.666641
C112	C	0.984581	0.360452	-0.000025
C113	C	1.317914	0.693785	0.333309
C114	C	1.651247	1.027118	0.666642
N115	N	0.975338	0.128195	0.254197
N116	N	1.308671	0.461528	0.587531
N117	N	1.642005	0.794861	0.920864
N118	N	1.002855	0.100621	-0.254253
N119	N	1.336189	0.433955	0.079080
N120	N	1.669522	0.767288	0.412414
C121	C	0.963515	0.140053	0.473313
C122	C	1.296848	0.473386	0.806646
C123	C	1.630181	0.806719	1.139980
C124	C	1.014676	0.088766	0.526638
C125	C	1.348009	0.422099	0.859971
C126	C	1.681343	0.755433	1.193305
C127	C	1.008097	0.095364	0.648562
C128	C	1.341431	0.428697	0.981895
C129	C	1.674764	0.762031	1.315228
C130	C	0.970092	0.133456	0.351379
C131	C	1.303426	0.466789	0.684712
C132	C	1.636759	0.800122	1.018045
H133	H	0.569631	0.006509	0.102203
H134	H	0.902964	0.339843	0.435537
H135	H	1.236298	0.673176	0.768870
H136	H	0.425199	0.006690	0.109008
H137	H	0.758533	0.340023	0.442341
H138	H	1.091866	0.673356	0.775675
H139	H	0.914777	0.188913	0.519223
H140	H	1.248110	0.522246	0.852556
H141	H	1.581444	0.855579	1.185889
H142	H	1.122694	-0.334970	-0.073295
H143	H	1.456027	-0.001637	0.260039
H144	H	1.789360	0.331697	0.593372
H145	H	0.396300	0.245402	0.072534
H146	H	0.729634	0.578735	0.405867
H147	H	1.062967	0.912069	0.739200
H148	H	0.984855	-0.464186	-0.178383
H149	H	1.318188	-0.130853	0.154951
H150	H	1.651521	0.202480	0.488284
H151	H	1.119901	-0.479018	-0.072381
H152	H	1.453234	-0.145685	0.260953
H153	H	1.786567	0.187649	0.594286
Br154	Br	0.835600	-0.457885	-0.109841
Br155	Br	1.168933	-0.124552	0.223493
Br156	Br	1.502266	0.208782	0.556826
Br157	Br	0.827080	-0.269981	0.112649
Br158	Br	1.160414	0.063352	0.445982
Br159	Br	1.493747	0.396685	0.779316
H160	H	0.571054	0.092889	-0.178326
H161	H	0.904387	0.426222	0.155008
H162	H	1.237721	0.759555	0.488341
Br163	Br	0.821780	-0.445306	0.102180
Br164	Br	1.155114	-0.111973	0.435513
Br165	Br	1.488447	0.221361	0.768847
H166	H	1.063418	0.039904	0.480723
H167	H	1.396751	0.373237	0.814056
H168	H	1.730084	0.706571	1.147390
Br169	Br	0.977115	-0.462261	0.229894
Br170	Br	1.310448	-0.128928	0.563228
Br171	Br	1.643781	0.204405	0.896561
H172	H	0.548934	0.239739	-0.072925
H173	H	0.882267	0.573072	0.260408
H174	H	1.215600	0.906405	0.593741
Br175	Br	0.550216	0.275595	0.121122
Br176	Br	0.883549	0.608928	0.454455
Br177	Br	1.216883	0.942261	0.787788
Br178	Br	0.837710	-0.283642	-0.108369
Br179	Br	1.171043	0.049691	0.224965
Br180	Br	1.504377	0.383024	0.558298
Br181	Br	1.133418	-0.486109	0.122299
Br182	Br	1.466751	-0.152776	0.455632
Br183	Br	1.800084	0.180557	0.788965
Br184	Br	0.388909	0.258350	-0.122787
Br185	Br	0.722242	0.591684	0.210546
Br186	Br	1.055576	0.925017	0.543880
Br187	Br	0.602818	-0.048142	-0.109176
Br188	Br	0.936151	0.285192	0.224158
Br189	Br	1.269484	0.618525	0.557491
H190	H	0.968768	-0.302856	0.177834
H191	H	1.302101	0.030477	0.511168
H192	H	1.635435	0.363811	0.844501
Br193	Br	0.428813	-0.052049	-0.107692
Br194	Br	0.762147	0.281284	0.225641
Br195	Br	1.095480	0.614618	0.558975
Br196	Br	0.411600	0.107085	-0.228615
Br197	Br	0.744933	0.440418	0.104719
Br198	Br	1.078267	0.773752	0.438052
H199	H	0.409448	0.111289	0.177883
H200	H	0.742782	0.444622	0.511216
H201	H	1.076115	0.777956	0.844550
H202	H	0.554204	0.108281	0.178418
H203	H	0.887538	0.441615	0.511752
H204	H	1.220871	0.774948	0.845085
H205	H	1.114556	-0.326413	0.073081
H206	H	1.447889	0.006920	0.406415
H207	H	1.781222	0.340254	0.739748
H208	H	0.986036	-0.320496	-0.177962
H209	H	1.319369	0.012837	0.155371
H210	H	1.652702	0.346170	0.488705
