data_functionalizedCrystal
_audit_creation_method	'MofGen! by Chris Wilmer'
_symmetry_space_group_name_H-M	'P1'
_symmetry_Int_Tables_number	1
_symmetry_cell_setting	triclinic
loop_
_symmetry_equiv_pos_as_xyz
  x,y,z
_cell_length_a	13.032831
_cell_length_b	25.639239
_cell_length_c	13.032268
_cell_angle_alpha	97.141717
_cell_angle_beta	90.886977
_cell_angle_gamma	82.842759
loop_
_atom_site_label
_atom_site_type_symbol
_atom_site_fract_x
_atom_site_fract_y
_atom_site_fract_z
Zn1	Zn	1.498234	-0.353075	-0.780741
Zn2	Zn	1.519922	-0.430970	-0.608740
Zn3	Zn	1.348108	-0.331235	-0.586988
Zn4	Zn	1.326172	-0.428143	-0.758866
O5	O	1.423109	-0.385856	-0.683834
O6	O	1.645024	-0.373731	-0.776183
O7	O	1.515387	-0.409782	-0.461940
O8	O	1.368126	-0.260977	-0.612741
O9	O	1.660959	-0.430960	-0.649815
O10	O	1.478423	-0.277023	-0.755090
O11	O	1.389156	-0.336508	-0.445959
O12	O	1.201284	-0.333767	-0.591530
O13	O	1.330740	-0.426142	-0.905683
O14	O	1.185169	-0.404965	-0.717808
O15	O	1.457153	-0.370990	-0.921754
O16	O	1.494117	-0.503750	-0.628604
O17	O	1.351770	-0.501673	-0.738901
C18	C	1.155911	-0.366689	-0.649935
C19	C	1.041600	-0.358504	-0.635458
C20	C	0.982702	-0.390128	-0.691390
C21	C	0.864555	-0.381668	-0.676428
C22	C	1.422942	-0.521683	-0.683765
C23	C	1.422960	-0.579799	-0.683782
C24	C	1.497387	-0.941263	-0.626536
C25	C	1.497425	-0.995870	-0.626555
O26	O	1.560532	-1.025027	-0.577808
N27	N	1.423281	-1.022111	-0.683925
C28	C	1.349101	-0.993742	-0.741288
O29	O	1.286040	-1.021077	-0.790088
C30	C	1.349068	-0.939136	-0.741275
C31	C	1.423210	-0.912897	-0.683893
C32	C	1.571523	-0.915024	-0.569160
C33	C	1.571484	-0.860419	-0.569140
C34	C	1.497307	-0.832054	-0.626496
C35	C	1.423171	-0.858293	-0.683872
C36	C	1.274894	-0.910769	-0.798643
C37	C	1.274868	-0.856159	-0.798625
C38	C	1.349010	-0.829920	-0.741243
C39	C	1.348955	-0.775323	-0.741209
N40	N	1.423098	-0.749082	-0.683839
C41	C	1.497275	-0.777448	-0.626482
C42	C	1.349176	-1.108419	-0.741314
C43	C	1.349204	-1.163024	-0.741322
C44	C	1.497529	-1.165149	-0.626590
C45	C	1.497496	-1.110542	-0.626577
C46	C	1.423320	-1.082179	-0.683944
C47	C	1.497185	-0.662774	-0.626444
C48	C	1.497137	-0.608165	-0.626425
C49	C	1.348815	-0.606046	-0.741161
C50	C	1.348860	-0.660650	-0.741176
C51	C	1.423054	-0.689013	-0.683815
O52	O	1.285883	-0.746133	-0.789934
O53	O	1.560333	-0.750108	-0.577701
C54	C	1.691350	-0.405097	-0.717865
C55	C	1.805658	-0.413297	-0.732368
C56	C	1.389080	-0.400687	-0.952077
C57	C	1.374579	-0.407007	-1.066386
C58	C	1.423302	-0.249501	-0.683929
C59	C	1.423384	-0.191395	-0.683970
C60	C	1.430661	-0.382537	-1.125301
C61	C	1.415675	-0.389069	-1.243446
C62	C	1.457064	-0.371048	-0.416642
C63	C	1.471765	-0.364595	-0.302358
H64	H	0.827516	-0.348327	-0.617466
C65	C	1.267306	-0.689514	-0.804292
H66	H	1.223127	-0.664798	-0.838452
H67	H	1.227538	-0.705466	-0.759252
H68	H	1.300949	-0.716079	-0.854136
H69	H	1.356556	-0.414852	-1.280468
C70	C	1.267232	-0.574837	-0.804254
H71	H	1.277842	-0.538560	-0.796029
H72	H	1.200062	-0.578034	-0.780397
H73	H	1.273480	-0.588662	-0.875275
H74	H	1.530872	-0.338804	-1.265336
H75	H	0.842695	-0.446633	-0.791340
H76	H	1.288821	-1.184382	-0.788038
C77	C	0.991568	-0.313466	-0.555808
H78	H	0.918723	-0.313690	-0.556198
H79	H	1.007240	-0.280439	-0.573197
H80	H	1.017866	-0.318489	-0.488880
H81	H	1.315465	-0.432789	-1.103413
H82	H	1.489766	-0.356749	-1.088273
H83	H	1.288765	-1.085327	-0.788025
H84	H	1.019744	-0.423463	-0.750355
C85	C	1.578684	-0.579301	-0.563291
H86	H	1.568033	-0.542715	-0.571478
H87	H	1.645865	-0.593995	-0.587154
H88	H	1.572442	-0.583380	-0.492280
C89	C	1.578790	-0.693966	-0.563340
H90	H	1.622925	-0.670511	-0.529162
H91	H	1.618596	-0.720625	-0.608392
H92	H	1.545182	-0.709997	-0.513511
H93	H	1.631859	-0.839059	-0.522418
C94	C	1.653119	-0.946217	-0.506055
H95	H	1.697255	-0.922761	-0.471881
H96	H	1.692925	-0.972879	-0.551103
H97	H	1.619510	-0.962244	-0.456223
H98	H	1.557869	-1.089182	-0.579852
H99	H	1.557930	-1.188254	-0.579892
H100	H	1.214515	-0.932122	-0.845364
H101	H	1.214465	-0.833068	-0.845344
