data_functionalizedCrystal
_audit_creation_method	'MofGen! by Chris Wilmer'
_symmetry_space_group_name_H-M	'P1'
_symmetry_Int_Tables_number	1
_symmetry_cell_setting	triclinic
loop_
_symmetry_equiv_pos_as_xyz
  x,y,z
_cell_length_a	14.446369
_cell_length_b	14.446369
_cell_length_c	14.446369
_cell_angle_alpha	59.996157
_cell_angle_beta	60.004569
_cell_angle_gamma	90.000187
loop_
_atom_site_label
_atom_site_type_symbol
_atom_site_fract_x
_atom_site_fract_y
_atom_site_fract_z
Zr1	Zr	-0.121426	0.891753	1.013158
O2	O	-0.269227	0.937066	1.013147
O3	O	-0.076118	0.743944	1.013169
O4	O	-0.269222	0.743942	1.206272
O5	O	0.076202	1.089407	0.667713
O6	O	-0.269216	0.743939	1.358603
O7	O	-0.076123	0.937068	0.820044
O8	O	0.076210	0.743942	1.013177
O9	O	-0.269225	1.089403	1.013139
O10	O	-0.056789	0.842700	1.126847
O11	O	0.056885	0.956390	0.899481
O12	O	-0.170469	0.956388	1.126835
O13	O	-0.056795	1.070079	0.899468
Zr14	Zr	0.121524	1.134712	1.013158
Zr15	Zr	-0.121417	0.891749	1.256109
Zr16	Zr	0.121515	1.134716	0.770207
Zr17	Zr	-0.121423	1.134714	1.013145
Zr18	Zr	0.121521	0.891751	1.013171
O19	O	0.076217	1.282521	1.013147
O20	O	-0.269214	0.937060	1.358593
O21	O	0.076204	1.282528	0.667702
O22	O	0.269325	1.089399	1.013169
O23	O	-0.076106	0.743937	1.358614
O24	O	0.269312	1.089405	0.667723
O25	O	-0.076103	0.937058	1.358603
O26	O	0.269320	1.282523	0.820044
O27	O	0.269314	1.282526	0.667713
O28	O	0.076221	1.089397	1.206272
O29	O	-0.269218	1.089400	1.206253
O30	O	0.269316	0.937065	0.820063
O31	O	0.269323	0.937062	1.013177
O32	O	0.076217	0.743939	1.206291
O33	O	-0.076119	1.282526	0.820025
O34	O	-0.076112	1.282523	1.013139
O35	O	0.170567	1.070077	0.899481
O36	O	0.056893	0.956386	1.126847
O37	O	-0.056787	1.070075	1.126835
O38	O	0.056887	1.183765	0.899468
C39	C	0.000046	0.709326	1.013175
C40	C	0.000044	0.606183	1.013180
C41	C	-0.303840	1.013235	1.013141
C42	C	-0.406978	1.013236	1.013136
C43	C	-0.072000	0.387813	1.156565
C44	C	-0.071693	0.495045	1.156662
C45	C	0.123567	0.602857	0.941957
C46	C	0.123177	0.495088	0.942868
C47	C	-0.050421	0.496459	0.939905
C48	C	-0.052925	0.602429	0.942607
C49	C	-0.481965	1.084598	0.869751
C50	C	-0.374636	1.084985	0.869654
C51	C	-0.481513	1.065542	1.084359
C52	C	-0.588372	1.066079	1.083448
C53	C	-0.589990	0.889518	1.086411
C54	C	-0.481319	0.889700	1.083709
C55	C	0.303938	1.013230	1.013175
C56	C	0.407076	1.013229	1.013180
C57	C	0.000038	1.013238	0.709263
C58	C	0.000034	1.013240	0.606124
C59	C	0.000053	1.317139	1.013141
C60	C	0.000054	1.420281	1.013136
C61	C	-0.071303	1.085289	0.459089
C62	C	-0.071704	1.084985	0.566721
C63	C	-0.052264	0.889706	0.655104
C64	C	-0.052787	0.890093	0.547858
C65	C	0.123759	1.063702	0.372668
C66	C	0.123565	1.066209	0.478832
C67	C	0.000060	1.013227	1.317053
C68	C	0.000064	1.013225	1.420192
C69	C	-0.303833	0.709323	1.317053
C70	C	-0.406967	0.606180	1.420192
C71	C	0.000057	0.709321	1.317070
C72	C	0.000059	0.606176	1.420214
C73	C	0.303927	1.013235	0.709280
C74	C	0.407061	1.013236	0.606146
C75	C	0.000041	1.317144	0.709246
C76	C	0.000039	1.420289	0.606102
C77	C	0.303931	1.317142	0.709263
C78	C	0.407065	1.420285	0.606124
C79	C	-0.303829	1.013230	1.317036
C80	C	-0.406963	1.013229	1.420170
C81	C	-0.481947	0.387809	1.567240
C82	C	-0.374621	0.495042	1.459598
C83	C	-0.481529	0.602850	1.371224
C84	C	-0.588385	0.495080	1.478479
C85	C	-0.589952	0.496456	1.653654
C86	C	-0.481283	0.602426	1.547480
C87	C	0.071388	0.531186	1.567258
C88	C	0.071796	0.638523	1.459613
C89	C	0.052353	0.531616	1.371252
C90	C	0.052869	0.424749	1.478510
C91	C	-0.123675	0.423168	1.653681
C92	C	-0.123473	0.531847	1.547505
C93	C	0.482037	0.941905	0.459124
C94	C	0.374712	0.941497	0.566753
C95	C	0.481616	0.960935	0.655127
C96	C	0.588470	0.960418	0.547885
C97	C	0.590052	1.136982	0.372688
C98	C	0.481384	1.136780	0.478848
H99	H	-0.162652	0.493426	1.212551
H100	H	-0.181120	0.506325	1.525994
Br101	Br	0.190530	0.411169	1.027236
Br102	Br	-0.204498	0.822751	0.615651
H103	H	-0.005898	0.681588	0.837928
Br104	Br	-0.719338	0.985072	1.258834
H105	H	0.001811	0.523909	0.834244
H106	H	-0.177101	0.344950	1.679661
Br107	Br	0.217521	0.539506	0.767480
Br108	Br	-0.013236	1.236602	0.505561
H109	H	0.164259	0.604990	0.991433
H110	H	-0.142423	0.849014	0.747400
H111	H	-0.004168	0.833479	0.525895
Br112	Br	0.284253	0.999965	0.505594
Br113	Br	-0.285021	0.490997	1.311558
Br114	Br	-0.587946	0.411156	1.410695
H115	H	-0.668150	0.523929	1.679594
H116	H	0.163045	0.692312	1.370820
Br117	Br	-0.188595	0.617551	1.613476
Br118	Br	-0.395580	0.601565	1.613465
Br119	Br	0.596914	1.209807	0.216501
H120	H	-0.506799	0.681589	1.525963
H121	H	0.481002	0.851202	0.494849
H122	H	0.179582	0.681126	0.836460
H123	H	0.004242	0.346165	1.500487
H124	H	-0.479605	0.333853	1.656101
H125	H	-0.139990	0.446430	0.985773
Br126	Br	0.013221	0.535088	1.715356
Br127	Br	0.478134	1.000079	0.311016
Br128	Br	0.188700	1.217891	0.412855
Br129	Br	0.395702	1.201894	0.412823
Br130	Br	-0.719358	0.539495	1.515099
H131	H	-0.320369	1.049923	0.813752
H132	H	-0.479627	1.049677	0.813474
H133	H	0.320929	0.850241	0.655553
H134	H	0.177185	1.011469	0.346683
H135	H	0.667050	1.009045	0.525914
Br136	Br	0.395610	0.810646	0.808967
H137	H	-0.037297	0.332854	1.212574
H138	H	-0.163193	0.333857	1.212854
H139	H	0.506908	1.194429	0.500354
Br140	Br	-0.480221	0.296168	1.507711
H141	H	0.588197	0.869389	0.588571
Br142	Br	0.720421	1.226038	0.329369
Br143	Br	-0.284147	0.492353	1.520737
H144	H	-0.480919	1.175306	0.813732
Br145	Br	-0.204589	0.601610	1.029129
H146	H	0.162082	0.532218	1.531550
Br147	Br	0.527011	1.043398	0.703107
Br148	Br	-0.285039	1.237069	0.776063
H149	H	-0.508760	0.681118	1.342428
Br150	Br	-0.395533	0.606401	1.217396
Br151	Br	-0.222471	1.027487	0.518615
Br152	Br	-0.013339	0.490957	1.250408
Br153	Br	0.013245	0.728939	1.520794
Br154	Br	-0.587904	1.217807	0.999075
H155	H	0.181212	1.019178	0.500345
H156	H	-0.594066	0.446439	1.747360
Br157	Br	0.204576	0.425196	1.410725
Br158	Br	-0.395486	1.215821	1.001901
Br159	Br	-0.395647	0.824567	0.997156
Br160	Br	-0.596885	0.816703	1.009921
Br161	Br	-0.523725	0.793556	1.258126
H162	H	-0.002786	0.833685	0.683897
H163	H	-0.668104	0.836147	1.192134
Br164	Br	-0.013135	1.237301	0.310979
H165	H	0.002876	0.504385	1.342463
H166	H	0.142513	0.583225	1.278957
H167	H	-0.508739	1.016057	1.189856
H168	H	-0.167361	0.419047	1.747385
H169	H	0.167448	1.153289	0.278952
Br170	Br	-0.223788	1.026632	0.714728
