data_functionalizedCrystal
_audit_creation_method	'MofGen! by Chris Wilmer'
_symmetry_space_group_name_H-M	'P1'
_symmetry_Int_Tables_number	1
_symmetry_cell_setting	triclinic
loop_
_symmetry_equiv_pos_as_xyz
  x,y,z
_cell_length_a	16.109301
_cell_length_b	16.109301
_cell_length_c	14.586319
_cell_angle_alpha	90.005214
_cell_angle_beta	90.000787
_cell_angle_gamma	83.461481
loop_
_atom_site_label
_atom_site_type_symbol
_atom_site_fract_x
_atom_site_fract_y
_atom_site_fract_z
O1	O	-1.103131	-0.106866	-0.076185
O2	O	-0.603131	0.393134	0.423815
O3	O	-0.861069	-0.120165	-0.076200
O4	O	-0.361069	0.379835	0.423800
O5	O	-0.988749	0.007515	-0.076183
O6	O	-0.488749	0.507515	0.423817
O7	O	-0.975450	-0.234547	-0.076203
O8	O	-0.475450	0.265453	0.423797
O9	O	-0.988741	0.007517	0.076298
O10	O	-0.488741	0.507517	0.576298
O11	O	-0.861060	-0.120164	0.076281
O12	O	-0.361060	0.379836	0.576281
O13	O	-1.103122	-0.106864	0.076295
O14	O	-0.603122	0.393136	0.576295
Cu15	Cu	-0.982090	-0.113514	0.090211
Cu16	Cu	-0.482090	0.386486	0.590211
Cu17	Cu	-0.982101	-0.113516	-0.090115
Cu18	Cu	-0.482101	0.386484	0.409885
O19	O	-0.975441	-0.234545	0.076278
O20	O	-0.475441	0.265455	0.576278
C21	C	-0.830090	-0.119626	0.000038
C22	C	-0.330090	0.380374	0.500038
C23	C	-0.737794	-0.118011	0.000033
C24	C	-0.237794	0.381989	0.500033
C25	C	-0.988206	0.038491	0.000058
C26	C	-0.488206	0.538491	0.500058
C27	C	-0.986591	0.130786	0.000059
C28	C	-0.486591	0.630786	0.500059
C29	C	-1.134101	-0.107404	0.000055
C30	C	-0.634101	0.392596	0.500055
C31	C	-1.226397	-0.109019	0.000054
C32	C	-0.726397	0.390981	0.500054
C33	C	-0.515522	-0.190018	0.000038
C34	C	-0.015522	0.309982	0.500038
C35	C	-0.428801	-0.188494	0.000044
C36	C	0.071199	0.311506	0.500044
C37	C	-0.448676	-0.037006	0.000052
C38	C	0.051324	0.462994	0.500052
C39	C	-0.535394	-0.038530	0.000053
C40	C	-0.035394	0.461470	0.500053
C41	C	-0.568815	-0.115039	0.000041
C42	C	-0.068815	0.384961	0.500041
C43	C	-0.395376	-0.111990	0.000046
C44	C	0.104624	0.388010	0.500046
C45	C	-0.301350	-0.110337	0.000053
C46	C	0.198650	0.389663	0.500053
C47	C	-0.662847	-0.116693	0.000036
C48	C	-0.162847	0.383307	0.500036
N49	N	-0.982089	-0.113512	0.217042
N50	N	-0.482089	0.386488	0.717042
C51	C	-0.975984	-0.265521	0.000035
C52	C	-0.475984	0.234479	0.500035
C53	C	-0.977600	-0.357816	0.000028
C54	C	-0.477600	0.142184	0.500028
C55	C	-1.058599	0.353059	0.000049
C56	C	-0.558599	0.853059	0.500049
C57	C	-1.057075	0.439779	0.000041
C58	C	-0.557075	0.939779	0.500041
C59	C	-0.905586	0.419905	0.000036
C60	C	-0.405586	0.919905	0.500036
C61	C	-0.907111	0.333186	0.000037
C62	C	-0.407111	0.833186	0.500037
C63	C	-0.983620	0.299766	0.000048
C64	C	-0.483620	0.799766	0.500048
C65	C	-0.980571	0.473205	0.000039
C66	C	-0.480571	0.973205	0.500039
C67	C	-0.978918	0.567231	0.000031
C68	C	-0.478918	1.067231	0.500031
C69	C	-0.985273	0.205734	0.000055
C70	C	-0.485273	0.705734	0.500055
N71	N	-0.982109	-0.113511	-0.216947
N72	N	-0.482109	0.386489	0.283053
C73	C	-1.038644	-0.056994	0.452057
C74	C	-0.538644	0.443006	0.952057
C75	C	-1.038647	-0.056992	0.548038
C76	C	-0.538647	0.443008	1.048038
C77	C	-0.925547	-0.170032	0.548032
C78	C	-0.425547	0.329968	1.048032
C79	C	-0.925541	-0.170030	0.452052
C80	C	-0.425541	0.329970	0.952052
C81	C	-0.982095	-0.113511	0.404067
C82	C	-0.482095	0.386489	0.904067
C83	C	-0.982103	-0.113512	0.596028
C84	C	-0.482103	0.386488	1.096028
C85	C	-0.982105	-0.113510	0.700095
C86	C	-0.482105	0.386490	1.200095
C87	C	-0.982092	-0.113512	0.299993
C88	C	-0.482092	0.386488	0.799993
H89	H	-0.542730	-0.252317	0.000035
H90	H	-0.042730	0.247683	0.500035
C91	C	-0.594021	0.043951	0.000052
C92	C	-0.094021	0.543951	0.500052
H93	H	-0.561698	0.089735	0.000045
H94	H	-0.061698	0.589735	0.500045
H95	H	-0.628263	0.046507	0.053225
H96	H	-0.128263	0.546507	0.553225
H97	H	-0.628261	0.046498	-0.053129
H98	H	-0.128261	0.546498	0.446871
H99	H	-1.120897	0.325851	0.000056
H100	H	-0.620897	0.825851	0.500056
C101	C	-0.411914	0.047149	0.000054
C102	C	0.088086	0.547149	0.500054
H103	H	-0.456076	0.091586	0.000064
H104	H	0.043924	0.591586	0.500064
H105	H	-0.378500	0.050890	-0.053120
H106	H	0.121500	0.550890	0.446880
H107	H	-0.378497	0.050896	0.053233
H108	H	0.121503	0.550896	0.553233
C109	C	-0.863323	-0.232180	0.600814
C110	C	-0.363323	0.267820	1.100814
H111	H	-0.829631	-0.265827	0.558484
H112	H	-0.329631	0.234173	1.058484
H113	H	-0.893197	-0.266809	0.638263
H114	H	-0.393197	0.233191	1.138263
H115	H	-0.828734	-0.202234	0.638248
H116	H	-0.328734	0.297766	1.138248
C117	C	-0.863335	-0.232204	0.399261
C118	C	-0.363335	0.267796	0.899261
H119	H	-0.829663	-0.265873	0.441584
H120	H	-0.329663	0.234127	0.941584
H121	H	-0.828736	-0.202285	0.361825
H122	H	-0.328736	0.297715	0.861825
H123	H	-0.893237	-0.266822	0.361813
H124	H	-0.393237	0.233178	0.861813
H125	H	-1.118130	0.483168	0.000040
H126	H	-0.618130	0.983168	0.500040
C127	C	-0.821433	0.456671	0.000036
C128	C	-0.321433	0.956671	0.500036
H129	H	-0.831262	0.515950	0.000046
H130	H	-0.331262	1.015950	0.500046
H131	H	-0.790559	0.438373	-0.053136
H132	H	-0.290559	0.938373	0.446864
H133	H	-0.790565	0.438379	0.053217
H134	H	-0.290565	0.938379	0.553217
H135	H	-0.846050	0.289792	0.000033
H136	H	-0.346050	0.789792	0.500033
H137	H	-1.084694	-0.010969	0.587108
H138	H	-0.584694	0.489031	1.087108
H139	H	-0.385413	-0.249550	0.000043
H140	H	0.114587	0.250450	0.500043
H141	H	-1.084693	-0.010972	0.412989
H142	H	-0.584693	0.489028	0.912989
