data_functionalizedCrystal
_audit_creation_method	'MofGen! by Chris Wilmer'
_symmetry_space_group_name_H-M	'P1'
_symmetry_Int_Tables_number	1
_symmetry_cell_setting	triclinic
loop_
_symmetry_equiv_pos_as_xyz
  x,y,z
_cell_length_a	14.519709
_cell_length_b	22.610064
_cell_length_c	14.519709
_cell_angle_alpha	89.995658
_cell_angle_beta	83.680146
_cell_angle_gamma	89.997894
loop_
_atom_site_label
_atom_site_type_symbol
_atom_site_fract_x
_atom_site_fract_y
_atom_site_fract_z
O1	O	-1.223874	0.049112	-0.120879
O2	O	-0.955397	0.049133	-0.135115
O3	O	-1.096754	0.049105	0.006241
O4	O	-1.082517	0.049139	-0.262235
O5	O	-1.096729	-0.049264	0.006221
O6	O	-0.955372	-0.049236	-0.135136
O7	O	-1.223849	-0.049257	-0.120899
Zn8	Zn	-1.089606	-0.064865	-0.128021
Zn9	Zn	-1.089639	0.064740	-0.127994
O10	O	-1.082492	-0.049230	-0.262256
C11	C	-0.921025	-0.000049	-0.134462
C12	C	-0.818643	-0.000042	-0.132474
N13	N	-1.089591	-0.153318	-0.128039
C14	C	-0.443748	-0.000068	-0.125154
C15	C	-0.548056	-0.000060	-0.127187
C16	C	-0.631192	-0.000054	-0.128814
C17	C	-0.735507	-0.000048	-0.130847
C18	C	-1.152235	-0.561971	-0.065411
C19	C	-1.152240	-0.623891	-0.065404
O20	O	-1.205463	-0.655920	-0.012169
N21	N	-1.089639	-0.654855	-0.127975
C22	C	-1.027022	-0.623895	-0.190550
O23	O	-0.973775	-0.655918	-0.243770
C24	C	-1.027014	-0.561976	-0.190551
C25	C	-1.089626	-0.531016	-0.127983
C26	C	-1.214841	-0.531011	-0.002846
C27	C	-1.214837	-0.469095	-0.002855
C28	C	-1.152227	-0.438140	-0.065427
C29	C	-1.089622	-0.469100	-0.127991
C30	C	-0.964394	-0.531018	-0.253121
C31	C	-0.964391	-0.469095	-0.253117
C32	C	-1.027002	-0.438135	-0.190548
C33	C	-1.027009	-0.376230	-0.190571
N34	N	-1.089610	-0.345266	-0.128000
C35	C	-1.152219	-0.376221	-0.065428
C36	C	-1.027044	-0.753929	-0.190541
C37	C	-1.027056	-0.815847	-0.190544
C38	C	-1.152272	-0.815838	-0.065397
C39	C	-1.152264	-0.753919	-0.065399
C40	C	-1.089645	-0.722965	-0.127970
C41	C	-1.152207	-0.246194	-0.065450
C42	C	-1.152200	-0.184273	-0.065467
C43	C	-1.026981	-0.184287	-0.190610
C44	C	-1.026991	-0.246202	-0.190598
C45	C	-1.089607	-0.277154	-0.128010
O46	O	-0.973810	-0.344161	-0.243777
O47	O	-1.205449	-0.344191	-0.012209
C48	C	-0.258221	-0.000072	-0.121553
C49	C	-0.360602	-0.000071	-0.123541
C50	C	-1.096078	-0.000082	0.040591
C51	C	-1.094089	-0.000091	0.142972
N52	N	-1.089662	0.153193	-0.127968
C53	C	-1.086770	-0.000107	0.517868
C54	C	-1.088803	-0.000102	0.413560
C55	C	-1.090430	-0.000099	0.330423
C56	C	-1.092463	-0.000094	0.226109
C57	C	-1.083168	-0.000062	0.703394
C58	C	-1.085156	-0.000112	0.601013
H59	H	-1.203194	-0.271388	-0.014485
H60	H	-0.913410	-0.556217	-0.304070
O61	O	-0.959440	-0.150885	-0.258072
H62	H	-0.998314	-0.122660	-0.302980
O63	O	-0.896856	-0.435708	-0.320611
H64	H	-0.853330	-0.467643	-0.364118
H65	H	-0.976016	-0.271411	-0.241556
H66	H	-1.265818	-0.443891	0.048097
H67	H	-1.203247	-0.728715	-0.014450
O68	O	-1.282387	-0.564394	0.064635
H69	H	-1.325920	-0.532453	0.108124
H70	H	-0.976082	-0.841050	-0.241503
O71	O	-0.959502	-0.720542	-0.258031
H72	H	-0.998382	-0.692321	-0.302941
H73	H	-1.203189	-0.159067	-0.014516
H74	H	-1.203251	-0.841053	-0.014446
