data_functionalizedCrystal
_audit_creation_method	'MofGen! by Chris Wilmer'
_symmetry_space_group_name_H-M	'P1'
_symmetry_Int_Tables_number	1
_symmetry_cell_setting	triclinic
loop_
_symmetry_equiv_pos_as_xyz
  x,y,z
_cell_length_a	16.109293
_cell_length_b	16.109301
_cell_length_c	15.186229
_cell_angle_alpha	90.000894
_cell_angle_beta	90.006769
_cell_angle_gamma	96.540124
loop_
_atom_site_label
_atom_site_type_symbol
_atom_site_fract_x
_atom_site_fract_y
_atom_site_fract_z
O1	O	-1.103135	0.106835	-0.073289
O2	O	-0.603135	0.606835	0.426711
O3	O	-0.861072	0.120141	-0.073274
O4	O	-0.361072	0.620141	0.426726
O5	O	-0.988753	-0.007543	-0.073287
O6	O	-0.488753	0.492457	0.426713
O7	O	-0.975454	0.234519	-0.073277
O8	O	-0.475454	0.734519	0.426723
O9	O	-0.988744	-0.007545	0.073171
O10	O	-0.488744	0.492455	0.573171
O11	O	-0.861063	0.120139	0.073183
O12	O	-0.361063	0.620139	0.573183
O13	O	-1.103126	0.106833	0.073168
O14	O	-0.603126	0.606833	0.573168
Zn15	Zn	-0.982093	0.113486	0.096429
Zn16	Zn	-0.482093	0.613486	0.596429
Zn17	Zn	-0.982105	0.113488	-0.096535
Zn18	Zn	-0.482105	0.613488	0.403465
O19	O	-0.975445	0.234517	0.073181
O20	O	-0.475445	0.734517	0.573181
C21	C	-0.830093	0.119602	-0.000044
C22	C	-0.330093	0.619602	0.499956
C23	C	-0.737797	0.117990	-0.000039
C24	C	-0.237797	0.617990	0.499961
C25	C	-0.525451	0.114260	0.079792
C26	C	-0.025451	0.614260	0.579792
C27	C	-0.438730	0.112736	0.079791
C28	C	0.061270	0.612736	0.579791
C29	C	-0.438750	0.112742	-0.079885
C30	C	0.061250	0.612742	0.420115
C31	C	-0.525469	0.114260	-0.079883
C32	C	-0.025469	0.614260	0.420117
C33	C	-0.568817	0.115024	-0.000042
C34	C	-0.068817	0.615024	0.499958
C35	C	-0.395377	0.111981	-0.000044
C36	C	0.104623	0.611981	0.499956
C37	C	-0.301351	0.110329	-0.000046
C38	C	0.198649	0.610329	0.499954
C39	C	-0.662849	0.116675	-0.000040
C40	C	-0.162849	0.616675	0.499960
C41	C	-0.988210	-0.038519	-0.000061
C42	C	-0.488210	0.461481	0.499939
C43	C	-0.986595	-0.130814	-0.000070
C44	C	-0.486595	0.369186	0.499930
C45	C	-0.134104	0.107380	-0.000057
C46	C	0.365896	0.607380	0.499943
C47	C	-0.226397	0.109015	-0.000048
C48	C	0.273603	0.609015	0.499952
C49	C	-0.975988	0.265493	-0.000047
C50	C	-0.475988	0.765493	0.499953
C51	C	-0.977603	0.357788	-0.000044
C52	C	-0.477603	0.857788	0.499956
N53	N	-0.982092	0.113484	0.228122
N54	N	-0.482092	0.613484	0.728122
C55	C	-0.905595	0.580063	-0.000052
C56	C	-0.405595	1.080063	0.499948
C57	C	-0.907119	0.666783	-0.000059
C58	C	-0.407119	1.166783	0.499941
C59	C	-1.058609	0.646905	-0.000064
C60	C	-0.558609	1.146905	0.499936
C61	C	-1.057084	0.560186	-0.000064
C62	C	-0.557084	1.060186	0.499936
C63	C	-0.980575	0.526768	-0.000053
C64	C	-0.480575	1.026768	0.499947
C65	C	-0.983624	0.700207	-0.000060
C66	C	-0.483624	1.200207	0.499940
C67	C	-0.985277	0.794233	-0.000068
C68	C	-0.485277	1.294233	0.499932
C69	C	-0.978921	0.432736	-0.000048
C70	C	-0.478921	0.932736	0.499952
N71	N	-0.982113	0.113484	-0.228228
N72	N	-0.482113	0.613484	0.271772
C73	C	-1.038648	0.056964	0.453839
C74	C	-0.538648	0.556964	0.953839
C75	C	-1.038651	0.056962	0.546029
C76	C	-0.538651	0.556962	1.046029
C77	C	-0.925550	0.170006	0.546049
C78	C	-0.425550	0.670006	1.046049
C79	C	-0.925544	0.170003	0.453861
C80	C	-0.425544	0.670003	0.953861
C81	C	-0.982098	0.113483	0.407758
C82	C	-0.482098	0.613483	0.907758
C83	C	-0.982107	0.113484	0.592136
C84	C	-0.482107	0.613484	1.092136
C85	C	-0.982109	0.113482	0.692092
C86	C	-0.482109	0.613482	1.192092
C87	C	-0.982095	0.113484	0.307796
C88	C	-0.482095	0.613484	0.807796
H89	H	-0.560742	0.114882	0.144804
H90	H	-0.060742	0.614882	0.644804
N91	N	-0.572244	0.115077	-0.165998
N92	N	-0.072244	0.615077	0.334002
H93	H	-0.550406	0.166321	-0.200901
H94	H	-0.050406	0.666321	0.299099
H95	H	-0.633748	0.116117	-0.153811
H96	H	-0.133748	0.616117	0.346189
H97	H	-0.846063	0.710173	-0.000059
H98	H	-0.346063	1.210173	0.499941
H99	H	-1.084698	0.010938	0.583545
H100	H	-0.584698	0.510938	1.083545
N101	N	-0.864541	0.230959	0.404151
N102	N	-0.364541	0.730959	0.904151
H103	H	-0.828719	0.266768	0.447344
H104	H	-0.328719	0.766768	0.947344
H105	H	-0.896353	0.267722	0.365890
H106	H	-0.396353	0.767722	0.865890
H107	H	-0.879507	0.216025	0.583594
H108	H	-0.379507	0.716025	1.083594
H109	H	-0.403446	0.112122	-0.144888
H110	H	0.096554	0.612122	0.355112
N111	N	-0.391956	0.111909	0.165898
N112	N	0.108044	0.611909	0.665898
H113	H	-0.432654	0.112037	0.216471
H114	H	0.067346	0.612037	0.716471
H115	H	-0.349616	0.163084	0.169648
H116	H	0.150384	0.663084	0.669648
N117	N	-1.141126	0.682949	-0.000057
N118	N	-0.641126	1.182949	0.499943
H119	H	-1.130716	0.745972	-0.000050
H120	H	-0.630716	1.245972	0.499950
H121	H	-1.173919	0.663446	0.054240
H122	H	-0.673919	1.163446	0.554240
N123	N	-0.823079	0.544016	-0.000040
N124	N	-0.323079	1.044016	0.499960
H125	H	-0.775812	0.590941	-0.000041
H126	H	-0.275812	1.090941	0.499959
H127	H	-0.819150	0.508466	-0.054331
H128	H	-0.319150	1.008466	0.445669
N129	N	-1.137958	0.502695	-0.000068
N130	N	-0.637958	1.002695	0.499932
H131	H	-1.186657	0.537023	-0.000068
H132	H	-0.686657	1.037023	0.499932
H133	H	-1.140617	0.466283	0.054225
H134	H	-0.640617	0.966283	0.554225
H135	H	-1.084696	0.010941	0.416305
H136	H	-0.584696	0.510941	0.916305
