data_functionalizedCrystal
_audit_creation_method	'MofGen! by Chris Wilmer'
_symmetry_space_group_name_H-M	'P1'
_symmetry_Int_Tables_number	1
_symmetry_cell_setting	triclinic
loop_
_symmetry_equiv_pos_as_xyz
  x,y,z
_cell_length_a	12.759401
_cell_length_b	12.594516
_cell_length_c	12.759393
_cell_angle_alpha	89.969200
_cell_angle_beta	89.980563
_cell_angle_gamma	90.011827
loop_
_atom_site_label
_atom_site_type_symbol
_atom_site_fract_x
_atom_site_fract_y
_atom_site_fract_z
Zn1	Zn	1.606276	-0.423679	-0.594013
Zn2	Zn	1.606180	-0.601698	-0.418336
Zn3	Zn	1.430578	-0.423734	-0.418350
Zn4	Zn	1.430576	-0.601616	-0.593974
O5	O	1.518403	-0.512682	-0.506168
O6	O	1.753285	-0.447305	-0.570720
O7	O	1.582846	-0.578149	-0.271317
O8	O	1.453927	-0.274781	-0.441674
O9	O	1.753213	-0.578095	-0.441650
O10	O	1.583011	-0.274741	-0.570733
O11	O	1.453833	-0.447399	-0.271327
O12	O	1.283557	-0.447319	-0.441636
O13	O	1.453922	-0.577955	-0.741001
O14	O	1.283555	-0.578008	-0.570667
O15	O	1.583009	-0.447225	-0.741029
O16	O	1.582844	-0.750633	-0.441612
O17	O	1.453829	-0.750573	-0.570653
C18	C	1.245435	-0.512662	-0.506150
C19	C	1.128659	-0.512678	-0.506166
C20	C	0.964098	-0.580849	-0.573265
C21	C	1.073822	-0.580835	-0.573248
C22	C	1.073765	-0.444539	-0.439090
C23	C	0.964043	-0.444559	-0.439102
C24	C	0.909268	-0.649002	-0.640359
C25	C	0.964154	-0.717144	-0.707434
C26	C	1.073878	-0.717130	-0.707417
C27	C	1.128716	-0.648975	-0.640325
C28	C	1.518354	-0.789223	-0.506150
C29	C	1.518429	-0.907528	-0.506177
C30	C	1.588682	-0.976776	-0.436067
C31	C	1.614358	-1.047467	-0.531960
C32	C	1.492885	-1.047636	-0.410346
C33	C	1.544154	-0.976661	-0.602121
C34	C	1.422637	-0.976824	-0.480442
C35	C	1.448276	-1.047483	-0.576401
C36	C	1.792436	-0.512703	-0.506188
C37	C	1.909212	-0.512712	-0.506196
C38	C	1.518476	-0.512574	-0.780202
C39	C	1.518508	-0.512529	-0.896979
C40	C	1.518480	-0.235061	-0.506210
C41	C	1.518513	-0.116756	-0.506227
C42	C	1.585732	-0.444451	-0.951857
C43	C	1.585757	-0.444413	-1.061581
C44	C	1.451330	-0.580538	-1.061538
C45	C	1.451300	-0.580571	-0.951816
C46	C	1.652939	-0.376409	-0.897019
C47	C	1.720170	-0.308327	-0.951898
C48	C	1.720195	-0.308289	-1.061622
C49	C	1.652989	-0.376333	-1.116468
C50	C	1.518390	-0.512712	-0.233201
C51	C	1.518562	-0.512458	-0.116425
H52	H	1.218061	-0.648975	-0.640310
C53	C	1.134249	-0.792092	-0.781194
N54	N	1.179719	-0.848552	-0.836769
C55	C	1.573524	-0.934728	-0.711666
N56	N	1.595650	-0.903141	-0.794172
H57	H	1.396614	-0.635936	-1.106202
H58	H	1.774880	-0.252922	-0.907236
C59	C	1.377355	-0.655465	-0.891446
N60	N	1.321657	-0.711876	-0.845976
H61	H	1.118423	-0.389049	-0.384468
H62	H	1.695404	-1.078501	-0.553755
C63	C	0.903665	-0.369603	-0.365325
N64	N	0.858189	-0.313146	-0.309751
H65	H	1.653003	-0.376283	-1.205812
H66	H	0.919497	-0.772639	-0.762053
C67	C	0.788569	-0.649018	-0.640389
N68	N	0.697659	-0.649027	-0.640413
H69	H	1.648102	-0.945728	-0.376830
H70	H	1.774930	-0.252846	-1.106302
H71	H	1.388901	-1.078334	-0.635781
H72	H	1.341614	-0.945767	-0.458617
H73	H	1.652929	-0.376435	-0.807676
C74	C	1.463645	-1.089744	-0.300831
N75	N	1.441628	-1.121456	-0.218341
