data_functionalizedCrystal
_audit_creation_method	'MofGen! by Chris Wilmer'
_symmetry_space_group_name_H-M	'P1'
_symmetry_Int_Tables_number	1
_symmetry_cell_setting	triclinic
loop_
_symmetry_equiv_pos_as_xyz
  x,y,z
_cell_length_a	6.817900
_cell_length_b	17.110486
_cell_length_c	13.466082
_cell_angle_alpha	95.025061
_cell_angle_beta	111.116375
_cell_angle_gamma	99.060439
loop_
_atom_site_label
_atom_site_type_symbol
_atom_site_fract_x
_atom_site_fract_y
_atom_site_fract_z
V1	V	-4.016772	-0.247441	-0.147118
O2	O	-3.963369	-0.241987	0.007396
O3	O	-4.007892	-0.246464	-0.292024
O4	O	-3.945977	-0.355032	-0.144712
O5	O	-4.025712	-0.132667	-0.140936
V6	V	-4.498181	-0.233626	-0.128653
O7	O	-4.282668	-0.277745	-0.187622
O8	O	-4.682482	-0.203323	-0.088149
O9	O	-4.283854	-0.234604	0.016253
O10	O	-4.668980	-0.239080	-0.283168
O11	O	-4.606637	-0.348400	-0.134835
O12	O	-4.345768	-0.126035	-0.131060
C13	C	-3.863231	-0.242745	-0.327354
C14	C	-3.937108	-0.242663	-0.445816
C15	C	-3.710319	-0.234542	-0.657574
C16	C	-3.779724	-0.234465	-0.768879
C17	C	-4.145318	-0.242425	-0.779732
C18	C	-4.075914	-0.242503	-0.668427
C19	C	-3.858410	-0.238562	-0.607352
C20	C	-3.789009	-0.238645	-0.496046
C21	C	-4.154600	-0.246600	-0.506900
C22	C	-4.224005	-0.246522	-0.618205
C23	C	-3.784252	-0.381234	-0.139441
C24	C	-3.807915	-0.469195	-0.138432
C25	C	-4.001769	-0.514577	-0.143277
C26	C	-4.023991	-0.597225	-0.142328
C27	C	-3.852361	-0.634492	-0.136543
C28	C	-3.658489	-0.589104	-0.131695
C29	C	-3.636265	-0.506456	-0.132636
C30	C	-3.910316	-0.883831	-0.133430
C31	C	-3.932558	-0.966486	-0.132493
C32	C	-4.298058	-0.974602	-0.143124
C33	C	-4.275820	-0.891952	-0.144071
C34	C	-4.081948	-0.846571	-0.139217
C35	C	-3.875072	-0.718972	-0.135577
C36	C	-4.059234	-0.762091	-0.140175
C37	C	-4.091859	-0.238320	0.051577
C38	C	-3.997219	-0.238407	0.170038
C39	C	-4.170838	-0.099829	-0.136334
C40	C	-4.126412	-0.011867	-0.137337
H41	H	-4.141538	-0.484242	-0.147995
H42	H	-4.181840	-0.634171	-0.146267
O43	O	-3.447880	-0.462311	-0.127751
C44	C	-3.362970	-0.403059	-0.035290
H45	H	-3.430621	-0.422450	0.026778
H46	H	-3.180565	-0.394771	0.000511
H47	H	-3.409060	-0.344044	-0.058390
O48	O	-4.486355	-1.018790	-0.147971
C49	C	-4.571312	-1.078014	-0.240463
H50	H	-4.436359	-1.090598	-0.266617
H51	H	-4.650527	-1.135336	-0.221201
H52	H	-4.695749	-1.056001	-0.308362
O53	O	-4.298334	-0.250362	-0.458038
C54	C	-4.240897	-0.181738	-0.379586
H55	H	-4.138361	-0.131281	-0.399998
H56	H	-4.392317	-0.162128	-0.378302
H57	H	-4.145573	-0.196313	-0.297022
O58	O	-3.722229	-0.839742	-0.128982
C59	C	-3.759749	-0.802963	-0.221987
H60	H	-3.935438	-0.797780	-0.257543
H61	H	-3.652906	-0.740639	-0.199665
H62	H	-3.721244	-0.840729	-0.283959
O63	O	-3.499128	-0.230862	-0.598225
C64	C	-3.476274	-0.299580	-0.547865
H65	H	-3.620645	-0.349984	-0.594531
H66	H	-3.323290	-0.319200	-0.546625
H67	H	-3.466404	-0.285124	-0.461718
H68	H	-3.518742	-0.619452	-0.126978
H69	H	-3.659129	-0.231195	-0.809766
O70	O	-3.577813	-0.234957	-0.436697
C71	C	-3.554925	-0.303673	-0.386335
H72	H	-3.699280	-0.354084	-0.432999
H73	H	-3.401929	-0.323283	-0.385097
H74	H	-3.545056	-0.289220	-0.300188
H75	H	-4.322410	-0.245635	-0.829479
O76	O	-4.442292	-0.855643	-0.149546
C77	C	-4.379252	-0.796901	-0.057696
H78	H	-4.196871	-0.777269	-0.022310
H79	H	-4.454702	-0.743015	-0.081465
H80	H	-4.435207	-0.822916	0.004956
O81	O	-3.765572	-1.002554	-0.126808
C82	C	-3.589701	-0.944780	-0.122746
H83	H	-3.605083	-0.882965	-0.091092
H84	H	-3.434052	-0.959551	-0.066779
H85	H	-3.587752	-0.945106	-0.207080
H86	H	-4.198970	-0.731745	-0.144882
H87	H	-4.401097	-0.249728	-0.667947
H88	H	-3.735337	-0.749324	-0.130871
