data_functionalizedCrystal
_audit_creation_method	'MofGen! by Chris Wilmer'
_symmetry_space_group_name_H-M	'P1'
_symmetry_Int_Tables_number	1
_symmetry_cell_setting	triclinic
loop_
_symmetry_equiv_pos_as_xyz
  x,y,z
_cell_length_a	10.685901
_cell_length_b	13.032868
_cell_length_c	10.686551
_cell_angle_alpha	93.333265
_cell_angle_beta	90.348291
_cell_angle_gamma	87.685411
loop_
_atom_site_label
_atom_site_type_symbol
_atom_site_fract_x
_atom_site_fract_y
_atom_site_fract_z
Zn1	Zn	1.902300	0.495728	0.643198
Zn2	Zn	2.402300	0.995728	1.143198
Zn3	Zn	1.860186	0.679257	0.463551
Zn4	Zn	2.360186	1.179257	0.963551
Zn5	Zn	1.676698	0.493802	0.449258
Zn6	Zn	2.176698	0.993802	0.949258
Zn7	Zn	1.670318	0.653055	0.685081
Zn8	Zn	2.170318	1.153055	1.185081
O9	O	1.777376	0.580460	0.560272
O10	O	2.277376	1.080460	1.060272
O11	O	2.070589	0.531844	0.607821
O12	O	2.570589	1.031844	1.107821
O13	O	1.820891	0.664815	0.287780
O14	O	2.320891	1.164815	0.787780
O15	O	1.726920	0.350601	0.451475
O16	O	2.226920	0.850601	0.951475
O17	O	2.039648	0.666682	0.475835
O18	O	2.539648	1.166682	0.975835
O19	O	1.892669	0.352016	0.593962
O20	O	2.392669	0.852016	1.093962
O21	O	1.686083	0.528562	0.277279
O22	O	2.186083	1.028562	0.777279
O23	O	1.501976	0.503156	0.492087
O24	O	2.001976	1.003156	0.992087
O25	O	1.716046	0.622026	0.853400
O26	O	2.216046	1.122026	1.353400
O27	O	1.497289	0.620159	0.665345
O28	O	1.997289	1.120159	1.165345
O29	O	1.886482	0.506438	0.822629
O30	O	2.386482	1.006438	1.322629
O31	O	1.814705	0.819237	0.516447
O32	O	2.314705	1.319237	1.016447
O33	O	1.675210	0.799987	0.679204
O34	O	2.175210	1.299987	1.179204
C35	C	1.454549	0.558606	0.581711
C36	C	1.954549	1.058606	1.081711
C37	C	1.316441	0.549279	0.590916
C38	C	1.816441	1.049279	1.090916
C39	C	1.739731	0.846809	0.603947
C40	C	2.239731	1.346809	1.103947
C41	C	1.723743	0.960760	0.622665
C42	C	2.223743	1.460760	1.122665
C43	C	1.785707	1.021053	0.550533
C44	C	2.285707	1.521053	1.050533
C45	C	1.769184	1.138827	0.569877
C46	C	2.269184	1.638827	1.069877
C47	C	2.101463	0.602401	0.538751
C48	C	2.601463	1.102401	1.038751
C49	C	2.239570	0.611751	0.529580
C50	C	2.739570	1.111751	1.029580
C51	C	1.805250	0.561524	0.884359
C52	C	2.305250	1.061524	1.384359
C53	C	1.817129	0.553455	1.022466
C54	C	2.317129	1.053455	1.522466
C55	C	1.815162	1.313070	0.516441
C56	C	2.315162	1.813070	1.016441
C57	C	1.831156	1.199120	0.497735
C58	C	2.331156	1.699120	0.997735
C59	C	1.749691	0.599254	0.237429
C60	C	2.249691	1.099254	0.737429
C61	C	1.738094	0.607050	0.099259
C62	C	2.238094	1.107050	0.599259
H63	H	1.276590	0.488662	0.650477
H64	H	1.776590	0.988662	1.150477
N65	N	1.292331	0.692044	0.450681
N66	N	1.792331	1.192044	0.950681
H67	H	1.261115	0.762695	0.483327
H68	H	1.761115	1.262695	0.983327
H69	H	1.386814	0.687456	0.455091
H70	H	1.886814	1.187456	0.955091
N71	N	1.872193	0.973949	0.449767
N72	N	2.372193	1.473949	0.949767
H73	H	1.871740	0.896492	0.450234
H74	H	2.371740	1.396492	0.950234
H75	H	1.842690	0.996535	0.365339
H76	H	2.342690	1.496535	0.865339
H77	H	1.896447	1.163554	0.421659
H78	H	2.396447	1.663554	0.921659
N79	N	1.918796	0.484489	1.075338
N80	N	2.418796	0.984489	1.575338
H81	H	1.907940	0.411238	1.042091
H82	H	2.407940	0.911238	1.542091
H83	H	2.003363	0.507801	1.049519
H84	H	2.503363	1.007801	1.549519
N85	N	1.682711	1.185927	0.670664
N86	N	2.182711	1.685927	1.170664
H87	H	1.683166	1.263384	0.670198
H88	H	2.183166	1.763384	1.170198
H89	H	1.594906	1.162465	0.654112
H90	H	2.094906	1.662465	1.154112
H91	H	1.661345	0.659112	1.059350
H92	H	2.161345	1.159112	1.559350
N93	N	1.637274	1.007864	0.723446
N94	N	2.137274	1.507864	1.223446
H95	H	1.637730	1.085321	0.722980
H96	H	2.137730	1.585321	1.222980
H97	H	1.549469	0.984402	0.706894
H98	H	2.049469	1.484402	1.206894
