data_functionalizedCrystal
_audit_creation_method	'MofGen! by Chris Wilmer'
_symmetry_space_group_name_H-M	'P1'
_symmetry_Int_Tables_number	1
_symmetry_cell_setting	triclinic
loop_
_symmetry_equiv_pos_as_xyz
  x,y,z
_cell_length_a	13.897449
_cell_length_b	12.827892
_cell_length_c	12.827885
_cell_angle_alpha	89.970024
_cell_angle_beta	89.977049
_cell_angle_gamma	90.016218
loop_
_atom_site_label
_atom_site_type_symbol
_atom_site_fract_x
_atom_site_fract_y
_atom_site_fract_z
Zn1	Zn	1.474714	-0.415959	-0.590945
Zn2	Zn	1.474616	-0.590737	-0.416204
Zn3	Zn	1.313404	-0.416013	-0.416208
Zn4	Zn	1.313391	-0.590662	-0.590894
O5	O	1.394031	-0.503343	-0.503563
O6	O	1.609682	-0.439153	-0.567785
O7	O	1.453195	-0.567613	-0.269969
O8	O	1.334849	-0.269770	-0.439410
O9	O	1.609610	-0.567561	-0.439404
O10	O	1.453362	-0.269730	-0.567788
O11	O	1.334754	-0.439244	-0.269971
O12	O	1.178421	-0.439171	-0.439360
O13	O	1.334827	-0.567433	-0.737137
O14	O	1.178411	-0.567485	-0.567701
O15	O	1.453350	-0.439080	-0.737174
O16	O	1.453182	-0.736963	-0.439355
O17	O	1.334731	-0.736908	-0.567698
C18	C	1.143417	-0.503327	-0.503526
C19	C	1.036203	-0.503345	-0.503535
C20	C	1.393971	-0.774853	-0.503543
C21	C	1.394033	-0.891006	-0.503570
C22	C	1.452651	-0.942688	-0.567153
C23	C	1.452717	-1.062738	-0.567182
C24	C	0.949133	-0.503348	-0.503553
C25	C	0.839901	-0.503356	-0.503584
C26	C	1.645624	-0.503359	-0.503600
C27	C	1.752838	-0.503367	-0.503616
C28	C	1.394098	-0.503242	-0.776133
C29	C	1.394126	-0.503200	-0.892286
C30	C	1.394118	-0.230772	-0.503605
C31	C	1.394155	-0.114619	-0.503623
C32	C	1.335536	-0.439666	-0.944072
C33	C	1.335564	-0.439620	-1.064122
C34	C	1.394020	-0.503367	-0.232053
C35	C	1.394179	-0.503116	-0.115900
H36	H	1.502906	-1.107183	-0.621614
H37	H	1.444346	-0.557508	-1.071372
O38	O	1.327676	-1.055756	-0.431509
H39	H	1.344264	-1.076686	-0.349496
O40	O	1.460601	-0.575218	-0.951265
H41	H	1.509670	-0.528390	-1.001003
H42	H	1.343892	-0.935636	-0.449161
O43	O	1.519073	-0.883586	-0.639232
H44	H	1.508605	-0.798568	-0.627891
H45	H	1.285351	-0.385311	-0.899531
O46	O	1.269127	-0.367550	-1.123100
H47	H	1.279577	-0.378821	-1.208136
