data_functionalizedCrystal
_audit_creation_method	'MofGen! by Chris Wilmer'
_symmetry_space_group_name_H-M	'P1'
_symmetry_Int_Tables_number	1
_symmetry_cell_setting	triclinic
loop_
_symmetry_equiv_pos_as_xyz
  x,y,z
_cell_length_a	10.686285
_cell_length_b	10.686220
_cell_length_c	10.686551
_cell_angle_alpha	90.307919
_cell_angle_beta	80.915481
_cell_angle_gamma	90.345594
loop_
_atom_site_label
_atom_site_type_symbol
_atom_site_fract_x
_atom_site_fract_y
_atom_site_fract_z
Zn1	Zn	-0.307891	1.994012	-0.537155
Zn2	Zn	0.192109	2.494012	-0.037155
Zn3	Zn	-0.536478	1.993911	-0.308660
Zn4	Zn	-0.036478	2.493911	0.191340
Zn5	Zn	-0.340199	1.770410	-0.340824
Zn6	Zn	0.159801	2.270410	0.159176
Zn7	Zn	-0.533920	1.800161	-0.534647
Zn8	Zn	-0.033920	2.300161	-0.034647
O9	O	-0.429622	1.889623	-0.430322
O10	O	0.070378	2.389623	0.069678
O11	O	-0.325764	2.168662	-0.494434
O12	O	0.174236	2.668662	0.005566
O13	O	-0.525033	1.951770	-0.136185
O14	O	-0.025033	2.451770	0.363815
O15	O	-0.159176	1.787663	-0.381378
O16	O	0.340824	2.287663	0.118622
O17	O	-0.493706	2.168588	-0.326560
O18	O	0.006294	2.668588	0.173440
O19	O	-0.135440	1.951942	-0.525622
O20	O	0.364560	2.451942	-0.025622
O21	O	-0.380828	1.787565	-0.159816
O22	O	0.119172	2.287565	0.340184
O23	O	-0.378347	1.599693	-0.378946
O24	O	0.121653	2.099693	0.121054
O25	O	-0.489345	1.838368	-0.711721
O26	O	0.010655	2.338368	-0.211721
O27	O	-0.520672	1.621551	-0.521347
O28	O	-0.020672	2.121551	-0.021347
O29	O	-0.323283	1.980790	-0.713564
O30	O	0.176717	2.480790	-0.213564
O31	O	-0.712876	1.980618	-0.324127
O32	O	-0.212876	2.480618	0.175873
O33	O	-0.710996	1.838270	-0.490159
O34	O	-0.210996	2.338270	0.009841
C35	C	-0.452739	1.565334	-0.453365
C36	C	0.047261	2.065334	0.046635
C37	C	-0.462656	1.426605	-0.463250
C38	C	0.037344	1.926605	0.036750
C39	C	-0.757758	1.912697	-0.403406
C40	C	-0.257758	2.412697	0.096594
C41	C	-0.898124	1.922686	-0.391925
C42	C	-0.398124	2.422686	0.108075
C43	C	-0.100201	1.866495	-0.457368
C44	C	0.399799	2.366495	0.042632
C45	C	0.040179	1.856639	-0.468893
C46	C	0.540179	2.356639	0.031107
C47	C	-0.406416	2.215179	-0.407189
C48	C	0.093584	2.715179	0.092811
C49	C	-0.396527	2.353912	-0.397331
C50	C	0.103473	2.853912	0.102669
C51	C	-0.402425	1.912909	-0.759751
C52	C	0.097575	2.412909	-0.259751
C53	C	-0.390835	1.922832	-0.900134
C54	C	0.109165	2.422832	-0.400134
C55	C	-0.456618	1.866493	-0.102176
C56	C	0.043382	2.366493	0.397824
C57	C	-0.467835	1.856787	0.038195
C58	C	0.032165	2.356787	0.538195
H59	H	-0.332328	1.397813	-0.333321
H60	H	0.167672	1.897813	0.166679
H61	H	-0.542628	1.792656	-0.907206
H62	H	-0.042628	2.292656	-0.407206
H63	H	-0.905259	1.792453	-0.543574
H64	H	-0.405259	2.292453	-0.043574
N65	N	-0.970396	2.007715	-0.292995
N66	N	-0.470396	2.507715	0.207005
H67	H	-0.909283	2.050371	-0.243267
H68	H	-0.409283	2.550371	0.256733
H69	H	-1.033633	1.956674	-0.233676
H70	H	-0.533633	2.456674	0.266324
H71	H	-0.526860	1.382710	-0.527248
H72	H	-0.026860	1.882710	-0.027248
N73	N	-0.291746	2.007780	-0.972456
N74	N	0.208254	2.507780	-0.472456
H75	H	-0.242007	2.050438	-0.911359
H76	H	0.257993	2.550438	-0.411359
H77	H	-0.334563	2.072981	-1.018866
H78	H	0.165437	2.572981	-0.518866
