data_functionalizedCrystal
_audit_creation_method	'MofGen! by Chris Wilmer'
_symmetry_space_group_name_H-M	'P1'
_symmetry_Int_Tables_number	1
_symmetry_cell_setting	triclinic
loop_
_symmetry_equiv_pos_as_xyz
  x,y,z
_cell_length_a	21.295418
_cell_length_b	21.295417
_cell_length_c	12.759387
_cell_angle_alpha	89.961464
_cell_angle_beta	89.957911
_cell_angle_gamma	90.046319
loop_
_atom_site_label
_atom_site_type_symbol
_atom_site_fract_x
_atom_site_fract_y
_atom_site_fract_z
Zn1	Zn	0.962346	-0.250310	-0.594554
Zn2	Zn	0.962251	-0.355593	-0.418850
Zn3	Zn	0.857072	-0.250371	-0.418824
Zn4	Zn	0.857038	-0.355575	-0.594423
O5	O	0.909677	-0.302962	-0.506663
O6	O	1.050422	-0.264259	-0.571312
O7	O	0.948273	-0.341668	-0.271826
O8	O	0.871090	-0.162273	-0.442179
O9	O	1.050353	-0.341610	-0.442223
O10	O	0.948434	-0.162229	-0.571287
O11	O	0.870999	-0.264362	-0.271807
O12	O	0.768978	-0.264344	-0.442053
O13	O	0.871033	-0.341578	-0.741462
O14	O	0.768953	-0.341637	-0.571064
O15	O	0.948402	-0.264241	-0.741558
O16	O	0.948241	-0.443680	-0.442097
O17	O	0.870941	-0.443666	-0.571090
C18	C	0.746125	-0.302995	-0.506542
C19	C	0.676157	-0.303025	-0.506515
C20	C	0.643294	-0.343324	-0.573591
C21	C	0.577551	-0.343309	-0.573638
C22	C	0.544674	-0.303000	-0.506591
C23	C	0.577545	-0.262693	-0.439510
C24	C	0.643287	-0.262705	-0.439472
N25	N	0.441400	-0.298089	-0.414700
N26	N	0.378949	-0.298081	-0.414739
C27	C	0.346600	-0.302960	-0.506702
N28	N	0.379062	-0.307859	-0.598628
N29	N	0.441519	-0.307870	-0.598588
C30	C	0.473389	-0.302982	-0.506625
C31	C	0.242451	-0.343245	-0.573835
C32	C	0.176708	-0.343225	-0.573884
C33	C	0.176703	-0.262612	-0.439746
C34	C	0.242445	-0.262629	-0.439707
C35	C	0.275315	-0.302949	-0.506750
C36	C	0.909594	-0.466514	-0.506605
C37	C	0.909616	-0.536482	-0.506615
C38	C	0.949902	-0.569335	-0.439517
C39	C	0.949932	-0.635077	-0.439541
C40	C	0.909664	-0.667964	-0.506651
C41	C	0.869376	-0.635104	-0.573762
C42	C	0.869352	-0.569362	-0.573744
N43	N	0.854597	-0.771245	-0.514620
N44	N	0.854621	-0.833696	-0.514631
C45	C	0.909735	-0.866039	-0.506712
N46	N	0.964824	-0.833571	-0.498760
N47	N	0.964799	-0.771114	-0.498744
C48	C	0.909686	-0.739250	-0.506679
C49	C	0.950056	-0.970177	-0.439636
C50	C	0.950086	-1.035921	-0.439667
C51	C	0.869525	-1.035946	-0.573882
C52	C	0.869500	-0.970204	-0.573857
C53	C	0.909764	-0.937323	-0.506728
C54	C	1.073867	-0.302929	-0.506785
C55	C	1.143835	-0.302915	-0.506837
C56	C	0.909724	-0.302900	-0.780697
C57	C	0.909744	-0.302874	-0.897473
C58	C	0.909777	-0.138772	-0.506745
C59	C	0.909819	-0.068804	-0.506779
C60	C	0.990314	-0.222348	-0.897593
C61	C	1.030608	-0.182076	-0.952514
C62	C	1.030623	-0.182053	-1.062235
C63	C	0.990339	-0.222305	-1.117039
C64	C	0.950046	-0.262578	-1.062118
C65	C	0.950036	-0.262598	-0.952394
C66	C	0.869474	-0.343100	-1.061999
C67	C	0.869460	-0.343127	-0.952277
C68	C	0.829190	-0.383352	-1.116802
C69	C	0.788898	-0.423629	-1.061882
C70	C	0.788885	-0.423650	-0.952153
C71	C	0.829167	-0.383399	-0.897356
C72	C	0.909666	-0.302978	-0.233696
C73	C	0.909767	-0.302827	-0.116919
H74	H	0.670053	-0.376155	-0.628184
H75	H	0.670043	-0.229886	-0.384851
H76	H	0.836741	-1.062722	-0.628530
O77	O	0.141254	-0.219132	-0.367431
H78	H	0.153813	-0.229870	-0.284935
O79	O	0.826036	-0.934773	-0.646218
H80	H	0.854177	-0.904764	-0.699735
O81	O	0.745451	-0.467035	-1.120994
H82	H	0.717428	-0.495042	-1.064375
H83	H	1.063430	-0.149256	-1.106952
O84	O	0.141307	-0.386734	-0.646233
H85	H	0.111414	-0.358639	-0.699855
O86	O	0.990298	-0.222377	-0.779250
H87	H	1.025075	-0.187620	-0.750369
O88	O	0.990348	-0.222279	-1.235382
H89	H	1.025134	-0.187513	-1.264364
H90	H	0.269216	-0.376072	-0.628431
O91	O	0.829202	-0.383331	-1.235145
H92	H	0.863992	-0.348570	-1.264131
O93	O	0.993337	-0.533869	-0.367133
H94	H	1.021360	-0.567763	-0.320487
O95	O	0.277897	-0.219179	-0.367333
H96	H	0.243993	-0.191154	-0.320705
H97	H	0.550789	-0.376125	-0.628264
O98	O	1.074062	-0.138666	-0.893408
H99	H	1.067290	-0.145452	-0.807885
H100	H	0.756066	-0.456438	-0.907444
H101	H	0.982739	-0.661831	-0.384902
O102	O	0.829150	-0.383430	-0.779014
H103	H	0.816454	-0.335960	-0.750095
O104	O	0.825936	-0.670569	-0.646136
H105	H	0.832713	-0.721803	-0.634866
O106	O	0.825888	-0.533922	-0.646096
H107	H	0.797886	-0.567832	-0.692761
O108	O	0.542091	-0.219229	-0.367169
H109	H	0.490855	-0.226000	-0.378448
H110	H	0.982896	-1.062669	-0.385030
O111	O	0.993489	-0.934706	-0.367252
H112	H	1.021516	-0.968598	-0.320611
