data_functionalizedCrystal
_audit_creation_method	'MofGen! by Chris Wilmer'
_symmetry_space_group_name_H-M	'P1'
_symmetry_Int_Tables_number	1
_symmetry_cell_setting	triclinic
loop_
_symmetry_equiv_pos_as_xyz
  x,y,z
_cell_length_a	16.959455
_cell_length_b	18.050589
_cell_length_c	16.959447
_cell_angle_alpha	89.973357
_cell_angle_beta	89.985678
_cell_angle_gamma	90.025168
loop_
_atom_site_label
_atom_site_type_symbol
_atom_site_fract_x
_atom_site_fract_y
_atom_site_fract_z
Zn1	Zn	1.208339	-0.295705	-0.446929
Zn2	Zn	1.708339	0.204295	0.053071
Zn3	Zn	1.208243	-0.419907	-0.314759
Zn4	Zn	1.708243	0.080093	0.185241
Zn5	Zn	1.076167	-0.295729	-0.314766
Zn6	Zn	1.576167	0.204271	0.185234
Zn7	Zn	1.076113	-0.419851	-0.446897
Zn8	Zn	1.576113	0.080149	0.053103
O9	O	1.142216	-0.357798	-0.380838
O10	O	1.642216	0.142202	0.119162
O11	O	1.318937	-0.312194	-0.429406
O12	O	1.818937	0.187806	0.070594
O13	O	1.190705	-0.403467	-0.204149
O14	O	1.690705	0.096533	0.295851
O15	O	1.093763	-0.191801	-0.332314
O16	O	1.593763	0.308199	0.167686
O17	O	1.318866	-0.403445	-0.332301
O18	O	1.818866	0.096555	0.167699
O19	O	1.190869	-0.191784	-0.429414
O20	O	1.690869	0.308216	0.070586
O21	O	1.093670	-0.312234	-0.204154
O22	O	1.593670	0.187766	0.295846
O23	O	0.965549	-0.312180	-0.332284
O24	O	1.465549	0.187820	0.167716
O25	O	1.093671	-0.403350	-0.557512
O26	O	1.593671	0.096650	-0.057512
O27	O	0.965510	-0.403373	-0.429360
O28	O	1.465510	0.096627	0.070640
O29	O	1.190817	-0.312141	-0.557536
O30	O	1.690817	0.187859	-0.057536
O31	O	1.190653	-0.523824	-0.332271
O32	O	1.690653	-0.023824	0.167729
O33	O	1.093578	-0.523783	-0.429353
O34	O	1.593578	-0.023783	0.070647
C35	C	0.936849	-0.357774	-0.380820
C36	C	1.436849	0.142226	0.119180
C37	C	0.848993	-0.357781	-0.380831
C38	C	1.348993	0.142219	0.119169
C39	C	0.477513	-0.310275	-0.330396
C40	C	0.977513	0.189725	0.169604
C41	C	0.477521	-0.405382	-0.431325
C42	C	0.977521	0.094618	0.068675
C43	C	0.560067	-0.405371	-0.431320
C44	C	1.060067	0.094629	0.068680
C45	C	0.601340	-0.357813	-0.380852
C46	C	1.101340	0.142187	0.119148
C47	C	0.560067	-0.310265	-0.330388
C48	C	1.060067	0.189735	0.169612
C49	C	0.601346	-0.452924	-0.481777
C50	C	1.101346	0.047076	0.018223
C51	C	0.683897	-0.452916	-0.481774
C52	C	1.183897	0.047084	0.018226
C53	C	0.725171	-0.405353	-0.431309
C54	C	1.225171	0.094647	0.068691
C55	C	0.683893	-0.357802	-0.380844
C56	C	1.183893	0.142198	0.119156
C57	C	0.725166	-0.310243	-0.330375
C58	C	1.225166	0.189757	0.169625
C59	C	0.683890	-0.262689	-0.279913
C60	C	1.183890	0.237311	0.220087
C61	C	0.601342	-0.262702	-0.279923
C62	C	1.101342	0.237298	0.220077
C63	C	0.807720	-0.405340	-0.431299
C64	C	1.307720	0.094660	0.068701
C65	C	0.807720	-0.310233	-0.330367
C66	C	1.307720	0.189767	0.169633
C67	C	1.142120	-0.550750	-0.380825
C68	C	1.642120	-0.050750	0.119175
C69	C	1.142152	-0.633296	-0.380846
C70	C	1.642152	-0.133296	0.119154
C71	C	1.089414	-0.832751	-0.433620
C72	C	1.589414	-0.332751	0.066380
C73	C	1.070151	-0.882194	-0.361493
C74	C	1.570151	-0.382194	0.138507
C75	C	1.142229	-0.784426	-0.380856
C76	C	1.642229	-0.284426	0.119144
C77	C	1.161531	-0.882065	-0.452991
C78	C	1.661531	-0.382065	0.047009
C79	C	1.142303	-0.930411	-0.380872
C80	C	1.642303	-0.430411	0.119128
C81	C	1.122929	-0.832782	-0.308691
C82	C	1.622929	-0.332782	0.191309
C83	C	1.214342	-0.832648	-0.400237
C84	C	1.714342	-0.332648	0.099763
C85	C	1.195106	-0.882069	-0.328061
C86	C	1.695106	-0.382069	0.171939
C87	C	1.142185	-0.700328	-0.380848
C88	C	1.642185	-0.200328	0.119152
C89	C	1.142347	-1.014508	-0.380872
C90	C	1.642347	-0.514508	0.119128
C91	C	1.348384	-0.357823	-0.380857
C92	C	1.848384	0.142177	0.119143
C93	C	1.436240	-0.357834	-0.380864
C94	C	1.936240	0.142166	0.119136
C95	C	1.142249	-0.357737	-0.587006
C96	C	1.642249	0.142263	-0.087006
C97	C	1.142263	-0.357710	-0.674863
C98	C	1.642263	0.142290	-0.174863
C99	C	1.142333	-0.164092	-0.380868
C100	C	1.642333	0.335908	0.119132
C101	C	1.142383	-0.081547	-0.380881
C102	C	1.642383	0.418453	0.119119
C103	C	1.091778	-0.405121	-1.046329
C104	C	1.591778	0.094879	-0.546329
C105	C	1.192936	-0.310143	-1.046348
C106	C	1.692936	0.189857	-0.546348
C107	C	1.192915	-0.310159	-0.963802
C108	C	1.692915	0.189841	-0.463802
C109	C	1.142326	-0.357657	-0.922516
C110	C	1.642326	0.142343	-0.422516
C111	C	1.091757	-0.405139	-0.963775
C112	C	1.591757	0.094861	-0.463775
C113	C	1.243489	-0.262683	-0.922537
C114	C	1.743489	0.237317	-0.422537
C115	C	1.243470	-0.262698	-0.839986
C116	C	1.743470	0.237302	-0.339986
C117	C	1.192876	-0.310192	-0.798698
C118	C	1.692876	0.189808	-0.298698
C119	C	1.142305	-0.357676	-0.839962
C120	C	1.642305	0.142324	-0.339962
C121	C	1.091715	-0.405174	-0.798676
C122	C	1.591715	0.094826	-0.298676
C123	C	1.041139	-0.452654	-0.839939
C124	C	1.541139	0.047346	-0.339939
C125	C	1.041162	-0.452634	-0.922488
C126	C	1.541162	0.047366	-0.422488
C127	C	1.192852	-0.310212	-0.716149
C128	C	1.692852	0.189788	-0.216149
C129	C	1.091694	-0.405193	-0.716122
C130	C	1.591694	0.094807	-0.216122
C131	C	1.142228	-0.357806	-0.175472
C132	C	1.642228	0.142194	0.324528
C133	C	1.142368	-0.357623	-0.087615
C134	C	1.642368	0.142377	0.412385
H135	H	0.717505	-0.223970	-0.238818
H136	H	1.217505	0.276030	0.261182
H137	H	0.717497	-0.491637	-0.522864
H138	H	1.217497	0.008363	-0.022864
H139	H	1.044685	-0.811096	-0.478178
H140	H	1.544685	-0.311096	0.021822
C141	C	0.988824	-0.911175	-0.339787
C142	C	1.488824	-0.411175	0.160213
C143	C	0.933726	-0.886208	-0.395216
C144	C	1.433726	-0.386208	0.104784
C145	C	0.858801	-0.912895	-0.375257
C146	C	1.358801	-0.412895	0.124743
H147	H	0.974668	-0.893592	-0.288937
H148	H	1.474668	-0.393592	0.211063
H149	H	0.989528	-0.963803	-0.339513
H150	H	1.489528	-0.463803	0.160487
H151	H	0.933021	-0.833591	-0.395482
H152	H	1.433021	-0.333591	0.104518
H153	H	0.947857	-0.903789	-0.446070
H154	H	1.447857	-0.403789	0.053930
H155	H	0.859504	-0.965523	-0.374983
H156	H	1.359504	-0.465523	0.125017
H157	H	0.844653	-0.895310	-0.324407
H158	H	1.344653	-0.395310	0.175593
H159	H	0.821409	-0.895964	-0.412866
H160	H	1.321409	-0.395964	0.087134
C161	C	1.295563	-0.803643	-0.422281
C162	C	1.795563	-0.303643	0.077719
C163	C	1.315430	-0.828553	-0.497888
C164	C	1.815430	-0.328553	0.002112
C165	C	1.390240	-0.801838	-0.518234
C166	C	1.890240	-0.301838	-0.018234
H167	H	1.333320	-0.821246	-0.385405
H168	H	1.833320	-0.321246	0.114595
H169	H	1.295072	-0.751016	-0.421684
H170	H	1.795072	-0.251016	0.078316
H171	H	1.315927	-0.881169	-0.498479
H172	H	1.815927	-0.381169	0.001521
H173	H	1.277693	-0.810952	-0.534781
H174	H	1.777693	-0.310952	-0.034781
H175	H	1.389749	-0.749211	-0.517638
H176	H	1.889749	-0.249211	-0.017638
H177	H	1.427990	-0.819443	-0.481354
H178	H	1.927990	-0.319443	0.018646
H179	H	1.403726	-0.818730	-0.569538
H180	H	1.903726	-0.318730	-0.069538
C181	C	0.852574	-0.457057	-0.485948
C182	C	1.352574	0.042943	0.014052
C183	C	0.899922	-0.504608	-0.441099
C184	C	1.399922	-0.004608	0.058901
C185	C	0.941244	-0.552269	-0.491418
C186	C	1.441244	-0.052269	0.008582
H187	H	0.884861	-0.428773	-0.520455
H188	H	1.384861	0.071227	-0.020455
H189	H	0.816195	-0.485428	-0.515989
H190	H	1.316195	0.014572	-0.015989
H191	H	0.936298	-0.476240	-0.411072
H192	H	1.436298	0.023760	0.088928
H193	H	0.867656	-0.532909	-0.406594
H194	H	1.367656	-0.032909	0.093406
H195	H	0.904865	-0.580640	-0.521458
H196	H	1.404865	-0.080640	-0.021458
H197	H	0.973526	-0.523978	-0.525923
H198	H	1.473526	-0.023978	-0.025923
H199	H	0.973369	-0.584542	-0.460995
H200	H	1.473369	-0.084542	0.039005
H201	H	1.284681	-0.224017	-0.956158
H202	H	1.784681	0.275983	-0.456158
H203	H	0.443911	-0.444106	-0.472410
H204	H	0.943911	0.055894	0.027590
H205	H	1.106562	-0.811223	-0.247677
H206	H	1.606562	-0.311223	0.252323
C207	C	1.183157	-0.910829	-0.534392
C208	C	1.683157	-0.410829	-0.034392
C209	C	1.127638	-0.885824	-0.589379
C210	C	1.627638	-0.385824	-0.089379
C211	C	1.147534	-0.912296	-0.664376
C212	C	1.647534	-0.412296	-0.164376
H213	H	1.183487	-0.963449	-0.533805
H214	H	1.683487	-0.463449	-0.033805
H215	H	1.233985	-0.893114	-0.548559
H216	H	1.733985	-0.393114	-0.048559
H217	H	1.076825	-0.903543	-0.575216
H218	H	1.576825	-0.403543	-0.075216
H219	H	1.127301	-0.833207	-0.589991
H220	H	1.627301	-0.333207	-0.089991
H221	H	1.198361	-0.894580	-0.678542
H222	H	1.698361	-0.394580	-0.178542
H223	H	1.147863	-0.964915	-0.663781
H224	H	1.647863	-0.464915	-0.163781
H225	H	1.109872	-0.895328	-0.701695
H226	H	1.609872	-0.395328	-0.201695
C227	C	1.298455	-0.211260	-0.795139
C228	C	1.798455	0.288740	-0.295139
C229	C	1.349095	-0.253311	-0.747737
C230	C	1.849095	0.246689	-0.247737
C231	C	1.399754	-0.205947	-0.706416
C232	C	1.899754	0.294053	-0.206416
H233	H	1.268304	-0.178897	-0.762890
H234	H	1.768304	0.321103	-0.262890
H235	H	1.328634	-0.182976	-0.831520
H236	H	1.828634	0.317024	-0.331520
H237	H	1.318919	-0.281583	-0.711361
H238	H	1.818919	0.218417	-0.211361
H239	H	1.379263	-0.285672	-0.779967
H240	H	1.879263	0.214328	-0.279967
H241	H	1.429933	-0.177663	-0.742797
H242	H	1.929933	0.322337	-0.242797
H243	H	1.369596	-0.173587	-0.674171
H244	H	1.869596	0.326413	-0.174171
H245	H	1.434124	-0.234472	-0.674255
H246	H	1.934124	0.265528	-0.174255
H247	H	1.239802	-0.903587	-0.283395
H248	H	1.739802	-0.403587	0.216605
C249	C	0.556394	-0.504476	-0.536537
C250	C	1.056394	-0.004476	-0.036537
C251	C	0.475267	-0.494290	-0.525759
C252	C	0.975267	0.005710	-0.025759
C253	C	0.433829	-0.541761	-0.576200
C254	C	0.933829	-0.041761	-0.076200
H255	H	0.569802	-0.554391	-0.524926
H256	H	1.069802	-0.054391	-0.024926
H257	H	0.569899	-0.493663	-0.589682
H258	H	1.069899	0.006337	-0.089682
H259	H	0.461767	-0.505108	-0.472627
H260	H	0.961767	-0.005108	0.027373
H261	H	0.461835	-0.444385	-0.537376
H262	H	0.961835	0.055615	-0.037376
H263	H	0.447335	-0.530948	-0.629345
H264	H	0.947335	-0.030948	-0.129345
H265	H	0.447244	-0.591672	-0.564585
H266	H	0.947244	-0.091672	-0.064585
H267	H	0.378781	-0.534851	-0.568900
H268	H	0.878781	-0.034851	-0.068900
C269	C	1.036741	-0.456850	-0.671443
C270	C	1.536741	0.043150	-0.171443
C271	C	0.992474	-0.498438	-0.725249
C272	C	1.492474	0.001562	-0.225249
C273	C	0.941855	-0.546042	-0.684120
C274	C	1.441855	-0.046042	-0.184120
H275	H	1.002240	-0.428533	-0.639238
H276	H	1.502240	0.071467	-0.139238
H277	H	1.066938	-0.489260	-0.639255
H278	H	1.566938	0.010740	-0.139255
H279	H	0.962279	-0.466032	-0.757423
H280	H	1.462279	0.033968	-0.257423
H281	H	1.026954	-0.526770	-0.757455
H282	H	1.526954	-0.026770	-0.257455
H283	H	0.972052	-0.578452	-0.651932
H284	H	1.472052	-0.078452	-0.151932
H285	H	0.907359	-0.517719	-0.651917
H286	H	1.407359	-0.017719	-0.151917
H287	H	0.911819	-0.574270	-0.720621
H288	H	1.411819	-0.074270	-0.220621
C289	C	0.986344	-0.504154	-0.967430
C290	C	1.486344	-0.004154	-0.467430
C291	C	0.997208	-0.493985	-1.048559
C292	C	1.497208	0.006015	-0.548559
C293	C	0.946732	-0.541439	-1.089988
C294	C	1.446732	-0.041439	-0.589988
H295	H	0.933205	-0.493328	-0.954003
H296	H	1.433205	0.006672	-0.454003
H297	H	0.997884	-0.554073	-0.953936
H298	H	1.497884	-0.054073	-0.453936
H299	H	0.985662	-0.444077	-1.062048
H300	H	1.485662	0.055923	-0.562048
H301	H	1.050336	-0.504816	-1.062010
H302	H	1.550336	-0.004816	-0.562010
H303	H	0.958272	-0.591358	-1.076493
H304	H	1.458272	-0.091358	-0.576493
H305	H	0.893597	-0.530609	-1.076554
H306	H	1.393597	-0.030609	-0.576554
H307	H	0.954102	-0.534550	-1.145037
H308	H	1.454102	-0.034550	-0.645037
H309	H	1.234033	-0.271557	-0.682556
H310	H	1.734033	0.228443	-0.182556
C311	C	1.247778	-0.258609	-1.091313
C312	C	1.747778	0.241391	-0.591313
C313	C	1.236963	-0.268745	-1.172437
C314	C	1.736963	0.231255	-0.672437
C315	C	1.287464	-0.221276	-1.213886
C316	C	1.787464	0.278724	-0.713886
H317	H	1.300908	-0.269440	-1.077874
H318	H	1.800908	0.230560	-0.577874
H319	H	1.236230	-0.208694	-1.077847
H320	H	1.736230	0.291306	-0.577847
H321	H	1.248516	-0.318648	-1.185898
H322	H	1.748516	0.181352	-0.685898
H323	H	1.183843	-0.257909	-1.185900
H324	H	1.683843	0.242091	-0.685900
H325	H	1.275916	-0.171362	-1.200420
H326	H	1.775916	0.328638	-0.700420
H327	H	1.340591	-0.232111	-1.200441
H328	H	1.840591	0.267889	-0.700441
H329	H	1.280128	-0.228142	-1.268933
H330	H	1.780128	0.271858	-0.768933
H331	H	0.999952	-0.491330	-0.806313
H332	H	1.499952	0.008670	-0.306313
H333	H	0.567727	-0.223986	-0.238838
H334	H	1.067727	0.276014	0.261162
C335	C	0.852385	-0.258569	-0.275482
C336	C	1.352385	0.241431	0.224518
C337	C	0.798567	-0.216943	-0.231282
C338	C	1.298567	0.283057	0.268718
C339	C	0.839683	-0.169352	-0.180706
C340	C	1.339683	0.330648	0.319294
H341	H	0.884616	-0.226178	-0.305683
H342	H	1.384616	0.273822	0.194317
H343	H	0.884545	-0.286920	-0.240943
H344	H	1.384545	0.213080	0.259057
H345	H	0.766420	-0.188595	-0.265816
H346	H	1.266420	0.311405	0.234184
H347	H	0.766335	-0.249316	-0.201064
H348	H	1.266335	0.250684	0.298936
H349	H	0.871843	-0.197702	-0.146166
H350	H	1.371843	0.302298	0.353834
H351	H	0.871912	-0.136965	-0.210913
H352	H	1.371912	0.363035	0.289087
H353	H	0.803174	-0.141108	-0.150704
H354	H	1.303174	0.358892	0.349296
H355	H	0.443903	-0.271555	-0.289313
H356	H	0.943903	0.228445	0.210687
H357	H	1.050598	-0.443776	-1.079929
H358	H	1.550598	0.056224	-0.579929
