data_functionalizedCrystal
_audit_creation_method	'MofGen! by Chris Wilmer'
_symmetry_space_group_name_H-M	'P1'
_symmetry_Int_Tables_number	1
_symmetry_cell_setting	triclinic
loop_
_symmetry_equiv_pos_as_xyz
  x,y,z
_cell_length_a	10.654546
_cell_length_b	18.266242
_cell_length_c	19.188930
_cell_angle_alpha	90.011475
_cell_angle_beta	96.185848
_cell_angle_gamma	89.983384
loop_
_atom_site_label
_atom_site_type_symbol
_atom_site_fract_x
_atom_site_fract_y
_atom_site_fract_z
O1	O	-1.665777	0.061019	0.098052
O2	O	-1.165777	0.561019	0.598052
O3	O	-1.300100	0.060993	0.107397
O4	O	-0.800100	0.560993	0.607397
O5	O	-1.493491	0.060993	0.001138
O6	O	-0.993491	0.560993	0.501138
O7	O	-1.472386	0.061020	0.204311
O8	O	-0.972386	0.561020	0.704311
O9	O	-1.493459	-0.060769	0.001132
O10	O	-0.993459	0.439231	0.501132
O11	O	-1.300068	-0.060769	0.107391
O12	O	-0.800068	0.439231	0.607391
O13	O	-1.665744	-0.060743	0.098046
O14	O	-1.165744	0.439257	0.598046
Zn15	Zn	-1.482901	-0.080088	0.102718
Zn16	Zn	-0.982901	0.419912	0.602718
Zn17	Zn	-1.482944	0.080339	0.102725
Zn18	Zn	-0.982944	0.580339	0.602725
O19	O	-1.472353	-0.060742	0.204305
O20	O	-0.972353	0.439258	0.704305
C21	C	-1.253300	0.000109	0.106708
C22	C	-0.753300	0.500109	0.606708
C23	C	-1.113900	0.000098	0.104657
C24	C	-0.613900	0.500098	0.604657
N25	N	-1.482881	-0.189575	0.102712
N26	N	-0.982881	0.310425	0.602712
C27	C	-1.033091	0.000114	0.167221
C28	C	-0.533091	0.500114	0.667221
C29	C	-0.902111	0.000121	0.165289
C30	C	-0.402111	0.500121	0.665289
C31	C	-0.932763	0.000099	0.038224
C32	C	-0.432763	0.500099	0.538224
C33	C	-1.063740	0.000087	0.040157
C34	C	-0.563740	0.500087	0.540157
C35	C	-1.015393	0.000130	0.240580
C36	C	-0.515393	0.500130	0.740580
C37	C	-0.884413	0.000137	0.238648
C38	C	-0.384413	0.500137	0.738648
C39	C	-1.568542	-0.227884	0.055684
C40	C	-1.068542	0.272116	0.555684
C41	C	-1.568550	-0.304529	0.055681
C42	C	-1.068550	0.195471	0.555681
C43	C	-1.482909	-0.342862	0.102718
C44	C	-0.982909	0.157138	0.602718
C45	C	-1.397231	-0.304543	0.149750
C46	C	-0.897231	0.195457	0.649750
C47	C	-1.397217	-0.227900	0.149747
C48	C	-0.897217	0.272100	0.649747
N49	N	-1.466585	-0.463187	0.164419
N50	N	-0.966585	0.036813	0.664419
N51	N	-1.466606	-0.535995	0.164419
N52	N	-0.966606	-0.035995	0.664419
C53	C	-1.482944	-0.573784	0.102728
C54	C	-0.982944	-0.073784	0.602728
N55	N	-1.499285	-0.536015	0.041035
N56	N	-0.999285	-0.036015	0.541035
N57	N	-1.499270	-0.463200	0.041035
N58	N	-0.999270	0.036800	0.541035
C59	C	-1.482914	-0.425969	0.102726
C60	C	-0.982914	0.074031	0.602726
C61	C	-1.568619	-0.695200	0.055693
C62	C	-1.068619	-0.195200	0.555693
C63	C	-1.568618	-0.771847	0.055689
C64	C	-1.068618	-0.271847	0.555689
C65	C	-1.397305	-0.771860	0.149763
C66	C	-0.897305	-0.271860	0.649763
C67	C	-1.397299	-0.695215	0.149762
C68	C	-0.897299	-0.195215	0.649762
C69	C	-1.482963	-0.656890	0.102727
C70	C	-0.982963	-0.156890	0.602727
C71	C	-0.712544	0.000133	0.098736
C72	C	-0.212544	0.500133	0.598736
C73	C	-0.851943	0.000117	0.100793
C74	C	-0.351943	0.500117	0.600793
C75	C	-1.492791	0.000110	-0.024881
C76	C	-0.992791	0.500110	0.475119
C77	C	-1.490740	0.000103	-0.102399
C78	C	-0.990740	0.500103	0.397601
N79	N	-1.482974	0.189826	0.102725
N80	N	-0.982974	0.689826	0.602725
C81	C	-1.604215	0.000108	-0.146581
C82	C	-1.104215	0.500108	0.353419
C83	C	-1.602288	0.000119	-0.219418
C84	C	-1.102288	0.500119	0.280582
C85	C	-1.486878	0.000112	-0.248068
C86	C	-0.986878	0.500112	0.251932
C87	C	-1.373388	0.000111	-0.203876
C88	C	-0.873388	0.500111	0.296124
C89	C	-1.375319	0.000107	-0.131041
C90	C	-0.875319	0.500107	0.368959
N91	N	-1.398650	-0.041333	-0.356651
N92	N	-0.898650	0.458667	0.143349
N93	N	-1.396824	-0.041330	-0.425842
N94	N	-0.896824	0.458670	0.074158
C95	C	-1.481054	0.000126	-0.467515
C96	C	-0.981054	0.500126	0.032485
N97	N	-1.567199	0.041570	-0.437385
N98	N	-1.067199	0.541570	0.062615
N99	N	-1.569029	0.041565	-0.368188
N100	N	-1.069029	0.541565	0.131812
C101	C	-1.484772	0.000117	-0.327044
C102	C	-0.984772	0.500117	0.172956
C103	C	-1.592448	0.000144	-0.590675
C104	C	-1.092448	0.500144	-0.090675
C105	C	-1.590515	0.000160	-0.663513
C106	C	-1.090515	0.500160	-0.163513
C107	C	-1.361612	0.000145	-0.647969
C108	C	-0.861612	0.500145	-0.147969
C109	C	-1.363548	0.000136	-0.575134
C110	C	-0.863548	0.500136	-0.075134
C111	C	-1.478969	0.000132	-0.546491
C112	C	-0.978969	0.500132	-0.046491
C113	C	-1.473053	0.000143	0.230324
C114	C	-0.973053	0.500143	0.730324
C115	C	-1.475105	0.000154	0.307842
C116	C	-0.975105	0.500154	0.807842
H117	H	-1.129532	0.000064	-0.010788
H118	H	-0.629532	0.500064	0.489212
Cl119	Cl	-1.749316	0.000124	-0.110577
Cl120	Cl	-1.249316	0.500124	0.389423
H121	H	-0.891906	0.000101	-0.014289
H122	H	-0.391906	0.500101	0.485711
H123	H	-1.044103	-0.050825	0.269268
H124	H	-0.544103	0.449175	0.769268
H125	H	-1.050568	0.052704	0.263941
H126	H	-0.550568	0.552704	0.763941
Cl127	Cl	-0.813142	-0.081018	0.272875
Cl128	Cl	-0.313142	0.418982	0.772875
H129	H	-1.282910	0.000103	-0.095067
H130	H	-0.782910	0.500103	0.404933
H131	H	-0.842109	0.051100	0.266292
H132	H	-0.342109	0.551100	0.766292
Cl133	Cl	-1.676224	-0.179704	-0.003447
Cl134	Cl	-1.176224	0.320296	0.496553
H135	H	-1.638308	-0.335726	0.017383
H136	H	-1.138308	0.164274	0.517383
Cl137	Cl	-1.289632	-0.820044	0.208891
Cl138	Cl	-0.789632	-0.320044	0.708891
H139	H	-1.327551	-0.664022	0.188059
H140	H	-0.827551	-0.164022	0.688059
H141	H	-1.682925	0.000168	-0.699486
H142	H	-1.182925	0.500168	-0.199486
H143	H	-1.638367	-0.663995	0.017392
H144	H	-1.138367	-0.163995	0.517392
H145	H	-1.694696	0.000126	-0.255398
H146	H	-1.194696	0.500126	0.244602
H147	H	-1.327498	-0.335758	0.188047
H148	H	-0.827498	0.164242	0.688047
Cl149	Cl	-1.228302	0.000107	-0.239893
Cl150	Cl	-0.728302	0.500107	0.260107
Cl151	Cl	-1.737545	0.000135	-0.554664
Cl152	Cl	-1.237545	0.500135	-0.054664
H153	H	-1.267643	0.000142	-0.671296
H154	H	-0.767643	0.500142	-0.171296
Cl155	Cl	-1.676308	-0.820010	-0.003442
Cl156	Cl	-1.176308	-0.320010	0.496558
Cl157	Cl	-1.289521	-0.179737	0.208874
Cl158	Cl	-0.789521	0.320263	0.708874
H159	H	-1.271143	0.000128	-0.539159
H160	H	-0.771143	0.500128	-0.039159
