data_functionalizedCrystal
_audit_creation_method	'MofGen! by Chris Wilmer'
_symmetry_space_group_name_H-M	'P1'
_symmetry_Int_Tables_number	1
_symmetry_cell_setting	triclinic
loop_
_symmetry_equiv_pos_as_xyz
  x,y,z
_cell_length_a	19.121063
_cell_length_b	19.805407
_cell_length_c	19.805399
_cell_angle_alpha	89.978275
_cell_angle_beta	87.588895
_cell_angle_gamma	87.529649
loop_
_atom_site_label
_atom_site_type_symbol
_atom_site_fract_x
_atom_site_fract_y
_atom_site_fract_z
Zn1	Zn	-0.279608	-1.023235	0.394240
Zn2	Zn	-0.029608	-0.773235	0.644240
Zn3	Zn	0.220392	-0.523235	0.894240
Zn4	Zn	0.470392	-0.273235	1.144240
Zn5	Zn	-0.397060	-1.018318	0.285875
Zn6	Zn	-0.147060	-0.768318	0.535875
Zn7	Zn	0.102940	-0.518318	0.785875
Zn8	Zn	0.352940	-0.268318	1.035875
Zn9	Zn	-0.279630	-0.910048	0.281062
Zn10	Zn	-0.029630	-0.660048	0.531062
Zn11	Zn	0.220370	-0.410048	0.781062
Zn12	Zn	0.470370	-0.160048	1.031062
Zn13	Zn	-0.397026	-0.905183	0.399016
Zn14	Zn	-0.147026	-0.655183	0.649016
Zn15	Zn	0.102974	-0.405183	0.899016
Zn16	Zn	0.352974	-0.155183	1.149016
O17	O	-0.338331	-0.964196	0.340048
O18	O	-0.088331	-0.714196	0.590048
O19	O	0.161669	-0.464196	0.840048
O20	O	0.411669	-0.214196	1.090048
O21	O	-0.295194	-1.117299	0.379881
O22	O	-0.045194	-0.867299	0.629881
O23	O	0.204806	-0.617299	0.879881
O24	O	0.454806	-0.367299	1.129881
O25	O	-0.381507	-1.003935	0.190521
O26	O	-0.131507	-0.753935	0.440521
O27	O	0.118493	-0.503935	0.690521
O28	O	0.368493	-0.253935	0.940521
O29	O	-0.181342	-0.929156	0.292062
O30	O	0.068658	-0.679156	0.542062
O31	O	0.318658	-0.429156	0.792062
O32	O	0.568658	-0.179156	1.042062
O33	O	-0.381485	-1.113687	0.300266
O34	O	-0.131485	-0.863687	0.550266
O35	O	0.118515	-0.613687	0.800266
O36	O	0.368515	-0.363687	1.050266
O37	O	-0.181326	-1.012314	0.375214
O38	O	0.068674	-0.762314	0.625214
O39	O	0.318674	-0.512314	0.875214
O40	O	0.568674	-0.262314	1.125214
O41	O	-0.295231	-0.924389	0.186984
O42	O	-0.045231	-0.674389	0.436984
O43	O	0.204769	-0.424389	0.686984
O44	O	0.454769	-0.174389	0.936984
O45	O	-0.295197	-0.814687	0.296693
O46	O	-0.045197	-0.564687	0.546693
O47	O	0.204803	-0.314687	0.796693
O48	O	0.454803	-0.064687	1.046693
O49	O	-0.381426	-0.920864	0.493098
O50	O	-0.131426	-0.670864	0.743098
O51	O	0.118574	-0.420864	0.993098
O52	O	0.368574	-0.170864	1.243098
O53	O	-0.381447	-0.811112	0.383353
O54	O	-0.131447	-0.561112	0.633353
O55	O	0.118553	-0.311112	0.883353
O56	O	0.368553	-0.061112	1.133353
O57	O	-0.295160	-1.007596	0.489589
O58	O	-0.045160	-0.757596	0.739589
O59	O	0.204840	-0.507596	0.989589
O60	O	0.454840	-0.257596	1.239589
O61	O	-0.495341	-0.999217	0.304897
O62	O	-0.245341	-0.749217	0.554897
O63	O	0.004659	-0.499217	0.804897
O64	O	0.254659	-0.249217	1.054897
O65	O	-0.495315	-0.916097	0.388021
O66	O	-0.245315	-0.666097	0.638021
O67	O	0.004685	-0.416097	0.888021
O68	O	0.254685	-0.166097	1.138021
C69	C	-0.338321	-0.788341	0.340019
C70	C	-0.088321	-0.538341	0.590019
C71	C	0.161679	-0.288341	0.840019
C72	C	0.411679	-0.038341	1.090019
C73	C	-0.338334	-0.713108	0.340024
C74	C	-0.088334	-0.463108	0.590024
C75	C	0.161666	-0.213108	0.840024
C76	C	0.411666	0.036892	1.090024
C77	C	-0.293474	-0.253198	0.381583
C78	C	-0.043474	-0.003198	0.631583
C79	C	0.206526	0.246802	0.881583
C80	C	0.456526	0.496802	1.131583
C81	C	-0.293476	-0.323887	0.381580
C82	C	-0.043476	-0.073887	0.631580
C83	C	0.206524	0.176113	0.881580
C84	C	0.456524	0.426113	1.131580
C85	C	-0.338334	-0.357346	0.340056
C86	C	-0.088334	-0.107346	0.590056
C87	C	0.161666	0.142654	0.840056
C88	C	0.411666	0.392654	1.090056
C89	C	-0.383197	-0.320114	0.298538
C90	C	-0.133197	-0.070114	0.548538
C91	C	0.116803	0.179886	0.798538
C92	C	0.366803	0.429886	1.048538
C93	C	-0.383198	-0.249426	0.298545
C94	C	-0.133198	0.000574	0.548545
C95	C	0.116802	0.250574	0.798545
C96	C	0.366802	0.500574	1.048545
C97	C	-0.383196	-0.605187	0.298509
C98	C	-0.133196	-0.355187	0.548509
C99	C	0.116804	-0.105187	0.798509
C100	C	0.366804	0.144813	1.048509
C101	C	-0.383190	-0.675879	0.298503
C102	C	-0.133190	-0.425879	0.548503
C103	C	0.116810	-0.175879	0.798503
C104	C	0.366810	0.074121	1.048503
C105	C	-0.293473	-0.679647	0.381544
C106	C	-0.043473	-0.429647	0.631544
C107	C	0.206527	-0.179647	0.881544
C108	C	0.456527	0.070353	1.131544
C109	C	-0.293474	-0.608960	0.381551
C110	C	-0.043474	-0.358960	0.631551
C111	C	0.206526	-0.108960	0.881551
C112	C	0.456526	0.141040	1.131551
C113	C	-0.338340	-0.571733	0.340035
C114	C	-0.088340	-0.321733	0.590035
C115	C	0.161660	-0.071733	0.840035
C116	C	0.411660	0.178267	1.090035
C117	C	-0.338338	-0.495085	0.340040
C118	C	-0.088338	-0.245085	0.590040
C119	C	0.161662	0.004915	0.840040
C120	C	0.411662	0.254915	1.090040
C121	C	-0.338333	-0.433993	0.340047
C122	C	-0.088333	-0.183993	0.590047
C123	C	0.161667	0.066007	0.840047
C124	C	0.411667	0.316007	1.090047
C125	C	-0.520812	-0.956614	0.347514
C126	C	-0.270812	-0.706614	0.597514
C127	C	-0.020812	-0.456614	0.847514
C128	C	0.229188	-0.206614	1.097514
C129	C	-0.598878	-0.953432	0.350731
C130	C	-0.348878	-0.703432	0.600731
C131	C	-0.098878	-0.453432	0.850731
C132	C	0.151122	-0.203432	1.100731
C133	C	-0.635544	-0.995247	0.309000
C134	C	-0.385544	-0.745247	0.559000
C135	C	-0.135544	-0.495247	0.809000
C136	C	0.114456	-0.245247	1.059000
C137	C	-0.708895	-0.992259	0.312029
C138	C	-0.458895	-0.742259	0.562029
C139	C	-0.208895	-0.492259	0.812029
C140	C	0.041105	-0.242259	1.062029
C141	C	-0.745580	-0.947452	0.356786
C142	C	-0.495580	-0.697452	0.606786
C143	C	-0.245580	-0.447452	0.856786
C144	C	0.004420	-0.197452	1.106786
C145	C	-0.708909	-0.905635	0.398522
C146	C	-0.458909	-0.655635	0.648522
C147	C	-0.208909	-0.405635	0.898522
C148	C	0.041091	-0.155635	1.148522
C149	C	-0.635559	-0.908627	0.395496
C150	C	-0.385559	-0.658627	0.645496
C151	C	-0.135559	-0.408627	0.895496
C152	C	0.114441	-0.158627	1.145496
C153	C	-0.967050	-0.936253	0.368090
C154	C	-0.717050	-0.686253	0.618090
C155	C	-0.467050	-0.436253	0.868090
C156	C	-0.217050	-0.186253	1.118090
C157	C	-1.040405	-0.933263	0.371112
C158	C	-0.790405	-0.683263	0.621112
C159	C	-0.540405	-0.433263	0.871112
C160	C	-0.290405	-0.183263	1.121112
C161	C	-1.040387	-1.019888	0.284619
C162	C	-0.790387	-0.769888	0.534619
C163	C	-0.540387	-0.519888	0.784619
C164	C	-0.290387	-0.269888	1.034619
C165	C	-0.967035	-1.022873	0.281594
C166	C	-0.717035	-0.772873	0.531594
C167	C	-0.467035	-0.522873	0.781594
C168	C	-0.217035	-0.272873	1.031594
C169	C	-0.930371	-0.981059	0.323332
C170	C	-0.680371	-0.731059	0.573332
C171	C	-0.430371	-0.481059	0.823332
C172	C	-0.180371	-0.231059	1.073332
C173	C	-0.820557	-0.944395	0.359882
C174	C	-0.570557	-0.694395	0.609882
C175	C	-0.320557	-0.444395	0.859882
C176	C	-0.070557	-0.194395	1.109882
C177	C	-0.855395	-0.984120	0.320239
C178	C	-0.605395	-0.734120	0.570239
C179	C	-0.355395	-0.484120	0.820239
C180	C	-0.105395	-0.234120	1.070239
C181	C	-0.155137	-0.971826	0.332568
C182	C	0.094863	-0.721826	0.582568
C183	C	0.344863	-0.471826	0.832568
C184	C	0.594863	-0.221826	1.082568
C185	C	-0.077071	-0.975078	0.329380
C186	C	0.172929	-0.725078	0.579380
C187	C	0.422929	-0.475078	0.829380
C188	C	0.672929	-0.225078	1.079380
C189	C	-0.338287	-0.964236	0.516589
C190	C	-0.088287	-0.714236	0.766589
C191	C	0.161713	-0.464236	1.016589
C192	C	0.411713	-0.214236	1.266589
C193	C	-0.338268	-0.964253	0.591821
C194	C	-0.088268	-0.714253	0.841821
C195	C	0.161732	-0.464253	1.091821
C196	C	0.411732	-0.214253	1.341821
C197	C	-0.338338	-0.140739	0.340072
C198	C	-0.088338	0.109261	0.590072
C199	C	0.161662	0.359261	0.840072
C200	C	0.411662	0.609261	1.090072
C201	C	-0.338332	-0.215971	0.340067
C202	C	-0.088332	0.034029	0.590067
C203	C	0.161668	0.284029	0.840067
C204	C	0.411668	0.534029	1.090067
C205	C	-0.338324	-0.964198	0.164192
C206	C	-0.088324	-0.714198	0.414192
C207	C	0.161676	-0.464198	0.664192
C208	C	0.411676	-0.214198	0.914192
C209	C	-0.338145	-0.964320	0.088953
C210	C	-0.088145	-0.714320	0.338953
C211	C	0.161855	-0.464320	0.588953
C212	C	0.411855	-0.214320	0.838953
C213	C	-0.293347	-1.009415	0.625339
C214	C	-0.043347	-0.759415	0.875339
C215	C	0.206653	-0.509415	1.125339
C216	C	0.456653	-0.259415	1.375339
C217	C	-0.293326	-1.009423	0.696026
C218	C	-0.043326	-0.759423	0.946026
C219	C	0.206674	-0.509423	1.196026
C220	C	0.456674	-0.259423	1.446026
C221	C	-0.338231	-0.964271	0.733195
C222	C	-0.088231	-0.714271	0.983195
C223	C	0.161769	-0.464271	1.233195
C224	C	0.411769	-0.214271	1.483195
C225	C	-0.383154	-0.919104	0.699672
C226	C	-0.133154	-0.669104	0.949672
C227	C	0.116846	-0.419104	1.199672
C228	C	0.366846	-0.169104	1.449672
C229	C	-0.383170	-0.919093	0.628985
C230	C	-0.133170	-0.669093	0.878985
C231	C	0.116830	-0.419093	1.128985
C232	C	0.366830	-0.169093	1.378985
C233	C	-0.383089	-0.919145	0.984742
C234	C	-0.133089	-0.669145	1.234742
C235	C	0.116911	-0.419145	1.484742
C236	C	0.366911	-0.169145	1.734742
C237	C	-0.383070	-0.919160	1.055434
C238	C	-0.133070	-0.669160	1.305434
C239	C	0.116930	-0.419160	1.555434
C240	C	0.366930	-0.169160	1.805434
C241	C	-0.293245	-1.009475	1.051784
C242	C	-0.043245	-0.759475	1.301784
C243	C	0.206755	-0.509475	1.551784
C244	C	0.456755	-0.259475	1.801784
C245	C	-0.293261	-1.009464	0.981097
C246	C	-0.043261	-0.759464	1.231097
C247	C	0.206739	-0.509464	1.481097
C248	C	0.456739	-0.259464	1.731097
C249	C	-0.338181	-0.964295	0.947580
C250	C	-0.088181	-0.714295	1.197580
C251	C	0.161819	-0.464295	1.447580
C252	C	0.411819	-0.214295	1.697580
C253	C	-0.338202	-0.964286	0.870933
C254	C	-0.088202	-0.714286	1.120933
C255	C	0.161798	-0.464286	1.370933
C256	C	0.411798	-0.214286	1.620933
C257	C	-0.338215	-0.964283	0.809841
C258	C	-0.088215	-0.714283	1.059841
C259	C	0.161785	-0.464283	1.309841
C260	C	0.411785	-0.214283	1.559841
H261	H	-0.256950	-0.354194	0.415389
H262	H	-0.006950	-0.104194	0.665389
H263	H	0.243050	0.145806	0.915389
H264	H	0.493050	0.395806	1.165389
Cl265	Cl	-0.439588	-0.717942	0.246298
Cl266	Cl	-0.189588	-0.467942	0.496298
Cl267	Cl	0.060412	-0.217942	0.746298
Cl268	Cl	0.310412	0.032058	0.996298
Cl269	Cl	-0.809276	-1.040450	0.263977
Cl270	Cl	-0.559276	-0.790450	0.513977
Cl271	Cl	-0.309276	-0.540450	0.763977
Cl272	Cl	-0.059276	-0.290450	1.013977
Cl273	Cl	-0.439643	-0.862313	0.586848
Cl274	Cl	-0.189643	-0.612313	0.836848
Cl275	Cl	0.060357	-0.362313	1.086848
Cl276	Cl	0.310357	-0.112313	1.336848
Cl277	Cl	-0.236895	-1.066184	0.578620
Cl278	Cl	0.013105	-0.816184	0.828620
Cl279	Cl	0.263105	-0.566184	1.078620
Cl280	Cl	0.513105	-0.316184	1.328620
H281	H	-0.419728	-0.219116	0.264740
H282	H	-0.169728	0.030884	0.514740
H283	H	0.080272	0.280884	0.764740
H284	H	0.330272	0.530884	1.014740
H285	H	-0.256666	-1.046251	1.079081
H286	H	-0.006666	-0.796251	1.329081
H287	H	0.243334	-0.546251	1.579081
H288	H	0.493334	-0.296251	1.829081
H289	H	-0.605680	-1.031731	0.272550
H290	H	-0.355680	-0.781731	0.522550
H291	H	-0.105680	-0.531731	0.772550
H292	H	0.144320	-0.281731	1.022550
Cl293	Cl	-0.237073	-0.211142	0.433784
Cl294	Cl	0.012927	0.038858	0.683784
Cl295	Cl	0.262927	0.288858	0.933784
Cl296	Cl	0.512927	0.538858	1.183784
Cl297	Cl	-0.589465	-0.856060	0.447963
Cl298	Cl	-0.339465	-0.606060	0.697963
Cl299	Cl	-0.089465	-0.356060	0.947963
Cl300	Cl	0.160535	-0.106060	1.197963
H301	H	-0.419639	-0.882389	1.085695
H302	H	-0.169639	-0.632389	1.335695
H303	H	0.080361	-0.382389	1.585695
H304	H	0.330361	-0.132389	1.835695
H305	H	-0.256944	-0.581721	0.415361
H306	H	-0.006944	-0.331721	0.665361
H307	H	0.243056	-0.081721	0.915361
H308	H	0.493056	0.168279	1.165361
Cl309	Cl	-0.237072	-0.726451	0.433739
Cl310	Cl	0.012928	-0.476451	0.683739
Cl311	Cl	0.262928	-0.226451	0.933739
Cl312	Cl	0.512928	0.023549	1.183739
H313	H	-0.419724	-0.347362	0.264732
H314	H	-0.169724	-0.097362	0.514732
H315	H	0.080276	0.152638	0.764732
H316	H	0.330276	0.402638	1.014732
Cl317	Cl	-0.439560	-0.862361	0.942616
Cl318	Cl	-0.189560	-0.612361	1.192616
Cl319	Cl	0.060440	-0.362361	1.442616
Cl320	Cl	0.310440	-0.112361	1.692616
Cl321	Cl	-0.439604	-0.862339	0.746398
Cl322	Cl	-0.189604	-0.612339	0.996398
Cl323	Cl	0.060396	-0.362339	1.246398
Cl324	Cl	0.310396	-0.112339	1.496398
H325	H	-0.850433	-0.907911	0.396323
H326	H	-0.600433	-0.657911	0.646323
H327	H	-0.350433	-0.407911	0.896323
H328	H	-0.100433	-0.157911	1.146323
H329	H	-0.738745	-1.026309	0.278046
H330	H	-0.488745	-0.776309	0.528046
H331	H	-0.238745	-0.526309	0.778046
H332	H	0.011255	-0.276309	1.028046
H333	H	-0.256749	-1.046200	0.723314
H334	H	-0.006749	-0.796200	0.973314
H335	H	0.243251	-0.546200	1.223314
H336	H	0.493251	-0.296200	1.473314
H337	H	-1.070272	-0.896783	0.407571
H338	H	-0.820272	-0.646783	0.657571
H339	H	-0.570272	-0.396783	0.907571
H340	H	-0.320272	-0.146783	1.157571
Cl341	Cl	-0.236809	-1.066230	0.934375
Cl342	Cl	0.013191	-0.816230	1.184375
Cl343	Cl	0.263191	-0.566230	1.434375
Cl344	Cl	0.513191	-0.316230	1.684375
H345	H	-0.419727	-0.574886	0.264702
H346	H	-0.169727	-0.324886	0.514702
H347	H	0.080273	-0.074886	0.764702
H348	H	0.330273	0.175114	1.014702
H349	H	-0.738783	-0.869155	0.434968
H350	H	-0.488783	-0.619155	0.684968
H351	H	-0.238783	-0.369155	0.934968
H352	H	0.011217	-0.119155	1.184968
H353	H	-0.937168	-1.059359	0.245149
H354	H	-0.687168	-0.809359	0.495149
H355	H	-0.437168	-0.559359	0.745149
H356	H	-0.187168	-0.309359	0.995149
Cl357	Cl	-1.086483	-1.072455	0.232156
Cl358	Cl	-0.836483	-0.822455	0.482156
Cl359	Cl	-0.586483	-0.572455	0.732156
Cl360	Cl	-0.336483	-0.322455	0.982156
Cl361	Cl	-0.920967	-0.883685	0.420560
Cl362	Cl	-0.670967	-0.633685	0.670560
Cl363	Cl	-0.420967	-0.383685	0.920560
Cl364	Cl	-0.170967	-0.133685	1.170560
