data_functionalizedCrystal
_audit_creation_method	'MofGen! by Chris Wilmer'
_symmetry_space_group_name_H-M	'P1'
_symmetry_Int_Tables_number	1
_symmetry_cell_setting	triclinic
loop_
_symmetry_equiv_pos_as_xyz
  x,y,z
_cell_length_a	17.699104
_cell_length_b	6.394989
_cell_length_c	16.776229
_cell_angle_alpha	90.003593
_cell_angle_beta	89.991971
_cell_angle_gamma	95.105386
loop_
_atom_site_label
_atom_site_type_symbol
_atom_site_fract_x
_atom_site_fract_y
_atom_site_fract_z
O1	O	1.006766	-0.264339	-0.066299
O2	O	1.506766	0.235661	0.433701
O3	O	0.786740	-0.298657	-0.066297
O4	O	1.286740	0.201343	0.433703
O5	O	0.899876	0.022581	-0.066299
O6	O	1.399876	0.522581	0.433701
O7	O	0.893630	-0.585578	-0.066297
O8	O	1.393630	-0.085578	0.433703
O9	O	0.899861	0.022601	0.066278
O10	O	1.399861	0.522601	0.566278
O11	O	0.786724	-0.298638	0.066280
O12	O	1.286724	0.201362	0.566280
O13	O	1.006750	-0.264319	0.066277
O14	O	1.506750	0.235681	0.566277
Zn15	Zn	0.896735	-0.281475	0.087328
Zn16	Zn	1.396735	0.218525	0.587328
Zn17	Zn	0.896756	-0.281501	-0.087347
Zn18	Zn	1.396756	0.218499	0.412653
O19	O	0.893614	-0.585558	0.066279
O20	O	1.393614	-0.085558	0.566279
C21	C	0.758523	-0.297411	-0.000008
C22	C	1.258523	0.202589	0.499992
C23	C	0.674468	-0.293699	-0.000007
C24	C	1.174468	0.206301	0.499993
C25	C	0.151308	-0.461329	-0.000015
C26	C	0.651308	0.038671	0.499985
C27	C	0.230287	-0.464804	-0.000018
C28	C	0.730287	0.035196	0.499982
C29	C	0.276980	-0.276225	-0.000018
C30	C	0.776980	0.223775	0.499982
C31	C	0.244690	-0.084158	-0.000024
C32	C	0.744690	0.415842	0.499976
C33	C	0.165712	-0.080686	-0.000027
C34	C	0.665712	0.419314	0.499973
C35	C	0.563199	-0.098158	-0.000011
C36	C	1.063199	0.401842	0.499989
C37	C	0.642182	-0.101645	-0.000005
C38	C	1.142182	0.398355	0.499995
C39	C	0.627773	-0.482276	-0.000002
C40	C	1.127773	0.017724	0.499998
C41	C	0.548796	-0.478804	-0.000005
C42	C	1.048796	0.021196	0.499995
C43	C	0.516513	-0.286739	-0.000015
C44	C	1.016513	0.213261	0.499985
C45	C	0.430874	-0.282973	-0.000014
C46	C	0.930874	0.217027	0.499986
C47	C	0.362617	-0.279988	-0.000013
C48	C	0.862617	0.220012	0.499987
C49	C	1.034968	-0.265566	-0.000013
C50	C	1.534968	0.234434	0.499987
C51	C	1.119023	-0.269277	-0.000019
C52	C	1.619023	0.230723	0.499981
C53	C	0.898633	0.100407	-0.000013
C54	C	1.398633	0.600407	0.499987
C55	C	0.894859	0.336623	-0.000014
C56	C	1.394859	0.836623	0.499986
N57	N	0.896726	-0.281456	0.206539
N58	N	1.396726	0.218544	0.706539
N59	N	0.896770	-0.281504	-0.206559
N60	N	1.396770	0.218496	0.293441
C61	C	0.946839	-0.139270	0.248255
C62	C	1.446839	0.360730	0.748255
C63	C	0.946844	-0.139268	0.331708
C64	C	1.446844	0.360732	0.831708
C65	C	0.896738	-0.281464	0.373442
C66	C	1.396738	0.218536	0.873442
C67	C	0.846620	-0.423658	0.331720
C68	C	1.346620	0.076342	0.831720
C69	C	0.846612	-0.423648	0.248269
C70	C	1.346612	0.076352	0.748269
C71	C	0.846647	-0.423699	0.668267
C72	C	1.346647	0.076301	1.168267
C73	C	0.846660	-0.423702	0.751724
C74	C	1.346660	0.076298	1.251724
C75	C	0.946879	-0.139319	0.751705
C76	C	1.446879	0.360681	1.251705
C77	C	0.946871	-0.139309	0.668255
C78	C	1.446871	0.360691	1.168255
C79	C	0.896751	-0.281494	0.626540
C80	C	1.396751	0.218506	1.126540
C81	C	0.896746	-0.281492	0.536052
C82	C	1.396746	0.218508	1.036052
C83	C	0.896746	-0.281479	0.463929
C84	C	1.396746	0.218521	0.963929
H85	H	0.654067	-0.638665	0.000003
H86	H	1.154067	-0.138665	0.500003
Cl87	Cl	1.009843	0.039485	0.384152
Cl88	Cl	1.509843	0.539485	0.884152
Cl89	Cl	0.303390	0.152915	-0.000026
Cl90	Cl	0.803390	0.652915	0.499974
H91	H	0.805819	-0.539430	0.365705
H92	H	1.305819	-0.039430	0.865705
H93	H	0.113295	-0.614893	-0.000009
H94	H	0.613295	-0.114893	0.499991
Cl95	Cl	0.270870	-0.706252	-0.000018
Cl96	Cl	0.770870	-0.206252	0.499982
Cl97	Cl	0.490100	-0.715884	-0.000003
Cl98	Cl	0.990100	-0.215884	0.499997
Cl99	Cl	0.125126	0.160761	-0.000032
Cl100	Cl	0.625126	0.660761	0.499968
H101	H	0.680198	0.051929	-0.000008
H102	H	1.180198	0.551929	0.499992
H103	H	0.987674	-0.023527	0.634277
H104	H	1.487674	0.476473	1.134277
Cl105	Cl	1.009837	0.039493	0.195798
Cl106	Cl	1.509837	0.539493	0.695798
Cl107	Cl	0.783607	-0.602398	0.195827
Cl108	Cl	1.283607	-0.102398	0.695827
H109	H	0.987687	-0.023538	0.785679
H110	H	1.487687	0.476462	1.285679
Cl111	Cl	0.783664	-0.602474	0.804189
Cl112	Cl	1.283664	-0.102474	1.304189
H113	H	0.805839	-0.539474	0.634309
H114	H	1.305839	-0.039474	1.134309
H115	H	0.536924	0.058233	-0.000017
H116	H	1.036924	0.558233	0.499983
