data_functionalizedCrystal
_audit_creation_method	'MofGen! by Chris Wilmer'
_symmetry_space_group_name_H-M	'P1'
_symmetry_Int_Tables_number	1
_symmetry_cell_setting	triclinic
loop_
_symmetry_equiv_pos_as_xyz
  x,y,z
_cell_length_a	18.050589
_cell_length_b	18.050591
_cell_length_c	16.959447
_cell_angle_alpha	89.988920
_cell_angle_beta	89.973357
_cell_angle_gamma	90.027061
loop_
_atom_site_label
_atom_site_type_symbol
_atom_site_fract_x
_atom_site_fract_y
_atom_site_fract_z
Zn1	Zn	-0.295668	1.135296	-0.446861
Zn2	Zn	0.204332	1.635296	0.053139
Zn3	Zn	-0.419869	1.135206	-0.314690
Zn4	Zn	0.080131	1.635206	0.185310
Zn5	Zn	-0.295695	1.011114	-0.314705
Zn6	Zn	0.204305	1.511114	0.185295
Zn7	Zn	-0.419818	1.011064	-0.446837
Zn8	Zn	0.080182	1.511064	0.053163
O9	O	-0.357763	1.073170	-0.380773
O10	O	0.142237	1.573170	0.119227
O11	O	-0.312153	1.239209	-0.429332
O12	O	0.187847	1.739209	0.070668
O13	O	-0.403430	1.118728	-0.204082
O14	O	0.096570	1.618728	0.295918
O15	O	-0.191767	1.027647	-0.332252
O16	O	0.308233	1.527647	0.167748
O17	O	-0.403404	1.239143	-0.332227
O18	O	0.096596	1.739143	0.167773
O19	O	-0.191747	1.118883	-0.429346
O20	O	0.308253	1.618883	0.070654
O21	O	-0.312200	1.027559	-0.204093
O22	O	0.187800	1.527559	0.295907
O23	O	-0.312150	0.907183	-0.332229
O24	O	0.187850	1.407183	0.167771
O25	O	-0.403316	1.027560	-0.557451
O26	O	0.096684	1.527560	-0.057451
O27	O	-0.403343	0.907146	-0.429305
O28	O	0.096657	1.407146	0.070695
O29	O	-0.312104	1.118833	-0.557468
O30	O	0.187896	1.618833	-0.057468
O31	O	-0.523787	1.118679	-0.332204
O32	O	-0.023787	1.618679	0.167796
O33	O	-0.523749	1.027472	-0.429291
O34	O	-0.023749	1.527472	0.070709
C35	C	-0.357744	0.880218	-0.380767
C36	C	0.142256	1.380218	0.119233
C37	C	-0.357755	0.797672	-0.380783
C38	C	0.142245	1.297672	0.119217
C39	C	-0.407448	0.548848	-0.433501
C40	C	0.092552	1.048848	0.066499
C41	C	-0.425529	0.598217	-0.361355
C42	C	0.074471	1.098217	0.138645
C43	C	-0.357778	0.500552	-0.380781
C44	C	0.142222	1.000552	0.119219
C45	C	-0.339720	0.598264	-0.452923
C46	C	0.160280	1.098264	0.047077
C47	C	-0.357768	0.646537	-0.380786
C48	C	0.142232	1.146537	0.119214
C49	C	-0.375894	0.548834	-0.308597
C50	C	0.124106	1.048834	0.191403
C51	C	-0.290054	0.548877	-0.400214
C52	C	0.209946	1.048877	0.099786
C53	C	-0.308109	0.598224	-0.328019
C54	C	0.191891	1.098224	0.171981
C55	C	-0.357785	0.416454	-0.380780
C56	C	0.142215	0.916454	0.119220
C57	C	-0.357761	0.730633	-0.380779
C58	C	0.142239	1.230633	0.119221
C59	C	-0.550715	1.073080	-0.380760
C60	C	-0.050715	1.573080	0.119240
C61	C	-0.633261	1.073110	-0.380781
C62	C	-0.133261	1.573110	0.119219
C63	C	-0.832718	1.023561	-0.433558
C64	C	-0.332718	1.523561	0.066442
C65	C	-0.882161	1.005462	-0.361433
C66	C	-0.382161	1.505462	0.138567
C67	C	-0.784391	1.073183	-0.380791
C68	C	-0.284391	1.573183	0.119209
C69	C	-0.882029	1.091318	-0.452925
C70	C	-0.382029	1.591318	0.047075
C71	C	-0.930376	1.073252	-0.380808
C72	C	-0.430376	1.573252	0.119192
C73	C	-0.832747	1.055049	-0.308627
C74	C	-0.332747	1.555049	0.191373
C75	C	-0.832611	1.140936	-0.400169
C76	C	-0.332611	1.640936	0.099831
C77	C	-0.882032	1.122864	-0.327993
C78	C	-0.382032	1.622864	0.172007
C79	C	-0.700293	1.073141	-0.380783
C80	C	-0.200293	1.573141	0.119217
C81	C	-1.014472	1.073294	-0.380808
C82	C	-0.514472	1.573294	0.119192
C83	C	-0.164057	1.073280	-0.380804
C84	C	0.335943	1.573280	0.119196
C85	C	-0.081511	1.073327	-0.380817
C86	C	0.418489	1.573327	0.119183
C87	C	-0.357701	1.073201	-0.586942
C88	C	0.142299	1.573201	-0.086942
C89	C	-0.357675	1.073214	-0.674798
C90	C	0.142325	1.573214	-0.174798
C91	C	-0.357781	1.266876	-0.380780
C92	C	0.142219	1.766876	0.119220
C93	C	-0.357789	1.349421	-0.380783
C94	C	0.142211	1.849421	0.119217
C95	C	-0.405087	1.025781	-1.046267
C96	C	0.094913	1.525781	-0.546267
C97	C	-0.310106	1.120825	-1.046281
C98	C	0.189894	1.620825	-0.546281
C99	C	-0.310122	1.120805	-0.963735
C100	C	0.189878	1.620805	-0.463735
C101	C	-0.357622	1.073273	-0.922451
C102	C	0.142378	1.573273	-0.422451
C103	C	-0.405106	1.025761	-0.963714
C104	C	0.094894	1.525761	-0.463714
C105	C	-0.262645	1.168321	-0.922466
C106	C	0.237355	1.668321	-0.422466
C107	C	-0.262659	1.168304	-0.839915
C108	C	0.237341	1.668304	-0.339915
C109	C	-0.310155	1.120768	-0.798630
C110	C	0.189845	1.620768	-0.298630
C111	C	-0.357640	1.073254	-0.839898
C112	C	0.142360	1.573254	-0.339898
C113	C	-0.405140	1.025722	-0.798614
C114	C	0.094860	1.525722	-0.298614
C115	C	-0.452622	0.978203	-0.839880
C116	C	0.047378	1.478203	-0.339880
C117	C	-0.452602	0.978225	-0.922429
C118	C	0.047398	1.478225	-0.422429
C119	C	-0.310175	1.120746	-0.716082
C120	C	0.189825	1.620746	-0.216082
C121	C	-0.405159	1.025702	-0.716061
C122	C	0.094841	1.525702	-0.216061
C123	C	-0.357770	1.073182	-0.175407
C124	C	0.142230	1.573182	0.324593
C125	C	-0.357587	1.073313	-0.087551
C126	C	0.142413	1.573313	0.412449
H127	H	-0.449488	0.527168	-0.478026
H128	H	0.050512	1.027168	0.021974
N129	N	-0.501379	0.626940	-0.339571
N130	N	-0.001379	1.126940	0.160429
H131	H	-0.515399	0.608185	-0.285470
H132	H	-0.015399	1.108185	0.214530
H133	H	-0.538822	0.608981	-0.379468
H134	H	-0.038822	1.108981	0.120532
H135	H	-0.223978	1.207024	-0.956085
H136	H	0.276022	1.707024	-0.456085
H137	H	-0.232802	0.527186	-0.416676
H138	H	0.267198	1.027186	0.083324
H139	H	-0.223996	1.206996	-0.806323
H140	H	0.276004	1.706996	-0.306323
H141	H	-0.491262	0.939541	-0.956035
H142	H	0.008738	1.439541	-0.456035
H143	H	-0.266101	0.619766	-0.283386
H144	H	0.233899	1.119766	0.216614
N145	N	-0.910991	0.929605	-0.339732
N146	N	-0.410991	1.429605	0.160268
H147	H	-0.966939	0.930314	-0.339397
H148	H	-0.466939	1.430314	0.160603
H149	H	-0.892240	0.915585	-0.285654
H150	H	-0.392240	1.415585	0.214346
H151	H	-0.271439	1.159527	-1.079899
H152	H	0.228561	1.659527	-0.579899
N153	N	-0.258976	1.171996	-0.671573
N154	N	0.241024	1.671996	-0.171573
H155	H	-0.228886	1.202113	-0.710252
H156	H	0.271114	1.702113	-0.210252
H157	H	-0.224608	1.141781	-0.637333
H158	H	0.275392	1.641781	-0.137333
H159	H	-0.324451	0.619977	-0.513931
H160	H	0.175549	1.119977	-0.013931
N161	N	-0.396213	0.520196	-0.227765
N162	N	0.103787	1.020196	0.272235
H163	H	-0.447196	0.538581	-0.212971
H164	H	0.052804	1.038581	0.287029
H165	H	-0.358899	0.538582	-0.187951
H166	H	0.141101	1.038582	0.312049
N167	N	-0.804031	0.967900	-0.492588
N168	N	-0.304031	1.467900	0.007412
H169	H	-0.822059	0.916759	-0.477850
H170	H	-0.322059	1.416759	0.022150
H171	H	-0.748084	0.968664	-0.492496
H172	H	-0.248084	1.468664	0.007504
N173	N	-0.804200	1.034683	-0.227805
N174	N	-0.304200	1.534683	0.272195
H175	H	-0.748248	1.034761	-0.228303
H176	H	-0.248248	1.534761	0.271697
H177	H	-0.822717	0.983709	-0.213103
H178	H	-0.322717	1.483709	0.286897
H179	H	-0.443743	0.987090	-1.079870
H180	H	0.056257	1.487090	-0.579870
H181	H	-0.810831	1.198188	-0.416578
H182	H	-0.310831	1.698188	0.083422
N183	N	-0.910535	1.178489	-0.268828
N184	N	-0.410535	1.678489	0.231172
H185	H	-0.942094	1.152330	-0.228259
H186	H	-0.442094	1.652330	0.271741
H187	H	-0.941259	1.217087	-0.296894
H188	H	-0.441259	1.717087	0.203106
N189	N	-0.910712	1.111602	-0.533717
N190	N	-0.410712	1.611602	-0.033717
H191	H	-0.892774	1.074055	-0.573522
H192	H	-0.392774	1.574055	-0.073522
H193	H	-0.891909	1.162401	-0.548689
H194	H	-0.391909	1.662401	-0.048689
N195	N	-0.456379	0.974423	-0.671535
N196	N	0.043621	1.474423	-0.171535
H197	H	-0.486450	0.944323	-0.710205
H198	H	0.013550	1.444323	-0.210205
H199	H	-0.490764	1.004616	-0.637272
H200	H	0.009236	1.504616	-0.137272
H201	H	-0.491299	0.939506	-0.806256
H202	H	0.008701	1.439506	-0.306256
