data_functionalizedCrystal
_audit_creation_method	'MofGen! by Chris Wilmer'
_symmetry_space_group_name_H-M	'P1'
_symmetry_Int_Tables_number	1
_symmetry_cell_setting	triclinic
loop_
_symmetry_equiv_pos_as_xyz
  x,y,z
_cell_length_a	10.489741
_cell_length_b	14.971507
_cell_length_c	14.048226
_cell_angle_alpha	90.007568
_cell_angle_beta	90.002859
_cell_angle_gamma	84.080918
loop_
_atom_site_label
_atom_site_type_symbol
_atom_site_fract_x
_atom_site_fract_y
_atom_site_fract_z
O1	O	-0.166349	-1.187882	-0.079177
O2	O	-0.186227	-0.927598	-0.079173
O3	O	0.009378	-1.063663	-0.079178
O4	O	-0.361954	-1.051817	-0.079173
O5	O	0.009390	-1.063646	0.079144
O6	O	-0.186215	-0.927581	0.079148
O7	O	-0.166337	-1.187866	0.079144
Zn8	Zn	-0.176274	-1.057721	0.104283
Zn9	Zn	-0.176290	-1.057743	-0.104312
O10	O	-0.361942	-1.051801	0.079148
C11	C	-0.185327	-0.894260	-0.000012
C12	C	-0.182649	-0.794949	-0.000011
C13	C	-0.287342	-0.357262	-0.000013
C14	C	-0.289849	-0.450577	-0.000018
C15	C	-0.174923	-0.507142	-0.000016
C16	C	-0.057484	-0.470389	-0.000018
C17	C	-0.054979	-0.377077	-0.000020
C18	C	-0.062714	-0.664882	-0.000013
C19	C	-0.065218	-0.758202	-0.000010
C20	C	-0.297583	-0.738382	-0.000012
C21	C	-0.295078	-0.645069	-0.000013
C22	C	-0.177639	-0.608323	-0.000013
C23	C	-0.409469	-1.052704	-0.000012
C24	C	-0.551068	-1.055380	-0.000010
C25	C	-0.618215	-1.141954	-0.000019
C26	C	-0.710799	-1.101049	0.078041
C27	C	-0.710789	-1.101045	-0.078051
C28	C	-0.641787	-1.014440	0.078115
C29	C	-0.641767	-1.014448	-0.078048
C30	C	-0.734324	-0.973480	0.000032
C31	C	0.056905	-1.062760	-0.000020
C32	C	0.198504	-1.060083	-0.000027
C33	C	-0.167236	-0.221203	-0.000016
C34	C	-0.169912	-0.320515	-0.000012
N35	N	-0.176263	-1.057712	0.246644
N36	N	-0.176291	-1.057758	-0.246673
C37	C	-0.089685	-1.117981	0.296460
C38	C	-0.089685	-1.117987	0.396117
C39	C	-0.176269	-1.057728	0.445957
C40	C	-0.262851	-0.997453	0.396134
C41	C	-0.262845	-0.997443	0.296478
C42	C	-0.262860	-0.997479	0.603848
C43	C	-0.262869	-0.997489	0.703511
C44	C	-0.089700	-1.118023	0.703487
C45	C	-0.089694	-1.118013	0.603832
C46	C	-0.176278	-1.057739	0.554015
H47	H	0.032918	-0.634967	-0.000018
H48	H	0.036090	-0.516453	-0.000022
C49	C	0.005553	-1.184301	0.549010
N50	N	0.077298	-1.234228	0.507718
H51	H	-0.385472	-0.480491	-0.000028
C52	C	0.074204	-0.336656	-0.000015
N53	N	0.171508	-0.306213	-0.000014
C54	C	-0.802215	-0.877236	0.000096
N55	N	-0.853357	-0.804748	0.000151
C56	C	-0.421502	-0.582848	-0.000000
N57	N	-0.516726	-0.535983	0.000010
H58	H	-0.333343	-0.948365	0.255919
H59	H	-0.019186	-1.167062	0.436677
H60	H	-0.333373	-0.948419	0.744086
H61	H	-0.393207	-0.768305	-0.000011
C62	C	-0.550027	-1.238113	0.000086
N63	N	-0.498665	-1.310538	0.000171
C64	C	-0.752079	-1.150561	-0.167207
N65	N	-0.783171	-1.187861	-0.234357
H66	H	0.028364	-0.804256	-0.000016
H67	H	-0.333345	-0.948384	0.436719
C68	C	0.005548	-1.184322	0.758287
N69	N	0.077284	-1.234258	0.799566
C70	C	-0.752111	-1.150524	0.167201
N71	N	-0.783219	-1.187793	0.234354
H72	H	-0.611369	-0.977831	0.144182
H73	H	-0.611149	-0.977854	-0.144045
C74	C	-0.358094	-0.931164	0.549053
N75	N	-0.429823	-0.881216	0.507781
H76	H	-0.019184	-1.167055	0.255887
H77	H	-0.380928	-0.311212	-0.000007
