data_functionalizedCrystal
_audit_creation_method	'MofGen! by Chris Wilmer'
_symmetry_space_group_name_H-M	'P1'
_symmetry_Int_Tables_number	1
_symmetry_cell_setting	triclinic
loop_
_symmetry_equiv_pos_as_xyz
  x,y,z
_cell_length_a	14.908783
_cell_length_b	29.839131
_cell_length_c	14.908308
_cell_angle_alpha	93.261283
_cell_angle_beta	89.788727
_cell_angle_gamma	93.332050
loop_
_atom_site_label
_atom_site_type_symbol
_atom_site_fract_x
_atom_site_fract_y
_atom_site_fract_z
Zn1	Zn	1.345201	-0.157134	-0.587801
Zn2	Zn	1.353730	-0.227701	-0.437429
Zn3	Zn	1.203514	-0.156647	-0.428773
Zn4	Zn	1.194749	-0.236303	-0.579049
O5	O	1.274298	-0.194446	-0.508263
O6	O	1.472162	-0.163098	-0.575140
O7	O	1.341041	-0.214471	-0.310458
O8	O	1.222408	-0.093843	-0.449909
O9	O	1.478429	-0.214943	-0.464662
O10	O	1.326504	-0.094200	-0.566746
O11	O	1.230678	-0.162269	-0.304099
O12	O	1.076521	-0.170611	-0.441422
O13	O	1.207469	-0.229605	-0.706032
O14	O	1.070082	-0.229134	-0.551829
O15	O	1.318005	-0.171439	-0.712463
O16	O	1.332542	-0.291711	-0.456175
O17	O	1.215740	-0.298031	-0.560222
C18	C	1.040675	-0.200753	-0.494737
C19	C	0.940729	-0.203463	-0.488972
C20	C	0.746382	-0.154652	-0.593355
C21	C	0.652473	-0.157197	-0.587941
C22	C	0.659001	-0.211094	-0.472726
C23	C	0.752910	-0.208549	-0.478140
C24	C	0.796597	-0.180328	-0.538457
C25	C	0.890507	-0.177786	-0.543875
C26	C	0.897034	-0.231681	-0.428656
C27	C	0.803125	-0.234225	-0.423242
C28	C	1.274139	-0.311172	-0.508209
C29	C	1.274151	-0.361106	-0.508221
C30	C	1.335217	-0.667443	-0.454175
C31	C	1.335326	-0.855114	-0.454217
O32	O	1.387120	-0.876569	-0.408224
N33	N	1.274481	-0.881885	-0.508342
C34	C	1.213608	-0.861736	-0.562464
O35	O	1.161864	-0.888813	-0.608509
C36	C	1.213504	-0.674066	-0.562427
C37	C	1.274347	-0.647297	-0.508292
C38	C	1.396056	-0.640674	-0.400045
C39	C	1.396025	-0.593759	-0.400032
C40	C	1.335155	-0.573613	-0.454149
C41	C	1.274316	-0.600382	-0.508279
C42	C	1.152636	-0.653918	-0.616554
C43	C	1.152617	-0.606997	-0.616542
C44	C	1.213460	-0.580228	-0.562407
C45	C	1.213415	-0.533321	-0.562382
N46	N	1.274260	-0.506550	-0.508257
C47	C	1.335130	-0.526695	-0.454140
C48	C	1.213666	-0.960266	-0.562479
C49	C	1.213691	-1.007183	-0.562487
C50	C	1.335410	-1.000557	-0.454240
C51	C	1.335380	-0.953639	-0.454228
C52	C	1.274511	-0.933494	-0.508354
C53	C	1.335060	-0.428171	-0.454116
C54	C	1.335021	-0.381252	-0.454104
C55	C	1.213305	-0.387882	-0.562354
C56	C	1.213340	-0.434797	-0.562362
C57	C	1.274225	-0.454940	-0.508240
O58	O	1.161655	-0.511835	-0.608358
O59	O	1.386880	-0.499611	-0.408118
C60	C	1.335248	-0.714358	-0.454189
C61	C	1.274410	-0.741127	-0.508319
C62	C	1.213540	-0.720981	-0.562435
C63	C	1.274434	-0.788044	-0.508327
C64	C	1.335304	-0.808190	-0.454211
C65	C	1.396149	-0.781418	-0.400086
C66	C	1.396118	-0.734503	-0.400072
C67	C	1.152694	-0.747752	-0.616560
C68	C	1.152730	-0.794667	-0.616569
C69	C	1.213600	-0.814813	-0.562452
C70	C	1.508834	-0.188115	-0.521842
C71	C	1.608779	-0.185417	-0.527629
C72	C	1.260808	-0.201536	-0.742784
C73	C	1.255059	-0.204557	-0.842723
C74	C	1.274482	-0.077265	-0.508338
C75	C	1.274561	-0.027329	-0.508370
C76	C	1.359355	-0.149656	-1.037217
C77	C	1.353956	-0.152493	-1.131119
C78	C	1.238859	-0.213066	-1.124430
C79	C	1.244258	-0.210229	-1.030528
C80	C	1.304509	-0.178523	-0.986925
C81	C	1.309911	-0.175689	-0.893022
C82	C	1.194810	-0.236259	-0.886335
C83	C	1.189412	-0.239096	-0.980237
C84	C	1.287788	-0.187350	-0.274657
C85	C	1.293711	-0.184198	-0.174729
H86	H	0.926075	-0.154807	-0.592990
N87	N	0.793508	-0.124221	-0.658416
H88	H	0.747446	-0.108343	-0.692377
H89	H	0.834590	-0.101242	-0.624142
N90	N	0.598320	-0.129499	-0.647150
H91	H	0.610976	-0.138021	-0.712312
H92	H	0.532219	-0.135401	-0.634496
H93	H	1.164138	-1.028975	-0.606560
N94	N	1.374900	-0.141496	-0.845994
H95	H	1.418786	-0.157453	-0.809443
H96	H	1.408760	-0.123651	-0.892164
H97	H	0.767542	-0.257200	-0.374131
N98	N	1.400650	-0.352378	-0.395720
H99	H	1.390443	-0.358998	-0.330662
H100	H	1.464053	-0.359209	-0.413539
N101	N	1.087029	-0.726031	-0.674927
H102	H	1.047480	-0.706616	-0.635934
H103	H	1.121178	-0.706834	-0.718732
N104	N	1.424354	-0.115472	-0.990177
H105	H	1.390098	-0.094461	-0.949104
H106	H	1.468207	-0.131475	-0.953679
N107	N	1.413103	-0.121355	-1.185363
H108	H	1.452086	-0.100839	-1.143489
H109	H	1.452452	-0.139692	-1.226725
H110	H	1.163743	-0.371472	-0.606412
H111	H	1.445571	-0.571965	-0.355953
N112	N	0.611875	-0.241521	-0.407658
H113	H	0.544766	-0.239233	-0.412556
H114	H	0.627444	-0.273595	-0.422472
N115	N	1.173843	-0.247243	-1.171465
H116	H	1.178736	-0.244652	-1.238581
H117	H	1.188701	-0.278463	-1.155865
N118	N	0.951193	-0.259380	-0.369447
H119	H	1.017313	-0.253488	-0.382029
H120	H	0.938468	-0.250846	-0.304307
N121	N	1.400727	-0.449893	-0.395744
H122	H	1.439257	-0.425810	-0.361454
H123	H	1.366568	-0.469115	-0.351989
H124	H	1.445629	-0.657071	-0.355977
H125	H	1.384924	-0.931846	-0.410147
N126	N	1.124412	-0.273283	-1.027267
H127	H	1.129307	-0.270697	-1.094385
H128	H	1.139291	-0.304498	-1.011654
N129	N	1.135638	-0.267400	-0.832108
H130	H	1.174383	-0.286059	-0.795252
H131	H	1.096238	-0.249064	-0.790800
N132	N	1.401062	-1.022290	-0.395868
H133	H	1.391839	-1.056073	-0.404092
H134	H	1.464457	-1.012746	-0.413635
N135	N	1.148006	-0.938541	-0.620856
H136	H	1.109467	-0.962624	-0.655137
H137	H	1.108518	-0.919120	-0.581810
N138	N	1.086966	-0.585270	-0.674924
H139	H	1.048431	-0.609350	-0.709216
H140	H	1.047474	-0.565849	-0.635882
N141	N	1.147710	-0.463673	-0.620738
H142	H	1.109143	-0.443789	-0.655015
H143	H	1.181898	-0.483379	-0.664504
H144	H	1.445663	-0.712711	-0.355991
N145	N	1.461796	-0.803151	-0.341708
H146	H	1.452574	-0.836935	-0.349935
H147	H	1.525193	-0.793607	-0.359467
H148	H	1.103087	-0.675706	-0.660632
H149	H	1.103176	-0.816459	-0.660651
