data_functionalizedCrystal
_audit_creation_method	'MofGen! by Chris Wilmer'
_symmetry_space_group_name_H-M	'P1'
_symmetry_Int_Tables_number	1
_symmetry_cell_setting	triclinic
loop_
_symmetry_equiv_pos_as_xyz
  x,y,z
_cell_length_a	8.597213
_cell_length_b	8.559649
_cell_length_c	7.088929
_cell_angle_alpha	84.655815
_cell_angle_beta	88.663806
_cell_angle_gamma	77.624681
loop_
_atom_site_label
_atom_site_type_symbol
_atom_site_fract_x
_atom_site_fract_y
_atom_site_fract_z
O1	O	1.998338	0.287610	-0.488143
O2	O	2.498338	0.787610	0.011857
O3	O	1.547628	0.298332	-0.413905
O4	O	2.047628	0.798332	0.086095
O5	O	1.812691	0.061665	-0.457563
O6	O	2.312691	0.561665	0.042437
O7	O	1.733275	0.524277	-0.444486
O8	O	2.233275	1.024277	0.055514
O9	O	1.848123	0.029963	-0.145423
O10	O	2.348123	0.529963	0.354577
O11	O	1.583060	0.266630	-0.101766
O12	O	2.083060	0.766630	0.398234
O13	O	2.033770	0.255908	-0.176004
O14	O	2.533770	0.755908	0.323996
Cu15	Cu	1.811650	0.258375	-0.110384
Cu16	Cu	2.311650	0.758375	0.389616
Cu17	Cu	1.769748	0.295866	-0.479525
Cu18	Cu	2.269748	0.795866	0.020475
O19	O	1.768707	0.492575	-0.132346
O20	O	2.268707	0.992575	0.367654
C21	C	1.508177	0.279564	-0.248419
C22	C	2.008177	0.779564	0.251581
C23	C	1.337840	0.270852	-0.220363
C24	C	1.837840	0.770852	0.279637
C25	C	1.836425	-0.013519	-0.302488
C26	C	2.336425	0.486481	0.197512
C27	C	1.854338	-0.190313	-0.305449
C28	C	2.354338	0.309687	0.194551
C29	C	2.073220	0.274677	-0.341493
C30	C	2.573220	0.774677	0.158507
C31	C	2.243555	0.283390	-0.369562
C32	C	2.743555	0.783390	0.130438
C33	C	1.744972	0.567760	-0.287425
C34	C	2.244972	1.067760	0.212575
C35	C	1.727058	0.744555	-0.284476
C36	C	2.227058	1.244555	0.215524
N37	N	1.841133	0.232005	0.149248
N38	N	2.341133	0.732005	0.649248
N39	N	1.740278	0.322224	-0.739159
N40	N	2.240278	0.822224	-0.239159
H41	H	1.293144	0.300802	-0.518754
H42	H	1.793144	0.800802	-0.018754
H43	H	1.604382	-0.175952	-0.264264
H44	H	2.104382	0.324048	0.235736
H45	H	1.288241	0.253458	-0.071160
H46	H	1.788241	0.753458	0.428840
O47	O	2.016859	-0.295602	-0.332205
O48	O	2.516859	0.204398	0.167795
H49	H	2.005906	-0.422601	-0.330399
H50	H	2.505906	0.077399	0.169601
O51	O	1.979614	0.108161	0.234571
O52	O	2.479614	0.608161	0.734571
H53	H	1.934046	0.019714	0.333284
H54	H	2.434046	0.519714	0.833284
H55	H	1.635755	0.415717	0.196410
H56	H	2.135755	0.915717	0.696410
