data_functionalizedCrystal
_audit_creation_method	'MofGen! by Chris Wilmer'
_symmetry_space_group_name_H-M	'P1'
_symmetry_Int_Tables_number	1
_symmetry_cell_setting	triclinic
loop_
_symmetry_equiv_pos_as_xyz
  x,y,z
_cell_length_a	18.215407
_cell_length_b	15.297327
_cell_length_c	18.215399
_cell_angle_alpha	80.351692
_cell_angle_beta	90.019833
_cell_angle_gamma	99.707397
loop_
_atom_site_label
_atom_site_type_symbol
_atom_site_fract_x
_atom_site_fract_y
_atom_site_fract_z
Zn1	Zn	1.074360	-0.359166	0.466794
Zn2	Zn	1.407693	-0.025833	0.800127
Zn3	Zn	1.741026	0.307501	1.133461
Zn4	Zn	1.052966	-0.510038	0.365016
Zn5	Zn	1.386299	-0.176705	0.698349
Zn6	Zn	1.719632	0.156629	1.031683
Zn7	Zn	0.951288	-0.359195	0.343746
Zn8	Zn	1.284621	-0.025862	0.677079
Zn9	Zn	1.617955	0.307471	1.010412
Zn10	Zn	0.929963	-0.509988	0.488034
Zn11	Zn	1.263296	-0.176655	0.821367
Zn12	Zn	1.596629	0.156679	1.154700
O13	O	1.002144	-0.434597	0.415897
O14	O	1.335477	-0.101263	0.749231
O15	O	1.668811	0.232070	1.082564
O16	O	1.174505	-0.379188	0.453306
O17	O	1.507838	-0.045855	0.786639
O18	O	1.841171	0.287479	1.119973
O19	O	1.039449	-0.490062	0.259215
O20	O	1.372782	-0.156729	0.592548
O21	O	1.706116	0.176605	0.925881
O22	O	0.985492	-0.232944	0.342278
O23	O	1.318825	0.100390	0.675611
O24	O	1.652158	0.433723	1.008944
O25	O	1.158787	-0.490033	0.378530
O26	O	1.492120	-0.156700	0.711863
O27	O	1.825453	0.176633	1.045196
O28	O	1.075912	-0.232922	0.432681
O29	O	1.409245	0.100411	0.766014
O30	O	1.742579	0.433745	1.099348
O31	O	0.964747	-0.379238	0.243588
O32	O	1.298080	-0.045905	0.576921
O33	O	1.631414	0.287428	0.910254
O34	O	0.845476	-0.379190	0.362873
O35	O	1.178809	-0.045856	0.696206
O36	O	1.512143	0.287477	1.029540
O37	O	0.949146	-0.489948	0.588196
O38	O	1.282479	-0.156614	0.921529
O39	O	1.615813	0.176719	1.254863
O40	O	0.829808	-0.489976	0.468881
O41	O	1.163142	-0.156643	0.802214
O42	O	1.496475	0.176690	1.135547
O43	O	1.055234	-0.379139	0.572591
O44	O	1.388567	-0.045806	0.905925
O45	O	1.721900	0.287527	1.239258
O46	O	1.018771	-0.636279	0.399125
O47	O	1.352104	-0.302946	0.732458
O48	O	1.685437	0.030388	1.065792
O49	O	0.928401	-0.636242	0.489506
O50	O	1.261734	-0.302909	0.822839
O51	O	1.595068	0.030424	1.156172
C52	C	0.810940	-0.434581	0.415874
C53	C	1.144273	-0.101248	0.749207
C54	C	1.477606	0.232085	1.082541
C55	C	0.729139	-0.434597	0.415885
C56	C	1.062472	-0.101263	0.749218
C57	C	1.395805	0.232070	1.082551
C58	C	0.968970	-0.668995	0.448944
C59	C	1.302304	-0.335662	0.782278
C60	C	1.635637	-0.002329	1.115611
C61	C	0.954846	-0.769272	0.463106
C62	C	1.288179	-0.435939	0.796440
C63	C	1.621512	-0.102605	1.129773
C64	C	0.532793	-0.492374	0.471037
C65	C	0.866127	-0.159040	0.804370
C66	C	1.199460	0.174293	1.137703
C67	C	0.455934	-0.492377	0.471046
C68	C	0.789267	-0.159043	0.804380
C69	C	1.122601	0.174290	1.137713
C70	C	0.472244	-0.376836	0.360776
C71	C	0.805578	-0.043503	0.694110
C72	C	1.138911	0.289830	1.027443
C73	C	0.549103	-0.376830	0.360771
C74	C	0.882436	-0.043496	0.694104
C75	C	1.215769	0.289837	1.027437
C76	C	0.579374	-0.434603	0.415900
C77	C	0.912708	-0.101270	0.749234
C78	C	1.246041	0.232063	1.082567
C79	C	0.425657	-0.434613	0.415916
C80	C	0.758990	-0.101280	0.749249
C81	C	1.092324	0.232054	1.082582
C82	C	0.342323	-0.434616	0.415926
C83	C	0.675656	-0.101282	0.749259
C84	C	1.008990	0.232051	1.082592
C85	C	0.662714	-0.434600	0.415891
C86	C	0.996047	-0.101267	0.749225
C87	C	1.329380	0.232067	1.082558
C88	C	1.103397	-1.051887	0.314929
C89	C	1.436730	-0.718553	0.648262
C90	C	1.770064	-0.385220	0.981596
C91	C	1.116667	-0.957672	0.301619
C92	C	1.450001	-0.624338	0.634952
C93	C	1.783334	-0.291005	0.968286
C94	C	1.076213	-0.910567	0.341990
C95	C	1.409547	-0.577234	0.675323
C96	C	1.742880	-0.243901	1.008657
C97	C	1.022486	-0.957687	0.395673
C98	C	1.355820	-0.624353	0.729006
C99	C	1.689153	-0.291020	1.062339
C100	C	1.009211	-1.051911	0.408980
C101	C	1.342544	-0.718578	0.742313
C102	C	1.675877	-0.385244	1.075646
C103	C	0.982027	-0.910591	0.436041
C104	C	1.315360	-0.577258	0.769374
C105	C	1.648694	-0.243925	1.102707
C106	C	0.928300	-0.957711	0.489723
C107	C	1.261633	-0.624378	0.823057
C108	C	1.594967	-0.291044	1.156390
C109	C	0.915027	-1.051926	0.503028
C110	C	1.248360	-0.718593	0.836362
C111	C	1.581694	-0.385259	1.169695
C112	C	0.955481	-1.099031	0.462658
C113	C	1.288814	-0.765697	0.795991
C114	C	1.622148	-0.432364	1.129324
C115	C	0.995303	-0.816367	0.422734
C116	C	1.328636	-0.483034	0.756067
C117	C	1.661969	-0.149701	1.089400
C118	C	0.901116	-0.816392	0.516784
C119	C	1.234450	-0.483058	0.850118
C120	C	1.567783	-0.149725	1.183451
C121	C	0.887846	-0.910606	0.530094
C122	C	1.221179	-0.577273	0.863427
C123	C	1.554513	-0.243940	1.196761
C124	C	1.194095	-0.434613	0.415921
C125	C	1.527428	-0.101280	0.749255
C126	C	1.860761	0.232054	1.082588
C127	C	1.275892	-0.434620	0.415931
C128	C	1.609226	-0.101287	0.749265
C129	C	1.942559	0.232047	1.082598
C130	C	1.002198	-0.434535	0.607842
C131	C	1.335531	-0.101201	0.941175
C132	C	1.668864	0.232132	1.274508
C133	C	1.002220	-0.434508	0.689637
C134	C	1.335554	-0.101175	1.022970
C135	C	1.668887	0.232159	1.356303
C136	C	1.035467	-0.199283	0.382738
C137	C	1.368800	0.134050	0.716071
C138	C	1.702134	0.467384	1.049404
C139	C	1.049667	-0.099006	0.368607
C140	C	1.383001	0.234327	0.701940
C141	C	1.716334	0.567660	1.035273
C142	C	1.002142	-0.434594	0.224691
C143	C	1.335475	-0.101260	0.558024
C144	C	1.668809	0.232073	0.891357
C145	C	1.002298	-0.434366	0.142860
C146	C	1.335631	-0.101033	0.476193
C147	C	1.668964	0.232301	0.809527
C148	C	1.057485	-0.376756	0.869699
C149	C	1.390818	-0.043423	1.203032
C150	C	1.724151	0.289910	1.536366
C151	C	1.057497	-0.376730	0.946554
C152	C	1.390831	-0.043397	1.279887
C153	C	1.724164	0.289937	1.613221
C154	C	0.947028	-0.492120	0.962793
C155	C	1.280361	-0.158787	1.296126
C156	C	1.613694	0.174546	1.629459
C157	C	0.947013	-0.492141	0.885938
C158	C	1.280346	-0.158808	1.219272
C159	C	1.613679	0.174525	1.552605
C160	C	1.002245	-0.434461	0.839394
C161	C	1.335579	-0.101127	1.172727
C162	C	1.668912	0.232206	1.506060
C163	C	1.002273	-0.434413	0.993103
C164	C	1.335606	-0.101080	1.326436
C165	C	1.668939	0.232253	1.659770
C166	C	1.002286	-0.434385	1.076433
C167	C	1.335619	-0.101052	1.409766
C168	C	1.668953	0.232281	1.743100
C169	C	1.002232	-0.434487	0.756058
C170	C	1.335565	-0.101154	1.089392
C171	C	1.668898	0.232179	1.422725
H172	H	0.557438	-0.539415	0.515928
H173	H	0.890771	-0.206081	0.849262
H174	H	1.224105	0.127252	1.182595
H175	H	0.418010	-0.539418	0.515945
H176	H	0.751344	-0.206084	0.849278
H177	H	1.084677	0.127249	1.182611
H178	H	0.447587	-0.329800	0.315891
H179	H	0.780921	0.003533	0.649224
H180	H	1.114254	0.336867	0.982558
H181	H	1.136324	-1.090248	0.282060
H182	H	1.469658	-0.756915	0.615394
H183	H	1.802991	-0.423581	0.948727
H184	H	0.902061	-0.539084	1.000699
H185	H	1.235394	-0.205751	1.334032
H186	H	1.568727	0.127583	1.667365
H187	H	0.902025	-0.539131	0.861264
H188	H	1.235358	-0.205797	1.194597
H189	H	1.568692	0.127536	1.527930
F190	F	0.598682	-0.315334	0.302087
F191	F	0.932015	0.017999	0.635420
F192	F	1.265348	0.351332	0.968754
F193	F	1.116267	-0.315365	0.820165
F194	F	1.449600	0.017968	1.153498
F195	F	1.782933	0.351302	1.486831
H196	H	1.039047	-0.778011	0.379024
H197	H	1.372381	-0.444678	0.712358
H198	H	1.705714	-0.111344	1.045691
H199	H	1.087021	-0.833853	0.331149
H200	H	1.420354	-0.500520	0.664482
H201	H	1.753687	-0.167187	0.997816
H202	H	1.160411	-0.919310	0.257910
H203	H	1.493744	-0.585977	0.591244
H204	H	1.827077	-0.252644	0.924577
H205	H	0.944681	-1.175748	0.473493
H206	H	1.278014	-0.842415	0.806827
H207	H	1.611348	-0.509081	1.140160
H208	H	0.871270	-1.090288	0.546732
H209	H	1.204604	-0.756955	0.880065
H210	H	1.537937	-0.423621	1.213398
F211	F	1.116295	-0.315319	0.978804
F212	F	1.449628	0.018015	1.312138
F213	F	1.782962	0.351348	1.645471
F214	F	0.830667	-0.960766	0.587226
F215	F	1.164000	-0.627432	0.920559
F216	F	1.497334	-0.294099	1.253892
F217	F	0.858055	-0.766264	0.559749
F218	F	1.191388	-0.432931	0.893082
F219	F	1.524722	-0.099598	1.226416
