data_functionalizedCrystal
_audit_creation_method	'MofGen! by Chris Wilmer'
_symmetry_space_group_name_H-M	'P1'
_symmetry_Int_Tables_number	1
_symmetry_cell_setting	triclinic
loop_
_symmetry_equiv_pos_as_xyz
  x,y,z
_cell_length_a	18.050589
_cell_length_b	13.897449
_cell_length_c	13.897441
_cell_angle_alpha	89.977141
_cell_angle_beta	90.027873
_cell_angle_gamma	89.971946
loop_
_atom_site_label
_atom_site_type_symbol
_atom_site_fract_x
_atom_site_fract_y
_atom_site_fract_z
Zn1	Zn	-0.295639	-1.474632	0.545454
Zn2	Zn	0.204361	-0.974632	1.045454
Zn3	Zn	-0.419843	-1.474496	0.384163
Zn4	Zn	0.080157	-0.974496	0.884163
Zn5	Zn	-0.295671	-1.313321	0.384166
Zn6	Zn	0.204329	-0.813321	0.884166
Zn7	Zn	-0.419791	-1.313273	0.545410
Zn8	Zn	0.080209	-0.813273	1.045410
O9	O	-0.357736	-1.393931	0.464798
O10	O	0.142264	-0.893931	0.964798
O11	O	-0.312123	-1.609596	0.524076
O12	O	0.187877	-1.109596	1.024076
O13	O	-0.403407	-1.453079	0.249182
O14	O	0.096593	-0.953079	0.749182
O15	O	-0.191742	-1.334796	0.405582
O16	O	0.308258	-0.834796	0.905582
O17	O	-0.403376	-1.609496	0.405576
O18	O	0.096624	-1.109496	0.905576
O19	O	-0.191719	-1.453311	0.524079
O20	O	0.308281	-0.953311	1.024079
O21	O	-0.312178	-1.334665	0.249184
O22	O	0.187822	-0.834665	0.749184
O23	O	-0.312128	-1.178333	0.405539
O24	O	0.187872	-0.678333	0.905539
O25	O	-0.403287	-1.334715	0.680397
O26	O	0.096713	-0.834715	1.180397
O27	O	-0.403318	-1.178298	0.524003
O28	O	0.096682	-0.678298	1.024003
O29	O	-0.312073	-1.453264	0.680430
O30	O	0.187927	-0.953264	1.180430
O31	O	-0.523761	-1.453033	0.405533
O32	O	-0.023761	-0.953033	0.905533
O33	O	-0.523723	-1.334583	0.524000
O34	O	-0.023723	-0.834583	1.024000
C35	C	-0.357721	-1.143316	0.464767
C36	C	0.142279	-0.643316	0.964767
C37	C	-0.357733	-1.036102	0.464777
C38	C	0.142267	-0.536102	0.964777
C39	C	-0.357732	-0.839807	0.464795
C40	C	0.142268	-0.339807	0.964795
C41	C	-0.357730	-0.949040	0.464782
C42	C	0.142270	-0.449040	0.964782
C43	C	-0.550688	-1.393814	0.464782
C44	C	-0.050688	-0.893814	0.964782
C45	C	-0.633234	-1.393853	0.464808
C46	C	-0.133234	-0.893853	0.964808
C47	C	-0.832691	-1.329503	0.529208
C48	C	-0.332691	-0.829503	1.029208
C49	C	-0.882136	-1.305986	0.441188
C50	C	-0.382136	-0.805986	0.941188
C51	C	-0.784365	-1.393947	0.464820
C52	C	-0.284365	-0.893947	0.964820
C53	C	-0.882001	-1.417512	0.552850
C54	C	-0.382001	-0.917512	1.052850
C55	C	-0.930350	-1.394037	0.464840
C56	C	-0.430350	-0.894037	0.964840
C57	C	-0.832723	-1.370384	0.376754
C58	C	-0.332723	-0.870384	0.876754
C59	C	-0.832583	-1.481951	0.488475
C60	C	-0.332583	-0.981951	0.988475
C61	C	-0.882006	-1.458467	0.400395
C62	C	-0.382006	-0.958467	0.900395
C63	C	-0.700266	-1.393893	0.464810
C64	C	-0.200266	-0.893893	0.964810
C65	C	-1.014446	-1.394092	0.464841
C66	C	-0.514446	-0.894092	0.964841
C67	C	-0.164031	-1.394074	0.464836
C68	C	0.335969	-0.894074	0.964836
C69	C	-0.081485	-1.394135	0.464851
C70	C	0.418515	-0.894135	0.964851
C71	C	-0.357671	-1.393999	0.716392
C72	C	0.142329	-0.893999	1.216392
C73	C	-0.357643	-1.394028	0.823606
C74	C	0.142357	-0.894028	1.323606
C75	C	-0.357747	-0.645524	0.464821
C76	C	0.142253	-0.145524	0.964821
C77	C	-0.357739	-0.752738	0.464807
C78	C	0.142261	-0.252738	0.964807
C79	C	-0.357748	-1.393918	0.214184
C80	C	0.142252	-0.893918	0.714184
C81	C	-0.357567	-1.394076	0.106971
C82	C	0.142433	-0.894076	0.606971
C83	C	-0.357592	-1.394055	1.019901
C84	C	0.142408	-0.894055	1.519901
C85	C	-0.357622	-1.394037	0.910668
C86	C	0.142378	-0.894037	1.410668
H87	H	-0.903919	-1.231606	0.421199
H88	H	-0.403919	-0.731606	0.921199
O89	O	-0.806717	-1.570709	0.512427
O90	O	-0.306717	-1.070709	1.012427
C91	C	-0.866938	-1.632826	0.530062
C92	C	-0.366938	-1.132826	1.030062
H93	H	-0.917845	-1.588542	0.549978
H94	H	-0.417845	-1.088542	1.049978
H95	H	-0.879122	-1.676709	0.462599
H96	H	-0.379122	-1.176709	0.962599
C97	C	-0.784971	-1.755612	0.589093
C98	C	-0.284971	-1.255612	1.089093
C99	C	-0.847494	-1.701222	0.613562
C100	C	-0.347494	-1.201222	1.113562
H101	H	-0.772976	-1.797805	0.640596
H102	H	-0.272976	-1.297805	1.140596
H103	H	-0.744398	-1.713765	0.577209
H104	H	-0.244398	-1.213765	1.077209
H105	H	-0.795132	-1.792172	0.532872
H106	H	-0.295132	-1.292172	1.032872
H107	H	-0.837328	-1.664654	0.669774
H108	H	-0.337328	-1.164654	1.169774
H109	H	-0.888064	-1.743065	0.625458
H110	H	-0.388064	-1.243065	1.125458
O111	O	-0.806886	-1.264266	0.593966
O112	O	-0.306886	-0.764266	1.093966
C113	C	-0.832156	-1.171627	0.568682
C114	C	-0.332156	-0.671627	1.068682
H115	H	-0.846047	-1.169860	0.488672
H116	H	-0.346047	-0.669860	0.988672
H117	H	-0.883832	-1.153548	0.612214
H118	H	-0.383832	-0.653548	1.112214
C119	C	-0.754124	-1.099415	0.688606
C120	C	-0.254124	-0.599415	1.188606
C121	C	-0.771180	-1.097242	0.590335
C122	C	-0.271180	-0.597242	1.090335
H123	H	-0.716514	-1.053529	0.701966
H124	H	-0.216514	-0.553529	1.201966
H125	H	-0.737101	-1.161827	0.705643
H126	H	-0.237101	-0.661827	1.205643
H127	H	-0.797193	-1.084352	0.724871
H128	H	-0.297193	-0.584352	1.224871
H129	H	-0.728114	-1.112317	0.554072
H130	H	-0.228114	-0.612317	1.054072
H131	H	-0.788194	-1.034830	0.573291
H132	H	-0.288194	-0.534830	1.073291
O133	O	-0.806888	-1.346516	0.287993
O134	O	-0.306888	-0.846516	0.787993
C135	C	-0.728782	-1.346740	0.289059
C136	C	-0.228782	-0.846740	0.789059
H137	H	-0.708310	-1.335959	0.365912
H138	H	-0.208310	-0.835959	0.865912
H139	H	-0.707596	-1.418535	0.260473
H140	H	-0.207596	-0.918535	0.760473
C141	C	-0.724879	-1.277807	0.130627
C142	C	-0.224879	-0.777807	0.630627
C143	C	-0.699735	-1.264557	0.225019
C144	C	-0.199735	-0.764557	0.725019
H145	H	-0.706960	-1.227116	0.091121
H146	H	-0.206960	-0.727116	0.591121
H147	H	-0.777500	-1.277659	0.129907
H148	H	-0.277500	-0.777659	0.629907
H149	H	-0.707222	-1.337639	0.106819
H150	H	-0.207222	-0.837639	0.606819
H151	H	-0.717400	-1.204732	0.248829
H152	H	-0.217400	-0.704732	0.748829
H153	H	-0.647116	-1.264693	0.225741
H154	H	-0.147116	-0.764693	0.725741
H155	H	-0.903523	-1.513005	0.345891
H156	H	-0.403523	-1.013005	0.845891
O157	O	-0.907738	-1.441140	0.641723
O158	O	-0.407738	-0.941140	1.141723
C159	C	-0.882626	-1.372942	0.709357
C160	C	-0.382626	-0.872942	1.209357
H161	H	-0.830666	-1.336182	0.680734
H162	H	-0.330666	-0.836182	1.180734
H163	H	-0.927650	-1.316787	0.721926
H164	H	-0.427650	-0.816787	1.221926
C165	C	-0.928383	-1.469110	0.840074
C166	C	-0.428383	-0.969110	1.340074
C167	C	-0.864561	-1.423967	0.804923
C168	C	-0.364561	-0.923967	1.304923
H169	H	-0.917243	-1.500582	0.899026
H170	H	-0.417243	-1.000582	1.399026
H171	H	-0.945304	-1.515055	0.794509
H172	H	-0.445304	-1.015055	1.294509
H173	H	-0.965897	-1.422305	0.850541
H174	H	-0.465897	-0.922305	1.350541
H175	H	-0.827052	-1.470772	0.794445
H176	H	-0.327052	-0.970772	1.294445
H177	H	-0.847634	-1.378030	0.850489
H178	H	-0.347634	-0.878030	1.350489
