data_functionalizedCrystal
_audit_creation_method	'MofGen! by Chris Wilmer'
_symmetry_space_group_name_H-M	'P1'
_symmetry_Int_Tables_number	1
_symmetry_cell_setting	triclinic
loop_
_symmetry_equiv_pos_as_xyz
  x,y,z
_cell_length_a	14.971486
_cell_length_b	10.654550
_cell_length_c	14.048226
_cell_angle_alpha	89.994756
_cell_angle_beta	89.998499
_cell_angle_gamma	84.049516
loop_
_atom_site_label
_atom_site_type_symbol
_atom_site_fract_x
_atom_site_fract_y
_atom_site_fract_z
O1	O	1.187838	0.163659	-0.079049
O2	O	1.687838	0.663659	0.420951
O3	O	0.927544	0.183257	-0.079074
O4	O	1.427544	0.683257	0.420926
O5	O	1.063675	-0.009345	-0.079057
O6	O	1.563675	0.490655	0.420943
O7	O	1.051706	0.356262	-0.079066
O8	O	1.551706	0.856262	0.420934
O9	O	1.063659	-0.009357	0.079264
O10	O	1.563659	0.490643	0.579264
O11	O	0.927527	0.183246	0.079247
O12	O	1.427527	0.683246	0.579247
O13	O	1.187821	0.163648	0.079273
O14	O	1.687821	0.663648	0.579273
Zn15	Zn	1.057672	0.173445	0.104397
Zn16	Zn	1.557672	0.673445	0.604397
Zn17	Zn	1.057693	0.173460	-0.104198
Zn18	Zn	1.557693	0.673460	0.395802
O19	O	1.051690	0.356250	0.079256
O20	O	1.551690	0.856250	0.579256
C21	C	0.894206	0.182375	0.000083
C22	C	1.394206	0.682375	0.500083
C23	C	0.794895	0.179749	0.000073
C24	C	1.294895	0.679749	0.500073
C25	C	0.738285	0.292898	0.000072
C26	C	1.238285	0.792898	0.500072
C27	C	0.644972	0.290422	0.000086
C28	C	1.144972	0.790422	0.500086
C29	C	0.608271	0.174797	0.000095
C30	C	1.108271	0.674797	0.500095
C31	C	0.664888	0.061639	0.000099
C32	C	1.164888	0.561639	0.500099
C33	C	0.758199	0.064116	0.000092
C34	C	1.258199	0.564116	0.500092
C35	C	0.470397	0.056485	0.000112
C36	C	0.970397	0.556485	0.500112
C37	C	0.377080	0.054007	0.000118
C38	C	0.877080	0.554007	0.500118
C39	C	0.357171	0.282791	0.000107
C40	C	0.857171	0.782791	0.500107
C41	C	0.450482	0.285268	0.000100
C42	C	0.950482	0.785268	0.500100
C43	C	0.507092	0.172110	0.000102
C44	C	1.007092	0.672110	0.500102
C45	C	1.062788	-0.056139	0.000102
C46	C	1.562788	0.443861	0.500102
C47	C	1.060159	-0.195555	0.000099
C48	C	1.560159	0.304445	0.500099
C49	C	1.140311	-0.275900	0.000109
C50	C	1.640311	0.224100	0.500109
C51	C	1.137835	-0.406894	0.000102
C52	C	1.637835	0.093106	0.500102
C53	C	0.975048	-0.377185	0.000078
C54	C	1.475048	0.122815	0.500078
C55	C	0.977525	-0.246193	0.000078
C56	C	1.477525	0.253807	0.500078
C57	C	1.234295	-0.293054	0.000128
C58	C	1.734295	0.206946	0.500128
C59	C	1.231819	-0.424048	0.000121
C60	C	1.731819	0.075952	0.500121
C61	C	1.221159	0.164530	0.000113
C62	C	1.721159	0.664530	0.500113
C63	C	1.320470	0.167156	0.000117
C64	C	1.820470	0.667156	0.500117
C65	C	1.052577	0.403044	0.000094
C66	C	1.552577	0.903044	0.500094
C67	C	1.055206	0.542460	0.000092
C68	C	1.555206	1.042460	0.500092
N69	N	1.057663	0.173434	0.246758
N70	N	1.557663	0.673434	0.746758
N71	N	1.057709	0.173461	-0.246559
N72	N	1.557709	0.673461	0.253441
C73	C	1.117962	0.088185	0.296583
C74	C	1.617962	0.588185	0.796583
C75	C	1.117968	0.088184	0.396241
C76	C	1.617968	0.588184	0.896241
C77	C	1.057679	0.173440	0.446071
C78	C	1.557679	0.673440	0.946071
C79	C	0.997374	0.258693	0.396238
C80	C	1.497374	0.758693	0.896238
C81	C	0.997365	0.258687	0.296583
C82	C	1.497365	0.758687	0.796583
C83	C	0.997400	0.258702	0.603953
C84	C	1.497400	0.758702	1.103953
C85	C	0.997411	0.258710	0.703615
C86	C	1.497411	0.758710	1.203615
C87	C	1.118003	0.088200	0.703611
C88	C	1.618003	0.588200	1.203611
C89	C	1.117993	0.088193	0.603955
C90	C	1.617993	0.588193	1.103955
C91	C	1.057690	0.173448	0.554129
C92	C	1.557690	0.673448	1.054129
H93	H	0.347201	-0.040145	0.000126
H94	H	0.847201	0.459855	0.500126
H95	H	1.167089	0.018778	0.563383
H96	H	1.667089	0.518778	1.063383
Cl97	Cl	0.921554	0.365858	0.233946
Cl98	Cl	1.421554	0.865858	0.733946
Cl99	Cl	1.193813	-0.018974	0.766252
Cl100	Cl	1.693813	0.481026	1.266252
Cl101	Cl	0.573809	0.432673	0.000079
Cl102	Cl	1.073809	0.932673	0.500079
Cl103	Cl	0.784414	0.438264	0.000055
Cl104	Cl	1.284414	0.938264	0.500055
Cl105	Cl	0.921613	0.365891	0.766252
Cl106	Cl	1.421613	0.865891	1.266252
H107	H	0.480361	0.379420	0.000084
H108	H	0.980361	0.879420	0.500084
Cl109	Cl	0.618749	-0.083720	0.000116
Cl110	Cl	1.118749	0.416280	0.500116
Cl111	Cl	1.291058	-0.248318	-0.102153
Cl112	Cl	1.791058	0.251682	0.397847
H113	H	1.260229	-0.469991	-0.068235
H114	H	1.760229	0.030009	0.431765
Cl115	Cl	0.541564	-0.085774	0.000117
Cl116	Cl	1.041564	0.414226	0.500117
H117	H	0.311074	0.374929	0.000109
H118	H	0.811074	0.874929	0.500109
Cl119	Cl	0.829366	-0.078135	0.000097
Cl120	Cl	1.329366	0.421865	0.500097
H121	H	1.167066	0.018767	0.436808
H122	H	1.667066	0.518767	0.936808
Cl123	Cl	0.871171	-0.440854	0.000050
Cl124	Cl	1.371171	0.059146	0.500050
H125	H	0.948291	0.328122	0.563388
H126	H	1.448291	0.828122	1.063388
H127	H	0.912257	-0.180779	0.000056
H128	H	1.412257	0.319221	0.500056
Cl129	Cl	1.280475	-0.238539	0.105679
Cl130	Cl	1.780475	0.261461	0.605679
H131	H	1.267224	-0.466193	0.066380
H132	H	1.767224	0.033807	0.566380
H133	H	1.167059	0.018765	0.256018
H134	H	1.667059	0.518765	0.756018
Cl135	Cl	0.921577	0.365868	0.458880
Cl136	Cl	1.421577	0.865868	0.958880
