data_functionalizedCrystal
_audit_creation_method	'MofGen! by Chris Wilmer'
_symmetry_space_group_name_H-M	'P1'
_symmetry_Int_Tables_number	1
_symmetry_cell_setting	triclinic
loop_
_symmetry_equiv_pos_as_xyz
  x,y,z
_cell_length_a	17.699083
_cell_length_b	12.837942
_cell_length_c	16.176319
_cell_angle_alpha	89.994101
_cell_angle_beta	89.998611
_cell_angle_gamma	89.055978
loop_
_atom_site_label
_atom_site_type_symbol
_atom_site_fract_x
_atom_site_fract_y
_atom_site_fract_z
O1	O	1.013708	0.131067	-0.068629
O2	O	0.794582	0.148119	-0.068656
O3	O	0.899286	-0.011297	-0.068638
O4	O	0.909004	0.290484	-0.068647
O5	O	0.899269	-0.011307	0.068855
O6	O	0.794565	0.148109	0.068837
O7	O	1.013691	0.131057	0.068864
Cu8	Cu	0.904126	0.139582	0.081405
Cu9	Cu	0.904146	0.139594	-0.081197
O10	O	0.908987	0.290474	0.068846
C11	C	0.766332	0.147503	0.000087
C12	C	0.682179	0.145670	0.000077
C13	C	0.640432	0.239245	0.000074
C14	C	0.561362	0.237516	0.000085
C15	C	0.524040	0.142212	0.000092
C16	C	0.565792	0.048631	0.000097
C17	C	0.644861	0.050360	0.000093
C18	C	0.246916	0.041653	0.000118
C19	C	0.167842	0.039931	0.000120
C20	C	0.163418	0.228809	0.000111
C21	C	0.242486	0.230539	0.000106
C22	C	0.284232	0.136958	0.000115
C23	C	0.369969	0.138833	0.000105
C24	C	0.438304	0.140336	0.000097
C25	C	0.895995	-0.049915	0.000108
C26	C	0.886204	-0.164967	0.000105
C27	C	1.003908	-0.406222	0.000102
C28	C	0.994712	-0.514324	0.000100
C29	C	0.858617	-0.489277	0.000092
C30	C	0.867813	-0.381174	0.000094
C31	C	0.940461	-0.339651	0.000101
C32	C	0.949656	-0.231546	0.000109
C33	C	0.813561	-0.206501	0.000095
C34	C	0.804365	-0.314604	0.000093
C35	C	1.041941	0.131673	0.000119
C36	C	1.126094	0.133506	0.000124
C37	C	0.912278	0.329091	0.000099
C38	C	0.922069	0.444144	0.000096
N39	N	0.904118	0.139573	0.195770
N40	N	0.904160	0.139595	-0.195562
C41	C	0.950499	0.069012	0.239042
C42	C	0.950502	0.069011	0.325589
C43	C	0.904129	0.139577	0.368863
C44	C	0.857743	0.210141	0.325584
C45	C	0.857736	0.210136	0.239039
C46	C	0.857771	0.210161	0.674613
C47	C	0.857783	0.210162	0.761164
C48	C	0.950537	0.069035	0.761163
C49	C	0.950530	0.069031	0.674617
C50	C	0.904141	0.139591	0.631347
C51	C	0.904137	0.139590	0.537503
C52	C	0.904137	0.139584	0.462705
H53	H	0.137457	-0.037681	0.000128
H54	H	0.820001	0.267615	0.639388
H55	H	1.046378	-0.568524	0.000098
C56	C	0.515444	0.340455	0.000097
N57	N	0.480859	0.417994	0.000112
H58	H	0.799470	-0.523105	0.000077
H59	H	1.008809	-0.197740	0.000117
C60	C	1.083820	-0.360544	0.000114
N61	N	1.144012	-0.326141	0.000122
H62	H	0.745217	-0.348427	0.000084
H63	H	0.819981	0.267594	0.360823
C64	C	1.001542	-0.008599	0.627022
N65	N	1.039963	-0.067075	0.591174
H66	H	0.761898	-0.152287	0.000100
H67	H	0.988264	0.011554	0.203815
H68	H	0.819967	0.267593	0.203807
C69	C	0.806761	0.287787	0.808763
N70	N	0.768332	0.346250	0.844615
H71	H	0.988306	0.011578	0.796403
H72	H	0.670814	0.316852	0.000068
H73	H	0.272870	0.308145	0.000096
H74	H	0.988268	0.011555	0.360821
H75	H	0.280896	-0.034546	0.000126
C76	C	0.524735	-0.056205	0.000107
N77	N	0.493811	-0.135169	0.000111
H78	H	0.129419	0.305007	0.000107
H79	H	0.678850	-0.025837	0.000094
