data_functionalizedCrystal
_audit_creation_method	'MofGen! by Chris Wilmer'
_symmetry_space_group_name_H-M	'P1'
_symmetry_Int_Tables_number	1
_symmetry_cell_setting	triclinic
loop_
_symmetry_equiv_pos_as_xyz
  x,y,z
_cell_length_a	19.805407
_cell_length_b	18.050590
_cell_length_c	19.805398
_cell_angle_alpha	89.971550
_cell_angle_beta	89.986879
_cell_angle_gamma	90.018553
loop_
_atom_site_label
_atom_site_type_symbol
_atom_site_fract_x
_atom_site_fract_y
_atom_site_fract_z
Zn1	Zn	1.034730	-0.295669	-0.382720
Zn2	Zn	1.034673	-0.419864	-0.269532
Zn3	Zn	0.921557	-0.295692	-0.269545
Zn4	Zn	0.921523	-0.419822	-0.382679
O5	O	0.978121	-0.357762	-0.326119
O6	O	1.129439	-0.312152	-0.367718
O7	O	1.019658	-0.403419	-0.174817
O8	O	0.936607	-0.191764	-0.284580
O9	O	1.129397	-0.403397	-0.284559
O10	O	1.019755	-0.191748	-0.367730
O11	O	0.936552	-0.312190	-0.174827
O12	O	0.826836	-0.312150	-0.284540
O13	O	0.936550	-0.403326	-0.477401
O14	O	0.826811	-0.403348	-0.367660
O15	O	1.019722	-0.312111	-0.477432
O16	O	1.019625	-0.523783	-0.284519
O17	O	0.936495	-0.523752	-0.367648
C18	C	0.802265	-0.357747	-0.326097
C19	C	0.727033	-0.357759	-0.326104
C20	C	0.691693	-0.405317	-0.369314
C21	C	0.621005	-0.405319	-0.369324
C22	C	0.585657	-0.357765	-0.326119
C23	C	0.621001	-0.310202	-0.282907
C24	C	0.691688	-0.310197	-0.282902
C25	C	0.335928	-0.310218	-0.282930
C26	C	0.265236	-0.310228	-0.282937
C27	C	0.265244	-0.405340	-0.369352
C28	C	0.335932	-0.405335	-0.369346
C29	C	0.371270	-0.357769	-0.326137
C30	C	0.447918	-0.357767	-0.326128
C31	C	0.509010	-0.357770	-0.326124
C32	C	0.978069	-0.550714	-0.326092
C33	C	0.978108	-0.633259	-0.326103
C34	C	1.023409	-0.832700	-0.280961
C35	C	1.039934	-0.882032	-0.342736
C36	C	0.978147	-0.784390	-0.326130
C37	C	0.961690	-0.882139	-0.264383
C38	C	0.978185	-0.930375	-0.326151
C39	C	0.994704	-0.832635	-0.387938
C40	C	0.916431	-0.832737	-0.309543
C41	C	0.932933	-0.882048	-0.371361
C42	C	0.978126	-0.700292	-0.326118
C43	C	0.978205	-1.014471	-0.326171
C44	C	1.154663	-0.357776	-0.326142
C45	C	1.229895	-0.357783	-0.326151
C46	C	0.978139	-0.357711	-0.502662
C47	C	0.978146	-0.357690	-0.577894
C48	C	0.978191	-0.164056	-0.326161
C49	C	0.978221	-0.081510	-0.326179
C50	C	1.021526	-0.405074	-1.039678
C51	C	1.021507	-0.405095	-0.968990
C52	C	0.978230	-0.357606	-0.933656
C53	C	0.934964	-0.310100	-0.969015
C54	C	0.934980	-0.310084	-1.039702
C55	C	0.934899	-0.310163	-0.683941
C56	C	0.934888	-0.310181	-0.613249
C57	C	1.021426	-0.405174	-0.613229
C58	C	1.021442	-0.405158	-0.683916
C59	C	0.978174	-0.357655	-0.719269
C60	C	0.978194	-0.357635	-0.795917
C61	C	0.978213	-0.357622	-0.857009
C62	C	0.978142	-0.357758	-0.150263
C63	C	0.978265	-0.357570	-0.075032
H64	H	0.236464	-0.444067	-0.404537
H65	H	0.720468	-0.444044	-0.404494
H66	H	1.061698	-0.811031	-0.242803
H67	H	0.894673	-0.903579	-0.409612
Cl68	Cl	0.220799	-0.250440	-0.228620
Cl69	Cl	0.380344	-0.250419	-0.228611
H70	H	0.592235	-0.444046	-0.404509
Cl71	Cl	0.835845	-0.799281	-0.287836
H72	H	1.056771	-0.443742	-1.068442
H73	H	1.056655	-0.443856	-0.584437
H74	H	0.364708	-0.444061	-0.404525
H75	H	0.592215	-0.271479	-0.247732
Cl76	Cl	0.940174	-0.915711	-0.183750
H77	H	1.056727	-0.443786	-0.940208
Cl78	Cl	0.880477	-0.250478	-0.568830
Cl79	Cl	0.736115	-0.250405	-0.228580
Cl80	Cl	0.880474	-0.250478	-0.728375
H81	H	1.056685	-0.443826	-0.712681
H82	H	1.092142	-0.903688	-0.356779
H83	H	0.899724	-0.271437	-0.940240
Cl84	Cl	1.016323	-0.799211	-0.468594
H85	H	0.899753	-0.271400	-1.068486
