data_functionalizedCrystal
_audit_creation_method	'MofGen! by Chris Wilmer'
_symmetry_space_group_name_H-M	'P1'
_symmetry_Int_Tables_number	1
_symmetry_cell_setting	triclinic
loop_
_symmetry_equiv_pos_as_xyz
  x,y,z
_cell_length_a	19.288859
_cell_length_b	10.489716
_cell_length_c	17.766277
_cell_angle_alpha	89.997726
_cell_angle_beta	89.989768
_cell_angle_gamma	83.831431
loop_
_atom_site_label
_atom_site_type_symbol
_atom_site_fract_x
_atom_site_fract_y
_atom_site_fract_z
O1	O	0.922415	0.159074	-0.062602
O2	O	0.720297	0.180546	-0.062600
O3	O	0.825964	-0.015894	-0.062604
O4	O	0.816748	0.355514	-0.062598
O5	O	0.825945	-0.015904	0.062585
O6	O	0.720278	0.180536	0.062589
O7	O	0.922396	0.159064	0.062586
Cu8	Cu	0.821335	0.169799	0.074018
Cu9	Cu	0.821357	0.169811	-0.074032
O10	O	0.816729	0.355505	0.062590
C11	C	0.694406	0.179852	-0.000005
C12	C	0.617288	0.177782	-0.000005
C13	C	0.053922	0.279040	-0.000004
C14	C	0.126381	0.280997	-0.000008
C15	C	0.170321	0.165735	-0.000008
C16	C	0.141795	0.048507	-0.000024
C17	C	0.069337	0.046554	-0.000028
C18	C	0.291012	0.079769	0.043852
C19	C	0.363469	0.081727	0.043860
C20	C	0.393807	0.171753	-0.000001
C21	C	0.351678	0.259843	-0.043860
C22	C	0.279219	0.257890	-0.043864
C23	C	0.248891	0.167839	-0.000005
C24	C	0.500893	0.291094	0.000005
C25	C	0.573354	0.293045	-0.000003
C26	C	0.588767	0.060552	-0.000012
C27	C	0.516307	0.058604	-0.000011
C28	C	0.472374	0.173879	0.000002
C29	C	0.825262	-0.063415	-0.000012
C30	C	0.823190	-0.204999	-0.000019
C31	C	0.887989	-0.304141	-0.000013
C32	C	0.853757	-0.380721	-0.061735
C33	C	0.853723	-0.380695	0.061691
C34	C	0.788986	-0.279715	-0.061792
C35	C	0.788962	-0.279683	0.061690
C36	C	0.754682	-0.356213	-0.000047
C37	C	0.948287	0.159759	-0.000010
C38	C	1.025404	0.161829	-0.000016
C39	C	0.817431	0.403026	-0.000004
C40	C	0.819502	0.544610	-0.000002
N41	N	0.821325	0.169790	0.178148
N42	N	0.821373	0.169810	-0.178162
C43	C	0.868130	0.082849	0.217533
C44	C	0.868134	0.082843	0.296335
C45	C	0.821339	0.169800	0.335749
C46	C	0.774526	0.256748	0.296354
C47	C	0.774518	0.256743	0.217554
C48	C	0.812814	0.286015	0.460589
C49	C	0.812826	0.286022	0.539388
C50	C	0.821358	0.169816	0.578795
C51	C	0.829892	0.053598	0.539395
C52	C	0.829885	0.053593	0.460594
C53	C	0.821342	0.169815	0.421195
C54	C	0.868170	0.082861	0.703626
C55	C	0.868169	0.082853	0.782430
C56	C	0.774564	0.256770	0.782447
C57	C	0.774562	0.256766	0.703645
C58	C	0.821368	0.169813	0.664240
H59	H	0.493088	-0.036842	-0.000015
H60	H	0.376376	0.333154	-0.079574
N61	N	0.726754	0.345597	0.822684
N62	N	0.662549	0.344150	0.813897
H63	H	0.628779	0.406886	0.842316
H64	H	0.177575	-0.045340	-0.000027
N65	N	0.683920	-0.385248	-0.000077
N66	N	0.635183	-0.296500	-0.000610
H67	H	0.585207	-0.317005	-0.000633
H68	H	0.881083	-0.424791	0.113871
N69	N	0.804098	0.404716	0.579642
N70	N	0.804102	0.404707	0.649999
H71	H	0.797934	0.488537	0.678429
N72	N	0.260039	-0.012211	0.088659
N73	N	0.297658	-0.090843	0.127820
H74	H	0.275784	-0.155803	0.159464
H75	H	0.805855	0.380650	0.428509
N76	N	0.888092	-0.436068	-0.127189
N77	N	0.939533	-0.518480	-0.120330
H78	H	0.963788	-0.557566	-0.166555
H79	H	0.465121	0.384957	0.000014
N80	N	0.726709	0.345581	0.177332
N81	N	0.728242	0.463470	0.186132
H82	H	0.694477	0.526217	0.157725
H83	H	0.906249	0.012042	0.328409
H84	H	0.244921	0.329614	-0.079577
N85	N	0.754670	-0.224292	0.127151
N86	N	0.750351	-0.105791	0.137313
H87	H	0.726136	-0.066670	0.183551
N88	N	0.040215	-0.073191	-0.000043
N89	N	0.079450	-0.176099	-0.000050
H90	H	0.058882	-0.260673	-0.000059
N91	N	0.602473	0.412794	0.000015
N92	N	0.589209	0.490391	0.052793
H93	H	0.609774	0.574968	0.052807
H94	H	0.149605	0.376448	0.000008
H95	H	0.624542	-0.033296	-0.000018
N96	N	0.406488	-0.008254	0.088667
N97	N	0.379396	-0.088641	0.127817
H98	H	0.409777	-0.152195	0.159463
H99	H	0.906240	0.012044	0.185452
H100	H	0.736424	0.327548	0.328449
N101	N	0.754719	-0.224626	-0.127340
N102	N	0.776550	-0.258178	-0.191349
H103	H	0.752353	-0.219270	-0.237644
H104	H	0.944352	-0.280742	-0.000076
H105	H	0.018156	0.372906	0.000002
H106	H	0.836831	-0.041035	0.428517
N107	N	0.838597	-0.065103	0.579649
N108	N	0.838590	-0.065089	0.650006
H109	H	0.844734	-0.148918	0.678439
N110	N	0.915895	-0.006122	0.663381
N111	N	0.957621	-0.083859	0.698560
H112	H	0.991295	-0.146765	0.670139
H113	H	0.906281	0.012048	0.814498
H114	H	0.736452	0.327567	0.671576
