data_functionalizedCrystal
_audit_creation_method	'MofGen! by Chris Wilmer'
_symmetry_space_group_name_H-M	'P1'
_symmetry_Int_Tables_number	1
_symmetry_cell_setting	triclinic
loop_
_symmetry_equiv_pos_as_xyz
  x,y,z
_cell_length_a	19.805407
_cell_length_b	18.101395
_cell_length_c	19.805399
_cell_angle_alpha	89.974882
_cell_angle_beta	89.980427
_cell_angle_gamma	90.031104
loop_
_atom_site_label
_atom_site_type_symbol
_atom_site_fract_x
_atom_site_fract_y
_atom_site_fract_z
Zn1	Zn	1.034714	-0.294847	-0.382731
Zn2	Zn	1.034619	-0.418690	-0.269548
Zn3	Zn	0.921528	-0.294867	-0.269556
Zn4	Zn	0.921482	-0.418651	-0.382695
O5	O	0.978086	-0.356764	-0.326132
O6	O	1.129418	-0.311283	-0.367729
O7	O	1.019597	-0.402290	-0.174832
O8	O	0.936601	-0.191232	-0.284587
O9	O	1.129348	-0.402270	-0.284574
O10	O	1.019758	-0.191217	-0.367737
O11	O	0.936510	-0.311318	-0.174838
O12	O	0.826806	-0.311279	-0.284552
O13	O	0.936523	-0.402203	-0.477416
O14	O	0.826772	-0.402223	-0.367674
O15	O	1.019714	-0.311245	-0.477443
O16	O	1.019553	-0.522318	-0.284538
O17	O	0.936432	-0.522289	-0.367667
C18	C	0.802230	-0.356750	-0.326110
C19	C	0.726998	-0.356761	-0.326117
C20	C	0.691654	-0.404187	-0.369329
C21	C	0.620965	-0.404188	-0.369339
C22	C	0.585622	-0.356767	-0.326132
C23	C	0.620971	-0.309336	-0.282919
C24	C	0.691658	-0.309332	-0.282913
C25	C	0.335898	-0.309353	-0.282941
C26	C	0.265206	-0.309363	-0.282948
C27	C	0.265205	-0.404209	-0.369367
C28	C	0.335892	-0.404205	-0.369361
C29	C	0.371235	-0.356771	-0.326150
C30	C	0.447883	-0.356770	-0.326141
C31	C	0.508975	-0.356772	-0.326137
C32	C	0.977995	-0.549174	-0.326112
C33	C	0.978018	-0.631489	-0.326127
C34	C	0.978167	-0.930579	-0.326163
C35	C	0.925991	-0.899267	-0.378595
C36	C	0.925743	-0.813649	-0.378431
C37	C	0.978093	-0.782197	-0.326146
C38	C	0.958782	-0.813345	-0.254811
C39	C	0.958446	-0.898990	-0.255125
C40	C	1.049768	-0.898924	-0.344438
C41	C	1.049347	-0.813273	-0.346002
C42	C	0.978053	-0.698337	-0.326131
C43	C	0.978206	-1.014439	-0.326173
C44	C	1.154629	-0.356779	-0.326155
C45	C	1.229861	-0.356785	-0.326164
C46	C	0.978124	-0.356717	-0.502675
C47	C	0.978140	-0.356697	-0.577907
C48	C	0.978195	-0.163602	-0.326167
C49	C	0.978242	-0.081288	-0.326182
C50	C	1.021458	-0.309333	-0.613266
C51	C	1.021465	-0.309311	-0.683955
C52	C	0.978157	-0.356659	-0.719283
C53	C	0.934834	-0.404025	-0.683919
C54	C	0.934824	-0.404042	-0.613231
C55	C	0.934872	-0.403956	-0.968992
C56	C	0.934887	-0.403937	-1.039684
C57	C	1.021513	-0.309225	-1.039716
C58	C	1.021503	-0.309242	-0.969028
C59	C	0.978178	-0.356606	-0.933670
C60	C	0.978170	-0.356628	-0.857022
C61	C	0.978168	-0.356641	-0.795930
C62	C	0.978087	-0.356757	-0.150276
C63	C	0.978202	-0.356568	-0.075045
H64	H	0.236431	-0.270742	-0.247765
C65	C	1.107103	-0.215704	-0.676886
C66	C	1.069087	-0.257252	-0.722822
H67	H	1.136506	-0.183567	-0.700882
H68	H	1.077628	-0.187379	-0.649316
H69	H	1.132966	-0.247992	-0.649313
H70	H	1.043220	-0.224965	-0.750391
H71	H	1.098565	-0.285579	-0.750403
C72	C	1.030905	-0.209738	-0.533795
C73	C	1.069063	-0.257284	-0.574437
H74	H	1.060295	-0.177606	-0.509822
H75	H	1.001440	-0.181407	-0.561372
H76	H	1.005110	-0.237958	-0.502619
H77	H	1.094854	-0.229064	-0.605616
H78	H	1.098540	-0.285618	-0.546858
H79	H	0.906997	-0.791960	-0.239053
H80	H	0.937825	-0.792587	-0.431325
H81	H	0.995590	-0.792973	-0.214680
H82	H	1.056772	-0.270690	-0.940268
H83	H	0.872670	-0.793225	-0.366326
C84	C	1.059993	-0.267126	-1.148088
C85	C	1.069130	-0.257152	-1.078583
H86	H	1.089387	-0.234976	-1.172081
H87	H	1.069873	-0.316875	-1.159665
H88	H	1.014521	-0.256279	-1.159658
H89	H	1.114601	-0.268004	-1.067013
H90	H	1.059254	-0.207391	-1.067002
H91	H	0.899617	-0.442494	-1.068446
H92	H	0.994801	-0.919706	-0.214727
C93	C	0.328788	-0.215599	-0.197521
C94	C	0.374741	-0.257216	-0.235443
H95	H	0.352772	-0.183413	-0.168195
H96	H	0.301242	-0.187323	-0.227060
H97	H	0.301195	-0.247839	-0.171580
H98	H	0.402331	-0.224976	-0.261388
H99	H	0.402299	-0.285494	-0.205900
C100	C	0.820203	-0.440080	-0.705656
C101	C	0.887227	-0.456070	-0.722749
H102	H	0.790814	-0.472211	-0.729631
H103	H	0.814002	-0.446870	-0.658503
H104	H	0.810336	-0.390317	-0.717254
H105	H	0.897095	-0.505832	-0.711147
H106	H	0.893431	-0.449286	-0.769913
C107	C	0.846158	-0.865117	-0.221553
C108	C	0.887788	-0.926053	-0.234234
H109	H	0.802535	-0.881823	-0.208661
H110	H	0.865001	-0.836336	-0.186166
H111	H	0.842697	-0.835871	-0.261237
H112	H	0.891254	-0.955295	-0.194548
H113	H	0.868941	-0.954846	-0.269623
C114	C	0.999177	-0.972615	-0.448163
C115	C	0.942127	-0.927015	-0.450233
H116	H	1.009135	-0.989754	-0.492390
H117	H	1.036530	-0.945409	-0.431233
H118	H	0.990550	-1.013615	-0.419468
H119	H	0.950756	-0.886012	-0.478924
H120	H	0.904766	-0.954222	-0.467171
H121	H	1.067374	-0.920474	-0.395569
H122	H	0.899604	-0.442533	-0.940212
C123	C	1.078683	-0.846463	-0.459640
C124	C	1.068981	-0.785801	-0.416885
H125	H	1.090789	-0.829504	-0.503406
H126	H	1.113747	-0.876738	-0.442210
H127	H	1.038088	-0.874282	-0.462310
H128	H	1.109578	-0.757986	-0.414212
H129	H	1.033915	-0.755514	-0.434320
C130	C	0.800010	-0.446301	-0.407692
C131	C	0.730501	-0.456315	-0.416823
H132	H	0.823989	-0.478486	-0.437013
H133	H	0.811617	-0.396562	-0.417678
H134	H	0.811564	-0.457076	-0.362195
H135	H	0.718946	-0.445535	-0.462319
H136	H	0.718889	-0.506065	-0.406842
H137	H	0.899543	-0.442604	-0.584443
C138	C	1.075516	-0.737874	-0.249790
C139	C	1.104606	-0.784369	-0.298208
H140	H	1.109630	-0.720035	-0.220279
H141	H	1.054314	-0.697380	-0.271703
H142	H	1.042883	-0.764682	-0.224545
H143	H	1.137236	-0.757560	-0.323456
H144	H	1.125819	-0.824870	-0.276294
H145	H	0.592189	-0.270722	-0.247742
C146	C	0.830286	-0.968568	-0.417684
C147	C	0.854780	-0.928406	-0.362461
H148	H	0.786326	-0.986562	-0.407718
H149	H	0.828380	-0.937395	-0.456225
H150	H	0.859538	-1.008991	-0.426550
H151	H	0.825530	-0.887980	-0.353598
H152	H	0.856682	-0.959581	-0.323908
C153	C	0.628065	-0.497963	-0.454741
C154	C	0.582115	-0.456332	-0.416828
H155	H	0.604079	-0.530161	-0.484054
H156	H	0.655656	-0.465738	-0.480688
H157	H	0.655615	-0.526234	-0.425190
H158	H	0.554569	-0.428057	-0.446378
H159	H	0.554513	-0.488561	-0.390878
C160	C	0.357692	-0.440435	-0.483913
C161	C	0.374741	-0.456328	-0.416857
H162	H	0.381678	-0.472610	-0.513236
H163	H	0.310540	-0.447229	-0.490096
H164	H	0.369305	-0.390687	-0.493886
H165	H	0.363123	-0.506074	-0.406882
H166	H	0.421903	-0.449540	-0.410671
C167	C	0.156846	-0.446332	-0.407762
C168	C	0.226354	-0.456342	-0.416874
H169	H	0.132864	-0.478514	-0.437093
H170	H	0.145238	-0.457106	-0.362275
H171	H	0.145295	-0.396587	-0.417752
H172	H	0.237906	-0.506086	-0.406879
H173	H	0.237966	-0.445573	-0.462371
H174	H	1.088641	-0.919172	-0.306250
H175	H	0.720435	-0.270709	-0.247729
