data_functionalizedCrystal
_audit_creation_method	'MofGen! by Chris Wilmer'
_symmetry_space_group_name_H-M	'P1'
_symmetry_Int_Tables_number	1
_symmetry_cell_setting	triclinic
loop_
_symmetry_equiv_pos_as_xyz
  x,y,z
_cell_length_a	14.908571
_cell_length_b	12.759400
_cell_length_c	14.908308
_cell_angle_alpha	93.270344
_cell_angle_beta	90.175053
_cell_angle_gamma	86.709538
loop_
_atom_site_label
_atom_site_type_symbol
_atom_site_fract_x
_atom_site_fract_y
_atom_site_fract_z
Zn1	Zn	1.345354	-0.548283	-0.587608
Zn2	Zn	1.353952	-0.714464	-0.437256
Zn3	Zn	1.203667	-0.528103	-0.428605
Zn4	Zn	1.194979	-0.713216	-0.578908
O5	O	1.274488	-0.626017	-0.508094
O6	O	1.472321	-0.579295	-0.574925
O7	O	1.341250	-0.681820	-0.310284
O8	O	1.222499	-0.383763	-0.449718
O9	O	1.478638	-0.701387	-0.464463
O10	O	1.326596	-0.398589	-0.566536
O11	O	1.230836	-0.544902	-0.303928
O12	O	1.076687	-0.543691	-0.441281
O13	O	1.207693	-0.699260	-0.705887
O14	O	1.070305	-0.679692	-0.551708
O15	O	1.318172	-0.578085	-0.712279
O16	O	1.332826	-0.861315	-0.456026
O17	O	1.216030	-0.860398	-0.560097
C18	C	1.040870	-0.609367	-0.494612
C19	C	0.940927	-0.602271	-0.488866
C20	C	1.274441	-0.898980	-0.508077
C21	C	1.274502	-1.015762	-0.508105
C22	C	0.746533	-0.730754	-0.592901
C23	C	0.652627	-0.724090	-0.587505
C24	C	0.659206	-0.582276	-0.472683
C25	C	0.753112	-0.588939	-0.478079
C26	C	0.796772	-0.663182	-0.538189
C27	C	0.890681	-0.669850	-0.543580
C28	C	0.897258	-0.528031	-0.428763
C29	C	0.803352	-0.521368	-0.423367
C30	C	1.328674	-1.078265	-0.568978
C31	C	1.328714	-1.187994	-0.569002
C32	C	1.220410	-1.172705	-0.447273
C33	C	1.220365	-1.062979	-0.447253
C34	C	1.382811	-1.031048	-0.629830
C35	C	1.436988	-1.093552	-0.690707
C36	C	1.437029	-1.203281	-0.690731
C37	C	1.382892	-1.250505	-0.629878
C38	C	1.509017	-0.642732	-0.521629
C39	C	1.608960	-0.649855	-0.527397
C40	C	1.261004	-0.640784	-0.742620
C41	C	1.255258	-0.647077	-0.842561
C42	C	1.274558	-0.351990	-0.508132
C43	C	1.274587	-0.235217	-0.508149
C44	C	1.359501	-0.532699	-1.037019
C45	C	1.354105	-0.538608	-1.130922
C46	C	1.239067	-0.664800	-1.124274
C47	C	1.244462	-0.658890	-1.030370
C48	C	1.304683	-0.592839	-0.986746
C49	C	1.310083	-0.586935	-0.892841
C50	C	1.195040	-0.713121	-0.886194
C51	C	1.189644	-0.719030	-0.980097
C52	C	1.287971	-0.611234	-0.274484
C53	C	1.293891	-0.604658	-0.174553
H54	H	0.926227	-0.730304	-0.592523
H55	H	1.398741	-0.489633	-1.171851
H56	H	1.190038	-0.718575	-1.159809
C57	C	0.611170	-0.500629	-0.406561
H58	H	0.548048	-0.506348	-0.411180
H59	H	0.625799	-0.431982	-0.420689
H60	H	0.630018	-0.513204	-0.347008
H61	H	1.481059	-1.055096	-0.740257
C62	C	0.952523	-0.453697	-0.368580
H63	H	1.014704	-0.468292	-0.380405
H64	H	0.940590	-0.464065	-0.307260
H65	H	0.936379	-0.382869	-0.380962
C66	C	0.597365	-0.798398	-0.647707
H67	H	0.636820	-0.843564	-0.684278
H68	H	0.558498	-0.758128	-0.684828
H69	H	0.562693	-0.839359	-0.611155
C70	C	1.123411	-0.791684	-1.028089
H71	H	1.128052	-0.786596	-1.091215
H72	H	1.063883	-0.771047	-1.009216
H73	H	1.137452	-0.862245	-1.013452
C74	C	1.496618	-1.272032	-0.757692
H75	H	1.528856	-1.228192	-0.793923
H76	H	1.459962	-1.314865	-0.794867
H77	H	1.537817	-1.315442	-0.725590
C78	C	1.160873	-1.224651	-0.380335
H79	H	1.168665	-1.298952	-0.389059
H80	H	1.099686	-1.203241	-0.389951
H81	H	1.177554	-1.203816	-0.320688
C82	C	1.160778	-0.994222	-0.380295
H83	H	1.128551	-1.038056	-0.344048
H84	H	1.119582	-0.950812	-0.412392
H85	H	1.197443	-0.951389	-0.343121
C86	C	1.376314	-0.514275	-0.844855
H87	H	1.408181	-0.479295	-0.888248
H88	H	1.417593	-0.554939	-0.810475
H89	H	1.344021	-0.463743	-0.806247
H90	H	1.408539	-0.478922	-1.001500
C91	C	0.794562	-0.812418	-0.659014
H92	H	0.751191	-0.851706	-0.690829
H93	H	0.833167	-0.858559	-0.626657
H94	H	0.828948	-0.777363	-0.700359
C95	C	1.382765	-0.910352	-0.629809
H96	H	1.422759	-0.891181	-0.674771
H97	H	1.401679	-0.882995	-0.572692
H98	H	1.323824	-0.882419	-0.641968
C99	C	1.134737	-0.779276	-0.830892
H100	H	1.146570	-0.766295	-0.768718
H101	H	1.146996	-0.851770	-0.847036
H102	H	1.073437	-0.760560	-0.842796
C103	C	0.755321	-0.439713	-0.357247
H104	H	0.692198	-0.445426	-0.361864
H105	H	0.769955	-0.371071	-0.371381
H106	H	0.774170	-0.452285	-0.297694
H107	H	1.382919	-1.339854	-0.629913
