data_functionalizedCrystal
_audit_creation_method	'MofGen! by Chris Wilmer'
_symmetry_space_group_name_H-M	'P1'
_symmetry_Int_Tables_number	1
_symmetry_cell_setting	triclinic
loop_
_symmetry_equiv_pos_as_xyz
  x,y,z
_cell_length_a	10.654550
_cell_length_b	18.266242
_cell_length_c	10.654550
_cell_angle_alpha	90.006760
_cell_angle_beta	84.484923
_cell_angle_gamma	90.012545
loop_
_atom_site_label
_atom_site_type_symbol
_atom_site_fract_x
_atom_site_fract_y
_atom_site_fract_z
O1	O	1.667849	0.060942	0.176401
O2	O	1.302371	0.060930	0.193207
O3	O	1.493513	0.060931	0.002065
O4	O	1.476707	0.060942	0.367543
O5	O	1.493480	-0.060831	0.002054
O6	O	1.302338	-0.060832	0.193197
O7	O	1.667817	-0.060820	0.176390
Zn8	Zn	1.485072	-0.080158	0.184792
Zn9	Zn	1.485115	0.080269	0.184805
O10	O	1.476674	-0.060820	0.367533
C11	C	1.255556	0.000048	0.191968
C12	C	1.116113	0.000043	0.188276
N13	N	1.485052	-0.189645	0.184782
C14	C	1.036628	0.000057	0.300817
C15	C	0.905607	0.000070	0.297341
C16	C	0.933570	0.000057	0.068771
C17	C	1.064588	0.000040	0.072249
C18	C	1.020482	0.000068	0.432780
C19	C	0.889461	0.000080	0.429304
C20	C	1.569718	-0.227954	0.100186
C21	C	1.569726	-0.304599	0.100181
C22	C	1.485080	-0.342932	0.184792
C23	C	1.400398	-0.304614	0.269394
C24	C	1.400384	-0.227970	0.269389
N25	N	1.470062	-0.463261	0.295783
N26	N	1.470083	-0.536069	0.295784
C27	C	1.485115	-0.573854	0.184811
N28	N	1.500151	-0.536081	0.073834
N29	N	1.500136	-0.463266	0.073834
C30	C	1.485085	-0.426039	0.184807
C31	C	1.569795	-0.695270	0.100202
C32	C	1.569794	-0.771916	0.100194
C33	C	1.400472	-0.771930	0.269419
C34	C	1.400466	-0.695285	0.269416
C35	C	1.485135	-0.656960	0.184808
C36	C	1.714631	0.000064	0.177630
C37	C	1.854074	0.000074	0.181321
C38	C	1.492263	0.000050	-0.044739
C39	C	1.488571	0.000050	-0.184182
N40	N	1.485146	0.189756	0.184805
C41	C	1.483340	-0.066310	-0.380741
C42	C	1.486813	-0.066319	-0.249719
C43	C	1.486843	0.066432	-0.249671
C44	C	1.483361	0.066441	-0.380689
C45	C	1.483329	-0.142954	-0.380768
C46	C	1.486801	-0.142962	-0.249747
C47	C	1.477925	0.000062	0.414336
C48	C	1.481617	0.000067	0.553779
H49	H	1.129302	0.000018	-0.019393
C50	C	1.307281	-0.346782	0.362462
N51	N	1.237138	-0.378543	0.432559
C52	C	1.662917	-0.814056	0.007106
N53	N	1.733054	-0.845796	-0.063016
H54	H	1.331437	-0.196779	0.338278
H55	H	1.394646	-0.172385	-0.405598
H56	H	0.891602	0.000066	-0.025694
H57	H	1.572763	-0.166729	-0.432491
H58	H	1.331546	-0.803141	0.338307
H59	H	1.638733	-0.664064	0.031306
H60	H	1.638673	-0.335795	0.031290
H61	H	0.847742	0.051043	0.479030
H62	H	1.638657	-0.196751	0.031291
H63	H	1.331528	-0.664092	0.338306
C64	C	1.488775	0.139439	-0.177575
N65	N	1.490236	0.194430	-0.123274
C66	C	1.481530	0.139460	-0.452720
N67	N	1.480180	0.194462	-0.506978
H68	H	1.397351	-0.166752	-0.198044
C69	C	1.060095	-0.068775	0.502494
N70	N	1.089932	-0.120627	0.554998
H71	H	1.056152	0.052639	0.474804
H72	H	0.843776	-0.052486	0.469180
C73	C	1.606597	-0.182707	-0.216220
N74	N	1.696827	-0.212640	-0.190969
