data_functionalizedCrystal
_audit_creation_method	'MofGen! by Chris Wilmer'
_symmetry_space_group_name_H-M	'P1'
_symmetry_Int_Tables_number	1
_symmetry_cell_setting	triclinic
loop_
_symmetry_equiv_pos_as_xyz
  x,y,z
_cell_length_a	12.837939
_cell_length_b	12.376457
_cell_length_c	13.339070
_cell_angle_alpha	75.601917
_cell_angle_beta	74.771033
_cell_angle_gamma	77.495829
loop_
_atom_site_label
_atom_site_type_symbol
_atom_site_fract_x
_atom_site_fract_y
_atom_site_fract_z
O1	O	-1.467958	0.093986	0.252513
O2	O	-1.162311	0.093991	0.239151
O3	O	-1.280056	0.093986	0.095188
O4	O	-1.350214	0.093992	0.396477
O5	O	-1.250618	-0.094025	0.131126
O6	O	-1.132873	-0.094020	0.275089
O7	O	-1.438521	-0.094025	0.288451
Zn8	Zn	-1.281023	-0.123873	0.287476
Zn9	Zn	-1.319808	0.123840	0.240126
O10	O	-1.320776	-0.094019	0.432415
C11	C	-1.107673	-0.000013	0.252607
C12	C	-0.988725	-0.000011	0.239144
C13	C	-0.794312	-0.000026	0.400987
C14	C	-0.682550	-0.000025	0.388343
C15	C	-0.653435	-0.000016	0.201215
C16	C	-0.765197	-0.000017	0.213859
C17	C	-0.835633	-0.000021	0.313748
C18	C	-0.947398	-0.000014	0.326389
C19	C	-0.918280	-0.000013	0.139264
C20	C	-0.806517	-0.000012	0.126620
N21	N	-1.254561	-0.292930	0.319791
C22	C	-1.407698	-0.647922	0.132770
C23	C	-1.426212	-0.529583	0.110152
C24	C	-1.383301	-0.470414	0.162559
C25	C	-1.321872	-0.529595	0.237590
C26	C	-1.303363	-0.647946	0.260216
C27	C	-1.278966	-0.470438	0.290006
C28	C	-1.217537	-0.529619	0.365036
C29	C	-1.199030	-0.647958	0.387658
C30	C	-1.241942	-0.707127	0.335250
C31	C	-1.297475	-0.352087	0.267379
C32	C	-1.193140	-0.352111	0.394825
C33	C	-1.174626	-0.470450	0.417443
C34	C	-0.493159	-0.000019	0.274996
C35	C	-0.612108	-0.000019	0.288460
C36	C	-1.253486	-0.000018	0.074325
C37	C	-1.218162	-0.000012	-0.041383
N38	N	-1.346277	0.292897	0.207804
C39	C	-1.492828	-0.000018	-0.379698
C40	C	-1.526019	-0.000029	-0.270984
C41	C	-1.449058	-0.000024	-0.213578
C42	C	-1.338900	-0.000009	-0.264898
C43	C	-1.305704	-0.000007	-0.373621
C44	C	-1.261934	-0.000014	-0.207501
C45	C	-1.151776	0.000001	-0.258821
C46	C	-1.118586	0.000004	-0.367534
C47	C	-1.195547	-0.000000	-0.424939
C48	C	-1.295129	-0.000016	-0.098778
C49	C	-1.108005	-0.000006	-0.092701
C50	C	-1.074814	0.000006	-0.201415
C51	C	-1.347346	-0.000013	0.453277
C52	C	-1.382671	-0.000011	0.568984
H53	H	-1.347491	-0.303912	0.206290
H54	H	-1.398378	-0.374057	0.144140
H55	H	-1.149022	-0.696144	0.448760
H56	H	-0.851663	-0.000027	0.482320
H57	H	-0.985121	0.000017	-0.243215
H58	H	-1.555476	-0.000031	-0.426446
H59	H	-1.168529	0.000013	-0.513465
H60	H	-1.045336	-0.000008	-0.045960
H61	H	-0.596053	-0.000107	0.119908
H62	H	-1.028887	0.000008	-0.409313
O63	O	-1.151588	-0.294700	0.445904
C64	C	-1.193998	-0.323630	0.556112
H65	H	-1.274430	-0.356146	0.571115
H66	H	-1.208920	-0.245801	0.592261
H67	H	-1.132939	-0.392332	0.594077
O68	O	-0.642599	0.000025	0.473187
C69	C	-0.728733	-0.000009	0.564063
H70	H	-0.809707	0.035585	0.538844
H71	H	-0.715171	0.054574	0.615416
H72	H	-0.730971	-0.090208	0.611413
H73	H	-0.951934	-0.000001	0.068226
O74	O	-1.485859	-0.472273	0.037207
C75	C	-1.519786	-0.549869	-0.004181
H76	H	-1.462534	-0.634236	0.006532
H77	H	-1.517510	-0.515676	-0.092233
H78	H	-1.606746	-0.562440	0.039690
H79	H	-0.749152	-0.000022	0.045296
O80	O	-1.015895	0.000184	0.423357
C81	C	-1.096675	0.097542	0.417661
H82	H	-1.065391	0.165604	0.347752
H83	H	-1.115931	0.130221	0.494311
H84	H	-1.174022	0.075531	0.406318
O85	O	-1.449260	-0.705572	0.081934
C86	C	-1.419778	-0.822715	0.118019
H87	H	-1.343652	-0.838886	0.151774
H88	H	-1.401953	-0.867702	0.048979
H89	H	-1.489886	-0.856280	0.182481
H90	H	-1.226863	-0.803489	0.353662
O91	O	-1.114856	-0.528072	0.490207
C92	C	-1.022331	-0.596519	0.441181
H93	H	-1.038620	-0.614233	0.367267
H94	H	-1.004937	-0.679745	0.498878
H95	H	-0.948619	-0.550928	0.417757
O96	O	-1.402174	0.000179	-0.049020
C97	C	-1.466227	0.097536	-0.096068
H98	H	-1.413015	0.165595	-0.137180
H99	H	-1.535616	0.130220	-0.032201
H100	H	-1.501846	0.075520	-0.156865
H101	H	-1.615709	-0.000043	-0.229207
O102	O	-1.481489	0.000023	-0.107991
C103	C	-1.595215	-0.000018	-0.074999
H104	H	-1.634641	0.035567	-0.146176
H105	H	-1.631657	0.054569	-0.012886
H106	H	-1.611307	-0.090219	-0.039257
