data_functionalizedCrystal
_audit_creation_method	'MofGen! by Chris Wilmer'
_symmetry_space_group_name_H-M	'P1'
_symmetry_Int_Tables_number	1
_symmetry_cell_setting	triclinic
loop_
_symmetry_equiv_pos_as_xyz
  x,y,z
_cell_length_a	12.759401
_cell_length_b	15.299816
_cell_length_c	15.298431
_cell_angle_alpha	91.589788
_cell_angle_beta	99.660038
_cell_angle_gamma	80.350473
loop_
_atom_site_label
_atom_site_type_symbol
_atom_site_fract_x
_atom_site_fract_y
_atom_site_fract_z
Zn1	Zn	1.547234	-0.262894	-0.555575
Zn2	Zn	1.606124	-0.434684	-0.434478
Zn3	Zn	1.406157	-0.288272	-0.409134
Zn4	Zn	1.395900	-0.409287	-0.580898
O5	O	1.488854	-0.348784	-0.495021
O6	O	1.702067	-0.285690	-0.539519
O7	O	1.608536	-0.436512	-0.308552
O8	O	1.404518	-0.162366	-0.407356
O9	O	1.745333	-0.411904	-0.450550
O10	O	1.508167	-0.143720	-0.514945
O11	O	1.461621	-0.328944	-0.289933
O12	O	1.257775	-0.304317	-0.431911
O13	O	1.387037	-0.368618	-0.700103
O14	O	1.250240	-0.393226	-0.558105
O15	O	1.498222	-0.261063	-0.681497
O16	O	1.598590	-0.553855	-0.475105
O17	O	1.444140	-0.535196	-0.582679
C18	C	1.215887	-0.348770	-0.495007
C19	C	1.099109	-0.348782	-0.495025
C20	C	1.040387	-0.395182	-0.560657
C21	C	0.930663	-0.395192	-0.560668
C22	C	0.938392	-0.302399	-0.429407
C23	C	1.048113	-0.302385	-0.429400
C24	C	1.091383	-0.441579	-0.626281
C25	C	1.032661	-0.487984	-0.691918
C26	C	0.922937	-0.487994	-0.691930
C27	C	0.871934	-0.441598	-0.626304
C28	C	1.526666	-0.576296	-0.534409
C29	C	1.542932	-0.673621	-0.551289
C30	C	1.373220	-0.987117	-0.374678
C31	C	1.357932	-0.895674	-0.358821
C32	C	1.404181	-0.840157	-0.406936
C33	C	1.465720	-0.876090	-0.470912
C34	C	1.481003	-0.967540	-0.486775
C35	C	1.511963	-0.820580	-0.519034
C36	C	1.573502	-0.856514	-0.583009
C37	C	1.588783	-0.947955	-0.598869
C38	C	1.542534	-1.003473	-0.550754
C39	C	1.496681	-0.729130	-0.503170
C40	C	1.604463	-0.709554	-0.615268
C41	C	1.619751	-0.800996	-0.631125
C42	C	1.762887	-0.348799	-0.495037
C43	C	1.879663	-0.348805	-0.495043
C44	C	1.434916	-0.309176	-0.723468
C45	C	1.411931	-0.292298	-0.820818
C46	C	1.450918	-0.120381	-0.455499
C47	C	1.434752	-0.023049	-0.438657
C48	C	1.324639	-0.228360	-0.856852
C49	C	1.303030	-0.212503	-0.948318
C50	C	1.368716	-0.260577	-1.003758
C51	C	1.456014	-0.324512	-0.967723
C52	C	1.477620	-0.340376	-0.876249
C53	C	1.521696	-0.372593	-1.023155
C54	C	1.608994	-0.436527	-0.987121
C55	C	1.630597	-0.452387	-0.895655
C56	C	1.564912	-0.404313	-0.840216
C57	C	1.500090	-0.356729	-1.114629
C58	C	1.653071	-0.468744	-1.134026
C59	C	1.674680	-0.484601	-1.042560
C60	C	1.542632	-0.388175	-0.267452
C61	C	1.565779	-0.404807	-0.170060
H62	H	0.875126	-0.525772	-0.745379
O63	O	1.298153	-0.860621	-0.296737
C64	C	1.226890	-0.728428	-0.222588
C65	C	1.294597	-0.768007	-0.292941
H66	H	1.224012	-0.653547	-0.219483
H67	H	1.141522	-0.743742	-0.241029
H68	H	1.265078	-0.758715	-0.155116
H69	H	1.256503	-0.737743	-0.360438
H70	H	1.379960	-0.752702	-0.274425
O71	O	1.585920	-0.419879	-0.751391
C72	C	1.603796	-0.526569	-0.634648
C73	C	1.580017	-0.509070	-0.735263
H74	H	1.599009	-0.598673	-0.621575
H75	H	1.688029	-0.512778	-0.606638
H76	H	1.541872	-0.481182	-0.601236
H77	H	1.641871	-0.554445	-0.768749
H78	H	1.495754	-0.522832	-0.763206
O79	O	1.679453	-0.836046	-0.693268
C80	C	1.750812	-0.968259	-0.767338
C81	C	1.683157	-0.928679	-0.696952
H82	H	1.753848	-1.043160	-0.770326
H83	H	1.712624	-0.938087	-0.834860
H84	H	1.836125	-0.952829	-0.748891
H85	H	1.597833	-0.944095	-0.715315
H86	H	1.721432	-0.958852	-0.629449
H87	H	1.271162	-0.189230	-0.811706
H88	H	1.745759	-0.536658	-1.013208
O89	O	0.888699	-0.257422	-0.365698
C90	C	0.723083	-0.216294	-0.307558
C91	C	0.779227	-0.267278	-0.379754
H92	H	0.634560	-0.224229	-0.318907
H93	H	0.763798	-0.243817	-0.239535
H94	H	0.729318	-0.143029	-0.310818
H95	H	0.773009	-0.340550	-0.376576
H96	H	0.738498	-0.239682	-0.447745
O97	O	1.648391	-0.982882	-0.661118
C98	C	1.651762	-1.065606	-0.797250
C99	C	1.584126	-1.026084	-0.726829
H100	H	1.599838	-1.100560	-0.850385
H101	H	1.682165	-1.010247	-0.828982
H102	H	1.723390	-1.115325	-0.764473
H103	H	1.512450	-0.976376	-0.759538
H104	H	1.553805	-1.081490	-0.695102
H105	H	1.642120	-0.664351	-0.654449
H106	H	1.074193	-0.525751	-0.745352
H107	H	1.429012	-0.304672	-1.143959
O108	O	1.347609	-0.245033	-1.092582
C109	C	1.232629	-0.160845	-1.213205
C110	C	1.256425	-0.178352	-1.112591
H111	H	1.158893	-0.106946	-1.229415
H112	H	1.305055	-0.138309	-1.234938
H113	H	1.216283	-0.224374	-1.249758
H114	H	1.272747	-0.114856	-1.075967
H115	H	1.183984	-0.200926	-1.090926
H116	H	1.231949	-0.160450	-0.977651
H117	H	1.701669	-0.504459	-0.866321
H118	H	1.095923	-0.264594	-0.375962
O119	O	1.716813	-0.515335	-1.187991
C120	C	1.751300	-0.540562	-1.337507
C121	C	1.679048	-0.487727	-1.276486
H122	H	1.720781	-0.518274	-1.409070
H123	H	1.837715	-0.528291	-1.316931
H124	H	1.748853	-0.614291	-1.331695
H125	H	1.681403	-0.413983	-1.282268
H126	H	1.592667	-0.500073	-1.297079
O127	O	1.436763	-0.694169	-0.441144
C128	C	1.280532	-0.593054	-0.411359
C129	C	1.348278	-0.632590	-0.481703
H130	H	1.208990	-0.543246	-0.444121
H131	H	1.250017	-0.648399	-0.379704
H132	H	1.332490	-0.558203	-0.358155
H133	H	1.296389	-0.667432	-0.534960
H134	H	1.378803	-0.577208	-0.513288
O135	O	1.389532	-0.751331	-0.391527
C136	C	1.473632	-0.623943	-0.346263
C137	C	1.490375	-0.724542	-0.363708
H138	H	1.555148	-0.602256	-0.323749
H139	H	1.431672	-0.587295	-0.409759
H140	H	1.421663	-0.607813	-0.292301
H141	H	1.542368	-0.740754	-0.417639
H142	H	1.532287	-0.761136	-0.300170
H143	H	1.335565	-1.032326	-0.335513
H144	H	0.782585	-0.441601	-0.626325
H145	H	1.180726	-0.441579	-0.626278
H146	H	1.554983	-1.077934	-0.563659
