data_functionalizedCrystal
_audit_creation_method	'MofGen! by Chris Wilmer'
_symmetry_space_group_name_H-M	'P1'
_symmetry_Int_Tables_number	1
_symmetry_cell_setting	triclinic
loop_
_symmetry_equiv_pos_as_xyz
  x,y,z
_cell_length_a	21.295418
_cell_length_b	21.295417
_cell_length_c	13.897441
_cell_angle_alpha	90.036423
_cell_angle_beta	90.041083
_cell_angle_gamma	90.046319
loop_
_atom_site_label
_atom_site_type_symbol
_atom_site_fract_x
_atom_site_fract_y
_atom_site_fract_z
Zn1	Zn	0.962339	-0.250323	0.545866
Zn2	Zn	0.962247	-0.355602	0.384551
Zn3	Zn	0.857067	-0.250380	0.384527
Zn4	Zn	0.857032	-0.355588	0.545746
O5	O	0.909671	-0.302973	0.465173
O6	O	1.050416	-0.264271	0.524527
O7	O	0.948270	-0.341674	0.249566
O8	O	0.871086	-0.162283	0.405969
O9	O	1.050348	-0.341619	0.406010
O10	O	0.948428	-0.162241	0.524504
O11	O	0.870996	-0.264368	0.249549
O12	O	0.768973	-0.264354	0.405853
O13	O	0.871025	-0.341594	0.680744
O14	O	0.768947	-0.341649	0.524300
O15	O	0.948394	-0.264257	0.680832
O16	O	0.948236	-0.443690	0.405894
O17	O	0.870935	-0.443679	0.524323
C18	C	0.746120	-0.303006	0.465062
C19	C	0.676152	-0.303036	0.465037
C20	C	0.643288	-0.343337	0.526620
C21	C	0.577545	-0.343321	0.526663
C22	C	0.544669	-0.303011	0.465106
C23	C	0.577541	-0.262702	0.403519
C24	C	0.643282	-0.262715	0.403484
N25	N	0.441396	-0.298099	0.380740
N26	N	0.378944	-0.298091	0.380776
C27	C	0.346594	-0.302971	0.465209
N28	N	0.379055	-0.307872	0.549606
N29	N	0.441512	-0.307884	0.549570
C30	C	0.473384	-0.302993	0.465138
C31	C	0.242445	-0.343258	0.526844
C32	C	0.176701	-0.343238	0.526889
C33	C	0.176698	-0.262622	0.403736
C34	C	0.242441	-0.262639	0.403699
C35	C	0.275310	-0.302960	0.465252
C36	C	0.909589	-0.466525	0.465119
C37	C	0.909611	-0.536493	0.465129
C38	C	0.949897	-0.569344	0.403526
C39	C	0.949927	-0.635087	0.403547
C40	C	0.909659	-0.667976	0.465162
C41	C	0.869370	-0.635116	0.526777
C42	C	0.869346	-0.569375	0.526760
N43	N	0.854592	-0.771256	0.472478
N44	N	0.854616	-0.833708	0.472488
C45	C	0.909729	-0.866050	0.465217
N46	N	0.964818	-0.833582	0.457917
N47	N	0.964793	-0.771125	0.457902
C48	C	0.909681	-0.739261	0.465187
C49	C	0.950051	-0.970187	0.403634
C50	C	0.950082	-1.035931	0.403663
C51	C	0.869519	-1.035959	0.526887
C52	C	0.869494	-0.970216	0.526864
C53	C	0.909759	-0.937335	0.465232
C54	C	1.073862	-0.302941	0.465285
C55	C	1.143830	-0.302927	0.465332
C56	C	0.909716	-0.302918	0.716766
C57	C	0.909735	-0.302894	0.823980
C58	C	0.909771	-0.138783	0.465247
C59	C	0.909814	-0.068815	0.465279
C60	C	0.909663	-0.302983	0.214558
C61	C	0.909766	-0.302830	0.107345
C62	C	0.909752	-0.302851	1.020275
C63	C	0.909741	-0.302877	0.911043
H64	H	0.550769	-0.229881	0.353400
H65	H	0.982735	-0.661840	0.353383
H66	H	0.836539	-0.542627	0.576926
Cl67	Cl	0.536222	-0.393990	0.604088
H68	H	0.269199	-0.229824	0.353547
H69	H	0.670039	-0.229895	0.353336
Cl70	Cl	0.818900	-1.077298	0.604354
Cl71	Cl	0.135386	-0.393903	0.604321
Cl72	Cl	1.000669	-0.928847	0.326156
H73	H	0.982685	-0.542574	0.353344
H74	H	0.149931	-0.229798	0.353619
Cl75	Cl	0.818750	-0.676461	0.604240
H76	H	0.982891	-1.062677	0.353500
H77	H	0.836686	-0.943467	0.577023
H78	H	0.670046	-0.376169	0.576743
H79	H	0.269209	-0.376086	0.576969
