data_functionalizedCrystal
_audit_creation_method	'MofGen! by Chris Wilmer'
_symmetry_space_group_name_H-M	'P1'
_symmetry_Int_Tables_number	1
_symmetry_cell_setting	triclinic
loop_
_symmetry_equiv_pos_as_xyz
  x,y,z
_cell_length_a	10.723022
_cell_length_b	10.489741
_cell_length_c	9.198806
_cell_angle_alpha	89.997101
_cell_angle_beta	89.996352
_cell_angle_gamma	84.503200
loop_
_atom_site_label
_atom_site_type_symbol
_atom_site_fract_x
_atom_site_fract_y
_atom_site_fract_z
O1	O	1.657298	0.178897	-0.120882
O2	O	2.157298	0.678897	0.379118
O3	O	1.294156	0.196024	-0.120887
O4	O	1.794156	0.696024	0.379113
O5	O	1.483990	0.001857	-0.120876
O6	O	1.983990	0.501857	0.379124
O7	O	1.467464	0.373063	-0.120893
O8	O	1.967464	0.873063	0.379107
O9	O	1.483975	0.001856	0.120909
O10	O	1.983975	0.501856	0.620909
O11	O	1.294141	0.196023	0.120898
O12	O	1.794141	0.696023	0.620898
O13	O	1.657283	0.178896	0.120903
O14	O	2.157283	0.678896	0.620903
Cu15	Cu	1.475711	0.187459	0.142977
Cu16	Cu	1.975711	0.687459	0.642977
Cu17	Cu	1.475729	0.187460	-0.142962
Cu18	Cu	1.975729	0.687460	0.357038
O19	O	1.467449	0.373063	0.120892
O20	O	1.967449	0.873063	0.620892
C21	C	1.247648	0.194777	0.000005
C22	C	1.747648	0.694777	0.500005
C23	C	1.109092	0.191050	0.000003
C24	C	1.609092	0.691050	0.500003
C25	C	1.060462	0.079080	0.000008
C26	C	1.560462	0.579080	0.500008
C27	C	0.917257	0.075225	0.000006
C28	C	1.417257	0.575225	0.500006
C29	C	1.482735	-0.045674	0.000016
C30	C	1.982735	0.454326	0.500016
C31	C	1.479000	-0.187301	0.000013
C32	C	1.979000	0.312699	0.500013
C33	C	1.358214	-0.255364	0.000001
C34	C	1.858214	0.244636	0.500001
C35	C	1.415265	-0.347523	0.119214
C36	C	1.915265	0.152477	0.619214
C37	C	1.415309	-0.347497	-0.119167
C38	C	1.915309	0.152503	0.380833
C39	C	1.536101	-0.277596	0.119325
C40	C	2.036101	0.222404	0.619325
C41	C	1.536127	-0.277560	-0.119163
C42	C	2.036127	0.222440	0.380837
C43	C	1.593266	-0.369692	0.000079
C44	C	2.093266	0.130308	0.500079
C45	C	1.703791	0.180142	0.000008
C46	C	2.203791	0.680142	0.500008
C47	C	1.842348	0.183870	-0.000000
C48	C	2.342348	0.683870	0.500000
C49	C	1.468705	0.420594	-0.000003
C50	C	1.968705	0.920594	0.499997
C51	C	1.472439	0.562221	-0.000010
C52	C	1.972439	1.062221	0.499990
N53	N	1.475707	0.187458	0.344091
N54	N	1.975707	0.687458	0.844091
N55	N	1.475742	0.187451	-0.344075
N56	N	1.975742	0.687451	0.155925
C57	C	1.555413	0.105574	0.416293
C58	C	2.055413	0.605574	0.916293
C59	C	1.555432	0.105569	0.583705
C60	C	2.055432	0.605569	1.083705
H61	H	1.044706	0.284056	-0.000008
H62	H	1.544706	0.784056	0.499992
H63	H	1.692665	-0.419180	0.000147
H64	H	2.192665	0.080820	0.500147
H65	H	0.875386	-0.020642	-0.000027
H66	H	1.375386	0.479358	0.499973
H67	H	1.623634	0.035467	0.354171
H68	H	2.123634	0.535467	0.854171
O69	O	1.226680	-0.189482	0.000149
O70	O	1.726680	0.310518	0.500149
H71	H	1.158417	-0.262614	0.001246
H72	H	1.658417	0.237386	0.501246
H73	H	1.364151	-0.378502	0.219999
H74	H	1.864151	0.121498	0.719999
O75	O	1.145731	-0.044130	0.000028
O76	O	1.645731	0.455870	0.500028
H77	H	1.244829	-0.021767	0.000043
H78	H	1.744829	0.478233	0.500043
O79	O	1.603726	-0.236817	0.252987
O80	O	2.103726	0.263183	0.752987
H81	H	1.605923	-0.131247	0.251977
H82	H	2.105923	0.368753	0.751977
H83	H	1.364192	-0.378428	-0.219962
H84	H	1.864192	0.121572	0.280038
H85	H	1.623676	0.035469	0.645796
H86	H	2.123676	0.535469	1.145796
O87	O	0.897780	0.310875	0.000003
O88	O	1.397780	0.810875	0.500003
H89	H	0.956447	0.317958	-0.098548
H90	H	1.456447	0.817958	0.401452
H91	H	1.407504	0.257564	0.593844
H92	H	1.907504	0.757564	1.093844
O93	O	1.385349	0.280348	0.426358
O94	O	1.885349	0.780348	0.926358
H95	H	1.287819	0.263511	0.397266
H96	H	1.787819	0.763511	0.897266
O97	O	1.603778	-0.236459	-0.252662
O98	O	2.103778	0.263541	0.247338
H99	H	1.553456	-0.264147	-0.351482
H100	H	2.053456	0.235853	0.148518
