data_functionalizedCrystal
_audit_creation_method	'MofGen! by Chris Wilmer'
_symmetry_space_group_name_H-M	'P1'
_symmetry_Int_Tables_number	1
_symmetry_cell_setting	triclinic
loop_
_symmetry_equiv_pos_as_xyz
  x,y,z
_cell_length_a	6.817900
_cell_length_b	19.263509
_cell_length_c	19.453103
_cell_angle_alpha	82.961669
_cell_angle_beta	101.709178
_cell_angle_gamma	81.428207
loop_
_atom_site_label
_atom_site_type_symbol
_atom_site_fract_x
_atom_site_fract_y
_atom_site_fract_z
V1	V	-3.963372	0.219331	-0.097934
O2	O	-3.961185	0.214820	0.003933
O3	O	-3.906577	0.218154	-0.193443
O4	O	-3.891315	0.314841	-0.096767
O5	O	-3.976553	0.117463	-0.093412
V6	V	-4.451153	0.207107	-0.085709
O7	O	-4.215290	0.246144	-0.124750
O8	O	-4.649433	0.180294	-0.058894
O9	O	-4.284741	0.208284	0.009799
O10	O	-4.570737	0.211618	-0.187576
O11	O	-4.555369	0.308975	-0.090231
O12	O	-4.300004	0.111597	-0.086877
C13	C	-3.750301	0.214777	-0.216715
C14	C	-3.784994	0.214451	-0.294797
C15	C	-3.982197	0.217811	-0.335064
C16	C	-4.014797	0.217512	-0.408431
C17	C	-3.850178	0.213839	-0.441527
C18	C	-3.652949	0.210483	-0.401251
C19	C	-3.620357	0.210789	-0.327886
N20	N	-3.752132	0.170553	-0.547643
N21	N	-3.783105	0.170261	-0.617336
C22	C	-3.948366	0.212919	-0.662571
N23	N	-4.081512	0.255871	-0.635478
N24	N	-4.050540	0.256160	-0.565778
C25	C	-3.885499	0.213508	-0.521078
C26	C	-4.180931	0.215955	-0.782391
C27	C	-4.213526	0.215661	-0.855761
C28	C	-3.851670	0.208625	-0.848577
C29	C	-3.819083	0.208927	-0.775211
C30	C	-3.983720	0.212589	-0.742122
C31	C	-4.123830	0.088324	-0.090251
C32	C	-4.080755	0.010241	-0.090570
C33	C	-3.886726	-0.022851	-0.094245
C34	C	-3.846257	-0.096218	-0.094549
C35	C	-3.999839	-0.136487	-0.091192
C36	C	-4.193893	-0.103387	-0.087512
C37	C	-4.234351	-0.030023	-0.087201
N38	N	-4.097729	-0.247940	-0.129251
N39	N	-4.059285	-0.317632	-0.129549
C40	C	-3.877950	-0.357530	-0.092127
N41	N	-3.736489	-0.325100	-0.054407
N42	N	-3.774934	-0.255401	-0.054113
C43	C	-3.955988	-0.216039	-0.091528
C44	C	-3.640026	-0.470174	-0.096132
C45	C	-3.599560	-0.543543	-0.096431
C46	C	-3.947207	-0.550710	-0.089401
C47	C	-3.987662	-0.477344	-0.089094
C48	C	-3.834067	-0.437079	-0.092463
C49	C	-3.730832	0.338110	-0.093395
C50	C	-3.753145	0.416193	-0.093072
C51	C	-4.104360	0.211659	0.033068
C52	C	-4.048904	0.211989	0.111149
H53	H	-3.459769	0.208054	-0.295101
H54	H	-3.717635	0.205639	-0.875523
H55	H	-4.392355	-0.003081	-0.084208
H56	H	-3.518918	0.207495	-0.428202
H57	H	-3.658499	0.206187	-0.742424
H58	H	-3.514955	-0.437390	-0.098869
H59	H	-4.116262	0.220797	-0.308128
O60	O	-3.737352	0.016207	-0.097386
C61	C	-3.572953	-0.009300	-0.038464
H62	H	-3.629464	-0.038374	0.006247
H63	H	-3.504339	0.037300	-0.019328
H64	H	-3.452121	-0.047449	-0.054663
O65	O	-3.410981	-0.575573	-0.100035
C66	C	-3.284091	-0.524302	-0.102925
H67	H	-3.381713	-0.469496	-0.124026
H68	H	-3.178172	-0.537532	-0.139754
H69	H	-3.189781	-0.524420	-0.047332
H70	H	-4.145663	-0.450400	-0.086105
O71	O	-4.096442	-0.589828	-0.086267
C72	C	-4.132154	-0.622750	-0.147376
H73	H	-4.079776	-0.591799	-0.192016
H74	H	-4.301791	-0.623480	-0.164797
H75	H	-4.043779	-0.679592	-0.134730
H76	H	-3.688241	-0.123168	-0.097531
H77	H	-4.175388	0.220247	-0.441223
O78	O	-4.343119	-0.142512	-0.084380
C79	C	-4.378836	-0.175430	-0.145490
H80	H	-4.326468	-0.144475	-0.190130
H81	H	-4.548472	-0.176162	-0.162909
H82	H	-4.290455	-0.232272	-0.132849
H83	H	-4.314988	0.218936	-0.755449
H84	H	-4.374117	0.218401	-0.888546
