data_functionalizedCrystal
_audit_creation_method	'MofGen! by Chris Wilmer'
_symmetry_space_group_name_H-M	'P1'
_symmetry_Int_Tables_number	1
_symmetry_cell_setting	triclinic
loop_
_symmetry_equiv_pos_as_xyz
  x,y,z
_cell_length_a	15.995350
_cell_length_b	16.992694
_cell_length_c	16.053802
_cell_angle_alpha	92.750953
_cell_angle_beta	92.567808
_cell_angle_gamma	92.919701
loop_
_atom_site_label
_atom_site_type_symbol
_atom_site_fract_x
_atom_site_fract_y
_atom_site_fract_z
O1	O	0.174244	-1.043694	-0.069318
O2	O	0.172295	-0.815410	-0.069342
O3	O	0.051799	-0.935792	-0.069329
O4	O	0.294739	-0.923312	-0.069332
O5	O	0.058403	-0.929166	0.069530
O6	O	0.178898	-0.808784	0.069516
O7	O	0.180847	-1.037068	0.069540
Zn8	Zn	0.180921	-0.921874	0.091575
Zn9	Zn	0.172221	-0.930604	-0.091377
O10	O	0.301343	-0.916685	0.069527
C11	C	0.173091	-0.782884	0.000083
C12	C	0.165614	-0.695841	0.000074
C13	C	0.023872	-0.931963	0.000099
C14	C	-0.069182	-0.930417	0.000094
C15	C	0.180051	-1.069593	0.000113
C16	C	0.187528	-1.156637	0.000117
C17	C	-0.407302	-0.924861	0.000096
C18	C	-0.365620	-0.839142	-0.000225
C19	C	-0.268811	-0.840674	0.000089
C20	C	-0.239557	-0.927617	0.000095
C21	C	-0.274034	-0.966120	0.079392
C22	C	-0.370810	-0.963963	0.079459
C23	C	-0.378559	-0.973269	-0.078449
C24	C	-0.281665	-0.973299	-0.079497
C25	C	-0.144755	-0.929179	0.000096
C26	C	-0.502103	-0.923302	0.000100
C27	C	0.329270	-0.920515	0.000097
C28	C	0.422324	-0.922061	0.000097
N29	N	0.186859	-0.915921	0.216434
C30	C	0.237749	-0.645600	0.000074
C31	C	0.230720	-0.563813	0.000085
C32	C	0.151555	-0.532268	0.000091
C33	C	0.079414	-0.582515	0.000094
C34	C	0.086444	-0.664300	0.000088
C35	C	0.122417	-0.288669	0.000114
C36	C	0.115392	-0.206878	0.000117
C37	C	0.266699	-0.188181	0.000110
C38	C	0.273722	-0.269969	0.000099
C39	C	0.201582	-0.320209	0.000106
N40	N	0.144368	-0.448669	0.000100
N41	N	0.208770	-0.403806	0.000103
N42	N	0.166277	-0.936563	-0.216236
C43	C	0.135608	-0.967163	0.260134
C44	C	0.139770	-0.963006	0.347541
C45	C	0.195187	-0.907611	0.391245
C46	C	0.246439	-0.856364	0.347539
C47	C	0.242273	-0.860518	0.260135
C48	C	0.213363	-0.889469	0.652653
C49	C	0.217528	-0.885321	0.740064
C50	C	0.110857	-0.991962	0.740059
C51	C	0.106699	-0.996114	0.652652
C52	C	0.157948	-0.944864	0.608954
N53	N	0.199444	-0.903363	0.480589
N54	N	0.153686	-0.949109	0.519612
H55	H	-0.245316	-0.810146	-0.056756
H56	H	0.098037	-1.004731	0.383120
H57	H	0.262658	-0.840209	0.775644
H58	H	-0.398675	-1.026736	0.083061
O59	O	-0.234960	-0.797412	0.067923
C60	C	-0.182645	-0.735032	0.041529
H61	H	-0.202224	-0.721528	-0.025211
H62	H	-0.188577	-0.680345	0.084398
H63	H	-0.114832	-0.752778	0.044059
H64	H	-0.384808	-0.802329	0.056318
O65	O	0.038536	-0.176139	0.000239
C66	C	0.033364	-0.125981	0.072167
H67	H	0.099137	-0.104470	0.096136
H68	H	-0.004367	-0.073196	0.055997
H69	H	0.001139	-0.159716	0.122529
O70	O	0.002500	-0.551907	0.000246
C71	C	-0.038395	-0.574174	0.072150
H72	H	0.010193	-0.588791	0.122416
H73	H	-0.076188	-0.523482	0.096290
H74	H	-0.082256	-0.628252	0.055890
H75	H	0.289461	-0.522910	0.000084
O76	O	0.016341	-0.713082	-0.000064
C77	C	-0.034831	-0.702194	-0.071967
H78	H	0.005109	-0.676631	-0.122232
H79	H	-0.065671	-0.761370	-0.096108
H80	H	-0.085311	-0.659780	-0.055704
H81	H	0.090486	-1.012274	0.224555
H82	H	0.338187	-0.295647	0.000085
H83	H	-0.403833	-0.948107	-0.138552
O84	O	0.052791	-1.049946	0.610329
C85	C	0.008462	-1.094296	0.667644
H86	H	0.008313	-1.059191	0.729954
H87	H	-0.058802	-1.107461	0.642395
H88	H	0.040026	-1.152098	0.676928
O89	O	0.336689	-0.139265	0.000147
C90	C	0.313512	-0.060315	0.000132
H91	H	0.248786	-0.055929	0.026421
H92	H	0.361074	-0.021345	0.040449
H93	H	0.311937	-0.039831	-0.066483
H94	H	0.069131	-1.033687	0.775646
O95	O	-0.258384	-1.049159	-0.085164
C96	C	-0.170637	-1.049831	-0.090106
H97	H	-0.140543	-0.991705	-0.062052
H98	H	-0.146231	-1.100751	-0.053986
H99	H	-0.154181	-1.057580	-0.158272
H100	H	0.255094	-0.847741	0.617081
H101	H	0.291558	-0.811257	0.383129
H102	H	0.063675	-0.329565	0.000120
O103	O	0.292145	-0.810708	0.217811
C104	C	0.341937	-0.760912	0.275127
H105	H	0.348026	-0.790097	0.337427
H106	H	0.406793	-0.750145	0.249864
H107	H	0.311258	-0.702227	0.284435
H108	H	0.302214	-0.671277	0.000068
O109	O	-0.393571	-0.801390	-0.068038
C110	C	-0.355070	-0.724790	-0.066455
H111	H	-0.293849	-0.722955	-0.027052
H112	H	-0.341518	-0.708649	-0.132809
H113	H	-0.398710	-0.680826	-0.038227
O114	O	-0.391846	-0.923718	0.150079
C115	C	-0.436319	-0.857551	0.128422
H116	H	-0.465845	-0.868079	0.062618
H117	H	-0.487599	-0.848007	0.174374
H118	H	-0.391477	-0.803066	0.130760
O119	O	-0.251813	-1.042130	0.082817
C120	C	-0.204678	-1.061691	0.013349
H121	H	-0.175191	-1.005523	-0.011464
H122	H	-0.153214	-1.101947	0.032970
H123	H	-0.247513	-1.093418	-0.037631
O124	O	-0.239131	-0.927614	0.149707
C125	C	-0.183506	-0.865897	0.127492
H126	H	-0.201393	-0.848146	0.061734
H127	H	-0.187343	-0.813011	0.173354
H128	H	-0.116805	-0.886626	0.129425
O129	O	-0.254779	-0.939734	-0.149403
C130	C	-0.198178	-0.875197	-0.126491
H131	H	-0.169534	-0.882808	-0.061254
H132	H	-0.146350	-0.872354	-0.172909
H133	H	-0.232880	-0.818243	-0.126785
O134	O	-0.411532	-1.048670	-0.078981
C135	C	-0.460310	-1.057700	-0.008718
H136	H	-0.481410	-0.997660	0.014126
H137	H	-0.517630	-1.098664	-0.026576
H138	H	-0.421335	-1.084079	0.043111
