data_functionalizedCrystal
_audit_creation_method	'MofGen! by Chris Wilmer'
_symmetry_space_group_name_H-M	'P1'
_symmetry_Int_Tables_number	1
_symmetry_cell_setting	triclinic
loop_
_symmetry_equiv_pos_as_xyz
  x,y,z
_cell_length_a	19.288840
_cell_length_b	27.731996
_cell_length_c	17.766277
_cell_angle_alpha	89.987644
_cell_angle_beta	89.983415
_cell_angle_gamma	82.873701
loop_
_atom_site_label
_atom_site_type_symbol
_atom_site_fract_x
_atom_site_fract_y
_atom_site_fract_z
O1	O	0.920972	0.060244	-0.062730
O2	O	1.420972	0.560244	0.437270
O3	O	0.718656	0.068391	-0.062705
O4	O	1.218656	0.568391	0.437295
O5	O	0.826116	-0.006063	-0.062702
O6	O	1.326116	0.493937	0.437298
O7	O	0.813512	0.134697	-0.062733
O8	O	1.313512	0.634697	0.437267
O9	O	0.826098	-0.006066	0.062487
O10	O	1.326098	0.493934	0.562487
O11	O	0.718637	0.068387	0.062484
O12	O	1.218637	0.568387	0.562484
O13	O	0.920953	0.060240	0.062459
O14	O	1.420953	0.560240	0.562459
Cu15	Cu	0.819794	0.064313	0.073902
Cu16	Cu	1.319794	0.564313	0.573902
Cu17	Cu	0.819816	0.064318	-0.074148
Cu18	Cu	1.319816	0.564318	0.425852
O19	O	0.813493	0.134693	0.062456
O20	O	1.313493	0.634693	0.562456
C21	C	0.692772	0.068129	-0.000107
C22	C	1.192772	0.568129	0.499893
C23	C	0.615672	0.067348	-0.000097
C24	C	1.115672	0.567348	0.499903
C25	C	0.579481	0.066975	-0.068339
C26	C	1.079481	0.566975	0.431661
C27	C	0.507039	0.066236	-0.068348
C28	C	1.007039	0.566236	0.431652
C29	C	0.470793	0.065860	-0.000111
C30	C	0.970793	0.565860	0.499889
C31	C	0.506992	0.066236	0.068140
C32	C	1.006992	0.566236	0.568140
C33	C	0.579432	0.066980	0.068147
C34	C	1.079432	0.566980	0.568147
C35	C	0.361649	0.036367	0.052164
C36	C	0.861649	0.536367	0.552164
C37	C	0.289211	0.035620	0.052154
C38	C	0.789211	0.535620	0.552154
C39	C	0.247364	0.063568	-0.000130
C40	C	0.747364	0.563568	0.499870
C41	C	0.277965	0.092256	-0.052417
C42	C	0.777965	0.592256	0.447583
C43	C	0.350404	0.093000	-0.052410
C44	C	0.850404	0.593000	0.447590
C45	C	0.392244	0.065054	-0.000111
C46	C	0.892244	0.565054	0.499889
C47	C	0.132623	0.062394	-0.068387
C48	C	0.632623	0.562394	0.431613
C49	C	0.060179	0.061658	-0.068393
C50	C	0.560179	0.561658	0.431607
C51	C	0.060134	0.061653	0.068097
C52	C	0.560134	0.561653	0.568097
C53	C	0.132576	0.062394	0.068101
C54	C	0.632576	0.562394	0.568101
C55	C	0.168816	0.062762	-0.000143
C56	C	0.668816	0.562762	0.499857
C57	C	0.825848	-0.024073	-0.000105
C58	C	1.325848	0.475927	0.499895
C59	C	0.825068	-0.077731	-0.000097
C60	C	1.325068	0.422269	0.499903
C61	C	0.820172	-0.410460	-0.068374
C62	C	1.320172	0.089540	0.431626
C63	C	0.817210	-0.612127	-0.068386
C64	C	1.317210	-0.112127	0.431614
O65	O	0.816806	-0.638197	-0.126423
O66	O	1.316806	-0.138197	0.373577
N67	N	0.816832	-0.637347	-0.000147
N68	N	1.316832	-0.137347	0.499853
C69	C	0.817190	-0.612147	0.068101
C70	C	1.317190	-0.112147	0.568101
O71	O	0.816793	-0.638225	0.126143
O72	O	1.316793	-0.138225	0.626143
C73	C	0.820146	-0.410481	0.068113
C74	C	1.320146	0.089519	0.568113
C75	C	0.820532	-0.385264	-0.000131
C76	C	1.320532	0.114736	0.499869
C77	C	0.820556	-0.385243	-0.136612
C78	C	1.320556	0.114757	0.363388
C79	C	0.821300	-0.334829	-0.136608
C80	C	1.321300	0.165171	0.363392
C81	C	0.821660	-0.309633	-0.068366
C82	C	1.321660	0.190367	0.431634
C83	C	0.821276	-0.334850	-0.000127
C84	C	1.321276	0.165150	0.499873
C85	C	0.820499	-0.385281	0.136360
C86	C	1.320499	0.114719	0.636360
C87	C	0.821237	-0.334861	0.136357
C88	C	1.321237	0.165139	0.636357
C89	C	0.821622	-0.309644	0.068113
C90	C	1.321622	0.190356	0.568113
C91	C	0.822380	-0.259241	0.068119
C92	C	1.322380	0.240759	0.568119
N93	N	0.822758	-0.234020	-0.000120
N94	N	1.322758	0.265980	0.499880
C95	C	0.822398	-0.259217	-0.068363
C96	C	1.322398	0.240783	0.431637
C97	C	0.815639	-0.718025	0.068090
C98	C	1.315639	-0.218025	0.568090
C99	C	0.814901	-0.768442	0.068087
C100	C	1.314901	-0.268442	0.568087
C101	C	0.814920	-0.768418	-0.068401
C102	C	1.314920	-0.268418	0.431599
C103	C	0.815663	-0.718001	-0.068397
C104	C	1.315663	-0.218001	0.431603
C105	C	0.816017	-0.692805	-0.000150
C106	C	1.316017	-0.192805	0.499850
C107	C	0.823961	-0.153345	-0.068350
C108	C	1.323961	0.346655	0.431650
C109	C	0.824708	-0.102927	-0.068340
C110	C	1.324708	0.397073	0.431660
C111	C	0.824686	-0.102955	0.068148
C112	C	1.324686	0.397045	0.568148
C113	C	0.823942	-0.153369	0.068138
C114	C	1.323942	0.346631	0.568138
C115	C	0.823578	-0.178562	-0.000117
C116	C	1.323578	0.321438	0.499883
O117	O	0.822776	-0.233139	0.126125
O118	O	1.322776	0.266861	0.626125
O119	O	0.822779	-0.233128	-0.126396
O120	O	1.322779	0.266872	0.373604
C121	C	0.819428	-0.460873	-0.068377
C122	C	1.319428	0.039127	0.431623
C123	C	0.819043	-0.486090	-0.000139
C124	C	1.319043	0.013910	0.499861
C125	C	0.819403	-0.460894	0.068104
C126	C	1.319403	0.039106	0.568104
C127	C	0.818305	-0.536507	-0.000142
C128	C	1.318305	-0.036507	0.499858
C129	C	0.817945	-0.561703	-0.068384
C130	C	1.317945	-0.061703	0.431616
C131	C	0.818323	-0.536483	-0.136624
C132	C	1.318323	-0.036483	0.363376
C133	C	0.819068	-0.486070	-0.136620
C134	C	1.319068	0.013930	0.363380
C135	C	0.819025	-0.486114	0.136343
C136	C	1.319025	0.013886	0.636343
C137	C	0.818282	-0.536528	0.136334
C138	C	1.318282	-0.036528	0.636334
C139	C	0.817922	-0.561724	0.068091
C140	C	1.317922	-0.061724	0.568091
C141	C	0.946838	0.060502	-0.000140
C142	C	1.446838	0.560502	0.499860
C143	C	1.023937	0.061283	-0.000156
C144	C	1.523937	0.561283	0.499844
C145	C	0.813761	0.152703	-0.000143
C146	C	1.313761	0.652703	0.499857
C147	C	0.814541	0.206362	-0.000155
C148	C	1.314541	0.706362	0.499845
N149	N	0.819783	0.064310	0.178032
N150	N	1.319783	0.564310	0.678032
N151	N	0.819832	0.064317	-0.178278
N152	N	1.319832	0.564317	0.321722
C153	C	0.867382	0.031358	0.217421
C154	C	1.367382	0.531358	0.717421
C155	C	0.867386	0.031356	0.296222
C156	C	1.367386	0.531356	0.796222
C157	C	0.819798	0.064314	0.335633
C158	C	1.319798	0.564314	0.835633
C159	C	0.772190	0.097268	0.296235
C160	C	1.272190	0.597268	0.796235
C161	C	0.772183	0.097266	0.217435
C162	C	1.272183	0.597266	0.717435
C163	C	0.810212	0.108358	0.460462
C164	C	1.310212	0.608358	0.960462
C165	C	0.810224	0.108360	0.539261
C166	C	1.310224	0.608360	1.039261
C167	C	0.819816	0.064319	0.578679
C168	C	1.319816	0.564319	1.078679
C169	C	0.829411	0.020274	0.539289
C170	C	1.329411	0.520274	1.039289
C171	C	0.829404	0.020272	0.460489
C172	C	1.329404	0.520272	0.960489
C173	C	0.819800	0.064319	0.421079
C174	C	1.319800	0.564319	0.921079
C175	C	0.867422	0.031362	0.703513
C176	C	1.367422	0.531362	1.203513
C177	C	0.867421	0.031359	0.782317
C178	C	1.367421	0.531359	1.282317
C179	C	0.772229	0.097276	0.782328
C180	C	1.272229	0.597276	1.282328
C181	C	0.772226	0.097275	0.703526
C182	C	1.272226	0.597275	1.203526
C183	C	0.819827	0.064318	0.664124
C184	C	1.319827	0.564318	1.164124
H185	H	0.477475	0.065931	0.123699
H186	H	0.977475	0.565931	0.623699
H187	H	0.821611	-0.314302	-0.192180
H188	H	1.321611	0.185698	0.307820
N189	N	0.839767	-0.027234	0.581786
N190	N	1.339767	0.472766	1.081786
H191	H	0.797618	-0.030033	0.614498
H192	H	1.297618	0.469967	1.114498
H193	H	0.845864	-0.055102	0.544821
H194	H	1.345864	0.444898	1.044821
H195	H	0.814598	-0.788970	0.123658
H196	H	1.314598	-0.288970	0.623658
N197	N	0.918774	-0.004175	0.824804
N198	N	1.418774	0.495825	1.324804
H199	H	0.948930	-0.025047	0.787882
H200	H	1.448930	0.474953	1.287882
H201	H	0.949266	0.014289	0.857471
H202	H	1.449266	0.514289	1.357471
H203	H	0.733422	0.124100	0.185364
H204	H	1.233422	0.624100	0.685364
N205	N	0.720891	0.132823	0.661046
N206	N	1.220891	0.632823	1.161046
H207	H	0.747193	0.154177	0.628332
H208	H	1.247193	0.654177	1.128332
H209	H	0.690349	0.114374	0.628416
H210	H	1.190349	0.614374	1.128416
H211	H	0.608898	0.067284	0.123720
H212	H	1.108898	0.567284	0.623720
H213	H	0.375316	0.116361	-0.094982
H214	H	0.875316	0.616361	0.405018
N215	N	0.406781	0.006223	0.108562
N216	N	0.906781	0.506223	0.608562
H217	H	0.376407	-0.012067	0.141678
H218	H	0.876407	0.487933	0.641678
H219	H	0.441664	-0.017652	0.081015
H220	H	0.941664	0.482348	0.581015
N221	N	0.918731	-0.004181	0.338722
N222	N	1.418731	0.495819	0.838722
H223	H	0.892433	-0.025536	0.371439
H224	H	1.392433	0.474464	0.871439
H225	H	0.948873	-0.025026	0.301759
H226	H	1.448873	0.474974	0.801759
H227	H	0.906179	0.004526	0.671431
H228	H	1.406179	0.504526	1.171431
N229	N	0.799871	0.155864	0.581742
N230	N	1.299871	0.655864	1.081742
H231	H	0.838249	0.175952	0.568003
H232	H	1.338249	0.675952	1.068003
H233	H	0.753072	0.174243	0.568022
H234	H	1.253072	0.674243	1.068022
H235	H	0.825024	-0.082398	-0.123915
H236	H	1.325024	0.417602	0.376085
N237	N	0.171717	0.062793	-0.141988
N238	N	0.671717	0.562793	0.358012
H239	H	0.137794	0.062449	-0.185222
H240	H	0.637794	0.562449	0.314778
H241	H	0.195809	0.093060	-0.144963
H242	H	0.695809	0.593060	0.355037
H243	H	0.264303	0.012257	0.094725
H244	H	0.764303	0.512257	0.594725
N245	N	0.823543	-0.180569	0.141744
N246	N	1.323543	0.319431	0.641744
H247	H	0.866310	-0.205505	0.144777
H248	H	1.366310	0.294495	0.644777
H249	H	0.823864	-0.156920	0.184928
H250	H	1.323864	0.343080	0.684928
H251	H	0.733479	0.124109	0.814415
H252	H	1.233479	0.624109	1.314415
H253	H	0.608984	0.067275	-0.123909
H254	H	1.108984	0.567275	0.376091
N255	N	0.816026	-0.690853	0.141704
N256	N	1.316026	-0.190853	0.641704
H257	H	0.815678	-0.714485	0.184927
H258	H	1.315678	-0.214485	0.684927
H259	H	0.859410	-0.673954	0.144674
H260	H	1.359410	-0.173954	0.644674
N261	N	0.467993	0.065834	-0.141954
N262	N	0.967993	0.565834	0.358046
H263	H	0.501943	0.066181	-0.185185
H264	H	1.001943	0.566181	0.314815
H265	H	0.443908	0.035565	-0.144917
H266	H	0.943908	0.535565	0.355083
N267	N	0.823588	-0.180515	-0.141965
N268	N	1.323588	0.319485	0.358035
H269	H	0.823952	-0.156885	-0.185187
H270	H	1.323952	0.343115	0.314813
H271	H	0.866363	-0.205446	-0.144931
H272	H	1.366363	0.294554	0.355069
H273	H	0.837214	-0.015591	0.428421
H274	H	1.337214	0.484409	0.928421
H275	H	0.820260	-0.405752	-0.192186
H276	H	1.320260	0.094248	0.307814
H277	H	0.818034	-0.557007	-0.192189
H278	H	1.318034	-0.057007	0.307811
H279	H	0.815975	-0.697472	-0.123968
H280	H	1.315975	-0.197472	0.376032
H281	H	0.030713	0.061357	-0.123966
H282	H	0.530713	0.561357	0.376034
H283	H	0.802389	0.144224	0.428374
H284	H	1.302389	0.644224	0.928374
H285	H	0.243893	0.115016	-0.094990
H286	H	0.743893	0.615016	0.405010
H287	H	0.733442	0.124102	0.328327
H288	H	1.233442	0.624102	0.828327
H289	H	0.030622	0.061350	0.123657
H290	H	0.530622	0.561350	0.623657
H291	H	0.162043	0.062695	0.123671
H292	H	0.662043	0.562695	0.623671
N293	N	0.814533	-0.795598	-0.142007
N294	N	1.314533	-0.295598	0.357993
H295	H	0.814007	-0.831363	-0.131647
H296	H	1.314007	-0.331363	0.368353
H297	H	0.771587	-0.782766	-0.171798
H298	H	1.271587	-0.282766	0.328202
H299	H	0.820187	-0.405804	0.191932
H300	H	1.320187	0.094196	0.691932
N301	N	0.821630	-0.307689	0.209970
N302	N	1.321630	0.192311	0.709970
H303	H	0.822160	-0.271923	0.199623
H304	H	1.322160	0.228077	0.699623
H305	H	0.778419	-0.312487	0.239774
H306	H	1.278419	0.187513	0.739774
N307	N	0.825080	-0.075775	0.141749
N308	N	1.325080	0.424225	0.641749
H309	H	0.825608	-0.040011	0.131390
H310	H	1.325608	0.459989	0.631390
H311	H	0.781869	-0.080571	0.171554
H312	H	1.281869	0.419429	0.671554
H313	H	0.819381	-0.465542	-0.192191
H314	H	1.319381	0.034458	0.307809
N315	N	0.817872	-0.563721	0.209948
N316	N	1.317872	-0.063721	0.709948
H317	H	0.774920	-0.550928	0.239782
H318	H	1.274920	-0.050928	0.739782
H319	H	0.817372	-0.599477	0.199538
H320	H	1.317372	-0.099477	0.699538
N321	N	0.819416	-0.458943	0.209951
N322	N	1.319416	0.041057	0.709951
H323	H	0.819065	-0.482574	0.253175
H324	H	1.319065	0.017426	0.753175
H325	H	0.862803	-0.442047	0.212920
H326	H	1.362803	0.057953	0.712920
H327	H	0.906139	0.004522	0.185341
H328	H	1.406139	0.504522	0.685341
