data_functionalizedCrystal
_audit_creation_method	'MofGen! by Chris Wilmer'
_symmetry_space_group_name_H-M	'P1'
_symmetry_Int_Tables_number	1
_symmetry_cell_setting	triclinic
loop_
_symmetry_equiv_pos_as_xyz
  x,y,z
_cell_length_a	13.897449
_cell_length_b	12.594516
_cell_length_c	13.897441
_cell_angle_alpha	89.974595
_cell_angle_beta	89.981404
_cell_angle_gamma	90.017332
loop_
_atom_site_label
_atom_site_type_symbol
_atom_site_fract_x
_atom_site_fract_y
_atom_site_fract_z
Zn1	Zn	1.474693	-0.423682	-0.545409
Zn2	Zn	1.474598	-0.601690	-0.384123
Zn3	Zn	1.313388	-0.423730	-0.384128
Zn4	Zn	1.313369	-0.601623	-0.545375
O5	O	1.394012	-0.512681	-0.464759
O6	O	1.609662	-0.447303	-0.524027
O7	O	1.453181	-0.578131	-0.249142
O8	O	1.334834	-0.274778	-0.405539
O9	O	1.609592	-0.578085	-0.405530
O10	O	1.453344	-0.274743	-0.524032
O11	O	1.334742	-0.447384	-0.249145
O12	O	1.178404	-0.447320	-0.405506
O13	O	1.334800	-0.577971	-0.680362
O14	O	1.178390	-0.578017	-0.523973
O15	O	1.453325	-0.447238	-0.680387
O16	O	1.453162	-0.750627	-0.405497
O17	O	1.334708	-0.750578	-0.523968
C18	C	1.143398	-0.512667	-0.464737
C19	C	1.036184	-0.512686	-0.464750
C20	C	1.393949	-0.789222	-0.464749
C21	C	1.394010	-0.907528	-0.464778
C22	C	0.839889	-0.512690	-0.464776
C23	C	0.949121	-0.512685	-0.464759
C24	C	1.329576	-0.976793	-0.529169
C25	C	1.306076	-1.047657	-0.441152
C26	C	1.417598	-1.047462	-0.552810
C27	C	1.370463	-0.976834	-0.376714
C28	C	1.482026	-0.976632	-0.488431
C29	C	1.458559	-1.047465	-0.400353
C30	C	1.645605	-0.512696	-0.464781
C31	C	1.752819	-0.512703	-0.464791
C32	C	1.394071	-0.512592	-0.716352
C33	C	1.394096	-0.512554	-0.823566
C34	C	1.394102	-0.235060	-0.464789
C35	C	1.394140	-0.116755	-0.464802
C36	C	1.394116	-0.512524	-0.910636
C37	C	1.394144	-0.512476	-1.019868
C38	C	1.394009	-0.512693	-0.214145
C39	C	1.394170	-0.512432	-0.106931
H40	H	1.231703	-1.078878	-0.421166
C41	C	1.343781	-0.935440	-0.277510
C42	C	1.343960	-0.824277	-0.278672
C43	C	1.319369	-0.786107	-0.187310
H44	H	1.389271	-0.960089	-0.231660
H45	H	1.281474	-0.960291	-0.260605
H46	H	1.406258	-0.799436	-0.295565
H47	H	1.298468	-0.799600	-0.324503
H48	H	1.257061	-0.810958	-0.170405
H49	H	1.364862	-0.810763	-0.141467
H50	H	1.319478	-0.710680	-0.188089
H51	H	1.513104	-1.078301	-0.345847
H52	H	1.556382	-0.945415	-0.508459
C53	C	1.444005	-1.088684	-0.652146
C54	C	1.376251	-1.052852	-0.719248
C55	C	1.400544	-1.090789	-0.810769
H56	H	1.444421	-1.164100	-0.651432
H57	H	1.506027	-1.063289	-0.669434
H58	H	1.314245	-1.078253	-0.701965
H59	H	1.375825	-0.977441	-0.719992
H60	H	1.462567	-1.065393	-0.828057
H61	H	1.400961	-1.166203	-0.810045
H62	H	1.354583	-1.066474	-0.856310
H63	H	1.274990	-0.945760	-0.583543
