data_functionalizedCrystal
_audit_creation_method	'MofGen! by Chris Wilmer'
_symmetry_space_group_name_H-M	'P1'
_symmetry_Int_Tables_number	1
_symmetry_cell_setting	triclinic
loop_
_symmetry_equiv_pos_as_xyz
  x,y,z
_cell_length_a	14.519731
_cell_length_b	13.596369
_cell_length_c	11.792254
_cell_angle_alpha	90.006156
_cell_angle_beta	83.943725
_cell_angle_gamma	90.005416
loop_
_atom_site_label
_atom_site_type_symbol
_atom_site_fract_x
_atom_site_fract_y
_atom_site_fract_z
O1	O	1.224407	0.081794	0.148896
O2	O	1.474407	0.331794	0.398896
O3	O	1.724407	0.581794	0.648896
O4	O	1.974407	0.831794	0.898896
O5	O	0.955997	0.081796	0.166392
O6	O	1.205997	0.331796	0.416392
O7	O	1.455997	0.581796	0.666392
O8	O	1.705997	0.831796	0.916392
O9	O	1.096709	0.081788	-0.007561
O10	O	1.346709	0.331788	0.242439
O11	O	1.596709	0.581788	0.492439
O12	O	1.846709	0.831788	0.742439
O13	O	1.083695	0.081802	0.322849
O14	O	1.333695	0.331802	0.572849
O15	O	1.583695	0.581802	0.822849
O16	O	1.833695	0.831802	1.072849
O17	O	1.096695	-0.081795	-0.007570
O18	O	1.346695	0.168205	0.242430
O19	O	1.596695	0.418205	0.492430
O20	O	1.846695	0.668205	0.742430
O21	O	0.955983	-0.081787	0.166383
O22	O	1.205983	0.168213	0.416383
O23	O	1.455983	0.418213	0.666383
O24	O	1.705983	0.668213	0.916383
O25	O	1.224393	-0.081789	0.148887
O26	O	1.474393	0.168211	0.398887
O27	O	1.724393	0.418211	0.648887
O28	O	1.974393	0.668211	0.898887
Zn29	Zn	1.090186	-0.107760	0.157634
Zn30	Zn	1.340186	0.142240	0.407634
Zn31	Zn	1.590186	0.392240	0.657634
Zn32	Zn	1.840186	0.642240	0.907634
Zn33	Zn	1.090204	0.107767	0.157646
Zn34	Zn	1.340204	0.357767	0.407646
Zn35	Zn	1.590204	0.607767	0.657646
Zn36	Zn	1.840204	0.857767	0.907646
O37	O	1.083680	-0.081781	0.322840
O38	O	1.333680	0.168219	0.572840
O39	O	1.583680	0.418219	0.822840
O40	O	1.833680	0.668219	1.072840
C41	C	0.921628	0.000004	0.165568
C42	C	1.171628	0.250004	0.415568
C43	C	1.421628	0.500004	0.665568
C44	C	1.671628	0.750004	0.915568
C45	C	0.819238	0.000005	0.163111
C46	C	1.069238	0.250005	0.413111
C47	C	1.319238	0.500005	0.663111
C48	C	1.569238	0.750005	0.913111
N49	N	1.090180	-0.254852	0.157625
N50	N	1.340180	-0.004852	0.407625
N51	N	1.590180	0.245148	0.657625
N52	N	1.840180	0.495148	0.907625
C53	C	0.736087	0.000009	0.161115
C54	C	0.986087	0.250009	0.411115
C55	C	1.236087	0.500009	0.661115
C56	C	1.486087	0.750009	0.911115
C57	C	0.631769	0.000009	0.158621
C58	C	0.881769	0.250009	0.408621
C59	C	1.131769	0.500009	0.658621
C60	C	1.381769	0.750009	0.908621
C61	C	0.548623	0.000009	0.156641
C62	C	0.798623	0.250009	0.406641
C63	C	1.048623	0.500009	0.656641
C64	C	1.298623	0.750009	0.906641
C65	C	0.444298	0.000011	0.154148
C66	C	0.694298	0.250011	0.404148
C67	C	0.944298	0.500011	0.654148
C68	C	1.194298	0.750011	0.904148
C69	C	1.090203	-0.656143	0.157647
C70	C	1.340203	-0.406143	0.407647
C71	C	1.590203	-0.156143	0.657647
C72	C	1.840203	0.093857	0.907647
C73	C	1.090194	-0.544492	0.157645
C74	C	1.340194	-0.294492	0.407645
C75	C	1.590194	-0.044492	0.657645
C76	C	1.840194	0.205508	0.907645
C77	C	1.090192	-0.455501	0.157637
C78	C	1.340192	-0.205501	0.407637
C79	C	1.590192	0.044499	0.657637
C80	C	1.840192	0.294499	0.907637
C81	C	1.090182	-0.343843	0.157632
C82	C	1.340182	-0.093843	0.407632
C83	C	1.590182	0.156157	0.657632
C84	C	1.840182	0.406157	0.907632
C85	C	1.258762	0.000005	0.149712
C86	C	1.508762	0.250005	0.399712
C87	C	1.758762	0.500005	0.649712
C88	C	2.008762	0.750005	0.899712
C89	C	1.361152	0.000011	0.152168
C90	C	1.611152	0.250011	0.402168
C91	C	1.861152	0.500011	0.652168
C92	C	2.111152	0.750011	0.902168
C93	C	1.095883	-0.000003	-0.049852
C94	C	1.345883	0.249997	0.200148
C95	C	1.595883	0.499997	0.450148
C96	C	1.845883	0.749997	0.700148
C97	C	1.093429	-0.000002	-0.175851
C98	C	1.343429	0.249998	0.074149
C99	C	1.593429	0.499998	0.324149
C100	C	1.843429	0.749998	0.574149
N101	N	1.090217	0.254859	0.157646
N102	N	1.340217	0.504859	0.407646
N103	N	1.590217	0.754859	0.657646
N104	N	1.840217	1.004859	0.907646
C105	C	1.091435	0.000001	-0.278177
C106	C	1.341435	0.250001	-0.028177
C107	C	1.591435	0.500001	0.221823
C108	C	1.841435	0.750001	0.471823
C109	C	1.088942	0.000010	-0.406550
C110	C	1.338942	0.250010	-0.156550
C111	C	1.588942	0.500010	0.093450
C112	C	1.838942	0.750010	0.343450
C113	C	1.084507	0.000012	0.365131
C114	C	1.334507	0.250012	0.615131
C115	C	1.584507	0.500012	0.865131
C116	C	1.834507	0.750012	1.115131
C117	C	1.086961	0.000018	0.491131
C118	C	1.336961	0.250018	0.741131
C119	C	1.586961	0.500018	0.991131
C120	C	1.836961	0.750018	1.241131
