data_functionalizedCrystal
_audit_creation_method	'MofGen! by Chris Wilmer'
_symmetry_space_group_name_H-M	'P1'
_symmetry_Int_Tables_number	1
_symmetry_cell_setting	triclinic
loop_
_symmetry_equiv_pos_as_xyz
  x,y,z
_cell_length_a	10.723024
_cell_length_b	10.489741
_cell_length_c	9.798715
_cell_angle_alpha	89.997135
_cell_angle_beta	89.996609
_cell_angle_gamma	84.503522
loop_
_atom_site_label
_atom_site_type_symbol
_atom_site_fract_x
_atom_site_fract_y
_atom_site_fract_z
O1	O	1.657297	0.178906	-0.113481
O2	O	1.294155	0.196031	-0.113486
O3	O	1.483989	0.001865	-0.113475
O4	O	1.467463	0.373072	-0.113492
O5	O	1.483975	0.001865	0.113507
O6	O	1.294141	0.196030	0.113496
O7	O	1.657283	0.178906	0.113501
Zn8	Zn	1.475709	0.187468	0.149537
Zn9	Zn	1.475728	0.187469	-0.149522
O10	O	1.467448	0.373071	0.113490
C11	C	1.247647	0.194785	0.000005
C12	C	1.109091	0.191056	0.000003
C13	C	1.034175	0.299701	-0.000003
C14	C	0.890969	0.295850	-0.000004
C15	C	1.482734	-0.045666	0.000015
C16	C	1.478999	-0.187293	0.000012
C17	C	1.358213	-0.255356	0.000001
C18	C	1.415265	-0.347515	0.111915
C19	C	1.415307	-0.347489	-0.111871
C20	C	1.536100	-0.277587	0.112019
C21	C	1.536126	-0.277551	-0.111868
C22	C	1.593265	-0.369683	0.000074
C23	C	1.703790	0.180152	0.000007
C24	C	1.842347	0.183881	-0.000000
C25	C	1.468704	0.420602	-0.000003
C26	C	1.472438	0.562229	-0.000009
N27	N	1.475706	0.187467	0.353637
N28	N	1.475742	0.187460	-0.353622
C29	C	1.555412	0.105583	0.421418
C30	C	1.555432	0.105578	0.578581
H31	H	1.067210	0.095190	-0.000028
H32	H	1.692663	-0.419171	0.000138
H33	H	1.623632	0.035476	0.363099
H34	H	1.364191	-0.378420	-0.206495
C35	C	1.224056	-0.188182	0.000153
N36	N	1.123012	-0.137583	0.000277
H37	H	0.826593	0.388858	-0.000015
H38	H	1.407476	0.257563	0.411957
H39	H	1.364151	-0.378494	0.206530
H40	H	1.623676	0.035479	0.636870
H41	H	1.587196	-0.246539	-0.206487
C42	C	1.383546	0.282174	0.567644
N43	N	1.314102	0.353512	0.508330
C44	C	0.929305	0.058220	0.000010
N45	N	0.994811	-0.036428	0.000021
C46	C	1.605071	-0.235982	0.239988
N47	N	1.657014	-0.204642	0.336376
H48	H	1.076055	0.395567	0.000001
