data_functionalizedCrystal
_audit_creation_method	'MofGen! by Chris Wilmer'
_symmetry_space_group_name_H-M	'P1'
_symmetry_Int_Tables_number	1
_symmetry_cell_setting	triclinic
loop_
_symmetry_equiv_pos_as_xyz
  x,y,z
_cell_length_a	10.654545
_cell_length_b	9.130313
_cell_length_c	10.654550
_cell_angle_alpha	90.004369
_cell_angle_beta	84.484005
_cell_angle_gamma	90.003066
loop_
_atom_site_label
_atom_site_type_symbol
_atom_site_fract_x
_atom_site_fract_y
_atom_site_fract_z
O1	O	1.667843	0.121784	0.176372
O2	O	1.302364	0.121790	0.193184
O3	O	1.493506	0.121778	0.002038
O4	O	1.476700	0.121797	0.367517
O5	O	1.493493	-0.121821	0.002033
O6	O	1.302350	-0.121808	0.193178
O7	O	1.667830	-0.121814	0.176366
Cu8	Cu	1.485089	-0.144054	0.184772
Cu9	Cu	1.485104	0.144030	0.184778
O10	O	1.476687	-0.121802	0.367511
C11	C	1.255559	-0.000008	0.191948
C12	C	1.116115	-0.000006	0.188258
N13	N	1.485087	-0.346677	0.184766
C14	C	1.050604	-0.132793	0.186518
C15	C	0.919584	-0.132793	0.183030
C16	C	0.919599	0.132792	0.183028
C17	C	1.050617	0.132791	0.186507
C18	C	1.569754	-0.423334	0.100163
C19	C	1.569766	-0.576671	0.100163
C20	C	1.400440	-0.576679	0.269381
C21	C	1.400423	-0.423345	0.269374
C22	C	1.714634	-0.000013	0.177602
C23	C	1.854078	-0.000005	0.181292
C24	C	1.492266	-0.000021	-0.044762
C25	C	1.488574	-0.000018	-0.184206
N26	N	1.485116	0.346653	0.184774
C27	C	1.601115	-0.000020	-0.263693
C28	C	1.597639	-0.000002	-0.394714
C29	C	1.369069	0.000013	-0.366747
C30	C	1.372547	0.000005	-0.235729
C31	C	1.477927	-0.000000	0.414312
C32	C	1.481619	0.000007	0.553755
H33	H	1.103928	-0.240924	0.187944
Cl34	Cl	0.837232	-0.299733	0.180845
Cl35	Cl	0.837254	0.299727	0.180796
Cl36	Cl	1.739127	-0.000000	-0.494636
Cl37	Cl	1.231054	0.000020	-0.135794
Cl38	Cl	1.746977	-0.000046	-0.198925
H39	H	1.274604	0.000029	-0.408713
Cl40	Cl	1.132983	0.299736	0.188684
H41	H	1.638690	-0.360914	0.031269
Cl42	Cl	1.676206	-0.673036	-0.006202
Cl43	Cl	1.294015	-0.673070	0.375745
H44	H	1.331471	-0.360927	0.338268
