data_functionalizedCrystal
_audit_creation_method	'MofGen! by Chris Wilmer'
_symmetry_space_group_name_H-M	'P1'
_symmetry_Int_Tables_number	1
_symmetry_cell_setting	triclinic
loop_
_symmetry_equiv_pos_as_xyz
  x,y,z
_cell_length_a	19.902436
_cell_length_b	14.560438
_cell_length_c	14.560438
_cell_angle_alpha	60.000769
_cell_angle_beta	89.997635
_cell_angle_gamma	59.999250
loop_
_atom_site_label
_atom_site_type_symbol
_atom_site_fract_x
_atom_site_fract_y
_atom_site_fract_z
Zr1	Zr	0.647198	1.005429	-0.120647
O2	O	0.539908	1.197021	-0.267281
O3	O	0.680094	0.813824	-0.075694
O4	O	0.680083	1.005434	-0.267300
O5	O	0.539921	1.005412	0.075464
O6	O	0.790649	1.005452	-0.267317
O7	O	0.539919	1.005412	-0.075675
O8	O	0.790668	0.662697	0.075431
O9	O	0.539902	1.348167	-0.267284
O10	O	0.776631	0.892652	-0.056538
O11	O	0.694118	0.892639	0.056269
O12	O	0.694105	1.118235	-0.169322
O13	O	0.611593	1.118222	-0.056516
Zr14	Zr	0.823540	1.005458	0.120374
Zr15	Zr	0.823538	1.005457	-0.120676
Zr16	Zr	0.647201	1.005430	0.120402
Zr17	Zr	0.647187	1.246489	-0.120652
Zr18	Zr	0.823551	0.764399	0.120379
O19	O	0.790644	1.197063	0.075421
O20	O	0.790641	1.197062	-0.267321
O21	O	0.539912	1.197023	0.075461
O22	O	0.930830	0.813866	0.267008
O23	O	0.930826	0.813865	-0.075734
O24	O	0.680098	0.813825	0.267048
O25	O	0.930818	1.005475	-0.075738
O26	O	0.790655	1.005453	0.267027
O27	O	0.680089	1.005436	0.267044
O28	O	0.930820	1.005475	0.075402
O29	O	0.680068	1.348190	-0.267306
O30	O	0.790670	0.662698	0.267033
O31	O	0.930837	0.662720	0.267010
O32	O	0.930835	0.662719	0.075408
O33	O	0.539904	1.348168	-0.075681
O34	O	0.680070	1.348190	-0.075704
O35	O	0.776633	0.892653	0.169049
O36	O	0.859146	0.892665	0.056242
O37	O	0.776621	1.118248	-0.056542
O38	O	0.694108	1.118235	0.056265
C39	C	0.735383	0.703915	-0.000131
C40	C	0.735387	0.601579	-0.000129
C41	C	0.796278	0.374097	0.083117
C42	C	0.796298	0.470232	0.083123
C43	C	0.674458	0.636790	-0.083399
C44	C	0.674442	0.540656	-0.083408
C45	C	0.514795	1.005408	-0.000101
C46	C	0.439934	1.005396	-0.000089
C47	C	0.167886	1.005460	-0.000152
C48	C	0.248435	0.863158	0.070656
C49	C	0.326338	0.863069	0.071054
C50	C	0.302853	1.005427	-0.000121
C51	C	0.248731	1.076098	0.051770
C52	C	0.171169	1.075188	0.052288
C53	C	0.170027	1.078110	-0.122881
C54	C	0.248905	1.075436	-0.122687
C55	C	0.379127	1.005416	-0.000104
C56	C	0.091610	1.005475	-0.000165
C57	C	0.955943	1.005479	-0.000172
C58	C	1.030804	1.005491	-0.000184
C59	C	0.735366	1.005443	-0.301653
C60	C	0.735365	1.005442	-0.403985
C61	C	0.735356	1.306972	-0.000142
C62	C	0.735351	1.409309	-0.000144
C63	C	0.674458	1.005435	-0.548214
C64	C	0.674455	1.005429	-0.452059
C65	C	0.796286	1.005448	-0.452064
C66	C	0.796292	1.005445	-0.548213
C67	C	0.735373	1.005445	0.301380
C68	C	0.735374	1.005445	0.403712
C69	C	0.955957	0.703950	-0.000166
C70	C	1.030822	0.601626	-0.000176
C71	C	0.735386	0.703916	0.301385
C72	C	0.735392	0.601580	0.403719
C73	C	0.955960	0.703951	0.301350
C74	C	1.030827	0.601627	0.403672
C75	C	0.514778	1.306936	-0.301623
C76	C	0.439912	1.409260	-0.403945
C77	C	0.514782	1.306937	-0.000107
C78	C	0.439916	1.409261	-0.000097
C79	C	0.735352	1.306971	-0.301659
C80	C	0.735347	1.409307	-0.403992
C81	C	1.022908	0.553566	-0.059061
C82	C	1.093245	0.457435	-0.059093
C83	C	1.171496	0.409359	-0.000233
C84	C	1.179409	0.457428	0.058654
C85	C	1.109072	0.553564	0.058678
C86	C	1.109063	0.553582	0.392839
C87	C	1.179415	0.457451	0.488972
C88	C	1.171528	0.409361	0.595937
C89	C	1.093284	0.457416	0.606767
C90	C	1.022934	0.553552	0.510635
C91	C	0.361676	1.457317	-0.393112
C92	C	0.291324	1.553477	-0.489245
C93	C	0.299210	1.601572	-0.596210
C94	C	0.377455	1.553511	-0.607040
C95	C	0.447805	1.457359	-0.510908
C96	C	0.447831	1.457331	0.058778
C97	C	0.377494	1.553488	0.058784
C98	C	0.299243	1.601568	-0.000080
C99	C	0.291330	1.553494	-0.058962
C100	C	0.361666	1.457345	-0.058973
C101	C	0.778466	0.553508	0.510666
C102	C	0.778462	0.457361	0.606816
C103	C	0.692309	0.457364	0.489058
C104	C	0.692308	0.553515	0.392911
H105	H	0.845911	0.441550	0.150922
H106	H	0.813544	0.592643	0.519473
C107	C	0.205266	1.606316	-0.477312
H108	H	0.210651	1.563879	-0.399838
H109	H	0.176026	1.697088	-0.512350
H110	H	0.176034	1.590550	-0.512371
H111	H	1.228819	0.331082	0.674204
C112	C	1.084530	0.404562	-0.123859
H113	H	1.137623	0.340431	-0.115461
H114	H	1.055310	0.367044	-0.094764
H115	H	1.055290	0.473599	-0.201318
H116	H	0.813536	0.418227	0.693893
C117	C	0.607457	0.781267	-0.174973
H118	H	0.616186	0.833480	-0.163037
H119	H	0.609974	0.799734	-0.246858
H120	H	0.554869	0.799724	-0.171503
C121	C	1.248858	0.303601	-0.000258
H122	H	1.232930	0.281860	-0.043751
H123	H	1.280685	0.335106	-0.031785
H124	H	1.280680	0.228572	0.074756
C125	C	1.084615	0.404513	0.724428
H126	H	1.027945	0.446896	0.717124
H127	H	1.110278	0.313735	0.764377
H128	H	1.110266	0.420290	0.764369
H129	H	0.355239	1.418163	-0.306025
H130	H	0.657233	0.418217	0.480272
C131	C	0.352950	1.404462	-0.123724
H132	H	0.296272	1.446863	-0.158764
H133	H	0.378593	1.420211	-0.179450
H134	H	0.378594	1.313684	-0.072893
C135	C	0.221880	1.707326	-0.000055
H136	H	0.237808	1.729053	0.043451
H137	H	0.190051	1.782351	-0.075060
H138	H	0.190061	1.675802	0.031488
H139	H	0.959233	0.592658	0.519471
C140	C	0.249456	0.788075	0.192222
H141	H	0.201008	0.843074	0.200014
H142	H	0.251579	0.714510	0.208940
H143	H	0.296406	0.760339	0.242712
C144	C	0.644920	0.606404	0.275262
H145	H	0.619270	0.563999	0.282594
H146	H	0.604162	0.697178	0.235320
H147	H	0.682102	0.590645	0.235300
H148	H	0.845875	0.267151	0.150916
C149	C	0.533862	1.404456	-0.522832
H150	H	0.574637	1.340295	-0.450266
H151	H	0.539995	1.366965	-0.562791
H152	H	0.540049	1.473469	-0.562787
C153	C	0.607418	0.579390	-0.174998
H154	H	0.571138	0.671382	-0.224576
H155	H	0.632433	0.545346	-0.216132
H156	H	0.577324	0.545349	-0.140782
C157	C	0.379565	0.788159	0.024047
H158	H	0.353665	0.757503	0.004539
H159	H	0.385671	0.844219	-0.040884
H160	H	0.432198	0.716515	0.079503
H161	H	0.227609	1.592655	-0.106887
C162	C	0.386208	1.606356	0.123555
H163	H	0.333115	1.670520	0.115124
H164	H	0.415436	1.537330	0.201011
H165	H	0.415442	1.643860	0.094466
H166	H	1.243130	0.418271	0.106575
H167	H	0.383866	1.592683	-0.694142
C168	C	0.379079	0.787704	0.193354
H169	H	0.352917	0.757034	0.242987
H170	H	0.431785	0.716068	0.209725
H171	H	0.385058	0.843531	0.202809
C172	C	0.171435	1.007335	0.174288
H173	H	0.218853	0.980579	0.223068
H174	H	0.123398	1.065985	0.179837
H175	H	0.172239	0.933556	0.195234
H176	H	0.250132	0.807299	0.036033
H177	H	0.114127	1.179593	0.004047
H178	H	0.241920	1.679865	-0.674477
C179	C	0.533898	1.404459	0.123535
H180	H	0.528526	1.446879	0.158586
H181	H	0.563132	1.313686	0.179253
H182	H	0.563127	1.420226	0.072704
C183	C	0.863301	1.005459	-0.601100
H184	H	0.899574	1.005478	-0.558708
H185	H	0.893393	0.930128	-0.600944
H186	H	0.838271	1.080799	-0.676276
C187	C	0.299326	1.009817	0.172609
H188	H	0.266039	1.053293	0.203290
H189	H	0.317540	0.921644	0.217488
H190	H	0.345612	1.013647	0.171592
C191	C	0.165911	1.016673	-0.181479
H192	H	0.162860	0.946120	-0.131631
H193	H	0.118515	1.079930	-0.247107
H194	H	0.213809	0.986056	-0.201838
H195	H	0.228960	1.180769	0.002680
H196	H	1.115500	0.592723	0.305752
H197	H	0.230376	1.179294	-0.179882
C198	C	0.299330	1.005846	-0.175068
H199	H	0.353038	0.934428	-0.122474
H200	H	0.273050	0.975363	-0.194089
H201	H	0.303028	1.064820	-0.240953
H202	H	0.845884	1.005451	-0.412913
C203	C	0.093331	1.219724	-0.194493
H204	H	0.094976	1.263127	-0.268555
H205	H	0.045221	1.220852	-0.197303
H206	H	0.092489	1.262565	-0.161798
H207	H	0.624856	1.005433	-0.587353
C208	C	0.607445	1.005427	-0.399185
H209	H	0.571164	1.005437	-0.441596
H210	H	0.632465	0.930098	-0.324014
H211	H	0.577351	1.080768	-0.399347
H212	H	0.959198	0.592709	-0.107006
H213	H	1.115528	0.592682	0.106636
H214	H	1.243118	0.418335	0.480134
