data_functionalizedCrystal
_audit_creation_method	'MofGen! by Chris Wilmer'
_symmetry_space_group_name_H-M	'P1'
_symmetry_Int_Tables_number	1
_symmetry_cell_setting	triclinic
loop_
_symmetry_equiv_pos_as_xyz
  x,y,z
_cell_length_a	16.625547
_cell_length_b	18.050590
_cell_length_c	16.625539
_cell_angle_alpha	89.970044
_cell_angle_beta	89.975178
_cell_angle_gamma	90.018489
loop_
_atom_site_label
_atom_site_type_symbol
_atom_site_fract_x
_atom_site_fract_y
_atom_site_fract_z
Zn1	Zn	1.232702	-0.295659	-0.455992
Zn2	Zn	1.732702	0.204341	0.044008
Zn3	Zn	1.232615	-0.419857	-0.321155
Zn4	Zn	1.732615	0.080143	0.178845
Zn5	Zn	1.097864	-0.295685	-0.321162
Zn6	Zn	1.597864	0.204315	0.178838
Zn7	Zn	1.097844	-0.419812	-0.455935
Zn8	Zn	1.597844	0.080188	0.044065
O9	O	1.165256	-0.357753	-0.388561
O10	O	1.665256	0.142247	0.111439
O11	O	1.345523	-0.312142	-0.438126
O12	O	1.845523	0.187858	0.061874
O13	O	1.214712	-0.403415	-0.208323
O14	O	1.714712	0.096585	0.291677
O15	O	1.115796	-0.191757	-0.339074
O16	O	1.615796	0.308243	0.160926
O17	O	1.345459	-0.403390	-0.339062
O18	O	1.845459	0.096610	0.160938
O19	O	1.214861	-0.191738	-0.438133
O20	O	1.714861	0.308262	0.061867
O21	O	1.115711	-0.312186	-0.208329
O22	O	1.615711	0.187814	0.291671
O23	O	0.985029	-0.312143	-0.339019
O24	O	1.485029	0.187857	0.160981
O25	O	1.115761	-0.403313	-0.568775
O26	O	1.615761	0.096687	-0.068775
O27	O	0.985014	-0.403338	-0.438036
O28	O	1.485014	0.096662	0.061964
O29	O	1.214841	-0.312099	-0.568817
O30	O	1.714841	0.187901	-0.068817
O31	O	1.214692	-0.523776	-0.339007
O32	O	1.714692	-0.023776	0.160993
O33	O	1.115676	-0.523742	-0.438029
O34	O	1.615676	-0.023742	0.061971
C35	C	0.955766	-0.357739	-0.388523
C36	C	1.455766	0.142261	0.111477
C37	C	0.866144	-0.357751	-0.388526
C38	C	1.366144	0.142249	0.111474
C39	C	0.793362	-0.357752	-0.388536
C40	C	1.293362	0.142248	0.111464
C41	C	0.702054	-0.357756	-0.388556
C42	C	1.202054	0.142244	0.111444
C43	C	0.629277	-0.357763	-0.388576
C44	C	1.129277	0.142237	0.111424
C45	C	0.537963	-0.357768	-0.388596
C46	C	1.037963	0.142232	0.111404
C47	C	1.165194	-0.550705	-0.388529
C48	C	1.665194	-0.050705	0.111471
C49	C	1.165242	-0.633251	-0.388542
C50	C	1.665242	-0.133251	0.111458
C51	C	1.219198	-0.832693	-0.334769
C52	C	1.719198	-0.332693	0.165231
C53	C	1.238896	-0.882024	-0.408360
C54	C	1.738896	-0.382024	0.091640
C55	C	1.165287	-0.784382	-0.388574
C56	C	1.665287	-0.284382	0.111426
C57	C	1.145672	-0.882132	-0.315016
C58	C	1.645672	-0.382132	0.184984
C59	C	1.165333	-0.930367	-0.388599
C60	C	1.665333	-0.430367	0.111401
C61	C	1.185022	-0.832625	-0.462204
C62	C	1.685022	-0.332625	0.037796
C63	C	1.091765	-0.832730	-0.368810
C64	C	1.591765	-0.332730	0.131190
C65	C	1.111434	-0.882038	-0.442452
C66	C	1.611434	-0.382038	0.057548
C67	C	1.165263	-0.700283	-0.388559
C68	C	1.665263	-0.200283	0.111441
C69	C	1.165357	-1.014463	-0.388622
C70	C	1.665357	-0.514463	0.111378
C71	C	1.375565	-0.357768	-0.388600
C72	C	1.875565	0.142232	0.111400
C73	C	1.465186	-0.357775	-0.388616
C74	C	1.965186	0.142225	0.111384
C75	C	1.165309	-0.357698	-0.598870
C76	C	1.665309	0.142302	-0.098870
C77	C	1.165331	-0.357674	-0.688491
C78	C	1.665331	0.142326	-0.188491
C79	C	1.165341	-0.164048	-0.388611
C80	C	1.665341	0.335952	0.111389
C81	C	1.165376	-0.081502	-0.388632
C82	C	1.665376	0.418498	0.111368
C83	C	1.165368	-0.357591	-1.016667
C84	C	1.665368	0.142409	-0.516667
C85	C	1.165356	-0.357617	-0.925358
C86	C	1.665356	0.142383	-0.425358
C87	C	1.165350	-0.357633	-0.852582
C88	C	1.665350	0.142367	-0.352582
C89	C	1.165337	-0.357658	-0.761268
C90	C	1.665337	0.142342	-0.261268
C91	C	1.165251	-0.357755	-0.179070
C92	C	1.665251	0.142245	0.320930
C93	C	1.165384	-0.357569	-0.089449
C94	C	1.665384	0.142431	0.410551
H95	H	1.264804	-0.811025	-0.289314
H96	H	1.764804	-0.311025	0.210686
F97	F	1.123962	-0.910557	-0.233694
F98	F	1.623962	-0.410557	0.266306
F99	F	1.010490	-0.804407	-0.346914
F100	F	1.510490	-0.304407	0.153086
H101	H	1.301092	-0.903678	-0.425092
H102	H	1.801092	-0.403678	0.074908
H103	H	1.201570	-0.810971	-0.524475
H104	H	1.701570	-0.310971	-0.024475
H105	H	1.065863	-0.903568	-0.488017
H106	H	1.565863	-0.403568	0.011983
