data_functionalizedCrystal
_audit_creation_method	'MofGen! by Chris Wilmer'
_symmetry_space_group_name_H-M	'P1'
_symmetry_Int_Tables_number	1
_symmetry_cell_setting	triclinic
loop_
_symmetry_equiv_pos_as_xyz
  x,y,z
_cell_length_a	19.121063
_cell_length_b	12.827893
_cell_length_c	19.120904
_cell_angle_alpha	92.424760
_cell_angle_beta	94.741613
_cell_angle_gamma	92.468878
loop_
_atom_site_label
_atom_site_type_symbol
_atom_site_fract_x
_atom_site_fract_y
_atom_site_fract_z
Zn1	Zn	-0.297110	1.552666	-0.409734
Zn2	Zn	-0.409757	1.552537	-0.297085
Zn3	Zn	-0.292111	1.385706	-0.292091
Zn4	Zn	-0.414737	1.370073	-0.414710
O5	O	-0.353428	1.465246	-0.353405
O6	O	-0.312060	1.698884	-0.394799
O7	O	-0.389974	1.536895	-0.197962
O8	O	-0.194311	1.414451	-0.303524
O9	O	-0.394822	1.698789	-0.312036
O10	O	-0.197984	1.537115	-0.389956
O11	O	-0.303540	1.414325	-0.194293
O12	O	-0.308369	1.237398	-0.308349
O13	O	-0.403310	1.387806	-0.512510
O14	O	-0.398462	1.225912	-0.398436
O15	O	-0.316890	1.521957	-0.508855
O16	O	-0.508880	1.521736	-0.316861
O17	O	-0.512539	1.387681	-0.403279
C18	C	-0.353414	1.193738	-0.353391
C19	C	-0.353426	1.077583	-0.353403
C20	C	-0.536240	1.453025	-0.361167
C21	C	-0.614449	1.447892	-0.364511
C22	C	-0.398071	1.020142	-0.397918
C23	C	-0.398084	0.900090	-0.397930
C24	C	-0.649265	1.515325	-0.321126
C25	C	-0.722751	1.510502	-0.324275
C26	C	-0.761419	1.438241	-0.370806
C27	C	-0.726598	1.370805	-0.414196
C28	C	-0.653114	1.375633	-0.411050
C29	C	-0.983391	1.420173	-0.382558
C30	C	-1.056880	1.415348	-0.385699
C31	C	-1.053027	1.555047	-0.295779
C32	C	-0.979542	1.559865	-0.292634
C33	C	-0.944727	1.492432	-0.336026
C34	C	-0.836533	1.433308	-0.374025
C35	C	-0.869615	1.497371	-0.332811
C36	C	-0.169903	1.477541	-0.345628
C37	C	-0.091696	1.482781	-0.342314
C38	C	-0.361213	1.453152	-0.536926
C39	C	-0.364530	1.447999	-0.615132
C40	C	-0.353443	1.737814	-0.353420
C41	C	-0.353449	1.853966	-0.353426
C42	C	-0.321096	1.515419	-0.649971
C43	C	-0.324211	1.510564	-0.723453
C44	C	-0.370763	1.438293	-0.762096
C45	C	-0.414198	1.370866	-0.727251
C46	C	-0.411080	1.375716	-0.653770
C47	C	-0.382425	1.420148	-0.984057
C48	C	-0.385542	1.415305	-1.057543
C49	C	-0.295553	1.555002	-1.053740
C50	C	-0.292442	1.559851	-0.980258
C51	C	-0.335875	1.492420	-0.945420
C52	C	-0.373949	1.433331	-0.837207
C53	C	-0.332685	1.497378	-0.870310
C54	C	-0.345624	1.477356	-0.170596
C55	C	-0.342108	1.482725	-0.092382
H56	H	-0.436281	1.059843	-0.436021
Br57	Br	-0.437127	1.335254	-0.889655
H58	H	-0.446441	1.320805	-0.625405
Br59	Br	-0.461800	0.817801	-0.461450
H60	H	-0.315228	0.903336	-0.315310
H61	H	-0.423452	1.356450	-1.089004
Br62	Br	-0.889018	1.335243	-0.437174
Br63	Br	-0.769999	1.602029	-0.265397
Br64	Br	-0.289726	1.011424	-0.289899
H65	H	-0.955051	1.365265	-0.417889
H66	H	-0.288844	1.565467	-0.751816
H67	H	-0.617786	1.574163	-0.283232
H68	H	-0.948059	1.618705	-0.254744
H69	H	-1.088362	1.356516	-0.423603
Br70	Br	-1.100279	1.646562	-0.236896
H71	H	-0.624768	1.320723	-0.446380
Br72	Br	-0.779076	1.272743	-0.477353
Br73	Br	-0.229264	1.657939	-0.927820
H74	H	-0.260191	1.609899	-1.082113
H75	H	-0.838129	1.556210	-0.294928
Br76	Br	-0.257921	1.613513	-0.597535
Br77	Br	-0.477373	1.272776	-0.779693
H78	H	-0.294779	1.556216	-0.838844
H79	H	-0.417802	1.365256	-0.955701
