data_functionalizedCrystal
_audit_creation_method	'MofGen! by Chris Wilmer'
_symmetry_space_group_name_H-M	'P1'
_symmetry_Int_Tables_number	1
_symmetry_cell_setting	triclinic
loop_
_symmetry_equiv_pos_as_xyz
  x,y,z
_cell_length_a	17.699083
_cell_length_b	16.098538
_cell_length_c	17.699083
_cell_angle_alpha	87.283618
_cell_angle_beta	83.283015
_cell_angle_gamma	92.727089
loop_
_atom_site_label
_atom_site_type_symbol
_atom_site_fract_x
_atom_site_fract_y
_atom_site_fract_z
O1	O	1.007465	0.069141	0.092328
O2	O	1.340799	0.402474	0.425662
O3	O	1.674132	0.735807	0.758995
O4	O	0.787088	0.069168	0.104779
O5	O	1.120422	0.402502	0.438113
O6	O	1.453755	0.735835	0.771446
O7	O	0.903503	0.069146	-0.011635
O8	O	1.236836	0.402480	0.321698
O9	O	1.570169	0.735813	0.655032
O10	O	0.891051	0.069163	0.208743
O11	O	1.224384	0.402496	0.542076
O12	O	1.557718	0.735829	0.875409
O13	O	0.896702	-0.069365	-0.004861
O14	O	1.230036	0.263968	0.328472
O15	O	1.563369	0.597301	0.661805
O16	O	0.780288	-0.069343	0.111553
O17	O	1.113621	0.263990	0.444886
O18	O	1.446955	0.597323	0.778220
O19	O	1.000665	-0.069371	0.099102
O20	O	1.333998	0.263962	0.432435
O21	O	1.667332	0.597296	0.765769
Zn22	Zn	0.889397	-0.091349	0.106403
Zn23	Zn	1.222730	0.241984	0.439736
Zn24	Zn	1.556063	0.575318	0.773070
Zn25	Zn	0.898356	0.091146	0.097478
Zn26	Zn	1.231690	0.424479	0.430812
Zn27	Zn	1.565023	0.757813	0.764145
O28	O	0.884251	-0.069349	0.215516
O29	O	1.217584	0.263984	0.548850
O30	O	1.550917	0.597318	0.882183
C31	C	0.755491	-0.000084	0.107720
C32	C	1.088825	0.333249	0.441053
C33	C	1.422158	0.666582	0.774386
C34	C	0.671474	-0.000074	0.106381
C35	C	1.004807	0.333259	0.439714
C36	C	1.338140	0.666593	0.773047
N37	N	0.883287	-0.215897	0.112493
N38	N	1.216621	0.117436	0.445827
N39	N	1.549954	0.450770	0.779160
C40	C	0.622853	-0.000069	0.174714
C41	C	0.956186	0.333264	0.508047
C42	C	1.289520	0.666598	0.841381
C43	C	0.543909	-0.000080	0.173452
C44	C	0.877242	0.333253	0.506785
C45	C	1.210576	0.666587	0.840119
C46	C	0.513588	-0.000090	0.103856
C47	C	0.846921	0.333244	0.437189
C48	C	1.180255	0.666577	0.770523
C49	C	0.562215	-0.000097	0.035518
C50	C	0.895548	0.333236	0.368851
C51	C	1.228881	0.666570	0.702185
C52	C	0.641157	-0.000092	0.036781
C53	C	0.974490	0.333241	0.370114
C54	C	1.307823	0.666575	0.703447
C55	C	0.243851	-0.000118	0.030424
C56	C	0.577184	0.333215	0.363757
C57	C	0.910517	0.666549	0.697090
C58	C	0.164902	-0.000120	0.029166
C59	C	0.498236	0.333213	0.362499
C60	C	0.831569	0.666546	0.695833
C61	C	0.146603	-0.000106	0.167095
C62	C	0.479936	0.333227	0.500428
C63	C	0.813270	0.666561	0.833762
C64	C	0.225545	-0.000101	0.168358
C65	C	0.558878	0.333232	0.501691
C66	C	0.892212	0.666566	0.835025
C67	C	0.274165	-0.000113	0.100020
C68	C	0.607498	0.333221	0.433354
C69	C	0.940831	0.666554	0.766687
C70	C	0.359764	-0.000102	0.101389
C71	C	0.693098	0.333231	0.434723
C72	C	1.026431	0.666564	0.768056
C73	C	0.427990	-0.000094	0.102486
C74	C	0.761323	0.333239	0.435819
C75	C	1.094657	0.666573	0.769153
C76	C	0.932716	-0.259491	0.063100
C77	C	1.266050	0.073842	0.396433
C78	C	1.599383	0.407175	0.729767
C79	C	0.928450	-0.346679	0.067368
C80	C	1.261783	-0.013346	0.400701
C81	C	1.595116	0.319987	0.734034
C82	C	0.874757	-0.390272	0.121033
C83	C	1.208091	-0.056938	0.454366
C84	C	1.541424	0.276395	0.787700
C85	C	0.825323	-0.346671	0.170429
C86	C	1.158656	-0.013338	0.503762
C87	C	1.491990	0.319995	0.837095
C88	C	0.829587	-0.259485	0.166157
C89	C	1.162920	0.073849	0.499490
C90	C	1.496253	0.407182	0.832823
C91	C	0.859301	-0.653519	0.136506
C92	C	1.192635	-0.320185	0.469839
C93	C	1.525968	0.013148	0.803172
C94	C	0.855043	-0.740711	0.140775
C95	C	1.188376	-0.407378	0.474109
C96	C	1.521709	-0.074045	0.807442
C97	C	0.958169	-0.740714	0.037713
C98	C	1.291502	-0.407380	0.371046
C99	C	1.624836	-0.074047	0.704380
C100	C	0.962431	-0.653525	0.033449
C101	C	1.295764	-0.320192	0.366782
C102	C	1.629098	0.013141	0.700116
C103	C	0.912994	-0.609933	0.082842
C104	C	1.246327	-0.276599	0.416175
C105	C	1.579661	0.056734	0.749508
C106	C	0.870396	-0.479392	0.125398
C107	C	1.203730	-0.146059	0.458731
C108	C	1.537063	0.187275	0.792065
C109	C	0.917352	-0.520814	0.078473
C110	C	1.250685	-0.187481	0.411806
C111	C	1.584019	0.145853	0.745139
C112	C	1.032262	-0.000117	0.096161
C113	C	1.365595	0.333217	0.429495
C114	C	1.698929	0.666550	0.762828
C115	C	1.116280	-0.000122	0.097500
C116	C	1.449613	0.333212	0.430833
C117	C	1.782947	0.666545	0.764167
C118	C	0.899656	-0.000110	-0.036445
C119	C	1.232990	0.333224	0.296888
C120	C	1.566323	0.666557	0.630221
C121	C	0.898318	-0.000110	-0.120463
C122	C	1.231651	0.333224	0.212870
C123	C	1.564984	0.666557	0.546203
N124	N	0.904472	0.215694	0.091382
N125	N	1.237805	0.549028	0.424715
N126	N	1.571138	0.882361	0.758049
C127	C	0.966651	-0.000119	-0.169084
C128	C	1.299984	0.333214	0.164250
C129	C	1.633317	0.666547	0.497583
C130	C	0.965389	-0.000112	-0.248027
C131	C	1.298722	0.333221	0.085306
C132	C	1.632055	0.666555	0.418639
C133	C	0.895793	-0.000101	-0.278349
C134	C	1.229126	0.333233	0.054985
C135	C	1.562459	0.666566	0.388318
C136	C	0.827455	-0.000088	-0.229722
C137	C	1.160788	0.333245	0.103611
C138	C	1.494121	0.666578	0.436944
C139	C	0.828718	-0.000090	-0.150780
C140	C	1.162051	0.333243	0.182553
C141	C	1.495384	0.666577	0.515886
C142	C	0.822360	-0.000081	-0.548086
C143	C	1.155693	0.333252	-0.214752
C144	C	1.489026	0.666586	0.118581
C145	C	0.821102	-0.000082	-0.627034
C146	C	1.154435	0.333251	-0.293700
C147	C	1.487769	0.666585	0.039633
C148	C	0.959031	-0.000103	-0.645333
C149	C	1.292364	0.333230	-0.311999
C150	C	1.625697	0.666564	0.021334
C151	C	0.960294	-0.000105	-0.566391
C152	C	1.293627	0.333229	-0.233058
C153	C	1.626960	0.666562	0.100276
C154	C	0.891956	-0.000088	-0.517771
C155	C	1.225290	0.333245	-0.184438
C156	C	1.558623	0.666579	0.148895
C157	C	0.893326	-0.000095	-0.432172
C158	C	1.226659	0.333239	-0.098839
C159	C	1.559992	0.666572	0.234495
C160	C	0.894422	-0.000100	-0.363946
C161	C	1.227756	0.333233	-0.030613
C162	C	1.561089	0.666567	0.302720
C163	C	0.888097	-0.000091	0.240326
C164	C	1.221430	0.333242	0.573660
C165	C	1.554764	0.666575	0.906993
C166	C	0.889436	-0.000086	0.324344
C167	C	1.222769	0.333248	0.657677
C168	C	1.556103	0.666581	0.991011
H169	H	0.647534	-0.000061	0.231387
H170	H	0.980867	0.333273	0.564720
H171	H	1.314201	0.666606	0.898054
H172	H	0.250228	-0.000089	0.225030
H173	H	0.583561	0.333244	0.558363
H174	H	0.916895	0.666577	0.891696
Cl175	Cl	1.000223	-0.204699	-0.004365
Cl176	Cl	1.333556	0.128634	0.328968
Cl177	Cl	1.666890	0.461968	0.662301
Cl178	Cl	0.742810	-0.000075	-0.089657
Cl179	Cl	1.076143	0.333259	0.243676
Cl180	Cl	1.409476	0.666592	0.577010
Cl181	Cl	0.126786	-0.000133	-0.058333
Cl182	Cl	0.460119	0.333200	0.275000
Cl183	Cl	0.793453	0.666533	0.608334
H184	H	1.016966	-0.000118	-0.541708
H185	H	1.350299	0.333216	-0.208374
H186	H	1.683632	0.666549	0.124959
Cl187	Cl	1.044943	-0.000120	-0.706459
Cl188	Cl	1.378276	0.333213	-0.373126
Cl189	Cl	1.711609	0.666546	-0.039793
Cl190	Cl	0.524096	-0.000114	-0.051975
Cl191	Cl	0.857429	0.333219	0.281359
Cl192	Cl	1.190763	0.666552	0.614692
H193	H	0.764425	-0.000074	-0.651717
H194	H	1.097759	0.333259	-0.318384
H195	H	1.431092	0.666592	0.014949
H196	H	1.021032	-0.000122	-0.287612
H197	H	1.354366	0.333212	0.045722
H198	H	1.687699	0.666545	0.379055
H199	H	0.961066	-0.485319	0.034775
H200	H	1.294399	-0.151985	0.368109
H201	H	1.627733	0.181348	0.701442
H202	H	0.968698	-0.382174	0.027147
H203	H	1.302031	-0.048840	0.360480
H204	H	1.635365	0.284493	0.693814
Cl205	Cl	1.029932	-0.598724	-0.034016
Cl206	Cl	1.363265	-0.265390	0.299318
Cl207	Cl	1.696598	0.067943	0.632651
Cl208	Cl	1.020312	-0.795520	-0.024380
Cl209	Cl	1.353645	-0.462186	0.308953
Cl210	Cl	1.686978	-0.128853	0.642286
Cl211	Cl	0.736450	-0.000058	-0.486974
Cl212	Cl	1.069783	0.333275	-0.153641
Cl213	Cl	1.403116	0.666609	0.179692
H214	H	0.789335	-0.223991	0.206377
H215	H	1.122669	0.109342	0.539710
H216	H	1.456002	0.442676	0.873044
Cl217	Cl	0.787538	-0.795507	0.208248
Cl218	Cl	1.120871	-0.462174	0.541582
Cl219	Cl	1.454205	-0.128841	0.874915
H220	H	0.770789	-0.000074	-0.254416
H221	H	1.104122	0.333259	0.078917
H222	H	1.437455	0.666593	0.412250
H223	H	0.680744	-0.000096	-0.018863
H224	H	1.014077	0.333238	0.314470
H225	H	1.347410	0.666571	0.647803
H226	H	0.107007	-0.000101	0.222739
H227	H	0.440340	0.333232	0.556072
H228	H	0.773673	0.666566	0.889406
Cl229	Cl	0.797157	-0.598722	0.198601
Cl230	Cl	1.130490	-0.265389	0.531934
Cl231	Cl	1.463823	0.067945	0.865268
H232	H	0.504325	-0.000075	0.229096
H233	H	0.837658	0.333258	0.562429
H234	H	1.170991	0.666591	0.895763
H235	H	0.283428	-0.000128	-0.025221
H236	H	0.616761	0.333205	0.308112
H237	H	0.950094	0.666538	0.641445
H238	H	0.826680	-0.514892	0.169095
H239	H	1.160013	-0.181559	0.502428
H240	H	1.493347	0.151775	0.835761
Cl241	Cl	0.757819	-0.401471	0.237891
Cl242	Cl	1.091152	-0.068138	0.571225
Cl243	Cl	1.424486	0.265196	0.904558
H244	H	1.023323	-0.000134	-0.144403
H245	H	1.356657	0.333200	0.188931
H246	H	1.689990	0.666533	0.522264
