data_functionalizedCrystal
_audit_creation_method	'MofGen! by Chris Wilmer'
_symmetry_space_group_name_H-M	'P1'
_symmetry_Int_Tables_number	1
_symmetry_cell_setting	triclinic
loop_
_symmetry_equiv_pos_as_xyz
  x,y,z
_cell_length_a	12.759401
_cell_length_b	18.215405
_cell_length_c	12.759393
_cell_angle_alpha	89.962381
_cell_angle_beta	89.980163
_cell_angle_gamma	90.026410
loop_
_atom_site_label
_atom_site_type_symbol
_atom_site_fract_x
_atom_site_fract_y
_atom_site_fract_z
Zn1	Zn	1.606181	-0.292911	-0.593976
Zn2	Zn	1.606044	-0.415997	-0.418278
Zn3	Zn	1.430483	-0.292952	-0.418311
Zn4	Zn	1.430440	-0.415943	-0.593915
O5	O	1.518287	-0.354451	-0.506120
O6	O	1.753183	-0.309243	-0.570681
O7	O	1.582716	-0.399715	-0.271261
O8	O	1.453865	-0.189962	-0.441653
O9	O	1.753083	-0.399674	-0.441596
O10	O	1.582949	-0.189932	-0.570714
O11	O	1.453732	-0.309314	-0.271286
O12	O	1.283456	-0.309262	-0.441594
O13	O	1.453792	-0.399583	-0.740944
O14	O	1.283425	-0.399623	-0.570609
O15	O	1.582908	-0.309191	-0.740989
O16	O	1.582674	-0.518974	-0.441537
O17	O	1.453659	-0.518935	-0.570577
C18	C	1.245319	-0.354442	-0.506099
C19	C	1.128543	-0.354456	-0.506115
C20	C	1.073692	-0.401578	-0.573188
C21	C	0.963968	-0.401581	-0.573209
C22	C	0.963955	-0.307337	-0.439076
C23	C	1.073677	-0.307331	-0.439061
C24	C	1.518176	-0.545657	-0.506070
C25	C	1.518224	-0.627456	-0.506083
C26	C	1.585561	-0.815646	-0.439016
C27	C	1.585608	-0.892505	-0.439041
C28	C	1.451147	-0.892503	-0.573300
C29	C	1.451107	-0.815646	-0.573279
C30	C	1.518312	-0.777219	-0.506131
C31	C	1.518399	-0.930935	-0.506178
C32	C	1.518450	-1.014269	-0.506206
C33	C	1.518263	-0.693880	-0.506104
C34	C	1.792320	-0.354460	-0.506142
C35	C	1.909097	-0.354464	-0.506151
C36	C	1.518360	-0.354376	-0.780154
C37	C	1.518391	-0.354345	-0.896930
C38	C	1.518427	-0.162498	-0.506194
C39	C	1.518486	-0.080699	-0.506225
C40	C	1.451254	-0.307264	-0.951805
C41	C	1.451278	-0.307242	-1.061529
C42	C	1.585587	-0.401382	-1.061495
C43	C	1.585557	-0.401407	-0.951773
C44	C	1.518274	-0.354472	-0.233153
C45	C	1.518446	-0.354296	-0.116377
H46	H	1.118360	-0.439949	-0.627791
O47	O	1.650724	-0.447196	-1.114722
C48	C	1.627719	-0.520549	-1.087858
H49	H	1.543774	-0.524269	-1.057692
H50	H	1.684012	-0.539803	-1.024161
C51	C	1.743043	-0.565072	-1.222356
C52	C	1.639938	-0.569642	-1.185314
H53	H	1.750584	-0.595357	-1.282469
H54	H	1.758546	-0.515653	-1.240453
H55	H	1.789942	-0.581116	-1.169266
H56	H	1.593042	-0.553590	-1.238398
H57	H	1.624427	-0.619060	-1.167227
O58	O	1.650964	-0.929718	-0.373744
C59	C	1.710288	-0.879318	-0.314497
H60	H	1.667224	-0.824560	-0.310805
H61	H	1.790055	-0.871071	-0.353040
C62	C	1.778402	-0.976626	-0.207237
C63	C	1.725506	-0.909373	-0.202695
H64	H	1.787794	-0.995166	-0.138273
H65	H	1.738438	-1.010582	-0.247154
H66	H	1.844869	-0.969744	-0.239360
H67	H	1.659036	-0.916257	-0.170584
H68	H	1.765459	-0.875418	-0.162769
H69	H	1.640231	-0.439748	-0.907093
O70	O	1.385975	-0.929801	-0.638669
C71	C	1.408847	-0.910933	-0.743396
H72	H	1.492764	-0.889753	-0.748775
H73	H	1.352479	-0.866338	-0.770796
C74	C	1.293547	-1.005188	-0.806912
C75	C	1.396619	-0.979180	-0.813519
H76	H	1.286000	-1.047285	-0.850169
H77	H	1.278134	-1.017899	-0.736356
H78	H	1.246585	-0.968019	-0.829744
H79	H	1.443577	-1.016346	-0.790676
H80	H	1.412039	-0.966478	-0.884074
O81	O	0.910524	-0.447289	-0.638327
C82	C	0.801914	-0.437203	-0.623950
H83	H	0.786942	-0.380380	-0.589697
H84	H	0.770723	-0.480808	-0.567890
C85	C	0.764023	-0.513832	-0.772315
C86	C	0.745634	-0.444039	-0.730252
H87	H	0.729305	-0.518052	-0.837885
H88	H	0.837195	-0.520630	-0.781999
H89	H	0.738031	-0.550162	-0.725588
H90	H	0.771638	-0.407711	-0.776973
H91	H	0.672465	-0.437235	-0.720578
O92	O	1.385875	-0.778200	-0.638445
C93	C	1.400236	-0.702124	-0.624010
H94	H	1.481331	-0.691604	-0.589672
H95	H	1.337940	-0.680382	-0.567998
C96	C	1.290930	-0.675526	-0.772466
C97	C	1.390535	-0.662605	-0.730299
H98	H	1.284941	-0.651147	-0.838028
H99	H	1.281250	-0.726779	-0.782189
H100	H	1.239027	-0.657407	-0.725779
H101	H	1.442435	-0.680732	-0.776979
H102	H	1.400223	-0.611353	-0.720586
O103	O	0.910494	-0.261632	-0.373974
C104	C	0.801888	-0.271728	-0.388387
H105	H	0.786886	-0.328553	-0.422642
H106	H	0.770804	-0.228126	-0.444459
C107	C	0.763932	-0.195098	-0.240038
C108	C	0.745506	-0.264895	-0.282103
H109	H	0.729151	-0.190880	-0.174479
H110	H	0.837102	-0.188294	-0.230330
H111	H	0.738028	-0.158772	-0.286775
H112	H	0.771421	-0.301219	-0.235373
H113	H	0.672339	-0.271705	-0.291801
H114	H	1.396607	-0.268905	-1.106203
H115	H	1.396563	-0.268943	-0.907156
H116	H	1.118338	-0.268953	-0.384442
H117	H	1.640284	-0.784361	-0.384341
