data_functionalizedCrystal
_audit_creation_method	'MofGen! by Chris Wilmer'
_symmetry_space_group_name_H-M	'P1'
_symmetry_Int_Tables_number	1
_symmetry_cell_setting	triclinic
loop_
_symmetry_equiv_pos_as_xyz
  x,y,z
_cell_length_a	14.519709
_cell_length_b	13.596369
_cell_length_c	11.792241
_cell_angle_alpha	89.993871
_cell_angle_beta	83.936780
_cell_angle_gamma	90.000816
loop_
_atom_site_label
_atom_site_type_symbol
_atom_site_fract_x
_atom_site_fract_y
_atom_site_fract_z
O1	O	-1.224413	0.081652	-0.148782
O2	O	-0.724413	0.581652	0.351218
O3	O	-0.956000	0.081684	-0.166303
O4	O	-0.456000	0.581684	0.333697
O5	O	-1.096720	0.081660	0.007664
O6	O	-0.596720	0.581660	0.507664
O7	O	-1.083693	0.081676	-0.322749
O8	O	-0.583693	0.581676	0.177251
O9	O	-1.096706	-0.081923	0.007673
O10	O	-0.596706	0.418077	0.507673
O11	O	-0.955986	-0.081898	-0.166294
O12	O	-0.455986	0.418102	0.333706
O13	O	-1.224399	-0.081931	-0.148773
O14	O	-0.724399	0.418069	0.351227
Zn15	Zn	-1.090190	-0.107887	-0.157532
Zn16	Zn	-0.590190	0.392113	0.342468
Zn17	Zn	-1.090209	0.107640	-0.157544
Zn18	Zn	-0.590209	0.607640	0.342456
O19	O	-1.083679	-0.081907	-0.322740
O20	O	-0.583679	0.418093	0.177260
C21	C	-0.921630	-0.000103	-0.165482
C22	C	-0.421630	0.499897	0.334518
C23	C	-0.819240	-0.000091	-0.163035
C24	C	-0.319240	0.499909	0.336965
C25	C	-0.444311	-0.000132	-0.154027
C26	C	0.055689	0.499868	0.345973
C27	C	-0.548628	-0.000120	-0.156528
C28	C	-0.048628	0.499880	0.343472
C29	C	-0.631772	-0.000110	-0.158531
C30	C	-0.131772	0.499890	0.341469
C31	C	-0.736096	-0.000100	-0.161033
C32	C	-0.236096	0.499900	0.338967
N33	N	-1.090184	-0.254979	-0.157523
N34	N	-0.590184	0.245021	0.342477
C35	C	-1.090208	-0.656270	-0.157545
C36	C	-0.590208	-0.156270	0.342455
C37	C	-1.090198	-0.544619	-0.157543
C38	C	-0.590198	-0.044619	0.342457
C39	C	-1.090196	-0.455628	-0.157535
C40	C	-0.590196	0.044372	0.342465
C41	C	-1.090186	-0.343970	-0.157531
C42	C	-0.590186	0.156030	0.342469
C43	C	-0.258769	-0.000139	-0.149594
C44	C	0.241231	0.499861	0.350406
C45	C	-0.361159	-0.000138	-0.152041
C46	C	0.138841	0.499862	0.347959
C47	C	-1.095895	-0.000131	0.049955
C48	C	-0.595895	0.499869	0.549955
C49	C	-1.093446	-0.000129	0.175955
C50	C	-0.593446	0.499871	0.675955
N51	N	-1.090222	0.254732	-0.157544
N52	N	-0.590222	0.754732	0.342456
C53	C	-1.084504	-0.000114	-0.365031
C54	C	-0.584504	0.499886	0.134969
C55	C	-1.086954	-0.000109	-0.491031
C56	C	-0.586954	0.499891	0.008969
C57	C	-1.088942	-0.000112	0.406642
C58	C	-0.588942	0.499888	0.906642
C59	C	-1.091444	-0.000122	0.278271
C60	C	-0.591444	0.499878	0.778271
