data_functionalizedCrystal
_audit_creation_method	'MofGen! by Chris Wilmer'
_symmetry_space_group_name_H-M	'P1'
_symmetry_Int_Tables_number	1
_symmetry_cell_setting	triclinic
loop_
_symmetry_equiv_pos_as_xyz
  x,y,z
_cell_length_a	16.959454
_cell_length_b	13.033293
_cell_length_c	13.033109
_cell_angle_alpha	74.800007
_cell_angle_beta	97.156051
_cell_angle_gamma	97.190068
loop_
_atom_site_label
_atom_site_type_symbol
_atom_site_fract_x
_atom_site_fract_y
_atom_site_fract_z
Zn1	Zn	-0.229029	1.700273	-0.807189
Zn2	Zn	0.270971	2.200273	-0.307189
Zn3	Zn	-0.346337	1.677596	-0.629567
Zn4	Zn	0.153663	2.177596	-0.129567
Zn5	Zn	-0.229044	1.500077	-0.606991
Zn6	Zn	0.270956	2.000077	-0.106991
Zn7	Zn	-0.376045	1.522594	-0.784542
Zn8	Zn	0.123955	2.022594	-0.284542
O9	O	-0.295114	1.600135	-0.707072
O10	O	0.204886	2.100135	-0.207072
O11	O	-0.232151	1.845916	-0.802553
O12	O	0.267849	2.345916	-0.302553
O13	O	-0.318351	1.635134	-0.477931
O14	O	0.181649	2.135134	0.022069
O15	O	-0.118428	1.526699	-0.633578
O16	O	0.381572	2.026699	-0.133578
O17	O	-0.318337	1.829256	-0.672054
O18	O	0.181663	2.329256	-0.172054
O19	O	-0.118417	1.673782	-0.780663
O20	O	0.381583	2.173782	-0.280663
O21	O	-0.232176	1.504711	-0.461345
O22	O	0.267824	2.004711	0.038655
O23	O	-0.260983	1.354412	-0.611618
O24	O	0.239017	1.854412	-0.111618
O25	O	-0.368970	1.565078	-0.936187
O26	O	0.131030	2.065078	-0.436187
O27	O	-0.368984	1.370956	-0.742063
O28	O	0.131016	1.870956	-0.242063
O29	O	-0.260958	1.695617	-0.952826
O30	O	0.239042	2.195617	-0.452826
O31	O	-0.460892	1.656969	-0.650094
O32	O	0.039108	2.156969	-0.150094
O33	O	-0.482719	1.543089	-0.763953
O34	O	0.017281	2.043089	-0.263953
C35	C	-0.318210	1.324140	-0.671934
C36	C	0.181790	1.824140	-0.171934
C37	C	-0.328111	1.206072	-0.656927
C38	C	0.171889	1.706072	-0.156927
C39	C	-0.289966	1.161689	-0.714904
C40	C	0.210034	1.661689	-0.214904
C41	C	-0.300199	1.039659	-0.699395
C42	C	0.199801	1.539659	-0.199395
C43	C	-0.500486	1.600044	-0.707043
C44	C	-0.000486	2.100044	-0.207043
C45	C	-0.588340	1.600106	-0.707078
C46	C	-0.088340	2.100106	-0.207078
C47	C	-0.971198	1.540936	-0.766364
C48	C	-0.471198	2.040936	-0.266364
C49	C	-0.948410	1.659644	-0.647926
C50	C	-0.448410	2.159644	-0.147926
C51	C	-0.865867	1.659606	-0.647912
C52	C	-0.365867	2.159606	-0.147912
C53	C	-0.835985	1.600230	-0.707123
C54	C	-0.335985	2.100230	-0.207123
C55	C	-0.888648	1.540893	-0.766349
C56	C	-0.388648	2.040893	-0.266349
C57	C	-0.813198	1.718933	-0.588678
C58	C	-0.313198	2.218933	-0.088678
C59	C	-0.730649	1.718896	-0.588660
C60	C	-0.230649	2.218896	-0.088660
C61	C	-0.700767	1.659526	-0.647879
C62	C	-0.200767	2.159526	-0.147879
C63	C	-0.753434	1.600187	-0.707108
C64	C	-0.253434	2.100187	-0.207108
C65	C	-0.723553	1.540812	-0.766319
C66	C	-0.223553	2.040812	-0.266319
C67	C	-0.776220	1.481479	-0.825555
C68	C	-0.276220	1.981479	-0.325555
C69	C	-0.858765	1.481523	-0.825567
C70	C	-0.358765	1.981523	-0.325567
C71	C	-0.618221	1.659482	-0.647867
C72	C	-0.118221	2.159482	-0.147867
C73	C	-0.641002	1.540769	-0.766304
C74	C	-0.141002	2.040769	-0.266304
C75	C	-0.088939	1.600259	-0.707129
C76	C	0.411061	2.100259	-0.207129
C77	C	-0.001080	1.600311	-0.707153
C78	C	0.498920	2.100311	-0.207153
C79	C	-0.318277	1.635388	-0.984125
C80	C	0.181723	2.135388	-0.484125
C81	C	-0.328147	1.650411	-1.102188
C82	C	0.171853	2.150411	-0.602188
C83	C	-0.271928	1.877208	-0.742348
C84	C	0.228072	2.377208	-0.242348
C85	C	-0.262048	1.995279	-0.757381
C86	C	0.237952	2.495279	-0.257381
C87	C	-0.289910	1.592578	-1.146618
C88	C	0.210090	2.092578	-0.646618
C89	C	-0.300111	1.608104	-1.268642
C90	C	0.199889	2.108104	-0.768642
C91	C	-0.271979	1.565080	-0.431105
C92	C	0.228021	2.065080	0.068895
C93	C	-0.261869	1.550263	-0.313069
C94	C	0.238131	2.050263	0.186931
H95	H	-0.751881	1.433129	-0.873760
H96	H	-0.251881	1.933129	-0.373760
H97	H	-0.368436	1.711417	-1.154488
H98	H	0.131564	2.211417	-0.654488
H99	H	-0.340433	0.987318	-0.638270
H100	H	0.159567	1.487318	-0.138270
C101	C	-0.207696	1.065977	-0.839958
C102	C	0.292304	1.565977	-0.339958
H103	H	-0.207953	1.138721	-0.839558
H104	H	0.292047	1.638721	-0.339558
H105	H	-0.154788	1.045900	-0.822256
H106	H	0.345212	1.545900	-0.322256
H107	H	-0.226830	1.056937	-0.909015
H108	H	0.273170	1.556937	-0.409015
H109	H	-0.368343	1.153727	-0.595806
H110	H	0.131657	1.653727	-0.095806
C111	C	-0.916697	1.416251	-0.890705
C112	C	-0.416697	1.916251	-0.390705
H113	H	-0.970137	1.424770	-0.882221
H114	H	-0.470137	1.924770	-0.382221
H115	H	-0.907826	1.440807	-0.964058
H116	H	-0.407826	1.940807	-0.464058
H117	H	-0.907877	1.342895	-0.866001
H118	H	-0.407877	1.842895	-0.366001
H119	H	-0.616679	1.492423	-0.814526
H120	H	-0.116679	1.992423	-0.314526
H121	H	-1.014083	1.492631	-0.814596
H122	H	-0.514083	1.992631	-0.314596
C123	C	-0.354538	1.690527	-1.339282
C124	C	0.145462	2.190527	-0.839282
H125	H	-0.354250	1.690156	-1.412030
H126	H	0.145750	2.190156	-0.912030
H127	H	-0.407445	1.672664	-1.319163
H128	H	0.092555	2.172664	-0.819163
H129	H	-0.335485	1.759621	-1.330246
H130	H	0.164515	2.259621	-0.830246
H131	H	-0.972745	1.707978	-0.599712
H132	H	-0.472745	2.207978	-0.099712
C133	C	-0.235614	1.232391	-0.797473
C134	C	0.264386	1.732391	-0.297473
H135	H	-0.235871	1.305135	-0.797070
H136	H	0.264129	1.805135	-0.297070
H137	H	-0.182707	1.212313	-0.779767
H138	H	0.317293	1.712313	-0.279767
H139	H	-0.254745	1.223355	-0.866532
H140	H	0.245255	1.723355	-0.366532
H141	H	-0.837535	1.767265	-0.540463
H142	H	-0.337535	2.267265	-0.040463
H143	H	-0.687773	1.767209	-0.540429
H144	H	-0.187773	2.267209	-0.040429
H145	H	-0.575344	1.707785	-0.599632
H146	H	-0.075344	2.207785	-0.099632
H147	H	-0.249626	1.531567	-1.094317
H148	H	0.250374	2.031567	-0.594317
H149	H	-0.221579	1.489249	-1.260773
H150	H	0.278421	1.989249	-0.760773
