data_functionalizedCrystal
_audit_creation_method	'MofGen! by Chris Wilmer'
_symmetry_space_group_name_H-M	'P1'
_symmetry_Int_Tables_number	1
_symmetry_cell_setting	triclinic
loop_
_symmetry_equiv_pos_as_xyz
  x,y,z
_cell_length_a	18.215407
_cell_length_b	18.215405
_cell_length_c	21.395364
_cell_angle_alpha	90.005220
_cell_angle_beta	90.014213
_cell_angle_gamma	90.022344
loop_
_atom_site_label
_atom_site_type_symbol
_atom_site_fract_x
_atom_site_fract_y
_atom_site_fract_z
Zn1	Zn	1.125052	-0.293226	0.354209
Zn2	Zn	1.124967	-0.416243	0.249429
Zn3	Zn	1.001991	-0.293189	0.249451
Zn4	Zn	1.001951	-0.416250	0.354174
O5	O	1.063490	-0.354727	0.301816
O6	O	1.228025	-0.309557	0.340315
O7	O	1.108634	-0.399901	0.161754
O8	O	1.018368	-0.190210	0.263371
O9	O	1.227962	-0.399937	0.263333
O10	O	1.108781	-0.190237	0.340336
O11	O	1.018284	-0.309494	0.161770
O12	O	0.899001	-0.309501	0.263337
O13	O	1.018300	-0.399948	0.441857
O14	O	0.898972	-0.399913	0.340277
O15	O	1.108742	-0.309563	0.441882
O16	O	1.108596	-0.519228	0.263300
O17	O	1.018216	-0.519233	0.340256
C18	C	0.872284	-0.354704	0.301806
C19	C	0.790485	-0.354712	0.301817
C20	C	0.525431	-0.401881	0.341823
C21	C	0.602290	-0.401875	0.341820
C22	C	0.602290	-0.307588	0.261819
C23	C	0.525433	-0.307599	0.261819
C24	C	0.487005	-0.354744	0.301825
C25	C	0.640721	-0.354728	0.301822
C26	C	0.724055	-0.354720	0.301818
C27	C	0.403666	-0.354753	0.301828
C28	C	1.063412	-0.545933	0.301785
C29	C	1.063446	-0.627732	0.301793
C30	C	1.110617	-0.815899	0.261796
C31	C	1.110650	-0.892757	0.261811
C32	C	1.016457	-0.892803	0.341880
C33	C	1.016428	-0.815945	0.341867
C34	C	1.063507	-0.777495	0.301822
C35	C	1.063569	-0.931211	0.301850
C36	C	1.063604	-1.014545	0.301866
C37	C	1.063473	-0.694156	0.301806
C38	C	1.255443	-0.354750	0.301826
C39	C	1.337242	-0.354760	0.301830
C40	C	1.063526	-0.354761	0.465239
C41	C	1.063541	-0.354775	0.534880
C42	C	1.063588	-0.162774	0.301859
C43	C	1.063630	-0.080975	0.301878
C44	C	1.110627	-0.307720	0.567607
C45	C	1.110616	-0.307708	0.633043
C46	C	1.063527	-0.354764	0.665748
C47	C	1.016431	-0.401823	0.633013
C48	C	1.016439	-0.401829	0.567579
C49	C	1.057673	-0.421059	0.769413
C50	C	1.057671	-0.421055	0.834846
C51	C	1.063500	-0.354747	0.867569
C52	C	1.069347	-0.288442	0.834851
C53	C	1.069354	-0.288447	0.769417
C54	C	1.063513	-0.354763	0.736701
C55	C	1.110577	-0.307675	0.971249
C56	C	1.110560	-0.307661	1.036686
C57	C	1.016379	-0.401784	1.036655
C58	C	1.016392	-0.401790	0.971219
C59	C	1.063494	-0.354737	0.938520
C60	C	1.063458	-0.354715	1.139028
C61	C	1.063469	-0.354718	1.069387
H62	H	0.633573	-0.440260	0.374390
H63	H	1.148926	-0.269357	0.944624
C64	C	1.161766	-0.256540	1.072108
C65	C	1.203029	-0.215352	1.029463
C66	C	1.250215	-0.168259	1.062072
H67	H	1.133712	-0.224400	1.097627
H68	H	1.193850	-0.284680	1.097631
H69	H	1.170949	-0.187214	1.003951
H70	H	1.231098	-0.247473	1.003943
H71	H	1.282299	-0.196399	1.087595
H72	H	1.222155	-0.136123	1.087589
H73	H	1.278222	-0.140311	1.033142
C74	C	0.965399	-0.774206	0.385404
C75	C	1.007026	-0.730053	0.425597
C76	C	0.960049	-0.691599	0.465717
H77	H	0.933328	-0.744194	0.361480
H78	H	0.937374	-0.808088	0.409290
H79	H	1.035038	-0.696174	0.401715
H80	H	1.039095	-0.760046	0.449535
H81	H	0.932024	-0.725482	0.489602
H82	H	0.927980	-0.661592	0.441788
H83	H	0.988285	-0.661642	0.492997
H84	H	0.633587	-0.269203	0.229249
H85	H	1.148981	-0.269404	0.540988
C86	C	0.965459	-0.934645	0.385387
C87	C	1.007110	-0.978741	0.425574
C88	C	0.960153	-1.017303	0.465654
H89	H	0.937380	-0.900850	0.409284
H90	H	0.933435	-0.964701	0.361414
H91	H	1.039121	-0.948688	0.449544
H92	H	1.035187	-1.012550	0.401694
H93	H	0.928130	-1.047358	0.441682
H94	H	0.932077	-0.983502	0.489547
H95	H	0.988406	-1.047231	0.492922
C96	C	0.483577	-0.452992	0.385228
C97	C	0.408043	-0.442900	0.376681
C98	C	0.369466	-0.489966	0.416660
H99	H	0.496069	-0.502448	0.376022
H100	H	0.496146	-0.442296	0.427355
H101	H	0.395478	-0.453601	0.334564
H102	H	0.395529	-0.393454	0.385891
H103	H	0.382036	-0.479270	0.458788
H104	H	0.381964	-0.539420	0.407452
H105	H	0.318213	-0.483121	0.410871
H106	H	1.148958	-0.269385	0.659695
C107	C	0.965170	-0.452902	1.072042
C108	C	0.923924	-0.494105	1.029371
C109	C	0.876733	-0.541195	1.061950
H110	H	0.993219	-0.485034	1.097580
H111	H	0.933076	-0.424759	1.097544
H112	H	0.956015	-0.522246	1.003880
H113	H	0.895861	-0.461992	1.003832
H114	H	0.844639	-0.513051	1.087452
H115	H	0.904787	-0.573321	1.087487
H116	H	0.848737	-0.569151	1.033003
C117	C	1.161825	-0.934320	0.218284
C118	C	1.203033	-0.884193	0.183203
C119	C	1.250178	-0.922453	0.143092
H120	H	1.193951	-0.964271	0.242210
H121	H	1.133722	-0.964318	0.190935
H122	H	1.231134	-0.854208	0.210549
H123	H	1.170927	-0.854241	0.159264
H124	H	1.222075	-0.952451	0.115743
H125	H	1.282299	-0.952403	0.167024
H126	H	1.278139	-0.888448	0.119281
H127	H	0.978053	-0.440113	0.944572
C128	C	1.075510	-0.216447	0.870398
C129	C	1.013252	-0.207081	0.907923
C130	C	1.018897	-0.140765	0.940671
H131	H	1.118117	-0.217317	0.895994
H132	H	1.078951	-0.176941	0.841557
H133	H	1.009819	-0.246576	0.936761
H134	H	0.970636	-0.206197	0.882343
H135	H	1.022337	-0.101259	0.911830
H136	H	1.061506	-0.141641	0.966263
H137	H	0.976654	-0.134398	0.966131
C138	C	1.161612	-0.774113	0.218247
C139	C	1.119959	-0.730049	0.178036
C140	C	1.166912	-0.691555	0.137905
H141	H	1.193662	-0.744037	0.242162
H142	H	1.189662	-0.807971	0.194375
H143	H	1.091922	-0.696195	0.201905
H144	H	1.087911	-0.760106	0.154107
H145	H	1.194962	-0.725414	0.114033
H146	H	1.198959	-0.661484	0.161825
H147	H	1.138657	-0.661659	0.110613
H148	H	1.052914	-0.475045	0.861479
H149	H	1.074113	-0.234459	0.742781
H150	H	1.052729	-0.475041	0.742775
C151	C	0.965349	-0.453036	0.668438
C152	C	0.981324	-0.525852	0.652510
C153	C	0.934271	-0.573047	0.685123
H154	H	0.972042	-0.446396	0.712106
H155	H	0.915896	-0.442303	0.657688
H156	H	1.030765	-0.536581	0.663264
H157	H	0.974626	-0.532515	0.608848
H158	H	0.884818	-0.562314	0.674373
H159	H	0.940968	-0.566401	0.728789
H160	H	0.945099	-0.622457	0.674316
C161	C	0.965438	-0.452968	0.531961
C162	C	1.007091	-0.500133	0.494398
C163	C	0.960136	-0.547247	0.461571
H164	H	0.937371	-0.481062	0.560736
H165	H	0.933404	-0.424835	0.506388
H166	H	1.039112	-0.528263	0.519970
H167	H	1.035156	-0.472059	0.465612
H168	H	0.928102	-0.519114	0.435997
H169	H	0.932071	-0.575337	0.490350
H170	H	0.988390	-0.579249	0.436076
C171	C	0.483604	-0.256391	0.218484
C172	C	0.439477	-0.209311	0.254020
C173	C	0.400923	-0.162147	0.214118
H174	H	0.517405	-0.228237	0.194640
H175	H	0.453572	-0.284492	0.191161
H176	H	0.469507	-0.181212	0.281333
H177	H	0.405662	-0.237444	0.277863
H178	H	0.370890	-0.190248	0.186795
H179	H	0.434728	-0.133998	0.190276
H180	H	0.370972	-0.130202	0.238223
