data_functionalizedCrystal
_audit_creation_method	'MofGen! by Chris Wilmer'
_symmetry_space_group_name_H-M	'P1'
_symmetry_Int_Tables_number	1
_symmetry_cell_setting	triclinic
loop_
_symmetry_equiv_pos_as_xyz
  x,y,z
_cell_length_a	21.395364
_cell_length_b	12.759394
_cell_length_c	12.759387
_cell_angle_alpha	89.968340
_cell_angle_beta	89.977132
_cell_angle_gamma	90.010602
loop_
_atom_site_label
_atom_site_type_symbol
_atom_site_fract_x
_atom_site_fract_y
_atom_site_fract_z
Zn1	Zn	0.957918	-0.418330	-0.594065
Zn2	Zn	0.957852	-0.594047	-0.418383
Zn3	Zn	0.853136	-0.418369	-0.418395
Zn4	Zn	0.853131	-0.593954	-0.594015
O5	O	0.905509	-0.506175	-0.506214
O6	O	1.045587	-0.441661	-0.570776
O7	O	0.943936	-0.570798	-0.271363
O8	O	0.867065	-0.271343	-0.441724
O9	O	1.045539	-0.570760	-0.441703
O10	O	0.944048	-0.271314	-0.570788
O11	O	0.867001	-0.441729	-0.271372
O12	O	0.765457	-0.441639	-0.441675
O13	O	0.867057	-0.570602	-0.741042
O14	O	0.765454	-0.570641	-0.570702
O15	O	0.944043	-0.441572	-0.741079
O16	O	0.943932	-0.741056	-0.441655
O17	O	0.866993	-0.740988	-0.570691
C18	C	0.742722	-0.506135	-0.506185
C19	C	0.673081	-0.506143	-0.506197
C20	C	0.171309	-0.439112	-0.573547
C21	C	0.236744	-0.439104	-0.573547
C22	C	0.269442	-0.506207	-0.506238
C23	C	0.236699	-0.573342	-0.438943
C24	C	0.171265	-0.573355	-0.438953
C25	C	0.373082	-0.514371	-0.411552
C26	C	0.438515	-0.514350	-0.411541
C27	C	0.471263	-0.506172	-0.506209
C28	C	0.438570	-0.497993	-0.600891
C29	C	0.373136	-0.498006	-0.600900
C30	C	0.340395	-0.506201	-0.506220
C31	C	0.574950	-0.439038	-0.573504
C32	C	0.640387	-0.439038	-0.573505
C33	C	0.640341	-0.573270	-0.438893
C34	C	0.574906	-0.573276	-0.438901
C35	C	0.542214	-0.506155	-0.506205
C36	C	0.905472	-0.779143	-0.506189
C37	C	0.905513	-0.895919	-0.506213
C38	C	0.985689	-0.895937	-0.371948
C39	C	1.025793	-0.950806	-0.304829
C40	C	1.025830	-1.060528	-0.304857
C41	C	0.985759	-1.115382	-0.372015
C42	C	0.945655	-1.060513	-0.439135
C43	C	0.945621	-0.950789	-0.439097
C44	C	0.865483	-1.060495	-0.573403
C45	C	0.865442	-0.950774	-0.573371
C46	C	0.825413	-1.115350	-0.640561
C47	C	0.785304	-1.060481	-0.707677
C48	C	0.785269	-0.950752	-0.707645
C49	C	0.825338	-0.895904	-0.640491
C50	C	1.068933	-0.506216	-0.506244
C51	C	1.138574	-0.506234	-0.506257
C52	C	0.905557	-0.506072	-0.780248
C53	C	0.905577	-0.506028	-0.897025
C54	C	0.905564	-0.232142	-0.506263
C55	C	0.905588	-0.115365	-0.506283
C56	C	0.985748	-0.371677	-0.897083
C57	C	1.025843	-0.304486	-0.951973
C58	C	1.025858	-0.304448	-1.061694
C59	C	0.985773	-0.371606	-1.116529
C60	C	0.945679	-0.438797	-1.061639
C61	C	0.945669	-0.438830	-0.951915
C62	C	0.865505	-0.573141	-1.061581
C63	C	0.865492	-0.573186	-0.951859
C64	C	0.825420	-0.640299	-1.116415
C65	C	0.785328	-0.707497	-1.061525
C66	C	0.785315	-0.707533	-0.951796
C67	C	0.825398	-0.640377	-0.896969
C68	C	0.905498	-0.506202	-0.233247
C69	C	0.905600	-0.505950	-0.116470
H70	H	0.548253	-0.627930	-0.384101
Br71	Br	1.080259	-0.213240	-1.136193
Br72	Br	0.328644	-0.525493	-0.283065
H73	H	0.825433	-0.640259	-1.205756
Br74	Br	0.730893	-0.798718	-0.877312
Br75	Br	0.985742	-0.371744	-0.748174
H76	H	0.263326	-0.627981	-0.384143
Br77	Br	0.126836	-0.664453	-0.347620
Br78	Br	1.080177	-0.876358	-0.213698
Br79	Br	0.482877	-0.525425	-0.283044
Br80	Br	0.825494	-0.746996	-0.640779
H81	H	0.263402	-0.384441	-0.628341
H82	H	0.144696	-0.384461	-0.628356
Br83	Br	0.985787	-0.371540	-1.265438
H84	H	0.825393	-0.640405	-0.807628
Br85	Br	1.080262	-1.134998	-0.213774
H86	H	0.346520	-0.491349	-0.677994
Br87	Br	0.730928	-0.798621	-1.135946
Br88	Br	0.730844	-0.876296	-0.798751
Br89	Br	0.985517	-1.264290	-0.371560
H90	H	0.465233	-0.491328	-0.677978
H91	H	0.548332	-0.384384	-0.628307
H92	H	1.058478	-0.249806	-0.907315
Br93	Br	0.985836	-0.747028	-0.372231
H94	H	0.825448	-1.204691	-0.640584
H95	H	0.752685	-1.105152	-0.762357
H96	H	0.667039	-0.384382	-0.628308
Br97	Br	0.684710	-0.664353	-0.347555
