data_functionalizedCrystal
_audit_creation_method	'MofGen! by Chris Wilmer'
_symmetry_space_group_name_H-M	'P1'
_symmetry_Int_Tables_number	1
_symmetry_cell_setting	triclinic
loop_
_symmetry_equiv_pos_as_xyz
  x,y,z
_cell_length_a	6.817900
_cell_length_b	17.078472
_cell_length_c	16.305550
_cell_angle_alpha	96.275374
_cell_angle_beta	103.455250
_cell_angle_gamma	99.306020
loop_
_atom_site_label
_atom_site_type_symbol
_atom_site_fract_x
_atom_site_fract_y
_atom_site_fract_z
V1	V	-4.005358	-0.110437	-0.262946
O2	O	-4.014715	0.004618	-0.258028
O3	O	-3.936405	-0.218315	-0.261064
O4	O	-3.957028	-0.109040	-0.377664
O5	O	-3.993949	-0.105413	-0.140620
V6	V	-4.491640	-0.096639	-0.248325
O7	O	-4.260564	-0.140703	-0.295018
O8	O	-4.686631	-0.066373	-0.216253
O9	O	-4.337386	0.011239	-0.250207
O10	O	-4.599680	-0.211694	-0.253243
O11	O	-4.620446	-0.101663	-0.370651
O12	O	-4.316763	-0.098035	-0.133607
C13	C	-3.776404	-0.244603	-0.256894
C14	C	-3.801314	-0.332797	-0.256120
C15	C	-3.994349	-0.378282	-0.259961
C16	C	-4.017745	-0.461150	-0.259239
C17	C	-3.848102	-0.498530	-0.254669
C18	C	-3.655053	-0.453039	-0.250830
C19	C	-3.631662	-0.370174	-0.251559
C20	C	-3.898617	-0.745927	-0.252044
C21	C	-3.922022	-0.828798	-0.251313
C22	C	-4.284714	-0.836904	-0.259724
C23	C	-4.261303	-0.754036	-0.260447
C24	C	-4.068260	-0.708553	-0.256612
N25	N	-3.872011	-0.583234	-0.253928
N26	N	-4.044356	-0.623851	-0.257360
C27	C	-3.802710	-0.105212	-0.405628
C28	C	-3.844342	-0.104784	-0.499411
C29	C	-3.995743	-0.103126	-0.840157
C30	C	-3.760626	-0.098203	-0.799233
C31	C	-3.717286	-0.098977	-0.701737
C32	C	-3.920630	-0.103948	-0.671109
C33	C	-4.072844	-0.182301	-0.721675
C34	C	-4.114791	-0.181858	-0.819225
C35	C	-4.064268	-0.030322	-0.794370
C36	C	-4.016456	-0.029702	-0.696528
C37	C	-3.878192	-0.104416	-0.575570
C38	C	-4.038189	-0.102664	-0.935697
C39	C	-4.160729	0.037524	-0.254375
C40	C	-4.115057	0.125716	-0.255155
C41	C	-4.134423	-0.101866	-0.105638
C42	C	-4.072030	-0.102290	-0.011855
H43	H	-4.399452	-0.723607	-0.264174
O44	O	-3.423457	-0.321116	-0.247421
H45	H	-3.435695	-0.257217	-0.248708
H46	H	-4.174932	-0.498181	-0.262368
H47	H	-4.068222	-0.236972	-0.849564
H48	H	-4.235783	-0.033232	-0.821184
O49	O	-4.274109	-0.190889	-0.696627
H50	H	-4.245483	-0.193933	-0.627304
H51	H	-4.132491	-0.347852	-0.263674
H52	H	-4.287327	-0.188729	-0.847211
O53	O	-3.690409	-0.696877	-0.247899
H54	H	-3.699427	-0.667556	-0.305794
O55	O	-3.563810	-0.024365	-0.655392
H56	H	-3.519942	0.012596	-0.702575
H57	H	-4.441884	-0.873944	-0.262845
O58	O	-3.634183	-0.023239	-0.815677
H59	H	-3.737554	0.011313	-0.853198
O60	O	-4.211791	-0.028393	-0.668247
H61	H	-4.193397	0.027837	-0.623687
O62	O	-3.870634	0.047069	-0.651062
H63	H	-3.842459	0.048251	-0.581056
H64	H	-3.516931	-0.483482	-0.247115
O65	O	-3.739048	-0.869122	-0.246393
H66	H	-3.600886	-0.823576	-0.243858
O67	O	-3.687767	-0.167487	-0.840911
H68	H	-3.818286	-0.205415	-0.890644
O69	O	-3.616047	-0.169062	-0.680088
H70	H	-3.597908	-0.202539	-0.739296
O71	O	-3.985607	-0.255331	-0.699365
H72	H	-3.961829	-0.256695	-0.629881
O73	O	-3.958092	0.048325	-0.812129
H74	H	-3.789186	0.054403	-0.788357
