data_functionalizedCrystal
_audit_creation_method	'MofGen! by Chris Wilmer'
_symmetry_space_group_name_H-M	'P1'
_symmetry_Int_Tables_number	1
_symmetry_cell_setting	triclinic
loop_
_symmetry_equiv_pos_as_xyz
  x,y,z
_cell_length_a	16.109301
_cell_length_b	15.944493
_cell_length_c	14.421503
_cell_angle_alpha	89.997074
_cell_angle_beta	89.997488
_cell_angle_gamma	83.468262
loop_
_atom_site_label
_atom_site_type_symbol
_atom_site_fract_x
_atom_site_fract_y
_atom_site_fract_z
O1	O	1.103145	0.107975	-0.077041
O2	O	1.436478	0.441308	0.256293
O3	O	1.769812	0.774642	0.589626
O4	O	0.861085	0.121412	-0.077054
O5	O	1.194418	0.454745	0.256279
O6	O	1.527751	0.788078	0.589613
O7	O	0.988750	-0.007587	-0.077055
O8	O	1.322083	0.325746	0.256279
O9	O	1.655417	0.659080	0.589612
O10	O	0.975479	0.236974	-0.077040
O11	O	1.308813	0.570307	0.256293
O12	O	1.642146	0.903640	0.589627
O13	O	0.988738	-0.007601	0.077169
O14	O	1.322072	0.325733	0.410502
O15	O	1.655405	0.659066	0.743835
O16	O	0.861073	0.121398	0.077169
O17	O	1.194406	0.454731	0.410503
O18	O	1.527740	0.788065	0.743836
O19	O	1.103133	0.107961	0.077183
O20	O	1.436467	0.441295	0.410516
O21	O	1.769800	0.774628	0.743849
Cu22	Cu	0.982102	0.114678	0.091258
Cu23	Cu	1.315435	0.448012	0.424591
Cu24	Cu	1.648769	0.781345	0.757925
Cu25	Cu	0.982116	0.114695	-0.091129
Cu26	Cu	1.315449	0.448028	0.242204
Cu27	Cu	1.648782	0.781361	0.575537
O28	O	0.975468	0.236960	0.077183
O29	O	1.308801	0.570293	0.410517
O30	O	1.642134	0.903627	0.743850
C31	C	0.830104	0.120861	0.000056
C32	C	1.163437	0.454194	0.333389
C33	C	1.496770	0.787527	0.666722
C34	C	0.737808	0.119229	0.000050
C35	C	1.071142	0.452562	0.333383
C36	C	1.404475	0.785895	0.666717
C37	C	0.515544	0.191980	0.000065
C38	C	0.848878	0.525313	0.333399
C39	C	1.182211	0.858646	0.666732
C40	C	0.428824	0.190440	0.000071
C41	C	0.762157	0.523773	0.333404
C42	C	1.095491	0.857107	0.666738
C43	C	0.448680	0.037388	0.000058
C44	C	0.782014	0.370721	0.333391
C45	C	1.115347	0.704054	0.666725
C46	C	0.535399	0.038928	0.000059
C47	C	0.868732	0.372262	0.333392
C48	C	1.202066	0.705595	0.666725
C49	C	0.568829	0.116227	0.000058
C50	C	0.902162	0.449560	0.333391
C51	C	1.235495	0.782893	0.666724
C52	C	0.395389	0.113146	0.000063
C53	C	0.728722	0.446480	0.333396
C54	C	1.062056	0.779813	0.666729
C55	C	0.301363	0.111476	0.000069
C56	C	0.634696	0.444810	0.333402
C57	C	0.968030	0.778143	0.666736
C58	C	0.662861	0.117897	0.000053
C59	C	0.996194	0.451231	0.333386
C60	C	1.329527	0.784564	0.666720
C61	C	0.988202	-0.038888	0.000053
C62	C	1.321535	0.294445	0.333386
C63	C	1.654868	0.627778	0.666720
C64	C	0.986576	-0.132136	0.000041
C65	C	1.319909	0.201197	0.333374
C66	C	1.653242	0.534530	0.666708
C67	C	1.061722	-0.367921	0.000063
C68	C	1.395056	-0.034588	0.333396
C69	C	1.728389	0.298745	0.666729
C70	C	1.021204	-0.418469	-0.075979
C71	C	1.354538	-0.085136	0.257354
C72	C	1.687871	0.248198	0.590688
C73	C	0.983563	-0.302856	0.000052
C74	C	1.316896	0.030477	0.333386
C75	C	1.650229	0.363810	0.666719
C76	C	1.021175	-0.418459	0.076073
C77	C	1.354508	-0.085125	0.409406
C78	C	1.687841	0.248208	0.742740
C79	C	0.980658	-0.467765	0.000067
C80	C	1.313991	-0.134432	0.333401
C81	C	1.647325	0.198902	0.666734
C82	C	0.943066	-0.352176	-0.076052
C83	C	1.276399	-0.018843	0.257281
C84	C	1.609732	0.314491	0.590614
C85	C	0.943047	-0.352162	0.076068
C86	C	1.276381	-0.018829	0.409401
C87	C	1.609714	0.314504	0.742735
C88	C	0.902472	-0.402677	0.000008
C89	C	1.235805	-0.069344	0.333341
C90	C	1.569138	0.263989	0.666674
C91	C	0.985238	-0.207857	0.000043
C92	C	1.318571	0.125476	0.333376
C93	C	1.651905	0.458810	0.666710
C94	C	0.978976	-0.562762	0.000070
C95	C	1.312310	-0.229428	0.333403
C96	C	1.645643	0.103905	0.666737
C97	C	1.134114	0.108513	0.000071
C98	C	1.467447	0.441846	0.333404
C99	C	1.800781	0.775179	0.666737
C100	C	1.226410	0.110144	0.000070
C101	C	1.559743	0.443478	0.333404
C102	C	1.893076	0.776811	0.666737
C103	C	0.976016	0.268262	0.000074
C104	C	1.309349	0.601595	0.333407
C105	C	1.642683	0.934928	0.666740
C106	C	0.977642	0.361510	0.000079
C107	C	1.310976	0.694843	0.333413
C108	C	1.644309	1.028176	0.666746
N109	N	0.982098	0.114666	0.219539
N110	N	1.315432	0.448000	0.552872
N111	N	1.648765	0.781333	0.886206
N112	N	0.982126	0.114700	-0.219410
N113	N	1.315459	0.448033	0.113923
N114	N	1.648793	0.781367	0.447256
C115	C	1.040688	0.054543	0.530967
C116	C	1.374021	0.387876	0.864301
C117	C	1.707355	0.721210	1.197634
C118	C	1.057487	0.130210	0.469137
C119	C	1.390820	0.463543	0.802470
C120	C	1.724153	0.796877	1.135803
C121	C	0.982117	0.114691	0.591428
C122	C	1.315450	0.448024	0.924761
C123	C	1.648784	0.781357	1.258095
C124	C	0.965348	0.039014	0.469165
C125	C	1.298682	0.372347	0.802498
C126	C	1.632015	0.705680	1.135831
C127	C	0.982110	0.114675	0.408707
C128	C	1.315443	0.448008	0.742040
C129	C	1.648777	0.781341	1.075373
C130	C	0.998953	0.190396	0.530958
C131	C	1.332286	0.523729	0.864292
C132	C	1.665620	0.857062	1.197625
C133	C	0.906782	0.099150	0.530992
C134	C	1.240115	0.432483	0.864325
C135	C	1.573449	0.765816	1.197658
C136	C	0.923549	0.174872	0.469189
C137	C	1.256882	0.508205	0.802522
C138	C	1.590216	0.841538	1.135856
C139	C	0.982123	0.114699	0.696689
C140	C	1.315456	0.448032	1.030023
C141	C	1.648790	0.781365	1.363356
C142	C	0.982103	0.114675	0.303448
C143	C	1.315437	0.448009	0.636781
C144	C	1.648770	0.781342	0.970114
H145	H	0.542760	0.254921	0.000071
H146	H	0.876093	0.588255	0.333405
H147	H	1.209426	0.921588	0.666738
H148	H	0.910081	-0.323340	-0.140409
H149	H	1.243415	0.009994	0.192925
H150	H	1.576748	0.343327	0.526258
Br151	Br	0.403306	-0.067513	0.000056
Br152	Br	0.736639	0.265821	0.333389
Br153	Br	1.069972	0.599154	0.666723
H154	H	1.129047	-0.352315	-0.000010
H155	H	1.462380	-0.018982	0.333323
H156	H	1.795714	0.314352	0.666657
H157	H	0.835095	-0.418121	-0.000038
H158	H	1.168428	-0.084788	0.333296
H159	H	1.501761	0.248546	0.666629
H160	H	0.385443	0.252126	0.000079
H161	H	0.718776	0.585459	0.333412
H162	H	1.052109	0.918793	0.666746
H163	H	0.874012	0.225785	0.442235
H164	H	1.207345	0.559118	0.775568
H165	H	1.540678	0.892451	1.108901
H166	H	0.578786	-0.022763	0.000055
H167	H	0.912119	0.310570	0.333389
H168	H	1.245452	0.643904	0.666722
Br169	Br	1.022715	0.297077	0.576002
Br170	Br	1.356049	0.630410	0.909336
Br171	Br	1.689382	0.963743	1.242669
H172	H	1.054217	-0.447420	-0.140264
H173	H	1.387551	-0.114087	0.193069
H174	H	1.720884	0.219247	0.526402
Br175	Br	0.888088	-0.303859	0.183220
Br176	Br	1.221421	0.029474	0.516553
Br177	Br	1.554755	0.362807	0.849886
Br178	Br	1.163661	0.152105	0.423825
Br179	Br	1.496995	0.485439	0.757158
Br180	Br	1.830328	0.818772	1.090491
H181	H	0.843096	0.085982	0.558182
H182	H	1.176429	0.419315	0.891515
H183	H	1.509762	0.752648	1.224848
Br184	Br	1.123299	-0.030130	0.576183
Br185	Br	1.456632	0.303204	0.909516
Br186	Br	1.789966	0.636537	1.242849
H187	H	1.054194	-0.447406	0.140356
H188	H	1.387527	-0.114073	0.473690
H189	H	1.720861	0.219260	0.807023
Br190	Br	0.941707	-0.067643	0.423927
Br191	Br	1.275041	0.265690	0.757261
Br192	Br	1.608374	0.599024	1.090594
