data_functionalizedCrystal
_audit_creation_method	'MofGen! by Chris Wilmer'
_symmetry_space_group_name_H-M	'P1'
_symmetry_Int_Tables_number	1
_symmetry_cell_setting	triclinic
loop_
_symmetry_equiv_pos_as_xyz
  x,y,z
_cell_length_a	15.944545
_cell_length_b	11.026607
_cell_length_c	9.482900
_cell_angle_alpha	78.599815
_cell_angle_beta	80.712793
_cell_angle_gamma	83.958906
loop_
_atom_site_label
_atom_site_type_symbol
_atom_site_fract_x
_atom_site_fract_y
_atom_site_fract_z
O1	O	1.148392	-0.137490	-0.120795
O2	O	0.906761	-0.156790	-0.120817
O3	O	1.007550	0.029514	-0.120803
O4	O	1.047603	-0.323793	-0.120809
O5	O	0.987100	-0.008481	0.120987
O6	O	0.886312	-0.194785	0.120972
O7	O	1.127942	-0.175484	0.120995
Cu8	Cu	1.005260	-0.188604	0.143061
Cu9	Cu	1.029444	-0.143671	-0.142883
O10	O	1.027153	-0.361788	0.120980
C11	C	0.989936	0.055728	0.000090
C12	C	0.967910	0.190444	0.000082
C13	C	0.865122	-0.174987	0.000074
C14	C	0.771514	-0.172587	0.000066
C15	C	0.482339	-0.049942	0.000083
C16	C	0.531776	-0.127806	0.119301
C17	C	0.434575	-0.164037	0.000091
C18	C	0.551923	-0.090377	-0.119085
C19	C	0.600124	-0.168231	0.000076
C20	C	0.482771	-0.241887	0.119406
C21	C	0.502921	-0.204424	-0.119086
C22	C	0.552336	-0.282377	0.000160
C23	C	0.339206	-0.161618	0.000100
C24	C	0.695490	-0.170661	0.000077
C25	C	1.169582	-0.157287	0.000100
C26	C	1.263191	-0.159685	0.000099
C27	C	1.044767	-0.388002	0.000085
C28	C	1.066794	-0.522716	0.000082
N29	N	0.988256	-0.220206	0.344178
C30	C	1.028730	0.264246	0.000086
C31	C	1.005966	0.403483	0.000079
N32	N	1.046452	-0.112059	-0.344001
C33	C	1.024421	-0.152986	0.416383
C34	C	1.010282	-0.179289	0.583798
H35	H	0.544899	-0.095459	0.220091
H36	H	0.582077	-0.026336	-0.219868
H37	H	1.087882	-0.035026	0.593881
O38	O	1.073741	-0.060957	0.342315
C39	C	1.094655	0.157449	0.295415
C40	C	1.038709	0.053361	0.379376
H41	H	1.066363	0.249896	0.325370
H42	H	1.097226	0.162363	0.173589
H43	H	1.161839	0.137120	0.325206
H44	H	0.971499	0.073615	0.349707
H45	H	1.036210	0.048472	0.501181
O46	O	0.960721	-0.271052	0.657830
C47	C	0.821655	-0.349965	0.704656
C48	C	0.877680	-0.245952	0.620750
H49	H	0.754509	-0.329722	0.674685
H50	H	0.818983	-0.354809	0.826491
H51	H	0.850023	-0.442426	0.674832
H52	H	0.849354	-0.153436	0.650451
H53	H	0.880352	-0.241218	0.498936
H54	H	0.489777	-0.236729	-0.219881
O55	O	0.446970	-0.318418	0.239676
C56	C	0.442902	-0.527127	0.376424
C57	C	0.483507	-0.440610	0.240144
H58	H	0.472438	-0.625932	0.376863
H59	H	0.371336	-0.524751	0.375491
H60	H	0.454910	-0.494718	0.477874
H61	H	0.471564	-0.472958	0.138623
H62	H	0.555059	-0.442994	0.241206
O63	O	0.588695	-0.399616	0.000171
C64	C	0.718354	-0.533365	-0.000828
C65	C	0.677289	-0.400533	-0.000888
H66	H	0.789986	-0.534155	-0.001654
H67	H	0.705908	-0.566556	-0.101521
H68	H	0.689552	-0.597745	0.100850
H69	H	0.706066	-0.336061	-0.102498
H70	H	0.689728	-0.367444	0.099872
O71	O	0.938699	-0.311964	0.418215
C72	C	0.799632	-0.390878	0.465042
C73	C	0.855657	-0.286864	0.381136
H74	H	0.732486	-0.370634	0.435070
H75	H	0.796960	-0.395721	0.586877
H76	H	0.828000	-0.483338	0.435218
H77	H	0.827331	-0.194348	0.410837
H78	H	0.858329	-0.282130	0.259321
H79	H	0.451822	0.048299	0.000201
O80	O	1.110907	0.216452	0.000161
C81	C	1.208535	0.034124	0.000086
C82	C	1.115430	0.088078	0.000036
H83	H	1.212225	-0.069668	-0.000046
H84	H	1.232621	0.050086	0.101302
H85	H	1.249701	0.082042	-0.101075
H86	H	1.074199	0.040195	0.101129
H87	H	1.091414	0.072133	-0.101247
H88	H	0.937040	0.443375	0.000063
H89	H	1.135731	0.437412	-0.000020
H90	H	0.898989	0.230342	0.000066
