data_functionalizedCrystal
_audit_creation_method	'MofGen! by Chris Wilmer'
_symmetry_space_group_name_H-M	'P1'
_symmetry_Int_Tables_number	1
_symmetry_cell_setting	triclinic
loop_
_symmetry_equiv_pos_as_xyz
  x,y,z
_cell_length_a	17.699083
_cell_length_b	16.109301
_cell_length_c	14.586319
_cell_angle_alpha	90.005214
_cell_angle_beta	90.002525
_cell_angle_gamma	96.627752
loop_
_atom_site_label
_atom_site_type_symbol
_atom_site_fract_x
_atom_site_fract_y
_atom_site_fract_z
O1	O	1.004225	-0.105136	-0.076115
O2	O	1.337558	0.228197	0.257219
O3	O	1.670892	0.561530	0.590552
O4	O	0.783866	-0.118815	-0.076145
O5	O	1.117199	0.214518	0.257188
O6	O	1.450533	0.547851	0.590522
O7	O	0.900099	0.009065	-0.076120
O8	O	1.233432	0.342399	0.257214
O9	O	1.566766	0.675732	0.590547
O10	O	0.887992	-0.233017	-0.076140
O11	O	1.221325	0.100316	0.257193
O12	O	1.554659	0.433649	0.590527
O13	O	0.900091	0.009067	0.076361
O14	O	1.233424	0.342401	0.409694
O15	O	1.566758	0.675734	0.743028
O16	O	0.783858	-0.118813	0.076336
O17	O	1.117191	0.214520	0.409669
O18	O	1.450525	0.547853	0.743002
O19	O	1.004217	-0.105135	0.076366
O20	O	1.337550	0.228199	0.409699
O21	O	1.670883	0.561532	0.743033
Cu22	Cu	0.894037	-0.111974	0.090274
Cu23	Cu	1.227370	0.221359	0.423607
Cu24	Cu	1.560703	0.554693	0.756940
Cu25	Cu	0.894046	-0.111976	-0.090053
Cu26	Cu	1.227380	0.221357	0.243281
Cu27	Cu	1.560713	0.554691	0.576614
O28	O	0.887984	-0.233015	0.076341
O29	O	1.221317	0.100318	0.409674
O30	O	1.554651	0.433651	0.743007
C31	C	0.755664	-0.118324	0.000091
C32	C	1.088998	0.215009	0.333425
C33	C	1.422331	0.548342	0.666758
C34	C	0.671644	-0.116854	0.000080
C35	C	1.004977	0.216479	0.333414
C36	C	1.338311	0.549813	0.666747
N37	N	0.894035	-0.111972	0.217105
N38	N	1.227369	0.221362	0.550439
N39	N	1.560702	0.554695	0.883772
C40	C	0.899604	0.040040	0.000121
C41	C	1.232938	0.373374	0.333454
C42	C	1.566271	0.706707	0.666788
C43	C	0.898134	0.132333	0.000122
C44	C	1.231467	0.465667	0.333456
C45	C	1.564801	0.799000	0.666789
C46	C	0.623130	-0.191917	0.000074
C47	C	0.956464	0.141416	0.333408
C48	C	1.289797	0.474749	0.666741
C49	C	0.544185	-0.190531	0.000086
C50	C	0.877518	0.142803	0.333419
C51	C	1.210852	0.476136	0.666753
C52	C	0.513755	-0.114080	0.000098
C53	C	0.847088	0.219254	0.333431
C54	C	1.180422	0.552587	0.666764
C55	C	0.562275	-0.039011	0.000106
C56	C	0.895608	0.294323	0.333440
C57	C	1.228942	0.627656	0.666773
C58	C	0.641219	-0.040398	0.000101
C59	C	0.974552	0.292935	0.333434
C60	C	1.307886	0.626269	0.666768
C61	C	0.243904	-0.033414	0.000130
C62	C	0.577237	0.299920	0.333463
C63	C	0.910571	0.633253	0.666796
C64	C	0.164954	-0.032032	0.000132
C65	C	0.498287	0.301301	0.333466
C66	C	0.831621	0.634635	0.666799
C67	C	0.146870	-0.183546	0.000115
C68	C	0.480204	0.149787	0.333448
C69	C	0.813537	0.483121	0.666781
C70	C	0.225814	-0.184934	0.000109
C71	C	0.559147	0.148400	0.333443
C72	C	0.892481	0.481733	0.666776
C73	C	0.274327	-0.109865	0.000123
C74	C	0.607660	0.223468	0.333456
C75	C	0.940994	0.556802	0.666790
C76	C	0.359928	-0.111369	0.000112
C77	C	0.693262	0.221964	0.333445
C78	C	1.026595	0.555297	0.666778
C79	C	0.428155	-0.112575	0.000102
C80	C	0.761489	0.220759	0.333436
C81	C	1.094822	0.554092	0.666769
C82	C	1.032419	-0.105626	0.000127
C83	C	1.365752	0.227708	0.333461
C84	C	1.699085	0.561041	0.666794
C85	C	1.116439	-0.107096	0.000133
C86	C	1.449772	0.226237	0.333466
C87	C	1.783105	0.559571	0.666799
C88	C	0.888478	-0.263990	0.000098
C89	C	1.221812	0.069343	0.333431
C90	C	1.555145	0.402676	0.666765
C91	C	0.889949	-0.356283	0.000091
C92	C	1.223282	-0.022950	0.333424
C93	C	1.556615	0.310383	0.666757
C94	C	0.963686	0.354719	0.000117
C95	C	1.297019	0.688052	0.333450
C96	C	1.630352	1.021385	0.666783
C97	C	0.962298	0.441437	0.000109
C98	C	1.295632	0.774770	0.333442
C99	C	1.628965	1.108103	0.666776
C100	C	0.824392	0.421325	0.000093
C101	C	1.157725	0.754658	0.333427
C102	C	1.491059	1.087991	0.666760
C103	C	0.825780	0.334608	0.000095
C104	C	1.159113	0.667942	0.333428
C105	C	1.492447	1.001275	0.666761
C106	C	0.895429	0.301308	0.000111
C107	C	1.228763	0.634641	0.333444
C108	C	1.562096	0.967975	0.666778
C109	C	0.892654	0.474742	0.000102
C110	C	1.225987	0.808076	0.333435
C111	C	1.559320	1.141409	0.666769
C112	C	0.891149	0.568766	0.000094
C113	C	1.224482	0.902099	0.333427
C114	C	1.557815	1.235432	0.666760
C115	C	0.896934	0.207278	0.000118
C116	C	1.230268	0.540612	0.333451
C117	C	1.563601	0.873945	0.666784
N118	N	0.894053	-0.111972	-0.216884
N119	N	1.227387	0.221362	0.116449
N120	N	1.560720	0.554695	0.449782
C121	C	0.945520	-0.055365	0.452123
C122	C	1.278854	0.277968	0.785456
C123	C	1.612187	0.611302	1.118790
C124	C	0.945523	-0.055363	0.548104
C125	C	1.278856	0.277970	0.881438
C126	C	1.612189	0.611304	1.214771
C127	C	0.842563	-0.168581	0.548091
C128	C	1.175896	0.164752	0.881425
C129	C	1.509230	0.498086	1.214758
C130	C	0.842558	-0.168578	0.452112
C131	C	1.175891	0.164755	0.785445
C132	C	1.509224	0.498088	1.118778
C133	C	0.894041	-0.111971	0.404130
C134	C	1.227374	0.221362	0.737463
C135	C	1.560707	0.554695	1.070797
C136	C	0.894048	-0.111972	0.596091
C137	C	1.227381	0.221361	0.929424
C138	C	1.560715	0.554695	1.262758
C139	C	0.894050	-0.111970	0.700158
C140	C	1.227383	0.221363	1.033491
C141	C	1.560717	0.554696	1.366825
C142	C	0.894038	-0.111972	0.300056
C143	C	1.227371	0.221361	0.633390
C144	C	1.560705	0.554695	0.966723
H145	H	0.647900	-0.254172	0.000064
H146	H	0.981233	0.079161	0.333397
H147	H	1.314566	0.412494	0.666731
F148	F	1.037812	0.319281	0.000133
F149	F	1.371146	0.652614	0.333466
F150	F	1.704479	0.985947	0.666800
F151	F	0.492556	-0.270424	0.000076
F152	F	0.825889	0.062910	0.333409
F153	F	1.159223	0.396243	0.666742
F154	F	0.529887	0.042354	0.000125
F155	F	0.863221	0.375688	0.333458
F156	F	1.196554	0.709021	0.666791
F157	F	0.787760	-0.228826	0.401030
F158	F	1.121094	0.104507	0.734363
F159	F	1.454427	0.437840	1.067697
F160	F	0.295525	0.046481	0.000144
F161	F	0.628859	0.379815	0.333477
F162	F	0.962192	0.713148	0.666811
F163	F	0.753128	0.277761	0.000082
F164	F	1.086462	0.611094	0.333415
F165	F	1.419795	0.944427	0.666749
H166	H	0.987440	-0.009271	0.413059
H167	H	1.320773	0.324062	0.746392
H168	H	1.654107	0.657396	1.079725
H169	H	0.987441	-0.009268	0.587177
H170	H	1.320774	0.324065	0.920511
H171	H	1.654108	0.657399	1.253844
H172	H	1.017880	0.484921	0.000112
H173	H	1.351213	0.818254	0.333445
H174	H	1.684546	1.151587	0.666778
H175	H	0.250585	-0.247188	0.000096
H176	H	0.583919	0.086146	0.333429
H177	H	0.917252	0.419479	0.666762
F178	F	0.095233	-0.263442	0.000104
F179	F	0.428566	0.069892	0.333437
F180	F	0.761899	0.403225	0.666771
H181	H	0.140182	0.030227	0.000143
H182	H	0.473515	0.363561	0.333476
H183	H	0.806848	0.696894	0.666809
F184	F	0.692851	0.039495	0.000111
F185	F	1.026184	0.372828	0.333444
F186	F	1.359518	0.706161	0.666777
H187	H	0.767686	0.448449	0.000082
H188	H	1.101019	0.781782	0.333415
H189	H	1.434353	1.115115	0.666749
H190	H	0.800648	-0.214670	0.587167
H191	H	1.133981	0.118663	0.920501
H192	H	1.467314	0.451996	1.253834
