data_functionalizedCrystal
_audit_creation_method	'MofGen! by Chris Wilmer'
_symmetry_space_group_name_H-M	'P1'
_symmetry_Int_Tables_number	1
_symmetry_cell_setting	triclinic
loop_
_symmetry_equiv_pos_as_xyz
  x,y,z
_cell_length_a	16.120484
_cell_length_b	10.686551
_cell_length_c	10.685901
_cell_angle_alpha	90.348291
_cell_angle_beta	88.337926
_cell_angle_gamma	91.292191
loop_
_atom_site_label
_atom_site_type_symbol
_atom_site_fract_x
_atom_site_fract_y
_atom_site_fract_z
Zn1	Zn	-0.400048	0.594690	1.943928
Zn2	Zn	-0.548154	0.397085	1.917224
Zn3	Zn	-0.398493	0.400939	1.718164
Zn4	Zn	-0.527010	0.621179	1.725157
O5	O	-0.468426	0.503473	1.826118
O6	O	-0.429194	0.555779	2.115249
O7	O	-0.536500	0.222727	1.876717
O8	O	-0.282932	0.417168	1.756361
O9	O	-0.538007	0.410600	2.095631
O10	O	-0.284074	0.559516	1.922228
O11	O	-0.426545	0.225558	1.730468
O12	O	-0.406042	0.442852	1.544227
O13	O	-0.501970	0.792534	1.768279
O14	O	-0.500463	0.604661	1.549365
O15	O	-0.408691	0.773074	1.929009
O16	O	-0.661117	0.436284	1.883497
O17	O	-0.645582	0.600925	1.742386
C18	C	-0.683367	0.521085	1.810839
C19	C	-0.775324	0.528653	1.804420
C20	C	-0.450790	0.527050	1.501456
C21	C	-0.443264	0.537168	1.362565
C22	C	-0.453145	0.829413	1.852403
C23	C	-0.446633	0.968310	1.863604
C24	C	-0.943691	0.542495	1.792710
C25	C	-0.992332	0.464456	1.859751
C26	C	-1.086017	0.472157	1.853236
C27	C	-0.849997	0.534795	1.799224
C28	C	-0.252646	0.485817	1.841493
C29	C	-0.160694	0.478294	1.848045
C30	C	-0.483592	0.178791	1.800012
C31	C	-0.489884	0.039859	1.789069
C32	C	-0.486132	0.479805	2.152048
C33	C	-0.493677	0.469719	2.290940
H34	H	-0.963616	0.391859	1.922039
N35	N	-0.979721	0.633558	1.714582
N36	N	-1.056879	0.639756	1.709339
H37	H	-1.082336	0.704066	1.654161
N38	N	-0.542589	0.983392	1.698276
N39	N	-0.547983	0.866856	1.689001
H40	H	-0.585207	0.826968	1.624877
N41	N	-0.555043	0.387548	1.347279
N42	N	-0.602438	0.324128	1.280007
H43	H	-0.645779	0.266090	1.319801
N44	N	-0.393937	1.024781	1.954417
N45	N	-0.388546	1.141317	1.963702
H46	H	-0.351331	1.181202	2.027839
N47	N	-0.381902	0.619330	1.306180
N48	N	-0.375673	0.627715	1.189648
H49	H	-0.332338	0.685742	1.149824
