data_functionalizedCrystal
_audit_creation_method	'MofGen! by Chris Wilmer'
_symmetry_space_group_name_H-M	'P1'
_symmetry_Int_Tables_number	1
_symmetry_cell_setting	triclinic
loop_
_symmetry_equiv_pos_as_xyz
  x,y,z
_cell_length_a	19.077105
_cell_length_b	16.120484
_cell_length_c	19.076929
_cell_angle_alpha	95.043638
_cell_angle_beta	90.078300
_cell_angle_gamma	90.738523
loop_
_atom_site_label
_atom_site_type_symbol
_atom_site_fract_x
_atom_site_fract_y
_atom_site_fract_z
Zn1	Zn	1.040321	-0.403234	-0.456940
Zn2	Zn	1.039004	-0.537266	-0.344925
Zn3	Zn	0.928039	-0.392075	-0.334276
Zn4	Zn	0.916844	-0.536756	-0.457657
O5	O	0.981052	-0.467333	-0.398449
O6	O	1.138260	-0.425897	-0.446237
O7	O	1.028419	-0.513549	-0.244999
O8	O	0.948170	-0.276912	-0.345791
O9	O	1.137293	-0.524369	-0.363941
O10	O	1.030662	-0.285111	-0.435911
O11	O	0.946893	-0.406878	-0.237175
O12	O	0.828440	-0.406384	-0.346486
O13	O	0.929089	-0.523501	-0.556075
O14	O	0.820215	-0.512681	-0.437133
O15	O	1.019807	-0.425403	-0.555548
O16	O	1.017563	-0.653841	-0.364636
O17	O	0.927813	-0.653466	-0.447460
C18	C	0.798887	-0.458267	-0.390732
C19	C	0.720955	-0.454409	-0.387449
C20	C	0.680078	-0.508017	-0.433034
C21	C	0.606852	-0.504381	-0.429951
C22	C	0.574505	-0.447141	-0.381280
C23	C	0.615388	-0.393528	-0.335693
C24	C	0.688612	-0.397160	-0.338779
C25	C	0.355966	-0.430332	-0.366998
C26	C	0.282736	-0.426706	-0.363914
C27	C	0.274205	-0.537558	-0.458173
C28	C	0.347431	-0.541189	-0.461253
C29	C	0.388308	-0.487572	-0.415668
N30	N	0.499657	-0.443426	-0.378126
N31	N	0.463155	-0.491285	-0.418826
C32	C	0.971349	-0.683899	-0.407297
C33	C	0.967261	-0.776552	-0.411109
C34	C	0.959801	-0.946189	-0.418082
C35	C	1.002428	-0.987642	-0.378834
C36	C	0.998278	-1.082034	-0.382714
C37	C	0.963951	-0.851789	-0.414203
C38	C	1.163928	-0.476435	-0.406197
C39	C	1.241859	-0.480313	-0.409499
C40	C	0.973346	-0.475640	-0.582070
C41	C	0.970062	-0.479180	-0.660318
C42	C	0.990812	-0.249922	-0.389583
C43	C	0.994971	-0.157274	-0.385805
C44	C	0.946512	-0.504636	-1.100802
C45	C	0.949595	-0.501297	-1.027279
C46	C	0.998372	-0.448558	-0.990247
C47	C	1.044063	-0.399149	-1.026742
C48	C	1.040976	-0.402483	-1.100263
C49	C	1.012667	-0.433105	-0.770333
C50	C	1.015752	-0.429775	-0.696807
C51	C	0.921282	-0.531923	-0.697349
C52	C	0.918202	-0.535257	-0.770872
C53	C	0.963891	-0.485844	-0.807360
N54	N	1.001526	-0.445147	-0.915095
N55	N	0.960733	-0.489252	-0.882510
C56	C	0.988771	-0.459000	-0.215543
C57	C	0.992201	-0.455232	-0.137292
H58	H	0.573572	-0.548035	-0.467070
Br59	Br	0.391326	-0.618879	-0.527305
H60	H	0.256402	-0.380084	-0.324283
Br61	Br	0.893782	-1.005192	-0.478940
Br62	Br	0.880316	-0.576220	-1.151053
H63	H	0.878484	-0.578203	-0.801019
H64	H	0.240916	-0.581209	-0.495286
H65	H	0.706409	-0.554630	-0.472665
H66	H	1.042040	-0.952239	-0.342318
Br67	Br	1.081957	-0.358201	-0.646549
H68	H	0.389239	-0.386680	-0.329875
Br69	Br	0.887580	-0.568343	-0.977760
H70	H	0.884084	-0.572152	-0.667633
H71	H	1.049873	-0.392874	-0.800033
H72	H	1.083775	-0.356204	-0.996584
Br73	Br	1.102974	-0.335418	-1.149784
H74	H	0.721894	-0.353502	-0.301662
Br75	Br	0.571490	-0.315836	-0.269644
