data_functionalizedCrystal
_audit_creation_method	'MofGen! by Chris Wilmer'
_symmetry_space_group_name_H-M	'P1'
_symmetry_Int_Tables_number	1
_symmetry_cell_setting	triclinic
loop_
_symmetry_equiv_pos_as_xyz
  x,y,z
_cell_length_a	16.974885
_cell_length_b	22.610064
_cell_length_c	16.992695
_cell_angle_alpha	90.004006
_cell_angle_beta	87.023153
_cell_angle_gamma	86.363258
loop_
_atom_site_label
_atom_site_type_symbol
_atom_site_fract_x
_atom_site_fract_y
_atom_site_fract_z
O1	O	1.055447	-0.001288	0.099901
O2	O	1.555447	0.498712	0.599901
O3	O	0.826050	0.009684	0.112635
O4	O	1.326050	0.509684	0.612635
O5	O	0.939829	0.004237	-0.007874
O6	O	1.439829	0.504237	0.492126
O7	O	0.941668	0.004159	0.220410
O8	O	1.441668	0.504159	0.720410
O9	O	0.939793	-0.094130	-0.007874
O10	O	1.439793	0.405870	0.492126
O11	O	0.826015	-0.088684	0.112635
O12	O	1.326015	0.411316	0.612635
O13	O	1.055411	-0.099655	0.099901
O14	O	1.555411	0.400345	0.599901
Zn15	Zn	0.940707	-0.109788	0.106268
Zn16	Zn	1.440707	0.390212	0.606268
Zn17	Zn	0.940754	0.019816	0.106268
Zn18	Zn	1.440754	0.519816	0.606268
O19	O	0.941633	-0.094209	0.220409
O20	O	1.441633	0.405791	0.720409
C21	C	0.796544	-0.038090	0.112152
C22	C	1.296544	0.461910	0.612152
C23	C	0.708678	-0.033888	0.110702
C24	C	1.208678	0.466112	0.610702
C25	C	0.214089	-0.004437	0.102515
C26	C	0.714089	0.495563	0.602515
C27	C	0.296649	-0.008393	0.103877
C28	C	0.796649	0.491607	0.603877
C29	C	0.337901	-0.063992	0.104564
C30	C	0.837901	0.436008	0.604564
C31	C	0.296589	-0.115638	0.103881
C32	C	0.796589	0.384362	0.603881
C33	C	0.214032	-0.111681	0.102513
C34	C	0.714032	0.388319	0.602513
C35	C	0.584809	-0.081576	0.108650
C36	C	1.084809	0.418424	0.608650
C37	C	0.667372	-0.085530	0.110021
C38	C	1.167372	0.414470	0.610021
C39	C	0.667426	0.021716	0.110016
C40	C	1.167426	0.521716	0.610016
C41	C	0.584867	0.025668	0.108653
C42	C	1.084867	0.525668	0.608653
C43	C	0.543563	-0.025978	0.107965
C44	C	1.043563	0.474022	0.607965
N45	N	0.422290	-0.068038	0.105959
N46	N	0.922290	0.431962	0.605959
N47	N	0.459176	-0.021932	0.106564
N48	N	0.959176	0.478068	0.606564
N49	N	0.940681	-0.198239	0.106267
N50	N	1.440681	0.301761	0.606267
C51	C	0.991710	-0.609319	0.153787
C52	C	1.491710	-0.109319	0.653787
C53	C	0.991720	-0.671239	0.153785
C54	C	1.491720	-0.171239	0.653785
O55	O	1.035074	-0.705330	0.194183
O56	O	1.535074	-0.205330	0.694183
N57	N	0.940769	-0.699780	0.106259
N58	N	1.440769	-0.199780	0.606259
C59	C	0.889811	-0.666398	0.058726
C60	C	1.389811	-0.166398	0.558726
O61	O	0.846474	-0.696360	0.018300
O62	O	1.346474	-0.196360	0.518300
C63	C	0.889805	-0.604479	0.058724
C64	C	1.389805	-0.104479	0.558724
C65	C	0.940754	-0.575941	0.106259
C66	C	1.440754	-0.075941	0.606259
C67	C	1.042655	-0.580781	0.201318
C68	C	1.542655	-0.080781	0.701318
C69	C	1.042644	-0.518864	0.201321
C70	C	1.542644	-0.018864	0.701321
C71	C	0.991688	-0.485486	0.153793
C72	C	1.491688	0.014514	0.653793
C73	C	0.940743	-0.514025	0.106262
C74	C	1.440743	-0.014025	0.606262
C75	C	0.838852	-0.571097	0.011187
C76	C	1.338852	-0.071097	0.511187
C77	C	0.838851	-0.509174	0.011189
C78	C	1.338851	-0.009174	0.511189
C79	C	0.889800	-0.480637	0.058724
C80	C	1.389800	0.019363	0.558724
C81	C	0.889776	-0.418730	0.058737
C82	C	1.389776	0.081270	0.558737
N83	N	0.940726	-0.390189	0.106263
N84	N	1.440726	0.109811	0.606263
C85	C	0.991682	-0.423567	0.153791
C86	C	1.491682	0.076433	0.653791
C87	C	0.889826	-0.796432	0.058732
C88	C	1.389826	-0.296432	0.558732
C89	C	0.889827	-0.858350	0.058737
C90	C	1.389827	-0.358350	0.558737
C91	C	0.991737	-0.863187	0.153796
C92	C	1.491737	-0.363187	0.653796
C93	C	0.991732	-0.801268	0.153794
C94	C	1.491732	-0.301268	0.653794
C95	C	0.940777	-0.767891	0.106258
C96	C	1.440777	-0.267891	0.606258
C97	C	0.991655	-0.293539	0.153794
C98	C	1.491655	0.206461	0.653794
C99	C	0.991637	-0.231617	0.153795
C100	C	1.491637	0.268383	0.653795
C101	C	0.889730	-0.226785	0.058734
C102	C	1.389730	0.273215	0.558734
C103	C	0.889745	-0.288701	0.058735
C104	C	1.389745	0.211299	0.558735
C105	C	0.940713	-0.322077	0.106268
C106	C	1.440713	0.177923	0.606268
O107	O	0.846445	-0.384602	0.018357
O108	O	1.346445	0.115398	0.518357
O109	O	1.035019	-0.393598	0.194202
O110	O	1.535019	0.106402	0.694202
C111	C	1.084917	-0.051881	0.100384
C112	C	1.584917	0.448119	0.600384
C113	C	1.172783	-0.056079	0.101834
C114	C	1.672783	0.443921	0.601834
C115	C	0.937445	-0.044833	-0.037084
C116	C	1.437445	0.455167	0.462916
C117	C	0.930386	-0.044496	-0.124120
C118	C	1.430386	0.455504	0.375880
N119	N	0.940786	0.108267	0.106262
N120	N	1.440786	0.608267	0.606262
C121	C	0.998499	-0.047754	-0.174436
C122	C	1.498499	0.452246	0.325564
C123	C	0.991862	-0.047431	-0.256215
C124	C	1.491862	0.452569	0.243785
C125	C	0.917109	-0.043854	-0.287677
C126	C	1.417109	0.456146	0.212323
C127	C	0.848991	-0.040593	-0.237355
C128	C	1.348991	0.459407	0.262645
C129	C	0.855629	-0.040912	-0.155577
C130	C	1.355629	0.459088	0.344423
C131	C	0.889595	-0.042530	-0.531244
C132	C	1.389595	0.457470	-0.031244
C133	C	0.882962	-0.042213	-0.613029
C134	C	1.382962	0.457787	-0.113029
C135	C	1.025834	-0.049049	-0.631883
C136	C	1.525834	0.450951	-0.131883
C137	C	1.032466	-0.049371	-0.550103
C138	C	1.532466	0.450629	-0.050103
C139	C	0.964347	-0.046108	-0.499788
C140	C	1.464347	0.453892	0.000212
N141	N	0.910323	-0.043525	-0.371268
N142	N	1.410323	0.456475	0.128732
N143	N	0.971134	-0.046432	-0.416198
N144	N	1.471134	0.453568	0.083802
C145	C	0.944016	-0.045137	0.249619
C146	C	1.444016	0.454863	0.749619
C147	C	0.951076	-0.045471	0.336656
C148	C	1.451076	0.454529	0.836656
H149	H	1.033159	-0.320706	0.192499
H150	H	1.533159	0.179294	0.692499
H151	H	1.059371	-0.050670	-0.148826
H152	H	1.559371	0.449330	0.351174
H153	H	0.800163	-0.038259	-0.114610
H154	H	1.300163	0.461741	0.385390
N155	N	0.341207	0.047302	0.104621
N156	N	0.841207	0.547302	0.604621
H157	H	0.378803	0.047889	0.056608
H158	H	0.878803	0.547889	0.556608
H159	H	0.302500	0.083096	0.104014
H160	H	0.802500	0.583096	0.604014
N161	N	0.169594	0.055529	0.101774
N162	N	0.669594	0.555529	0.601774
H163	H	0.180632	0.078449	0.150588
H164	H	0.680632	0.578449	0.650588
H165	H	0.187336	0.078070	0.053398
H166	H	0.687336	0.578070	0.553398
N167	N	0.834855	-0.760432	0.007469
N168	N	1.334855	-0.260432	0.507469
H169	H	0.866846	-0.736267	-0.030930
H170	H	1.366846	-0.236267	0.469070
H171	H	0.802592	-0.787950	-0.022582
H172	H	1.302592	-0.287950	0.477418
H173	H	0.797365	-0.594322	-0.027523
H174	H	1.297365	-0.094322	0.472477
N175	N	0.540376	0.085635	0.107902
N176	N	1.040376	0.585635	0.607902
H177	H	0.551413	0.108556	0.156715
H178	H	1.051413	0.608556	0.656715
H179	H	0.558122	0.108173	0.059524
H180	H	1.058122	0.608173	0.559524
H181	H	0.701065	0.063763	0.110575
H182	H	1.201065	0.563763	0.610575
H183	H	0.788125	-0.037677	-0.262978
H184	H	1.288125	0.462323	0.237022
H185	H	1.081292	-0.051705	-0.672858
H186	H	1.581292	0.448295	-0.172858
N187	N	0.169479	-0.167381	0.101773
N188	N	0.669479	0.332619	0.601773
H189	H	0.208176	-0.203203	0.101859
H190	H	0.708176	0.296797	0.601859
H191	H	0.132280	-0.168115	0.150069
H192	H	0.632280	0.331885	0.650069
N193	N	1.113087	-0.053214	-0.516160
N194	N	1.613087	0.446786	-0.016160
H195	H	1.119015	-0.089961	-0.482650
H196	H	1.619015	0.410039	0.017350
H197	H	1.155189	-0.055201	-0.560481
H198	H	1.655189	0.444799	-0.060481
H199	H	0.797357	-0.482002	-0.027522
H200	H	1.297357	0.017998	0.472478
H201	H	0.551190	-0.123630	0.108079
H202	H	1.051190	0.376370	0.608079
N203	N	0.711866	-0.145501	0.110758
N204	N	1.211866	0.354499	0.610758
H205	H	0.770433	-0.140168	0.111735
H206	H	1.270433	0.359832	0.611735
H207	H	0.694077	-0.168061	0.159100
H208	H	1.194077	0.331939	0.659100
N209	N	0.341078	-0.175607	0.104619
N210	N	0.841078	0.324393	0.604619
H211	H	0.399646	-0.170278	0.105593
H212	H	0.899646	0.329722	0.605593
H213	H	0.323288	-0.198165	0.152963
H214	H	0.823288	0.301835	0.652963
H215	H	0.834128	-0.039872	-0.490287
H216	H	1.334128	0.460128	0.009713
H217	H	1.033125	-0.208384	0.192508
H218	H	1.533125	0.291616	0.692508
N219	N	0.802333	-0.038353	-0.646965
N220	N	1.302333	0.461647	-0.146965
H221	H	0.760186	-0.036333	-0.602682
H222	H	1.260186	0.463667	-0.102682
H223	H	0.796488	-0.001607	-0.680484
H224	H	1.296488	0.498393	-0.180484
N225	N	1.097604	-0.488089	0.252582
N226	N	1.597604	0.011911	0.752582
H227	H	1.129886	-0.518637	0.282682
H228	H	1.629886	-0.018637	0.782682
H229	H	1.134093	-0.464140	0.218370
H230	H	1.634093	0.035860	0.718370
H231	H	1.084153	-0.607951	0.240021
H232	H	1.584153	-0.107951	0.740021
H233	H	1.033218	-0.778037	0.192502
H234	H	1.533218	-0.278037	0.692502
N235	N	1.046699	-0.899194	0.205060
N236	N	1.546699	-0.399194	0.705060
H237	H	1.038970	-0.942748	0.197842
H238	H	1.538970	-0.442748	0.697842
H239	H	1.103221	-0.891062	0.189538
H240	H	1.603221	-0.391062	0.689538
H241	H	0.848331	-0.881579	0.020038
H242	H	1.348331	-0.381579	0.520038
N243	N	0.834780	-0.319486	0.007483
N244	N	1.334780	0.180514	0.507483
H245	H	0.802494	-0.288942	-0.022620
H246	H	1.302494	0.211058	0.477380
H247	H	0.866831	-0.346700	-0.030870
H248	H	1.366831	0.153300	0.469130
H249	H	0.848241	-0.199597	0.020040
H250	H	1.348241	0.300403	0.520040
N251	N	1.065327	-0.050949	-0.310485
N252	N	1.565327	0.449051	0.189515
H253	H	1.113689	-0.053268	-0.278145
H254	H	1.613689	0.446732	0.221855
H255	H	1.065664	-0.087431	-0.344828
H256	H	1.565664	0.412569	0.155172
