data_functionalizedCrystal
_audit_creation_method	'MofGen! by Chris Wilmer'
_symmetry_space_group_name_H-M	'P1'
_symmetry_Int_Tables_number	1
_symmetry_cell_setting	triclinic
loop_
_symmetry_equiv_pos_as_xyz
  x,y,z
_cell_length_a	12.759395
_cell_length_b	12.759394
_cell_length_c	11.169409
_cell_angle_alpha	89.967228
_cell_angle_beta	89.977957
_cell_angle_gamma	90.014617
loop_
_atom_site_label
_atom_site_type_symbol
_atom_site_fract_x
_atom_site_fract_y
_atom_site_fract_z
Zn1	Zn	1.606285	-0.418161	-0.678586
Zn2	Zn	1.606175	-0.593886	-0.477901
Zn3	Zn	1.430580	-0.418224	-0.477915
Zn4	Zn	1.430578	-0.593801	-0.678541
O5	O	1.518405	-0.506018	-0.578236
O6	O	1.753292	-0.441480	-0.651978
O7	O	1.582837	-0.570647	-0.309953
O8	O	1.453935	-0.271195	-0.504559
O9	O	1.753211	-0.570585	-0.504535
O10	O	1.583025	-0.271148	-0.651991
O11	O	1.453828	-0.441589	-0.309963
O12	O	1.283559	-0.441505	-0.504516
O13	O	1.453932	-0.570439	-0.846497
O14	O	1.283558	-0.570501	-0.651914
O15	O	1.583023	-0.441397	-0.846530
O16	O	1.582835	-0.740896	-0.504492
O17	O	1.453825	-0.740833	-0.651901
C18	C	1.245437	-0.506001	-0.578212
C19	C	1.128661	-0.506020	-0.578231
C20	C	0.909310	-0.371823	-0.732050
C21	C	0.964218	-0.304702	-0.808926
C22	C	1.073940	-0.304684	-0.808905
C23	C	1.128756	-0.371796	-0.732003
C24	C	1.073847	-0.438917	-0.655127
C25	C	0.964123	-0.438926	-0.655154
C26	C	1.073753	-0.573140	-0.501355
C27	C	0.964031	-0.573155	-0.501368
C28	C	1.128568	-0.640252	-0.424453
C29	C	1.073660	-0.707369	-0.347569
C30	C	0.963932	-0.707384	-0.347593
C31	C	0.909123	-0.640275	-0.424493
C32	C	1.518347	-0.778985	-0.578216
C33	C	1.518418	-0.895762	-0.578248
C34	C	1.652738	-0.895555	-0.731884
C35	C	1.719931	-0.950313	-0.808711
C36	C	1.719994	-1.060034	-0.808737
C37	C	1.652854	-1.115001	-0.731930
C38	C	1.585660	-1.060244	-0.655103
C39	C	1.585607	-0.950519	-0.655083
C40	C	1.451336	-1.060450	-0.501475
C41	C	1.451277	-0.950729	-0.501441
C42	C	1.384196	-1.115417	-0.424668
C43	C	1.317006	-1.060660	-0.347833
C44	C	1.316947	-0.950931	-0.347809
C45	C	1.384084	-0.895971	-0.424614
C46	C	1.792438	-0.506035	-0.578260
C47	C	1.909215	-0.506043	-0.578270
C48	C	1.518489	-0.505902	-0.891278
C49	C	1.518525	-0.505852	-1.024678
C50	C	1.518492	-0.231984	-0.578282
C51	C	1.518529	-0.115208	-0.578302
C52	C	1.518382	-0.506058	-0.266411
C53	C	1.518549	-0.505812	-0.133012
H54	H	0.919232	-0.762047	-0.284996
H55	H	1.262226	-0.906354	-0.285252
H56	H	1.118300	-0.762012	-0.284968
O57	O	1.235151	-0.640239	-0.424211
C58	C	1.392553	-0.613067	-0.309183
C59	C	1.271849	-0.613062	-0.309289
H60	H	1.422260	-0.591075	-0.216285
H61	H	1.422396	-0.694454	-0.333844
H62	H	1.422363	-0.553598	-0.377382
H63	H	1.241949	-0.672480	-0.241089
H64	H	1.242077	-0.531638	-0.284681
O65	O	1.652783	-0.788972	-0.732042
C66	C	1.726459	-0.631401	-0.816242
C67	C	1.726495	-0.752105	-0.816202
H68	H	1.786064	-0.601557	-0.884259
H69	H	1.645106	-0.601598	-0.841138
H70	H	1.748228	-0.601687	-0.723279
H71	H	1.704770	-0.781908	-0.909136
H72	H	1.807856	-0.781837	-0.791238
H73	H	1.218097	-0.371786	-0.732004
H74	H	1.384247	-1.204758	-0.424699
H75	H	0.819781	-0.640268	-0.424504
O76	O	1.251891	-1.114215	-0.273271
C77	C	1.192400	-1.283345	-0.205290
C78	C	1.266213	-1.222820	-0.289774
H79	H	1.203937	-1.371163	-0.218622
H80	H	1.210876	-1.261910	-0.108498
H81	H	1.107676	-1.261757	-0.226267
H82	H	1.350961	-1.244376	-0.268906
H83	H	1.247646	-1.244260	-0.386542
O84	O	1.785033	-0.896961	-0.883490
C85	C	1.835975	-0.863257	-1.087681
C86	C	1.762172	-0.923720	-1.003127
H87	H	1.817533	-0.884886	-1.184423
H88	H	1.824385	-0.775418	-1.074571
H89	H	1.920705	-0.884761	-1.066628
H90	H	1.677413	-0.902304	-1.024127
H91	H	1.773853	-1.011544	-1.016253
H92	H	1.384047	-0.806630	-0.424597
O93	O	1.785109	-1.113283	-0.883492
C94	C	1.799233	-1.237111	-1.045505
C95	C	1.725375	-1.176851	-0.960939
H96	H	1.750969	-1.288537	-1.108125
H97	H	1.847192	-1.179037	-1.100492
H98	H	1.854232	-1.288427	-0.990433
H99	H	1.670312	-1.125533	-1.015918
H100	H	1.677490	-1.234982	-0.905948
H101	H	1.652901	-1.204342	-0.731968
H102	H	0.819969	-0.371808	-0.732049
H103	H	1.118646	-0.250031	-0.871506
H104	H	0.919575	-0.250063	-0.871541
