data_functionalizedCrystal
_audit_creation_method	'MofGen! by Chris Wilmer'
_symmetry_space_group_name_H-M	'P1'
_symmetry_Int_Tables_number	1
_symmetry_cell_setting	triclinic
loop_
_symmetry_equiv_pos_as_xyz
  x,y,z
_cell_length_a	20.919309
_cell_length_b	14.446369
_cell_length_c	14.446369
_cell_angle_alpha	60.003968
_cell_angle_beta	90.000599
_cell_angle_gamma	57.438858
loop_
_atom_site_label
_atom_site_type_symbol
_atom_site_fract_x
_atom_site_fract_y
_atom_site_fract_z
Zr1	Zr	0.641735	0.940910	-0.085318
O2	O	0.535358	1.146009	-0.239109
O3	O	0.674350	0.744119	-0.038175
O4	O	0.674344	0.937227	-0.231283
O5	O	0.535363	0.952909	0.106328
O6	O	0.783974	0.924872	-0.225109
O7	O	0.535363	0.952901	-0.046000
O8	O	0.783984	0.579436	0.120327
O9	O	0.535353	1.298345	-0.239107
O10	O	0.770070	0.812765	-0.013459
O11	O	0.688254	0.821991	0.095614
O12	O	0.688247	1.049352	-0.131746
O13	O	0.606432	1.058579	-0.022673
Zr14	Zr	0.816582	0.921219	0.167476
Zr15	Zr	0.816582	0.921206	-0.075471
Zr16	Zr	0.641735	0.940924	0.157628
Zr17	Zr	0.641728	1.183869	-0.085316
Zr18	Zr	0.816590	0.678261	0.167473
O19	O	0.783967	1.118011	0.120332
O20	O	0.783968	1.117992	-0.225107
O21	O	0.535357	1.146028	0.106330
O22	O	0.922960	0.716120	0.321266
O23	O	0.922960	0.716101	-0.024173
O24	O	0.674349	0.744138	0.307264
O25	O	0.922954	0.909220	-0.024171
O26	O	0.783973	0.924902	0.313441
O27	O	0.674343	0.937257	0.307266
O28	O	0.922954	0.909229	0.128158
O29	O	0.674333	1.282683	-0.231280
O30	O	0.783984	0.579447	0.313437
O31	O	0.922964	0.563784	0.321265
O32	O	0.922964	0.563773	0.128154
O33	O	0.535353	1.298356	-0.045997
O34	O	0.674333	1.282693	-0.038169
O35	O	0.770070	0.812777	0.213903
O36	O	0.851886	0.803551	0.104830
O37	O	0.770063	1.040138	-0.013457
O38	O	0.688247	1.049365	0.095616
C39	C	0.729168	0.627161	0.041076
C40	C	0.729171	0.524019	0.041075
C41	C	0.780509	0.371914	-0.028083
C42	C	0.780800	0.478805	-0.027759
C43	C	0.766813	0.392926	0.166719
C44	C	0.767187	0.285505	0.166350
C45	C	0.640119	0.474791	-0.014403
C46	C	0.640262	0.583248	-0.016899
C47	C	0.510451	0.955712	0.028761
C48	C	0.436224	0.964078	0.024580
C49	C	0.444060	0.844515	0.084355
C50	C	0.374313	0.852383	0.080424
C51	C	0.296731	0.979815	0.016712
C52	C	0.288896	1.099387	-0.043065
C53	C	0.358642	1.091518	-0.039127
C54	C	0.084005	1.009754	0.001739
C55	C	0.014257	1.017615	-0.002198
C56	C	0.099679	0.770609	0.121294
C57	C	0.169423	0.762751	0.125220
C58	C	0.161582	0.882323	0.065449
C59	C	0.225437	0.987861	0.012689
C60	C	0.232876	0.874276	0.069479
C61	C	0.947866	0.906417	0.053397
C62	C	1.022093	0.898052	0.057577
C63	C	0.729159	0.931048	-0.262811
C64	C	0.729159	0.931042	-0.365948
C65	C	0.729149	1.234968	0.041082
C66	C	0.729146	1.338110	0.041083
C67	C	0.781021	0.781813	-0.438011
C68	C	0.780797	0.781741	-0.330695
C69	C	0.640258	1.012289	-0.445514
C70	C	0.640542	1.011347	-0.552357
C71	C	0.765479	1.000220	-0.546894
C72	C	0.767278	0.997314	-0.438121
C73	C	0.729158	0.931081	0.344968
C74	C	0.729158	0.931087	0.448105
C75	C	0.947875	0.602513	0.053394
C76	C	1.022106	0.491006	0.057573
C77	C	0.729168	0.627178	0.344965
C78	C	0.729171	0.524041	0.448101
C79	C	0.947875	0.602530	0.357283
C80	C	1.022105	0.491028	0.464600
C81	C	0.510442	1.259599	-0.275125
C82	C	0.436212	1.371101	-0.382442
C83	C	0.510442	1.259616	0.028764
C84	C	0.436211	1.371123	0.024584
C85	C	0.729149	1.234952	-0.262808
C86	C	0.729146	1.338088	-0.365944
C87	C	1.014258	0.443451	-0.002220
C88	C	1.083999	0.338692	0.001684
C89	C	1.161586	0.281484	0.065388
C90	C	1.169432	0.329049	0.125183
C91	C	1.099692	0.433812	0.121272
C92	C	1.099679	0.433849	0.458062
C93	C	1.169433	0.329094	0.558889
C94	C	1.161611	0.281514	0.666252
C95	C	1.084030	0.338704	0.672787
C96	C	1.014277	0.443463	0.571961
C97	C	0.358638	1.428292	-0.375905
C98	C	0.288884	1.533077	-0.476731
C99	C	0.296706	1.580662	-0.584094
C100	C	0.374288	1.523466	-0.590629
C101	C	0.444040	1.418690	-0.489804
C102	C	0.444059	1.418689	0.084367
C103	C	0.374318	1.523474	0.080437
C104	C	0.296731	1.580686	0.016729
C105	C	0.288885	1.533116	-0.043062
C106	C	0.358625	1.428339	-0.039137
C107	C	0.677325	0.383570	0.520162
C108	C	0.677541	0.490466	0.412847
C109	C	0.818076	0.387169	0.527661
C110	C	0.817800	0.279826	0.634503
C111	C	0.692858	0.468879	0.629054
C112	C	0.691050	0.577552	0.520282
H113	H	0.755559	0.570991	-0.120141
H114	H	0.598773	0.620052	0.027795
C115	C	0.203560	1.239563	-0.113143
H116	H	0.208884	1.309643	-0.148169
H117	H	0.174575	1.247771	-0.170936
H118	H	0.174578	1.247763	-0.063547
C119	C	0.855756	0.917192	-0.363678
H120	H	0.869414	0.843663	-0.288921
H121	H	0.891656	0.882431	-0.397875
H122	H	0.860777	0.976054	-0.358290
C123	C	1.254780	0.266100	0.195263
H124	H	1.295184	0.196886	0.189033
H125	H	1.260913	0.334960	0.166323
H126	H	1.260903	0.227585	0.273686
H127	H	0.755607	0.728332	-0.278328
C128	C	0.349987	1.376009	-0.104886
H129	H	0.402629	1.305417	-0.093437
H130	H	0.321003	1.341486	-0.077206
H131	H	0.321005	1.448850	-0.184593
H132	H	0.232591	0.658982	0.177080
H133	H	0.507202	1.372125	-0.495140
C134	C	0.529396	1.355773	0.154452
H135	H	0.524069	1.399130	0.189479
H136	H	0.558381	1.261017	0.212243
H137	H	0.558379	1.368391	0.104859
C138	C	0.529396	0.704338	0.154445
H139	H	0.524071	0.634259	0.189492
H140	H	0.558387	0.696120	0.104869
H141	H	0.558372	0.696144	0.212241
C142	C	0.350022	1.223036	-0.104883
H143	H	0.293829	1.300058	-0.143401
H144	H	0.375453	1.225105	-0.052228
H145	H	0.375457	1.225096	-0.159607
H146	H	0.225721	1.579629	-0.471388
H147	H	1.218415	0.196211	0.748341
C148	C	1.254764	0.266161	0.551686
H149	H	1.295191	0.196956	0.627105
H150	H	1.260858	0.227665	0.511770
H151	H	1.260888	0.335037	0.511750
H152	H	0.601671	0.454337	0.035667
C153	C	0.219974	1.695897	-0.694992
H154	H	0.172656	1.723123	-0.675712
H155	H	0.219952	1.771523	-0.738847
H156	H	0.219967	1.664116	-0.738824
C157	C	0.382963	1.575769	0.146222
H158	H	0.439161	1.526667	0.184740
H159	H	0.357542	1.670123	0.093584
H160	H	0.357531	1.562749	0.200948
C161	C	0.220024	1.695934	0.012424
H162	H	0.235817	1.716052	0.057166
H163	H	0.188467	1.775107	-0.064951
H164	H	0.188474	1.667724	0.042432
C165	C	0.855684	0.152930	0.225912
H166	H	0.856692	0.086238	0.226217
H167	H	0.888066	0.170612	0.185483
H168	H	0.876886	0.120136	0.302796
H169	H	0.611464	0.964005	-0.553726
C170	C	0.382881	1.575809	-0.708732
H171	H	0.330224	1.646388	-0.767835
H172	H	0.411858	1.610354	-0.715622
H173	H	0.411850	1.502970	-0.715609
H174	H	0.608666	0.517877	-0.105744
C175	C	1.075354	0.286376	-0.064080
H176	H	1.019156	0.335439	-0.102559
H177	H	1.100772	0.299396	-0.118818
H178	H	1.100789	0.192011	-0.011421
C179	C	0.736710	0.615945	0.557235
H180	H	0.712364	0.647964	0.600624
H181	H	0.792252	0.537981	0.602962
H182	H	0.733657	0.685640	0.490875
H183	H	0.727870	1.110129	-0.627209
C184	C	0.108298	0.639093	0.187049
H185	H	0.055650	0.662025	0.175590
H186	H	0.137281	0.587049	0.159384
H187	H	0.137273	0.587073	0.266756
C188	C	0.203537	1.596049	-0.113125
H189	H	0.163133	1.665249	-0.106881
H190	H	0.197402	1.634549	-0.191545
H191	H	0.197417	1.527166	-0.084150
C192	C	0.585503	1.159699	-0.661615
H193	H	0.585307	1.160128	-0.727591
H194	H	0.531499	1.205378	-0.662350
H195	H	0.605756	1.205107	-0.662311
H196	H	0.380701	0.755022	0.129101
C197	C	0.852584	0.928393	-0.547534
H198	H	0.867615	0.855562	-0.550857
H199	H	0.854375	0.991878	-0.612691
H200	H	0.889505	0.893389	-0.479423
C201	C	1.075437	0.286344	0.790889
H202	H	1.128093	0.215752	0.849992
H203	H	1.046457	0.359162	0.797783
H204	H	1.046470	0.251780	0.797762
H205	H	0.845792	0.274898	0.010294
H206	H	0.612074	0.587192	0.354893
H207	H	0.951116	0.490006	0.577300
C208	C	0.585780	1.160944	-0.485369
H209	H	0.532315	1.208210	-0.533371
H210	H	0.583570	1.162048	-0.420222
H211	H	0.607844	1.204293	-0.527125
C212	C	0.588667	0.443831	0.512025
H213	H	0.582483	0.441818	0.578009
H214	H	0.552715	0.535420	0.444927
H215	H	0.576111	0.391396	0.508148
H216	H	0.352254	1.389555	-0.288494
H217	H	0.951089	0.490028	-0.054109
H218	H	-0.048916	1.121391	-0.054085
H219	H	0.296046	0.770521	0.121358
C220	C	0.869231	0.696269	-0.252385
H221	H	0.905619	0.661272	-0.286022
H222	H	0.875667	0.752041	-0.243602
H223	H	0.880973	0.622732	-0.179218
C224	C	0.869686	0.695761	-0.429857
H225	H	0.875872	0.750092	-0.495835
H226	H	0.905623	0.664239	-0.362754
H227	H	0.882260	0.619869	-0.425979
C228	C	0.600696	0.949914	-0.378043
H229	H	0.638218	0.874386	-0.301409
H230	H	0.553010	1.016659	-0.377132
H231	H	0.586471	0.920186	-0.413955
H232	H	1.106093	0.472518	0.169970
C233	C	0.711053	0.258650	0.520646
H234	H	0.756605	0.178926	0.589949
H235	H	0.669826	0.249355	0.515403
H236	H	0.727554	0.270592	0.456888
C237	C	1.238293	0.166235	0.069693
H238	H	1.222500	0.146104	0.024965
H239	H	1.269851	0.194425	0.039701
H240	H	1.269843	0.087059	0.147077
H241	H	0.756060	0.728612	-0.438384
H242	H	1.106063	0.472573	0.370651
C243	C	0.711548	0.436047	0.342072
H244	H	0.725296	0.348438	0.378880
H245	H	0.671436	0.496694	0.267220
H246	H	0.758897	0.429417	0.336463
H247	H	0.733430	1.105805	-0.465541
H248	H	0.846883	0.185795	0.635865
H249	H	0.858541	0.245282	0.715377
H250	H	0.858390	0.404875	0.557162
H251	H	0.847360	0.345309	0.477703
H252	H	0.628382	0.515717	0.629540
H253	H	0.625553	0.675425	0.465174
C254	C	0.743638	0.429685	0.737568
H255	H	0.721396	0.509107	0.734051
H256	H	0.742424	0.366376	0.803782
H257	H	0.798427	0.389403	0.741805
C258	C	0.869517	0.418201	0.024539
H259	H	0.905520	0.328076	0.045680
H260	H	0.881393	0.472966	-0.030492
H261	H	0.876375	0.416145	0.090718
H262	H	0.162261	1.091616	-0.039185
C263	C	0.720044	0.250177	0.240327
H264	H	0.700743	0.301488	0.270464
H265	H	0.675078	0.271627	0.194357
H266	H	0.755279	0.155559	0.301870
H267	H	0.831703	0.347058	0.211063
C268	C	0.602271	0.709754	-0.141982
H269	H	0.548496	0.745105	-0.176591
H270	H	0.600433	0.777316	-0.142795
H271	H	0.634447	0.684872	-0.183737
H272	H	0.755388	0.411982	-0.120691
H273	H	0.077610	1.107118	-0.046952
H274	H	0.731204	0.419189	0.220732
