data_functionalizedCrystal
_audit_creation_method	'MofGen! by Chris Wilmer'
_symmetry_space_group_name_H-M	'P1'
_symmetry_Int_Tables_number	1
_symmetry_cell_setting	triclinic
loop_
_symmetry_equiv_pos_as_xyz
  x,y,z
_cell_length_a	6.817900
_cell_length_b	10.943867
_cell_length_c	10.943624
_cell_angle_alpha	91.774148
_cell_angle_beta	108.838799
_cell_angle_gamma	108.843261
loop_
_atom_site_label
_atom_site_type_symbol
_atom_site_fract_x
_atom_site_fract_y
_atom_site_fract_z
V1	V	-4.115528	-0.178599	-0.402537
O2	O	-4.073202	0.008617	-0.394889
O3	O	-4.093511	-0.354166	-0.399769
O4	O	-4.093490	-0.175837	-0.578103
O5	O	-4.073223	-0.170946	-0.215320
V6	V	-4.592321	-0.156208	-0.380146
O7	O	-4.391548	-0.227717	-0.451653
O8	O	-4.766498	-0.107090	-0.331030
O9	O	-4.391132	0.019359	-0.382913
O10	O	-4.752044	-0.343425	-0.387794
O11	O	-4.752023	-0.163861	-0.567362
O12	O	-4.391153	-0.158970	-0.204579
C13	C	-3.944077	-0.396966	-0.393415
C14	C	-4.007537	-0.540494	-0.392323
C15	C	-4.236980	-0.631377	-0.398403
C16	C	-4.234083	-0.730484	-0.501327
C17	C	-4.123503	-0.697130	-0.287478
C18	C	-4.003849	-0.637725	-0.495350
C19	C	-3.893244	-0.604349	-0.281406
C20	C	-3.890203	-0.703417	-0.384352
C21	C	-3.944049	-0.169488	-0.620897
C22	C	-4.007489	-0.168391	-0.764423
C23	C	-3.852317	-0.161004	-0.841571
C24	C	-4.041696	-0.270650	-0.947552
C25	C	-3.931175	-0.056802	-0.914183
C26	C	-4.196078	-0.278140	-0.868528
C27	C	-4.085477	-0.064195	-0.835135
C28	C	-4.274992	-0.173873	-0.941086
C29	C	-4.203909	0.062152	-0.389264
C30	C	-4.119688	0.205678	-0.390364
C31	C	-4.203936	-0.165324	-0.161779
C32	C	-4.119733	-0.166414	-0.018251
H33	H	-4.174768	-0.723670	-0.199626
H34	H	-3.748608	-0.549581	-0.188434
H35	H	-3.673115	-0.155709	-0.798123
O36	O	-4.406878	-0.795940	-0.612107
C37	C	-4.783006	-0.946488	-0.704637
C38	C	-4.587467	-0.872471	-0.579082
H39	H	-4.929077	-1.008360	-0.677981
H40	H	-4.731344	-1.012481	-0.760775
H41	H	-4.833404	-0.873334	-0.768121
H42	H	-4.536976	-0.945531	-0.515498
H43	H	-4.639238	-0.806458	-0.523045
O44	O	-4.020015	-0.374665	-1.005866
C45	C	-3.773618	-0.485566	-1.020981
C46	C	-3.797871	-0.367698	-0.954870
H47	H	-3.594035	-0.479987	-0.979758
H48	H	-3.823974	-0.484247	-1.130777
H49	H	-3.884955	-0.579783	-1.001289
H50	H	-3.686544	-0.273419	-0.974461
H51	H	-3.747594	-0.369132	-0.845095
H52	H	-4.307478	-0.371785	-0.847976
O53	O	-4.488779	-0.180153	-0.992708
C54	C	-4.738832	-0.075267	-1.109570
C55	C	-4.496621	-0.067967	-1.051137
H56	H	-4.745256	0.015410	-1.156849
H57	H	-4.811770	-0.080593	-1.028828
H58	H	-4.838808	-0.166088	-1.186377
H59	H	-4.396466	0.022846	-0.974346
H60	H	-4.423858	-0.062712	-1.131952
O61	O	-4.410977	-0.593285	-0.405422
C62	C	-4.549707	-0.459009	-0.302483
C63	C	-4.352509	-0.502058	-0.294348
H64	H	-4.502490	-0.385225	-0.212706
H65	H	-4.697899	-0.547730	-0.306615
H66	H	-4.594679	-0.412136	-0.394216
H67	H	-4.307340	-0.548907	-0.202624
H68	H	-4.204439	-0.413294	-0.290289
O69	O	-3.943040	-0.606076	-0.600271
C70	C	-3.814600	-0.434448	-0.719002
C71	C	-3.883418	-0.470113	-0.600135
H72	H	-3.766333	-0.324518	-0.718917
H73	H	-3.959058	-0.487629	-0.812629
H74	H	-3.667300	-0.464797	-0.713407
H75	H	-4.030664	-0.439765	-0.605603
H76	H	-3.738836	-0.416945	-0.506557
O77	O	-4.106978	0.039784	-0.776648
C78	C	-4.286214	0.112977	-0.647591
C79	C	-4.262163	-0.004910	-0.713808
H80	H	-4.411641	0.076886	-0.596745
H81	H	-4.345568	0.173646	-0.724406
H82	H	-4.119091	0.175685	-0.572520
H83	H	-4.429212	-0.067715	-0.788871
H84	H	-4.202699	-0.065481	-0.636918
O85	O	-3.797991	0.054774	-0.938746
C86	C	-3.425544	0.187553	-0.915934
C87	C	-3.576128	0.061171	-0.888009
H88	H	-3.246143	0.192752	-0.874951
H89	H	-3.442327	0.275644	-0.867717
H90	H	-3.476724	0.187779	-1.025904
H91	H	-3.525047	0.060816	-0.778064
H92	H	-3.559327	-0.026865	-0.936315
H93	H	-3.744035	-0.735038	-0.378430
