data_functionalizedCrystal
_audit_creation_method	'MofGen! by Chris Wilmer'
_symmetry_space_group_name_H-M	'P1'
_symmetry_Int_Tables_number	1
_symmetry_cell_setting	triclinic
loop_
_symmetry_equiv_pos_as_xyz
  x,y,z
_cell_length_a	15.944564
_cell_length_b	14.421503
_cell_length_c	16.992695
_cell_angle_alpha	89.995710
_cell_angle_beta	92.913921
_cell_angle_gamma	89.996857
loop_
_atom_site_label
_atom_site_type_symbol
_atom_site_fract_x
_atom_site_fract_y
_atom_site_fract_z
O1	O	-1.121307	0.077015	0.101164
O2	O	-0.871307	0.327015	0.351164
O3	O	-0.621307	0.577015	0.601164
O4	O	-0.371307	0.827015	0.851164
O5	O	-0.877595	0.077039	0.113622
O6	O	-0.627595	0.327039	0.363622
O7	O	-0.377595	0.577039	0.613622
O8	O	-0.127595	0.827039	0.863622
O9	O	-0.998474	0.077020	-0.006750
O10	O	-0.748474	0.327020	0.243250
O11	O	-0.498474	0.577020	0.493250
O12	O	-0.248474	0.827020	0.743250
O13	O	-1.000428	0.077034	0.221536
O14	O	-0.750428	0.327034	0.471536
O15	O	-0.500428	0.577034	0.721536
O16	O	-0.250428	0.827034	0.971536
O17	O	-0.998454	-0.077204	-0.006732
O18	O	-0.748454	0.172796	0.243268
O19	O	-0.498454	0.422796	0.493268
O20	O	-0.248454	0.672796	0.743268
O21	O	-0.877574	-0.077185	0.113640
O22	O	-0.627574	0.172815	0.363640
O23	O	-0.377574	0.422815	0.613640
O24	O	-0.127574	0.672815	0.863640
O25	O	-1.121287	-0.077208	0.101182
O26	O	-0.871287	0.172792	0.351182
O27	O	-0.621287	0.422792	0.601182
O28	O	-0.371287	0.672792	0.851182
Cu29	Cu	-0.999429	-0.091278	0.107413
Cu30	Cu	-0.749429	0.158722	0.357413
Cu31	Cu	-0.499429	0.408722	0.607413
Cu32	Cu	-0.249429	0.658722	0.857413
Cu33	Cu	-0.999453	0.091109	0.107391
Cu34	Cu	-0.749453	0.341109	0.357391
Cu35	Cu	-0.499453	0.591109	0.607391
Cu36	Cu	-0.249453	0.841109	0.857391
O37	O	-1.000408	-0.077189	0.221554
O38	O	-0.750408	0.172811	0.471554
O39	O	-0.500408	0.422811	0.721554
O40	O	-0.250408	0.672811	0.971554
C41	C	-0.846256	-0.000070	0.113112
C42	C	-0.596256	0.249930	0.363112
C43	C	-0.346256	0.499930	0.613112
C44	C	-0.096256	0.749930	0.863112
C45	C	-0.752906	-0.000062	0.111556
C46	C	-0.502906	0.249938	0.361556
C47	C	-0.252906	0.499938	0.611556
C48	C	-0.002906	0.749938	0.861556
C49	C	-0.532797	-0.000085	0.033223
C50	C	-0.282797	0.249915	0.283223
C51	C	-0.032797	0.499915	0.533223
C52	C	0.217203	0.749915	0.783223
C53	C	-0.474226	0.075958	0.069582
C54	C	-0.224226	0.325958	0.319582
C55	C	0.025774	0.575958	0.569582
C56	C	0.275774	0.825958	0.819582
C57	C	-0.581992	-0.000073	0.108742
C58	C	-0.331992	0.249927	0.358742
C59	C	-0.081992	0.499927	0.608742
C60	C	0.168008	0.749927	0.858742
C61	C	-0.474230	-0.076094	0.069618
C62	C	-0.224230	0.173906	0.319618
C63	C	0.025770	0.423906	0.569618
C64	C	0.275770	0.673906	0.819618
C65	C	-0.416898	-0.000088	0.106017
C66	C	-0.166898	0.249912	0.356017
C67	C	0.083102	0.499912	0.606017
C68	C	0.333102	0.749912	0.856017
C69	C	-0.524651	0.076033	0.145122
C70	C	-0.274651	0.326033	0.395122
C71	C	-0.024651	0.576033	0.645122
C72	C	0.225349	0.826033	0.895122
C73	C	-0.524661	-0.076088	0.145147
C74	C	-0.274661	0.173912	0.395147
C75	C	-0.024661	0.423912	0.645147
C76	C	0.225339	0.673912	0.895147
C77	C	-0.466111	-0.000027	0.181562
C78	C	-0.216111	0.249973	0.431562
C79	C	0.033889	0.499973	0.681562
C80	C	0.283889	0.749973	0.931562
C81	C	-0.677099	-0.000063	0.110309
C82	C	-0.427099	0.249937	0.360309
C83	C	-0.177099	0.499937	0.610309
C84	C	0.072901	0.749937	0.860309
C85	C	-0.321793	-0.000090	0.104456
C86	C	-0.071793	0.249910	0.354456
C87	C	0.178207	0.499910	0.604456
C88	C	0.428207	0.749910	0.854456
N89	N	-0.999418	-0.219559	0.107427
N90	N	-0.749418	0.030441	0.357427
N91	N	-0.499418	0.280441	0.607427
N92	N	-0.249418	0.530441	0.857427
C93	C	-0.943511	-0.469204	0.163062
C94	C	-0.693511	-0.219204	0.413062
C95	C	-0.443511	0.030796	0.663062
C96	C	-0.193511	0.280796	0.913062
C97	C	-1.020432	-0.531013	0.178288
C98	C	-0.770432	-0.281013	0.428288
C99	C	-0.520432	-0.031013	0.678288
C100	C	-0.270432	0.218987	0.928288
C101	C	-0.999437	-0.408721	0.107408
C102	C	-0.749437	-0.158721	0.357408
C103	C	-0.499437	0.091279	0.607408
C104	C	-0.249437	0.341279	0.857408
C105	C	-0.922537	-0.531006	0.092200
C106	C	-0.672537	-0.281006	0.342200
C107	C	-0.422537	-0.031006	0.592200
C108	C	-0.172537	0.218994	0.842200
C109	C	-0.999449	-0.591442	0.107392
C110	C	-0.749449	-0.341442	0.357392
C111	C	-0.499449	-0.091442	0.607392
C112	C	-0.249449	0.158558	0.857392
C113	C	-1.076399	-0.469169	0.122670
C114	C	-0.826399	-0.219169	0.372670
C115	C	-0.576399	0.030831	0.622670
C116	C	-0.326399	0.280831	0.872670
C117	C	-0.978452	-0.469156	0.036552
C118	C	-0.728452	-0.219156	0.286552
C119	C	-0.478452	0.030844	0.536552
C120	C	-0.228452	0.280844	0.786552
C121	C	-1.055426	-0.530937	0.051747
C122	C	-0.805426	-0.280937	0.301747
C123	C	-0.555426	-0.030937	0.551747
C124	C	-0.305426	0.219063	0.801747
C125	C	-0.999430	-0.303460	0.107420
C126	C	-0.749430	-0.053460	0.357420
C127	C	-0.499430	0.196540	0.607420
C128	C	-0.249430	0.446540	0.857420
C129	C	-0.999466	-0.696701	0.107380
C130	C	-0.749466	-0.446701	0.357380
C131	C	-0.499466	-0.196701	0.607380
C132	C	-0.249466	0.053299	0.857380
C133	C	-0.152627	-0.000097	0.101681
C134	C	0.097373	0.249903	0.351681
C135	C	0.347373	0.499903	0.601681
C136	C	0.597373	0.749903	0.851681
C137	C	-0.245979	-0.000100	0.103205
C138	C	0.004021	0.249900	0.353205
C139	C	0.254021	0.499900	0.603205
C140	C	0.504021	0.749900	0.853205
C141	C	-0.995950	-0.000092	-0.035954
C142	C	-0.745950	0.249908	0.214046
C143	C	-0.495950	0.499908	0.464046
C144	C	-0.245950	0.749908	0.714046
C145	C	-0.988450	-0.000091	-0.122998
C146	C	-0.738450	0.249909	0.127002
C147	C	-0.488450	0.499909	0.377002
C148	C	-0.238450	0.749909	0.627002
N149	N	-0.999470	0.219390	0.107371
N150	N	-0.749470	0.469390	0.357371
N151	N	-0.499470	0.719390	0.607371
N152	N	-0.249470	0.969390	0.857371
C153	C	-1.060815	-0.000098	-0.173232
C154	C	-0.810815	0.249902	0.076768
C155	C	-0.560815	0.499902	0.326768
C156	C	-0.310815	0.749902	0.576768
C157	C	-1.053763	-0.000089	-0.255019
C158	C	-0.803763	0.249911	-0.005019
C159	C	-0.553763	0.499911	0.244981
C160	C	-0.303763	0.749911	0.494981
C161	C	-0.974345	-0.000078	-0.286571
C162	C	-0.724345	0.249922	-0.036571
C163	C	-0.474345	0.499922	0.213429
C164	C	-0.224345	0.749922	0.463429
C165	C	-0.901975	-0.000068	-0.236331
C166	C	-0.651975	0.249932	0.013669
C167	C	-0.401975	0.499932	0.263669
C168	C	-0.151975	0.749932	0.513669
C169	C	-0.909028	-0.000071	-0.154546
C170	C	-0.659028	0.249929	0.095454
C171	C	-0.409028	0.499929	0.345454
C172	C	-0.159028	0.749929	0.595454
C173	C	-0.945114	-0.000063	-0.530172
C174	C	-0.695114	0.249937	-0.280172
C175	C	-0.445114	0.499937	-0.030172
C176	C	-0.195114	0.749937	0.219828
C177	C	-0.938067	-0.000063	-0.611964
C178	C	-0.688067	0.249937	-0.361964
C179	C	-0.438067	0.499937	-0.111964
C180	C	-0.188067	0.749937	0.138036
C181	C	-1.089855	-0.000082	-0.630646
C182	C	-0.839855	0.249918	-0.380646
C183	C	-0.589855	0.499918	-0.130646
C184	C	-0.339855	0.749918	0.119354
C185	C	-1.096901	-0.000091	-0.548858
C186	C	-0.846901	0.249909	-0.298858
C187	C	-0.596901	0.499909	-0.048858
C188	C	-0.346901	0.749909	0.201142
C189	C	-1.024531	-0.000075	-0.498625
C190	C	-0.774531	0.249925	-0.248625
C191	C	-0.524531	0.499925	0.001375
C192	C	-0.274531	0.749925	0.251375
N193	N	-0.967135	-0.000072	-0.370171
N194	N	-0.717135	0.249928	-0.120171
N195	N	-0.467135	0.499928	0.129829
N196	N	-0.217135	0.749928	0.379829
N197	N	-1.031742	-0.000075	-0.415028
N198	N	-0.781742	0.249925	-0.165028
N199	N	-0.531742	0.499925	0.084972
N200	N	-0.281742	0.749925	0.334972
C201	C	-1.002932	-0.000076	0.250757
C202	C	-0.752932	0.249924	0.500757
C203	C	-0.502932	0.499924	0.750757
C204	C	-0.252932	0.749924	1.000757
C205	C	-1.010432	-0.000071	0.337802
C206	C	-0.760432	0.249929	0.587802
C207	C	-0.510432	0.499929	0.837802
C208	C	-0.260432	0.749929	1.087802
H209	H	-0.896271	-0.442099	0.210164
H210	H	-0.646271	-0.192099	0.460164
H211	H	-0.396271	0.057901	0.710164
H212	H	-0.146271	0.307901	0.960164
H213	H	-1.141456	-0.442121	0.135597
H214	H	-0.891456	-0.192121	0.385597
H215	H	-0.641456	0.057879	0.635597
H216	H	-0.391456	0.307879	0.885597
Cl217	Cl	-0.950996	-0.427170	-0.055923
Cl218	Cl	-0.700996	-0.177170	0.194077
Cl219	Cl	-0.450996	0.072830	0.444077
Cl220	Cl	-0.200996	0.322830	0.694077
H221	H	-0.561927	0.000006	-0.029449
H222	H	-0.311927	0.250006	0.220551
H223	H	-0.061927	0.500006	0.470551
H224	H	0.188073	0.750006	0.720551
Cl225	Cl	-0.822125	-0.572945	0.072350
Cl226	Cl	-0.572125	-0.322945	0.322350
Cl227	Cl	-0.322125	-0.072945	0.572350
Cl228	Cl	-0.072125	0.177055	0.822350
H229	H	-0.850101	-0.000064	-0.113646
H230	H	-0.600101	0.249936	0.136354
H231	H	-0.350101	0.499936	0.386354
H232	H	-0.100101	0.749936	0.636354
Cl233	Cl	-0.439885	0.175211	0.020259
Cl234	Cl	-0.189885	0.425211	0.270259
Cl235	Cl	0.060115	0.675211	0.520259
Cl236	Cl	0.310115	0.925211	0.770259
H237	H	-0.451992	-0.140380	0.037670
H238	H	-0.201992	0.109620	0.287670
H239	H	0.048008	0.359620	0.537670
H240	H	0.298008	0.609620	0.787670
Cl241	Cl	-1.128534	-0.572531	-0.020930
Cl242	Cl	-0.878534	-0.322531	0.229070
Cl243	Cl	-0.628534	-0.072531	0.479070
Cl244	Cl	-0.378534	0.177469	0.729070
Cl245	Cl	-1.160659	-0.000121	-0.133575
Cl246	Cl	-0.910659	0.249879	0.116425
Cl247	Cl	-0.660659	0.499879	0.366425
Cl248	Cl	-0.410659	0.749879	0.616425
Cl249	Cl	-0.854133	-0.000041	-0.467033
Cl250	Cl	-0.604133	0.249959	-0.217033
Cl251	Cl	-0.354133	0.499959	0.032967
Cl252	Cl	-0.104133	0.749959	0.282967
Cl253	Cl	-0.421408	0.000042	0.278419
Cl254	Cl	-0.171408	0.250042	0.528419
Cl255	Cl	0.078592	0.500042	0.778419
Cl256	Cl	0.328592	0.750042	1.028419
Cl257	Cl	-0.558823	0.175399	0.194388
Cl258	Cl	-0.308823	0.425399	0.444388
Cl259	Cl	-0.058823	0.675399	0.694388
Cl260	Cl	0.191177	0.925399	0.944388
Cl261	Cl	-1.047855	-0.572964	0.270790
Cl262	Cl	-0.797855	-0.322964	0.520790
Cl263	Cl	-0.547855	-0.072964	0.770790
Cl264	Cl	-0.297855	0.177036	1.020790
Cl265	Cl	-1.144741	-0.000102	-0.318167
Cl266	Cl	-0.894741	0.249898	-0.068167
Cl267	Cl	-0.644741	0.499898	0.181833
Cl268	Cl	-0.394741	0.749898	0.431833
Cl269	Cl	-1.196744	-0.000074	-0.509199
Cl270	Cl	-0.946744	0.249926	-0.259199
Cl271	Cl	-0.696744	0.499926	-0.009199
Cl272	Cl	-0.446744	0.749926	0.240801
H273	H	-1.148775	-0.000093	-0.671554
H274	H	-0.898775	0.249907	-0.421554
H275	H	-0.648775	0.499907	-0.171554
H276	H	-0.398775	0.749907	0.078446
Cl277	Cl	-0.838220	-0.000055	-0.651628
Cl278	Cl	-0.588220	0.249945	-0.401628
Cl279	Cl	-0.338220	0.499945	-0.151628
Cl280	Cl	-0.088220	0.749945	0.098372
Cl281	Cl	-0.559038	-0.175344	0.194433
Cl282	Cl	-0.309038	0.074656	0.444433
Cl283	Cl	-0.059038	0.324656	0.694433
Cl284	Cl	0.190962	0.574656	0.944433
H285	H	-0.837312	-0.000053	-0.262027
H286	H	-0.587312	0.249947	-0.012027
H287	H	-0.337312	0.499947	0.237973
H288	H	-0.087312	0.749947	0.487973
