data_functionalizedCrystal
_audit_creation_method	'MofGen! by Chris Wilmer'
_symmetry_space_group_name_H-M	'P1'
_symmetry_Int_Tables_number	1
_symmetry_cell_setting	triclinic
loop_
_symmetry_equiv_pos_as_xyz
  x,y,z
_cell_length_a	18.101397
_cell_length_b	16.625547
_cell_length_c	16.625539
_cell_angle_alpha	90.027058
_cell_angle_beta	89.970842
_cell_angle_gamma	89.981048
loop_
_atom_site_label
_atom_site_type_symbol
_atom_site_fract_x
_atom_site_fract_y
_atom_site_fract_z
Zn1	Zn	-0.294844	-1.232696	-0.456044
Zn2	Zn	0.205156	-0.732696	0.043956
Zn3	Zn	-0.418693	-1.232605	-0.321209
Zn4	Zn	0.081307	-0.732605	0.178791
Zn5	Zn	-0.294868	-1.097857	-0.321209
Zn6	Zn	0.205132	-0.597857	0.178791
Zn7	Zn	-0.418647	-1.097834	-0.455984
Zn8	Zn	0.081353	-0.597834	0.044016
O9	O	-0.356763	-1.165248	-0.388612
O10	O	0.143237	-0.665248	0.111388
O11	O	-0.311282	-1.345516	-0.438183
O12	O	0.188718	-0.845516	0.061817
O13	O	-0.402297	-1.214703	-0.208377
O14	O	0.097703	-0.714703	0.291623
O15	O	-0.191232	-1.115792	-0.339121
O16	O	0.308768	-0.615792	0.160879
O17	O	-0.402274	-1.345450	-0.339121
O18	O	0.097726	-0.845450	0.160879
O19	O	-0.191215	-1.214857	-0.438183
O20	O	0.308785	-0.714857	0.061817
O21	O	-0.311324	-1.115704	-0.208377
O22	O	0.188676	-0.615704	0.291623
O23	O	-0.311278	-0.985022	-0.339062
O24	O	0.188722	-0.485022	0.160938
O25	O	-0.402194	-1.115752	-0.568824
O26	O	0.097806	-0.615752	-0.068824
O27	O	-0.402218	-0.985005	-0.438081
O28	O	0.097782	-0.485005	0.061919
O29	O	-0.311237	-1.214834	-0.568869
O30	O	0.188763	-0.714834	-0.068869
O31	O	-0.522320	-1.214680	-0.339062
O32	O	-0.022320	-0.714680	0.160938
O33	O	-0.522286	-1.115664	-0.438081
O34	O	-0.022286	-0.615664	0.061919
C35	C	-0.356746	-0.955757	-0.388565
C36	C	0.143254	-0.455757	0.111435
C37	C	-0.356757	-0.866136	-0.388565
C38	C	0.143243	-0.366136	0.111435
C39	C	-0.356757	-0.793354	-0.388572
C40	C	0.143243	-0.293354	0.111428
C41	C	-0.356760	-0.702045	-0.388589
C42	C	0.143240	-0.202045	0.111411
C43	C	-0.356766	-0.629269	-0.388606
C44	C	0.143234	-0.129269	0.111394
C45	C	-0.356770	-0.537955	-0.388622
C46	C	0.143230	-0.037955	0.111378
C47	C	-0.549174	-1.165182	-0.388583
C48	C	-0.049174	-0.665182	0.111417
C49	C	-0.631488	-1.165227	-0.388597
C50	C	-0.131488	-0.665227	0.111403
C51	C	-0.782196	-1.165276	-0.388624
C52	C	-0.282196	-0.665276	0.111376
C53	C	-0.813540	-1.227636	-0.326385
C54	C	-0.313540	-0.727636	0.173615
C55	C	-0.899159	-1.227480	-0.326156
C56	C	-0.399159	-0.727480	0.173844
C57	C	-0.930579	-1.165326	-0.388651
C58	C	-0.430579	-0.665326	0.111349
C59	C	-0.899562	-1.080290	-0.365770
C60	C	-0.399562	-0.580290	0.134230
C61	C	-0.813917	-1.080622	-0.365302
C62	C	-0.313917	-0.580622	0.134698
C63	C	-0.813690	-1.187220	-0.473907
C64	C	-0.313690	-0.687220	0.026093
C65	C	-0.899339	-1.189123	-0.473469
C66	C	-0.399339	-0.689123	0.026531
C67	C	-1.014438	-1.165348	-0.388668
C68	C	-0.514438	-0.665348	0.111332
C69	C	-0.698337	-1.165248	-0.388606
C70	C	-0.198337	-0.665248	0.111394
C71	C	-0.163601	-1.165337	-0.388659
C72	C	0.336399	-0.665337	0.111341
C73	C	-0.081287	-1.165375	-0.388679
C74	C	0.418713	-0.665375	0.111321
C75	C	-0.356708	-1.165301	-0.598921
C76	C	0.143292	-0.665301	-0.098921
C77	C	-0.356684	-1.165323	-0.688542
C78	C	0.143316	-0.665323	-0.188542
C79	C	-0.356778	-0.375557	-0.388649
C80	C	0.143222	0.124443	0.111351
C81	C	-0.356776	-0.465178	-0.388640
C82	C	0.143224	0.034822	0.111360
C83	C	-0.356602	-1.165360	-1.016718
C84	C	0.143398	-0.665360	-0.516718
C85	C	-0.356627	-1.165348	-0.925409
C86	C	0.143373	-0.665348	-0.425409
C87	C	-0.356644	-1.165342	-0.852633
C88	C	0.143356	-0.665342	-0.352633
C89	C	-0.356668	-1.165328	-0.761318
C90	C	0.143332	-0.665328	-0.261318
C91	C	-0.356765	-1.165242	-0.179121
C92	C	0.143235	-0.665242	0.320879
C93	C	-0.356580	-1.165376	-0.089500
C94	C	0.143420	-0.665376	0.410500
H95	H	-0.920128	-1.290529	-0.340450
H96	H	-0.420128	-0.790529	0.159550
H97	H	-0.793414	-1.141806	-0.520279
H98	H	-0.293414	-0.641806	-0.020279
H99	H	-0.921067	-1.061414	-0.304128
H100	H	-0.421067	-0.561414	0.195872
H101	H	-0.792902	-1.290867	-0.340513
H102	H	-0.292902	-0.790867	0.159487
Cl103	Cl	-0.930984	-1.006617	-0.433616
Cl104	Cl	-0.430984	-0.506617	0.066384
H105	H	-0.792035	-1.248156	-0.494760
H106	H	-0.292035	-0.748156	0.005240
H107	H	-0.919606	-1.251702	-0.490726
H108	H	-0.419606	-0.751702	0.009274
H109	H	-0.920723	-1.147049	-0.522317
H110	H	-0.420723	-0.647049	-0.022317
H111	H	-0.793996	-1.062055	-0.302968
H112	H	-0.293996	-0.562055	0.197032
H113	H	-0.792067	-1.213273	-0.263555
H114	H	-0.292067	-0.713273	0.236445
H115	H	-0.793184	-1.032566	-0.408675
H116	H	-0.293184	-0.532566	0.091325
Cl117	Cl	-0.930880	-1.205048	-0.228607
Cl118	Cl	-0.430880	-0.705048	0.271393
