data_functionalizedCrystal
_audit_creation_method	'MofGen! by Chris Wilmer'
_symmetry_space_group_name_H-M	'P1'
_symmetry_Int_Tables_number	1
_symmetry_cell_setting	triclinic
loop_
_symmetry_equiv_pos_as_xyz
  x,y,z
_cell_length_a	6.817900
_cell_length_b	12.200863
_cell_length_c	12.200875
_cell_angle_alpha	93.006308
_cell_angle_beta	107.143593
_cell_angle_gamma	107.143441
loop_
_atom_site_label
_atom_site_type_symbol
_atom_site_fract_x
_atom_site_fract_y
_atom_site_fract_z
V1	V	-4.086881	-0.158973	-0.357778
V2	V	-3.836881	0.091027	-0.107778
V3	V	-3.586881	0.341027	0.142222
V4	V	-3.336881	0.591027	0.392222
O5	O	-4.054179	0.007371	-0.350847
O6	O	-3.804179	0.257371	-0.100847
O7	O	-3.554179	0.507371	0.149153
O8	O	-3.304179	0.757371	0.399153
O9	O	-4.056329	-0.314959	-0.355446
O10	O	-3.806329	-0.064959	-0.105446
O11	O	-3.556329	0.185041	0.144554
O12	O	-3.306329	0.435041	0.394554
O13	O	-4.056333	-0.156645	-0.513764
O14	O	-3.806333	0.093355	-0.263764
O15	O	-3.556333	0.343355	-0.013764
O16	O	-3.306333	0.593355	0.236236
O17	O	-4.054175	-0.152038	-0.191433
O18	O	-3.804175	0.097962	0.058567
O19	O	-3.554175	0.347962	0.308567
O20	O	-3.304175	0.597962	0.558567
V21	V	-4.565883	-0.139062	-0.337868
V22	V	-4.315883	0.110938	-0.087868
V23	V	-4.065883	0.360938	0.162132
V24	V	-3.815883	0.610938	0.412132
O25	O	-4.358057	-0.202649	-0.401452
O26	O	-4.108057	0.047351	-0.151452
O27	O	-3.858057	0.297351	0.098548
O28	O	-3.608057	0.547351	0.348548
O29	O	-4.744905	-0.095387	-0.294193
O30	O	-4.494905	0.154613	-0.044193
O31	O	-4.244905	0.404613	0.205807
O32	O	-3.994905	0.654613	0.455807
O33	O	-4.373229	0.016923	-0.340199
O34	O	-4.123229	0.266923	-0.090199
O35	O	-3.873229	0.516923	0.159801
O36	O	-3.623229	0.766923	0.409801
O37	O	-4.715983	-0.305407	-0.344798
O38	O	-4.465983	-0.055407	-0.094798
O39	O	-4.215983	0.194593	0.155202
O40	O	-3.965983	0.444593	0.405202
O41	O	-4.715986	-0.145997	-0.504212
O42	O	-4.465986	0.104003	-0.254212
O43	O	-4.215986	0.354003	-0.004212
O44	O	-3.965986	0.604003	0.245788
O45	O	-4.373226	-0.141390	-0.181881
O46	O	-4.123226	0.108610	0.068119
O47	O	-3.873226	0.358610	0.318119
O48	O	-3.623226	0.608610	0.568119
C49	C	-3.905095	-0.352981	-0.349832
C50	C	-3.655095	-0.102981	-0.099832
C51	C	-3.405095	0.147019	0.150168
C52	C	-3.155095	0.397019	0.400168
C53	C	-3.961521	-0.480503	-0.348965
C54	C	-3.711521	-0.230503	-0.098965
C55	C	-3.461521	0.019497	0.151035
C56	C	-3.211521	0.269497	0.401035
C57	C	-4.064793	-0.713978	-0.347388
C58	C	-3.814793	-0.463978	-0.097388
C59	C	-3.564793	-0.213978	0.152612
C60	C	-3.314793	0.036022	0.402612
C61	C	-4.007317	-0.584056	-0.348266
C62	C	-3.757317	-0.334056	-0.098266
C63	C	-3.507317	-0.084056	0.151734
C64	C	-3.257317	0.165944	0.401734
C65	C	-3.905097	-0.151035	-0.551781
C66	C	-3.655097	0.098965	-0.301781
C67	C	-3.405097	0.348965	-0.051781
C68	C	-3.155097	0.598965	0.198219
C69	C	-3.961522	-0.150164	-0.679301
C70	C	-3.711522	0.099836	-0.429301
C71	C	-3.461522	0.349836	-0.179301
C72	C	-3.211522	0.599836	0.070699
C73	C	-4.064787	-0.148571	-0.912775
C74	C	-3.814787	0.101429	-0.662775
C75	C	-3.564787	0.351429	-0.412775
C76	C	-3.314787	0.601429	-0.162775
C77	C	-4.007315	-0.149457	-0.782853
C78	C	-3.757315	0.100543	-0.532853
C79	C	-3.507315	0.350543	-0.282853
C80	C	-3.257315	0.600543	-0.032853
C81	C	-4.187806	0.054940	-0.345810
C82	C	-3.937806	0.304940	-0.095810
C83	C	-3.687806	0.554940	0.154190
C84	C	-3.437806	0.804940	0.404190
C85	C	-4.110619	0.182460	-0.346684
C86	C	-3.860619	0.432460	-0.096684
C87	C	-3.610619	0.682460	0.153316
C88	C	-3.360619	0.932460	0.403316
C89	C	-4.187803	-0.147004	-0.143858
C90	C	-3.937803	0.102996	0.106142
C91	C	-3.687803	0.352996	0.356142
C92	C	-3.437803	0.602996	0.606142
C93	C	-4.110616	-0.147869	-0.016337
C94	C	-3.860616	0.102131	0.233663
C95	C	-3.610616	0.352131	0.483663
C96	C	-3.360616	0.602131	0.733663
