data_functionalizedCrystal
_audit_creation_method	'MofGen! by Chris Wilmer'
_symmetry_space_group_name_H-M	'P1'
_symmetry_Int_Tables_number	1
_symmetry_cell_setting	triclinic
loop_
_symmetry_equiv_pos_as_xyz
  x,y,z
_cell_length_a	11.792241
_cell_length_b	15.995292
_cell_length_c	10.268362
_cell_angle_alpha	89.997908
_cell_angle_beta	89.999626
_cell_angle_gamma	83.831016
loop_
_atom_site_label
_atom_site_type_symbol
_atom_site_fract_x
_atom_site_fract_y
_atom_site_fract_z
O1	O	1.505919	0.114766	-0.108164
O2	O	1.175476	0.126594	-0.108193
O3	O	1.349765	-0.001170	-0.108180
O4	O	1.331630	0.242530	-0.108177
O5	O	1.349750	-0.001175	0.108421
O6	O	1.175461	0.126589	0.108407
O7	O	1.505904	0.114761	0.108437
Cu8	Cu	1.340681	0.120674	0.128199
Cu9	Cu	1.340699	0.120681	-0.127956
O10	O	1.331615	0.242525	0.108423
C11	C	1.133184	0.125849	0.000103
C12	C	1.007189	0.123625	0.000092
C13	C	1.349019	-0.032371	0.000117
C14	C	1.346806	-0.125334	0.000107
C15	C	0.776512	0.119536	0.000129
C16	C	0.904878	0.121808	0.000108
C17	C	1.338672	-0.463110	0.000118
C18	C	1.464469	-0.439226	0.000614
C19	C	1.466860	-0.342540	0.000121
C20	C	1.342708	-0.295535	0.000114
C21	C	1.279824	-0.324919	-0.123577
C22	C	1.278310	-0.421716	-0.123676
C23	C	1.275724	-0.421591	0.122639
C24	C	1.280386	-0.325077	0.124269
C25	C	1.344983	-0.200829	0.000107
C26	C	1.336393	-0.557816	0.000117
C27	C	1.548196	0.115507	0.000137
C28	C	1.674191	0.117730	0.000140
C29	C	1.332361	0.273726	0.000123
C30	C	1.334574	0.366689	0.000125
N31	N	1.340677	0.120669	0.308365
N32	N	1.340712	0.120679	-0.308122
C33	C	1.340693	0.120679	0.574036
C34	C	1.340680	0.120676	0.426198
H35	H	1.516109	-0.323293	0.088786
C36	C	1.152280	-0.440853	0.124020
C37	C	1.131532	-0.484873	0.237914
C38	C	1.017830	-0.502627	0.239225
H39	H	1.138305	-0.474147	0.050325
H40	H	1.103197	-0.389734	0.121369
H41	H	1.180600	-0.535984	0.240552
H42	H	1.145482	-0.451595	0.311627
H43	H	0.968747	-0.451508	0.236574
H44	H	1.003865	-0.535919	0.165525
H45	H	1.003735	-0.532490	0.316505
H46	H	1.512694	-0.468023	-0.087585
C47	C	1.155261	-0.441512	-0.131271
C48	C	1.082607	-0.366344	-0.135744
C49	C	0.969251	-0.384544	-0.142774
H50	H	1.137856	-0.472901	-0.056723
H51	H	1.145052	-0.473449	-0.207576
H52	H	1.092809	-0.334421	-0.059447
H53	H	1.099975	-0.334945	-0.210289
H54	H	0.959043	-0.416481	-0.219079
H55	H	0.951858	-0.415934	-0.068223
H56	H	0.919942	-0.333546	-0.145821
C57	C	1.528949	-0.476373	0.118934
C58	C	1.456837	-0.521392	0.193557
C59	C	1.516201	-0.555637	0.302558
H60	H	1.553991	-0.432372	0.170007
H61	H	1.593087	-0.513081	0.091175
H62	H	1.392720	-0.484686	0.221317
H63	H	1.431792	-0.565406	0.142522
H64	H	1.580339	-0.592345	0.274799
H65	H	1.541240	-0.511631	0.353621
H66	H	1.467286	-0.586193	0.353197
C67	C	1.532913	-0.317851	-0.118415
C68	C	1.570824	-0.390032	-0.189869
C69	C	1.631662	-0.367322	-0.299088
H70	H	1.596669	-0.290761	-0.090997
H71	H	1.484696	-0.280578	-0.171467
H72	H	1.619038	-0.427291	-0.136826
H73	H	1.507091	-0.417131	-0.217319
H74	H	1.583445	-0.330049	-0.352140
H75	H	1.695413	-0.340231	-0.271657
H76	H	1.657383	-0.416291	-0.347589
H77	H	1.326175	-0.306306	0.215775
C78	C	1.338073	-0.297748	-0.246208
C79	C	1.335103	-0.210012	-0.247760
C80	C	1.388769	-0.184955	-0.360694
H81	H	1.299472	-0.315734	-0.320641
H82	H	1.415107	-0.322270	-0.247317
H83	H	1.258082	-0.185498	-0.246663
H84	H	1.373709	-0.192003	-0.173353
H85	H	1.465804	-0.209477	-0.361803
H86	H	1.350164	-0.202946	-0.435118
H87	H	1.386771	-0.125424	-0.361755
C88	C	1.336314	-0.457372	-0.246903
C89	C	1.335549	-0.544838	-0.248316
C90	C	1.388962	-0.577707	-0.361820
H91	H	1.412848	-0.443988	-0.248941
H92	H	1.296514	-0.433727	-0.320908
H93	H	1.375351	-0.568474	-0.174331
H94	H	1.259030	-0.558245	-0.246298
H95	H	1.349162	-0.554062	-0.435825
H96	H	1.465492	-0.564317	-0.363848
H97	H	1.388440	-0.637054	-0.362800
C98	C	1.159568	-0.281609	0.133972
C99	C	1.138078	-0.226979	0.028173
C100	C	1.026785	-0.186928	0.037051
H101	H	1.151282	-0.250520	0.212841
H102	H	1.106930	-0.322593	0.132868
H103	H	1.190700	-0.186001	0.029289
H104	H	1.146339	-0.258047	-0.050711
H105	H	0.974148	-0.227912	0.035947
H106	H	1.018510	-0.155844	0.115924
H107	H	1.012187	-0.149863	-0.034737
H108	H	1.188465	-0.293466	-0.128181
H109	H	1.315333	-0.449502	0.216396
