data_functionalizedCrystal
_audit_creation_method	'MofGen! by Chris Wilmer'
_symmetry_space_group_name_H-M	'P1'
_symmetry_Int_Tables_number	1
_symmetry_cell_setting	triclinic
loop_
_symmetry_equiv_pos_as_xyz
  x,y,z
_cell_length_a	15.944564
_cell_length_b	14.421503
_cell_length_c	15.944551
_cell_angle_alpha	89.999391
_cell_angle_beta	96.498664
_cell_angle_gamma	90.011570
loop_
_atom_site_label
_atom_site_type_symbol
_atom_site_fract_x
_atom_site_fract_y
_atom_site_fract_z
O1	O	-1.114504	0.077017	0.108377
O2	O	-0.869956	0.077040	0.121722
O3	O	-0.998908	0.077020	-0.007225
O4	O	-0.985552	0.077038	0.237324
O5	O	-0.998924	-0.077204	-0.007217
O6	O	-0.869972	-0.077183	0.121730
O7	O	-1.114520	-0.077206	0.108385
Cu8	Cu	-0.992247	-0.091277	0.115058
Cu9	Cu	-0.992229	0.091110	0.115049
O10	O	-0.985568	-0.077186	0.237332
C11	C	-0.838670	-0.000069	0.121170
C12	C	-0.745425	-0.000060	0.119504
C13	C	-0.998361	-0.000092	-0.038515
C14	C	-0.996699	-0.000093	-0.131761
N15	N	-0.992266	-0.219558	0.115065
C16	C	-0.530569	-0.000084	0.035589
C17	C	-0.469542	0.075959	0.074545
C18	C	-0.574700	-0.000071	0.116488
C19	C	-0.469579	-0.076093	0.074572
C20	C	-0.409788	-0.000086	0.113570
C21	C	-0.514900	0.076035	0.155466
C22	C	-0.514944	-0.076086	0.155482
C23	C	-0.453935	-0.000024	0.194497
C24	C	-0.669701	-0.000062	0.118167
C25	C	-0.314787	-0.000089	0.111898
C26	C	-0.145807	-0.000096	0.108925
C27	C	-0.239057	-0.000098	0.110558
C28	C	-1.051907	-0.469196	0.055427
C29	C	-0.976008	-0.530987	0.039106
C30	C	-0.992248	-0.408719	0.115055
C31	C	-1.068129	-0.531022	0.131326
C32	C	-0.992236	-0.591441	0.115043
C33	C	-0.916310	-0.469149	0.098696
C34	C	-1.008481	-0.469179	0.190950
C35	C	-0.932527	-0.530942	0.174661
C36	C	-0.992255	-0.303458	0.115059
C37	C	-0.992220	-0.696700	0.115039
N38	N	-0.992216	0.219392	0.115035
C39	C	-0.912795	-0.000072	-0.346622
C40	C	-0.951765	-0.076117	-0.407633
C41	C	-0.993692	-0.000085	-0.302487
C42	C	-0.951769	0.075935	-0.407625
C43	C	-0.990781	-0.000074	-0.467400
C44	C	-1.032684	-0.076193	-0.362270
C45	C	-1.032676	0.075927	-0.362256
C46	C	-1.071705	-0.000136	-0.423249
C47	C	-0.995366	-0.000092	-0.207485
C48	C	-0.989113	-0.000073	-0.562401
C49	C	-0.986114	-0.000072	0.268622
C50	C	-0.987777	-0.000065	0.361868
H51	H	-0.563902	0.000005	-0.031547
H52	H	-1.132305	-0.558200	0.145094
C53	C	-0.905518	0.162787	-0.434767
N54	N	-0.870676	0.228200	-0.455205
H55	H	-0.917556	-0.140401	-0.427739
C56	C	-1.027081	-0.432465	0.277635
N57	N	-1.041100	-0.404809	0.342926
C58	C	-0.864290	-0.567346	0.242779
N59	N	-0.812891	-0.594768	0.294081
H60	H	-0.845647	-0.000141	-0.313317
H61	H	-1.138912	-0.000186	-0.456405
C62	C	-0.542159	-0.162936	0.201671
N63	N	-0.562660	-0.228359	0.236453
H64	H	-1.066878	-0.140554	-0.342275
C65	C	-0.541892	0.162986	0.201645
N66	N	-0.562224	0.228479	0.236423
H67	H	-0.852119	-0.442086	0.084856
H68	H	-0.449425	0.140243	0.040324
H69	H	-0.962266	-0.558137	-0.025082
C70	C	-0.442454	-0.162943	0.028333
N71	N	-0.422027	-0.228354	-0.006501
C72	C	-0.409131	0.000041	0.285285
N73	N	-0.375382	0.000095	0.353666
C74	C	-1.119990	-0.432561	-0.012732
N75	N	-1.171266	-0.404965	-0.064071
H76	H	-1.066856	0.140215	-0.342127
