data_functionalizedCrystal
_audit_creation_method	'MofGen! by Chris Wilmer'
_symmetry_space_group_name_H-M	'P1'
_symmetry_Int_Tables_number	1
_symmetry_cell_setting	triclinic
loop_
_symmetry_equiv_pos_as_xyz
  x,y,z
_cell_length_a	15.072220
_cell_length_b	16.992694
_cell_length_c	16.992695
_cell_angle_alpha	90.668223
_cell_angle_beta	90.003194
_cell_angle_gamma	89.999374
loop_
_atom_site_label
_atom_site_type_symbol
_atom_site_fract_x
_atom_site_fract_y
_atom_site_fract_z
O1	O	0.073672	-1.050853	-0.166907
O2	O	0.073698	-0.822452	-0.165076
O3	O	0.073678	-0.935737	-0.051792
O4	O	0.073692	-0.937568	-0.280192
O5	O	-0.073887	-0.935722	-0.051806
O6	O	-0.073867	-0.822438	-0.165090
O7	O	-0.073893	-1.050838	-0.166922
Zn8	Zn	-0.097309	-0.936636	-0.166008
Zn9	Zn	0.097114	-0.936655	-0.165989
O10	O	-0.073873	-0.937554	-0.280206
C11	C	-0.000081	-0.793085	-0.162727
C12	C	-0.000071	-0.705600	-0.155699
C13	C	-0.000104	-0.933374	-0.022439
C14	C	-0.000103	-0.926345	0.065046
N15	N	-0.229998	-0.936628	-0.166021
C16	C	-0.410995	-0.936642	-0.166004
C17	C	-0.448653	-0.876014	-0.226596
C18	C	-0.551479	-0.875781	-0.226405
C19	C	-0.589199	-0.936655	-0.165988
C20	C	-0.551860	-0.913897	-0.082649
C21	C	-0.449002	-0.913449	-0.083008
C22	C	-0.448892	-1.020179	-0.188021
C23	C	-0.551757	-1.019751	-0.189843
C24	C	-0.689913	-0.936663	-0.165974
C25	C	-0.310282	-0.936631	-0.166012
N26	N	0.229803	-0.936668	-0.165971
C27	C	-0.000112	-1.080205	-0.169270
C28	C	-0.000116	-1.167690	-0.176299
C29	C	-0.000068	-0.659610	-0.223517
C30	C	-0.000080	-0.577409	-0.216908
C31	C	-0.000090	-0.541201	-0.142480
C32	C	-0.000096	-0.587198	-0.074657
C33	C	-0.000090	-0.669397	-0.081267
C34	C	-0.000116	-0.295886	-0.115086
C35	C	-0.000119	-0.213681	-0.108481
C36	C	-0.000105	-0.203898	-0.250732
C37	C	-0.000093	-0.286099	-0.257336
C38	C	-0.000104	-0.332089	-0.189512
N39	N	-0.000100	-0.457178	-0.135723
N40	N	-0.000100	-0.416110	-0.196270
C41	C	-0.000089	-0.939917	-0.309559
C42	C	-0.000084	-0.946945	-0.397044
C43	C	-0.000112	-0.994163	0.111037
C44	C	-0.000102	-0.987554	0.193238
C45	C	-0.000091	-0.913127	0.229446
C46	C	-0.000080	-0.845303	0.183449
C47	C	-0.000082	-0.851913	0.101250
C48	C	-0.000076	-0.885732	0.474760
C49	C	-0.000075	-0.879127	0.556966
C50	C	-0.000097	-1.021379	0.566749
C51	C	-0.000105	-1.027982	0.484547
C52	C	-0.000089	-0.960159	0.438558
N53	N	-0.000084	-0.906369	0.313468
N54	N	-0.000089	-0.966917	0.354537
H55	H	-0.576727	-0.890047	-0.288177
C56	C	-0.584734	-1.042938	-0.272695
H57	H	-0.621173	-1.002155	-0.292670
H58	H	-0.535310	-1.050699	-0.306592
H59	H	-0.618088	-1.090263	-0.269932
H60	H	-0.576096	-0.813895	-0.211766
C61	C	-0.000121	-0.346465	-0.040483
H62	H	-0.000119	-0.313125	0.004788
H63	H	-0.051579	-0.378735	-0.040107
H64	H	0.051346	-0.378732	-0.040097
C65	C	-0.000074	-0.811129	0.424182
H66	H	-0.000079	-0.765859	0.457521
H67	H	0.051383	-0.810748	0.391912
H68	H	-0.051542	-0.810748	0.391914
H69	H	-0.000080	-0.818516	0.586443
H70	H	-0.000075	-0.796688	0.063804
C71	C	-0.000079	-0.325926	-0.339204
H72	H	-0.000065	-0.381468	-0.333427
H73	H	-0.051533	-0.310450	-0.367357
H74	H	0.051392	-0.310440	-0.367332
H75	H	-0.000126	-0.184203	-0.047870
C76	C	-0.416596	-0.830947	-0.057946
H77	H	-0.353574	-0.829945	-0.057945
H78	H	-0.438386	-0.793124	-0.093854
H79	H	-0.437830	-0.818876	-0.006570
C80	C	-0.000105	-1.095979	0.617335
H81	H	-0.000117	-1.141251	0.583997
H82	H	0.051355	-1.096364	0.649606
H83	H	-0.051570	-1.096354	0.649601
H84	H	-0.000065	-0.784703	0.212936
H85	H	-0.423927	-0.890113	-0.288565
H86	H	-0.422817	-0.814476	-0.212136
C87	C	-0.000105	-0.153308	-0.325330
H88	H	-0.000117	-0.099167	-0.310738
H89	H	0.051355	-0.164766	-0.355635
H90	H	-0.051570	-0.164774	-0.355638
C91	C	-0.000121	-1.062154	0.243824
H92	H	-0.000141	-1.107427	0.210487
H93	H	0.051338	-1.062546	0.276096
H94	H	-0.051587	-1.062521	0.276090
C95	C	-0.000106	-0.547374	0.007213
H96	H	-0.000115	-0.586540	0.046657
H97	H	0.051351	-0.515510	0.012755
H98	H	-0.051574	-0.515514	0.012743
C99	C	-0.000085	-0.719987	-0.006667
H100	H	-0.000082	-0.686651	0.038606
H101	H	-0.051540	-0.752261	-0.006292
H102	H	0.051385	-0.752251	-0.006286
H103	H	-0.000114	-1.088589	0.455073
C104	C	-0.415341	-0.970486	-0.019882
H105	H	-0.464531	-0.993824	0.005872
H106	H	-0.380315	-1.010429	-0.044110
H107	H	-0.380423	-0.942382	0.017549
C108	C	-0.584866	-0.971692	-0.019954
H109	H	-0.621804	-1.010304	-0.044104
H110	H	-0.535472	-0.996681	0.003866
H111	H	-0.617703	-0.943742	0.019051
H112	H	-0.000126	-1.054770	0.081563
H113	H	-0.422957	-1.040849	-0.247793
H114	H	-0.577636	-0.853502	-0.063763
H115	H	-0.577433	-1.067361	-0.148989
C116	C	-0.415978	-1.081210	-0.128426
H117	H	-0.379319	-1.055947	-0.090310
H118	H	-0.465420	-1.104484	-0.103004
H119	H	-0.382867	-1.120843	-0.155202
H120	H	-0.000059	-0.689084	-0.284124
H121	H	-0.000077	-0.539966	-0.272133
