data_functionalizedCrystal
_audit_creation_method	'MofGen! by Chris Wilmer'
_symmetry_space_group_name_H-M	'P1'
_symmetry_Int_Tables_number	1
_symmetry_cell_setting	triclinic
loop_
_symmetry_equiv_pos_as_xyz
  x,y,z
_cell_length_a	19.077236
_cell_length_b	21.295417
_cell_length_c	19.076919
_cell_angle_alpha	87.733380
_cell_angle_beta	90.112677
_cell_angle_gamma	92.323097
loop_
_atom_site_label
_atom_site_type_symbol
_atom_site_fract_x
_atom_site_fract_y
_atom_site_fract_z
Zn1	Zn	1.058265	-0.228507	0.440520
Zn2	Zn	1.558265	0.271493	0.940520
Zn3	Zn	1.062894	-0.329387	0.323003
Zn4	Zn	1.562894	0.170613	0.823003
Zn5	Zn	0.945481	-0.228177	0.318300
Zn6	Zn	1.445481	0.271823	0.818300
Zn7	Zn	0.940712	-0.337786	0.435741
Zn8	Zn	1.440712	0.162214	0.935741
O9	O	1.001838	-0.280964	0.379391
O10	O	1.501838	0.219036	0.879391
O11	O	1.157213	-0.238513	0.428899
O12	O	1.657213	0.261487	0.928899
O13	O	1.051251	-0.312309	0.224049
O14	O	1.551251	0.187691	0.724049
O15	O	0.960501	-0.140130	0.334544
O16	O	1.460501	0.359870	0.834544
O17	O	1.160614	-0.312629	0.342561
O18	O	1.660614	0.187371	0.842561
O19	O	1.043363	-0.140373	0.424339
O20	O	1.543363	0.359627	0.924339
O21	O	0.964989	-0.237950	0.220593
O22	O	1.464989	0.262050	0.720593
O23	O	0.846514	-0.246093	0.329910
O24	O	1.346514	0.253907	0.829910
O25	O	0.952373	-0.326942	0.534705
O26	O	1.452373	0.173058	1.034705
O27	O	0.843011	-0.326622	0.416193
O28	O	1.343011	0.173378	0.916193
O29	O	1.038739	-0.246656	0.538216
O30	O	1.538739	0.253344	1.038216
O31	O	1.046627	-0.418592	0.337926
O32	O	1.546627	0.081408	0.837926
O33	O	0.956861	-0.424762	0.420754
O34	O	1.456861	0.075238	0.920754
C35	C	0.819265	-0.287234	0.372023
C36	C	1.319265	0.212766	0.872023
C37	C	0.741159	-0.289932	0.368888
C38	C	1.241159	0.210068	0.868888
C39	C	0.702692	-0.252677	0.412435
C40	C	1.202692	0.247323	0.912435
C41	C	0.629304	-0.255209	0.409483
C42	C	1.129304	0.244791	0.909483
C43	C	0.594383	-0.294999	0.362987
C44	C	1.094383	0.205001	0.862987
C45	C	0.632856	-0.332255	0.319435
C46	C	1.132856	0.167745	0.819435
C47	C	0.706243	-0.329719	0.322383
C48	C	1.206243	0.170281	0.822383
C49	C	0.375089	-0.306709	0.349336
C50	C	0.875089	0.193291	0.849336
C51	C	0.301696	-0.309243	0.346392
C52	C	0.801696	0.190757	0.846392
C53	C	0.298149	-0.232196	0.436441
C54	C	0.798149	0.267804	0.936441
C55	C	0.371538	-0.229667	0.439388
C56	C	0.871538	0.270333	0.939388
C57	C	0.410004	-0.266921	0.395833
C58	C	0.910004	0.233079	0.895833
N59	N	0.519368	-0.297589	0.359970
N60	N	1.019368	0.202411	0.859970
N61	N	0.485018	-0.264327	0.398847
N62	N	0.985018	0.235673	0.898847
C63	C	1.001747	-0.444518	0.379348
C64	C	1.501747	0.055482	0.879348
C65	C	1.001772	-0.514485	0.379356
C66	C	1.501772	-0.014485	0.879356
C67	C	1.048551	-0.544118	0.336275
C68	C	1.548551	-0.044118	0.836275
C69	C	1.048584	-0.609860	0.336292
C70	C	1.548584	-0.109860	0.836292
C71	C	1.001824	-0.645967	0.379382
C72	C	1.501824	-0.145967	0.879382
C73	C	0.955041	-0.616326	0.422472
C74	C	1.455041	-0.116326	0.922472
C75	C	0.955015	-0.550585	0.422459
C76	C	1.455015	-0.050585	0.922459
N77	N	0.940137	-0.751548	0.382259
N78	N	1.440137	-0.251548	0.882259
N79	N	0.940164	-0.813998	0.382267
N80	N	1.440164	-0.313998	0.882267
C81	C	1.001901	-0.844040	0.379426
C82	C	1.501901	-0.344040	0.879426
N83	N	1.063613	-0.809271	0.376562
N84	N	1.563613	-0.309271	0.876562
N85	N	1.063585	-0.746815	0.376550
N86	N	1.563585	-0.246815	0.876550
C87	C	1.001848	-0.717252	0.379402
C88	C	1.501848	-0.217252	0.879402
C89	C	1.048720	-0.944958	0.336362
C90	C	1.548720	-0.444958	0.836362
C91	C	1.048753	-1.010701	0.336384
C92	C	1.548753	-0.510701	0.836384
C93	C	0.955205	-1.017166	0.422559
C94	C	1.455205	-0.517166	0.922559
C95	C	0.955178	-0.951424	0.422541
C96	C	1.455178	-0.451424	0.922541
C97	C	1.001934	-0.915324	0.379438
C98	C	1.501934	-0.415324	0.879438
C99	C	1.185123	-0.274671	0.386788
C100	C	1.685123	0.225329	0.886788
C101	C	1.263229	-0.271989	0.389940
C102	C	1.763229	0.228011	0.889940
C103	C	0.994508	-0.287773	0.562669
C104	C	1.494508	0.212227	1.062669
C105	C	0.991384	-0.290674	0.640772
C106	C	1.491384	0.209326	1.140772
C107	C	1.001947	-0.116772	0.379450
C108	C	1.501947	0.383228	0.879450
C109	C	1.001994	-0.046803	0.379475
C110	C	1.501994	0.453197	0.879475
C111	C	1.009180	-0.274135	0.196827
C112	C	1.509180	0.225865	0.696827
C113	C	1.012440	-0.271052	0.118730
C114	C	1.512440	0.228948	0.618730
C115	C	1.034880	-0.250238	0.679294
C116	C	1.534880	0.249762	1.179294
C117	C	1.031936	-0.252962	0.752679
C118	C	1.531936	0.247038	1.252679
C119	C	0.985500	-0.296126	0.787541
C120	C	1.485500	0.203874	1.287541
C121	C	0.941999	-0.336563	0.749014
C122	C	1.441999	0.163437	1.249014
C123	C	0.944939	-0.333836	0.675630
C124	C	1.444939	0.166164	1.175630
C125	C	0.971880	-0.308762	1.006819
C126	C	1.471880	0.191238	1.506819
C127	C	0.968944	-0.311488	1.080209
C128	C	1.468944	0.188512	1.580209
C129	C	1.058881	-0.227886	1.083868
C130	C	1.558881	0.272114	1.583868
C131	C	1.061821	-0.225165	1.010483
C132	C	1.561821	0.274835	1.510483
C133	C	1.018317	-0.265600	0.971962
C134	C	1.518317	0.234400	1.471962
N135	N	0.982491	-0.298912	0.862553
N136	N	1.482491	0.201088	1.362553
N137	N	1.021323	-0.262810	0.896952
N138	N	1.521323	0.237190	1.396952
H139	H	0.266822	-0.201866	0.471900
H140	H	0.766822	0.298134	0.971900
H141	H	0.737562	-0.360055	0.286922
H142	H	1.237562	0.139945	0.786922
H143	H	0.917135	-1.046563	0.457647
H144	H	1.417135	-0.546563	0.957647
H145	H	1.086625	-0.514728	0.301181
H146	H	1.586625	-0.014728	0.801181
O147	O	0.267884	-0.347912	0.301161
O148	O	0.767884	0.152088	0.801161
C149	C	0.279141	-0.424093	0.212187
C150	C	0.779141	0.075907	0.712187
C151	C	0.317522	-0.380319	0.263360
C152	C	0.817522	0.119681	0.763360
H153	H	0.319255	-0.450316	0.181622
H154	H	0.819255	0.049684	0.681622
H155	H	0.246272	-0.394994	0.174082
H156	H	0.746272	0.105006	0.674082
H157	H	0.243471	-0.459411	0.243014
H158	H	0.743471	0.040589	0.743014
H159	H	0.353227	-0.344994	0.232591
H160	H	0.853227	0.155006	0.732591
H161	H	0.350347	-0.409459	0.301465
H162	H	0.850347	0.090541	0.801465
H163	H	0.406399	-0.337044	0.313871
H164	H	0.906399	0.162956	0.813871
H165	H	0.597987	-0.224873	0.444946
H166	H	1.097987	0.275127	0.944946
O167	O	0.929554	-0.347950	0.969365
O168	O	1.429554	0.152050	1.469365
C169	C	0.838028	-0.356584	0.882639
C170	C	1.338028	0.143416	1.382639
C171	C	0.885909	-0.312133	0.925030
C172	C	1.385909	0.187867	1.425030
H173	H	0.802738	-0.327644	0.846773
H174	H	1.302738	0.172356	1.346773
H175	H	0.804281	-0.387896	0.920121
H176	H	1.304281	0.112104	1.420121
H177	H	0.871658	-0.387125	0.849602
H178	H	1.371658	0.112875	1.349602
H179	H	0.852333	-0.281552	0.958070
H180	H	1.352333	0.218448	1.458070
H181	H	0.919659	-0.280864	0.887510
H182	H	1.419659	0.219136	1.387510
O183	O	0.598825	-0.370892	0.274328
O184	O	1.098825	0.129108	0.774328
C185	C	0.487343	-0.408919	0.229849
C186	C	0.987343	0.091081	0.729849
C187	C	0.525791	-0.365143	0.280974
C188	C	1.025791	0.134857	0.780974
H189	H	0.428289	-0.404277	0.235194
H190	H	0.928289	0.095723	0.735194
H191	H	0.501213	-0.459667	0.242661
H192	H	1.001213	0.040333	0.742661
H193	H	0.504073	-0.395189	0.173801
H194	H	1.004073	0.104811	0.673801
H195	H	0.509082	-0.378817	0.337040
H196	H	1.009082	0.121183	0.837040
H197	H	0.511921	-0.314406	0.268102
H198	H	1.011921	0.185594	0.768102
H199	H	1.086680	-0.633993	0.301211
H200	H	1.586680	-0.133993	0.801211
H201	H	0.904186	-0.371706	0.777404
H202	H	1.404186	0.128294	1.277404
H203	H	0.399965	-0.197268	0.477253
H204	H	0.899965	0.302732	0.977253
O205	O	1.094044	-0.909858	0.294422
O206	O	1.594044	-0.409858	0.794422
C207	C	1.107337	-0.831787	0.199957
C208	C	1.607337	-0.331787	0.699957
C209	C	1.055930	-0.871509	0.247395
C210	C	1.555930	-0.371509	0.747395
H211	H	1.076543	-0.800762	0.161934
H212	H	1.576543	-0.300762	0.661934
H213	H	1.140774	-0.864231	0.169120
H214	H	1.640774	-0.364231	0.669120
H215	H	1.142759	-0.800927	0.233740
H216	H	1.642759	-0.300927	0.733740
H217	H	1.020463	-0.902373	0.213665
H218	H	1.520463	-0.402373	0.713665
H219	H	1.022542	-0.839029	0.278237
H220	H	1.522542	-0.339029	0.778237
O221	O	0.909715	-0.651464	0.464367
O222	O	1.409715	-0.151464	0.964367
C223	C	0.896422	-0.729481	0.558885
C224	C	1.396422	-0.229481	1.058885
C225	C	0.947830	-0.689738	0.511471
C226	C	1.447830	-0.189738	1.011471
H227	H	0.927218	-0.760426	0.596990
H228	H	1.427218	-0.260426	1.096990
H229	H	0.861017	-0.760408	0.525158
H230	H	1.361017	-0.260408	1.025158
H231	H	0.862967	-0.696994	0.589643
H232	H	1.362967	-0.196994	1.089643
H233	H	0.981332	-0.722178	0.480704
H234	H	1.481332	-0.222178	0.980704
H235	H	0.983187	-0.658804	0.545236
H236	H	1.483187	-0.158804	1.045236
H237	H	0.917082	-0.927295	0.457618
H238	H	1.417082	-0.427295	0.957618
O239	O	0.909502	-0.521897	0.464327
O240	O	1.409502	-0.021897	0.964327
C241	C	0.816752	-0.535246	0.549836
C242	C	1.316752	-0.035246	1.049836
C243	C	0.868248	-0.567817	0.502444
C244	C	1.368248	-0.067817	1.002444
H245	H	0.783394	-0.572358	0.580677
H246	H	1.283394	-0.072358	1.080677
H247	H	0.781264	-0.504596	0.516088
H248	H	1.281264	-0.004596	1.016088
H249	H	0.847515	-0.504662	0.587866
H250	H	1.347515	-0.004662	1.087866
H251	H	0.837542	-0.598432	0.464406
H252	H	1.337542	-0.098432	0.964406
H253	H	0.903736	-0.598428	0.536235
H254	H	1.403736	-0.098428	1.036235
O255	O	0.923769	-0.353437	1.113963
O256	O	1.423769	0.146563	1.613963
C257	C	0.834901	-0.436095	1.102595
C258	C	1.334901	0.063905	1.602595
C259	C	0.886011	-0.388610	1.064278
C260	C	1.386011	0.111390	1.564278
H261	H	0.804371	-0.464554	1.062442
H262	H	1.304371	0.035446	1.562442
H263	H	0.796760	-0.409762	1.135460
H264	H	1.296760	0.090238	1.635460
H265	H	0.865778	-0.469154	1.138260
H266	H	1.365778	0.030846	1.638260
H267	H	0.855193	-0.355539	1.028577
H268	H	1.355193	0.144461	1.528577
H269	H	0.924153	-0.414984	1.031458
H270	H	1.424153	0.085016	1.531458
O271	O	1.094223	-1.039389	0.294468
O272	O	1.594223	-0.539389	0.794468
C273	C	1.187025	-1.026036	0.209015
C274	C	1.687025	-0.526036	0.709015
C275	C	1.135557	-0.993467	0.256439
C276	C	1.635557	-0.493467	0.756439
H277	H	1.220467	-0.988924	0.178267
H278	H	1.720467	-0.488924	0.678267
H279	H	1.156310	-1.056582	0.170911
H280	H	1.656310	-0.556582	0.670911
H281	H	1.222437	-1.056724	0.242803
H282	H	1.722437	-0.556724	0.742803
H283	H	1.100133	-0.962748	0.222708
H284	H	1.600133	-0.462748	0.722708
H285	H	1.166316	-0.962960	0.294547
H286	H	1.666316	-0.462960	0.794547
H287	H	1.072696	-0.215092	0.650914
H288	H	1.572696	0.284908	1.150914
O289	O	1.074262	-0.213659	0.789993
O290	O	1.574262	0.286341	1.289993
C291	C	1.163754	-0.130429	0.785878
C292	C	1.663754	0.369571	1.285878
C293	C	1.115869	-0.174916	0.743535
C294	C	1.615869	0.325084	1.243535
H295	H	1.197395	-0.099085	0.748334
H296	H	1.697395	0.400915	1.248334
H297	H	1.199146	-0.159315	0.821693
H298	H	1.699146	0.340685	1.321693
H299	H	1.130128	-0.099922	0.818960
H300	H	1.630128	0.400078	1.318960
H301	H	1.149439	-0.205432	0.710413
H302	H	1.649439	0.294568	1.210413
H303	H	1.080473	-0.145992	0.707764
H304	H	1.580473	0.354008	1.207764
H305	H	1.099636	-0.190018	0.982103
H306	H	1.599636	0.309982	1.482103
O307	O	1.101062	-0.188632	1.121394
O308	O	1.601062	0.311368	1.621394
C309	C	1.136421	-0.155801	1.236069
C310	C	1.636421	0.344199	1.736069
C311	C	1.088601	-0.200287	1.193658
C312	C	1.588601	0.299713	1.693658
H313	H	1.126373	-0.165218	1.294502
H314	H	1.626373	0.334782	1.794502
H315	H	1.124687	-0.104918	1.221211
H316	H	1.624687	0.395082	1.721211
H317	H	1.193648	-0.164364	1.223884
H318	H	1.693648	0.335636	1.723884
H319	H	1.031358	-0.191781	1.205820
H320	H	1.531358	0.308219	1.705820
H321	H	1.100395	-0.251155	1.208522
H322	H	1.600395	0.248845	1.708522
O323	O	0.902615	-0.373031	0.638177
O324	O	1.402615	0.126969	1.138177
C325	C	0.811081	-0.381686	0.551461
C326	C	1.311081	0.118314	1.051461
C327	C	0.858963	-0.337225	0.593839
C328	C	1.358963	0.162775	1.093839
H329	H	0.775787	-0.352754	0.515593
H330	H	1.275787	0.147246	1.015593
H331	H	0.777340	-0.412993	0.588953
H332	H	1.277340	0.087007	1.088953
H333	H	0.844710	-0.412231	0.518429
H334	H	1.344710	0.087769	1.018429
H335	H	0.825389	-0.306639	0.626874
H336	H	1.325389	0.193361	1.126874
H337	H	0.892708	-0.305960	0.556309
H338	H	1.392708	0.194040	1.056309
O339	O	0.736501	-0.213972	0.457623
O340	O	1.236501	0.286028	0.957623
C341	C	0.725228	-0.137848	0.546657
C342	C	1.225228	0.362152	1.046657
C343	C	0.686854	-0.181645	0.495503
C344	C	1.186854	0.318355	0.995503
H345	H	0.685105	-0.111710	0.577307
H346	H	1.185105	0.388290	1.077307
H347	H	0.760863	-0.102464	0.515881
H348	H	1.260863	0.397536	1.015881
H349	H	0.758132	-0.166985	0.584690
H350	H	1.258132	0.333015	1.084690
H351	H	0.653913	-0.152559	0.457458
H352	H	1.153913	0.347441	0.957458
H353	H	0.651262	-0.217031	0.526324
H354	H	1.151262	0.282969	1.026324
