data_functionalizedCrystal
_audit_creation_method	'MofGen! by Chris Wilmer'
_symmetry_space_group_name_H-M	'P1'
_symmetry_Int_Tables_number	1
_symmetry_cell_setting	triclinic
loop_
_symmetry_equiv_pos_as_xyz
  x,y,z
_cell_length_a	14.853566
_cell_length_b	14.853567
_cell_length_c	9.130307
_cell_angle_alpha	90.000499
_cell_angle_beta	90.001328
_cell_angle_gamma	83.634672
loop_
_atom_site_label
_atom_site_type_symbol
_atom_site_fract_x
_atom_site_fract_y
_atom_site_fract_z
O1	O	1.196362	0.117697	-0.121690
O2	O	0.933902	0.131720	-0.121713
O3	O	1.072143	-0.006521	-0.121705
O4	O	1.058121	0.255938	-0.121697
O5	O	1.072138	-0.006523	0.121894
O6	O	0.933898	0.131719	0.121886
O7	O	1.196357	0.117696	0.121909
Cu8	Cu	1.065127	0.124707	0.144140
Cu9	Cu	1.065132	0.124709	-0.143944
O10	O	1.058117	0.255937	0.121902
C11	C	0.900311	0.131084	0.000084
C12	C	0.800227	0.129181	0.000075
C13	C	0.377045	0.121131	-0.132686
C14	C	0.377061	0.121130	0.132895
C15	C	0.471095	0.122917	0.132891
C16	C	0.518108	0.123813	0.000096
C17	C	0.471087	0.122921	-0.132694
C18	C	0.518122	0.123818	0.265679
C19	C	0.612162	0.125607	0.265680
C20	C	0.659178	0.126496	0.132883
C21	C	0.612151	0.125603	0.000088
C22	C	0.659164	0.126499	-0.132707
C23	C	0.612140	0.125599	-0.265505
C24	C	0.518103	0.123810	-0.265491
C25	C	0.753214	0.128285	0.132869
C26	C	0.753206	0.128289	-0.132716
C27	C	1.071505	-0.040111	0.000090
C28	C	1.069601	-0.140194	0.000077
C29	C	0.979435	-0.552728	0.000097
C30	C	1.143668	-0.574009	0.000111
C31	C	1.145458	-0.479976	0.000103
C32	C	1.064236	-0.422313	0.000094
C33	C	0.981223	-0.458685	0.000093
C34	C	1.228470	-0.443597	0.000118
C35	C	1.230263	-0.349558	0.000112
C36	C	1.149040	-0.291894	0.000092
C37	C	1.066023	-0.328271	0.000090
C38	C	0.984801	-0.270608	0.000081
C39	C	0.901784	-0.306984	0.000068
C40	C	0.899999	-0.401021	0.000074
C41	C	1.150824	-0.197856	0.000086
C42	C	0.986588	-0.176566	0.000077
C43	C	1.229948	0.118332	0.000109
C44	C	1.330032	0.120235	0.000109
C45	C	1.058754	0.289526	0.000103
C46	C	1.060658	0.389610	0.000106
N47	N	1.065130	0.124705	0.346763
N48	N	1.065137	0.124703	-0.346567
C49	C	1.187592	0.002328	0.346760
C50	C	1.248828	-0.058858	0.423425
C51	C	1.248837	-0.058858	0.576758
C52	C	1.187601	0.002332	0.653430
C53	C	1.126364	0.063518	0.576765
C54	C	1.126364	0.063514	0.423428
C55	C	1.003900	0.185889	0.576768
C56	C	1.003894	0.185896	0.423435
C57	C	0.942664	0.247079	0.653440
C58	C	0.881430	0.308271	0.576775
C59	C	0.881424	0.308270	0.423432
C60	C	0.942657	0.247082	0.346770
H61	H	0.650441	0.126337	0.373811
H62	H	1.187605	0.002320	0.778282
H63	H	1.294597	-0.490552	0.000139
H64	H	0.911845	-0.582349	0.000081
C65	C	0.898470	-0.113857	0.000292
C66	C	0.894701	-0.059232	0.125600
C67	C	0.813546	-0.001447	0.125838
H68	H	0.848703	-0.148878	0.000359
H69	H	0.895751	-0.076678	-0.084612
H70	H	0.897411	-0.096407	0.210483
H71	H	0.944449	-0.024192	0.125560
H72	H	0.810827	0.035733	0.040933
H73	H	0.763785	-0.036475	0.125900
H74	H	0.810982	0.035629	0.210850
H75	H	0.791478	0.129015	-0.240855
C76	C	0.663356	0.126531	-0.409526
C77	C	0.755774	0.128275	-0.381097
C78	C	0.802987	0.129122	-0.513729
H79	H	0.641243	0.178754	-0.464200
H80	H	0.654815	0.073684	-0.464100
H81	H	0.764309	0.181116	-0.326546
H82	H	0.777913	0.076056	-0.326445
H83	H	0.794447	0.076276	-0.568303
H84	H	0.780867	0.181347	-0.568392
H85	H	0.865699	0.130297	-0.494458
C86	C	0.813630	-0.244329	-0.000243
C87	C	0.809860	-0.189734	-0.125584
C88	C	0.728665	-0.132011	-0.125929
H89	H	0.810828	-0.207119	0.084609
H90	H	0.763905	-0.279423	-0.000331
H91	H	0.859572	-0.154644	-0.125482
H92	H	0.812646	-0.226919	-0.210455
H93	H	0.678940	-0.167105	-0.126017
H94	H	0.725871	-0.094807	-0.041072
H95	H	0.726093	-0.094968	-0.210977
C96	C	0.814977	0.374603	0.339936
C97	C	0.828059	0.361499	0.189241
C98	C	0.766856	0.422582	0.112286
H99	H	0.824773	0.434832	0.364894
H100	H	0.754783	0.364685	0.364984
H101	H	0.888238	0.371425	0.164204
H102	H	0.818255	0.301283	0.164240
H103	H	0.706663	0.412664	0.137334
H104	H	0.776657	0.482807	0.137255
H105	H	0.775718	0.413694	0.010032
C106	C	1.231819	-0.636656	-0.000176
C107	C	1.235599	-0.691256	-0.125513
C108	C	1.316798	-0.748973	-0.125840
H109	H	1.234619	-0.673863	0.084678
H110	H	1.281541	-0.601558	-0.000257
H111	H	1.185891	-0.726351	-0.125419
H112	H	1.232814	-0.654074	-0.210388
H113	H	1.366520	-0.713875	-0.125920
H114	H	1.319591	-0.786174	-0.040980
H115	H	1.319378	-0.786020	-0.210885
H116	H	1.298685	-0.108680	0.360985
H117	H	1.187598	0.002330	0.221908
H118	H	0.942670	0.247073	0.778292
H119	H	1.297861	-0.319950	0.000120
C120	C	1.315417	-0.125334	0.659739
C121	C	1.369053	-0.178911	0.559785
C122	C	1.430400	-0.240152	0.636173
H123	H	1.283047	-0.163006	0.719561
H124	H	1.353032	-0.092854	0.719523
H125	H	1.331443	-0.211389	0.500026
H126	H	1.401443	-0.141264	0.499960
H127	H	1.468015	-0.207673	0.695957
H128	H	1.398023	-0.277818	0.695992
H129	H	1.466806	-0.276506	0.568366
C130	C	0.814991	0.374841	0.659827
C131	C	0.829690	0.463466	0.622515
C132	C	0.768495	0.524814	0.698982
H133	H	0.823696	0.366201	0.762148
H134	H	0.754798	0.364988	0.634661
H135	H	0.889869	0.473315	0.647691
H136	H	0.820978	0.472135	0.520207
H137	H	0.708301	0.514961	0.673816
H138	H	0.777204	0.516166	0.801300
H139	H	0.778454	0.584953	0.673667
H140	H	0.479808	0.123077	-0.373607
H141	H	0.338754	0.120395	-0.240806
H142	H	0.942661	0.247078	0.221918
H143	H	0.338777	0.120407	0.241011
C144	C	0.467052	0.122668	0.409798
C145	C	0.423130	0.044129	0.417580
C146	C	0.376078	0.043034	0.550333
H147	H	0.423492	0.174438	0.415445
H148	H	0.508496	0.123415	0.488932
H149	H	0.381689	0.043390	0.338469
H150	H	0.466669	-0.007654	0.411959
H151	H	0.417523	0.043781	0.629466
H152	H	0.332523	0.094808	0.555968
H153	H	0.346279	-0.010258	0.555637
C154	C	0.809807	-0.440389	0.000297
C155	C	0.760688	-0.411068	0.125597
C156	C	0.677595	-0.447308	0.125846
H157	H	0.820246	-0.504649	0.000382
H158	H	0.776313	-0.420583	-0.084612
H159	H	0.794176	-0.430879	0.210485
H160	H	0.750225	-0.346813	0.125539
H161	H	0.644101	-0.427503	0.040937
H162	H	0.688043	-0.511567	0.125927
H163	H	0.644254	-0.427413	0.210853
C164	C	1.240854	-0.158188	0.000176
C165	C	1.225038	-0.063492	0.000200
C166	C	1.307957	-0.026920	0.000301
H167	H	1.274377	-0.177877	-0.084740
H168	H	1.274304	-0.177916	0.085168
H169	H	1.191602	-0.043772	-0.084783
H170	H	1.191529	-0.043779	0.085110
H171	H	1.341406	-0.046649	0.085292
H172	H	1.341473	-0.046616	-0.084617
H173	H	1.297237	0.037333	0.000331
H174	H	0.791496	0.129026	0.240991
