data_functionalizedCrystal
_audit_creation_method	'MofGen! by Chris Wilmer'
_symmetry_space_group_name_H-M	'P1'
_symmetry_Int_Tables_number	1
_symmetry_cell_setting	triclinic
loop_
_symmetry_equiv_pos_as_xyz
  x,y,z
_cell_length_a	16.974800
_cell_length_b	14.044190
_cell_length_c	13.101039
_cell_angle_alpha	93.677546
_cell_angle_beta	82.995429
_cell_angle_gamma	88.281173
loop_
_atom_site_label
_atom_site_type_symbol
_atom_site_fract_x
_atom_site_fract_y
_atom_site_fract_z
O1	O	1.057785	0.120577	-0.002529
O2	O	0.827770	0.137149	0.016557
O3	O	0.939323	-0.009101	0.007281
O4	O	0.946232	0.266827	0.006748
O5	O	0.947330	-0.019607	-0.163815
O6	O	0.835777	0.126643	-0.154538
O7	O	1.065792	0.110070	-0.173625
Zn8	Zn	0.952055	0.116689	-0.191247
Zn9	Zn	0.941506	0.130531	0.034179
O10	O	0.954239	0.256321	-0.164348
C11	C	0.802159	0.131464	-0.066534
C12	C	0.713916	0.130164	-0.059212
C13	C	0.940303	-0.049649	-0.078019
C14	C	0.931286	-0.154817	-0.077280
C15	C	0.676828	0.123823	-0.149039
C16	C	0.593915	0.122586	-0.142163
C17	C	0.548090	0.127696	-0.045459
C18	C	0.585184	0.134034	0.044375
C19	C	0.668096	0.135264	0.037498
C20	C	0.299651	0.124625	-0.014890
C21	C	0.216734	0.123397	-0.008019
C22	C	0.225470	0.111947	-0.194558
C23	C	0.308383	0.113184	-0.201427
C24	C	0.345470	0.119517	-0.111593
N25	N	0.463339	0.126435	-0.038428
N26	N	0.430219	0.120771	-0.118625
C27	C	0.978755	-0.405408	-0.081179
C28	C	0.914810	-0.347366	-0.075880
C29	C	0.923979	-0.240222	-0.076659
C30	C	0.969587	-0.512562	-0.080400
C31	C	1.091403	0.115756	-0.090531
C32	C	1.179646	0.117057	-0.097846
C33	C	0.953258	0.296869	-0.079046
C34	C	0.962276	0.402038	-0.079778
N35	N	0.959261	0.107241	-0.345094
N36	N	0.934307	0.139971	0.188027
C37	C	0.924504	0.152815	0.397884
C38	C	0.969061	0.094401	0.445055
C39	C	0.963607	0.101547	0.561827
C40	C	0.929958	0.145670	0.281102
H41	H	0.563722	0.117408	-0.215310
O42	O	0.335716	0.130617	0.072339
C43	C	0.427479	0.056597	0.172532
C44	C	0.386671	0.049678	0.073714
H45	H	0.468698	-0.008823	0.173666
H46	H	0.380522	0.059986	0.242868
H47	H	0.463470	0.123799	0.174184
H48	H	0.350684	-0.017519	0.071961
H49	H	0.433667	0.046342	0.003422
O50	O	0.841257	-0.384017	-0.069595
C51	C	0.712281	-0.388880	0.029356
C52	C	0.795551	-0.347315	0.022386
H53	H	0.675299	-0.359208	0.103706
H54	H	0.717834	-0.470005	0.028971
H55	H	0.682043	-0.368148	-0.039501
H56	H	0.825835	-0.367975	0.091226
H57	H	0.789943	-0.266198	0.022722
H58	H	0.882265	0.208187	0.445194
H59	H	0.547867	0.138188	0.123114
H60	H	1.011302	0.039023	0.397740
H61	H	0.714132	0.119670	-0.227786
H62	H	0.345689	0.109018	-0.280174
O63	O	0.189414	0.105619	-0.281788
C64	C	0.104023	0.015519	-0.382529
C65	C	0.144823	0.022562	-0.283708
H66	H	0.067949	-0.051617	-0.384104
H67	H	0.150986	0.012012	-0.452864
H68	H	0.062884	0.080998	-0.383743
H69	H	0.185959	-0.042899	-0.282394
H70	H	0.097818	0.026116	-0.213418
O71	O	0.172294	0.128496	0.085982
C72	C	0.136227	0.220030	0.247764
C73	C	0.186614	0.214360	0.141362
H74	H	0.147775	0.289455	0.292561
H75	H	0.152948	0.156834	0.292258
H76	H	0.070606	0.218023	0.237211
H77	H	0.252249	0.216396	0.151821
H78	H	0.169827	0.277552	0.096905
H79	H	1.040382	-0.374633	-0.086303
H80	H	0.698291	0.140429	0.110645
