data_functionalizedCrystal
_audit_creation_method	'MofGen! by Chris Wilmer'
_symmetry_space_group_name_H-M	'P1'
_symmetry_Int_Tables_number	1
_symmetry_cell_setting	triclinic
loop_
_symmetry_equiv_pos_as_xyz
  x,y,z
_cell_length_a	21.295417
_cell_length_b	19.121241
_cell_length_c	19.120904
_cell_angle_alpha	89.875472
_cell_angle_beta	92.408338
_cell_angle_gamma	92.464587
loop_
_atom_site_label
_atom_site_type_symbol
_atom_site_fract_x
_atom_site_fract_y
_atom_site_fract_z
Zn1	Zn	-0.227282	1.054845	-0.442174
Zn2	Zn	-0.327881	1.059755	-0.324928
Zn3	Zn	-0.226908	0.942612	-0.319943
Zn4	Zn	-0.336799	0.937563	-0.437114
O5	O	-0.279717	0.998694	-0.381039
O6	O	-0.237051	1.153604	-0.430824
O7	O	-0.310598	1.048383	-0.226162
O8	O	-0.138867	0.957558	-0.336189
O9	O	-0.310960	1.157211	-0.344684
O10	O	-0.139142	1.040016	-0.425991
O11	O	-0.236414	0.962319	-0.222500
O12	O	-0.245061	0.843834	-0.331283
O13	O	-0.326160	0.948953	-0.535889
O14	O	-0.325797	0.840125	-0.417367
O15	O	-0.245698	1.035120	-0.539606
O16	O	-0.417154	1.043487	-0.339778
O17	O	-0.423706	0.953713	-0.422200
C18	C	-0.286357	0.816541	-0.373235
C19	C	-0.289213	0.738615	-0.369913
C20	C	-0.252141	0.700124	-0.413269
C21	C	-0.254822	0.626905	-0.410142
C22	C	-0.294578	0.592176	-0.363661
C23	C	-0.331651	0.630672	-0.320300
C24	C	-0.328967	0.703890	-0.323425
C25	C	-0.304601	0.371197	-0.351977
C26	C	-0.307284	0.297973	-0.348857
C27	C	-0.230453	0.294211	-0.438698
C28	C	-0.227775	0.367431	-0.441822
C29	C	-0.264846	0.405921	-0.398458
C30	C	-0.297320	0.517334	-0.360465
C31	C	-0.262100	0.480762	-0.401652
C32	C	-0.443271	0.998603	-0.380997
C33	C	-0.513238	0.998628	-0.381005
C34	C	-0.542673	1.045411	-0.338135
C35	C	-0.608415	1.045443	-0.338152
C36	C	-0.644720	0.998680	-0.381031
C37	C	-0.615278	0.951893	-0.423909
C38	C	-0.549537	0.951867	-0.423896
N39	N	-0.750438	0.937121	-0.383748
N40	N	-0.812889	0.937148	-0.383756
C41	C	-0.842793	0.998757	-0.381075
N42	N	-0.807887	1.060339	-0.378370
N43	N	-0.745430	1.060312	-0.378358
C44	C	-0.716005	0.998703	-0.381051
C45	C	-0.943512	1.045579	-0.338221
C46	C	-1.009256	1.045612	-0.338243
C47	C	-1.016118	0.952056	-0.423997
C48	C	-0.950375	0.952029	-0.423979
C49	C	-0.914077	0.998790	-0.381087
C50	C	-0.115525	0.998803	-0.381099
C51	C	-0.045556	0.998849	-0.381124
C52	C	-0.286965	0.990925	-0.563896
C53	C	-0.290054	0.987615	-0.641819
C54	C	-0.273052	1.181557	-0.388875
C55	C	-0.270212	1.259483	-0.392214
C56	C	-0.249615	1.030920	-0.680363
C57	C	-0.252515	1.027801	-0.753580
C58	C	-0.295857	0.981380	-0.788250
C59	C	-0.336298	0.938070	-0.749700
C60	C	-0.333395	0.941186	-0.676485
C61	C	-0.306717	0.969724	-1.009215
C62	C	-0.309619	0.966613	-1.082435
C63	C	-0.225834	1.056343	-1.086310
C64	C	-0.222937	1.059458	-1.013093
C65	C	-0.263376	1.016146	-0.974550
C66	C	-0.298824	0.978192	-0.863088
C67	C	-0.260406	1.019330	-0.899712
C68	C	-0.272451	1.006472	-0.198896
C69	C	-0.269180	1.009918	-0.120980
H70	H	-0.195404	0.395702	-0.479674
H71	H	-1.045677	0.913983	-0.458913
H72	H	-0.200271	0.262866	-0.474002
H73	H	-0.219587	1.063066	-0.784960
H74	H	-0.644842	0.913820	-0.458823
C75	C	-0.350467	0.260396	-0.298318
C76	C	-0.382347	0.309774	-0.260998
C77	C	-0.422126	0.275184	-0.214435
H78	H	-0.380094	0.230693	-0.323785
H79	H	-0.326194	0.233147	-0.266570
H80	H	-0.406619	0.337012	-0.292742
H81	H	-0.352737	0.339479	-0.235517
H82	H	-0.397853	0.247935	-0.182686
H83	H	-0.451748	0.245482	-0.239907
H84	H	-0.443757	0.308682	-0.189103
C85	C	-0.344894	0.413061	-0.305020
C86	C	-0.385316	0.453416	-0.346423
C87	C	-0.422441	0.491998	-0.303190
H88	H	-0.369013	0.381968	-0.276883
H89	H	-0.318536	0.442963	-0.275751
H90	H	-0.411672	0.423516	-0.375680
H91	H	-0.361215	0.484522	-0.374559
H92	H	-0.396082	0.521901	-0.273921
H93	H	-0.446556	0.460900	-0.275055
H94	H	-0.449868	0.519389	-0.331275
C95	C	-0.377409	0.894264	-0.634669
C96	C	-0.439841	0.908750	-0.653097
C97	C	-0.480404	0.865547	-0.614583
H98	H	-0.370478	0.846628	-0.644613
H99	H	-0.369512	0.902779	-0.586095
H100	H	-0.447734	0.900230	-0.701660
H101	H	-0.446791	0.956379	-0.643151
H102	H	-0.472507	0.874061	-0.566008
H103	H	-0.473467	0.817913	-0.624530
H104	H	-0.522768	0.875374	-0.627076
H105	H	-0.926408	0.913931	-0.458884
H106	H	-0.214322	1.068723	-0.652141
H107	H	-0.344915	0.928809	-1.110661
C108	C	-0.369330	0.745643	-0.276440
C109	C	-0.432889	0.727181	-0.290829
C110	C	-0.470088	0.765635	-0.247564
H111	H	-0.358707	0.735671	-0.228819
H112	H	-0.362079	0.794229	-0.284963
H113	H	-0.440136	0.678606	-0.282300
H114	H	-0.443530	0.737155	-0.338442
H115	H	-0.462837	0.814221	-0.256087
H116	H	-0.459460	0.755660	-0.199945
H117	H	-0.513217	0.753118	-0.257325
H118	H	-0.187645	1.097261	-0.984870
H119	H	-0.229728	0.509041	-0.439493
C120	C	-0.208914	0.737699	-0.463759
C121	C	-0.177010	0.688316	-0.501045
C122	C	-0.137177	0.722901	-0.547556
H123	H	-0.233132	0.764960	-0.495537
H124	H	-0.179308	0.767390	-0.438233
H125	H	-0.206613	0.658636	-0.526570
H126	H	-0.152781	0.661052	-0.469286
H127	H	-0.107570	0.752592	-0.522030
H128	H	-0.161399	0.750161	-0.579329
H129	H	-0.115521	0.689400	-0.572856
H130	H	-0.364019	0.602390	-0.282451
C131	C	-0.181959	1.103278	-1.128281
C132	C	-0.193764	1.090604	-1.199820
C133	C	-0.153348	1.133820	-1.238504
H134	H	-0.188939	1.150913	-1.118386
H135	H	-0.139550	1.093545	-1.115896
H136	H	-0.236162	1.100342	-1.212200
H137	H	-0.186779	1.042977	-1.209736
H138	H	-0.110940	1.124086	-1.226118
H139	H	-0.160332	1.181452	-1.228603
H140	H	-0.161348	1.125221	-1.287046
C141	C	-0.517693	0.900991	-0.470464
C142	C	-0.563555	0.860033	-0.508011
C143	C	-0.534243	0.813151	-0.550908
H144	H	-0.492247	0.926395	-0.502231
H145	H	-0.492152	0.871556	-0.442321
H146	H	-0.589086	0.889464	-0.536152
H147	H	-0.589003	0.834613	-0.476262
H148	H	-0.508701	0.783716	-0.522765
H149	H	-0.508798	0.838561	-0.582670
H150	H	-0.565355	0.785351	-0.576384
H151	H	-0.913957	1.083656	-0.303299
C152	C	-0.350687	0.922659	-0.967498
C153	C	-0.389271	0.881349	-1.013535
C154	C	-0.429787	0.837983	-0.975128
H155	H	-0.326649	0.893283	-0.937639
H156	H	-0.376045	0.950643	-0.940083
H157	H	-0.363916	0.853367	-1.040938
H158	H	-0.413323	0.910706	-1.043395
H159	H	-0.455145	0.865967	-0.947712
H160	H	-0.405743	0.808612	-0.945270
H161	H	-0.455975	0.809954	-1.006358
H162	H	-0.371586	0.900271	-0.777934
H163	H	-0.334116	0.940400	-0.891325
C164	C	-0.503343	1.096151	-0.291460
C165	C	-0.517192	1.083908	-0.221437
C166	C	-0.480980	1.130644	-0.178423
H167	H	-0.459958	1.089488	-0.297496
H168	H	-0.512779	1.142827	-0.303739
H169	H	-0.507752	1.037243	-0.209162
H170	H	-0.560571	1.090576	-0.215378
H171	H	-0.490416	1.177320	-0.190702
H172	H	-0.437597	1.123978	-0.184465
H173	H	-0.490375	1.122348	-0.130908
C174	C	-0.213312	1.069619	-0.861980
C175	C	-0.172754	1.031738	-0.818247
C176	C	-0.129370	1.078042	-0.783464
H177	H	-0.189578	1.094987	-0.895340
H178	H	-0.235130	1.101352	-0.834678
H179	H	-0.150937	1.000017	-0.845547
H180	H	-0.196469	1.006372	-0.784873
H181	H	-0.151188	1.109776	-0.756162
H182	H	-0.105641	1.103408	-0.816829
H183	H	-0.101850	1.052348	-0.753782
C184	C	-0.640425	1.096301	-0.291712
C185	C	-0.678049	1.139548	-0.333358
C186	C	-0.707541	1.186403	-0.290597
H187	H	-0.665914	1.070874	-0.260003
H188	H	-0.609416	1.124187	-0.266172
H189	H	-0.709053	1.111664	-0.358886
H190	H	-0.652575	1.164990	-0.365066
H191	H	-0.676533	1.214290	-0.265057
H192	H	-0.733026	1.160970	-0.258890
H193	H	-0.733068	1.215756	-0.318848
C194	C	-0.214681	0.585027	-0.457258
C195	C	-0.253707	0.541065	-0.500309
C196	C	-0.216751	0.502472	-0.543718
H197	H	-0.190615	0.616115	-0.485453
H198	H	-0.187210	0.557567	-0.429301
H199	H	-0.281168	0.568523	-0.528263
H200	H	-0.277773	0.509963	-0.472133
H201	H	-0.189279	0.475013	-0.515761
H202	H	-0.192686	0.533566	-0.571908
H203	H	-0.243224	0.472635	-0.572928
C204	C	-1.041098	1.096554	-0.291745
C205	C	-1.023065	1.165230	-0.310050
C206	C	-1.052364	1.212191	-0.267226
H207	H	-1.085458	1.090007	-0.297836
H208	H	-1.028833	1.088375	-0.244185
H209	H	-1.035333	1.173405	-0.357599
H210	H	-0.978709	1.171799	-0.303956
H211	H	-1.040099	1.204013	-0.219666
H212	H	-1.096723	1.205638	-0.273320
H213	H	-1.040128	1.258793	-0.279635
H214	H	-0.329690	0.489050	-0.322620
