data_functionalizedCrystal
_audit_creation_method	'MofGen! by Chris Wilmer'
_symmetry_space_group_name_H-M	'P1'
_symmetry_Int_Tables_number	1
_symmetry_cell_setting	triclinic
loop_
_symmetry_equiv_pos_as_xyz
  x,y,z
_cell_length_a	18.215407
_cell_length_b	15.299816
_cell_length_c	18.215399
_cell_angle_alpha	80.342622
_cell_angle_beta	90.017813
_cell_angle_gamma	80.345132
loop_
_atom_site_label
_atom_site_type_symbol
_atom_site_fract_x
_atom_site_fract_y
_atom_site_fract_z
Zn1	Zn	1.175788	-0.359210	0.466849
Zn2	Zn	1.196992	-0.510040	0.365102
Zn3	Zn	1.052723	-0.359223	0.343803
Zn4	Zn	1.073973	-0.509974	0.488122
O5	O	1.124869	-0.434612	0.415969
O6	O	1.281588	-0.379239	0.453363
O7	O	1.177835	-0.490067	0.259297
O8	O	1.051280	-0.233009	0.342309
O9	O	1.297167	-0.490054	0.378610
O10	O	1.141696	-0.232999	0.432710
O11	O	1.071841	-0.379263	0.243649
O12	O	0.952554	-0.379199	0.362936
O13	O	1.087498	-0.489942	0.588280
O14	O	0.968167	-0.489955	0.468967
O15	O	1.162302	-0.379175	0.572651
O16	O	1.198441	-0.636244	0.399238
O17	O	1.108059	-0.636196	0.489620
C18	C	0.933657	-0.434572	0.415949
C19	C	0.851859	-0.434577	0.415961
C20	C	0.578705	-0.377022	0.454984
C21	C	0.655561	-0.377007	0.454979
C22	C	0.671779	-0.492231	0.376975
C23	C	0.594924	-0.492249	0.376984
C24	C	0.548388	-0.434640	0.415987
C25	C	0.702100	-0.434607	0.415973
C26	C	0.785431	-0.434591	0.415968
C27	C	0.465052	-0.434656	0.415993
C28	C	1.157877	-0.668946	0.449065
C29	C	1.172065	-0.769194	0.463248
C30	C	1.023947	-1.052100	0.314851
C31	C	1.010613	-0.957911	0.301527
C32	C	1.050975	-0.910727	0.341956
C33	C	1.104673	-0.957741	0.395711
C34	C	1.118004	-1.051940	0.409041
C35	C	1.145032	-0.910567	0.436145
C36	C	1.198730	-0.957581	0.489901
C37	C	1.212060	-1.051770	0.503227
C38	C	1.171698	-1.098954	0.462799
C39	C	1.131701	-0.816369	0.422816
C40	C	1.225758	-0.816209	0.517006
C41	C	1.239092	-0.910398	0.530330
C42	C	1.316828	-0.434652	0.415990
C43	C	1.398629	-0.434670	0.415999
C44	C	1.124905	-0.434550	0.607913
C45	C	1.124920	-0.434523	0.689709
C46	C	1.091753	-0.199363	0.382760
C47	C	1.077640	-0.099114	0.368609
C48	C	1.124866	-0.434609	0.224763
C49	C	1.124958	-0.434381	0.142932
C50	C	1.163880	-0.376793	0.869758
C51	C	1.163885	-0.376767	0.946613
C52	C	1.085993	-0.492114	0.962877
C53	C	1.085984	-0.492135	0.886023
C54	C	1.124932	-0.434476	0.839466
C55	C	1.124946	-0.434428	0.993175
C56	C	1.124951	-0.434400	1.076505
C57	C	1.124926	-0.434502	0.756130
H58	H	0.680241	-0.330090	0.486736
H59	H	1.195591	-0.329841	0.831852
H60	H	1.182554	-1.175650	0.473642
C61	C	1.036428	-0.808464	0.327626
C62	C	1.013186	-0.777254	0.393254
C63	C	0.999769	-0.683052	0.380074
H64	H	1.080865	-0.787012	0.311948
H65	H	0.998642	-0.787184	0.289850
H66	H	1.050969	-0.798525	0.431017
H67	H	0.968744	-0.798682	0.408942
H68	H	0.961983	-0.661772	0.342298
H69	H	1.044209	-0.661608	0.364395
H70	H	0.983992	-0.661864	0.424597
H71	H	1.054286	-0.539059	1.000794
H72	H	1.282813	-0.948690	0.574098
C73	C	0.952318	-0.907032	0.243104
C74	C	0.919840	-0.968510	0.210534
C75	C	0.866142	-0.921673	0.156700
H76	H	0.914970	-0.870289	0.265944
H77	H	0.975277	-0.870309	0.205829
H78	H	0.896880	-1.005217	0.247803
H79	H	0.957169	-1.005255	0.187680
H80	H	0.889102	-0.884950	0.119424
H81	H	0.828800	-0.884931	0.179545
H82	H	0.844104	-0.963378	0.134590
C83	C	0.528309	-0.314450	0.497412
C84	C	0.571315	-0.264007	0.531580
C85	C	0.524920	-0.206367	0.570683
H86	H	0.492752	-0.275035	0.463832
H87	H	0.503229	-0.348990	0.534352
H88	H	0.596383	-0.229470	0.494644
H89	H	0.606871	-0.303399	0.565172
H90	H	0.499840	-0.240907	0.607624
H91	H	0.489365	-0.166958	0.537098
H92	H	0.554094	-0.172141	0.593877
C93	C	0.722423	-0.554670	0.334638
C94	C	0.796216	-0.542305	0.342957
C95	C	0.842886	-0.599798	0.303956
H96	H	0.718479	-0.615327	0.353850
H97	H	0.707974	-0.541389	0.283318
H98	H	0.810660	-0.555593	0.394267
H99	H	0.800183	-0.481660	0.323741
H100	H	0.828437	-0.586517	0.252636
H101	H	0.838935	-0.660451	0.323172
H102	H	0.892959	-0.591410	0.309590
H103	H	0.570241	-0.539174	0.345228
C104	C	0.980234	-1.103489	0.271013
C105	C	1.003415	-1.196041	0.294182
C106	C	0.963167	-1.243409	0.253805
H107	H	0.928587	-1.088200	0.279529
H108	H	0.988867	-1.088139	0.219386
H109	H	0.994776	-1.211385	0.345796
H110	H	1.055056	-1.211357	0.285664
H111	H	0.971799	-1.228059	0.202178
H112	H	0.911521	-1.228112	0.262324
H113	H	0.978894	-1.306210	0.269514
C114	C	1.206094	-0.314171	0.979639
C115	C	1.197748	-0.326468	1.056907
C116	C	1.236610	-0.268805	1.087353
H117	H	1.257422	-0.327322	0.969000
H118	H	1.186777	-0.253555	0.958524
H119	H	1.217068	-0.387070	1.078015
H120	H	1.146429	-0.313310	1.067567
H121	H	1.217293	-0.208190	1.066238
H122	H	1.287936	-0.281962	1.076708
H123	H	1.230947	-0.277135	1.139781
H124	H	1.087979	-0.778098	0.379048
C125	C	1.270298	-1.102979	0.561589
C126	C	1.273320	-1.195567	0.564623
C127	C	1.326952	-1.242766	0.618384
H128	H	1.317607	-1.087616	0.548735
H129	H	1.257311	-1.087563	0.608862
H130	H	1.286311	-1.210976	0.517361
H131	H	1.226024	-1.210957	0.577486
H132	H	1.313965	-1.227350	0.665656
H133	H	1.374257	-1.227396	0.605525
H134	H	1.329005	-1.305591	0.620454
H135	H	1.054263	-0.539106	0.861359
H136	H	1.258623	-0.777793	0.549928
