data_functionalizedCrystal
_audit_creation_method	'MofGen! by Chris Wilmer'
_symmetry_space_group_name_H-M	'P1'
_symmetry_Int_Tables_number	1
_symmetry_cell_setting	triclinic
loop_
_symmetry_equiv_pos_as_xyz
  x,y,z
_cell_length_a	23.532407
_cell_length_b	23.532407
_cell_length_c	22.610064
_cell_angle_alpha	89.999397
_cell_angle_beta	89.997161
_cell_angle_gamma	82.848678
loop_
_atom_site_label
_atom_site_type_symbol
_atom_site_fract_x
_atom_site_fract_y
_atom_site_fract_z
O1	O	0.755263	0.069127	-0.049117
O2	O	0.589400	0.079130	-0.049135
O3	O	0.677333	-0.008803	-0.049114
O4	O	0.667330	0.157060	-0.049137
O5	O	0.677318	-0.008790	0.049255
O6	O	0.589385	0.079143	0.049234
O7	O	0.755248	0.069140	0.049252
Zn8	Zn	0.672314	0.074144	0.064862
Zn9	Zn	0.672334	0.074127	-0.064744
O10	O	0.667315	0.157073	0.049232
C11	C	0.568176	0.078882	0.000048
C12	C	0.504959	0.078116	0.000041
C13	C	0.105856	0.125350	0.000061
C14	C	0.046456	0.124638	0.000065
O15	O	0.009711	0.168424	0.000081
N16	N	0.023830	0.072362	0.000071
C17	C	0.060607	0.020794	0.000080
O18	O	0.035908	-0.023737	0.000086
C19	C	0.120006	0.021506	0.000080
C20	C	0.142629	0.073785	0.000068
C21	C	0.128479	0.177625	0.000050
C22	C	0.187876	0.178336	0.000045
C23	C	0.224649	0.126772	0.000052
C24	C	0.202025	0.074497	0.000063
C25	C	0.156783	-0.030062	0.000093
C26	C	0.216185	-0.029345	0.000094
C27	C	0.238808	0.022934	0.000082
C28	C	0.298194	0.023643	0.000065
N29	N	0.320820	0.075920	0.000059
C30	C	0.284048	0.127484	0.000052
C31	C	-0.064135	0.019302	0.000080
C32	C	-0.123533	0.018589	0.000075
C33	C	-0.137680	0.122434	0.000061
C34	C	-0.078281	0.123146	0.000062
C35	C	-0.041509	0.071578	0.000074
C36	C	0.408784	0.128974	0.000042
C37	C	0.468186	0.129680	0.000034
C38	C	0.482329	0.025836	0.000051
C39	C	0.422932	0.025129	0.000055
C40	C	0.386160	0.076702	0.000052
O41	O	0.334974	-0.020119	0.000052
O42	O	0.308755	0.172007	0.000054
C43	C	0.677071	-0.030013	0.000072
C44	C	0.676305	-0.093230	0.000076
C45	C	0.723539	-0.492333	0.000049
C46	C	0.722827	-0.551733	0.000044
O47	O	0.766613	-0.588478	0.000027
N48	N	0.670551	-0.574359	0.000039
C49	C	0.618983	-0.537582	0.000032
O50	O	0.574452	-0.562281	0.000027
C51	C	0.619695	-0.478182	0.000033
C52	C	0.671974	-0.455560	0.000044
C53	C	0.775814	-0.469710	0.000060
C54	C	0.776525	-0.410313	0.000065
C55	C	0.724961	-0.373540	0.000060
C56	C	0.672685	-0.396164	0.000050
C57	C	0.568127	-0.441406	0.000022
C58	C	0.568844	-0.382004	0.000021
C59	C	0.621123	-0.359381	0.000033
C60	C	0.621832	-0.299995	0.000050
N61	N	0.674109	-0.277368	0.000056
C62	C	0.725673	-0.314141	0.000061
C63	C	0.617491	-0.662324	0.000031
C64	C	0.616778	-0.721722	0.000034
C65	C	0.720623	-0.735869	0.000045
C66	C	0.721335	-0.676470	0.000046
C67	C	0.669767	-0.639698	0.000036
C68	C	0.727163	-0.189405	0.000073
C69	C	0.727869	-0.130003	0.000081
C70	C	0.624025	-0.115860	0.000067
C71	C	0.623318	-0.175257	0.000062
C72	C	0.674891	-0.212029	0.000063
O73	O	0.578070	-0.263215	0.000065
O74	O	0.770196	-0.289433	0.000058
C75	C	0.776472	0.069388	0.000069
C76	C	0.839689	0.070154	0.000071
C77	C	0.667577	0.178283	0.000045
C78	C	0.668343	0.241500	0.000036
N79	N	0.672304	0.074155	0.153314
N80	N	0.672349	0.074111	-0.153196
C81	C	0.711273	0.035196	0.561965
C82	C	0.711276	0.035192	0.623884
O83	O	0.744384	0.002076	0.655911
N84	N	0.672334	0.074115	0.654851
C85	C	0.633383	0.113041	0.623895
O86	O	0.600259	0.146147	0.655920
C87	C	0.633377	0.113042	0.561976
C88	C	0.672326	0.074120	0.531013
C89	C	0.750218	-0.003724	0.531001
C90	C	0.750215	-0.003719	0.469085
C91	C	0.711268	0.035206	0.438133
C92	C	0.672323	0.074125	0.469097
C93	C	0.594424	0.151965	0.531021
C94	C	0.594422	0.151962	0.469098
C95	C	0.633370	0.113040	0.438134
C96	C	0.633374	0.113054	0.376229
N97	N	0.672316	0.074131	0.345262
C98	C	0.711263	0.035207	0.376214
C99	C	0.633396	0.113035	0.753928
C100	C	0.633403	0.113037	0.815846
C101	C	0.711296	0.035187	0.815831
C102	C	0.711291	0.035188	0.753913
C103	C	0.672338	0.074112	0.722962
C104	C	0.711255	0.035220	0.246187
C105	C	0.711251	0.035230	0.184266
C106	C	0.633357	0.113078	0.184286
C107	C	0.633363	0.113071	0.246202
C108	C	0.672314	0.074137	0.277151
O109	O	0.600281	0.146152	0.344163
O110	O	0.744376	0.002101	0.344182
H111	H	-0.034198	-0.022693	0.000084
C112	C	0.754102	-0.007577	0.150207
H113	H	0.748531	-0.001996	0.108896
H114	H	0.748144	-0.045560	0.160349
H115	H	0.792072	-0.001572	0.160358
C116	C	0.088035	0.234349	0.000038
H117	H	0.049416	0.226448	0.000042
H118	H	0.094872	0.255790	-0.034270
H119	H	0.094863	0.255804	0.034342
H120	H	0.246123	-0.071339	0.000104
C121	C	0.754103	-0.007603	0.280222
H122	H	0.777297	-0.030775	0.252906
H123	H	0.733760	-0.031213	0.304378
H124	H	0.777697	0.012765	0.304374
C125	C	-0.148412	-0.038918	0.000083
H126	H	-0.117999	-0.069523	0.000090
H127	H	-0.171290	-0.041363	-0.034218
H128	H	-0.171287	-0.041351	0.034393
C129	C	0.522786	-0.030880	0.000063
H130	H	0.561400	-0.022964	0.000066
H131	H	0.515965	-0.052342	-0.034234
H132	H	0.515958	-0.052321	0.034378
C133	C	0.567307	-0.075406	0.000058
H134	H	0.536068	-0.097383	0.000054
H135	H	0.565439	-0.051940	-0.034246
H136	H	0.565420	-0.051941	0.034366
C137	C	0.551578	0.194776	0.565070
H138	H	0.557154	0.189209	0.606382
H139	H	0.513609	0.188777	0.554920
H140	H	0.557545	0.232757	0.554920
H141	H	0.486602	0.172255	0.000024
H142	H	0.138375	-0.072634	0.000103
H143	H	0.404512	-0.017441	0.000056
H144	H	0.743005	0.003494	0.728706
C145	C	0.832538	-0.510154	0.000064
H146	H	0.824637	-0.548773	0.000058
H147	H	0.853981	-0.503321	0.034369
H148	H	0.853991	-0.503321	-0.034242
C149	C	-0.053402	0.180653	0.000054
H150	H	-0.083814	0.211258	0.000052
H151	H	-0.030520	0.183088	-0.034248
H152	H	-0.030530	0.183096	0.034363
H153	H	0.525555	-0.459814	0.000009
C154	C	-0.178138	0.179155	0.000059
H155	H	-0.216753	0.171239	0.000067
H156	H	-0.171314	0.200604	-0.034246
H157	H	-0.171314	0.200607	0.034365
H158	H	0.574207	-0.740136	0.000035
H159	H	0.770443	-0.111587	0.000092
H160	H	0.575496	-0.632386	0.000028
C161	C	0.793052	-0.046540	0.435033
H162	H	0.816240	-0.069723	0.462342
H163	H	0.816644	-0.026180	0.410874
H164	H	0.772695	-0.070146	0.410884
C165	C	0.783892	-0.229845	0.000079
H166	H	0.815123	-0.207856	0.000092
H167	H	0.785787	-0.253311	-0.034224
H168	H	0.785768	-0.253310	0.034387
H169	H	0.819097	-0.391900	0.000072
C170	C	0.778842	-0.651591	0.000053
H171	H	0.809447	-0.682003	0.000052
H172	H	0.781276	-0.628711	0.034355
H173	H	0.781286	-0.628717	-0.034257
H174	H	0.562700	0.183658	0.443901
H175	H	0.762610	-0.765821	0.000047
C176	C	0.793066	-0.046541	0.565039
H177	H	0.816258	-0.069713	0.537722
H178	H	0.772727	-0.070151	0.589199
H179	H	0.816661	-0.026170	0.589186
H180	H	0.378851	0.170970	0.000041
H181	H	0.526850	-0.352066	0.000013
C182	C	0.590500	0.155862	0.280263
H183	H	0.567296	0.179035	0.252959
H184	H	0.610822	0.179474	0.304436
H185	H	0.566918	0.135462	0.304399
H186	H	0.580748	-0.193677	0.000069
C187	C	0.754132	-0.007635	0.849887
H188	H	0.748549	-0.002063	0.891197
H189	H	0.792106	-0.001648	0.839740
H190	H	0.748156	-0.045614	0.839739
C191	C	0.590561	0.155852	0.849899
H192	H	0.567364	0.179029	0.822592
H193	H	0.610905	0.179458	0.874057
H194	H	0.566970	0.135477	0.874051
C195	C	0.590553	0.155862	0.719888
H196	H	0.567367	0.179044	0.747202
H197	H	0.566957	0.135502	0.695734
H198	H	0.610905	0.179470	0.695734
C199	C	0.590517	0.155892	0.150234
H200	H	0.567323	0.179077	0.177539
H201	H	0.566931	0.135522	0.126080
H202	H	0.610870	0.179499	0.126078
C203	C	0.212753	0.235844	0.000043
H204	H	0.182339	0.266448	0.000047
H205	H	0.235634	0.238286	-0.034258
H206	H	0.235625	0.238283	0.034353
