data_functionalizedCrystal
_audit_creation_method	'MofGen! by Chris Wilmer'
_symmetry_space_group_name_H-M	'P1'
_symmetry_Int_Tables_number	1
_symmetry_cell_setting	triclinic
loop_
_symmetry_equiv_pos_as_xyz
  x,y,z
_cell_length_a	14.044220
_cell_length_b	14.044220
_cell_length_c	12.503552
_cell_angle_alpha	93.839891
_cell_angle_beta	93.839943
_cell_angle_gamma	86.811122
loop_
_atom_site_label
_atom_site_type_symbol
_atom_site_fract_x
_atom_site_fract_y
_atom_site_fract_z
O1	O	0.225121	-1.282207	-0.089210
O2	O	0.216814	-1.005537	-0.089237
O3	O	0.082632	-1.139718	-0.089214
O4	O	0.359303	-1.148025	-0.089234
O5	O	0.092732	-1.129615	0.089427
O6	O	0.226914	-0.995434	0.089403
O7	O	0.235221	-1.272104	0.089430
Cu8	Cu	0.231989	-1.132846	0.105728
Cu9	Cu	0.220045	-1.144794	-0.105535
O10	O	0.369402	-1.137922	0.089407
C11	C	0.218228	-0.964864	0.000080
C12	C	0.207383	-0.858721	0.000070
C13	C	0.052060	-1.131031	0.000107
C14	C	-0.054082	-1.120187	0.000107
C15	C	0.233807	-1.312777	0.000111
C16	C	0.244651	-1.418920	0.000114
C17	C	-0.248421	-1.100361	0.000090
C18	C	-0.299551	-1.177275	0.000094
C19	C	-0.407687	-1.166244	0.000084
C20	C	-0.140274	-1.111391	0.000099
C21	C	0.399974	-1.146609	0.000084
C22	C	0.506117	-1.157454	0.000077
N23	N	0.240390	-1.124449	0.254319
C24	C	0.187558	-0.664382	0.000092
C25	C	0.264472	-0.613253	0.000091
C26	C	0.253441	-0.505116	0.000104
C27	C	0.198587	-0.772529	0.000080
N28	N	0.211637	-1.153198	-0.254126
C29	C	0.199276	-1.165545	0.526760
C30	C	0.252749	-1.112106	0.473426
C31	C	0.245871	-1.118975	0.351504
C32	C	0.206153	-1.158676	0.648693
H33	H	-0.262115	-1.251413	0.000029
H34	H	0.303695	-1.061196	0.519333
N35	N	0.362674	-0.662830	0.000053
H36	H	0.402292	-0.640041	0.066268
H37	H	0.356664	-0.734161	-0.000001
N38	N	-0.298004	-1.002168	0.000079
H39	H	-0.369344	-1.008108	0.000077
H40	H	-0.275136	-0.962615	0.066305
N41	N	0.089365	-0.614799	0.000112
H42	H	0.095305	-0.543459	0.000120
H43	H	0.049807	-0.637663	-0.066112
H44	H	0.148334	-1.216452	0.480859
