data_functionalizedCrystal
_audit_creation_method	'MofGen! by Chris Wilmer'
_symmetry_space_group_name_H-M	'P1'
_symmetry_Int_Tables_number	1
_symmetry_cell_setting	triclinic
loop_
_symmetry_equiv_pos_as_xyz
  x,y,z
_cell_length_a	12.759401
_cell_length_b	18.101395
_cell_length_c	12.759393
_cell_angle_alpha	90.033445
_cell_angle_beta	90.019437
_cell_angle_gamma	90.031116
loop_
_atom_site_label
_atom_site_type_symbol
_atom_site_fract_x
_atom_site_fract_y
_atom_site_fract_z
Zn1	Zn	1.606136	-0.294786	0.593994
Zn2	Zn	2.106136	0.205214	1.093994
Zn3	Zn	1.605980	-0.418647	0.418308
Zn4	Zn	2.105980	0.081353	0.918308
Zn5	Zn	1.430438	-0.294824	0.418330
Zn6	Zn	1.930438	0.205176	0.918330
Zn7	Zn	1.430376	-0.418590	0.593947
Zn8	Zn	1.930376	0.081410	1.093947
O9	O	1.518232	-0.356712	0.506145
O10	O	2.018232	0.143288	1.006145
O11	O	1.753136	-0.311224	0.570699
O12	O	2.253136	0.188776	1.070699
O13	O	1.582654	-0.402262	0.271290
O14	O	2.082654	0.097738	0.771290
O15	O	1.453835	-0.191186	0.441662
O16	O	1.953835	0.308814	0.941662
O17	O	1.753021	-0.402225	0.441624
O18	O	2.253021	0.097775	0.941624
O19	O	1.582920	-0.191158	0.570721
O20	O	2.082920	0.308842	1.070721
O21	O	1.453684	-0.311290	0.271306
O22	O	1.953684	0.188710	0.771306
O23	O	1.283408	-0.311234	0.441616
O24	O	1.783408	0.188766	0.941616
O25	O	1.453730	-0.402127	0.740974
O26	O	1.953730	0.097873	1.240974
O27	O	1.283363	-0.402164	0.570641
O28	O	1.783363	0.097836	1.070641
O29	O	1.582860	-0.311169	0.741009
O30	O	2.082860	0.188831	1.241009
O31	O	1.582594	-0.522273	0.441578
O32	O	2.082594	-0.022273	0.941578
O33	O	1.453579	-0.522230	0.570619
O34	O	1.953579	-0.022230	1.070619
C35	C	1.245265	-0.356698	0.506126
C36	C	1.745265	0.143302	1.006126
C37	C	1.128488	-0.356709	0.506143
C38	C	1.628488	0.143291	1.006143
C39	C	0.963905	-0.404141	0.573239
C40	C	1.463905	0.095859	1.073239
C41	C	1.073629	-0.404131	0.573222
C42	C	1.573629	0.095869	1.073222
C43	C	1.073617	-0.309299	0.439070
C44	C	1.573617	0.190701	0.939070
C45	C	0.963895	-0.309313	0.439082
C46	C	1.463895	0.190687	0.939082
C47	C	0.909052	-0.451560	0.640329
C48	C	1.409052	0.048440	1.140329
C49	C	0.963915	-0.498971	0.707401
C50	C	1.463915	0.001029	1.207401
C51	C	1.073639	-0.498962	0.707384
C52	C	1.573639	0.001038	1.207384
C53	C	1.128500	-0.451541	0.640295
C54	C	1.628500	0.048459	1.140295
C55	C	1.518092	-0.549122	0.506114
C56	C	2.018092	-0.049122	1.006114
C57	C	1.518128	-0.631436	0.506136
C58	C	2.018128	-0.131436	1.006136
C59	C	1.518358	-0.930527	0.506192
C60	C	2.018358	-0.430527	1.006192
C61	C	1.437374	-0.899206	0.587583
C62	C	1.937374	-0.399206	1.087583
C63	C	1.436989	-0.813589	0.587329
C64	C	1.936989	-0.313589	1.087329
C65	C	1.518244	-0.782145	0.506165
C66	C	2.018244	-0.282145	1.006165
C67	C	1.488263	-0.813305	0.395440
C68	C	1.988263	-0.313305	0.895440
C69	C	1.487741	-0.898950	0.395927
C70	C	1.987741	-0.398950	0.895927
C71	C	1.629501	-0.898869	0.534553
C72	C	2.129501	-0.398869	1.034553
C73	C	1.628847	-0.813218	0.536981
C74	C	2.128847	-0.313218	1.036981
C75	C	1.518181	-0.698285	0.506143
C76	C	2.018181	-0.198285	1.006143
C77	C	1.518418	-1.014387	0.506207
C78	C	2.018418	-0.514387	1.006207
C79	C	1.792265	-0.356727	0.506164
C80	C	2.292265	0.143273	1.006164
C81	C	1.909042	-0.356733	0.506173
C82	C	2.409042	0.143267	1.006173
C83	C	1.518306	-0.356637	0.780178
C84	C	2.018306	0.143363	1.280178
C85	C	1.518337	-0.356605	0.896955
C86	C	2.018337	0.143395	1.396955
C87	C	1.518402	-0.163550	0.506199
C88	C	2.018402	0.336450	1.006199
C89	C	1.518474	-0.081236	0.506222
C90	C	2.018474	0.418764	1.006222
C91	C	1.518219	-0.356733	0.233178
C92	C	2.018219	0.143267	0.733178
C93	C	1.518392	-0.356556	0.116401
C94	C	2.018392	0.143444	0.616401
C95	C	1.585584	-0.309239	0.951837
C96	C	2.085584	0.190761	1.451837
C97	C	1.585609	-0.309212	1.061561
C98	C	2.085609	0.190788	1.561561
C99	C	1.451137	-0.403925	1.061512
C100	C	1.951137	0.096075	1.561512
C101	C	1.451108	-0.403947	0.951790
C102	C	1.951108	0.096053	1.451790
C103	C	1.652814	-0.261897	0.897002
C104	C	2.152814	0.238103	1.397002
C105	C	1.720068	-0.214527	0.951884
C106	C	2.220068	0.285473	1.451884
C107	C	1.720093	-0.214500	1.061608
C108	C	2.220093	0.285500	1.561608
C109	C	1.652864	-0.261843	1.116450
C110	C	2.152864	0.238157	1.616450
H111	H	1.455746	-0.792518	0.669430
H112	H	1.955746	-0.292518	1.169430
O113	O	1.652890	-0.261806	1.234797
O114	O	2.152890	0.238194	1.734797
H115	H	1.573668	-0.246819	1.263721
H116	H	2.073668	0.253181	1.763721
H117	H	1.774796	-0.175977	0.907224
H118	H	2.274796	0.324023	1.407224
H119	H	1.652803	-0.261915	0.807659
H120	H	2.152803	0.238085	1.307659
H121	H	1.774846	-0.175924	1.106290
H122	H	2.274846	0.324076	1.606290
H123	H	1.545393	-0.792939	0.333144
H124	H	2.045393	-0.292939	0.833144
O125	O	1.378632	-0.454988	1.120656
O126	O	1.878632	0.045012	1.620656
H127	H	1.389957	-0.447018	1.206173
H128	H	1.889957	0.052982	1.706173
O129	O	1.246847	-0.451537	0.640264
O130	O	1.746847	0.048463	1.140264
H131	H	1.275826	-0.395694	0.661622
H132	H	1.775826	0.104306	1.161622
O133	O	1.381783	-0.784985	0.363044
O134	O	1.881783	-0.284985	0.863044
H135	H	1.361459	-0.807395	0.284633
H136	H	1.861459	-0.307395	0.784633
H137	H	1.455945	-0.919748	0.669951
H138	H	1.955945	-0.419748	1.169951
H139	H	1.396333	-0.442506	0.907104
H140	H	1.896333	0.057494	1.407104
O141	O	0.904792	-0.550143	0.779754
O142	O	1.404792	-0.050143	1.279754
H143	H	0.854848	-0.517072	0.833330
H144	H	1.354848	-0.017072	1.333330
O145	O	1.132819	-0.550093	0.779722
O146	O	1.632819	-0.050093	1.279722
H147	H	1.076239	-0.583062	0.826379
H148	H	1.576239	-0.083062	1.326379
H149	H	0.819709	-0.451572	0.640353
H150	H	1.319709	0.048428	1.140353
O151	O	1.562464	-0.926408	0.312850
O152	O	2.062464	-0.426408	0.812850
H153	H	1.598805	-0.878513	0.272500
H154	H	2.098805	-0.378513	0.772500
O155	O	1.658802	-0.786234	0.644919
O156	O	2.158802	-0.286234	1.144919
H157	H	1.737053	-0.808438	0.666121
H158	H	2.237053	-0.308438	1.166121
H159	H	1.355493	-0.920794	0.569034
H160	H	1.855493	-0.420794	1.069034
H161	H	1.689837	-0.919123	0.475273
H162	H	2.189837	-0.419123	0.975273
O163	O	1.132776	-0.258151	0.366713
O164	O	1.632776	0.241849	0.866713
H165	H	1.182798	-0.220499	0.413823
H166	H	1.682798	0.279501	0.913823
O167	O	0.904694	-0.258190	0.366750
O168	O	1.404694	0.241810	0.866750
H169	H	0.925766	-0.200074	0.384905
H170	H	1.425766	0.299926	0.884905
O171	O	1.327875	-0.786526	0.562419
O172	O	1.827875	-0.286526	1.062419
H173	H	1.275179	-0.834612	0.550499
H174	H	1.775179	-0.334612	1.050499
O175	O	1.380125	-0.925511	0.364114
O176	O	1.880125	-0.425511	0.864114
H177	H	1.328944	-0.877184	0.348532
H178	H	1.828944	-0.377184	0.848532
H179	H	1.656833	-0.920411	0.613917
H180	H	2.156833	-0.420411	1.113917
H181	H	1.692377	-0.791809	0.482021
H182	H	2.192377	-0.291809	0.982021
