data_functionalizedCrystal
_audit_creation_method	'MofGen! by Chris Wilmer'
_symmetry_space_group_name_H-M	'P1'
_symmetry_Int_Tables_number	1
_symmetry_cell_setting	triclinic
loop_
_symmetry_equiv_pos_as_xyz
  x,y,z
_cell_length_a	19.805407
_cell_length_b	25.639240
_cell_length_c	25.639234
_cell_angle_alpha	89.971713
_cell_angle_beta	89.989828
_cell_angle_gamma	90.030074
loop_
_atom_site_label
_atom_site_type_symbol
_atom_site_fract_x
_atom_site_fract_y
_atom_site_fract_z
Zn1	Zn	1.034655	-0.208240	-0.295582
Zn2	Zn	1.034572	-0.295662	-0.208136
Zn3	Zn	0.921485	-0.208238	-0.208161
Zn4	Zn	0.921420	-0.295642	-0.295540
O5	O	0.978033	-0.251945	-0.251855
O6	O	1.129360	-0.219845	-0.283989
O7	O	1.019563	-0.284073	-0.134974
O8	O	0.936558	-0.135073	-0.219786
O9	O	1.129300	-0.284074	-0.219743
O10	O	1.019704	-0.135074	-0.284014
O11	O	0.936478	-0.219843	-0.134992
O12	O	0.826759	-0.219824	-0.219745
O13	O	0.936449	-0.284040	-0.368711
O14	O	0.826712	-0.284039	-0.283942
O15	O	1.019642	-0.219826	-0.368742
O16	O	1.019501	-0.368825	-0.219702
O17	O	0.936369	-0.368810	-0.283918
C18	C	0.802177	-0.251929	-0.251842
C19	C	0.726945	-0.251935	-0.251849
C20	C	0.691633	-0.218550	-0.285353
C21	C	0.620945	-0.218553	-0.285355
C22	C	0.585569	-0.251943	-0.251855
C23	C	0.620886	-0.285329	-0.218348
C24	C	0.691573	-0.285324	-0.218343
C25	C	0.335813	-0.285353	-0.218364
C26	C	0.265121	-0.285357	-0.218372
C27	C	0.265184	-0.218582	-0.285376
C28	C	0.335871	-0.218576	-0.285371
C29	C	0.371182	-0.251960	-0.251862
C30	C	0.447830	-0.251956	-0.251859
C31	C	0.508922	-0.251950	-0.251860
C32	C	0.977937	-0.387788	-0.251814
C33	C	0.977958	-0.445902	-0.251814
C34	C	1.021348	-0.806227	-0.285359
C35	C	1.021368	-0.860831	-0.285369
O36	O	1.058146	-0.889036	-0.313848
N37	N	0.978127	-0.888185	-0.251905
C38	C	0.934858	-0.860930	-0.218432
O39	O	0.898079	-0.889210	-0.189970
C40	C	0.934835	-0.806327	-0.218425
C41	C	0.978084	-0.778977	-0.251887
C42	C	1.064594	-0.778877	-0.318819
C43	C	1.064574	-0.724276	-0.318807
C44	C	1.021310	-0.697026	-0.285336
C45	C	0.978065	-0.724376	-0.251876
C46	C	0.891563	-0.779074	-0.184955
C47	C	0.891543	-0.724467	-0.184950
C48	C	0.934792	-0.697117	-0.218413
C49	C	0.934781	-0.642526	-0.218393
N50	N	0.978023	-0.615173	-0.251857
C51	C	1.021287	-0.642423	-0.285328
C52	C	0.934908	-0.975601	-0.218452
C53	C	0.934934	-1.030203	-0.218456
C54	C	1.021444	-1.030101	-0.285394
C55	C	1.021421	-0.975497	-0.285386
C56	C	0.978150	-0.948248	-0.251915
C57	C	1.021244	-0.527758	-0.285301
C58	C	1.021223	-0.473152	-0.285285
C59	C	0.934711	-0.473260	-0.218350
C60	C	0.934734	-0.527860	-0.218364
C61	C	0.978003	-0.555108	-0.251844
O62	O	0.898020	-0.614286	-0.189930
O63	O	1.058054	-0.614136	-0.313791
C64	C	1.154576	-0.251962	-0.251868
C65	C	1.229808	-0.251969	-0.251873
C66	C	0.978047	-0.251931	-0.388228
C67	C	0.978054	-0.251924	-0.446342
C68	C	0.978147	-0.115572	-0.251907
C69	C	0.978196	-0.057458	-0.251930
C70	C	0.934780	-0.285295	-0.697514
C71	C	0.934768	-0.285307	-0.642909
O72	O	0.897911	-0.313732	-0.614654
N73	N	0.978079	-0.251882	-0.615616
C74	C	1.021400	-0.218440	-0.642930
O75	O	1.058238	-0.190011	-0.614700
C76	C	1.021408	-0.218426	-0.697533
C77	C	0.978099	-0.251856	-0.724824
C78	C	0.891474	-0.318722	-0.724804
C79	C	0.891487	-0.318711	-0.779405
C80	C	0.934806	-0.285272	-0.806715
C81	C	0.978112	-0.251845	-0.779424
C82	C	1.064725	-0.184982	-0.724846
C83	C	1.064729	-0.184970	-0.779453
C84	C	1.021420	-0.218401	-0.806743
C85	C	1.021444	-0.218395	-0.861335
N86	N	0.978133	-0.251820	-0.888628
C87	C	0.934814	-0.285258	-0.861318
C88	C	1.021379	-0.218471	-0.528259
C89	C	1.021375	-0.218488	-0.473657
C90	C	0.934742	-0.285354	-0.473640
C91	C	0.934750	-0.285340	-0.528243
C92	C	0.978068	-0.251896	-0.555552
C93	C	0.934845	-0.285233	-0.975983
C94	C	0.934864	-0.285220	-1.030589
C95	C	1.021494	-0.218352	-1.030600
C96	C	1.021478	-0.218367	-0.976000
C97	C	0.978148	-0.251809	-0.948693
O98	O	1.058280	-0.189984	-0.889625
O99	O	0.897976	-0.313678	-0.889554
C100	C	0.978058	-0.251922	-0.116012
C101	C	0.978183	-0.251782	-0.057899
H102	H	0.236426	-0.191397	-0.312659
H103	H	0.899596	-0.312445	-1.052806
O104	O	0.226967	-0.321371	-0.182233
H105	H	0.171882	-0.315769	-0.187871
O106	O	1.111228	-0.694789	-0.354902
H107	H	1.080910	-0.669910	-0.381481
H108	H	0.364554	-0.312537	-0.191079
O109	O	0.374023	-0.182556	-0.321499
H110	H	0.360463	-0.191576	-0.362518
H111	H	1.056638	-0.953232	-0.312635
O112	O	0.729784	-0.182530	-0.321482
H113	H	0.716221	-0.191552	-0.362501
H114	H	0.592078	-0.312514	-0.191069
O115	O	0.888104	-0.321294	-0.946534
H116	H	0.857997	-0.344534	-0.974691
O117	O	1.067916	-0.557137	-0.321411
H118	H	1.037611	-0.582011	-0.348004
H119	H	1.099825	-0.801058	-0.346078
H120	H	0.720323	-0.312509	-0.191061
O121	O	1.068095	-0.182434	-0.444227
H122	H	1.102512	-0.205844	-0.419348
O123	O	0.582860	-0.182542	-0.321492
H124	H	0.550644	-0.205983	-0.348046
O125	O	1.067872	-0.443652	-0.321378
H126	H	1.102324	-0.418775	-0.297992
H127	H	1.056671	-1.052298	-0.312649
H128	H	0.899723	-1.052467	-0.191202
H129	H	0.899673	-0.953417	-0.191191
O130	O	0.844871	-0.695080	-0.148846
H131	H	0.852115	-0.652515	-0.154460
H132	H	0.856345	-0.801333	-0.157706
O133	O	0.888090	-0.557365	-0.182272
H134	H	0.858001	-0.529240	-0.158997
H135	H	0.899487	-0.451064	-0.191096
H136	H	0.856219	-0.345932	-0.801620
O137	O	1.068111	-0.182397	-0.557705
H138	H	1.037845	-0.155779	-0.582581
H139	H	0.856195	-0.345952	-0.702574
H140	H	0.899484	-0.312561	-0.550460
O141	O	0.888010	-0.321416	-0.444180
H142	H	0.895278	-0.315802	-0.401627
H143	H	1.099992	-0.157759	-0.702635
O144	O	1.111455	-0.148901	-0.808909
H145	H	1.141570	-0.125663	-0.780755
O146	O	1.068189	-0.182312	-0.946560
H147	H	1.098311	-0.159057	-0.974726
O148	O	1.068195	-0.182271	-1.060060
H149	H	1.060911	-0.187873	-1.102614
