data_functionalizedCrystal
_audit_creation_method	'MofGen! by Chris Wilmer'
_symmetry_space_group_name_H-M	'P1'
_symmetry_Int_Tables_number	1
_symmetry_cell_setting	triclinic
loop_
_symmetry_equiv_pos_as_xyz
  x,y,z
_cell_length_a	8.965430
_cell_length_b	11.026607
_cell_length_c	10.489741
_cell_angle_alpha	83.437405
_cell_angle_beta	89.992413
_cell_angle_gamma	90.001780
loop_
_atom_site_label
_atom_site_type_symbol
_atom_site_fract_x
_atom_site_fract_y
_atom_site_fract_z
O1	O	-0.124046	-1.614837	0.535192
O2	O	-0.124048	-1.260999	0.474250
O3	O	-0.124038	-1.445969	0.320894
O4	O	-0.124056	-1.429867	0.688548
O5	O	0.124041	-1.445959	0.320874
O6	O	0.124031	-1.260988	0.474230
O7	O	0.124032	-1.614827	0.535171
Cu8	Cu	0.146683	-1.437907	0.504699
Cu9	Cu	-0.146699	-1.437919	0.504723
O10	O	0.124023	-1.429856	0.688527
C11	C	-0.000008	-1.215684	0.462997
C12	C	-0.000009	-1.080677	0.429483
N13	N	0.353033	-1.437907	0.504683
N14	N	-0.353048	-1.437928	0.504731
C15	C	0.549707	-1.522780	0.432906
C16	C	0.450224	-1.548358	0.553680
C17	C	0.450308	-1.412382	0.383930
C18	C	0.549659	-1.463563	0.625576
C19	C	0.549750	-1.327538	0.455739
C20	C	0.450312	-1.353071	0.576587
C21	C	0.000000	-1.444748	0.273085
C22	C	-0.000002	-1.441109	0.130655
C23	C	-0.000010	-1.660141	0.546424
C24	C	-0.000020	-1.795148	0.579939
C25	C	-0.000014	-1.007681	0.522022
C26	C	-0.000014	-0.868144	0.487386
C27	C	-0.000014	-1.323418	0.036626
C28	C	0.122302	-1.379009	-0.043277
C29	C	-0.122284	-1.379047	-0.043225
C30	C	0.122415	-1.496749	0.052628
C31	C	-0.122282	-1.496771	0.052686
C32	C	0.000064	-1.552448	-0.027171
C33	C	-0.000019	-1.431078	0.736337
C34	C	-0.000026	-1.434716	0.878767
H35	H	0.593347	-1.594594	0.372283
H36	H	0.225711	-1.329207	-0.085251
F37	F	-0.257452	-1.561812	0.107583
F38	F	0.393621	-1.259266	0.656057
H39	H	0.000133	-1.649300	-0.055290
F40	F	0.606936	-1.205564	0.401559
F41	F	0.000008	-1.027346	0.292408
F42	F	-0.257439	-1.313937	-0.098037
F43	F	0.393272	-1.384144	0.250424
F44	F	0.000139	-1.196939	0.073701
F45	F	0.000002	-0.814817	0.350304
F46	F	0.393051	-1.670362	0.607806
F47	F	0.257727	-1.561781	0.107217
H48	H	-0.000011	-1.048488	0.626892
H49	H	0.593118	-1.485262	0.727763
H50	H	-0.000015	-0.835949	0.684815
