data_functionalizedCrystal
_audit_creation_method	'MofGen! by Chris Wilmer'
_symmetry_space_group_name_H-M	'P1'
_symmetry_Int_Tables_number	1
_symmetry_cell_setting	triclinic
loop_
_symmetry_equiv_pos_as_xyz
  x,y,z
_cell_length_a	17.077404
_cell_length_b	16.625546
_cell_length_c	17.077396
_cell_angle_alpha	89.969785
_cell_angle_beta	89.981638
_cell_angle_gamma	90.020438
loop_
_atom_site_label
_atom_site_type_symbol
_atom_site_fract_x
_atom_site_fract_y
_atom_site_fract_z
Zn1	Zn	1.200057	-0.321045	-0.443809
Zn2	Zn	1.199965	-0.455888	-0.312539
Zn3	Zn	1.068789	-0.321068	-0.312560
Zn4	Zn	1.068758	-0.455835	-0.443766
O5	O	1.134392	-0.388459	-0.378169
O6	O	1.309892	-0.338945	-0.426406
O7	O	1.182539	-0.438036	-0.202695
O8	O	1.086253	-0.208233	-0.329997
O9	O	1.309824	-0.438013	-0.329962
O10	O	1.182695	-0.208216	-0.426426
O11	O	1.086164	-0.338984	-0.202710
O12	O	0.958938	-0.338933	-0.329955
O13	O	1.086200	-0.437923	-0.553618
O14	O	0.958915	-0.437945	-0.426351
O15	O	1.182665	-0.338894	-0.553651
O16	O	1.182509	-0.568713	-0.329920
O17	O	1.086111	-0.568674	-0.426331
C18	C	0.930444	-0.388436	-0.378151
C19	C	0.843194	-0.388446	-0.378162
C20	C	0.802240	-0.336953	-0.428457
C21	C	0.720260	-0.336958	-0.428460
C22	C	0.679235	-0.388461	-0.378173
C23	C	0.720195	-0.439956	-0.327872
C24	C	0.802174	-0.439947	-0.327865
C25	C	0.549325	-0.439975	-0.327892
C26	C	0.467340	-0.439986	-0.327900
C27	C	0.467411	-0.336986	-0.428487
C28	C	0.549390	-0.336976	-0.428480
C29	C	0.590344	-0.388473	-0.378180
C30	C	1.134318	-0.597950	-0.378136
C31	C	1.134358	-0.687571	-0.378148
C32	C	1.134495	-1.015747	-0.378230
C33	C	1.134454	-0.924438	-0.378209
C34	C	1.134426	-0.851662	-0.378188
C35	C	1.134386	-0.760348	-0.378169
C36	C	1.339136	-0.388483	-0.378187
C37	C	1.426386	-0.388493	-0.378194
C38	C	1.134440	-0.388400	-0.582913
C39	C	1.134460	-0.388374	-0.670163
C40	C	1.134488	-0.178150	-0.378219
C41	C	1.134529	-0.088529	-0.378240
C42	C	1.184691	-0.336806	-0.711171
C43	C	1.184700	-0.336779	-0.793151
C44	C	1.134482	-0.388325	-0.834122
C45	C	1.084245	-0.439896	-0.793108
C46	C	1.084233	-0.439919	-0.711129
C47	C	1.084277	-0.439848	-0.963979
C48	C	1.084291	-0.439827	-1.045963
C49	C	1.184745	-0.336708	-1.046001
C50	C	1.184732	-0.336730	-0.964022
C51	C	1.134496	-0.388303	-0.923013
C52	C	1.134390	-0.388460	-0.174221
C53	C	1.134522	-0.388258	-0.086971
H54	H	0.434062	-0.295054	-0.469441
O55	O	0.676084	-0.281419	-0.482706
H56	H	0.718384	-0.245611	-0.517679
H57	H	1.043354	-0.481864	-0.826473
H58	H	1.043397	-0.481799	-1.079319
H59	H	1.225647	-0.294715	-1.079393
H60	H	1.043321	-0.481903	-0.677742
H61	H	0.582667	-0.481907	-0.286931
H62	H	0.835637	-0.295015	-0.469409
O63	O	0.593643	-0.281423	-0.482711
H64	H	0.551394	-0.245607	-0.517681
O65	O	0.423087	-0.495522	-0.273652
H66	H	0.438811	-0.558824	-0.286985
H67	H	0.686786	-0.481887	-0.286923
H68	H	0.835518	-0.481877	-0.286910
H69	H	1.225587	-0.294833	-0.677818
H70	H	1.225605	-0.294788	-0.826537
O71	O	1.030090	-0.495466	-0.919743
H72	H	0.995176	-0.531310	-0.962004
O73	O	1.238898	-0.281140	-0.919826
H74	H	1.273828	-0.245270	-0.962113
