data_functionalizedCrystal
_audit_creation_method	'MofGen! by Chris Wilmer'
_symmetry_space_group_name_H-M	'P1'
_symmetry_Int_Tables_number	1
_symmetry_cell_setting	triclinic
loop_
_symmetry_equiv_pos_as_xyz
  x,y,z
_cell_length_a	15.944493
_cell_length_b	15.944551
_cell_length_c	14.421503
_cell_angle_alpha	89.996660
_cell_angle_beta	89.992936
_cell_angle_gamma	96.513109
loop_
_atom_site_label
_atom_site_type_symbol
_atom_site_fract_x
_atom_site_fract_y
_atom_site_fract_z
O1	O	1.114560	-0.108089	-0.077101
O2	O	1.364560	0.141911	0.172899
O3	O	1.614560	0.391911	0.422899
O4	O	1.864560	0.641911	0.672899
O5	O	0.870003	-0.121496	-0.077106
O6	O	1.120003	0.128504	0.172894
O7	O	1.370003	0.378504	0.422894
O8	O	1.620003	0.628504	0.672894
O9	O	0.998960	0.007484	-0.077095
O10	O	1.248960	0.257484	0.172905
O11	O	1.498960	0.507484	0.422905
O12	O	1.748960	0.757484	0.672905
O13	O	0.985603	-0.237068	-0.077112
O14	O	1.235603	0.012932	0.172888
O15	O	1.485603	0.262932	0.422888
O16	O	1.735603	0.512932	0.672888
O17	O	0.998938	0.007465	0.077128
O18	O	1.248938	0.257465	0.327128
O19	O	1.498938	0.507465	0.577128
O20	O	1.748938	0.757465	0.827128
O21	O	0.869982	-0.121515	0.077117
O22	O	1.119982	0.128485	0.327117
O23	O	1.369982	0.378485	0.577117
O24	O	1.619982	0.628485	0.827117
O25	O	1.114538	-0.108108	0.077122
O26	O	1.364538	0.141892	0.327122
O27	O	1.614538	0.391892	0.577122
O28	O	1.864538	0.641892	0.827122
Cu29	Cu	0.992258	-0.114813	0.091201
Cu30	Cu	1.242258	0.135187	0.341201
Cu31	Cu	1.492258	0.385187	0.591201
Cu32	Cu	1.742258	0.635187	0.841201
Cu33	Cu	0.992283	-0.114790	-0.091186
Cu34	Cu	1.242283	0.135210	0.158814
Cu35	Cu	1.492283	0.385210	0.408814
Cu36	Cu	1.742283	0.635210	0.658814
O37	O	0.985582	-0.237087	0.077111
O38	O	1.235582	0.012913	0.327111
O39	O	1.485582	0.262913	0.577111
O40	O	1.735582	0.512913	0.827111
C41	C	0.838698	-0.120957	0.000005
C42	C	1.088698	0.129043	0.250005
C43	C	1.338698	0.379043	0.500005
C44	C	1.588698	0.629043	0.750005
C45	C	0.745449	-0.119314	0.000003
C46	C	0.995449	0.130686	0.250003
C47	C	1.245449	0.380686	0.500003
C48	C	1.495449	0.630686	0.750003
C49	C	0.509689	-0.195235	-0.000002
C50	C	0.759689	0.054765	0.249998
C51	C	1.009689	0.304765	0.499998
C52	C	1.259689	0.554765	0.749998
C53	C	0.459120	-0.154303	0.076045
C54	C	0.709120	0.095697	0.326045
C55	C	0.959120	0.345697	0.576045
C56	C	1.209120	0.595697	0.826045
C57	C	0.574728	-0.116270	0.000005
C58	C	0.824728	0.133730	0.250005
C59	C	1.074728	0.383730	0.500005
C60	C	1.324728	0.633730	0.750005
C61	C	0.459146	-0.154266	-0.076008
C62	C	0.709146	0.095734	0.173992
C63	C	0.959146	0.345734	0.423992
C64	C	1.209146	0.595734	0.673992
C65	C	0.409819	-0.113336	0.000003
C66	C	0.659819	0.136664	0.250003
C67	C	0.909819	0.386664	0.500003
C68	C	1.159819	0.636664	0.750003
C69	C	0.525388	-0.075360	0.076115
C70	C	0.775388	0.174640	0.326115
C71	C	1.025388	0.424640	0.576115
C72	C	1.275388	0.674640	0.826115
C73	C	0.525417	-0.075334	-0.076005
C74	C	0.775417	0.174666	0.173995
C75	C	1.025417	0.424666	0.423995
C76	C	1.275417	0.674666	0.673995
C77	C	0.474880	-0.034345	0.000060
C78	C	0.724880	0.215655	0.250060
C79	C	0.974880	0.465655	0.500060
C80	C	1.224880	0.715655	0.750060
C81	C	0.669728	-0.117963	0.000007
C82	C	0.919728	0.132037	0.250007
C83	C	1.169728	0.382037	0.500007
C84	C	1.419728	0.632037	0.750007
C85	C	0.314821	-0.111637	0.000008
C86	C	0.564821	0.138363	0.250008
C87	C	0.814821	0.388363	0.500008
C88	C	1.064821	0.638363	0.750008
C89	C	0.998395	0.038768	0.000017
C90	C	1.248395	0.288768	0.250017
C91	C	1.498395	0.538768	0.500017
C92	C	1.748395	0.788768	0.750017
C93	C	0.996732	0.132014	0.000017
C94	C	1.246732	0.382014	0.250017
C95	C	1.496732	0.632014	0.500017
C96	C	1.746732	0.882014	0.750017
C97	C	1.145844	-0.108646	0.000009
C98	C	1.395844	0.141354	0.250009
C99	C	1.645844	0.391354	0.500009
C100	C	1.895844	0.641354	0.750009
C101	C	1.239092	-0.110289	0.000004
C102	C	1.489092	0.139711	0.250004
C103	C	1.739092	0.389711	0.500004
C104	C	1.989092	0.639711	0.750004
N105	N	0.992246	-0.114828	0.219483
N106	N	1.242246	0.135172	0.469483
N107	N	1.492246	0.385172	0.719483
N108	N	1.742246	0.635172	0.969483
C109	C	0.986147	-0.268372	-0.000003
C110	C	1.236147	-0.018372	0.249997
C111	C	1.486147	0.231628	0.499997
C112	C	1.736147	0.481628	0.749997
C113	C	0.987809	-0.361617	-0.000009
C114	C	1.237809	-0.111617	0.249991
C115	C	1.487809	0.138383	0.499991
C116	C	1.737809	0.388383	0.749991
C117	C	0.912826	0.346853	0.000003
C118	C	1.162826	0.596853	0.250003
C119	C	1.412826	0.846853	0.500003
C120	C	1.662826	1.096853	0.750003
C121	C	0.951779	0.407869	0.076045
C122	C	1.201779	0.657869	0.326045
C123	C	1.451779	0.907869	0.576045
C124	C	1.701779	1.157869	0.826045
C125	C	0.993725	0.302739	0.000010
C126	C	1.243725	0.552739	0.250010
C127	C	1.493725	0.802739	0.500010
C128	C	1.743725	1.052739	0.750010
C129	C	0.951819	0.407872	-0.076007
C130	C	1.201819	0.657872	0.173993
C131	C	1.451819	0.907872	0.423993
C132	C	1.701819	1.157872	0.673993
C133	C	0.990814	0.467651	-0.000001
C134	C	1.240814	0.717651	0.249999
C135	C	1.490814	0.967651	0.499999
C136	C	1.740814	1.217651	0.749999
C137	C	1.032700	0.362527	0.076115
C138	C	1.282700	0.612527	0.326115
C139	C	1.532700	0.862527	0.576115
C140	C	1.782700	1.112527	0.826115
C141	C	1.032729	0.362523	-0.076006
C142	C	1.282729	0.612523	0.173994
C143	C	1.532729	0.862523	0.423994
C144	C	1.782729	1.112523	0.673994
C145	C	1.071741	0.423521	0.000055
C146	C	1.321741	0.673521	0.250055
C147	C	1.571741	0.923521	0.500055
C148	C	1.821741	1.173521	0.750055
C149	C	0.995399	0.207737	0.000017
C150	C	1.245399	0.457737	0.250017
C151	C	1.495399	0.707737	0.500017
C152	C	1.745399	0.957737	0.750017
C153	C	0.989146	0.562652	-0.000002
C154	C	1.239146	0.812652	0.249998
C155	C	1.489146	1.062652	0.499998
C156	C	1.739146	1.312652	0.749998
N157	N	0.992302	-0.114768	-0.219467
N158	N	1.242302	0.135232	0.030533
N159	N	1.492302	0.385232	0.280533
N160	N	1.742302	0.635232	0.530533
C161	C	0.932607	-0.174442	0.469131
C162	C	1.182607	0.075558	0.719131
C163	C	1.432607	0.325558	0.969131
C164	C	1.682607	0.575558	1.219131
C165	C	1.008509	-0.190733	0.530934
C166	C	1.258509	0.059267	0.780934
C167	C	1.508509	0.309267	1.030934
C168	C	1.758509	0.559267	1.280934
C169	C	0.992267	-0.114808	0.408644
C170	C	1.242267	0.135192	0.658644
C171	C	1.492267	0.385192	0.908644
C172	C	1.742267	0.635192	1.158644
C173	C	0.916384	-0.098537	0.530935
C174	C	1.166384	0.151463	0.780935
C175	C	1.416384	0.401463	1.030935
C176	C	1.666384	0.651463	1.280935
C177	C	0.992280	-0.114791	0.591366
C178	C	1.242280	0.135209	0.841366
C179	C	1.492280	0.385209	1.091366
C180	C	1.742280	0.635209	1.341366
C181	C	1.068207	-0.131138	0.469086
C182	C	1.318207	0.118862	0.719086
C183	C	1.568207	0.368862	0.969086
C184	C	1.818207	0.618862	1.219086
C185	C	0.976033	-0.038908	0.469082
C186	C	1.226033	0.211092	0.719082
C187	C	1.476033	0.461092	0.969082
C188	C	1.726033	0.711092	1.219082
C189	C	1.051990	-0.055167	0.530857
C190	C	1.301990	0.194833	0.780857
C191	C	1.551990	0.444833	1.030857
C192	C	1.801990	0.694833	1.280857
C193	C	0.992258	-0.114821	0.303383
C194	C	1.242258	0.135179	0.553383
C195	C	1.492258	0.385179	0.803383
C196	C	1.742258	0.635179	1.053383
C197	C	0.992297	-0.114778	0.696625
C198	C	1.242297	0.135222	0.946625
C199	C	1.492297	0.385222	1.196625
C200	C	1.742297	0.635222	1.446625
H201	H	0.554206	-0.042040	0.140471
H202	H	0.804206	0.207960	0.390471
H203	H	1.054206	0.457960	0.640471
H204	H	1.304206	0.707960	0.890471
F205	F	1.159587	0.466883	0.000110
F206	F	1.409587	0.716883	0.250110
F207	F	1.659587	0.966883	0.500110
F208	F	1.909587	1.216883	0.750110
F209	F	1.077428	0.336229	-0.160037
F210	F	1.327428	0.586229	0.089963
F211	F	1.577428	0.836229	0.339963
F212	F	1.827428	1.086229	0.589963
F213	F	0.454659	0.054626	0.000124
F214	F	0.704659	0.304626	0.250124
F215	F	0.954659	0.554626	0.500124
F216	F	1.204659	0.804626	0.750124
H217	H	1.066879	0.342536	0.140473
H218	H	1.316879	0.592536	0.390473
H219	H	1.566879	0.842536	0.640473
H220	H	1.816879	1.092536	0.890473
H221	H	0.525313	-0.263254	0.000064
H222	H	0.775313	-0.013254	0.250064
H223	H	1.025313	0.236746	0.500064
H224	H	1.275313	0.486746	0.750064
H225	H	0.430174	-0.187659	0.140331
H226	H	0.680174	0.062341	0.390331
H227	H	0.930174	0.312341	0.640331
H228	H	1.180174	0.562341	0.890331
H229	H	0.554372	-0.042003	-0.140295
H230	H	0.804372	0.207997	0.109705
H231	H	1.054372	0.457997	0.359705
H232	H	1.304372	0.707997	0.609705
H233	H	0.430217	-0.187622	-0.140290
H234	H	0.680217	0.062378	0.109710
H235	H	0.930217	0.312378	0.359710
H236	H	1.180217	0.562378	0.609710
H237	H	0.917552	0.427962	0.140331
H238	H	1.167552	0.677962	0.390331
H239	H	1.417552	0.927962	0.640331
H240	H	1.667552	1.177962	0.890331
H241	H	0.852207	-0.084782	0.558105
H242	H	1.102207	0.165218	0.808105
H243	H	1.352207	0.415218	1.058105
H244	H	1.602207	0.665218	1.308105
F245	F	0.907087	0.434133	-0.160030
F246	F	1.157087	0.684133	0.089970
F247	F	1.407087	0.934133	0.339970
F248	F	1.657087	1.184133	0.589970
H249	H	0.845675	0.313532	0.000077
H250	H	1.095675	0.563532	0.250077
H251	H	1.345675	0.813532	0.500077
H252	H	1.595675	1.063532	0.750077
F253	F	0.958040	0.044954	0.433540
F254	F	1.208040	0.294954	0.683540
F255	F	1.458040	0.544954	0.933540
F256	F	1.708040	0.794954	1.183540
H257	H	0.882205	-0.224912	0.442029
H258	H	1.132205	0.025088	0.692029
H259	H	1.382205	0.275088	0.942029
H260	H	1.632205	0.525088	1.192029
H261	H	1.022251	-0.254913	0.558102
H262	H	1.272251	-0.004913	0.808102
H263	H	1.522251	0.245087	1.058102
H264	H	1.772251	0.495087	1.308102
H265	H	1.102504	-0.004726	0.557789
H266	H	1.352504	0.245274	0.807789
H267	H	1.602504	0.495274	1.057789
H268	H	1.852504	0.745274	1.307789
H269	H	1.132399	-0.144970	0.442033
H270	H	1.382399	0.105030	0.692033
H271	H	1.632399	0.355030	0.942033
H272	H	1.882399	0.605030	1.192033
