data_functionalizedCrystal
_audit_creation_method	'MofGen! by Chris Wilmer'
_symmetry_space_group_name_H-M	'P1'
_symmetry_Int_Tables_number	1
_symmetry_cell_setting	triclinic
loop_
_symmetry_equiv_pos_as_xyz
  x,y,z
_cell_length_a	11.892083
_cell_length_b	14.044202
_cell_length_c	12.837938
_cell_angle_alpha	94.010670
_cell_angle_beta	85.697431
_cell_angle_gamma	94.255389
loop_
_atom_site_label
_atom_site_type_symbol
_atom_site_fract_x
_atom_site_fract_y
_atom_site_fract_z
O1	O	-0.093932	-1.285983	-0.245959
O2	O	-0.093947	-1.009192	-0.236854
O3	O	-0.093940	-1.141450	-0.089936
O4	O	-0.093939	-1.153725	-0.392877
O5	O	0.094067	-1.130412	-0.102157
O6	O	0.094060	-0.998153	-0.249075
O7	O	0.094075	-1.274944	-0.258180
Zn8	Zn	0.123918	-1.134796	-0.255568
Zn9	Zn	-0.123790	-1.149340	-0.239467
O10	O	0.094069	-1.142686	-0.405098
C11	C	0.000054	-0.967999	-0.238982
C12	C	0.000048	-0.861700	-0.227104
N13	N	0.292972	-1.124877	-0.266556
C14	C	0.000060	-1.131784	-0.057042
C15	C	0.000052	-1.119418	0.059180
N16	N	-0.292844	-1.159266	-0.228470
C17	C	0.470506	-1.055922	-0.343133
C18	C	0.352165	-1.062837	-0.335435
C19	C	0.352129	-1.180004	-0.205369
C20	C	0.470471	-1.173090	-0.213068
C21	C	0.529655	-1.111048	-0.281954
C22	C	0.647999	-1.104139	-0.289657
C23	C	0.647961	-1.221300	-0.159587
C24	C	0.529620	-1.228215	-0.151888
C25	C	0.000059	-0.617060	-0.289624
C26	C	0.000057	-0.667083	-0.205405
C27	C	0.000052	-0.775378	-0.217481
C28	C	0.000064	-0.508755	-0.277550
C29	C	0.000071	-0.316138	-0.256050
C30	C	0.000068	-0.422437	-0.267921
C31	C	0.000025	-1.268100	0.286386
C32	C	0.000017	-1.256484	0.395587
C33	C	0.000020	-1.084574	0.386785
C34	C	0.000028	-1.096189	0.277584
C35	C	0.000032	-1.187955	0.227389
C36	C	0.000048	-1.199568	0.118185
C37	C	0.000043	-1.027659	0.109385
C38	C	0.000035	-1.016044	0.218586
C39	C	0.000053	-1.152353	0.562009
C40	C	0.000016	-1.164724	0.445790
H41	H	0.696186	-1.053624	-0.345750
H42	H	-0.000023	-0.628581	-0.124228
H43	H	0.696134	-1.266190	-0.109773
F44	F	0.000050	-0.667389	-0.395714
F45	F	-0.000012	-0.986919	0.440226
F46	F	0.289218	-1.004163	-0.400549
F47	F	0.000060	-1.297232	0.064764
H48	H	0.303926	-1.230510	-0.149277
H49	H	0.000040	-1.342818	0.245516
H50	H	0.000008	-1.321747	0.443620
H51	H	0.000027	-0.941331	0.259471
F52	F	0.533495	-0.989903	-0.416456
H53	H	0.000058	-0.962398	0.061337
H54	H	0.481418	-1.278726	-0.095800
