data_functionalizedCrystal
_audit_creation_method	'MofGen! by Chris Wilmer'
_symmetry_space_group_name_H-M	'P1'
_symmetry_Int_Tables_number	1
_symmetry_cell_setting	triclinic
loop_
_symmetry_equiv_pos_as_xyz
  x,y,z
_cell_length_a	12.837932
_cell_length_b	12.837942
_cell_length_c	11.295483
_cell_angle_alpha	85.469583
_cell_angle_beta	85.460332
_cell_angle_gamma	85.170678
loop_
_atom_site_label
_atom_site_type_symbol
_atom_site_fract_x
_atom_site_fract_y
_atom_site_fract_z
O1	O	1.408693	-0.265796	-0.099027
O2	O	1.105559	-0.252351	-0.099029
O3	O	1.250404	-0.107507	-0.099021
O4	O	1.263848	-0.410640	-0.099035
O5	O	1.237680	-0.120208	0.099030
O6	O	1.092835	-0.265051	0.099021
O7	O	1.395969	-0.278497	0.099023
Cu8	Cu	1.243240	-0.272933	0.117106
Cu9	Cu	1.258288	-0.257914	-0.117111
O10	O	1.251124	-0.423340	0.099015
C11	C	1.060128	-0.254159	-0.000004
C12	C	0.943713	-0.240614	-0.000004
C13	C	0.782686	-0.127402	0.000003
C14	C	0.892069	-0.140122	0.000002
C15	C	0.885965	-0.328393	-0.000006
C16	C	0.776583	-0.315673	-0.000005
C17	C	0.724947	-0.215174	-0.000002
C18	C	0.615563	-0.202454	-0.000010
C19	C	0.609461	-0.390725	-0.000010
C20	C	0.718844	-0.403445	-0.000011
C21	C	1.239500	-0.074788	0.000004
C22	C	1.225956	0.041627	0.000002
C23	C	1.441400	-0.276688	-0.000004
C24	C	1.557816	-0.290233	-0.000012
C25	C	1.262027	-0.456059	-0.000012
C26	C	1.275572	-0.572474	-0.000018
N27	N	1.232664	-0.283497	0.281841
C28	C	1.388787	0.266502	-0.000022
C29	C	1.376066	0.375884	-0.000024
C30	C	1.187794	0.369778	-0.000013
C31	C	1.200515	0.260395	-0.000011
C32	C	1.301015	0.208761	-0.000014
C33	C	1.313735	0.099376	-0.000003
C34	C	1.125464	0.093271	-0.000000
C35	C	1.112743	0.202654	-0.000002
N36	N	1.268871	-0.247343	-0.281847
C37	C	1.344999	-0.171239	0.531137
C38	C	1.337015	-0.179230	0.655801
C39	C	1.208705	-0.307466	0.655833
C40	C	1.216690	-0.299474	0.531170
C41	C	1.284840	-0.231360	0.468826
C42	C	1.292830	-0.223374	0.344161
C43	C	1.164515	-0.351604	0.344196
C44	C	1.156531	-0.359595	0.468859
H45	H	0.562438	-0.462195	-0.000015
H46	H	1.153212	-0.362915	0.706610
N47	N	0.941672	-0.436778	-0.000001
H48	H	0.926025	-0.471017	-0.073419
H49	H	0.916559	-0.480340	0.073464
N50	N	1.366335	-0.149917	0.276914
H51	H	1.403231	-0.113041	0.335309
H52	H	1.324998	-0.096343	0.225200
N53	N	1.470739	0.438154	-0.000022
H54	H	1.464943	0.478967	0.073395
H55	H	1.474325	0.488319	-0.073488
N56	N	1.004352	0.258348	-0.000003
H57	H	1.009610	0.336404	-0.000007
H58	H	0.960759	0.233191	0.073422
N59	N	1.418496	-0.097785	0.463867
H60	H	1.492600	-0.118608	0.485532
H61	H	1.397626	-0.023703	0.485584
H62	H	1.386001	-0.130272	0.706531
N63	N	0.726986	-0.019013	-0.000012
H64	H	0.780163	0.034662	-0.000015
H65	H	0.677018	-0.014337	0.073407
N66	N	1.083024	-0.433053	0.536104
H67	H	1.087091	-0.428992	0.624533
H68	H	1.103851	-0.507121	0.514311
H69	H	1.115533	-0.400562	0.293449
H70	H	1.105972	0.411838	-0.000023
N71	N	1.422124	0.043679	0.000001
H72	H	1.475796	0.096860	-0.000008
H73	H	1.436216	0.003131	-0.073416
N74	N	0.559868	-0.094065	0.000014
H75	H	0.481812	-0.099321	0.000014
H76	H	0.585035	-0.050465	-0.073398
N77	N	0.774538	-0.511835	-0.000011
H78	H	0.852594	-0.506577	-0.000009
H79	H	0.758803	-0.546006	-0.073435
H80	H	1.053993	0.046246	0.000016
N81	N	0.954346	-0.045456	0.000017
H82	H	0.905034	0.020136	0.000021
H83	H	1.004581	-0.041921	-0.073401
H84	H	1.470617	0.224460	-0.000013
