data_functionalizedCrystal
_audit_creation_method	'MofGen! by Chris Wilmer'
_symmetry_space_group_name_H-M	'P1'
_symmetry_Int_Tables_number	1
_symmetry_cell_setting	triclinic
loop_
_symmetry_equiv_pos_as_xyz
  x,y,z
_cell_length_a	14.853567
_cell_length_b	17.699077
_cell_length_c	16.176319
_cell_angle_alpha	89.993140
_cell_angle_beta	89.996997
_cell_angle_gamma	83.457753
loop_
_atom_site_label
_atom_site_type_symbol
_atom_site_fract_x
_atom_site_fract_y
_atom_site_fract_z
O1	O	0.113983	1.004377	-0.068729
O2	O	0.128821	0.784037	-0.068732
O3	O	-0.009850	0.900093	-0.068733
O4	O	0.252653	0.888322	-0.068728
O5	O	-0.009859	0.900077	0.068761
O6	O	0.128812	0.784021	0.068761
O7	O	0.113974	1.004361	0.068765
Cu8	Cu	0.121392	0.894190	0.081317
Cu9	Cu	0.121403	0.894209	-0.081284
O10	O	0.252645	0.888306	0.068765
C11	C	0.128286	0.755830	0.000014
C12	C	0.126694	0.671808	0.000013
C13	C	0.125938	0.632330	0.074961
C14	C	0.124428	0.553384	0.074962
C15	C	0.123679	0.513916	0.000014
C16	C	0.124431	0.553400	-0.074941
C17	C	0.125935	0.632345	-0.074941
C18	C	0.118364	0.235021	-0.074942
C19	C	0.116863	0.156069	-0.074937
C20	C	0.116857	0.156059	0.074960
C21	C	0.118361	0.235004	0.074960
C22	C	0.119108	0.274482	0.000007
C23	C	0.120745	0.360085	0.000007
C24	C	0.122049	0.428314	0.000013
C25	C	-0.043441	0.899551	0.000012
C26	C	-0.143519	0.897953	0.000004
C27	C	-0.555772	0.822257	0.000019
C28	C	-0.577564	0.960134	0.000021
C29	C	-0.483536	0.961637	0.000016
C30	C	-0.425621	0.893449	0.000014
C31	C	-0.461735	0.823758	0.000017
C32	C	-0.447415	1.031327	0.000022
C33	C	-0.353382	1.032832	0.000018
C34	C	-0.295465	0.964643	0.000010
C35	C	-0.331584	0.894950	0.000012
C36	C	-0.273669	0.826761	0.000009
C37	C	-0.309786	0.757067	0.000005
C38	C	-0.403818	0.755569	0.000009
C39	C	-0.201433	0.966141	0.000006
C40	C	-0.179632	0.828262	0.000007
C41	C	0.286236	0.888847	0.000019
C42	C	0.386313	0.890445	0.000021
C43	C	0.114509	1.032568	0.000017
C44	C	0.116101	1.116590	0.000013
N45	N	0.121384	0.894182	0.195682
N46	N	0.121403	0.894222	-0.195650
C47	C	0.060006	0.945587	0.238946
C48	C	0.060005	0.945591	0.325493
C49	C	0.121387	0.894193	0.368775
C50	C	0.182769	0.842782	0.325505
C51	C	0.182765	0.842775	0.238960
C52	C	0.182786	0.842808	0.674533
C53	C	0.182787	0.842820	0.761085
C54	C	0.060026	0.945624	0.761067
C55	C	0.060022	0.945617	0.674522
C56	C	0.121400	0.894204	0.631259
C57	C	0.121399	0.894199	0.537415
C58	C	0.121393	0.894200	0.462618
H59	H	0.118970	0.267154	-0.135974
O60	O	-0.503711	1.097538	-0.000119
C61	C	-0.558768	1.100794	-0.071317
H62	H	-0.524238	1.062138	-0.121092
H63	H	-0.569482	1.161753	-0.095213
H64	H	-0.627101	1.081124	-0.055220
H65	H	-0.132483	0.772734	0.000002
H66	H	0.116252	0.123937	-0.135972
H67	H	0.010026	0.987448	0.360718
O68	O	0.242514	0.792917	0.196967
C69	C	0.331743	0.805297	0.218117
H70	H	0.332096	0.865893	0.241894
H71	H	0.376999	0.796632	0.161199
H72	H	0.358289	0.763379	0.268360
H73	H	0.123815	0.521260	-0.135965
H74	H	0.116244	0.123907	0.135991
O75	O	-0.438861	0.687855	-0.000137
C76	C	-0.409244	0.646280	-0.071337
H77	H	-0.389768	0.687033	-0.121110
H78	H	-0.466145	0.614031	-0.095235
H79	H	-0.347870	0.604160	-0.055242
O80	O	0.126826	0.670682	0.147746
C81	C	0.205733	0.707868	0.152229
H82	H	0.259836	0.678146	0.109699
H83	H	0.231940	0.705904	0.218519
H84	H	0.189228	0.769622	0.132094
H85	H	-0.323984	1.089582	0.000020
H86	H	0.232763	0.800947	0.639316
H87	H	-0.585183	0.765513	0.000012
O88	O	0.000269	0.995527	0.803004
C89	C	-0.088958	0.983120	0.781878
H90	H	-0.088800	0.953945	0.719045
H91	H	-0.133444	1.039963	0.778908
H92	H	-0.116780	0.945422	0.830595
O93	O	0.126713	0.670575	-0.147820
C94	C	0.125710	0.618815	-0.213972
H95	H	0.153166	0.559432	-0.191999
H96	H	0.169902	0.636869	-0.266390
H97	H	0.053254	0.618291	-0.237020
H98	H	-0.262620	0.701548	0.000009
O99	O	-0.633946	1.026298	-0.000010
C100	C	-0.724686	1.010029	0.000019
H101	H	-0.728162	0.950580	-0.026011
H102	H	-0.767387	1.053490	-0.039894
H103	H	-0.751882	1.012862	0.065984
O104	O	0.000226	0.995384	0.632456
C105	C	-0.055332	0.954687	0.582524
H106	H	-0.019214	0.895556	0.569505
H107	H	-0.069857	0.986249	0.521685
H108	H	-0.121851	0.949346	0.616004
H109	H	0.232745	0.800929	0.360750
O110	O	-0.166390	1.033851	-0.000138
C111	C	-0.196018	1.075443	-0.071332
H112	H	-0.215497	1.034702	-0.121103
H113	H	-0.139122	1.107702	-0.095238
H114	H	-0.257392	1.117556	-0.055226
O115	O	0.000236	0.995441	0.196962
C116	C	-0.088975	0.983041	0.218165
H117	H	-0.089297	0.922443	0.241957
H118	H	-0.134263	0.991702	0.161269
H119	H	-0.115505	1.024952	0.268412
O120	O	0.123742	0.515147	0.147841
C121	C	0.124710	0.566912	0.213991
H122	H	0.154314	0.620083	0.192015
H123	H	0.168029	0.539335	0.266409
H124	H	0.052573	0.583176	0.237042
O125	O	0.119045	0.273230	0.147839
C126	C	0.118076	0.221454	0.213993
H127	H	0.088477	0.168285	0.192021
H128	H	0.074753	0.249021	0.266410
H129	H	0.190213	0.205188	0.237042
O130	O	0.242446	0.792811	0.803002
C131	C	0.296632	0.747441	0.746261
H132	H	0.259670	0.746544	0.684570
H133	H	0.310467	0.687018	0.771284
H134	H	0.363573	0.772073	0.737045
