data_functionalizedCrystal
_audit_creation_method	'MofGen! by Chris Wilmer'
_symmetry_space_group_name_H-M	'P1'
_symmetry_Int_Tables_number	1
_symmetry_cell_setting	triclinic
loop_
_symmetry_equiv_pos_as_xyz
  x,y,z
_cell_length_a	9.016244
_cell_length_b	8.559649
_cell_length_c	8.597304
_cell_angle_alpha	102.375375
_cell_angle_beta	97.702055
_cell_angle_gamma	89.992738
loop_
_atom_site_label
_atom_site_type_symbol
_atom_site_fract_x
_atom_site_fract_y
_atom_site_fract_z
O1	O	0.116543	-2.119304	-0.053150
O2	O	0.126883	-1.655365	0.027750
O3	O	0.092374	-1.896462	-0.242266
O4	O	0.151052	-1.878207	0.216866
O5	O	-0.154306	-1.896427	-0.242256
O6	O	-0.119796	-1.655330	0.027760
O7	O	-0.130137	-2.119269	-0.053140
Cu8	Cu	-0.147490	-1.887296	-0.012689
Cu9	Cu	0.144237	-1.887338	-0.012701
O10	O	-0.095627	-1.878172	0.216876
C11	C	0.004327	-1.595913	0.033886
C12	C	0.006660	-1.418819	0.052135
N13	N	-0.352676	-1.887278	-0.012683
C14	C	-0.038405	-1.894483	-0.300496
C15	C	-0.060572	-1.888618	-0.474015
C16	C	-0.569296	-1.757906	0.131381
C17	C	-0.397349	-1.758197	0.131820
C18	C	-0.413015	-2.054248	0.002961
C19	C	-0.584833	-2.053543	0.003954
C20	C	-0.607711	-1.851332	-0.173023
C21	C	-0.435557	-1.847514	-0.171459
N22	N	0.349420	-1.887369	-0.012720
C23	C	-0.007577	-2.178721	-0.059276
C24	C	-0.009901	-2.355815	-0.077525
C25	C	0.035155	-1.880151	0.275106
C26	C	0.057331	-1.886016	0.448625
H27	H	-0.356018	-1.634167	0.125457
F28	F	0.027558	-1.312239	0.215482
H29	H	-0.025872	-1.437367	-0.202501
F30	F	0.211451	-1.888970	-0.464438
F31	F	-0.214699	-1.885641	-0.560953
H32	H	-0.662038	-1.945713	-0.280022
F33	F	-0.617810	-2.094537	0.155960
H34	H	-0.611452	-1.633490	0.125412
H35	H	-0.597316	-1.780878	0.250105
H36	H	-0.340946	-1.781465	0.251199
H37	H	-0.639438	-2.153024	-0.097937
H38	H	-0.355259	-2.086287	0.117809
F39	F	-0.376764	-2.183307	-0.131666
H40	H	-0.396392	-1.724676	-0.183799
F41	F	-0.397894	-1.962500	-0.316158
F42	F	-0.667798	-1.695451	-0.199170
