data_functionalizedCrystal
_audit_creation_method	'MofGen! by Chris Wilmer'
_symmetry_space_group_name_H-M	'P1'
_symmetry_Int_Tables_number	1
_symmetry_cell_setting	triclinic
loop_
_symmetry_equiv_pos_as_xyz
  x,y,z
_cell_length_a	16.625547
_cell_length_b	13.032492
_cell_length_c	13.032721
_cell_angle_alpha	90.915902
_cell_angle_beta	97.204553
_cell_angle_gamma	82.815342
loop_
_atom_site_label
_atom_site_type_symbol
_atom_site_fract_x
_atom_site_fract_y
_atom_site_fract_z
Zn1	Zn	-1.137451	-0.633740	0.335723
Zn2	Zn	-0.887451	-0.383740	0.585723
Zn3	Zn	-0.637451	-0.133740	0.835723
Zn4	Zn	-0.387451	0.116260	1.085723
Zn5	Zn	-1.133137	-0.483581	0.529524
Zn6	Zn	-0.883137	-0.233581	0.779524
Zn7	Zn	-0.633137	0.016419	1.029524
Zn8	Zn	-0.383137	0.266419	1.279524
Zn9	Zn	-1.017391	-0.461745	0.357560
Zn10	Zn	-0.767391	-0.211745	0.607560
Zn11	Zn	-0.517391	0.038255	0.857560
Zn12	Zn	-0.267391	0.288255	1.107560
Zn13	Zn	-0.983597	-0.655496	0.507665
Zn14	Zn	-0.733597	-0.405496	0.757665
Zn15	Zn	-0.483597	-0.155496	1.007665
Zn16	Zn	-0.233597	0.094504	1.257665
O17	O	-1.067894	-0.558640	0.432618
O18	O	-0.817894	-0.308640	0.682618
O19	O	-0.567894	-0.058640	0.932618
O20	O	-0.317894	0.191360	1.182618
O21	O	-1.249707	-0.613855	0.361440
O22	O	-0.999707	-0.363855	0.611440
O23	O	-0.749707	-0.113855	0.861440
O24	O	-0.499707	0.136145	1.111440
O25	O	-1.130121	-0.336756	0.525000
O26	O	-0.880121	-0.086756	0.775000
O27	O	-0.630121	0.163244	1.025000
O28	O	-0.380121	0.413244	1.275000
O29	O	-1.049266	-0.466317	0.210738
O30	O	-0.799266	-0.216317	0.460738
O31	O	-0.549266	0.033683	0.710738
O32	O	-0.299266	0.283683	0.960738
O33	O	-1.246538	-0.503533	0.503825
O34	O	-0.996538	-0.253533	0.753825
O35	O	-0.746538	-0.003533	1.003825
O36	O	-0.496538	0.246467	1.253825
O37	O	-1.137473	-0.592682	0.194693
O38	O	-0.887473	-0.342682	0.444693
O39	O	-0.637473	-0.092682	0.694693
O40	O	-0.387473	0.157318	0.944693
O41	O	-1.045083	-0.320713	0.398659
O42	O	-0.795083	-0.070713	0.648659
O43	O	-0.545083	0.179287	0.898659
O44	O	-0.295083	0.429287	1.148659
O45	O	-0.900080	-0.487412	0.377463
O46	O	-0.650080	-0.237412	0.627463
O47	O	-0.400080	0.012588	0.877463
O48	O	-0.150080	0.262588	1.127463
O49	O	-0.991668	-0.796538	0.466569
O50	O	-0.741668	-0.546538	0.716569
O51	O	-0.491668	-0.296538	0.966569
O52	O	-0.241668	-0.046538	1.216569
O53	O	-0.875252	-0.629760	0.487744
O54	O	-0.625252	-0.379760	0.737744
O55	O	-0.375252	-0.129760	0.987744
O56	O	-0.125252	0.120240	1.237744
O57	O	-1.104704	-0.780554	0.340244
O58	O	-0.854704	-0.530554	0.590244
O59	O	-0.604704	-0.280554	0.840244
O60	O	-0.354704	-0.030554	1.090244
O61	O	-1.097352	-0.524629	0.670551
O62	O	-0.847352	-0.274629	0.920551
O63	O	-0.597352	-0.024629	1.170551
O64	O	-0.347352	0.225371	1.420551
O65	O	-0.987486	-0.650934	0.654491
O66	O	-0.737486	-0.400934	0.904491
O67	O	-0.487486	-0.150934	1.154491
O68	O	-0.237486	0.099066	1.404491
C69	C	-0.858411	-0.558578	0.432602
C70	C	-0.608411	-0.308578	0.682602
C71	C	-0.358411	-0.058578	0.932602
C72	C	-0.108411	0.191422	1.182602
C73	C	-0.768788	-0.558579	0.432617
C74	C	-0.518788	-0.308579	0.682617
C75	C	-0.268788	-0.058579	0.932617
C76	C	-0.018788	0.191421	1.182617
C77	C	-0.696005	-0.558589	0.432617
C78	C	-0.446005	-0.308589	0.682617
C79	C	-0.196005	-0.058589	0.932617
C80	C	0.053995	0.191411	1.182617
C81	C	-0.604694	-0.558610	0.432618
C82	C	-0.354694	-0.308610	0.682618
C83	C	-0.104694	-0.058610	0.932618
C84	C	0.145306	0.191390	1.182618
C85	C	-0.531915	-0.558634	0.432623
C86	C	-0.281915	-0.308634	0.682623
C87	C	-0.031915	-0.058634	0.932623
C88	C	0.218085	0.191366	1.182623
C89	C	-0.440598	-0.558655	0.432626
C90	C	-0.190598	-0.308655	0.682626
C91	C	0.059402	-0.058655	0.932626
C92	C	0.309402	0.191345	1.182626
C93	C	-1.090856	-0.291407	0.466497
C94	C	-0.840856	-0.041407	0.716497
C95	C	-0.590856	0.208593	0.966497
C96	C	-0.340856	0.458593	1.216497
C97	C	-1.100844	-0.177051	0.480733
C98	C	-0.850844	0.072949	0.730733
C99	C	-0.600844	0.322949	0.980733
C100	C	-0.350844	0.572949	1.230733
C101	C	-1.038304	-0.592534	0.699836
C102	C	-0.788304	-0.342534	0.949836
C103	C	-0.538304	-0.092534	1.199836
C104	C	-0.288304	0.157466	1.449836
C105	C	-1.025716	-0.607068	0.814149
C106	C	-0.775716	-0.357068	1.064149
C107	C	-0.525716	-0.107068	1.314149
C108	C	-0.275716	0.142932	1.564149
C109	C	-0.278197	-0.558690	0.432632
C110	C	-0.028197	-0.308690	0.682632
C111	C	0.221803	-0.058690	0.932632
C112	C	0.471803	0.191310	1.182632
C113	C	-0.367819	-0.558678	0.432632
C114	C	-0.117819	-0.308678	0.682632
C115	C	0.132181	-0.058678	0.932632
C116	C	0.382181	0.191322	1.182632
C117	C	-1.044898	-0.826908	0.398532
C118	C	-0.794898	-0.576908	0.648532
C119	C	-0.544898	-0.326908	0.898532
C120	C	-0.294898	-0.076908	1.148532
C121	C	-1.035098	-0.941228	0.384007
C122	C	-0.785098	-0.691228	0.634007
C123	C	-0.535098	-0.441228	0.884007
C124	C	-0.285098	-0.191228	1.134007
C125	C	-1.062812	-0.118235	0.425018
C126	C	-0.812812	0.131765	0.675018
C127	C	-0.562812	0.381765	0.925018
C128	C	-0.312812	0.631765	1.175018
C129	C	-1.073134	-0.000042	0.439730
C130	C	-0.823134	0.249958	0.689730
C131	C	-0.573134	0.499958	0.939730
C132	C	-0.323134	0.749958	1.189730
C133	C	-1.097620	-0.524637	0.164354
C134	C	-0.847620	-0.274637	0.414354
C135	C	-0.597620	-0.024637	0.664354
C136	C	-0.347620	0.225363	0.914354
C137	C	-1.110287	-0.510147	0.050035
C138	C	-0.860287	-0.260147	0.300035
C139	C	-0.610287	-0.010147	0.550035
C140	C	-0.360287	0.239853	0.800035
C141	C	-1.074503	-0.551101	0.873019
C142	C	-0.824503	-0.301101	1.123019
C143	C	-0.574503	-0.051101	1.373019
C144	C	-0.324503	0.198899	1.623019
C145	C	-1.061494	-0.566121	0.991167
C146	C	-0.811494	-0.316121	1.241167
C147	C	-0.561494	-0.066121	1.491167
C148	C	-0.311494	0.183879	1.741167
H149	H	-1.022614	-0.155382	0.366423
H150	H	-0.772614	0.094618	0.616423
H151	H	-0.522614	0.344618	0.866423
H152	H	-0.272614	0.594618	1.116423
F153	F	-0.994309	-0.643296	1.039607
F154	F	-0.744309	-0.393296	1.289607
F155	F	-0.494309	-0.143296	1.539607
F156	F	-0.244309	0.106704	1.789607
F157	F	-1.177479	-0.432981	1.001597
F158	F	-0.927479	-0.182981	1.251597
F159	F	-0.677479	0.067019	1.501597
F160	F	-0.427479	0.317019	1.751597
H161	H	-1.113342	0.037101	0.498321
H162	H	-0.863342	0.287101	0.748321
H163	H	-0.613342	0.537101	0.998321
H164	H	-0.363342	0.787101	1.248321
H165	H	-0.994898	0.021631	0.325406
H166	H	-0.744898	0.271631	0.575406
H167	H	-0.494898	0.521631	0.825406
H168	H	-0.244898	0.771631	1.075406
F169	F	-1.153396	-0.128502	0.557312
F170	F	-0.903396	0.121498	0.807312
F171	F	-0.653396	0.371498	1.057312
F172	F	-0.403396	0.621498	1.307312
F173	F	-1.141691	-0.473942	0.824573
F174	F	-0.891691	-0.223942	1.074573
F175	F	-0.641691	0.026058	1.324573
F176	F	-0.391691	0.276058	1.574573
H177	H	-0.974319	-0.666107	0.851217
H178	H	-0.724319	-0.416107	1.101217
H179	H	-0.474319	-0.166107	1.351217
H180	H	-0.224319	0.083893	1.601217
