data_functionalizedCrystal
_audit_creation_method	'MofGen! by Chris Wilmer'
_symmetry_space_group_name_H-M	'P1'
_symmetry_Int_Tables_number	1
_symmetry_cell_setting	triclinic
loop_
_symmetry_equiv_pos_as_xyz
  x,y,z
_cell_length_a	12.759401
_cell_length_b	16.120444
_cell_length_c	12.759393
_cell_angle_alpha	92.864572
_cell_angle_beta	89.981636
_cell_angle_gamma	92.926596
loop_
_atom_site_label
_atom_site_type_symbol
_atom_site_fract_x
_atom_site_fract_y
_atom_site_fract_z
Zn1	Zn	1.584962	-0.331863	-0.615152
Zn2	Zn	2.084962	0.168137	-0.115152
Zn3	Zn	1.575911	-0.471299	-0.448367
Zn4	Zn	2.075911	0.028701	0.051633
Zn5	Zn	1.409262	-0.331904	-0.439494
Zn6	Zn	1.909262	0.168096	0.060506
Zn7	Zn	1.400311	-0.471237	-0.624004
Zn8	Zn	1.900311	0.028763	-0.124004
O9	O	1.492612	-0.401575	-0.531754
O10	O	1.992612	0.098425	-0.031754
O11	O	1.730782	-0.350368	-0.593036
O12	O	2.230782	0.149632	-0.093036
O13	O	1.553763	-0.452851	-0.300171
O14	O	2.053763	0.047149	0.199829
O15	O	1.440103	-0.215233	-0.455377
O16	O	1.940103	0.284767	0.044623
O17	O	1.724132	-0.452811	-0.470500
O18	O	2.224132	0.047189	0.029500
O19	O	1.569189	-0.215202	-0.584432
O20	O	2.069189	0.284798	-0.084432
O21	O	1.431326	-0.350438	-0.293652
O22	O	1.931326	0.149562	0.206348
O23	O	1.261054	-0.350378	-0.463961
O24	O	1.761054	0.149622	0.036039
O25	O	1.424847	-0.452705	-0.769848
O26	O	1.924847	0.047295	-0.269848
O27	O	1.254478	-0.452745	-0.599520
O28	O	1.754478	0.047255	-0.099520
O29	O	1.560510	-0.350308	-0.763344
O30	O	2.060510	0.149692	-0.263344
O31	O	1.545083	-0.587956	-0.479084
O32	O	2.045083	-0.087956	0.020916
O33	O	1.416071	-0.587911	-0.608124
O34	O	1.916071	-0.087911	-0.108124
C35	C	1.219645	-0.401560	-0.531739
C36	C	1.719645	0.098440	-0.031739
C37	C	1.102868	-0.401574	-0.531759
C38	C	1.602868	0.098426	-0.031759
C39	C	1.044603	-0.454962	-0.602238
C40	C	1.544603	0.045038	-0.102238
C41	C	0.934879	-0.454972	-0.602251
C42	C	1.434879	0.045028	-0.102251
C43	C	0.941692	-0.348204	-0.461294
C44	C	1.441692	0.151796	0.038706
C45	C	1.051415	-0.348190	-0.461287
C46	C	1.551415	0.151810	0.038713
C47	C	1.040668	-0.516606	-0.683616
C48	C	1.540668	-0.016606	-0.183616
C49	C	0.930944	-0.516616	-0.683628
C50	C	1.430944	-0.016616	-0.183628
C51	C	1.478652	-0.618184	-0.545550
C52	C	1.978652	-0.118184	-0.045550
C53	C	1.472776	-0.710849	-0.551487
C54	C	1.972776	-0.210849	-0.051487
C55	C	1.523350	-0.921794	-0.501181
C56	C	2.023350	-0.421794	-0.001181
C57	C	1.462068	-0.880506	-0.562338
C58	C	1.962068	-0.380506	-0.062338
C59	C	1.468028	-0.786100	-0.556299
C60	C	1.968028	-0.286100	-0.056299
C61	C	1.517391	-1.016208	-0.507219
C62	C	2.017391	-0.516208	-0.007219
C63	C	1.766644	-0.401591	-0.531770
C64	C	2.266644	0.098409	-0.031770
C65	C	1.883420	-0.401598	-0.531777
C66	C	2.383420	0.098402	-0.031777
C67	C	1.492690	-0.401495	-0.805782
C68	C	1.992690	0.098505	-0.305782
C69	C	1.492723	-0.401461	-0.922557
C70	C	1.992723	0.098539	-0.422557
C71	C	1.506654	-0.184121	-0.517927
C72	C	2.006654	0.315879	-0.017927
C73	C	1.512638	-0.091455	-0.512035
C74	C	2.012638	0.408545	-0.012035
C75	C	1.563398	-0.348097	-1.083756
C76	C	2.063398	0.151903	-0.583756
C77	C	1.563370	-0.348132	-0.974034
C78	C	2.063370	0.151868	-0.474034
C79	C	1.422105	-0.454764	-0.980808
C80	C	1.922105	0.045236	-0.480808
C81	C	1.422139	-0.454733	-1.090528
C82	C	1.922139	0.045267	-0.590528
C83	C	1.644953	-0.286531	-1.079844
C84	C	2.144953	0.213469	-0.579844
C85	C	1.644925	-0.286566	-0.970122
C86	C	2.144925	0.213434	-0.470122
C87	C	1.492598	-0.401595	-0.258788
C88	C	1.992598	0.098405	0.241212
C89	C	1.492783	-0.401395	-0.141999
C90	C	1.992783	0.098605	0.358001
H91	H	0.897006	-0.581169	-0.665814
H92	H	1.397006	-0.081169	-0.165814
H93	H	1.070750	-0.577907	-0.658242
H94	H	1.570750	-0.077907	-0.158242
H95	H	1.720718	-0.309711	-0.937567
H96	H	2.220718	0.190289	-0.437567
Br97	Br	1.615536	-0.178962	-0.913636
Br98	Br	2.115536	0.321038	-0.413636
Br99	Br	1.367157	-0.939758	-0.657164
Br100	Br	1.867157	-0.439758	-0.157164
H101	H	1.580287	-0.886245	-0.444290
H102	H	2.080287	-0.386245	0.055710
Br103	Br	1.326325	-0.527088	-1.169572
Br104	Br	1.826325	-0.027088	-0.669572
H105	H	1.071581	-0.499388	-0.763924
H106	H	1.571581	0.000612	-0.263924
H107	H	0.898424	-0.493570	-0.759510
H108	H	1.398424	0.006430	-0.259510
Br109	Br	1.326236	-0.527149	-0.910948
Br110	Br	1.826236	-0.027149	-0.410948
H111	H	1.098851	-0.304711	-0.403902
H112	H	1.598851	0.195289	0.096098
H113	H	1.619772	-0.225187	-1.109976
H114	H	2.119772	0.274813	-0.609976
Br115	Br	0.871858	-0.275756	-0.365662
Br116	Br	1.371858	0.224244	0.134338
Br117	Br	1.778724	-0.315343	-1.131320
Br118	Br	2.278724	0.184657	-0.631320
