data_functionalizedCrystal
_audit_creation_method	'MofGen! by Chris Wilmer'
_symmetry_space_group_name_H-M	'P1'
_symmetry_Int_Tables_number	1
_symmetry_cell_setting	triclinic
loop_
_symmetry_equiv_pos_as_xyz
  x,y,z
_cell_length_a	16.109301
_cell_length_b	10.723024
_cell_length_c	15.186229
_cell_angle_alpha	89.997422
_cell_angle_beta	89.999362
_cell_angle_gamma	83.964675
loop_
_atom_site_label
_atom_site_type_symbol
_atom_site_fract_x
_atom_site_fract_y
_atom_site_fract_z
O1	O	1.104074	0.160391	-0.073171
O2	O	0.862130	0.180351	-0.073184
O3	O	0.988683	-0.011279	-0.073174
O4	O	0.977521	0.352021	-0.073181
O5	O	0.988674	-0.011282	0.073283
O6	O	0.862121	0.180348	0.073273
O7	O	1.104066	0.160388	0.073287
Zn8	Zn	0.983092	0.170368	0.096533
Zn9	Zn	0.983103	0.170371	-0.096431
O10	O	0.977513	0.352018	0.073276
C11	C	0.831146	0.179541	0.000043
C12	C	0.738836	0.177117	0.000037
C13	C	0.517200	0.285190	0.000045
C14	C	0.430466	0.282903	0.000051
C15	C	0.449003	0.055540	0.000052
C16	C	0.535735	0.057829	0.000052
C17	C	0.569831	0.172657	0.000045
C18	C	0.396365	0.168081	0.000050
C19	C	0.302324	0.165600	0.000056
C20	C	0.663877	0.175139	0.000040
C21	C	0.987866	-0.057770	0.000054
C22	C	0.985436	-0.196292	0.000050
C23	C	1.056249	-0.272213	0.000053
C24	C	1.053739	-0.415383	0.000050
C25	C	1.135050	0.161198	0.000058
C26	C	1.227359	0.163622	0.000057
C27	C	0.978329	0.398508	0.000047
C28	C	0.980760	0.537031	0.000044
N29	N	0.983091	0.170364	0.228226
N30	N	0.983112	0.170365	-0.228123
C31	C	1.039148	0.085539	0.453953
C32	C	1.039150	0.085536	0.546143
C33	C	0.927049	0.255194	0.546143
C34	C	0.927043	0.255190	0.453955
C35	C	0.983097	0.170364	0.407862
C36	C	0.983105	0.170365	0.592240
C37	C	0.983108	0.170362	0.692196
C38	C	0.983094	0.170365	0.307900
H39	H	0.578589	-0.033815	0.000054
C40	C	1.140664	-0.216839	0.000064
N41	N	1.204248	-0.175133	0.000076
C42	C	0.865391	0.348495	0.596853
N43	N	0.818948	0.418771	0.635047
H44	H	0.544958	0.378691	0.000046
C45	C	0.865417	0.348565	0.403252
N46	N	0.819015	0.418911	0.365062
H47	H	0.387617	0.374539	0.000053
H48	H	0.920135	-0.397741	0.000048
H49	H	1.084789	0.016467	0.416427
H50	H	0.421231	-0.037950	0.000063
H51	H	1.114359	-0.480619	0.000056
H52	H	0.922953	-0.237286	0.000041
H53	H	1.084791	0.016463	0.583668
