data_functionalizedCrystal
_audit_creation_method	'MofGen! by Chris Wilmer'
_symmetry_space_group_name_H-M	'P1'
_symmetry_Int_Tables_number	1
_symmetry_cell_setting	triclinic
loop_
_symmetry_equiv_pos_as_xyz
  x,y,z
_cell_length_a	16.992694
_cell_length_b	15.995350
_cell_length_c	16.053802
_cell_angle_alpha	92.567808
_cell_angle_beta	87.249047
_cell_angle_gamma	87.080299
loop_
_atom_site_label
_atom_site_type_symbol
_atom_site_fract_x
_atom_site_fract_y
_atom_site_fract_z
O1	O	1.043694	0.174244	-0.069318
O2	O	0.815410	0.172295	-0.069342
O3	O	0.935792	0.051799	-0.069329
O4	O	0.923312	0.294739	-0.069332
O5	O	0.929166	0.058403	0.069530
O6	O	0.808784	0.178898	0.069516
O7	O	1.037068	0.180847	0.069540
Zn8	Zn	0.921874	0.180921	0.091575
Zn9	Zn	0.930604	0.172221	-0.091377
O10	O	0.916685	0.301343	0.069527
C11	C	0.782884	0.173091	0.000083
C12	C	0.695841	0.165614	0.000074
C13	C	0.645600	0.237749	0.000074
C14	C	0.563813	0.230720	0.000085
C15	C	0.532268	0.151555	0.000091
C16	C	0.582515	0.079414	0.000094
C17	C	0.664300	0.086444	0.000088
C18	C	0.288669	0.122417	0.000114
C19	C	0.206878	0.115392	0.000117
C20	C	0.188181	0.266699	0.000110
C21	C	0.269969	0.273722	0.000099
C22	C	0.320209	0.201582	0.000106
N23	N	0.448669	0.144368	0.000100
N24	N	0.403806	0.208770	0.000103
C25	C	0.931963	0.023872	0.000099
C26	C	0.930417	-0.069182	0.000094
C27	C	0.924861	-0.407302	0.000096
C28	C	0.839142	-0.365620	-0.000225
C29	C	0.840674	-0.268811	0.000089
C30	C	0.927617	-0.239557	0.000095
C31	C	0.966120	-0.274034	0.079392
C32	C	0.963963	-0.370810	0.079459
C33	C	0.973269	-0.378559	-0.078449
C34	C	0.973299	-0.281665	-0.079497
C35	C	0.929179	-0.144755	0.000096
C36	C	0.923302	-0.502103	0.000100
C37	C	1.069593	0.180051	0.000113
C38	C	1.156637	0.187528	0.000117
C39	C	0.920515	0.329270	0.000097
C40	C	0.922061	0.422324	0.000097
N41	N	0.915921	0.186859	0.216434
N42	N	0.936563	0.166277	-0.216236
C43	C	0.967163	0.135608	0.260134
C44	C	0.963006	0.139770	0.347541
C45	C	0.907611	0.195187	0.391245
C46	C	0.856364	0.246439	0.347539
C47	C	0.860518	0.242273	0.260135
C48	C	0.889469	0.213363	0.652653
C49	C	0.885321	0.217528	0.740064
C50	C	0.991962	0.110857	0.740059
C51	C	0.996114	0.106699	0.652652
C52	C	0.944864	0.157948	0.608954
N53	N	0.903363	0.199444	0.480589
N54	N	0.949109	0.153686	0.519612
H55	H	0.147268	0.325432	0.000106
O56	O	0.679623	0.323136	0.000076
H57	H	0.630943	0.372115	0.000088
O58	O	0.718487	0.008638	0.000088
H59	H	0.753495	0.010913	0.056688
O60	O	1.055874	0.046937	0.605520
H61	H	1.050162	0.052661	0.537400
H62	H	0.810146	-0.245316	-0.056756
H63	H	0.818790	0.284005	0.224555
O64	O	0.825569	0.277304	0.787201
H65	H	0.831302	0.271598	0.855320
O66	O	0.790371	-0.391027	0.074670
H67	H	0.769758	-0.334258	0.113514
H68	H	0.807588	-0.389148	-0.057091
H69	H	0.945181	-0.259275	-0.138159
O70	O	0.792765	-0.231277	0.075515
H71	H	0.730990	-0.250276	0.072754
H72	H	0.181198	0.050923	0.000121
O73	O	0.919364	-0.394063	0.157963
H74	H	0.899534	-0.336216	0.195520
H75	H	0.847741	0.255094	0.617081
H76	H	0.556824	0.014956	0.000111
H77	H	0.522910	0.289461	0.000084
H78	H	1.026736	-0.398675	0.083061
H79	H	0.295647	0.338187	0.000085
H80	H	1.029854	-0.255493	0.082346
H81	H	1.033687	0.069131	0.775646
O82	O	0.796618	0.306216	0.394672
H83	H	0.802344	0.300512	0.462792
O84	O	0.342848	0.044611	0.000123
H85	H	0.334332	0.004294	-0.056474
O86	O	0.923494	-0.235330	0.157560
H87	H	0.874883	-0.191543	0.140132
O88	O	0.939941	-0.412025	-0.158067
H89	H	0.888495	-0.449522	-0.142541
H90	H	1.036506	-0.406115	-0.078977
O91	O	1.057590	-0.256009	-0.085840
H92	H	1.068288	-0.212657	-0.032119
H93	H	1.012274	0.090486	0.224555
H94	H	1.004731	0.098037	0.383120
