data_functionalizedCrystal
_audit_creation_method	'MofGen! by Chris Wilmer'
_symmetry_space_group_name_H-M	'P1'
_symmetry_Int_Tables_number	1
_symmetry_cell_setting	triclinic
loop_
_symmetry_equiv_pos_as_xyz
  x,y,z
_cell_length_a	12.594517
_cell_length_b	18.050590
_cell_length_c	12.594509
_cell_angle_alpha	90.032829
_cell_angle_beta	90.011478
_cell_angle_gamma	90.014439
loop_
_atom_site_label
_atom_site_type_symbol
_atom_site_fract_x
_atom_site_fract_y
_atom_site_fract_z
Zn1	Zn	1.627248	-0.295719	0.601546
Zn2	Zn	1.627131	-0.419923	0.423553
Zn3	Zn	1.449252	-0.295742	0.423606
Zn4	Zn	1.449227	-0.419862	0.601514
O5	O	1.538215	-0.357811	0.512555
O6	O	1.776179	-0.312210	0.577927
O7	O	1.603497	-0.403485	0.274615
O8	O	1.472923	-0.191814	0.447245
O9	O	1.776093	-0.403462	0.447156
O10	O	1.603696	-0.191797	0.577977
O11	O	1.472810	-0.312250	0.274653
O12	O	1.300303	-0.312191	0.447214
O13	O	1.472880	-0.403360	0.750464
O14	O	1.300284	-0.403382	0.577923
O15	O	1.603672	-0.312152	0.750488
O16	O	1.603472	-0.523839	0.447125
O17	O	1.472767	-0.523795	0.577872
C18	C	1.261674	-0.357783	0.512571
C19	C	1.143368	-0.357789	0.512603
C20	C	1.074136	-0.407485	0.583558
C21	C	1.003332	-0.339773	0.609744
C22	C	1.003374	-0.425557	0.486394
C23	C	1.074122	-0.290041	0.538840
C24	C	1.074171	-0.375871	0.415444
C25	C	1.003398	-0.308112	0.441593
C26	C	1.538133	-0.550764	0.512512
C27	C	1.538195	-0.633309	0.512530
C28	C	1.609421	-0.832757	0.441529
C29	C	1.635423	-0.882086	0.538668
C30	C	1.538256	-0.784440	0.512572
C31	C	1.512362	-0.882193	0.415477
C32	C	1.538316	-0.930425	0.512605
C33	C	1.564308	-0.832681	0.609762
C34	C	1.441201	-0.832784	0.486506
C35	C	1.467166	-0.882090	0.583712
C36	C	1.538224	-0.700341	0.512552
C37	C	1.538348	-1.014521	0.512636
C38	C	1.815835	-0.357840	0.512539
C39	C	1.934141	-0.357852	0.512533
C40	C	1.538286	-0.357746	0.790176
C41	C	1.538316	-0.357719	0.908481
C42	C	1.538326	-0.164106	0.512621
C43	C	1.538373	-0.081560	0.512649
C44	C	1.538205	-0.357823	0.236014
C45	C	1.538381	-0.357641	0.117709
C46	C	1.467201	-0.407298	0.977722
C47	C	1.564321	-0.425449	1.048493
C48	C	1.441273	-0.339523	1.048509
C49	C	1.635487	-0.375904	0.977695
C50	C	1.512373	-0.289948	0.977704
C51	C	1.609560	-0.308072	1.048444
H52	H	0.972291	-0.482841	0.464258
O53	O	1.111211	-0.221733	0.565400
C54	C	1.223153	-0.222527	0.565134
H55	H	1.252468	-0.281709	0.576830
H56	H	1.253464	-0.200394	0.485980
C57	C	1.228881	-0.100661	0.641603
C58	C	1.264887	-0.173348	0.655977
H59	H	1.254626	-0.070323	0.697636
H60	H	1.153464	-0.100124	0.641779
H61	H	1.254143	-0.082226	0.575639
H62	H	1.239613	-0.191785	0.721934
H63	H	1.340301	-0.173887	0.655815
O64	O	1.486255	-0.908261	0.317557
C65	C	1.485682	-0.986361	0.319185
H66	H	1.537888	-1.006874	0.387019
H67	H	1.400989	-1.007009	0.331247
C68	C	1.464824	-0.990880	0.129721
C69	C	1.528951	-1.016074	0.213031
H70	H	1.491509	-1.009209	0.064239
H71	H	1.465205	-0.938262	0.128624
H72	H	1.394250	-1.008088	0.139787
H73	H	1.599519	-0.998858	0.202971
H74	H	1.528582	-1.068690	0.214124
O75	O	1.590558	-0.806978	0.707841
C76	C	1.608970	-0.867315	0.776458
H77	H	1.565910	-0.918367	0.744996
H78	H	1.697818	-0.879011	0.780710
C79	C	1.620117	-0.785759	0.926808
C80	C	1.567222	-0.848461	0.888171
H81	H	1.594370	-0.774129	0.995720
H82	H	1.607716	-0.745108	0.880580
H83	H	1.694153	-0.795514	0.930343
H84	H	1.493189	-0.838702	0.884624
H85	H	1.579609	-0.889110	0.934401
H86	H	0.972216	-0.324501	0.691879
H87	H	1.105198	-0.449430	0.643639
H88	H	1.407010	-0.903615	0.643874
H89	H	1.407108	-0.449292	0.946670
H90	H	1.717526	-0.903744	0.560736
O91	O	0.966618	-0.257853	0.370093
C92	C	1.002885	-0.186561	0.398068
H93	H	1.022635	-0.185218	0.486386
H94	H	1.077056	-0.172705	0.350150
C95	C	0.891371	-0.130866	0.265581
C96	C	0.915620	-0.129215	0.374056
H97	H	0.837545	-0.095491	0.250765
H98	H	0.866940	-0.178897	0.246730
H99	H	0.953188	-0.119321	0.225662
H100	H	0.853807	-0.140769	0.413972
H101	H	0.940038	-0.081184	0.392913
O102	O	1.733388	-0.394434	0.940702
C103	C	1.725843	-0.459139	0.878391
H104	H	1.651671	-0.491396	0.901928
H105	H	1.720711	-0.443297	0.790928
C106	C	1.915826	-0.468029	0.867772
C107	C	1.824732	-0.507650	0.896686
H108	H	1.976827	-0.497952	0.879053
H109	H	1.920910	-0.424434	0.909748
H110	H	1.911535	-0.454830	0.794888
H111	H	1.829018	-0.520840	0.969572
H112	H	1.819651	-0.551249	0.854723
O113	O	1.343333	-0.806796	0.460215
C114	C	1.344455	-0.728694	0.461500
H115	H	1.411715	-0.708507	0.514754
H116	H	1.357091	-0.707079	0.377410
C117	C	1.155145	-0.724643	0.439149
C118	C	1.237749	-0.699849	0.504564
H119	H	1.089323	-0.706849	0.465708
H120	H	1.154389	-0.777262	0.438279
H121	H	1.165689	-0.706628	0.369079
H122	H	1.227211	-0.717871	0.574629
H123	H	1.238501	-0.647232	0.505447
H124	H	1.669797	-0.266111	1.079301
O125	O	1.590714	-0.493731	1.085657
C126	C	1.683935	-0.488583	1.147229
H127	H	1.730330	-0.437049	1.123058
H128	H	1.661891	-0.484677	1.234843
C129	C	1.695886	-0.621149	1.158475
C130	C	1.752874	-0.557856	1.128781
H131	H	1.738410	-0.663880	1.147099
H132	H	1.633080	-0.624617	1.116996
H133	H	1.677520	-0.617883	1.231484
H134	H	1.771228	-0.561118	1.055770
H135	H	1.815686	-0.554390	1.170247
O136	O	1.111278	-0.394239	0.317518
C137	C	1.073643	-0.465154	0.289375
H138	H	1.052617	-0.497363	0.364313
H139	H	0.999977	-0.459320	0.237434
C140	C	1.186269	-0.467428	0.135529
C141	C	1.160454	-0.506990	0.227570
H142	H	1.239815	-0.493235	0.097400
H143	H	1.211622	-0.419651	0.154486
H144	H	1.124874	-0.462570	0.092257
H145	H	1.221845	-0.511840	0.270846
H146	H	1.135113	-0.554770	0.208618
O147	O	1.681380	-0.806942	0.370048
C148	C	1.783629	-0.832079	0.397939
H149	H	1.785593	-0.845887	0.486231
H150	H	1.803636	-0.883779	0.349918
C151	C	1.863229	-0.754086	0.265565
C152	C	1.865644	-0.771039	0.374008
H153	H	1.913821	-0.716436	0.250800
H154	H	1.794342	-0.737152	0.246771
H155	H	1.879898	-0.797174	0.225561
H156	H	1.848962	-0.727954	0.414010
H157	H	1.934530	-0.787964	0.392809
O158	O	1.485937	-0.221658	0.940618
C159	C	1.383490	-0.202721	0.976656
H160	H	1.337547	-0.255336	0.996542
H161	H	1.390250	-0.166663	1.050697
C162	C	1.380941	-0.095049	0.864716
C163	C	1.324509	-0.159672	0.889132
H164	H	1.344559	-0.068491	0.810730
H165	H	1.449963	-0.107805	0.840439
H166	H	1.386570	-0.065010	0.926424
H167	H	1.318892	-0.189714	0.827428
H168	H	1.255485	-0.146919	0.913397
O169	O	1.343418	-0.321108	1.085743
C170	C	1.350796	-0.256033	1.147279
H171	H	1.435500	-0.249451	1.177789
H172	H	1.328943	-0.206114	1.096357
C173	C	1.169918	-0.269358	1.204597
C174	C	1.273951	-0.261277	1.242077
H175	H	1.122513	-0.272591	1.263071
H176	H	1.164945	-0.313199	1.163136
H177	H	1.151722	-0.227757	1.162162
H178	H	1.292149	-0.302882	1.284500
H179	H	1.278924	-0.217443	1.283548
