data_functionalizedCrystal
_audit_creation_method	'MofGen! by Chris Wilmer'
_symmetry_space_group_name_H-M	'P1'
_symmetry_Int_Tables_number	1
_symmetry_cell_setting	triclinic
loop_
_symmetry_equiv_pos_as_xyz
  x,y,z
_cell_length_a	11.026607
_cell_length_b	14.519709
_cell_length_c	9.482900
_cell_angle_alpha	99.350820
_cell_angle_beta	78.636152
_cell_angle_gamma	96.133081
loop_
_atom_site_label
_atom_site_type_symbol
_atom_site_fract_x
_atom_site_fract_y
_atom_site_fract_z
O1	O	1.629894	0.375017	-0.120915
O2	O	1.879894	0.625017	0.129085
O3	O	2.129894	0.875017	0.379085
O4	O	2.379894	1.125017	0.629085
O5	O	1.276492	0.331026	-0.120914
O6	O	1.526492	0.581026	0.129086
O7	O	1.776492	0.831026	0.379086
O8	O	2.026492	1.081026	0.629086
O9	O	1.462561	0.220328	-0.120901
O10	O	1.712561	0.470328	0.129099
O11	O	1.962561	0.720328	0.379099
O12	O	2.212561	0.970328	0.629099
O13	O	1.443825	0.485715	-0.120927
O14	O	1.693825	0.735715	0.129073
O15	O	1.943825	0.985715	0.379073
O16	O	2.193825	1.235715	0.629073
O17	O	1.424766	0.242929	0.120889
O18	O	1.674766	0.492929	0.370889
O19	O	1.924766	0.742929	0.620889
O20	O	2.174766	0.992929	0.870889
O21	O	1.238698	0.353627	0.120876
O22	O	1.488698	0.603627	0.370876
O23	O	1.738698	0.853627	0.620876
O24	O	1.988698	1.103627	0.870876
O25	O	1.592099	0.397617	0.120875
O26	O	1.842099	0.647617	0.370875
O27	O	2.092099	0.897617	0.620875
O28	O	2.342099	1.147617	0.870875
Cu29	Cu	1.411948	0.377686	0.142953
Cu30	Cu	1.661948	0.627686	0.392953
Cu31	Cu	1.911948	0.877686	0.642953
Cu32	Cu	2.161948	1.127686	0.892953
Cu33	Cu	1.456644	0.350958	-0.142992
Cu34	Cu	1.706644	0.600958	0.107008
Cu35	Cu	1.956644	0.850958	0.357008
Cu36	Cu	2.206644	1.100958	0.607008
O37	O	1.406031	0.508316	0.120862
O38	O	1.656031	0.758316	0.370862
O39	O	1.906031	1.008316	0.620862
O40	O	2.156031	1.258316	0.870862
C41	C	1.212367	0.334211	-0.000019
C42	C	1.462367	0.584211	0.249981
C43	C	1.712367	0.834211	0.499981
C44	C	1.962367	1.084211	0.749981
C45	C	1.077600	0.310019	-0.000019
C46	C	1.327600	0.560019	0.249981
C47	C	1.577600	0.810019	0.499981
C48	C	1.827600	1.060019	0.749981
C49	C	1.003940	0.376817	-0.000026
C50	C	1.253940	0.626817	0.249974
C51	C	1.503940	0.876817	0.499974
C52	C	1.753940	1.126817	0.749974
C53	C	0.864652	0.351815	-0.000026
C54	C	1.114652	0.601815	0.249974
C55	C	1.364652	0.851815	0.499974
C56	C	1.614652	1.101815	0.749974
C57	C	1.442790	0.197125	-0.000006
C58	C	1.692790	0.447125	0.249994
C59	C	1.942790	0.697125	0.499994
C60	C	2.192790	0.947125	0.749994
C61	C	1.440173	0.094312	-0.000005
C62	C	1.690173	0.344312	0.249995
C63	C	1.940173	0.594312	0.499995
C64	C	2.190173	0.844312	0.749995
C65	C	1.430544	-0.282175	-0.000043
C66	C	1.680544	-0.032175	0.249957
C67	C	1.930544	0.217825	0.499957
C68	C	2.180544	0.467825	0.749957
C69	C	1.433218	-0.177425	-0.000032
C70	C	1.683218	0.072575	0.249968
C71	C	1.933218	0.322575	0.499968
C72	C	2.183218	0.572575	0.749968
C73	C	1.435358	-0.093934	-0.000023
C74	C	1.685358	0.156066	0.249977
C75	C	1.935358	0.406066	0.499977
C76	C	2.185358	0.656066	0.749977
C77	C	1.438033	0.010822	-0.000015
C78	C	1.688033	0.260822	0.249985
C79	C	1.938033	0.510822	0.499985
C80	C	2.188033	0.760822	0.749985
C81	C	1.656226	0.394432	-0.000023
C82	C	1.906226	0.644432	0.249977
C83	C	2.156226	0.894432	0.499977
C84	C	2.406226	1.144432	0.749977
C85	C	1.790994	0.418624	-0.000033
C86	C	2.040994	0.668624	0.249967
C87	C	2.290994	0.918624	0.499967
C88	C	2.540994	1.168624	0.749967
C89	C	1.425802	0.531518	-0.000036
C90	C	1.675802	0.781518	0.249964
C91	C	1.925802	1.031518	0.499964
C92	C	2.175802	1.281518	0.749964
C93	C	1.428421	0.634330	-0.000046
C94	C	1.678421	0.884330	0.249954
C95	C	1.928421	1.134330	0.499954
C96	C	2.178421	1.384330	0.749954
N97	N	1.380519	0.396486	0.344071
N98	N	1.630519	0.646486	0.594071
N99	N	1.880519	0.896486	0.844071
N100	N	2.130519	1.146486	1.094071
N101	N	1.488082	0.332152	-0.344110
N102	N	1.738082	0.582152	-0.094110
N103	N	1.988082	0.832152	0.155890
N104	N	2.238082	1.082152	0.405890
C105	C	1.447366	0.356497	0.416275
C106	C	1.697366	0.606497	0.666275
C107	C	1.947366	0.856497	0.916275
C108	C	2.197366	1.106497	1.166275
C109	C	1.421226	0.372147	0.583690
C110	C	1.671226	0.622147	0.833690
C111	C	1.921226	0.872147	1.083690
C112	C	2.171226	1.122147	1.333690
H113	H	1.037549	0.234316	-0.000048
H114	H	1.287549	0.484316	0.249952
H115	H	1.537549	0.734316	0.499952
H116	H	1.787549	0.984316	0.749952
F117	F	1.547249	0.296403	0.335079
F118	F	1.797249	0.546403	0.585079
F119	F	2.047249	0.796403	0.835079
F120	F	2.297249	1.046403	1.085079
H121	H	1.303933	0.442304	0.406195
H122	H	1.553933	0.692304	0.656195
H123	H	1.803933	0.942304	0.906195
H124	H	2.053933	1.192304	1.156195
H125	H	1.043996	0.452517	-0.000025
H126	H	1.293996	0.702517	0.249975
H127	H	1.543996	0.952517	0.499975
H128	H	1.793996	1.202517	0.749975
H129	H	1.344635	0.417969	0.645809
H130	H	1.594635	0.667969	0.895809
H131	H	1.844635	0.917969	1.145809
H132	H	2.094635	1.167969	1.395809
F133	F	1.588390	0.272441	0.574703
F134	F	1.838390	0.522441	0.824703
F135	F	2.088390	0.772441	1.074703
F136	F	2.338390	1.022441	1.324703
H137	H	0.824606	0.276108	-0.000055
H138	H	1.074606	0.526108	0.249945
H139	H	1.324606	0.776108	0.499945
H140	H	1.574606	1.026108	0.749945
H141	H	0.831042	0.494329	-0.000031
H142	H	1.081042	0.744329	0.249969
H143	H	1.331042	0.994329	0.499969
H144	H	1.581042	1.244329	0.749969
