data_functionalizedCrystal
_audit_creation_method	'MofGen! by Chris Wilmer'
_symmetry_space_group_name_H-M	'P1'
_symmetry_Int_Tables_number	1
_symmetry_cell_setting	triclinic
loop_
_symmetry_equiv_pos_as_xyz
  x,y,z
_cell_length_a	10.654545
_cell_length_b	14.421503
_cell_length_c	10.654550
_cell_angle_alpha	89.995515
_cell_angle_beta	84.484005
_cell_angle_gamma	90.007254
loop_
_atom_site_label
_atom_site_type_symbol
_atom_site_fract_x
_atom_site_fract_y
_atom_site_fract_z
O1	O	1.667852	0.077102	0.176355
O2	O	1.302373	0.077106	0.193167
O3	O	1.493515	0.077098	0.002021
O4	O	1.476709	0.077110	0.367500
O5	O	1.493484	-0.077125	0.002050
O6	O	1.302341	-0.077117	0.193195
O7	O	1.667820	-0.077121	0.176383
Cu8	Cu	1.485078	-0.091201	0.184792
Cu9	Cu	1.485115	0.091186	0.184758
O10	O	1.476678	-0.077113	0.367528
C11	C	1.255559	-0.000005	0.191948
C12	C	1.116115	-0.000004	0.188258
N13	N	1.485061	-0.219482	0.184815
C14	C	1.050594	-0.084072	0.186537
C15	C	0.919574	-0.084072	0.183049
C16	C	0.919609	0.084071	0.183010
C17	C	1.050627	0.084070	0.186488
C18	C	1.396660	-0.469132	0.273160
C19	C	1.510357	-0.530935	0.298523
C20	C	1.485091	-0.408644	0.184785
C21	C	1.371423	-0.530935	0.159452
C22	C	1.485110	-0.591365	0.184759
C23	C	1.598846	-0.469086	0.210205
C24	C	1.459837	-0.469080	0.071084
C25	C	1.573615	-0.530855	0.096399
C26	C	1.485078	-0.303383	0.184803
C27	C	1.485136	-0.696624	0.184740
C28	C	1.714634	-0.000008	0.177602
C29	C	1.854078	-0.000003	0.181292
N30	N	1.485142	0.219467	0.184725
C31	C	1.492266	-0.000013	-0.044762
C32	C	1.488574	-0.000012	-0.184206
C33	C	1.601115	-0.000012	-0.263693
C34	C	1.597639	-0.000001	-0.394714
C35	C	1.369069	0.000008	-0.366747
C36	C	1.372547	0.000003	-0.235729
C37	C	1.477927	-0.000000	0.414312
C38	C	1.481619	0.000004	0.553755
H39	H	1.103910	-0.152530	0.187978
N40	N	1.297693	-0.433236	0.372223
H41	H	1.316945	-0.455741	0.458072
H42	H	1.297877	-0.363211	0.370891
H43	H	1.689282	0.000000	-0.459428
H44	H	1.103977	0.152532	0.187887
H45	H	1.695592	-0.000023	-0.221748
N46	N	1.538687	-0.566927	0.425869
H47	H	1.471837	-0.544481	0.492581
H48	H	1.539325	-0.636951	0.424554
N49	N	0.848904	-0.174745	0.181186
H50	H	0.910381	-0.227999	0.181949
H51	H	0.785636	-0.178686	0.257916
N52	N	0.848976	0.174747	0.181099
H53	H	0.756033	0.161993	0.178636
H54	H	0.862376	0.211466	0.259416
N55	N	1.672788	-0.566545	-0.002608
H56	H	1.631301	-0.605106	-0.066122
H57	H	1.718082	-0.512409	-0.046772
N58	N	1.726222	-0.433262	0.238718
H59	H	1.725418	-0.363231	0.238588
H60	H	1.745435	-0.456376	0.324285
H61	H	1.274604	0.000018	-0.408713
N62	N	1.431485	-0.433061	-0.056233
H63	H	1.345550	-0.455519	-0.075284
H64	H	1.432582	-0.363037	-0.055427
H65	H	1.275289	-0.558105	0.138037
N66	N	1.251157	0.000011	-0.149984
H67	H	1.177127	0.000015	-0.202502
H68	H	1.247608	-0.057162	-0.095007
