data_functionalizedCrystal
_audit_creation_method	'MofGen! by Chris Wilmer'
_symmetry_space_group_name_H-M	'P1'
_symmetry_Int_Tables_number	1
_symmetry_cell_setting	triclinic
loop_
_symmetry_equiv_pos_as_xyz
  x,y,z
_cell_length_a	13.897448
_cell_length_b	11.169417
_cell_length_c	11.169409
_cell_angle_alpha	89.980487
_cell_angle_beta	89.964424
_cell_angle_gamma	90.018942
loop_
_atom_site_label
_atom_site_type_symbol
_atom_site_fract_x
_atom_site_fract_y
_atom_site_fract_z
Zn1	Zn	-0.383905	1.834901	-0.678506
Zn2	Zn	0.116095	2.334901	-0.178506
Zn3	Zn	-0.545240	1.834765	-0.477811
Zn4	Zn	-0.045240	2.334765	0.022189
Zn5	Zn	-0.383964	1.634187	-0.477841
Zn6	Zn	0.116036	2.134187	0.022159
Zn7	Zn	-0.545163	1.634169	-0.678457
Zn8	Zn	-0.045163	2.134169	-0.178457
O9	O	-0.464568	1.734505	-0.578154
O10	O	0.035432	2.234505	-0.078154
O11	O	-0.405314	2.002833	-0.651891
O12	O	0.094686	2.502833	-0.151891
O13	O	-0.523904	1.808108	-0.309865
O14	O	-0.023904	2.308108	0.190135
O15	O	-0.248975	1.660877	-0.504493
O16	O	0.251025	2.160877	-0.004493
O17	O	-0.523846	2.002732	-0.504442
O18	O	-0.023846	2.502732	-0.004442
O19	O	-0.248931	1.808341	-0.651920
O20	O	0.251069	2.308341	-0.151920
O21	O	-0.405416	1.660744	-0.309887
O22	O	0.094584	2.160744	0.190113
O23	O	-0.405340	1.466235	-0.504446
O24	O	0.094660	1.966235	-0.004446
O25	O	-0.523714	1.660846	-0.846414
O26	O	-0.023714	2.160846	-0.346414
O27	O	-0.523772	1.466221	-0.651837
O28	O	-0.023772	1.966221	-0.151837
O29	O	-0.405238	1.808323	-0.846449
O30	O	0.094762	2.308323	-0.346449
O31	O	-0.680212	1.808090	-0.504395
O32	O	-0.180212	2.308090	-0.004395
O33	O	-0.680155	1.660713	-0.651808
O34	O	-0.180155	2.160713	-0.151808
C35	C	-0.464555	1.422681	-0.578140
C36	C	0.035445	1.922681	-0.078140
C37	C	-0.464573	1.289281	-0.578163
C38	C	0.035427	1.789281	-0.078163
C39	C	-0.715182	1.734418	-0.578119
C40	C	-0.215182	2.234418	-0.078119
C41	C	-0.822396	1.734490	-0.578144
C42	C	-0.322396	2.234490	-0.078144
C43	C	-1.018691	1.734616	-0.578220
C44	C	-0.518691	2.234616	-0.078220
C45	C	-0.909459	1.734543	-0.578181
C46	C	-0.409459	2.234543	-0.078181
C47	C	-0.212975	1.734626	-0.578215
C48	C	0.287025	2.234626	-0.078215
C49	C	-0.105761	1.734677	-0.578241
C50	C	0.394239	2.234677	-0.078241
C51	C	-0.464461	1.734597	-0.891196
C52	C	0.035539	2.234597	-0.391196
C53	C	-0.464415	1.734637	-1.024597
C54	C	0.035585	2.234637	-0.524597
C55	C	-0.464582	2.047548	-0.578168
C56	C	0.035418	2.547548	-0.078168
C57	C	-0.464588	2.180948	-0.578175
C58	C	0.035412	2.680948	-0.078175
C59	C	-0.464605	1.734483	-0.266329
C60	C	0.035395	2.234483	0.233671
C61	C	-0.464379	1.734676	-0.132930
C62	C	0.035621	2.234676	0.367070
