data_functionalizedCrystal
_audit_creation_method	'MofGen! by Chris Wilmer'
_symmetry_space_group_name_H-M	'P1'
_symmetry_Int_Tables_number	1
_symmetry_cell_setting	triclinic
loop_
_symmetry_equiv_pos_as_xyz
  x,y,z
_cell_length_a	13.897448
_cell_length_b	12.759395
_cell_length_c	12.759387
_cell_angle_alpha	90.019071
_cell_angle_beta	89.967616
_cell_angle_gamma	89.980771
loop_
_atom_site_label
_atom_site_type_symbol
_atom_site_fract_x
_atom_site_fract_y
_atom_site_fract_z
Zn1	Zn	-0.383928	-1.606232	-0.593991
Zn2	Zn	0.116072	-1.106232	-0.093991
Zn3	Zn	-0.545254	-1.606118	-0.418306
Zn4	Zn	-0.045254	-1.106118	0.081694
Zn5	Zn	-0.383979	-1.430535	-0.418328
Zn6	Zn	0.116021	-0.930535	0.081672
Zn7	Zn	-0.545187	-1.430513	-0.593945
Zn8	Zn	-0.045187	-0.930513	-0.093945
O9	O	-0.464587	-1.518349	-0.506142
O10	O	0.035413	-1.018349	-0.006142
O11	O	-0.405335	-1.753238	-0.570696
O12	O	0.094665	-1.253238	-0.070696
O13	O	-0.523911	-1.582787	-0.271287
O14	O	-0.023911	-1.082787	0.228713
O15	O	-0.248991	-1.453898	-0.441659
O16	O	0.251009	-0.953898	0.058341
O17	O	-0.523861	-1.753154	-0.441621
O18	O	-0.023861	-1.253154	0.058379
O19	O	-0.248953	-1.582982	-0.570718
O20	O	0.251047	-1.082982	-0.070718
O21	O	-0.405423	-1.453787	-0.271304
O22	O	0.094577	-0.953787	0.228696
O23	O	-0.405357	-1.283511	-0.441614
O24	O	0.094643	-0.783511	0.058386
O25	O	-0.523745	-1.453862	-0.740972
O26	O	-0.023745	-0.953862	-0.240972
O27	O	-0.523795	-1.283495	-0.570639
O28	O	-0.023795	-0.783495	-0.070639
O29	O	-0.405269	-1.582961	-0.741006
O30	O	0.094731	-1.082961	-0.241006
O31	O	-0.680227	-1.582767	-0.441576
O32	O	-0.180227	-1.082767	0.058424
O33	O	-0.680177	-1.453751	-0.570617
O34	O	-0.180177	-0.953751	-0.070617
C35	C	-0.464575	-1.245382	-0.506124
C36	C	0.035425	-0.745382	-0.006124
C37	C	-0.464593	-1.128605	-0.506142
C38	C	0.035407	-0.628605	-0.006142
C39	C	-0.715201	-1.518273	-0.506112
C40	C	-0.215201	-1.018273	-0.006112
C41	C	-0.822415	-1.518336	-0.506134
C42	C	-0.322415	-1.018336	-0.006134
C43	C	-0.464494	-1.518422	-0.780176
C44	C	0.035506	-1.018422	-0.280176
C45	C	-0.464454	-1.518453	-0.896953
C46	C	0.035546	-1.018453	-0.396953
C47	C	-1.018710	-1.518446	-0.506200
C48	C	-0.518710	-1.018446	-0.006200
C49	C	-0.909478	-1.518382	-0.506167
C50	C	-0.409478	-1.018382	-0.006167
C51	C	-0.212994	-1.518455	-0.506196
C52	C	0.287006	-1.018455	-0.006196
C53	C	-0.105780	-1.518500	-0.506219
C54	C	0.394220	-1.018500	-0.006219
C55	C	-0.464599	-1.792383	-0.506161
C56	C	0.035401	-1.292383	-0.006161
C57	C	-0.464605	-1.909159	-0.506169
C58	C	0.035395	-1.409159	-0.006169
C59	C	-0.588123	-1.128628	-0.640278
C60	C	-0.088123	-0.628628	-0.140278
C61	C	-0.649895	-1.073778	-0.707349
C62	C	-0.149895	-0.573778	-0.207349
C63	C	-0.649907	-0.964056	-0.707362
C64	C	-0.149907	-0.464056	-0.207362
C65	C	-0.588138	-0.909182	-0.640299
C66	C	-0.088138	-0.409182	-0.140299
C67	C	-0.526365	-0.964031	-0.573227
C68	C	-0.026365	-0.464031	-0.073227
C69	C	-0.526362	-1.073756	-0.573220
C70	C	-0.026362	-0.573756	-0.073220
C71	C	-0.402833	-0.964009	-0.439098
C72	C	0.097167	-0.464009	0.060902
C73	C	-0.402824	-1.073731	-0.439078
C74	C	0.097176	-0.573731	0.060922
C75	C	-0.341063	-0.909135	-0.372035
C76	C	0.158937	-0.409135	0.127965
C77	C	-0.279294	-0.963984	-0.304957
C78	C	0.220706	-0.463984	0.195043
C79	C	-0.279286	-1.073712	-0.304946
C80	C	0.220714	-0.573712	0.195054
C81	C	-0.341052	-1.128580	-0.372007
C82	C	0.158948	-0.628580	0.127993
C83	C	-0.341017	-1.652951	-1.116432
C84	C	0.158983	-1.152951	-0.616432
C85	C	-0.279351	-1.720153	-1.061587
C86	C	0.220649	-1.220153	-0.561587
C87	C	-0.279383	-1.720123	-0.951866
C88	C	0.220617	-1.220123	-0.451866
C89	C	-0.341090	-1.652887	-0.896986
C90	C	0.158910	-1.152887	-0.396986
C91	C	-0.402756	-1.585685	-0.951830
C92	C	0.097244	-1.085685	-0.451830
C93	C	-0.402715	-1.585719	-1.061554
C94	C	0.097285	-1.085719	-0.561554
C95	C	-0.526120	-1.451251	-0.951797
C96	C	-0.026120	-0.951251	-0.451797
C97	C	-0.526085	-1.451273	-1.061519
C98	C	-0.026085	-0.951273	-0.561519
C99	C	-0.587828	-1.384014	-0.896917
C100	C	-0.087828	-0.884014	-0.396917
C101	C	-0.649490	-1.316805	-0.951762
C102	C	-0.149490	-0.816805	-0.451762
C103	C	-0.649455	-1.316837	-1.061490
C104	C	-0.149455	-0.816837	-0.561490
C105	C	-0.587751	-1.384071	-1.116363
C106	C	-0.087751	-0.884071	-0.616363
C107	C	-0.464610	-1.518338	-0.233175
C108	C	0.035390	-1.018338	0.266825
C109	C	-0.464378	-1.518510	-0.116399
C110	C	0.035622	-1.018510	0.383601
H111	H	-0.588127	-1.217969	-0.640266
H112	H	-0.088127	-0.717969	-0.140266
F113	F	-0.341131	-1.652870	-0.780210
F114	F	0.158869	-1.152870	-0.280210
H115	H	-0.228976	-1.118365	-0.250335
H116	H	0.271024	-0.618365	0.249665
H117	H	-0.700185	-1.118469	-0.761952
H118	H	-0.200185	-0.618469	-0.261952
F119	F	-0.341052	-1.245356	-0.371997
F120	F	0.158948	-0.745356	0.128003
F121	F	-0.715160	-1.245259	-0.893349
F122	F	-0.215160	-0.745259	-0.393349
H123	H	-0.340972	-1.652968	-1.205773
H124	H	0.159028	-1.152968	-0.705773
H125	H	-0.587710	-1.384097	-1.205704
H126	H	-0.087710	-0.884097	-0.705704
H127	H	-0.229171	-1.774848	-0.907212
H128	H	0.270829	-1.274848	-0.407212
H129	H	-0.587853	-1.383999	-0.807576
H130	H	-0.087853	-0.883999	-0.307576
H131	H	-0.700202	-0.919398	-0.761982
H132	H	-0.200202	-0.419398	-0.261982
F133	F	-0.715095	-1.245314	-1.119851
F134	F	-0.215095	-0.745314	-0.619851
H135	H	-0.588144	-0.819841	-0.640324
H136	H	-0.088144	-0.319841	-0.140324
H137	H	-0.341073	-0.819793	-0.372054
H138	H	0.158927	-0.319793	0.127946
H139	H	-0.229112	-1.774898	-1.106283
H140	H	0.270888	-1.274898	-0.606283
H141	H	-0.229002	-0.919297	-0.250364
H142	H	0.270998	-0.419297	0.249636
