data_functionalizedCrystal
_audit_creation_method	'MofGen! by Chris Wilmer'
_symmetry_space_group_name_H-M	'P1'
_symmetry_Int_Tables_number	1
_symmetry_cell_setting	triclinic
loop_
_symmetry_equiv_pos_as_xyz
  x,y,z
_cell_length_a	13.897449
_cell_length_b	13.897448
_cell_length_c	13.897441
_cell_angle_alpha	90.028012
_cell_angle_beta	90.022859
_cell_angle_gamma	90.019402
loop_
_atom_site_label
_atom_site_type_symbol
_atom_site_fract_x
_atom_site_fract_y
_atom_site_fract_z
Zn1	Zn	-1.474690	0.383988	-0.545453
Zn2	Zn	-1.224690	0.633988	-0.295453
Zn3	Zn	-0.974690	0.883988	-0.045453
Zn4	Zn	-0.724690	1.133988	0.204547
Zn5	Zn	-1.474579	0.545310	-0.384162
Zn6	Zn	-1.224579	0.795310	-0.134162
Zn7	Zn	-0.974579	1.045310	0.115838
Zn8	Zn	-0.724579	1.295310	0.365838
Zn9	Zn	-1.313379	0.384030	-0.384166
Zn10	Zn	-1.063379	0.634030	-0.134166
Zn11	Zn	-0.813379	0.884030	0.115834
Zn12	Zn	-0.563379	1.134030	0.365834
Zn13	Zn	-1.313356	0.545243	-0.545408
Zn14	Zn	-1.063356	0.795243	-0.295408
Zn15	Zn	-0.813356	1.045243	-0.045408
Zn16	Zn	-0.563356	1.295243	0.204592
O17	O	-1.394001	0.464643	-0.464797
O18	O	-1.144001	0.714643	-0.214797
O19	O	-0.894001	0.964643	0.035203
O20	O	-0.644001	1.214643	0.285203
O21	O	-1.609657	0.405399	-0.524075
O22	O	-1.359657	0.655399	-0.274075
O23	O	-1.109657	0.905399	-0.024075
O24	O	-0.859657	1.155399	0.225925
O25	O	-1.453159	0.523962	-0.249181
O26	O	-1.203159	0.773962	0.000819
O27	O	-0.953159	1.023962	0.250819
O28	O	-0.703159	1.273962	0.500819
O29	O	-1.334834	0.249043	-0.405581
O30	O	-1.084834	0.499043	-0.155581
O31	O	-0.834834	0.749043	0.094419
O32	O	-0.584834	0.999043	0.344419
O33	O	-1.609575	0.523921	-0.405575
O34	O	-1.359575	0.773921	-0.155575
O35	O	-1.109575	1.023921	0.094425
O36	O	-0.859575	1.273921	0.344425
O37	O	-1.453348	0.249012	-0.524078
O38	O	-1.203348	0.499012	-0.274078
O39	O	-0.953348	0.749012	-0.024078
O40	O	-0.703348	0.999012	0.225922
O41	O	-1.334726	0.405470	-0.249183
O42	O	-1.084726	0.655470	0.000817
O43	O	-0.834726	0.905470	0.250817
O44	O	-0.584726	1.155470	0.500817
O45	O	-1.178394	0.405405	-0.405538
O46	O	-0.928394	0.655405	-0.155538
O47	O	-0.678394	0.905405	0.094462
O48	O	-0.428394	1.155405	0.344462
O49	O	-1.334794	0.523806	-0.680396
O50	O	-1.084794	0.773806	-0.430396
O51	O	-0.834794	1.023806	-0.180396
O52	O	-0.584794	1.273806	0.069604
O53	O	-1.178377	0.523847	-0.524002
O54	O	-0.928377	0.773847	-0.274002
O55	O	-0.678377	1.023847	-0.024002
O56	O	-0.428377	1.273847	0.225998
O57	O	-1.453325	0.405333	-0.680429
O58	O	-1.203325	0.655333	-0.430429
O59	O	-0.953325	0.905333	-0.180429
O60	O	-0.703325	1.155333	0.069571
O61	O	-1.453136	0.680283	-0.405531
O62	O	-1.203136	0.930283	-0.155531
O63	O	-0.953136	1.180283	0.094469
O64	O	-0.703136	1.430283	0.344469
O65	O	-1.334686	0.680233	-0.523999
O66	O	-1.084686	0.930233	-0.273999
O67	O	-0.834686	1.180233	-0.023999
O68	O	-0.584686	1.430233	0.226001
C69	C	-1.143387	0.464624	-0.464766
C70	C	-0.893387	0.714624	-0.214766
C71	C	-0.643387	0.964624	0.035234
C72	C	-0.393387	1.214624	0.285234
C73	C	-1.036173	0.464639	-0.464775
C74	C	-0.786173	0.714639	-0.214775
C75	C	-0.536173	0.964639	0.035225
C76	C	-0.286173	1.214639	0.285225
C77	C	-0.839878	0.464637	-0.464794
C78	C	-0.589878	0.714637	-0.214794
C79	C	-0.339878	0.964637	0.035206
C80	C	-0.089878	1.214637	0.285206
C81	C	-0.949110	0.464635	-0.464781
C82	C	-0.699110	0.714635	-0.214781
C83	C	-0.449110	0.964635	0.035219
C84	C	-0.199110	1.214635	0.285219
C85	C	-1.393922	0.715257	-0.464781
C86	C	-1.143922	0.965257	-0.214781
C87	C	-0.893922	1.215257	0.035219
C88	C	-0.643922	1.465257	0.285219
C89	C	-1.393977	0.822471	-0.464806
C90	C	-1.143977	1.072471	-0.214806
C91	C	-0.893977	1.322471	0.035194
C92	C	-0.643977	1.572471	0.285194
C93	C	-0.645594	0.464656	-0.464820
C94	C	-0.395594	0.714656	-0.214820
C95	C	-0.145594	0.964656	0.035180
C96	C	0.104406	1.214656	0.285180
C97	C	-0.752808	0.464646	-0.464806
C98	C	-0.502808	0.714646	-0.214806
C99	C	-0.252808	0.964646	0.035194
C100	C	-0.002808	1.214646	0.285194
C101	C	-1.394072	1.018766	-0.464875
C102	C	-1.144072	1.268766	-0.214875
C103	C	-0.894072	1.518766	0.035125
C104	C	-0.644072	1.768766	0.285125
C105	C	-1.394016	0.909534	-0.464840
C106	C	-1.144016	1.159534	-0.214840
C107	C	-0.894016	1.409534	0.035160
C108	C	-0.644016	1.659534	0.285160
C109	C	-1.394069	0.464558	-0.716390
C110	C	-1.144069	0.714558	-0.466390
C111	C	-0.894069	0.964558	-0.216390
C112	C	-0.644069	1.214558	0.033610
C113	C	-1.394098	0.464521	-0.823604
C114	C	-1.144098	0.714521	-0.573604
C115	C	-0.894098	0.964521	-0.323604
C116	C	-0.644098	1.214521	-0.073604
C117	C	-1.394098	1.213050	-0.464846
C118	C	-1.144098	1.463050	-0.214846
C119	C	-0.894098	1.713050	0.035154
C120	C	-0.644098	1.963050	0.285154
C121	C	-1.394118	1.105836	-0.464896
C122	C	-1.144118	1.355836	-0.214896
C123	C	-0.894118	1.605836	0.035104
C124	C	-0.644118	1.855836	0.285104
C125	C	-1.394125	0.464456	-1.019900
C126	C	-1.144125	0.714456	-0.769900
C127	C	-0.894125	0.964456	-0.519900
C128	C	-0.644125	1.214456	-0.269900
C129	C	-1.394107	0.464495	-0.910667
C130	C	-1.144107	0.714495	-0.660667
C131	C	-0.894107	0.964495	-0.410667
C132	C	-0.644107	1.214495	-0.160667
C133	C	-1.393988	0.464658	-0.214183
C134	C	-1.143988	0.714658	0.035817
C135	C	-0.893988	0.964658	0.285817
C136	C	-0.643988	1.214658	0.535817
C137	C	-1.394146	0.464423	-0.106970
C138	C	-1.144146	0.714423	0.143030
C139	C	-0.894146	0.964423	0.393030
C140	C	-0.644146	1.214423	0.643030
