data_functionalizedCrystal
_audit_creation_method	'MofGen! by Chris Wilmer'
_symmetry_space_group_name_H-M	'P1'
_symmetry_Int_Tables_number	1
_symmetry_cell_setting	triclinic
loop_
_symmetry_equiv_pos_as_xyz
  x,y,z
_cell_length_a	10.489741
_cell_length_b	17.699083
_cell_length_c	16.776229
_cell_angle_alpha	90.001114
_cell_angle_beta	89.993659
_cell_angle_gamma	96.088906
loop_
_atom_site_label
_atom_site_type_symbol
_atom_site_fract_x
_atom_site_fract_y
_atom_site_fract_z
O1	O	0.161296	-1.005134	-0.066176
O2	O	0.182281	-0.784893	-0.066202
O3	O	-0.013903	-0.900025	-0.066184
O4	O	0.357479	-0.890002	-0.066194
O5	O	-0.013915	-0.900009	0.066393
O6	O	0.182269	-0.784877	0.066375
O7	O	0.161284	-1.005118	0.066401
Zn8	Zn	0.171774	-0.894995	0.087437
Zn9	Zn	0.171790	-0.895016	-0.087238
O10	O	0.357467	-0.889986	0.066382
C11	C	0.181523	-0.756683	0.000083
C12	C	0.179267	-0.672650	0.000073
N13	N	0.171763	-0.894987	0.206648
C14	C	-0.061427	-0.899260	0.000104
C15	C	-0.203014	-0.896995	0.000102
C16	C	-0.269793	-0.823740	0.000088
C17	C	-0.362564	-0.858337	0.065459
C18	C	-0.362527	-0.858370	-0.065251
C19	C	-0.293920	-0.931623	0.065528
C20	C	-0.293874	-0.931645	-0.065241
C21	C	-0.386619	-0.966296	0.000146
C22	C	0.404991	-0.890751	0.000093
C23	C	0.546578	-0.893016	0.000089
C24	C	0.162042	-1.033328	0.000114
C25	C	0.164297	-1.117361	0.000119
C26	C	0.294422	-0.624782	0.000070
C27	C	0.292295	-0.545825	0.000080
C28	C	0.175011	-0.514737	0.000088
C29	C	0.059847	-0.562611	0.000094
C30	C	0.061975	-0.641567	0.000089
C31	C	0.051260	-0.244192	0.000114
C32	C	0.049140	-0.165230	0.000116
C33	C	0.281580	-0.148450	0.000105
C34	C	0.283709	-0.227406	0.000100
C35	C	0.168545	-0.275273	0.000110
C36	C	0.170853	-0.360887	0.000100
C37	C	0.172702	-0.429124	0.000092
N38	N	0.171791	-0.895030	-0.206450
C39	C	0.084928	-0.945983	0.248373
C40	C	0.084927	-0.945987	0.331826
C41	C	0.171767	-0.894998	0.373551
C42	C	0.258606	-0.843996	0.331820
C43	C	0.258600	-0.843989	0.248369
C44	C	0.258631	-0.844024	0.668367
C45	C	0.258633	-0.844037	0.751824
C46	C	0.084958	-0.946022	0.751823
C47	C	0.084952	-0.946015	0.668373
C48	C	0.171786	-0.895011	0.626649
C49	C	0.171784	-0.895006	0.536161
C50	C	0.171776	-0.895006	0.464038
H51	H	-0.393005	-0.827335	0.120719
C52	C	-0.010573	-1.002121	0.797718
H53	H	-0.062282	-1.032491	0.760915
H54	H	-0.063614	-0.974614	0.830280
H55	H	0.035252	-1.033879	0.830264
C56	C	-0.403598	-0.816497	-0.139911
H57	H	-0.460910	-0.849916	-0.170693
H58	H	-0.330073	-0.800008	-0.170896
H59	H	-0.445170	-0.773733	-0.124199
C60	C	0.423437	-0.658972	0.000061
H61	H	0.491713	-0.619153	0.000068
H62	H	0.429106	-0.689422	-0.046173
H63	H	0.429093	-0.689425	0.046298
H64	H	0.329336	-0.802496	0.634402
H65	H	-0.263400	-0.962621	-0.120504
H66	H	-0.031796	-0.680540	0.000091
H67	H	0.386067	-0.506854	0.000077
H68	H	0.329308	-0.802462	0.214397
H69	H	0.014218	-0.987507	0.214406
H70	H	-0.219023	-0.763510	0.000147
H71	H	0.379213	-0.252713	0.000090
C72	C	-0.253062	-0.973444	0.140275
H73	H	-0.162725	-0.974603	0.139839
H74	H	-0.294116	-1.023933	0.140474
H75	H	-0.277120	-0.947580	0.186633
H76	H	0.375352	-0.109467	0.000101
H77	H	-0.042514	-0.283156	0.000122
C78	C	-0.079874	-0.131031	0.000127
H79	H	-0.064643	-0.077152	0.000119
H80	H	-0.127283	-0.147415	0.046362
H81	H	-0.127278	-0.147418	-0.046108
H82	H	-0.035648	-0.537293	0.000111
C83	C	0.354139	-0.787932	0.797721
H84	H	0.405840	-0.757547	0.760920
H85	H	0.407189	-0.815435	0.830271
H86	H	0.308291	-0.756190	0.830278
C87	C	-0.454914	-1.047729	0.000204
H88	H	-0.431445	-1.073618	0.046683
H89	H	-0.430357	-1.073953	-0.045787
H90	H	-0.545085	-1.045850	-0.000232
H91	H	0.014219	-0.987512	0.365798
C92	C	0.354131	-0.787911	0.377716
H93	H	0.341709	-0.795224	0.433392
H94	H	0.340388	-0.737324	0.364049
H95	H	0.439241	-0.796596	0.364027
C96	C	-0.010576	-1.002100	0.622479
H97	H	-0.062302	-1.032468	0.659282
H98	H	0.035233	-1.033850	0.589913
H99	H	-0.063618	-0.974577	0.589937
