data_functionalizedCrystal
_audit_creation_method	'MofGen! by Chris Wilmer'
_symmetry_space_group_name_H-M	'P1'
_symmetry_Int_Tables_number	1
_symmetry_cell_setting	triclinic
loop_
_symmetry_equiv_pos_as_xyz
  x,y,z
_cell_length_a	14.519731
_cell_length_b	14.519709
_cell_length_c	13.596369
_cell_angle_alpha	89.999709
_cell_angle_beta	89.993029
_cell_angle_gamma	96.315501
loop_
_atom_site_label
_atom_site_type_symbol
_atom_site_fract_x
_atom_site_fract_y
_atom_site_fract_z
O1	O	0.120892	-1.223878	-0.081666
O2	O	0.135128	-0.955402	-0.081696
O3	O	-0.006227	-1.096748	-0.081671
O4	O	0.262247	-1.082532	-0.081690
O5	O	-0.006235	-1.096734	0.081912
O6	O	0.135120	-0.955388	0.081887
O7	O	0.120884	-1.223864	0.081917
Zn8	Zn	0.128001	-1.089623	0.107874
Zn9	Zn	0.128011	-1.089642	-0.107653
O10	O	0.262239	-1.082518	0.081892
C11	C	0.134461	-0.921035	0.000092
C12	C	0.132473	-0.818654	0.000080
C13	C	-0.040591	-1.096075	0.000121
C14	C	-0.142971	-1.094079	0.000121
C15	C	-0.226115	-1.092457	0.000119
C16	C	-0.330424	-1.090430	0.000111
C17	C	-0.413563	-1.088822	0.000104
C18	C	-0.517878	-1.086795	0.000098
C19	C	0.121551	-1.258230	0.000128
C20	C	0.123539	-1.360612	0.000132
C21	C	0.296603	-1.083191	0.000099
C22	C	0.398983	-1.085187	0.000092
N23	N	0.127994	-1.089617	0.254966
C24	C	0.125153	-0.443757	0.000126
C25	C	0.127186	-0.548065	0.000113
C26	C	0.128813	-0.631202	0.000102
C27	C	0.130846	-0.735517	0.000091
N28	N	0.128011	-1.089655	-0.254745
C29	C	0.128012	-1.089641	0.656257
C30	C	0.128010	-1.089632	0.544606
C31	C	0.128004	-1.089630	0.455615
C32	C	0.128000	-1.089619	0.343957
