data_functionalizedCrystal
_audit_creation_method	'MofGen! by Chris Wilmer'
_symmetry_space_group_name_H-M	'P1'
_symmetry_Int_Tables_number	1
_symmetry_cell_setting	triclinic
loop_
_symmetry_equiv_pos_as_xyz
  x,y,z
_cell_length_a	17.699083
_cell_length_b	17.766277
_cell_length_c	17.699104
_cell_angle_alpha	89.992695
_cell_angle_beta	83.287266
_cell_angle_gamma	89.996667
loop_
_atom_site_label
_atom_site_type_symbol
_atom_site_fract_x
_atom_site_fract_y
_atom_site_fract_z
O1	O	1.004088	-0.062490	0.095711
O2	O	1.504088	0.437510	0.595711
O3	O	0.783711	-0.062515	0.108164
O4	O	1.283711	0.437485	0.608164
O5	O	0.900117	-0.062495	-0.008251
O6	O	1.400117	0.437505	0.491749
O7	O	0.887681	-0.062510	0.212126
O8	O	1.387681	0.437490	0.712126
O9	O	0.900097	0.062693	-0.008256
O10	O	1.400097	0.562693	0.491744
O11	O	0.783690	0.062673	0.108158
O12	O	1.283690	0.562673	0.608158
O13	O	1.004068	0.062698	0.095706
O14	O	1.504068	0.562698	0.595706
Cu15	Cu	0.893877	0.074117	0.101931
Cu16	Cu	1.393877	0.574117	0.601931
Cu17	Cu	0.893901	-0.073933	0.101938
Cu18	Cu	1.393901	0.426067	0.601938
O19	O	0.887661	0.062678	0.212120
O20	O	1.387661	0.562678	0.712120
C21	C	0.755503	0.000076	0.107715
C22	C	1.255503	0.500076	0.607715
C23	C	0.671485	0.000067	0.106376
C24	C	1.171485	0.500067	0.606376
N25	N	0.893866	0.178247	0.101926
N26	N	1.393866	0.678247	0.601926
C27	C	0.899659	0.000099	-0.036450
C28	C	1.399659	0.500099	0.463550
C29	C	0.898314	0.000099	-0.120467
C30	C	1.398314	0.500099	0.379533
C31	C	0.622869	0.000062	0.174709
C32	C	1.122869	0.500062	0.674709
C33	C	0.543926	0.000072	0.173446
C34	C	1.043926	0.500072	0.673446
C35	C	0.513600	0.000081	0.103851
C36	C	1.013600	0.500081	0.603851
C37	C	0.562222	0.000088	0.035513
C38	C	1.062222	0.500088	0.535513
C39	C	0.641164	0.000083	0.036776
C40	C	1.141164	0.500083	0.536776
C41	C	0.243859	0.000107	0.030418
C42	C	0.743859	0.500107	0.530418
C43	C	0.164911	0.000109	0.029160
C44	C	0.664911	0.500109	0.529160
C45	C	0.146621	0.000096	0.167088
C46	C	0.646621	0.500096	0.667088
C47	C	0.225563	0.000091	0.168351
C48	C	0.725563	0.500091	0.668351
C49	C	0.274178	0.000102	0.100014
C50	C	0.774178	0.500102	0.600014
C51	C	0.359777	0.000093	0.101383
C52	C	0.859777	0.500093	0.601383
C53	C	0.428002	0.000085	0.102480
C54	C	0.928002	0.500085	0.602480
C55	C	1.032275	0.000105	0.096155
C56	C	1.532275	0.500105	0.596155
C57	C	1.116293	0.000110	0.097493
C58	C	1.616293	0.500110	0.597493
N59	N	0.893919	-0.178064	0.101938
N60	N	1.393919	0.321936	0.601938
C61	C	0.945427	0.217643	0.050403
C62	C	1.445427	0.717643	0.550403
C63	C	0.945432	0.296444	0.050399
C64	C	1.445432	0.796444	0.550399
C65	C	0.893882	0.335847	0.101932
C66	C	1.393882	0.835847	0.601932
C67	C	0.842310	0.296442	0.153459
C68	C	1.342310	0.796442	0.653459
C69	C	0.842302	0.217642	0.153456
C70	C	1.342302	0.717642	0.653456
C71	C	0.883843	0.460680	0.170880
C72	C	1.383843	0.960680	0.670880
C73	C	0.883856	0.539479	0.170884
C74	C	1.383856	1.039479	0.670884
C75	C	0.893902	0.578894	0.101941
C76	C	1.393902	1.078894	0.601941
C77	C	0.903950	0.539500	0.032991
C78	C	1.403950	1.039500	0.532991
C79	C	0.903942	0.460700	0.032988
C80	C	1.403942	0.960700	0.532988
C81	C	0.893884	0.421293	0.101940
C82	C	1.393884	0.921293	0.601940
C83	C	0.945471	0.703735	0.050410
C84	C	1.445471	1.203735	0.550410
C85	C	0.945470	0.782539	0.050405
C86	C	1.445470	1.282539	0.550405
C87	C	0.842353	0.782535	0.153471
C88	C	1.342353	1.282535	0.653471
C89	C	0.842350	0.703733	0.153469
C90	C	1.342350	1.203733	0.653469
C91	C	0.893913	0.664338	0.101939
C92	C	1.393913	1.164338	0.601939
C93	C	0.959058	0.000085	-0.645338
C94	C	1.459058	0.500085	-0.145338
C95	C	0.960317	0.000092	-0.566395
C96	C	1.460317	0.500092	-0.066395
C97	C	0.891982	0.000086	-0.517777
C98	C	1.391982	0.500086	-0.017777
C99	C	0.822383	0.000080	-0.548107
C100	C	1.322383	0.500080	-0.048107
C101	C	0.821125	0.000079	-0.627049
C102	C	1.321125	0.500079	-0.127049
C103	C	0.827456	0.000087	-0.229741
C104	C	1.327456	0.500087	0.270259
C105	C	0.828720	0.000086	-0.150794
C106	C	1.328720	0.500086	0.349206
C107	C	0.966648	0.000100	-0.169086
C108	C	1.466648	0.500100	0.330914
C109	C	0.965390	0.000098	-0.248029
C110	C	1.465390	0.500098	0.251971
C111	C	0.895792	0.000097	-0.278352
C112	C	1.395792	0.500097	0.221648
C113	C	0.894427	0.000091	-0.363951
C114	C	1.394427	0.500091	0.136049
C115	C	0.893345	0.000086	-0.432179
C116	C	1.393345	0.500086	0.067821
C117	C	0.888120	0.000082	0.240319
C118	C	1.388120	0.500082	0.740319
C119	C	0.889464	0.000077	0.324337
C120	C	1.389464	0.500077	0.824337
H121	H	0.647554	0.000055	0.231382
H122	H	1.147554	0.500055	0.731382
H123	H	0.140223	0.000117	-0.027517
H124	H	0.640223	0.500117	0.472483
C125	C	1.034228	0.000092	-0.698811
C126	C	1.534228	0.500092	-0.198811
H127	H	1.075855	0.000105	-0.669441
H128	H	1.575855	0.500105	-0.169441
H129	H	1.036614	-0.043563	-0.729982
H130	H	1.536614	0.456437	-0.229982
H131	H	1.036595	0.043754	-0.729990
H132	H	1.536595	0.543754	-0.229990
H133	H	0.766743	0.000080	-0.508516
H134	H	1.266743	0.500080	-0.008516
C135	C	0.297325	0.000113	-0.044750
C136	C	0.797325	0.500113	0.455250
H137	H	0.267955	0.000111	-0.086378
H138	H	0.767955	0.500111	0.413622
H139	H	0.328500	0.043768	-0.047129
H140	H	0.828500	0.543768	0.452871
H141	H	0.328501	-0.043549	-0.047125
H142	H	0.828501	0.456451	0.452875
C143	C	1.002192	0.825874	-0.006272
C144	C	1.502192	1.325874	0.493728
H145	H	1.032903	0.791123	-0.036954
H146	H	1.532903	1.291123	0.463046
H147	H	0.975033	0.856624	-0.037748
H148	H	1.475033	1.356624	0.462252
H149	H	1.033648	0.856604	0.020926
H150	H	1.533648	1.356604	0.520926
H151	H	0.764455	0.000079	-0.651738
H152	H	1.264455	0.500079	-0.151738
H153	H	0.107028	0.000091	0.222732
H154	H	0.607028	0.500091	0.722732
C155	C	0.694645	0.000087	-0.038388
C156	C	1.194645	0.500087	0.461612
H157	H	0.746002	0.000091	-0.027669
H158	H	1.246002	0.500091	0.472331
H159	H	0.685468	-0.043564	-0.066933
H160	H	1.185468	0.456436	0.433067
H161	H	0.685464	0.043753	-0.066930
H162	H	1.185464	0.543753	0.433070
H163	H	0.537525	0.000106	-0.021153
H164	H	1.037525	0.500106	0.478847
H165	H	0.987455	0.671659	0.008449
H166	H	1.487455	1.171659	0.508449
H167	H	0.875650	0.428595	0.227025
H168	H	1.375650	0.928595	0.727025
C169	C	1.002136	0.174312	-0.006286
C170	C	1.502136	0.674312	0.493714
H171	H	1.032841	0.209066	-0.036977
H172	H	1.532841	0.709066	0.463023
H173	H	1.033588	0.143559	0.020896
H174	H	1.533588	0.643559	0.520896
H175	H	0.974959	0.143586	-0.037763
H176	H	1.474959	0.643586	0.462237
C177	C	1.002153	0.339792	-0.006274
C178	C	1.502153	0.839792	0.493726
H179	H	0.994769	0.392365	0.001107
H180	H	1.494769	0.892365	0.501107
H181	H	1.052645	0.326869	0.001887
H182	H	1.552645	0.826869	0.501887
H183	H	0.994026	0.326892	-0.056782
H184	H	1.494026	0.826892	0.443218
C185	C	0.490452	0.000065	0.248613
C186	C	0.990452	0.500065	0.748613
H187	H	0.519819	0.000050	0.290242
H188	H	1.019819	0.500050	0.790242
H189	H	0.459277	0.043723	0.250989
H190	H	0.959277	0.543723	0.750989
H191	H	0.459276	-0.043594	0.250986
H192	H	0.959276	0.456406	0.750986
C193	C	0.914983	0.417367	-0.042849
C194	C	1.414983	0.917367	0.457151
H195	H	0.921070	0.452120	-0.083910
H196	H	1.421070	0.952120	0.416090
H197	H	0.958987	0.386535	-0.044392
H198	H	1.458987	0.886535	0.455608
H199	H	0.871686	0.386720	-0.047036
H200	H	1.371686	0.886720	0.452964
C201	C	0.915005	0.582842	-0.042852
C202	C	1.415005	1.082842	0.457148
H203	H	0.920995	0.548095	-0.083913
H204	H	1.420995	1.048095	0.416087
H205	H	0.871774	0.613590	-0.047003
H206	H	1.371774	1.113590	0.452997
H207	H	0.959085	0.613574	-0.044434
H208	H	1.459085	1.113574	0.455566
C209	C	0.785648	0.825869	0.210156
C210	C	1.285648	1.325869	0.710156
H211	H	0.793039	0.878442	0.202782
H212	H	1.293039	1.378442	0.702782
H213	H	0.735152	0.812963	0.202001
H214	H	1.235152	1.312963	0.702001
H215	H	0.793780	0.812945	0.260661
H216	H	1.293780	1.312945	0.760661
C217	C	1.043206	0.000113	-0.135729
C218	C	1.543206	0.500113	0.364271
H219	H	1.034173	0.000122	-0.081751
H220	H	1.534173	0.500122	0.418249
H221	H	1.071344	-0.043540	-0.152417
H222	H	1.571344	0.456460	0.347583
H223	H	1.071328	0.043777	-0.152433
H224	H	1.571328	0.543777	0.347567
C225	C	0.785609	0.339782	0.210145
C226	C	1.285609	0.839782	0.710145
H227	H	0.793004	0.392356	0.202773
H228	H	1.293004	0.892356	0.702773
H229	H	0.735112	0.326880	0.201989
H230	H	1.235112	0.826880	0.701989
H231	H	0.793740	0.326855	0.260650
H232	H	1.293740	0.826855	0.760650
C233	C	0.258917	0.000085	0.244906
C234	C	0.758917	0.500085	0.744906
H235	H	0.218656	0.000091	0.285423
H236	H	0.718656	0.500091	0.785423
H237	H	0.289334	-0.043571	0.248270
H238	H	0.789334	0.456429	0.748270
H239	H	0.289330	0.043746	0.248259
H240	H	0.789330	0.543746	0.748259
H241	H	1.016987	0.000098	-0.541708
H242	H	1.516987	0.500098	-0.041708
H243	H	0.800367	0.671655	0.195427
H244	H	1.300367	1.171655	0.695427
H245	H	0.800314	0.185565	0.195413
H246	H	1.300314	0.685565	0.695413
H247	H	0.875679	0.571547	0.227027
H248	H	1.375679	1.071547	0.727027
C249	C	1.040558	0.000108	-0.301504
C250	C	1.540558	0.500108	0.198496
H251	H	1.082187	0.000121	-0.272136
H252	H	1.582187	0.500121	0.227864
H253	H	1.042944	-0.043546	-0.332677
H254	H	1.542944	0.456454	0.167323
H255	H	1.042923	0.043772	-0.332681
H256	H	1.542923	0.543772	0.167319
C257	C	0.750902	0.000080	-0.263087
C258	C	1.250902	0.500080	0.236913
H259	H	0.710386	0.000068	-0.222824
H260	H	1.210386	0.500068	0.277176
H261	H	0.747533	0.043735	-0.293506
H262	H	1.247533	0.543735	0.206494
H263	H	0.747549	-0.043582	-0.293496
H264	H	1.247549	0.456418	0.206504
C265	C	0.753548	0.000087	-0.097315
C266	C	1.253548	0.500087	0.402685
H267	H	0.711917	0.000094	-0.126680
H268	H	1.211917	0.500094	0.373320
H269	H	0.751175	-0.043568	-0.066134
H270	H	1.251175	0.456432	0.433866
H271	H	0.751173	0.043749	-0.066146
H272	H	1.251173	0.543749	0.433854
