data_functionalizedCrystal
_audit_creation_method	'MofGen! by Chris Wilmer'
_symmetry_space_group_name_H-M	'P1'
_symmetry_Int_Tables_number	1
_symmetry_cell_setting	triclinic
loop_
_symmetry_equiv_pos_as_xyz
  x,y,z
_cell_length_a	18.050591
_cell_length_b	18.050589
_cell_length_c	13.032268
_cell_angle_alpha	82.850583
_cell_angle_beta	82.842055
_cell_angle_gamma	90.024669
loop_
_atom_site_label
_atom_site_type_symbol
_atom_site_fract_x
_atom_site_fract_y
_atom_site_fract_z
Zn1	Zn	1.081955	-0.349040	0.591013
Zn2	Zn	1.415289	-0.015706	0.924346
Zn3	Zn	1.748622	0.317627	1.257680
Zn4	Zn	1.097635	-0.457476	0.416282
Zn5	Zn	1.430968	-0.124143	0.749616
Zn6	Zn	1.764302	0.209191	1.082949
Zn7	Zn	0.973544	-0.333296	0.416274
Zn8	Zn	1.306878	0.000037	0.749607
Zn9	Zn	1.640211	0.333371	1.082941
Zn10	Zn	0.957728	-0.473179	0.590953
Zn11	Zn	1.291061	-0.139846	0.924287
Zn12	Zn	1.624395	0.193487	1.257620
O13	O	1.027716	-0.403248	0.503631
O14	O	1.361049	-0.069914	0.836964
O15	O	1.694382	0.263419	1.170297
O16	O	1.187957	-0.363441	0.567863
O17	O	1.521291	-0.030108	0.901197
O18	O	1.854624	0.303226	1.234530
O19	O	1.094355	-0.427843	0.270052
O20	O	1.427689	-0.094509	0.603385
O21	O	1.761022	0.238824	0.936719
O22	O	0.987982	-0.231462	0.439475
O23	O	1.321316	0.101872	0.772809
O24	O	1.654649	0.435205	1.106142
O25	O	1.199477	-0.443109	0.439489
O26	O	1.532810	-0.109775	0.772823
O27	O	1.866144	0.223558	1.106156
O28	O	1.067632	-0.243029	0.567855
O29	O	1.400965	0.090305	0.901189
O30	O	1.734298	0.423638	1.234522
O31	O	1.003186	-0.336608	0.270046
O32	O	1.336520	-0.003275	0.603379
O33	O	1.669853	0.330059	0.936713
O34	O	0.867524	-0.351835	0.439417
O35	O	1.200858	-0.018502	0.772751
O36	O	1.534191	0.314832	1.106084
O37	O	0.961026	-0.469873	0.737191
O38	O	1.294359	-0.136539	1.070524
O39	O	1.627693	0.196794	1.403857
O40	O	0.855904	-0.454607	0.567753
O41	O	1.189237	-0.121273	0.901087
O42	O	1.522571	0.212060	1.234420
O43	O	1.052295	-0.378668	0.737234
O44	O	1.385629	-0.045334	1.070568
O45	O	1.718962	0.287999	1.403901
O46	O	1.079019	-0.563482	0.439431
O47	O	1.412352	-0.230148	0.772765
O48	O	1.745686	0.103185	1.106098
O49	O	0.976230	-0.575019	0.567761
O50	O	1.309563	-0.241686	0.901095
O51	O	1.642896	0.091648	1.234428
C52	C	0.834768	-0.403217	0.503578
C53	C	1.168102	-0.069884	0.836912
C54	C	1.501435	0.263450	1.170245
C55	C	0.752222	-0.403224	0.503581
C56	C	1.085556	-0.069890	0.836914
C57	C	1.418889	0.263443	1.170248
C58	C	1.027628	-0.596198	0.503613
C59	C	1.360961	-0.262865	0.836947
C60	C	1.694294	0.070468	1.170280
C61	C	1.027655	-0.678747	0.503641
C62	C	1.360988	-0.345413	0.836974
C63	C	1.694321	-0.012080	1.170308
C64	C	0.509679	-0.347300	0.433957
C65	C	0.843013	-0.013967	0.767290
C66	C	1.176346	0.319366	1.100623
C67	C	0.550505	-0.337813	0.529321
C68	C	0.883838	-0.004480	0.862654
C69	C	1.217172	0.328853	1.195987
C70	C	0.455094	-0.403269	0.503666
C71	C	0.788427	-0.069936	0.837000
C72	C	1.121761	0.263397	1.170333
C73	C	0.561353	-0.412699	0.408266
C74	C	0.894687	-0.079366	0.741599
C75	C	1.228020	0.253967	1.074933
C76	C	0.601083	-0.403245	0.503619
C77	C	0.934417	-0.069911	0.836953
C78	C	1.267750	0.263422	1.170286
C79	C	0.494828	-0.393752	0.599081
C80	C	0.828161	-0.060419	0.932414
C81	C	1.161495	0.272914	1.265748
C82	C	0.505678	-0.468664	0.477962
C83	C	0.839011	-0.135331	0.811295
C84	C	1.172345	0.198003	1.144629
C85	C	0.546475	-0.459209	0.573392
C86	C	0.879809	-0.125875	0.906725
C87	C	1.213142	0.207458	1.240058
C88	C	0.370994	-0.403282	0.503692
C89	C	0.704327	-0.069948	0.837025
C90	C	1.037660	0.263385	1.170359
C91	C	0.685181	-0.403234	0.503604
C92	C	1.018515	-0.069900	0.836938
C93	C	1.351848	0.263433	1.170271
C94	C	0.971809	-0.884496	0.573402
C95	C	1.305142	-0.551163	0.906736
C96	C	1.638476	-0.217829	1.240069
C97	C	0.962317	-0.925335	0.478047
C98	C	1.295650	-0.592002	0.811380
C99	C	1.628983	-0.258669	1.144713
C100	C	1.027726	-0.829878	0.503655
C101	C	1.361060	-0.496545	0.836988
C102	C	1.694393	-0.163212	1.170321
C103	C	1.037254	-0.936122	0.599021
C104	C	1.370588	-0.602788	0.932354
C105	C	1.703921	-0.269455	1.265688
C106	C	1.027794	-0.975865	0.503676
C107	C	1.361127	-0.642532	0.837009
C108	C	1.694460	-0.309199	1.170343
C109	C	1.018203	-0.869626	0.408248
C110	C	1.351536	-0.536292	0.741582
C111	C	1.684870	-0.202959	1.074915
C112	C	1.093166	-0.880414	0.529287
C113	C	1.426500	-0.547080	0.862620
C114	C	1.759833	-0.213747	1.195954
C115	C	1.083706	-0.921225	0.433866
C116	C	1.417039	-0.587891	0.767199
C117	C	1.750372	-0.254558	1.100532
C118	C	1.027686	-0.745779	0.503643
C119	C	1.361019	-0.412446	0.836977
C120	C	1.694352	-0.079112	1.170310
C121	C	1.027835	-1.059962	0.503676
C122	C	1.361169	-0.726628	0.837010
C123	C	1.694502	-0.393295	1.170343
C124	C	1.221416	-0.403279	0.503684
C125	C	1.554750	-0.069946	0.837017
C126	C	1.888083	0.263387	1.170350
C127	C	1.303960	-0.403293	0.503706
C128	C	1.637294	-0.069960	0.837040
C129	C	1.970627	0.263374	1.170373
C130	C	1.003147	-0.427778	0.776188
C131	C	1.336481	-0.094445	1.109522
C132	C	1.669814	0.238889	1.442855
C133	C	0.992678	-0.438231	0.892336
C134	C	1.326011	-0.104898	1.225669
C135	C	1.659344	0.228435	1.559003
C136	C	1.027822	-0.209546	0.503671
C137	C	1.361156	0.123788	0.837004
C138	C	1.694489	0.457121	1.170338
C139	C	1.027868	-0.127002	0.503688
C140	C	1.361201	0.206332	0.837022
C141	C	1.694534	0.539665	1.170355
C142	C	1.052231	-0.378759	0.232134
C143	C	1.385565	-0.045426	0.565467
C144	C	1.718898	0.287907	0.898800
C145	C	1.062845	-0.368097	0.115986
C146	C	1.396178	-0.034764	0.449320
C147	C	1.729511	0.298570	0.782653
C148	C	1.033168	-0.397765	0.944140
C149	C	1.366502	-0.064432	1.277473
C150	C	1.699835	0.268901	1.610807
C151	C	1.022348	-0.408568	1.064185
C152	C	1.355682	-0.075235	1.397518
C153	C	1.689015	0.258098	1.730852
H154	H	0.493311	-0.299954	0.375098
H155	H	0.826645	0.033379	0.708432
H156	H	1.159978	0.366713	1.041765
H157	H	0.907007	-0.945160	0.456386
H158	H	1.240340	-0.611826	0.789720
H159	H	1.573674	-0.278493	1.123053
H160	H	1.105520	-0.325447	1.071470
H161	H	1.438853	0.007886	1.404804
H162	H	1.772186	0.341219	1.738137
H163	H	0.570255	-0.282500	0.551061
H164	H	0.903589	0.050834	0.884394
H165	H	1.236922	0.384167	1.217728
F166	F	0.457123	-0.383227	0.704540
F167	F	0.790456	-0.049894	1.037873
F168	F	1.123789	0.283439	1.371206
F169	F	1.145561	-0.942389	0.356697
F170	F	1.478895	-0.609055	0.690030
F171	F	1.812228	-0.275722	1.023363
F172	F	0.966560	-0.464306	1.122368
F173	F	1.299893	-0.130972	1.455701
F174	F	1.633227	0.202361	1.789035
H175	H	0.562695	-0.506536	0.632391
H176	H	0.896028	-0.173203	0.965724
H177	H	1.229362	0.160130	1.299057
F178	F	1.088935	-0.342013	0.885953
F179	F	1.422268	-0.008679	1.219286
F180	F	1.755601	0.324654	1.552620
H181	H	0.590293	-0.420686	0.327607
H182	H	0.923626	-0.087353	0.660940
H183	H	1.256959	0.245981	0.994273
F184	F	0.936892	-0.493965	0.950523
F185	F	1.270226	-0.160632	1.283856
F186	F	1.603559	0.172701	1.617190
H187	H	0.485900	-0.523957	0.456206
H188	H	0.819233	-0.190624	0.789539
H189	H	1.152567	0.142709	1.122873
F190	F	0.909932	-0.863135	0.650390
F191	F	1.243266	-0.529802	0.983724
F192	F	1.576599	-0.196468	1.317057
F193	F	1.007622	-0.831937	0.302813
F194	F	1.340955	-0.498603	0.636146
F195	F	1.674288	-0.165270	0.969480
H196	H	1.148459	-0.860595	0.550993
H197	H	1.481792	-0.527262	0.884327
H198	H	1.815125	-0.193928	1.217660
H199	H	1.045287	-0.965046	0.679663
H200	H	1.378620	-0.631713	1.012996
H201	H	1.711954	-0.298379	1.346329
