data_functionalizedCrystal
_audit_creation_method	'MofGen! by Chris Wilmer'
_symmetry_space_group_name_H-M	'P1'
_symmetry_Int_Tables_number	1
_symmetry_cell_setting	triclinic
loop_
_symmetry_equiv_pos_as_xyz
  x,y,z
_cell_length_a	12.837943
_cell_length_b	10.540539
_cell_length_c	11.295483
_cell_angle_alpha	94.138588
_cell_angle_beta	85.461227
_cell_angle_gamma	89.677216
loop_
_atom_site_label
_atom_site_type_symbol
_atom_site_fract_x
_atom_site_fract_y
_atom_site_fract_z
O1	O	1.384822	0.322576	-0.098993
O2	O	1.884822	0.822576	0.401007
O3	O	1.082896	0.306260	-0.099000
O4	O	1.582896	0.806260	0.401000
O5	O	1.240747	0.130469	-0.098995
O6	O	1.740747	0.630469	0.401005
O7	O	1.226971	0.498368	-0.098998
O8	O	1.726971	0.998368	0.401002
O9	O	1.226883	0.145882	0.099055
O10	O	1.726883	0.645882	0.599055
O11	O	1.069032	0.321674	0.099050
O12	O	1.569032	0.821674	0.599050
O13	O	1.370958	0.337990	0.099057
O14	O	1.870958	0.837990	0.599057
Cu15	Cu	1.218729	0.331239	0.117137
Cu16	Cu	1.718729	0.831239	0.617137
Cu17	Cu	1.235125	0.313011	-0.117080
Cu18	Cu	1.735125	0.813011	0.382920
O19	O	1.213106	0.513782	0.099052
O20	O	1.713106	1.013782	0.599052
C21	C	1.037303	0.308455	0.000024
C22	C	1.537303	0.808455	0.500024
C23	C	0.922104	0.292017	0.000021
C24	C	1.422104	0.792017	0.500021
C25	C	0.682608	0.489637	0.000036
C26	C	1.182608	0.989637	0.500036
C27	C	0.574368	0.474197	0.000034
C28	C	1.074368	0.974197	0.500034
C29	C	0.597381	0.245700	0.000023
C30	C	1.097381	0.745700	0.500023
C31	C	0.705621	0.261140	0.000025
C32	C	1.205621	0.761140	0.500025
C33	C	0.748230	0.383112	0.000030
C34	C	1.248230	0.883112	0.500030
C35	C	0.856473	0.398549	0.000023
C36	C	1.356473	0.898549	0.500023
C37	C	0.879484	0.170054	0.000021
C38	C	1.379484	0.670054	0.500021
C39	C	0.771244	0.154615	0.000019
C40	C	1.271244	0.654615	0.500019
C41	C	1.232782	0.090759	0.000028
C42	C	1.732782	0.590759	0.500028
C43	C	1.229692	-0.050529	0.000022
C44	C	1.729692	0.449471	0.500022
C45	C	1.111280	-0.247004	-0.000426
C46	C	1.611280	0.252996	0.499574
C47	C	1.114382	-0.100007	0.000020
C48	C	1.614382	0.399993	0.500020
C49	C	1.277266	-0.097288	0.113119
C50	C	1.777266	0.402712	0.613119
C51	C	1.273324	-0.244258	0.113215
C52	C	1.773324	0.255742	0.613215
C53	C	1.291436	-0.262047	-0.112006
C54	C	1.791436	0.237953	0.387994
C55	C	1.292603	-0.115064	-0.113501
C56	C	1.792603	0.384936	0.386499
C57	C	1.416551	0.335795	0.000031
C58	C	1.916551	0.835795	0.500031
C59	C	1.531750	0.352233	0.000026
C60	C	2.031750	0.852233	0.500026
C61	C	1.221072	0.553491	0.000026
C62	C	1.721072	1.053491	0.500026
C63	C	1.224163	0.694779	0.000025
C64	C	1.724163	1.194779	0.500025
N65	N	1.207204	0.344061	0.281873
N66	N	1.707204	0.844061	0.781873
N67	N	1.246658	0.300181	-0.281816
N68	N	1.746658	0.800181	0.218184
C69	C	1.329620	0.207816	0.531167
C70	C	1.829620	0.707816	1.031167
C71	C	1.320918	0.217515	0.655830
C72	C	1.820918	0.717515	1.155830
C73	C	1.181093	0.373150	0.655866
C74	C	1.681093	0.873150	1.155866
C75	C	1.189795	0.363451	0.531202
C76	C	1.689795	0.863451	1.031202
C77	C	1.264062	0.280783	0.468857
C78	C	1.764062	0.780783	0.968857
C79	C	1.272769	0.271091	0.344192
C80	C	1.772769	0.771091	0.844192
C81	C	1.132940	0.426719	0.344229
C82	C	1.632940	0.926719	0.844229
C83	C	1.124238	0.436418	0.468892
C84	C	1.624238	0.936418	0.968892
H85	H	0.932927	0.083313	0.000008
H86	H	1.432927	0.583313	0.500008
F87	F	1.059161	-0.299174	-0.106437
F88	F	1.559161	0.200826	0.393563
F89	F	0.725884	0.024810	0.000018
F90	F	1.225884	0.524810	0.500018
H91	H	0.562663	0.146404	0.000118
H92	H	1.062663	0.646404	0.500118
F93	F	1.102049	0.461114	0.722231
F94	F	1.602049	0.961114	1.222231
F95	F	1.063170	0.504385	0.277903
F96	F	1.563170	1.004385	0.777903
H97	H	1.060270	-0.275919	0.080222
H98	H	1.560270	0.224081	0.580222
H99	H	1.076394	-0.068510	-0.081053
H100	H	1.576394	0.431490	0.418947
F101	F	1.049477	-0.043476	0.106160
F102	F	1.549477	0.456524	0.606160
H103	H	0.891163	0.497865	0.000029
H104	H	1.391163	0.997865	0.500029
F105	F	1.403112	-0.072022	-0.122433
F106	F	1.903112	0.427978	0.377567
H107	H	1.390098	0.140514	0.480405
H108	H	1.890098	0.640514	0.980405
F109	F	1.211980	-0.278410	0.223712
F110	F	1.711980	0.221590	0.723712
F111	F	1.381245	-0.294528	0.119936
F112	F	1.881245	0.205472	0.619936
H113	H	0.717300	0.588951	0.000038
H114	H	1.217300	1.088951	0.500038
F115	F	1.387564	-0.055484	0.118623
F116	F	1.887564	0.444516	0.618623
F117	F	1.219182	-0.038586	0.223127
F118	F	1.719182	0.461414	0.723127
H119	H	1.260117	-0.304371	-0.197726
H120	H	1.760117	0.195629	0.302274
H121	H	0.520940	0.560942	0.000042
H122	H	1.020940	1.060942	0.500042
F123	F	1.390692	0.139851	0.722141
F124	F	1.890692	0.639851	1.222141
H125	H	1.257857	-0.085178	-0.197168
H126	H	1.757857	0.414822	0.302832
H127	H	1.374776	-0.300181	-0.112764
H128	H	1.874776	0.199819	0.387236
F129	F	1.351811	0.183113	0.277842
F130	F	1.851811	0.683113	0.777842
H131	H	1.063768	0.503721	0.519668
H132	H	1.563768	1.003721	1.019668
