data_functionalizedCrystal
_audit_creation_method	'MofGen! by Chris Wilmer'
_symmetry_space_group_name_H-M	'P1'
_symmetry_Int_Tables_number	1
_symmetry_cell_setting	triclinic
loop_
_symmetry_equiv_pos_as_xyz
  x,y,z
_cell_length_a	10.654550
_cell_length_b	17.038272
_cell_length_c	9.130313
_cell_angle_alpha	89.998262
_cell_angle_beta	89.996220
_cell_angle_gamma	87.798229
loop_
_atom_site_label
_atom_site_type_symbol
_atom_site_fract_x
_atom_site_fract_y
_atom_site_fract_z
O1	O	1.678036	0.109874	-0.121922
O2	O	1.313530	0.120343	-0.121899
O3	O	1.493617	0.001281	-0.121899
O4	O	1.497950	0.228936	-0.121923
O5	O	1.493615	0.001284	0.121700
O6	O	1.313528	0.120346	0.121700
O7	O	1.678034	0.109878	0.121676
Cu8	Cu	1.495781	0.115112	0.143931
Cu9	Cu	1.495783	0.115108	-0.144153
O10	O	1.497948	0.228939	0.121676
C11	C	1.266660	0.119576	-0.000097
C12	C	1.127003	0.117276	-0.000087
C13	C	1.054026	0.187378	-0.000116
C14	C	0.922804	0.185212	-0.000141
C15	C	0.937548	0.042837	-0.000115
C16	C	1.068767	0.045004	-0.000080
C17	C	1.045513	0.269577	-0.000137
C18	C	0.914292	0.267411	-0.000162
C19	C	1.489675	-0.027867	-0.000100
C20	C	1.477918	-0.114726	-0.000099
C21	C	1.585862	-0.164237	-0.000105
C22	C	1.574808	-0.245850	-0.000118
C23	C	1.455808	-0.277949	-0.000115
C24	C	1.347856	-0.228431	-0.000114
C25	C	1.358911	-0.146821	-0.000111
C26	C	1.416750	-0.523925	-0.000133
C27	C	1.405702	-0.605542	-0.000131
C28	C	1.632656	-0.622955	-0.000137
C29	C	1.643701	-0.541342	-0.000126
C30	C	1.535749	-0.491831	-0.000133
C31	C	1.444505	-0.361370	-0.000124
C32	C	1.547052	-0.408412	-0.000134
C33	C	1.724905	0.110645	-0.000129
C34	C	1.864562	0.112944	-0.000148
C35	C	1.501889	0.258088	-0.000126
C36	C	1.513646	0.344947	-0.000136
N37	N	1.495788	0.115114	0.346553
N38	N	1.495785	0.115100	-0.346776
C39	C	1.575554	0.062412	0.423205
C40	C	1.575550	0.062403	0.576542
C41	C	1.416010	0.167805	0.576561
C42	C	1.416009	0.167810	0.423227
C43	C	1.667667	0.001561	0.423195
C44	C	1.667663	0.001552	0.576532
H45	H	1.128180	-0.012080	-0.000035
H46	H	0.890116	-0.016005	-0.000131
H47	H	1.760620	0.020614	0.375629
H48	H	1.077829	0.301726	0.101811
H49	H	1.083600	0.295749	-0.105312
H50	H	1.740603	-0.515213	-0.000128
C51	C	0.855698	0.300971	0.141897
H52	H	0.920406	0.317420	0.205175
H53	H	0.809562	0.261614	0.189104
H54	H	0.800989	0.344596	0.119048
H55	H	1.765419	0.014955	0.618141
H56	H	0.875436	0.298381	-0.102119
H57	H	1.682764	-0.138109	-0.000098
C58	C	1.240173	-0.092358	-0.000102
H59	H	1.167717	-0.123163	-0.000088
H60	H	1.239771	-0.060158	-0.085049
H61	H	1.239766	-0.060163	0.084858
C62	C	1.693547	-0.300309	-0.000109
H63	H	1.766001	-0.269503	-0.000089
H64	H	1.693965	-0.332506	-0.085057
H65	H	1.693940	-0.332507	0.084851
H66	H	1.351046	0.210718	0.360818
C67	C	1.619339	-0.075211	0.640787
H68	H	1.597826	-0.109391	0.563296
H69	H	1.547267	-0.063723	0.699359
H70	H	1.683131	-0.099884	0.699332
C71	C	1.274797	-0.640850	-0.000153
H72	H	1.212087	-0.599676	-0.000175
H73	H	1.265753	-0.672328	0.084791
H74	H	1.265789	-0.672321	-0.085116
C75	C	1.751395	-0.677413	-0.000146
H76	H	1.823849	-0.646607	-0.000138
H77	H	1.751802	-0.709610	-0.085095
H78	H	1.751802	-0.709613	0.084813
C79	C	1.298007	-0.469474	-0.000114
H80	H	1.225555	-0.500282	-0.000093
H81	H	1.297590	-0.437271	-0.085058
H82	H	1.297605	-0.437281	0.084849
C83	C	1.216958	-0.263739	-0.000107
H84	H	1.225832	-0.319434	-0.000093
H85	H	1.172143	-0.246785	-0.085051
H86	H	1.172150	-0.246786	0.084857
C87	C	1.328268	0.225770	0.660907
H88	H	1.339697	0.218222	0.763206
H89	H	1.243502	0.216790	0.635782
H90	H	1.347497	0.278064	0.635782
H91	H	1.643941	-0.382273	-0.000169
C92	C	1.631148	-0.079662	0.366969
H93	H	1.616117	-0.113069	0.447898
H94	H	1.697579	-0.101892	0.309161
H95	H	1.557195	-0.074133	0.309176
H96	H	1.347615	-0.387514	-0.000119
