data_functionalizedCrystal
_audit_creation_method	'MofGen! by Chris Wilmer'
_symmetry_space_group_name_H-M	'P1'
_symmetry_Int_Tables_number	1
_symmetry_cell_setting	triclinic
loop_
_symmetry_equiv_pos_as_xyz
  x,y,z
_cell_length_a	9.065215
_cell_length_b	9.065218
_cell_length_c	8.140239
_cell_angle_alpha	90.002802
_cell_angle_beta	90.002571
_cell_angle_gamma	85.015291
loop_
_atom_site_label
_atom_site_type_symbol
_atom_site_fract_x
_atom_site_fract_y
_atom_site_fract_z
O1	O	0.216355	1.960396	0.136614
O2	O	0.549688	2.293729	0.469947
O3	O	0.883021	2.627062	0.803281
O4	O	0.234101	1.531111	0.136616
O5	O	0.567435	1.864444	0.469949
O6	O	0.900768	2.197777	0.803283
O7	O	0.010585	1.754629	0.136608
O8	O	0.343919	2.087962	0.469941
O9	O	0.677252	2.421295	0.803275
O10	O	0.439871	1.736878	0.136622
O11	O	0.773204	2.070211	0.469955
O12	O	1.106537	2.403544	0.803289
O13	O	0.010583	1.754616	-0.136619
O14	O	0.343916	2.087950	0.196714
O15	O	0.677249	2.421283	0.530048
O16	O	0.234099	1.531098	-0.136611
O17	O	0.567432	1.864432	0.196722
O18	O	0.900765	2.197765	0.530056
O19	O	0.216352	1.960383	-0.136613
O20	O	0.549685	2.293717	0.196720
O21	O	0.883019	2.627050	0.530054
Zn22	Zn	0.225225	1.745739	-0.179993
Zn23	Zn	0.558558	2.079072	0.153341
Zn24	Zn	0.891892	2.412405	0.486674
Zn25	Zn	0.225228	1.745755	0.179996
Zn26	Zn	0.558562	2.079089	0.513329
Zn27	Zn	0.891895	2.412422	0.846662
O28	O	0.439868	1.736865	-0.136605
O29	O	0.773201	2.070199	0.196728
O30	O	1.106535	2.403532	0.530062
C31	C	0.232394	1.476118	0.000003
C32	C	0.565728	1.809451	0.333336
C33	C	0.899061	2.142785	0.666669
C34	C	0.227295	1.312275	0.000004
C35	C	0.560628	1.645608	0.333337
C36	C	0.893961	1.978942	0.666670
C37	C	-0.044403	1.752917	-0.000004
C38	C	0.288931	2.086251	0.333329
C39	C	0.622264	2.419584	0.666663
C40	C	-0.208246	1.747819	0.000001
C41	C	0.125088	2.081153	0.333335
C42	C	0.458421	2.414486	0.666668
C43	C	0.494856	1.738576	0.000011
C44	C	0.828189	2.071910	0.333344
C45	C	1.161523	2.405243	0.666677
C46	C	0.658699	1.743674	0.000016
C47	C	0.992033	2.077008	0.333350
C48	C	1.325366	2.410341	0.666683
C49	C	0.218059	2.015376	0.000004
C50	C	0.551392	2.348709	0.333337
C51	C	0.884726	2.682043	0.666671
C52	C	0.223159	2.179219	0.000014
C53	C	0.556492	2.512552	0.333347
C54	C	0.889825	2.845886	0.666681
N55	N	0.225222	1.745738	-0.425675
N56	N	0.558555	2.079072	-0.092342
N57	N	0.891888	2.412405	0.240991
N58	N	0.225220	1.745767	0.425678
N59	N	0.558554	2.079101	0.759012
N60	N	0.891887	2.412434	1.092345
