data_functionalizedCrystal
_audit_creation_method	'MofGen! by Chris Wilmer'
_symmetry_space_group_name_H-M	'P1'
_symmetry_Int_Tables_number	1
_symmetry_cell_setting	triclinic
loop_
_symmetry_equiv_pos_as_xyz
  x,y,z
_cell_length_a	17.699083
_cell_length_b	17.699092
_cell_length_c	8.140239
_cell_angle_alpha	89.998171
_cell_angle_beta	90.003310
_cell_angle_gamma	83.284691
loop_
_atom_site_label
_atom_site_type_symbol
_atom_site_fract_x
_atom_site_fract_y
_atom_site_fract_z
O1	O	1.004077	0.095710	-0.136377
O2	O	0.783699	0.108162	-0.136430
O3	O	0.900111	-0.008253	-0.136398
O4	O	0.887665	0.212125	-0.136409
O5	O	0.900104	-0.008254	0.136829
O6	O	0.783692	0.108161	0.136797
O7	O	1.004070	0.095708	0.136850
Zn8	Zn	0.893880	0.101934	0.180204
Zn9	Zn	0.893889	0.101936	-0.179784
O10	O	0.887658	0.212123	0.136818
C11	C	0.755499	0.107715	0.000177
C12	C	0.671480	0.106377	0.000156
C13	C	0.622862	0.174710	0.000153
C14	C	0.543918	0.173448	0.000175
C15	C	0.513595	0.103851	0.000187
C16	C	0.562220	0.035513	0.000195
C17	C	0.641162	0.036776	0.000185
C18	C	0.243857	0.030418	0.000236
C19	C	0.164909	0.029160	0.000240
C20	C	0.146613	0.167089	0.000225
C21	C	0.225555	0.168352	0.000216
C22	C	0.274173	0.100014	0.000232
C23	C	0.359772	0.101384	0.000212
C24	C	0.427998	0.102481	0.000195
C25	C	0.899661	-0.036450	0.000213
C26	C	0.898319	-0.120468	0.000205
C27	C	0.897695	-0.159935	-0.148733
C28	C	0.896430	-0.238878	-0.148736
C29	C	0.895795	-0.278353	0.000202
C30	C	0.896418	-0.238881	0.149152
C31	C	0.897677	-0.159939	0.149152
C32	C	0.891337	-0.557246	0.149153
C33	C	0.890080	-0.636194	0.149141
C34	C	0.890090	-0.636185	-0.148735
C35	C	0.891349	-0.557243	-0.148734
C36	C	0.891968	-0.517777	0.000214
C37	C	0.893338	-0.432178	0.000215
C38	C	0.894430	-0.363952	0.000203
C39	C	1.032271	0.096155	0.000240
C40	C	1.116289	0.097494	0.000249
C41	C	0.888109	0.240321	0.000204
C42	C	0.889450	0.324339	0.000201
N43	N	0.893880	0.101933	0.425887
N44	N	0.893895	0.101932	-0.425467
H45	H	0.537525	-0.021154	0.000228
H46	H	0.891870	-0.525106	-0.270015
C47	C	0.898364	-0.116522	0.312979
H48	H	0.899197	-0.063852	0.291650
H49	H	0.942273	-0.135309	0.374196
H50	H	0.854030	-0.123609	0.374155
H51	H	0.283433	-0.025227	0.000250
C52	C	0.889374	-0.679618	0.312975
H53	H	0.888543	-0.732287	0.291636
H54	H	0.845456	-0.660833	0.374153
H55	H	0.933700	-0.672535	0.374195
C56	C	0.490437	0.248612	0.000155
H57	H	0.439079	0.237895	0.000179
H58	H	0.499611	0.277151	-0.095136
H59	H	0.499620	0.277159	0.095437
C60	C	0.656213	0.251265	0.000135
H61	H	0.710192	0.242233	0.000114
H62	H	0.639521	0.279396	0.095413
H63	H	0.639510	0.279392	-0.095160
H64	H	0.898216	-0.127800	-0.270016
C65	C	0.895729	-0.282286	-0.312567
H66	H	0.896292	-0.247471	-0.401268
H67	H	0.851114	-0.307222	-0.318757
H68	H	0.939357	-0.318940	-0.318765
C69	C	0.889399	-0.679598	-0.312578
H70	H	0.888549	-0.732266	-0.291256
H71	H	0.933726	-0.672513	-0.373763
H72	H	0.845483	-0.660804	-0.373783
H73	H	0.891856	-0.525124	0.270436
H74	H	0.680748	-0.018868	0.000187
H75	H	0.895896	-0.271027	0.270419
H76	H	0.107018	0.222733	0.000221
C77	C	0.258910	0.244906	0.000197
H78	H	0.312888	0.235870	0.000177
H79	H	0.242219	0.273038	0.095475
H80	H	0.242208	0.273033	-0.095098
C81	C	0.131556	-0.047399	0.000270
H82	H	0.171817	-0.087919	0.000295
H83	H	0.101136	-0.050763	-0.095006
H84	H	0.101145	-0.050750	0.095567
