data_functionalizedCrystal
_audit_creation_method	'MofGen! by Chris Wilmer'
_symmetry_space_group_name_H-M	'P1'
_symmetry_Int_Tables_number	1
_symmetry_cell_setting	triclinic
loop_
_symmetry_equiv_pos_as_xyz
  x,y,z
_cell_length_a	16.625548
_cell_length_b	29.839131
_cell_length_c	16.625539
_cell_angle_alpha	90.039748
_cell_angle_beta	90.020568
_cell_angle_gamma	90.036296
loop_
_atom_site_label
_atom_site_type_symbol
_atom_site_fract_x
_atom_site_fract_y
_atom_site_fract_z
Zn1	Zn	1.232609	-0.178840	0.455845
Zn2	Zn	1.732609	0.321160	0.955845
Zn3	Zn	1.232482	-0.253971	0.320985
Zn4	Zn	1.732482	0.246029	0.820985
Zn5	Zn	1.097771	-0.178857	0.321026
Zn6	Zn	1.597771	0.321143	0.821026
Zn7	Zn	1.097711	-0.253945	0.455775
Zn8	Zn	1.597711	0.246055	0.955775
O9	O	1.165143	-0.216403	0.388408
O10	O	1.665143	0.283597	0.888408
O11	O	1.345425	-0.188810	0.437968
O12	O	1.845425	0.311190	0.937968
O13	O	1.214584	-0.244025	0.208158
O14	O	1.714584	0.255975	0.708158
O15	O	1.115735	-0.115987	0.338956
O16	O	1.615735	0.384013	0.838956
O17	O	1.345331	-0.244008	0.338887
O18	O	1.845331	0.255992	0.838887
O19	O	1.214800	-0.115975	0.438007
O20	O	1.714800	0.384025	0.938007
O21	O	1.115612	-0.188839	0.208188
O22	O	1.615612	0.311161	0.708188
O23	O	0.984930	-0.188814	0.338888
O24	O	1.484930	0.311186	0.838888
O25	O	1.115634	-0.243964	0.568617
O26	O	1.615634	0.256036	1.068617
O27	O	0.984887	-0.243981	0.437888
O28	O	1.484887	0.256019	0.937888
O29	O	1.214743	-0.188785	0.568668
O30	O	1.714743	0.311215	1.068668
O31	O	1.214526	-0.316834	0.338820
O32	O	1.714526	0.183166	0.838820
O33	O	1.115511	-0.316815	0.437849
O34	O	1.615511	0.183185	0.937849
C35	C	0.955652	-0.216397	0.388385
C36	C	1.455652	0.283603	0.888385
C37	C	0.866031	-0.216405	0.388395
C38	C	1.366031	0.283595	0.888395
C39	C	1.165020	-0.333126	0.388340
C40	C	1.665020	0.166874	0.888340
C41	C	1.165041	-0.383060	0.388338
C42	C	1.665041	0.116940	0.888338
C43	C	0.537856	-0.216408	0.388429
C44	C	1.037856	0.283592	0.888429
C45	C	0.629164	-0.216406	0.388417
C46	C	1.129164	0.283594	0.888417
C47	C	0.701941	-0.216406	0.388411
C48	C	1.201941	0.283594	0.888411
C49	C	0.793255	-0.216404	0.388401
C50	C	1.293255	0.283596	0.888401
C51	C	1.216715	-0.692662	0.440057
C52	C	1.716715	-0.192662	0.940057
C53	C	1.216803	-0.880335	0.440106
C54	C	1.716803	-0.380335	0.940106
O55	O	1.260617	-0.904565	0.484029
O56	O	1.760617	-0.404565	0.984029
N57	N	1.165280	-0.903845	0.388497
N58	N	1.665280	-0.403845	0.888497
C59	C	1.113728	-0.880434	0.336877
C60	C	1.613728	-0.380434	0.836877
O61	O	1.069901	-0.904737	0.292988
O62	O	1.569901	-0.404737	0.792988
C63	C	1.113637	-0.692762	0.336833
C64	C	1.613637	-0.192762	0.836833
C65	C	1.165169	-0.669254	0.388439
C66	C	1.665169	-0.169254	0.888439
C67	C	1.268242	-0.669154	0.491660
C68	C	1.768242	-0.169154	0.991660
C69	C	1.268223	-0.622239	0.491644
C70	C	1.768223	-0.122239	0.991644
C71	C	1.216677	-0.598831	0.440026
C72	C	1.716677	-0.098831	0.940026
C73	C	1.165150	-0.622339	0.388423
C74	C	1.665150	-0.122339	0.888423
C75	C	1.062082	-0.669352	0.285217
C76	C	1.562082	-0.169352	0.785217
C77	C	1.062063	-0.622431	0.285212
C78	C	1.562063	-0.122431	0.785212
C79	C	1.113594	-0.598923	0.336818
C80	C	1.613594	-0.098923	0.836818
C81	C	1.113584	-0.552016	0.336790
C82	C	1.613584	-0.052016	0.836790
N83	N	1.165107	-0.528505	0.388398
N84	N	1.665107	-0.028505	0.888398
C85	C	1.216653	-0.551913	0.440016
C86	C	1.716653	-0.051913	0.940016
C87	C	1.113781	-0.978965	0.336902
C88	C	1.613781	-0.478965	0.836902
C89	C	1.113805	-1.025882	0.336912
C90	C	1.613805	-0.525882	0.836912
C91	C	1.216878	-1.025780	0.440142
C92	C	1.716878	-0.525780	0.940142
C93	C	1.216858	-0.978861	0.440128
C94	C	1.716858	-0.478861	0.940128
C95	C	1.165303	-0.955455	0.388511
C96	C	1.665303	-0.455455	0.888511
C97	C	1.216609	-0.453387	0.439979
C98	C	1.716609	0.046613	0.939979
C99	C	1.216588	-0.406468	0.439956
C100	C	1.716588	0.093532	0.939956
C101	C	1.113511	-0.406574	0.336729
C102	C	1.613511	0.093426	0.836729
C103	C	1.113536	-0.453490	0.336749
C104	C	1.613536	0.046510	0.836749
C105	C	1.165087	-0.476895	0.388380
C106	C	1.665087	0.023105	0.888380
O107	O	1.069787	-0.527757	0.292896
O108	O	1.569787	-0.027757	0.792896
O109	O	1.260461	-0.527602	0.483911
O110	O	1.760461	-0.027602	0.983911
C111	C	1.216734	-0.739577	0.440073
C112	C	1.716734	-0.239577	0.940073
C113	C	1.165208	-0.763085	0.388471
C114	C	1.665208	-0.263085	0.888471
C115	C	1.113662	-0.739677	0.336852
C116	C	1.613662	-0.239677	0.836852
C117	C	1.165231	-0.810003	0.388480
C118	C	1.665231	-0.310003	0.888480
C119	C	1.216777	-0.833411	0.440099
C120	C	1.716777	-0.333411	0.940099
C121	C	1.268300	-0.809901	0.491707
C122	C	1.768300	-0.309901	0.991707
C123	C	1.268281	-0.762985	0.491691
C124	C	1.768281	-0.262985	0.991691
C125	C	1.062139	-0.763187	0.285244
C126	C	1.562139	-0.263187	0.785244
C127	C	1.062163	-0.810103	0.285263
C128	C	1.562163	-0.310103	0.785263
C129	C	1.113709	-0.833511	0.336882
C130	C	1.613709	-0.333511	0.836882
C131	C	1.375452	-0.216410	0.388431
C132	C	1.875452	0.283590	0.888431
C133	C	1.465073	-0.216413	0.388441
C134	C	1.965073	0.283587	0.888441
C135	C	1.165196	-0.216370	0.598717
C136	C	1.665196	0.283630	1.098717
C137	C	1.165218	-0.216355	0.688338
C138	C	1.665218	0.283645	1.188338
C139	C	1.165289	-0.099225	0.388494
C140	C	1.665289	0.400775	0.888494
C141	C	1.165351	-0.049290	0.388530
C142	C	1.665351	0.450710	0.888530
C143	C	1.165137	-0.216404	0.178917
C144	C	1.665137	0.283596	0.678917
C145	C	1.165271	-0.216292	0.089297
C146	C	1.665271	0.283708	0.589297
C147	C	1.165255	-0.216305	1.016514
C148	C	1.665255	0.283695	1.516514
C149	C	1.165243	-0.216320	0.925205
C150	C	1.665243	0.283680	1.425205
C151	C	1.165237	-0.216330	0.852429
C152	C	1.665237	0.283670	1.352429
C153	C	1.165224	-0.216345	0.761115
C154	C	1.665224	0.283655	1.261115
H155	H	1.258554	-0.387329	0.481980
H156	H	1.758554	0.112671	0.981980
H157	H	1.020201	-0.829239	0.243232
H158	H	1.520201	-0.329239	0.743232
H159	H	1.310217	-0.688208	0.533699
H160	H	1.810217	-0.188208	1.033699
H161	H	1.258582	-0.472439	0.482027
H162	H	1.758582	0.027561	0.982027
C163	C	1.324915	-0.596387	0.548413
C164	C	1.824915	-0.096387	1.048413
N165	N	1.367619	-0.576918	0.591173
N166	N	1.867619	-0.076918	1.091173
H167	H	1.020163	-0.744132	0.243211
H168	H	1.520163	-0.244132	0.743211
C169	C	1.273575	-1.051537	0.496928
C170	C	1.773575	-0.551537	0.996928
N171	N	1.316271	-1.070940	0.539701
N172	N	1.816271	-0.570940	1.039701
C173	C	1.273543	-0.953007	0.496901
C174	C	1.773543	-0.453007	0.996901
N175	N	1.316239	-0.933537	0.539667
N176	N	1.816239	-0.433537	1.039667
C177	C	1.057122	-1.051736	0.280135
C178	C	1.557122	-0.551736	0.780135
N179	N	1.014423	-1.071206	0.237372
N180	N	1.514423	-0.571206	0.737372
H181	H	1.020120	-0.688484	0.243194
H182	H	1.520120	-0.188484	0.743194
C183	C	1.057055	-0.953223	0.280124
C184	C	1.557055	-0.453223	0.780124
N185	N	1.014327	-0.933836	0.237359
N186	N	1.514327	-0.433836	0.737359
C187	C	1.005348	-0.596686	0.228427
C188	C	1.505348	-0.096686	0.728427
N189	N	0.962633	-0.577296	0.185654
N190	N	1.462633	-0.077296	0.685654
C191	C	1.056853	-0.479349	0.279975
C192	C	1.556853	0.020651	0.779975
N193	N	1.014153	-0.498823	0.237218
N194	N	1.514153	0.001177	0.737218
C195	C	1.056810	-0.380817	0.279955
C196	C	1.556810	0.119183	0.779955
N197	N	1.014097	-0.361415	0.237198
N198	N	1.514097	0.138585	0.737198
C199	C	1.324971	-0.737133	0.548462
C200	C	1.824971	-0.237133	1.048462
N201	N	1.367673	-0.717664	0.591224
N202	N	1.867673	-0.217664	1.091224
C203	C	1.325000	-0.835658	0.548489
C204	C	1.825000	-0.335658	1.048489
N205	N	1.367700	-0.855061	0.591257
N206	N	1.867700	-0.355061	1.091257
