data_functionalizedCrystal
_audit_creation_method	'MofGen! by Chris Wilmer'
_symmetry_space_group_name_H-M	'P1'
_symmetry_Int_Tables_number	1
_symmetry_cell_setting	triclinic
loop_
_symmetry_equiv_pos_as_xyz
  x,y,z
_cell_length_a	15.995350
_cell_length_b	11.792241
_cell_length_c	10.868271
_cell_angle_alpha	89.994719
_cell_angle_beta	89.999330
_cell_angle_gamma	83.842895
loop_
_atom_site_label
_atom_site_type_symbol
_atom_site_fract_x
_atom_site_fract_y
_atom_site_fract_z
O1	O	1.111649	0.146296	-0.102218
O2	O	1.611649	0.646296	0.397782
O3	O	0.867956	0.164362	-0.102244
O4	O	1.367956	0.664362	0.397756
O5	O	0.995716	-0.009891	-0.102222
O6	O	1.495716	0.490109	0.397778
O7	O	0.983889	0.320549	-0.102240
O8	O	1.483889	0.820549	0.397760
O9	O	0.995706	-0.009898	0.102423
O10	O	1.495706	0.490102	0.602423
O11	O	0.867946	0.164355	0.102401
O12	O	1.367946	0.664355	0.602401
O13	O	1.111639	0.146289	0.102426
O14	O	1.611639	0.646289	0.602426
Zn15	Zn	0.989790	0.155321	0.134905
Zn16	Zn	1.489790	0.655321	0.634905
Zn17	Zn	0.989804	0.155330	-0.134723
Zn18	Zn	1.489804	0.655330	0.365277
O19	O	0.983878	0.320542	0.102404
O20	O	1.483878	0.820542	0.602404
C21	C	0.994968	-0.052179	0.000100
C22	C	1.494968	0.447821	0.500100
C23	C	0.992745	-0.178174	0.000099
C24	C	1.492745	0.321826	0.500099
C25	C	0.836753	0.163612	0.000075
C26	C	1.336753	0.663612	0.500075
C27	C	0.743792	0.161372	0.000066
C28	C	1.243792	0.661372	0.500066
C29	C	0.988655	-0.408852	0.000078
C30	C	1.488655	0.091148	0.500078
C31	C	0.990927	-0.280486	0.000089
C32	C	1.490927	0.219514	0.500089
C33	C	0.406008	0.153331	0.000092
C34	C	0.906008	0.653331	0.500092
C35	C	0.452879	0.029232	0.000555
C36	C	0.952879	0.529232	0.500555
C37	C	0.549579	0.031471	0.000085
C38	C	1.049579	0.531471	0.500085
C39	C	0.573587	0.157320	0.000080
C40	C	1.073587	0.657320	0.500080
C41	C	0.532784	0.218534	-0.116781
C42	C	1.032784	0.718534	0.383219
C43	C	0.436134	0.215416	-0.116870
C44	C	0.936134	0.715416	0.383130
C45	C	0.435794	0.217973	0.115849
C46	C	0.935794	0.717973	0.615849
C47	C	0.532740	0.217943	0.117385
C48	C	1.032740	0.717943	0.617385
C49	C	0.668295	0.159581	0.000069
C50	C	1.168295	0.659581	0.500069
C51	C	0.311300	0.151074	0.000095
C52	C	0.811300	0.651074	0.500095
C53	C	1.142842	0.147040	0.000104
C54	C	1.642842	0.647040	0.500104
C55	C	1.235803	0.149279	0.000106
C56	C	1.735803	0.649279	0.500106
C57	C	0.984627	0.362830	0.000080
C58	C	1.484627	0.862830	0.500080
C59	C	0.986850	0.488825	0.000073
C60	C	1.486850	0.988825	0.500073
N61	N	0.989787	0.155314	0.318919
N62	N	1.489787	0.655314	0.818919
N63	N	0.989814	0.155328	-0.318737
N64	N	1.489814	0.655328	0.181263
C65	C	0.989800	0.155328	0.569925
C66	C	1.489800	0.655328	1.069925
C67	C	0.989790	0.155324	0.430248
C68	C	1.489790	0.655324	0.930248
H69	H	0.577785	-0.016646	0.083857
H70	H	1.077785	0.483354	0.583857
H71	H	0.417627	0.170782	-0.204222
H72	H	0.917627	0.670782	0.295778
H73	H	0.415070	0.177399	0.204427
H74	H	0.915070	0.677399	0.704427
H75	H	0.404299	0.306528	-0.122178
H76	H	0.904299	0.806528	0.377822
C77	C	0.570852	0.161114	-0.234271
C78	C	1.070852	0.661114	0.265729
H79	H	0.545758	0.198770	-0.304500
H80	H	1.045758	0.698770	0.195500
H81	H	0.560530	0.083278	-0.235321
H82	H	1.060530	0.583278	0.264679
H83	H	0.629758	0.165888	-0.235483
H84	H	1.129758	0.665888	0.264517
H85	H	0.434127	-0.020377	0.084361
H86	H	0.934127	0.479623	0.584361
H87	H	0.404448	0.309470	0.116635
H88	H	0.904448	0.809470	0.616635
H89	H	0.577222	-0.016965	-0.083826
H90	H	1.077222	0.483035	0.416174
C91	C	0.426112	-0.037478	-0.112017
C92	C	0.926112	0.462522	0.387983
H93	H	0.386499	0.009973	-0.159301
H94	H	0.886499	0.509973	0.340699
H95	H	0.401271	-0.102810	-0.085140
H96	H	0.901271	0.397190	0.414860
H97	H	0.474056	-0.060732	-0.161077
H98	H	0.974056	0.439268	0.338923
C99	C	0.552436	0.343432	-0.122672
C100	C	1.052436	0.843432	0.377328
H101	H	0.585783	0.359392	-0.053752
H102	H	1.085783	0.859392	0.446248
H103	H	0.501372	0.392645	-0.121587
H104	H	1.001372	0.892645	0.378413
H105	H	0.582294	0.355307	-0.196308
H106	H	1.082294	0.855307	0.303692
H107	H	0.559849	0.173257	0.203838
H108	H	1.059849	0.673257	0.703838
H109	H	0.548521	0.309716	0.124439
H110	H	1.048521	0.809716	0.624439
