data_functionalizedCrystal
_audit_creation_method	'MofGen! by Chris Wilmer'
_symmetry_space_group_name_H-M	'P1'
_symmetry_Int_Tables_number	1
_symmetry_cell_setting	triclinic
loop_
_symmetry_equiv_pos_as_xyz
  x,y,z
_cell_length_a	12.827893
_cell_length_b	12.827892
_cell_length_c	12.759393
_cell_angle_alpha	89.969144
_cell_angle_beta	89.980297
_cell_angle_gamma	90.015553
loop_
_atom_site_label
_atom_site_type_symbol
_atom_site_fract_x
_atom_site_fract_y
_atom_site_fract_z
Zn1	Zn	1.597674	-0.415967	-0.594020
Zn2	Zn	1.597567	-0.590748	-0.418343
Zn3	Zn	1.422914	-0.416022	-0.418356
Zn4	Zn	1.422901	-0.590667	-0.593980
O5	O	1.510264	-0.503351	-0.506175
O6	O	1.743896	-0.439163	-0.570727
O7	O	1.574360	-0.567626	-0.271323
O8	O	1.446147	-0.269778	-0.441681
O9	O	1.743817	-0.567573	-0.441658
O10	O	1.574542	-0.269738	-0.570740
O11	O	1.446043	-0.439256	-0.271333
O12	O	1.276676	-0.439178	-0.441642
O13	O	1.446124	-0.567436	-0.741007
O14	O	1.276666	-0.567489	-0.570672
O15	O	1.574529	-0.439085	-0.741036
O16	O	1.574347	-0.736973	-0.441619
O17	O	1.446020	-0.736914	-0.570659
C18	C	1.238754	-0.503332	-0.506155
C19	C	1.122601	-0.503348	-0.506171
C20	C	1.510199	-0.774861	-0.506156
C21	C	1.510266	-0.891014	-0.506184
C22	C	1.070855	-0.439920	-0.570139
C23	C	0.950805	-0.439936	-0.570157
C24	C	1.573842	-0.942793	-0.442401
C25	C	1.573913	-1.062843	-0.442428
C26	C	1.782834	-0.503371	-0.506196
C27	C	1.898987	-0.503379	-0.506204
C28	C	1.510337	-0.503245	-0.780208
C29	C	1.510368	-0.503200	-0.896985
C30	C	1.510358	-0.230781	-0.506216
C31	C	1.510398	-0.114627	-0.506234
C32	C	1.577238	-0.436361	-0.951864
C33	C	1.577263	-0.436324	-1.061588
C34	C	1.443545	-0.569973	-1.061545
C35	C	1.443516	-0.570005	-0.951823
C36	C	1.654442	-0.359203	-0.951890
C37	C	1.654467	-0.359165	-1.061614
C38	C	1.510251	-0.503380	-0.233207
C39	C	1.510422	-0.503131	-0.116431
H40	H	1.115430	-0.385600	-0.624886
H41	H	0.943481	-0.557692	-0.451443
H42	H	1.078026	-0.557662	-0.451418
O43	O	1.638565	-0.889611	-0.377117
C44	C	1.652513	-0.766294	-0.235415
C45	C	1.579094	-0.826473	-0.309269
H46	H	1.604461	-0.715216	-0.180556
H47	H	1.700374	-0.823901	-0.187316
H48	H	1.707073	-0.715157	-0.283758
H49	H	1.524471	-0.877612	-0.261007
H50	H	1.531306	-0.768810	-0.357371
H51	H	1.628339	-1.107373	-0.387819
H52	H	1.731301	-0.388216	-0.917856
H53	H	1.455962	-1.070106	-0.560840
O54	O	1.378655	-0.635070	-0.898564
C55	C	1.327763	-0.812818	-0.865001
C56	C	1.401309	-0.739253	-0.925358
H57	H	1.346038	-0.897064	-0.886658
H58	H	1.339216	-0.801460	-0.777146
H59	H	1.243525	-0.794377	-0.886571
H60	H	1.485574	-0.757648	-0.903876
H61	H	1.389765	-0.750624	-1.013199
H62	H	0.906304	-0.385635	-0.624925
O63	O	1.445538	-0.944262	-0.571409
C64	C	1.431594	-1.067474	-0.713203
C65	C	1.505017	-1.007259	-0.639382
H66	H	1.479653	-1.118405	-0.768193
H67	H	1.377072	-1.118731	-0.664942
H68	H	1.383691	-1.009798	-0.761173
H69	H	1.552987	-1.064860	-0.591396
H70	H	1.559469	-0.955986	-0.687703
H71	H	1.735403	-0.380841	-1.091395
O72	O	1.619905	-0.267517	-1.102415
C73	C	1.582866	-0.168942	-1.258840
C74	C	1.622017	-0.272786	-1.212771
H75	H	1.584581	-0.173160	-1.348068
H76	H	1.499648	-0.153965	-1.231322
H77	H	1.635460	-0.102789	-1.231222
H78	H	1.569500	-0.339003	-1.240367
H79	H	1.705252	-0.287672	-1.240283
H80	H	1.389114	-0.624360	-1.106207
O81	O	1.628545	-0.262613	-0.916557
C82	C	1.581525	-0.086552	-0.962415
C83	C	1.610817	-0.195892	-1.002572
H84	H	1.567205	-0.032572	-1.031938
H85	H	1.507771	-0.091774	-0.912811
H86	H	1.647993	-0.054347	-0.912754
H87	H	1.544417	-0.228161	-1.052276
H88	H	1.684603	-0.190605	-1.052119
