data_functionalizedCrystal
_audit_creation_method	'MofGen! by Chris Wilmer'
_symmetry_space_group_name_H-M	'P1'
_symmetry_Int_Tables_number	1
_symmetry_cell_setting	triclinic
loop_
_symmetry_equiv_pos_as_xyz
  x,y,z
_cell_length_a	16.992694
_cell_length_b	13.339070
_cell_length_c	16.053802
_cell_angle_alpha	93.267614
_cell_angle_beta	87.249047
_cell_angle_gamma	103.148759
loop_
_atom_site_label
_atom_site_type_symbol
_atom_site_fract_x
_atom_site_fract_y
_atom_site_fract_z
O1	O	1.090314	0.214289	-0.069315
O2	O	1.590314	0.714289	0.430685
O3	O	0.861508	0.211892	-0.069340
O4	O	1.361508	0.711892	0.430660
O5	O	0.949651	0.063704	-0.069328
O6	O	1.449651	0.563704	0.430672
O7	O	1.002170	0.362477	-0.069327
O8	O	1.502170	0.862477	0.430673
O9	O	0.944792	0.071825	0.069530
O10	O	1.444792	0.571825	0.569530
O11	O	0.856649	0.220013	0.069518
O12	O	1.356649	0.720013	0.569518
O13	O	1.085454	0.222410	0.069543
O14	O	1.585454	0.722410	0.569543
Zn15	Zn	0.970280	0.222501	0.091577
Zn16	Zn	1.470280	0.722501	0.591577
Zn17	Zn	0.976682	0.211801	-0.091374
Zn18	Zn	1.476682	0.711801	0.408626
O19	O	0.997311	0.370598	0.069531
O20	O	1.497311	0.870598	0.569531
C21	C	0.829196	0.212871	0.000086
C22	C	1.329196	0.712871	0.500086
C23	C	0.740151	0.203676	0.000076
C24	C	1.240151	0.703676	0.500076
C25	C	0.709211	0.292389	0.000077
C26	C	1.209211	0.792389	0.500077
C27	C	0.625543	0.283745	0.000089
C28	C	1.125543	0.783745	0.500089
C29	C	0.572817	0.186385	0.000093
C30	C	1.072817	0.686385	0.500093
C31	C	0.603763	0.097665	0.000095
C32	C	1.103763	0.597665	0.500095
C33	C	0.687429	0.106311	0.000090
C34	C	1.187429	0.606311	0.500090
C35	C	0.321423	0.150552	0.000116
C36	C	0.821423	0.650552	0.500116
C37	C	0.237752	0.141912	0.000119
C38	C	0.737752	0.641912	0.500119
C39	C	0.259538	0.327993	0.000114
C40	C	0.759538	0.827993	0.500114
C41	C	0.343205	0.336630	0.000103
C42	C	0.843205	0.836630	0.500103
C43	C	0.374143	0.247910	0.000109
C44	C	0.874143	0.747910	0.500109
N45	N	0.487295	0.177547	0.000103
N46	N	0.987295	0.677547	0.500103
N47	N	0.459663	0.256750	0.000106
N48	N	0.959663	0.756750	0.500106
C49	C	0.938350	0.029358	0.000099
C50	C	1.438350	0.529358	0.500099
C51	C	0.911906	-0.085082	0.000093
C52	C	1.411906	0.414918	0.500093
C53	C	1.117519	-0.433251	0.000116
C54	C	1.617519	0.066749	0.500116
C55	C	1.142367	-0.325729	0.000126
C56	C	1.642367	0.174271	0.500126
C57	C	1.084754	-0.265562	0.000118
C58	C	1.584754	0.234438	0.500118
C59	C	1.002289	-0.312928	0.000099
C60	C	1.502289	0.187072	0.500099
C61	C	0.977439	-0.420460	0.000095
C62	C	1.477439	0.079540	0.500095
C63	C	0.944673	-0.252771	0.000097
C64	C	1.444673	0.247229	0.500097
C65	C	0.862209	-0.300136	0.000078
C66	C	1.362209	0.199864	0.500078
C67	C	0.837363	-0.407658	0.000074
C68	C	1.337363	0.092342	0.500074
C69	C	0.894976	-0.467825	0.000082
C70	C	1.394976	0.032175	0.500082
C71	C	0.969524	-0.145239	0.000101
C72	C	1.469524	0.354761	0.500101
C73	C	0.829443	-0.132447	0.000080
C74	C	1.329443	0.367553	0.500080
C75	C	0.804596	-0.239970	0.000070
C76	C	1.304596	0.260030	0.500070
C77	C	1.117767	0.221431	0.000115
C78	C	1.617767	0.721431	0.500115
C79	C	1.206811	0.230626	0.000120
C80	C	1.706811	0.730626	0.500120
C81	C	1.008612	0.404944	0.000102
C82	C	1.508612	0.904944	0.500102
C83	C	1.035056	0.519384	0.000103
C84	C	1.535056	1.019384	0.500103
N85	N	0.965916	0.229803	0.216437
N86	N	1.465916	0.729803	0.716437
N87	N	0.981051	0.204492	-0.216234
N88	N	1.481051	0.704492	0.283766
C89	C	1.003445	0.166774	0.260136
C90	C	1.503445	0.666774	0.760136
C91	C	1.000402	0.171892	0.347543
C92	C	1.500402	0.671892	0.847543
C93	C	0.959834	0.240045	0.391248
C94	C	1.459834	0.740045	0.891248
C95	C	0.922300	0.303076	0.347543
C96	C	1.422300	0.803076	0.847543
C97	C	0.925339	0.297952	0.260138
C98	C	1.425339	0.797952	0.760138
C99	C	0.946555	0.262399	0.652656
C100	C	1.446555	0.762399	1.152656
C101	C	0.943522	0.267520	0.740067
C102	C	1.443522	0.767520	1.240067
C103	C	1.021623	0.136334	0.740060
C104	C	1.521623	0.636334	1.240060
C105	C	1.024662	0.131221	0.652654
C106	C	1.524662	0.631221	1.152654
C107	C	0.987124	0.194248	0.608956
C108	C	1.487124	0.694248	1.108956
N109	N	0.956725	0.245281	0.480592
N110	N	1.456725	0.745281	0.980592
N111	N	0.990229	0.189006	0.519615
N112	N	1.490229	0.689006	1.019615
H113	H	0.712618	0.034071	0.000088
H114	H	1.212618	0.534071	0.500088
O115	O	1.179648	-0.498147	0.000133
O116	O	1.679648	0.001853	0.500133
H117	H	1.241166	-0.447151	0.000150
H118	H	1.741166	0.052849	0.500150
H119	H	0.894777	0.349276	0.224559
H120	H	1.394777	0.849276	0.724559
O121	O	1.231305	-0.274649	0.000146
O122	O	1.731305	0.225351	0.500146
H123	H	1.238906	-0.189771	0.000157
H124	H	1.738906	0.310229	0.500157
O125	O	1.058464	-0.094166	0.000110
O126	O	1.558464	0.405834	0.500110
H127	H	1.071161	-0.042181	0.056711
H128	H	1.571161	0.457819	0.556711
H129	H	1.036484	0.111281	0.224557
H130	H	1.536484	0.611281	0.724557
O131	O	0.226164	0.423676	0.000115
O132	O	0.726164	0.923676	0.500115
H133	H	0.276884	0.492827	0.000106
H134	H	0.776884	0.992827	0.500106
O135	O	1.111548	-0.149591	0.000121
O136	O	1.611548	0.350409	0.500121
H137	H	1.178569	-0.126763	0.000127
H138	H	1.678569	0.373237	0.500127
H139	H	1.030961	0.120569	0.383122
H140	H	1.530961	0.620569	0.883122
O141	O	0.180877	0.036899	0.000132
O142	O	0.680877	0.536899	0.500132
H143	H	0.216445	-0.023341	0.000144
H144	H	0.716445	0.476659	0.500144
H145	H	0.874749	-0.555379	0.000071
H146	H	1.374749	-0.055379	0.500071
O147	O	0.748420	-0.458751	0.000064
O148	O	1.248420	0.041249	0.500064
H149	H	0.712532	-0.398854	0.000054
H150	H	1.212532	0.101146	0.500054
O151	O	0.767293	-0.067569	0.000068
O152	O	1.267293	0.432431	0.500068
H153	H	0.798427	0.015157	0.000064
H154	H	1.298427	0.515157	0.500064
H155	H	0.737452	-0.278550	0.000055
H156	H	1.237452	0.221450	0.500055
H157	H	1.052183	0.085019	0.775647
H158	H	1.552183	0.585019	1.275647
O159	O	0.766078	0.397400	0.000070
O160	O	1.266078	0.897400	0.500070
H161	H	0.802749	0.409095	0.056661
H162	H	1.302749	0.909095	0.556661
O163	O	1.068408	0.057704	0.605513
O164	O	1.568408	0.557704	1.105513
H165	H	1.093987	0.014726	0.650585
H166	H	1.593987	0.514726	1.150585
H167	H	0.910485	0.323023	0.775648
H168	H	1.410485	0.823023	1.275648
H169	H	0.915992	0.313720	0.617084
H170	H	1.415992	0.813720	1.117084
H171	H	0.889264	0.358564	0.383133
H172	H	1.389264	0.858564	0.883133
H173	H	0.600356	0.355985	0.000088
H174	H	1.100356	0.855985	0.500088
H175	H	0.346602	0.078309	0.000121
H176	H	0.846602	0.578309	0.500121
O177	O	0.400065	0.441646	0.000117
O178	O	0.900065	0.941646	0.500117
H179	H	0.391197	0.481301	-0.056471
H180	H	0.891197	0.981301	0.443529
O181	O	0.546899	-0.007348	0.000103
O182	O	1.046899	0.492652	0.500103
H183	H	0.483522	0.001542	0.000099
H184	H	0.983522	0.501542	0.500099
