data_functionalizedCrystal
_audit_creation_method	'MofGen! by Chris Wilmer'
_symmetry_space_group_name_H-M	'P1'
_symmetry_Int_Tables_number	1
_symmetry_cell_setting	triclinic
loop_
_symmetry_equiv_pos_as_xyz
  x,y,z
_cell_length_a	17.019372
_cell_length_b	17.038272
_cell_length_c	15.500227
_cell_angle_alpha	86.966746
_cell_angle_beta	88.970414
_cell_angle_gamma	87.242864
loop_
_atom_site_label
_atom_site_type_symbol
_atom_site_fract_x
_atom_site_fract_y
_atom_site_fract_z
O1	O	1.053042	0.099898	-0.006440
O2	O	1.553042	0.599898	0.493560
O3	O	0.825040	0.111748	0.010534
O4	O	1.325040	0.611748	0.510534
O5	O	0.937686	-0.007996	0.002141
O6	O	1.437686	0.492004	0.502141
O7	O	0.940397	0.219642	0.001953
O8	O	1.440397	0.719642	0.501953
O9	O	0.930848	-0.000758	-0.141238
O10	O	1.430848	0.499242	0.358762
O11	O	0.818203	0.118986	-0.132846
O12	O	1.318203	0.618986	0.367154
O13	O	1.046204	0.107136	-0.149819
O14	O	1.546204	0.607136	0.350181
Cu15	Cu	0.931579	0.113722	-0.154424
Cu16	Cu	1.431579	0.613722	0.345576
Cu17	Cu	0.939665	0.105162	0.015139
Cu18	Cu	1.439665	0.605162	0.515139
O19	O	0.933559	0.226880	-0.141426
O20	O	1.433559	0.726880	0.358574
C21	C	0.792305	0.114776	-0.058973
C22	C	1.292305	0.614776	0.441027
C23	C	0.704948	0.113005	-0.052470
C24	C	1.204948	0.613005	0.447530
C25	C	0.211070	0.102765	-0.011712
C26	C	0.711070	0.602765	0.488288
C27	C	0.293150	0.104429	-0.017834
C28	C	0.793150	0.604429	0.482166
C29	C	0.330455	0.109213	-0.099052
C30	C	0.830455	0.609213	0.400948
C31	C	0.285675	0.112324	-0.174153
C32	C	0.785675	0.612324	0.325847
C33	C	0.203597	0.110654	-0.168030
C34	C	0.703597	0.610654	0.331970
C35	C	0.578091	0.114447	-0.121448
C36	C	1.078091	0.614447	0.378552
C37	C	0.660175	0.116119	-0.127565
C38	C	1.160175	0.616119	0.372435
C39	C	0.667644	0.108223	0.028754
C40	C	1.167644	0.608223	0.528754
C41	C	0.585564	0.106558	0.034869
C42	C	1.085564	0.606558	0.534869
C43	C	0.540792	0.109665	-0.040231
C44	C	1.040792	0.609665	0.459769
C45	C	0.414353	0.110916	-0.105311
C46	C	0.914353	0.610916	0.394689
C47	C	0.456895	0.107956	-0.033971
C48	C	0.956895	0.607956	0.466029
C49	C	0.931802	-0.033512	-0.069365
C50	C	1.431802	0.466488	0.430635
C51	C	0.924448	-0.120326	-0.068817
C52	C	1.424448	0.379674	0.431183
C53	C	0.991968	-0.170246	-0.073845
C54	C	1.491968	0.329754	0.426155
C55	C	0.985053	-0.251817	-0.073322
C56	C	1.485053	0.248183	0.426678
C57	C	0.910618	-0.283466	-0.067777
C58	C	1.410618	0.216534	0.432223
C59	C	0.843094	-0.233539	-0.062747
C60	C	1.343094	0.266461	0.437253
C61	C	0.850009	-0.151970	-0.063264
C62	C	1.350009	0.348030	0.436736
C63	C	0.886188	-0.529295	-0.065947
C64	C	1.386188	-0.029295	0.434053
C65	C	0.879277	-0.610870	-0.065433
C66	C	1.379277	-0.110870	0.434567
C67	C	1.021238	-0.629142	-0.076006
C68	C	1.521238	-0.129142	0.423994
C69	C	1.028147	-0.547570	-0.076528
C70	C	1.528147	-0.047570	0.423472
C71	C	0.960622	-0.497651	-0.071493
C72	C	1.460622	0.002349	0.428507
C73	C	0.903549	-0.366844	-0.067246
C74	C	1.403549	0.133156	0.432754
C75	C	0.967693	-0.414275	-0.072019
C76	C	1.467693	0.085725	0.427981
C77	C	1.078940	0.104108	-0.080310
C78	C	1.578940	0.604108	0.419690
C79	C	1.166297	0.105878	-0.086807
C80	C	1.666297	0.605878	0.413193
C81	C	0.939443	0.252396	-0.069918
C82	C	1.439443	0.752396	0.430082
C83	C	0.946797	0.339210	-0.070460
C84	C	1.446797	0.839210	0.429540
N85	N	0.925898	0.119742	-0.273686
N86	N	1.425898	0.619742	0.226314
C87	C	0.973648	0.069021	-0.322520
C88	C	1.473648	0.569021	0.177480
C89	C	0.969359	0.073581	-0.412773
C90	C	1.469359	0.573581	0.087227
C91	C	0.917323	0.128866	-0.454191
C92	C	1.417323	0.628866	0.045809
C93	C	0.869567	0.179589	-0.405350
C94	C	1.369567	0.679589	0.094650
C95	C	0.873852	0.175025	-0.315098
C96	C	1.373852	0.675025	0.184902
C97	C	0.901883	0.145295	-0.726507
C98	C	1.401883	0.645295	-0.226507
C99	C	0.897602	0.149857	-0.816766
C100	C	1.397602	0.649857	-0.316766
C101	C	0.997394	0.043848	-0.824183
C102	C	1.497394	0.543848	-0.324183
C103	C	1.001679	0.039291	-0.733929
C104	C	1.501679	0.539291	-0.233929
C105	C	0.953920	0.090012	-0.685096
C106	C	1.453920	0.590012	-0.185096
C107	C	0.912939	0.133530	-0.546444
C108	C	1.412939	0.633530	-0.046444
C109	C	0.958300	0.085343	-0.592844
C110	C	1.458300	0.585343	-0.092844
N111	N	0.945353	0.099136	0.134400
N112	N	1.445353	0.599136	0.634400
H113	H	0.329602	0.101889	0.043316
H114	H	0.829602	0.601889	0.543316
Br115	Br	1.062205	-0.024985	-0.890459
Br116	Br	1.562205	0.475015	-0.390459
H117	H	0.180703	0.098876	0.054424
H118	H	0.680703	0.598876	0.554424
Br119	Br	0.142832	0.114868	-0.269949
Br120	Br	0.642832	0.614868	0.230051
H121	H	1.052580	-0.144485	-0.078365
H122	H	1.552580	0.355515	0.421635
Br123	Br	1.076692	-0.319564	-0.080145
Br124	Br	1.576692	0.180436	0.419855
Br125	Br	0.837071	0.214129	-0.660238
Br126	Br	1.337071	0.714129	-0.160238
H127	H	1.000665	0.040327	-0.559119
H128	H	1.500665	0.540327	-0.059119
Br129	Br	0.728410	0.104001	0.130670
Br130	Br	1.228410	0.604001	0.630670
H131	H	1.076212	-0.669795	-0.080104
H132	H	1.576212	-0.169795	0.419896
H133	H	0.555197	0.102662	0.101005
H134	H	1.055197	0.602662	0.601005
Br135	Br	0.798938	0.254615	-0.461555
Br136	Br	1.298938	0.754615	0.038445
Br137	Br	0.826978	0.224897	-0.872970
Br138	Br	1.326978	0.724897	-0.372970
Br139	Br	0.778251	-0.653820	-0.057917
Br140	Br	1.278251	-0.153820	0.442083
H141	H	0.834968	0.216326	-0.275337
H142	H	1.334968	0.716326	0.224663
Br143	Br	1.129171	-0.504626	-0.084024
Br144	Br	1.629171	-0.004626	0.415976
Br145	Br	0.336302	0.118811	-0.284378
Br146	Br	0.836302	0.618811	0.215622
H147	H	1.044051	-0.005726	-0.700209
H148	H	1.544051	0.494274	-0.200209
H149	H	0.831204	-0.488660	-0.061847
H150	H	1.331204	0.011340	0.438153
H151	H	0.690545	0.120019	-0.193706
H152	H	1.190545	0.620019	0.306294
H153	H	0.870571	0.178545	-0.580174
H154	H	1.370571	0.678545	-0.080174
Br155	Br	0.758372	-0.084220	-0.056434
Br156	Br	1.258372	0.415780	0.443566
Br157	Br	0.517338	0.118685	-0.223372
Br158	Br	1.017338	0.618685	0.276628
H159	H	0.426519	0.104058	0.032156
H160	H	0.926519	0.604058	0.532156
H161	H	0.444736	0.114812	-0.171439
H162	H	0.944736	0.614812	0.328561
H163	H	1.008241	0.032279	-0.452534
H164	H	1.508241	0.532279	0.047466
H165	H	1.028298	-0.388504	-0.076514
H166	H	1.528298	0.111496	0.423486
Br167	Br	0.742074	-0.276491	-0.055208
Br168	Br	1.242074	0.223509	0.444792
H169	H	1.016025	0.024005	-0.288804
H170	H	1.516025	0.524005	0.211196
Br171	Br	0.802532	-0.409803	-0.059713
Br172	Br	1.302532	0.090197	0.440287
