data_functionalizedCrystal
_audit_creation_method	'MofGen! by Chris Wilmer'
_symmetry_space_group_name_H-M	'P1'
_symmetry_Int_Tables_number	1
_symmetry_cell_setting	triclinic
loop_
_symmetry_equiv_pos_as_xyz
  x,y,z
_cell_length_a	14.971486
_cell_length_b	23.532407
_cell_length_c	14.048226
_cell_angle_alpha	89.988910
_cell_angle_beta	89.998499
_cell_angle_gamma	83.231404
loop_
_atom_site_label
_atom_site_type_symbol
_atom_site_fract_x
_atom_site_fract_y
_atom_site_fract_z
O1	O	1.186163	0.074216	-0.079061
O2	O	0.925669	0.083104	-0.079088
O3	O	1.063771	-0.004238	-0.079057
O4	O	1.048061	0.161558	-0.079093
O5	O	1.063755	-0.004243	0.079265
O6	O	0.925652	0.083099	0.079233
O7	O	1.186146	0.074211	0.079260
Zn8	Zn	1.055897	0.078654	0.104383
Zn9	Zn	1.055919	0.078661	-0.104212
O10	O	1.048044	0.161553	0.079228
C11	C	0.892340	0.082704	0.000069
C12	C	0.793056	0.081513	0.000059
C13	C	1.063363	-0.025458	0.000107
C14	C	1.062160	-0.088680	0.000114
C15	C	0.735288	0.132824	0.000050
C16	C	0.642001	0.131701	0.000064
C17	C	0.606482	0.079267	0.000082
C18	C	0.664257	0.027952	0.000094
C19	C	0.757543	0.029075	0.000087
C20	C	0.469819	0.025615	0.000108
C21	C	0.376527	0.024491	0.000114
C22	C	0.354277	0.128241	0.000085
C23	C	0.447563	0.129364	0.000078
C24	C	0.505331	0.078049	0.000089
C25	C	1.136342	-0.487466	0.000069
C26	C	1.135224	-0.546871	0.000062
O27	O	1.203992	-0.583321	0.000034
N28	N	1.053123	-0.569849	0.000054
C29	C	0.972133	-0.533418	0.000044
O30	O	0.902196	-0.558417	0.000036
C31	C	0.973251	-0.474014	0.000044
C32	C	1.055358	-0.451040	0.000062
C33	C	1.218442	-0.464491	0.000086
C34	C	1.219559	-0.405090	0.000095
C35	C	1.138576	-0.368664	0.000087
C36	C	1.056475	-0.391639	0.000071
C37	C	0.892263	-0.437584	0.000027
C38	C	0.893388	-0.378177	0.000027
C39	C	0.975495	-0.355203	0.000045
C40	C	0.976609	-0.295812	0.000073
N41	N	1.058711	-0.272834	0.000081
C42	C	1.139694	-0.309260	0.000088
C43	C	0.969791	-0.658170	0.000041
C44	C	0.968671	-0.717573	0.000047
C45	C	1.131763	-0.731022	0.000064
C46	C	1.132882	-0.671618	0.000064
C47	C	1.051892	-0.635193	0.000049
C48	C	1.142034	-0.184513	0.000108
C49	C	1.143143	-0.125106	0.000121
C50	C	0.980052	-0.111663	0.000100
C51	C	0.978942	-0.171064	0.000092
C52	C	1.059940	-0.207489	0.000093
O53	O	0.907878	-0.259327	0.000097
O54	O	1.209619	-0.284253	0.000084
C55	C	1.219475	0.074611	0.000101
C56	C	1.318760	0.075802	0.000104
C57	C	1.048453	0.182773	0.000063
C58	C	1.049655	0.245996	0.000050
N59	N	1.055889	0.078649	0.246744
N60	N	1.055934	0.078661	-0.246572
C61	C	1.117059	0.039990	0.296576
C62	C	1.117065	0.039990	0.396234
C63	C	1.055904	0.078652	0.446058
C64	C	0.994727	0.117313	0.396218
C65	C	0.994717	0.117310	0.296563
C66	C	0.994753	0.117317	0.603933
C67	C	0.994763	0.117320	0.703595
C68	C	1.117101	0.039997	0.703604
C69	C	1.117091	0.039994	0.603948
C70	C	1.055915	0.078656	0.554116
H71	H	0.764199	0.175522	0.000034
C72	C	0.927423	0.159824	0.451017
H73	H	0.890977	0.182839	0.407063
H74	H	0.959360	0.183574	0.489894
H75	H	0.890388	0.139278	0.489891
C76	C	0.801946	-0.462846	-0.000003
H77	H	0.812864	-0.503442	-0.000000
H78	H	0.768642	-0.450334	-0.055221
H79	H	0.768614	-0.450352	0.055206
H80	H	1.210008	-0.106405	0.000138
C81	C	0.804298	-0.338112	0.000014
H82	H	0.755244	-0.360307	0.000010
H83	H	0.801348	-0.314650	-0.055192
H84	H	0.801334	-0.314669	0.055235
H85	H	1.284392	-0.494144	0.000088
C86	C	0.533363	-0.030831	0.000109
H87	H	0.498850	-0.062220	0.000107
H88	H	0.570225	-0.032556	0.055312
H89	H	0.570206	-0.032542	-0.055115
H90	H	0.594969	0.173484	0.000055
H91	H	1.207990	-0.214164	0.000105
H92	H	1.286419	-0.386390	0.000105
H93	H	1.166912	0.008517	0.744183
C94	C	0.337458	-0.033184	0.000139
H95	H	0.385221	-0.063585	0.000157
H96	H	0.301528	-0.035779	-0.055068
H97	H	0.301530	-0.035775	0.055359
C98	C	1.220847	-0.771096	0.000065
H99	H	1.269910	-0.748909	0.000078
H100	H	1.223800	-0.794541	-0.055147
H101	H	1.223791	-0.794556	0.055280
C102	C	1.184342	-0.002533	0.241774
H103	H	1.175585	0.003005	0.175285
H104	H	1.174979	-0.040553	0.258121
H105	H	1.243980	0.003723	0.258100
H106	H	0.307237	0.170023	0.000080
C107	C	0.821087	-0.027367	0.000088
H108	H	0.786575	-0.058756	0.000089
H109	H	0.857946	-0.029089	0.055294
H110	H	0.857934	-0.029081	-0.055133
H111	H	0.944959	0.148802	0.744157
C112	C	1.223198	-0.646352	0.000074
H113	H	1.271264	-0.676558	0.000074
H114	H	1.227024	-0.623462	0.055282
H115	H	1.227033	-0.623455	-0.055145
H116	H	0.635331	-0.014741	0.000122
C117	C	0.486632	0.187040	0.000060
H118	H	0.438869	0.217440	0.000065
H119	H	0.522560	0.189636	-0.055151
H120	H	0.522561	0.189629	0.055276
C121	C	1.184361	-0.002530	0.451045
H122	H	1.220794	-0.025549	0.407099
H123	H	1.152414	-0.026274	0.489938
H124	H	1.221410	0.018006	0.489904
C125	C	0.927434	0.159837	0.241747
H126	H	0.891015	0.182867	0.285692
H127	H	0.890383	0.139310	0.202885
H128	H	0.959397	0.183579	0.202858
C129	C	0.878356	-0.742841	0.000039
H130	H	0.889280	-0.783438	0.000042
H131	H	0.845041	-0.730331	-0.055173
H132	H	0.845033	-0.730349	0.055255
C133	C	0.880697	-0.618107	0.000042
H134	H	0.831646	-0.640304	0.000046
H135	H	0.877738	-0.594645	-0.055165
H136	H	0.877737	-0.594663	0.055262
H137	H	0.912084	-0.189771	0.000104
C138	C	0.890978	-0.071587	0.000086
H139	H	0.903410	-0.032919	0.000082
H140	H	0.857273	-0.078561	0.055287
H141	H	0.857303	-0.078551	-0.055141
H142	H	1.166897	0.008516	0.563382
H143	H	0.944934	0.148797	0.563363
