data_functionalizedCrystal
_audit_creation_method	'MofGen! by Chris Wilmer'
_symmetry_space_group_name_H-M	'P1'
_symmetry_Int_Tables_number	1
_symmetry_cell_setting	triclinic
loop_
_symmetry_equiv_pos_as_xyz
  x,y,z
_cell_length_a	23.532407
_cell_length_b	12.837942
_cell_length_c	11.295483
_cell_angle_alpha	94.530417
_cell_angle_beta	94.076158
_cell_angle_gamma	91.161152
loop_
_atom_site_label
_atom_site_type_symbol
_atom_site_fract_x
_atom_site_fract_y
_atom_site_fract_z
O1	O	-0.765928	0.118758	-0.098931
O2	O	-0.601109	0.136953	-0.098953
O3	O	-0.679863	-0.023009	-0.098935
O4	O	-0.687173	0.278720	-0.098949
O5	O	-0.672945	-0.008981	0.099114
O6	O	-0.594191	0.150981	0.099096
O7	O	-0.759009	0.132786	0.099119
Cu8	Cu	-0.675968	0.143165	0.117191
Cu9	Cu	-0.684150	0.126574	-0.117025
O10	O	-0.680255	0.292748	0.099101
C11	C	-0.576407	0.143504	0.000069
C12	C	-0.513111	0.142110	0.000060
C13	C	-0.673935	-0.054590	0.000089
C14	C	-0.666571	-0.169592	0.000086
C15	C	-0.241181	0.041703	0.000091
C16	C	-0.300656	0.042997	0.000092
O17	O	-0.332828	-0.036652	0.000137
N18	N	-0.328739	0.138095	0.000080
C19	C	-0.297344	0.231905	0.000079
O20	O	-0.326692	0.312912	0.000070
C21	C	-0.237870	0.230611	0.000087
C22	C	-0.209791	0.135506	0.000086
C23	C	-0.213101	-0.053394	0.000092
C24	C	-0.153631	-0.054688	0.000089
C25	C	-0.122241	0.039115	0.000084
C26	C	-0.150320	0.134212	0.000083
C27	C	-0.206476	0.324420	0.000095
C28	C	-0.146998	0.323117	0.000103
C29	C	-0.118919	0.228013	0.000103
C30	C	-0.059460	0.226721	0.000076
N31	N	-0.031376	0.131623	0.000088
C32	C	-0.062767	0.037820	0.000092
C33	C	-0.422242	0.234617	0.000066
C34	C	-0.481715	0.235913	0.000050
C35	C	-0.485023	0.047005	0.000064
C36	C	-0.425549	0.045710	0.000072
C37	C	-0.394159	0.139520	0.000077
C38	C	0.062125	0.035110	0.000084
C39	C	0.121601	0.033824	0.000076
C40	C	0.124903	0.222732	0.000067
C41	C	0.065433	0.224018	0.000069
C42	C	0.034045	0.130199	0.000082
O43	O	-0.027250	0.306329	0.000035
O44	O	-0.033411	-0.043172	0.000116
C45	C	-0.755105	-0.411463	0.000073
C46	C	-0.748188	-0.519518	0.000070
C47	C	-0.645821	-0.493759	0.000068
C48	C	-0.652738	-0.385704	0.000071
C49	C	-0.707381	-0.344560	0.000075
C50	C	-0.714297	-0.236503	0.000087
C51	C	-0.611932	-0.210747	0.000077
C52	C	-0.605015	-0.318802	0.000074
C53	C	0.216289	0.126235	0.000088
C54	C	0.152991	0.127627	0.000071
C55	C	-0.686183	0.324329	0.000074
C56	C	-0.693548	0.439330	0.000069
N57	N	-0.670218	0.154832	0.281926
N58	N	-0.689905	0.114898	-0.281760
C59	C	-0.731297	0.030848	0.531229
C60	C	-0.726955	0.039673	0.655892
C61	C	-0.657192	0.181301	0.655916
C62	C	-0.661533	0.172477	0.531253
C63	C	-0.698587	0.097249	0.468914
C64	C	-0.702931	0.088429	0.344249
C65	C	-0.633165	0.230052	0.344276
C66	C	-0.628823	0.238877	0.468938
H67	H	0.144460	-0.043625	0.000072
F68	F	-0.798982	-0.590718	0.000064
H69	H	-0.799597	-0.377962	0.000088
F70	F	-0.246501	-0.153241	0.000100
H71	H	-0.130774	-0.132131	0.000093
F72	F	-0.395670	-0.055512	0.000075
F73	F	-0.236347	0.425645	0.000094
F74	F	-0.388840	0.334469	0.000059
H75	H	-0.733104	0.027178	0.293494
H76	H	-0.573072	-0.156262	0.000088
F77	F	-0.617752	0.261351	0.722275
H78	H	-0.606532	0.284123	0.293525
F79	F	0.035547	0.325237	0.000054
F80	F	-0.772452	-0.192715	0.000099
F81	F	-0.770738	-0.049205	0.464883
H82	H	-0.601334	-0.527279	0.000052
H83	H	-0.510592	-0.029375	0.000068
H84	H	0.036576	-0.041287	0.000094
H85	H	-0.560526	-0.352317	0.000066
H86	H	-0.504573	0.313355	0.000033
F87	F	-0.761768	-0.031002	0.722208
H88	H	-0.598653	0.300124	0.519709
H89	H	-0.121443	0.399511	0.000113
H90	H	0.150472	0.299103	0.000058
