data_functionalizedCrystal
_audit_creation_method	'MofGen! by Chris Wilmer'
_symmetry_space_group_name_H-M	'P1'
_symmetry_Int_Tables_number	1
_symmetry_cell_setting	triclinic
loop_
_symmetry_equiv_pos_as_xyz
  x,y,z
_cell_length_a	16.992697
_cell_length_b	16.992696
_cell_length_c	15.455322
_cell_angle_alpha	87.160116
_cell_angle_beta	92.857349
_cell_angle_gamma	90.668453
loop_
_atom_site_label
_atom_site_type_symbol
_atom_site_fract_x
_atom_site_fract_y
_atom_site_fract_z
O1	O	-1.054081	-0.163696	-0.072030
O2	O	-0.720748	0.169637	0.261303
O3	O	-0.387415	0.502971	0.594637
O4	O	-0.825683	-0.161863	-0.072059
O5	O	-0.492349	0.171470	0.261274
O6	O	-0.159016	0.504804	0.594608
O7	O	-0.938965	-0.048580	-0.072021
O8	O	-0.605632	0.284753	0.261313
O9	O	-0.272298	0.618086	0.594646
O10	O	-0.940799	-0.276978	-0.072069
O11	O	-0.607466	0.056355	0.261265
O12	O	-0.274132	0.389688	0.594598
O13	O	-0.932484	-0.055031	0.072239
O14	O	-0.599151	0.278303	0.405573
O15	O	-0.265818	0.611636	0.738906
O16	O	-0.819202	-0.168313	0.072201
O17	O	-0.485869	0.165020	0.405534
O18	O	-0.152535	0.498354	0.738868
O19	O	-1.047601	-0.170146	0.072230
O20	O	-0.714267	0.163187	0.405563
O21	O	-0.380934	0.496521	0.738896
Cu22	Cu	-0.932810	-0.169818	0.085387
Cu23	Cu	-0.599476	0.163515	0.418721
Cu24	Cu	-0.266143	0.496848	0.752054
Cu25	Cu	-0.940474	-0.162190	-0.085217
Cu26	Cu	-0.607140	0.171143	0.248117
Cu27	Cu	-0.273807	0.504476	0.581450
O28	O	-0.934318	-0.283428	0.072191
O29	O	-0.600985	0.049905	0.405525
O30	O	-0.267652	0.383238	0.738858
C31	C	-0.793082	-0.162732	0.000068
C32	C	-0.459749	0.170601	0.333401
C33	C	-0.126416	0.503935	0.666734
C34	C	-0.705598	-0.155703	0.000058
C35	C	-0.372265	0.177631	0.333391
C36	C	-0.038931	0.510964	0.666724
N37	N	-0.927425	-0.175183	0.205381
N38	N	-0.594091	0.158150	0.538714
N39	N	-0.260758	0.491483	0.872048
C40	C	-0.659608	-0.223520	0.000043
C41	C	-0.326275	0.109813	0.333377
C42	C	0.007059	0.443147	0.666710
C43	C	-0.577407	-0.216911	0.000055
C44	C	-0.244073	0.116422	0.333389
C45	C	0.089260	0.449755	0.666722
C46	C	-0.541197	-0.142485	0.000075
C47	C	-0.207864	0.190849	0.333409
C48	C	0.125469	0.524182	0.666742
C49	C	-0.587193	-0.074662	0.000092
C50	C	-0.253860	0.258671	0.333426
C51	C	0.079473	0.592004	0.666759
C52	C	-0.669393	-0.081272	0.000087
C53	C	-0.336060	0.252061	0.333420
C54	C	-0.002726	0.585395	0.666753
C55	C	-0.295882	-0.115091	0.000100
C56	C	0.037451	0.218243	0.333434
C57	C	0.370785	0.551576	0.666767
C58	C	-0.213676	-0.108486	0.000104
C59	C	0.119657	0.224847	0.333437
C60	C	0.452990	0.558181	0.666770
C61	C	-0.203895	-0.250736	0.000068
C62	C	0.129438	0.082598	0.333402
C63	C	0.462771	0.415931	0.666735
C64	C	-0.286097	-0.257339	0.000057
C65	C	0.047236	0.075995	0.333391
C66	C	0.380570	0.409328	0.666724
C67	C	-0.332086	-0.189517	0.000079
C68	C	0.001248	0.143817	0.333412
C69	C	0.334581	0.477150	0.666745
N70	N	-0.457175	-0.135728	0.000085
N71	N	-0.123841	0.197606	0.333418
N72	N	0.209492	0.530939	0.666752
N73	N	-0.416107	-0.196275	0.000075
N74	N	-0.082773	0.137059	0.333409
N75	N	0.250560	0.470392	0.666742
C76	C	-0.933369	-0.022446	0.000113
C77	C	-0.600035	0.310888	0.333447
C78	C	-0.266702	0.644221	0.666780
C79	C	-0.926339	0.065039	0.000125
C80	C	-0.593006	0.398372	0.333459
C81	C	-0.259673	0.731705	0.666792
C82	C	-0.080201	-0.169276	0.000097
C83	C	0.253132	0.164057	0.333431
C84	C	0.586465	0.497391	0.666764
C85	C	-0.167686	-0.176303	0.000089
C86	C	0.165647	0.157030	0.333423
C87	C	0.498980	0.490363	0.666756
C88	C	-0.994156	0.111029	0.000142
C89	C	-0.660823	0.444362	0.333475
C90	C	-0.327490	0.777695	0.666809
C91	C	-0.987547	0.193229	0.000145
C92	C	-0.654214	0.526562	0.333478
C93	C	-0.320880	0.859896	0.666812
C94	C	-0.913120	0.229438	0.000138
C95	C	-0.579786	0.562771	0.333471
C96	C	-0.246453	0.896105	0.666805
C97	C	-0.845298	0.183442	0.000119
C98	C	-0.511964	0.516775	0.333452
C99	C	-0.178631	0.850109	0.666786
C100	C	-0.851908	0.101243	0.000110
C101	C	-0.518575	0.434576	0.333443
C102	C	-0.185241	0.767910	0.666776
C103	C	-0.885724	0.474751	0.000160
C104	C	-0.552390	0.808085	0.333493
C105	C	-0.219057	1.141418	0.666826
C106	C	-0.879118	0.556956	0.000172
C107	C	-0.545785	0.890289	0.333505
C108	C	-0.212452	1.223623	0.666838
C109	C	-1.021369	0.566738	0.000196
C110	C	-0.688035	0.900071	0.333529
C111	C	-0.354702	1.233404	0.666863
C112	C	-1.027972	0.484537	0.000192
C113	C	-0.694639	0.817870	0.333525
C114	C	-0.361306	1.151203	0.666859
C115	C	-0.960150	0.438548	0.000168
C116	C	-0.626817	0.771881	0.333502
C117	C	-0.293484	1.105215	0.666835
N118	N	-0.906362	0.313460	0.000144
N119	N	-0.573029	0.646793	0.333478
N120	N	-0.239695	0.980127	0.666811
N121	N	-0.966909	0.354528	0.000156
N122	N	-0.633576	0.687861	0.333489
N123	N	-0.300242	1.021195	0.666823
C124	C	-0.939912	0.690435	0.000093
C125	C	-0.606579	1.023768	0.333427
C126	C	-0.273246	1.357102	0.666760
C127	C	-0.946936	0.602946	0.000188
C128	C	-0.613602	0.936279	0.333522
C129	C	-0.280269	1.269613	0.666855
C130	C	-0.975570	-0.127077	0.250792
C131	C	-0.642236	0.206256	0.584125
C132	C	-0.308903	0.539589	0.917458
C133	C	-0.971505	-0.131142	0.341598
C134	C	-0.638172	0.202191	0.674931
C135	C	-0.304839	0.535524	1.008265
C136	C	-0.919299	-0.183318	0.386992
C137	C	-0.585966	0.150015	0.720326
C138	C	-0.252632	0.483349	1.053659
C139	C	-0.871149	-0.231426	0.341576
C140	C	-0.537815	0.101907	0.674909
C141	C	-0.204482	0.435240	1.008242
C142	C	-0.875210	-0.227357	0.250771
C143	C	-0.541876	0.105977	0.584104
C144	C	-0.208543	0.439310	0.917438
C145	C	-0.901769	-0.200862	0.658568
C146	C	-0.568436	0.132471	0.991901
C147	C	-0.235102	0.465804	1.325235
C148	C	-0.897713	-0.204930	0.749379
C149	C	-0.564380	0.128403	1.082713
C150	C	-0.231046	0.461737	1.416046
C151	C	-0.998069	-0.104644	0.749395
C152	C	-0.664736	0.228689	1.082729
C153	C	-0.331403	0.562022	1.416062
C154	C	-1.002129	-0.100583	0.658589
C155	C	-0.668796	0.232750	0.991922
C156	C	-0.335462	0.566084	1.325255
C157	C	-0.953976	-0.148688	0.613180
C158	C	-0.620642	0.184645	0.946513
C159	C	-0.287309	0.517979	1.279847
N160	N	-0.915145	-0.187476	0.479811
N161	N	-0.581811	0.145857	0.813145
N162	N	-0.248478	0.479190	1.146478
N163	N	-0.958126	-0.144525	0.520363
N164	N	-0.624793	0.188808	0.853696
N165	N	-0.291460	0.522141	1.187029
N166	N	-0.945858	-0.156824	0.794790
N167	N	-0.612525	0.176510	1.128123
N168	N	-0.279192	0.509843	1.461456
H169	H	-0.689083	-0.284126	0.000026
H170	H	-0.355750	0.049207	0.333360
H171	H	-0.022417	0.382541	0.666693
H172	H	-0.315573	-0.317944	0.000031
H173	H	0.017760	0.015389	0.333364
H174	H	0.351094	0.348722	0.666697
H175	H	-0.796684	0.063799	0.000096
H176	H	-0.463350	0.397132	0.333429
H177	H	-0.130017	0.730465	0.666763
H178	H	-0.166443	-0.305952	0.000053
H179	H	0.166891	0.027381	0.333386
H180	H	0.500224	0.360714	0.666719
H181	H	-0.539965	-0.272136	0.000043
H182	H	-0.206631	0.061198	0.333376
H183	H	0.126702	0.394531	0.666709
H184	H	-0.184198	-0.047876	0.000119
H185	H	0.149135	0.285458	0.333452
H186	H	0.482469	0.618791	0.666786
H187	H	-0.818507	0.586434	0.000180
H188	H	-0.485174	0.919767	0.333513
H189	H	-0.151840	1.253100	0.666847
H190	H	-0.333316	-0.059865	0.000119
H191	H	0.000017	0.273469	0.333452
H192	H	0.333350	0.606802	0.666785
H193	H	-0.836004	-0.266529	0.213798
H194	H	-0.502670	0.066805	0.547132
H195	H	-0.169337	0.400138	0.880465
H196	H	-0.557705	-0.014063	0.000121
H197	H	-0.224371	0.319271	0.333454
H198	H	0.108962	0.652604	0.666788
H199	H	-0.706838	-0.026048	0.000098
H200	H	-0.373504	0.307286	0.333431
H201	H	-0.040171	0.640619	0.666764
H202	H	-1.054763	0.081554	0.000153
H203	H	-0.721430	0.414887	0.333486
H204	H	-0.388096	0.748220	0.666820
H205	H	-1.042771	0.230671	0.000160
H206	H	-0.709438	0.564004	0.333494
H207	H	-0.376105	0.897338	0.666827
H208	H	-1.076585	0.604190	0.000214
H209	H	-0.743252	0.937524	0.333547
H210	H	-0.409919	1.270857	0.666880
H211	H	-1.088579	0.455062	0.000198
H212	H	-0.755245	0.788395	0.333531
H213	H	-0.421912	1.121728	0.666864
H214	H	-1.018085	-0.084594	0.213837
H215	H	-0.684752	0.248740	0.547171
H216	H	-0.351418	0.582073	0.880504
H217	H	-0.828637	-0.273906	0.378541
H218	H	-0.495304	0.059427	0.711874
H219	H	-0.161970	0.392761	1.045208
H220	H	-1.044640	-0.058097	0.621630
H221	H	-0.711306	0.275236	0.954964
H222	H	-0.377973	0.608569	1.288297
H223	H	-1.037272	-0.065479	0.786376
H224	H	-0.703939	0.267855	1.119709
H225	H	-0.370606	0.601188	1.453042
H226	H	-0.830498	0.437317	0.000141
H227	H	-0.497165	0.770650	0.333474
H228	H	-0.163831	1.103984	0.666807
H229	H	-0.784697	0.212930	0.000108
H230	H	-0.451364	0.546263	0.333441
H231	H	-0.118031	0.879596	0.666775
H232	H	-1.010708	-0.091970	0.378571
H233	H	-0.677375	0.241363	0.711904
H234	H	-0.344041	0.574697	1.045238
H235	H	-0.855198	-0.247421	0.786335
H236	H	-0.521865	0.085913	1.119669
H237	H	-0.188532	0.419246	1.453002
H238	H	-0.862562	-0.240033	0.621603
H239	H	-0.529229	0.093300	0.954937
H240	H	-0.195895	0.426634	1.288270
