data_functionalizedCrystal
_audit_creation_method	'MofGen! by Chris Wilmer'
_symmetry_space_group_name_H-M	'P1'
_symmetry_Int_Tables_number	1
_symmetry_cell_setting	triclinic
loop_
_symmetry_equiv_pos_as_xyz
  x,y,z
_cell_length_a	14.971487
_cell_length_b	9.130313
_cell_length_c	14.971486
_cell_angle_alpha	89.999935
_cell_angle_beta	83.614266
_cell_angle_gamma	90.003145
loop_
_atom_site_label
_atom_site_type_symbol
_atom_site_fract_x
_atom_site_fract_y
_atom_site_fract_z
O1	O	-1.186943	0.121590	-0.116559
O2	O	-0.686943	0.621590	0.383441
O3	O	-0.926543	0.121639	-0.130517
O4	O	-0.426543	0.621639	0.369483
O5	O	-1.063722	0.121603	0.006662
O6	O	-0.563722	0.621603	0.506662
O7	O	-1.049764	0.121627	-0.253738
O8	O	-0.549764	0.621627	0.246262
O9	O	-1.063713	-0.121996	0.006653
O10	O	-0.563713	0.378004	0.506653
O11	O	-0.926534	-0.121959	-0.130526
O12	O	-0.426534	0.378041	0.369474
O13	O	-1.186934	-0.122009	-0.116567
O14	O	-0.686934	0.377991	0.383433
Cu15	Cu	-1.056733	-0.144226	-0.123547
Cu16	Cu	-0.556733	0.355774	0.376453
Cu17	Cu	-1.056744	0.143857	-0.123538
Cu18	Cu	-0.556744	0.643857	0.376462
O19	O	-1.049754	-0.121972	-0.253747
O20	O	-0.549754	0.378028	0.246253
C21	C	-0.893214	-0.000154	-0.129897
C22	C	-0.393214	0.499846	0.370103
C23	C	-0.793917	-0.000135	-0.128026
C24	C	-0.293917	0.499865	0.371974
N25	N	-1.056731	-0.346849	-0.123554
N26	N	-0.556731	0.153151	0.376446
C27	C	-0.736691	-0.000128	-0.208615
C28	C	-0.236691	0.499872	0.291385
C29	C	-0.643392	-0.000147	-0.206852
C30	C	-0.143392	0.499853	0.293148
C31	C	-0.607320	-0.000162	-0.124499
C32	C	-0.107320	0.499838	0.375501
C33	C	-0.664552	-0.000174	-0.043903
C34	C	-0.164552	0.499826	0.456097
C35	C	-0.757850	-0.000166	-0.045668
C36	C	-0.257850	0.499834	0.454332
C37	C	-0.470090	-0.000188	-0.040232
C38	C	0.029910	0.499812	0.459768
C39	C	-0.376786	-0.000193	-0.038467
C40	C	0.123214	0.499807	0.461533
C41	C	-0.355632	-0.000169	-0.201416
C42	C	0.144368	0.499831	0.298584
C43	C	-0.448929	-0.000161	-0.203181
C44	C	0.051071	0.499839	0.296819
C45	C	-0.506156	-0.000170	-0.122585
C46	C	-0.006156	0.499830	0.377415
C47	C	-1.111034	-0.423521	-0.177889
C48	C	-0.611034	0.076479	0.322111
C49	C	-1.111047	-0.576858	-0.177872
C50	C	-0.611047	-0.076858	0.322128
C51	C	-1.002447	-0.576838	-0.069183
C52	C	-0.502447	-0.076838	0.430817
C53	C	-1.002440	-0.423504	-0.069195
C54	C	-0.502440	0.076496	0.430805
C55	C	-1.165326	-0.346866	-0.232247
C56	C	-0.665326	0.153134	0.267753
C57	C	-1.219632	-0.423538	-0.286588
C58	C	-0.719632	0.076462	0.213412
C59	C	-1.219645	-0.576875	-0.286571
C60	C	-0.719645	-0.076875	0.213429
C61	C	-1.165352	-0.653540	-0.232214
C62	C	-0.665352	-0.153540	0.267786
C63	C	-0.220263	-0.000203	-0.117187
C64	C	0.279737	0.499797	0.382813
C65	C	-0.319560	-0.000186	-0.119056
C66	C	0.180440	0.499814	0.380944
C67	C	-1.063094	-0.000196	0.039982
C68	C	-0.563094	0.499804	0.539982
C69	C	-1.061223	-0.000194	0.139279
C70	C	-0.561223	0.499806	0.639279
N71	N	-1.056752	0.346480	-0.123524
N72	N	-0.556752	0.846480	0.376476
C73	C	-1.050383	-0.000170	-0.287067
C74	C	-0.550383	0.499830	0.212933
C75	C	-1.052254	-0.000162	-0.386364
C76	C	-0.552254	0.499838	0.113636
C77	C	-1.141812	-0.000210	0.196504
C78	C	-0.641812	0.499790	0.696504
C79	C	-1.140049	-0.000195	0.289804
C80	C	-0.640049	0.499805	0.789804
C81	C	-1.057696	-0.000174	0.325876
C82	C	-0.557696	0.499826	0.825876
C83	C	-0.977100	-0.000154	0.268644
C84	C	-0.477100	0.499846	0.768644
C85	C	-0.978864	-0.000158	0.175346
C86	C	-0.478864	0.499842	0.675346
C87	C	-0.973429	-0.000148	0.463106
C88	C	-0.473429	0.499852	0.963106
C89	C	-0.971665	-0.000146	0.556411
C90	C	-0.471665	0.499854	1.056411
C91	C	-1.134614	-0.000185	0.577564
C92	C	-0.634614	0.499815	1.077564
C93	C	-1.136378	-0.000189	0.484266
C94	C	-0.636378	0.499811	0.984266
C95	C	-1.055782	-0.000171	0.427040
C96	C	-0.555782	0.499829	0.927040
H97	H	-0.766053	-0.000115	-0.275677
H98	H	-0.266053	0.499885	0.224323
Cl99	Cl	-1.165381	-0.846308	-0.232185
Cl100	Cl	-0.665381	-0.346308	0.267815
Cl101	Cl	-1.287891	-0.327162	-0.354910
Cl102	Cl	-0.787891	0.172838	0.145090
Cl103	Cl	-0.934191	-0.327109	-0.000868
Cl104	Cl	-0.434191	0.172891	0.499132
H105	H	-1.200238	-0.000195	0.624162
H106	H	-0.700238	0.499805	1.124162
Cl107	Cl	-0.934194	-0.673218	-0.000858
Cl108	Cl	-0.434194	-0.173218	0.499142
H109	H	-0.347419	-0.000208	0.028592
H110	H	0.152581	0.499792	0.528592
Cl111	Cl	-0.542030	-0.000201	0.061090
Cl112	Cl	-0.042030	0.499799	0.561090
H113	H	-0.635175	-0.000207	0.023150
H114	H	-0.135175	0.499793	0.523150
Cl115	Cl	-1.287922	-0.673259	-0.354877
Cl116	Cl	-0.787922	-0.173259	0.145123
Cl117	Cl	-1.239909	-0.000208	0.438919
Cl118	Cl	-0.739909	0.499792	0.938919
Cl119	Cl	-0.829791	-0.000181	0.055649
Cl120	Cl	-0.329791	0.499819	0.555649
H121	H	-0.596802	-0.000140	-0.272476
H122	H	-0.096802	0.499860	0.227524
Cl123	Cl	-1.245348	-0.000252	0.151166
Cl124	Cl	-0.745348	0.499748	0.651166
Cl125	Cl	-0.872107	-0.000125	0.391166
Cl126	Cl	-0.372107	0.499875	0.891166
H127	H	-0.904606	-0.000153	0.585777
H128	H	-0.404606	0.499847	1.085777
H129	H	-1.165319	-0.222012	-0.232269
H130	H	-0.665319	0.277988	0.267731
H131	H	-1.205673	-0.000212	0.336394
H132	H	-0.705673	0.499788	0.836394
Cl133	Cl	-0.494276	-0.000126	-0.306712
Cl134	Cl	0.005724	0.499874	0.193288
H135	H	-0.910047	-0.000128	0.298021
H136	H	-0.410047	0.499872	0.798021
H137	H	-0.309033	-0.000169	-0.267040
H138	H	0.190967	0.499831	0.232960
H139	H	-0.913240	-0.000145	0.128754
H140	H	-0.413240	0.499855	0.628754
