data_functionalizedCrystal
_audit_creation_method	'MofGen! by Chris Wilmer'
_symmetry_space_group_name_H-M	'P1'
_symmetry_Int_Tables_number	1
_symmetry_cell_setting	triclinic
loop_
_symmetry_equiv_pos_as_xyz
  x,y,z
_cell_length_a	12.759399
_cell_length_b	12.759401
_cell_length_c	12.759393
_cell_angle_alpha	90.022497
_cell_angle_beta	89.969094
_cell_angle_gamma	89.984062
loop_
_atom_site_label
_atom_site_type_symbol
_atom_site_fract_x
_atom_site_fract_y
_atom_site_fract_z
Zn1	Zn	-0.418192	-1.606263	-0.594061
Zn2	Zn	-0.593908	-1.606153	-0.418380
Zn3	Zn	-0.418246	-1.430562	-0.418391
Zn4	Zn	-0.593832	-1.430553	-0.594012
O5	O	-0.506045	-1.518383	-0.506211
O6	O	-0.441511	-1.753270	-0.570772
O7	O	-0.570660	-1.582818	-0.271360
O8	O	-0.271218	-1.453919	-0.441719
O9	O	-0.570608	-1.753189	-0.441700
O10	O	-0.271178	-1.583006	-0.570783
O11	O	-0.441602	-1.453812	-0.271369
O12	O	-0.441529	-1.283540	-0.441672
O13	O	-0.570479	-1.453903	-0.741040
O14	O	-0.570531	-1.283533	-0.570700
O15	O	-0.441437	-1.582997	-0.741075
O16	O	-0.740919	-1.582809	-0.441652
O17	O	-0.740863	-1.453796	-0.570689
C18	C	-0.506029	-1.245415	-0.506183
C19	C	-0.506047	-1.128639	-0.506195
C20	C	-0.573320	-1.073801	-0.573273
C21	C	-0.573323	-0.964077	-0.573291
C22	C	-0.438776	-0.964038	-0.439145
C23	C	-0.438769	-1.073760	-0.439133
C24	C	-0.779012	-1.518318	-0.506187
C25	C	-0.895789	-1.518387	-0.506212
C26	C	-0.950645	-1.585641	-0.439099
C27	C	-1.060369	-1.585708	-0.439134
C28	C	-1.060371	-1.451259	-0.573398
C29	C	-0.950649	-1.451198	-0.573368
C30	C	-0.232011	-1.518476	-0.506258
C31	C	-0.115235	-1.518516	-0.506278
C32	C	-0.505944	-1.518461	-0.780244
C33	C	-0.505901	-1.518495	-0.897021
C34	C	-0.506059	-0.792416	-0.506233
C35	C	-0.506057	-0.909193	-0.506225
C36	C	-0.438698	-1.585719	-0.951903
C37	C	-0.438653	-1.585737	-1.061628
C38	C	-0.573022	-1.451303	-1.061577
C39	C	-0.573061	-1.451281	-0.951855
C40	C	-0.506069	-1.518365	-0.233244
C41	C	-0.505816	-1.518535	-0.116467
H42	H	-0.384003	-0.919343	-0.384543
Br43	Br	-0.347550	-1.676935	-0.877489
H44	H	-0.383928	-1.640476	-1.106308
H45	H	-1.105052	-1.396555	-0.628072
H46	H	-0.905980	-1.640352	-0.384418
Br47	Br	-1.134812	-1.676991	-0.348054
Br48	Br	-0.876195	-1.359927	-0.664465
H49	H	-0.627704	-1.396583	-1.106237
Br50	Br	-0.664263	-1.360032	-0.877365
H51	H	-0.628099	-1.118479	-0.627883
Br52	Br	-0.664621	-0.889657	-0.664334
H53	H	-0.383981	-1.118411	-0.384510
