data_functionalizedCrystal
_audit_creation_method	'MofGen! by Chris Wilmer'
_symmetry_space_group_name_H-M	'P1'
_symmetry_Int_Tables_number	1
_symmetry_cell_setting	triclinic
loop_
_symmetry_equiv_pos_as_xyz
  x,y,z
_cell_length_a	16.625548
_cell_length_b	16.625546
_cell_length_c	10.685880
_cell_angle_alpha	94.335175
_cell_angle_beta	85.603426
_cell_angle_gamma	90.023536
loop_
_atom_site_label
_atom_site_type_symbol
_atom_site_fract_x
_atom_site_fract_y
_atom_site_fract_z
Zn1	Zn	1.267656	-0.355868	-0.713450
Zn2	Zn	1.600989	-0.022534	-0.380116
Zn3	Zn	1.934322	0.310799	-0.046783
Zn4	Zn	1.257214	-0.480392	-0.502437
Zn5	Zn	1.590548	-0.147058	-0.169104
Zn6	Zn	1.923881	0.186275	0.164229
Zn7	Zn	1.122474	-0.345581	-0.502466
Zn8	Zn	1.455808	-0.012247	-0.169133
Zn9	Zn	1.789141	0.321086	0.164201
Zn10	Zn	1.132784	-0.490661	-0.713375
Zn11	Zn	1.466117	-0.157328	-0.380041
Zn12	Zn	1.799451	0.176006	-0.046708
O13	O	1.195032	-0.418125	-0.607932
O14	O	1.528365	-0.084792	-0.274599
O15	O	1.861699	0.248541	0.058735
O16	O	1.379104	-0.372394	-0.685478
O17	O	1.712437	-0.039060	-0.352144
O18	O	2.045770	0.294273	-0.018811
O19	O	1.230657	-0.453906	-0.325866
O20	O	1.563990	-0.120572	0.007467
O21	O	1.897323	0.212761	0.340801
O22	O	1.141788	-0.234115	-0.530497
O23	O	1.475121	0.099218	-0.197163
O24	O	1.808455	0.432552	0.136170
O25	O	1.371433	-0.463881	-0.530448
O26	O	1.704766	-0.130547	-0.197115
O27	O	2.038099	0.202786	0.136219
O28	O	1.248452	-0.241673	-0.685505
O29	O	1.581785	0.091660	-0.352172
O30	O	1.915119	0.424994	-0.018839
O31	O	1.131664	-0.354860	-0.325887
O32	O	1.464997	-0.021527	0.007446
O33	O	1.798330	0.311806	0.340780
O34	O	1.011009	-0.364818	-0.530424
O35	O	1.344342	-0.031485	-0.197091
O36	O	1.677675	0.301848	0.136243
O37	O	1.159359	-0.481383	-0.889960
O38	O	1.492693	-0.148050	-0.556627
O39	O	1.826026	0.185283	-0.223293
O40	O	1.018583	-0.471408	-0.685378
O41	O	1.351916	-0.138075	-0.352044
O42	O	1.685250	0.195258	-0.018711
O43	O	1.258449	-0.382351	-0.890015
O44	O	1.591782	-0.049018	-0.556682
O45	O	1.925115	0.284315	-0.223348
O46	O	1.240653	-0.594584	-0.530375
O47	O	1.573987	-0.261251	-0.197042
O48	O	1.907320	0.072083	0.136291
O49	O	1.149235	-0.602129	-0.685350
O50	O	1.482568	-0.268796	-0.352017
O51	O	1.815902	0.064538	-0.018683
C52	C	0.985540	-0.418112	-0.607897
C53	C	1.318873	-0.084779	-0.274563
C54	C	1.652206	0.248555	0.058770
C55	C	0.895919	-0.418127	-0.607911
C56	C	1.229252	-0.084794	-0.274578
C57	C	1.562586	0.248540	0.058755
C58	C	1.194953	-0.627614	-0.607879
C59	C	1.528287	-0.294280	-0.274546
C60	C	1.861620	0.039053	0.058788
C61	C	1.194995	-0.717236	-0.607899
C62	C	1.528329	-0.383902	-0.274565
C63	C	1.861662	-0.050569	0.058768
C64	C	1.195142	-1.045418	-0.608030
C65	C	1.528476	-0.712084	-0.274697
C66	C	1.861809	-0.378751	0.058637
C67	C	1.195099	-0.954107	-0.607997
C68	C	1.528432	-0.620774	-0.274664
C69	C	1.861766	-0.287441	0.058670
C70	C	1.195068	-0.881329	-0.607964
C71	C	1.528401	-0.547996	-0.274630
C72	C	1.861735	-0.214663	0.058703
C73	C	1.195026	-0.790014	-0.607932
C74	C	1.528359	-0.456680	-0.274599
C75	C	1.861693	-0.123347	0.058735
C76	C	0.567746	-0.418135	-0.607965
C77	C	0.901079	-0.084802	-0.274632
C78	C	1.234413	0.248532	0.058701
C79	C	0.659054	-0.418130	-0.607946
C80	C	0.992387	-0.084797	-0.274613
C81	C	1.325720	0.248536	0.058720
C82	C	0.731830	-0.418132	-0.607937
C83	C	1.065163	-0.084798	-0.274604
C84	C	1.398496	0.248535	0.058729
C85	C	0.823143	-0.418126	-0.607920
C86	C	1.156476	-0.084793	-0.274587
C87	C	1.489810	0.248541	0.058746
C88	C	1.405343	-0.418139	-0.607968
C89	C	1.738676	-0.084806	-0.274635
C90	C	2.072009	0.248528	0.058699
C91	C	1.494965	-0.418145	-0.607983
C92	C	1.828298	-0.084812	-0.274650
C93	C	2.161631	0.248522	0.058683
C94	C	1.211219	-0.434160	-0.937052
C95	C	1.544552	-0.100827	-0.603718
C96	C	1.877885	0.232506	-0.270385
C97	C	1.218117	-0.440994	-1.077303
C98	C	1.551450	-0.107660	-0.743969
C99	C	1.884783	0.225673	-0.410636
C100	C	1.195135	-0.207820	-0.608013
C101	C	1.528468	0.125513	-0.274679
C102	C	1.861801	0.458846	0.058654
C103	C	1.195178	-0.118201	-0.608047
C104	C	1.528512	0.215133	-0.274714
C105	C	1.861845	0.548466	0.058620
C106	C	1.178955	-0.402094	-0.280093
C107	C	1.512288	-0.068761	0.053241
C108	C	1.845621	0.264572	0.386574
C109	C	1.172213	-0.395034	-0.139842
C110	C	1.505547	-0.061701	0.193491
C111	C	1.838880	0.271633	0.526824
H112	H	1.127630	-0.350460	-1.086089
H113	H	1.460963	-0.017126	-0.752755
H114	H	1.794297	0.316207	-0.419422
Cl115	Cl	1.286947	-0.509827	-1.160295
Cl116	Cl	1.620281	-0.176493	-0.826962
Cl117	Cl	1.953614	0.156840	-0.493628
