data_functionalizedCrystal
_audit_creation_method	'MofGen! by Chris Wilmer'
_symmetry_space_group_name_H-M	'P1'
_symmetry_Int_Tables_number	1
_symmetry_cell_setting	triclinic
loop_
_symmetry_equiv_pos_as_xyz
  x,y,z
_cell_length_a	13.262402
_cell_length_b	13.339070
_cell_length_c	17.766277
_cell_angle_alpha	89.997794
_cell_angle_beta	105.908980
_cell_angle_gamma	99.431904
loop_
_atom_site_label
_atom_site_type_symbol
_atom_site_fract_x
_atom_site_fract_y
_atom_site_fract_z
O1	O	1.432352	0.136451	0.230666
O2	O	1.131101	0.151280	0.168987
O3	O	1.247153	-0.003544	0.192750
O4	O	1.316300	0.291275	0.206903
O5	O	1.247122	-0.003552	0.317932
O6	O	1.131070	0.151272	0.294169
O7	O	1.432322	0.136443	0.355848
Cu8	Cu	1.281693	0.143856	0.336439
Cu9	Cu	1.281729	0.143866	0.188396
O10	O	1.316270	0.291267	0.332085
C11	C	1.091741	0.150444	0.223522
C12	C	0.974503	0.147953	0.199519
C13	C	0.919440	0.146785	0.120003
C14	C	0.809291	0.144454	0.097452
C15	C	0.754192	0.143283	0.154414
C16	C	0.809254	0.144443	0.233932
C17	C	0.919416	0.146782	0.256485
C18	C	0.754168	0.143280	0.290897
C19	C	0.809230	0.144440	0.370414
C20	C	0.919380	0.146778	0.392964
C21	C	0.974479	0.147949	0.336001
C22	C	0.644007	0.140940	0.268343
C23	C	0.643982	0.140937	0.404825
C24	C	0.754132	0.143268	0.427376
C25	C	1.235457	-0.041287	0.252948
C26	C	1.200640	-0.153736	0.245817
C27	C	1.471356	-0.517385	0.301244
C28	C	1.504071	-0.411734	0.307949
C29	C	1.428216	-0.347229	0.292417
C30	C	1.319640	-0.388386	0.270178
C31	C	1.286922	-0.494047	0.263478
C32	C	1.243782	-0.323892	0.254650
C33	C	1.135206	-0.365048	0.232412
C34	C	1.102493	-0.470700	0.225712
C35	C	1.178348	-0.535204	0.241245
C36	C	1.276501	-0.218230	0.261350
C37	C	1.092067	-0.194893	0.223584
C38	C	1.059352	-0.300544	0.216879
C39	C	1.471682	0.137279	0.301311
C40	C	1.588919	0.139770	0.325309
C41	C	1.327966	0.329009	0.271885
C42	C	1.362782	0.441458	0.279011
N43	N	1.281675	0.143849	0.440565
N44	N	1.281753	0.143865	0.084271
C45	C	1.333096	0.075327	0.490481
C46	C	1.333100	0.075322	0.569284
C47	C	1.281700	0.143857	0.598171
C48	C	1.230267	0.212385	0.548243
C49	C	1.230255	0.212381	0.469440
C50	C	1.294794	0.236045	0.725688
C51	C	1.294814	0.236050	0.804491
C52	C	1.281731	0.143870	0.841224
C53	C	1.268650	0.051680	0.799148
C54	C	1.268638	0.051676	0.720345
C55	C	1.281707	0.143869	0.683618
C56	C	1.333159	0.075337	0.976587
C57	C	1.333156	0.075331	1.055390
C58	C	1.230330	0.212402	1.034349
C59	C	1.230326	0.212399	0.955546
C60	C	1.281746	0.143868	0.926671
H61	H	0.599186	0.139997	0.203600
F62	F	1.552073	-0.586039	0.317784
H63	H	0.798979	0.144214	0.492121
H64	H	1.151717	-0.621235	0.235784
F65	F	1.175558	0.285322	0.578986
H66	H	1.257996	-0.023383	0.829053
H67	H	1.257984	-0.023389	0.686089
F68	F	1.308743	0.334166	0.849266
H69	H	0.970947	-0.334069	0.198772
H70	H	1.188459	0.268201	0.914903
F71	F	1.175524	0.285315	0.416313
H72	H	1.305430	0.311114	0.695784
H73	H	0.764467	0.143511	0.032709
F74	F	1.387880	0.002396	0.945854
F75	F	1.619620	-0.367939	0.331604
F76	F	1.011330	-0.126247	0.207056
H77	H	0.664504	0.141385	0.136048
F78	F	1.387880	0.002391	1.108515
H79	H	0.964312	0.147747	0.073633
H80	H	1.374962	0.019522	0.466973
F81	F	1.091714	0.150429	0.359998
F82	F	0.977981	0.148030	0.477594
H83	H	1.014084	-0.504205	0.207610
H84	H	1.374975	0.019521	0.609933
F85	F	1.463037	-0.234786	0.299551
H86	H	0.599122	0.139986	0.451209
F87	F	1.175617	0.285336	1.065087
F88	F	1.392051	-0.174440	0.285018
