data_functionalizedCrystal
_audit_creation_method	'MofGen! by Chris Wilmer'
_symmetry_space_group_name_H-M	'P1'
_symmetry_Int_Tables_number	1
_symmetry_cell_setting	triclinic
loop_
_symmetry_equiv_pos_as_xyz
  x,y,z
_cell_length_a	16.974800
_cell_length_b	17.038272
_cell_length_c	16.053789
_cell_angle_alpha	92.710835
_cell_angle_beta	89.238068
_cell_angle_gamma	87.242888
loop_
_atom_site_label
_atom_site_type_symbol
_atom_site_fract_x
_atom_site_fract_y
_atom_site_fract_z
O1	O	1.055759	0.099505	-0.001932
O2	O	1.555759	0.599505	0.498068
O3	O	0.827113	0.112863	0.013525
O4	O	1.327113	0.612863	0.513525
O5	O	0.940077	-0.007627	0.005882
O6	O	1.440077	0.492373	0.505882
O7	O	0.942795	0.219994	0.005711
O8	O	1.442795	0.719994	0.505711
O9	O	0.933743	-0.013485	-0.132550
O10	O	1.433743	0.486515	0.367450
O11	O	0.820779	0.107004	-0.124907
O12	O	1.320779	0.607004	0.375093
O13	O	1.049426	0.093647	-0.140364
O14	O	1.549426	0.593647	0.359636
Zn15	Zn	0.934097	0.099396	-0.154614
Zn16	Zn	1.434097	0.599396	0.345386
Zn17	Zn	0.942442	0.107114	0.027775
Zn18	Zn	1.442442	0.607114	0.527775
O19	O	0.936462	0.214136	-0.132720
O20	O	1.436462	0.714136	0.367280
C21	C	0.794546	0.109536	-0.053704
C22	C	1.294546	0.609536	0.446296
C23	C	0.706943	0.108344	-0.047782
C24	C	1.206943	0.608344	0.452218
C25	C	0.934438	-0.039675	-0.063167
C26	C	1.434438	0.460325	0.436833
C27	C	0.927063	-0.126440	-0.062668
C28	C	1.427063	0.373560	0.437332
C29	C	0.662338	0.104588	-0.120460
C30	C	1.162338	0.604588	0.379540
C31	C	0.580026	0.103455	-0.114898
C32	C	1.080026	0.603455	0.385102
C33	C	0.542320	0.106083	-0.036657
C34	C	1.042320	0.606083	0.463343
C35	C	0.586930	0.109836	0.036027
C36	C	1.086930	0.609836	0.536027
C37	C	0.669241	0.110964	0.030465
C38	C	1.169241	0.610964	0.530465
C39	C	0.296517	0.103047	-0.011928
C40	C	0.796517	0.603047	0.488072
C41	C	0.214200	0.101922	-0.006371
C42	C	0.714200	0.601922	0.493629
C43	C	0.207302	0.095539	-0.157298
C44	C	0.707302	0.595539	0.342702
C45	C	0.289615	0.096671	-0.162853
C46	C	0.789615	0.596671	0.337147
C47	C	0.334218	0.100421	-0.090169
C48	C	0.834218	0.600421	0.409831
N49	N	0.458184	0.104927	-0.030970
N50	N	0.958184	0.604927	0.469030
N51	N	0.418353	0.101571	-0.095857
N52	N	0.918353	0.601571	0.404143
C53	C	0.994774	-0.176807	-0.067246
C54	C	1.494774	0.323193	0.432754
C55	C	0.987840	-0.258331	-0.066770
C56	C	1.487840	0.241669	0.433230
C57	C	0.913194	-0.289488	-0.061721
C58	C	1.413194	0.210512	0.438279
C59	C	0.845479	-0.239114	-0.057140
C60	C	1.345479	0.260886	0.442860
C61	C	0.852413	-0.157591	-0.057610
C62	C	1.352413	0.342409	0.442390
C63	C	0.888695	-0.535154	-0.060053
C64	C	1.388695	-0.035154	0.439947
C65	C	0.881765	-0.616683	-0.059585
C66	C	1.381765	-0.116683	0.440415
C67	C	1.024127	-0.635895	-0.069214
C68	C	1.524127	-0.135895	0.430786
C69	C	1.031055	-0.554370	-0.069689
C70	C	1.531055	-0.054370	0.430311
C71	C	0.963340	-0.504003	-0.065104
C72	C	1.463340	-0.004003	0.434896
C73	C	0.906105	-0.372818	-0.061236
C74	C	1.406105	0.127182	0.438764
C75	C	0.970430	-0.420674	-0.065582
C76	C	1.470430	0.079326	0.434418
C77	C	1.081992	0.096973	-0.073133
C78	C	1.581992	0.596973	0.426867
C79	C	1.169596	0.098166	-0.079050
C80	C	1.669596	0.598166	0.420950
C81	C	0.942100	0.246184	-0.063670
C82	C	1.442100	0.746184	0.436330
C83	C	0.949476	0.332950	-0.064163
C84	C	1.449476	0.832950	0.435837
N85	N	0.928407	0.094127	-0.279091
N86	N	1.428407	0.594127	0.220909
C87	C	0.977401	0.139530	-0.326090
C88	C	1.477401	0.639530	0.173910
C89	C	0.973431	0.135840	-0.413229
C90	C	1.473431	0.635840	0.086771
C91	C	0.920464	0.086750	-0.453367
C92	C	1.420464	0.586750	0.046633
C93	C	0.871468	0.041342	-0.406361
C94	C	1.371468	0.541342	0.093639
C95	C	0.875442	0.045029	-0.319224
C96	C	1.375442	0.545029	0.180776
C97	C	0.903115	0.070654	-0.713606
C98	C	1.403115	0.570654	-0.213606
C99	C	0.899143	0.066973	-0.800749
C100	C	1.399143	0.566973	-0.300749
C101	C	1.001108	0.161470	-0.807612
C102	C	1.501108	0.661470	-0.307612
C103	C	1.005074	0.165156	-0.720472
C104	C	1.505074	0.665156	-0.220472
C105	C	0.956081	0.119745	-0.673474
C106	C	1.456081	0.619745	-0.173474
N107	N	0.916403	0.082979	-0.542436
N108	N	1.416403	0.582979	-0.042436
N109	N	0.960146	0.123512	-0.584406
N110	N	1.460146	0.623512	-0.084406
N111	N	0.948137	0.112376	0.152251
N112	N	1.448137	0.612376	0.652251
H113	H	0.693033	0.102454	-0.184173
H114	H	1.193033	0.602454	0.315827
H115	H	1.031207	-0.395302	-0.069675
H116	H	1.531207	0.104698	0.430325
H117	H	0.170978	0.092485	-0.216473
H118	H	0.670978	0.592485	0.283527
H119	H	0.183502	0.104064	0.057346
H120	H	0.683502	0.604064	0.557346
H121	H	1.079257	-0.676911	-0.072945
H122	H	1.579257	-0.176911	0.427055
C123	C	0.813982	-0.011880	-0.450085
C124	C	1.313982	0.488120	0.049915
C125	C	0.820929	-0.005336	-0.536453
C126	C	1.320929	0.494664	-0.036453
C127	C	0.767975	-0.054344	-0.576754
C128	C	1.267975	0.445656	-0.076754
H129	H	0.825663	-0.064845	-0.436683
H130	H	1.325663	0.435155	0.063317
H131	H	0.761662	0.003416	-0.432246
H132	H	1.261662	0.503416	0.067754
H133	H	0.873237	-0.020636	-0.554285
H134	H	1.373237	0.479364	-0.054285
H135	H	0.809241	0.047618	-0.549879
H136	H	1.309241	0.547618	-0.049879
H137	H	0.715654	-0.039048	-0.558915
H138	H	1.215654	0.460952	-0.058915
H139	H	0.779660	-0.107306	-0.563346
H140	H	1.279660	0.392694	-0.063346
H141	H	0.772676	-0.049905	-0.635358
H142	H	1.272676	0.450095	-0.135358
H143	H	0.332824	0.106098	0.047256
H144	H	0.832824	0.606098	0.547256
H145	H	0.320310	0.094528	-0.226566
H146	H	0.820310	0.594528	0.273434
C147	C	0.841732	0.013534	-0.844288
C148	C	1.341732	0.513534	-0.344288
C149	C	0.859180	-0.064413	-0.824232
C150	C	1.359180	0.435587	-0.324232
C151	C	0.806317	-0.113660	-0.864332
C152	C	1.306317	0.386340	-0.364332
H153	H	0.789395	0.028737	-0.826467
H154	H	1.289395	0.528737	-0.326467
H155	H	0.846385	0.017791	-0.902923
H156	H	1.346385	0.517791	-0.402923
H157	H	0.854519	-0.068667	-0.765609
H158	H	1.354519	0.431333	-0.265609
H159	H	0.911506	-0.079640	-0.842054
H160	H	1.411506	0.420360	-0.342054
H161	H	0.810970	-0.109403	-0.922967
H162	H	1.310970	0.390597	-0.422967
H163	H	0.753984	-0.098450	-0.846508
H164	H	1.253984	0.401550	-0.346508
H165	H	0.818152	-0.166553	-0.850736
H166	H	1.318152	0.333447	-0.350736
H167	H	0.556223	0.111971	0.099733
H168	H	1.056223	0.611971	0.599733
H169	H	0.797276	-0.116582	-0.053882
H170	H	1.297276	0.383418	0.446118
H171	H	1.040995	0.198441	-0.845887
H172	H	1.540995	0.698441	-0.345887
C173	C	0.717530	0.115089	0.109471
C174	C	1.217530	0.615089	0.609471
C175	C	0.666892	0.117173	0.179183
C176	C	1.166892	0.617173	0.679183
C177	C	0.711346	0.120982	0.251979
C178	C	1.211346	0.620982	0.751979
H179	H	0.752750	0.070104	0.110355
H180	H	1.252750	0.570104	0.610355
H181	H	0.746808	0.161259	0.110685
H182	H	1.246808	0.661259	0.610685
H183	H	0.637628	0.071008	0.177969
H184	H	1.137628	0.571008	0.677969
H185	H	0.631672	0.162157	0.178327
H186	H	1.131672	0.662157	0.678327
H187	H	0.740624	0.167152	0.253194
H188	H	1.240624	0.667152	0.753194
H189	H	0.746564	0.075995	0.252855
H190	H	1.246564	0.575995	0.752855
H191	H	0.676994	0.122404	0.299288
H192	H	1.176994	0.622404	0.799288
C193	C	1.075892	-0.143134	-0.072688
C194	C	1.575892	0.356866	0.427312
C195	C	1.133706	-0.204696	-0.076570
C196	C	1.633706	0.295304	0.423430
C197	C	1.208443	-0.173709	-0.081568
C198	C	1.708443	0.326291	0.418432
H199	H	1.079464	-0.113789	-0.121339
H200	H	1.579464	0.386211	0.378661
H201	H	1.083805	-0.109708	-0.024779
H202	H	1.583805	0.390292	0.475221
H203	H	1.125796	-0.238109	-0.124474
H204	H	1.625796	0.261891	0.375526
H205	H	1.130160	-0.234047	-0.027924
H206	H	1.630160	0.265953	0.472076
H207	H	1.216356	-0.140283	-0.033659
H208	H	1.716356	0.359717	0.466341
H209	H	1.212007	-0.144364	-0.130219
H210	H	1.712007	0.355636	0.369781
H211	H	1.247679	-0.215473	-0.084195
H212	H	1.747679	0.284527	0.415805
C213	C	0.800648	-0.650357	-0.054046
C214	C	1.300648	-0.150357	0.445954
C215	C	0.742830	-0.588799	-0.050105
C216	C	1.242830	-0.088799	0.449895
C217	C	0.668102	-0.619790	-0.044989
C218	C	1.168102	-0.119790	0.455011
H219	H	0.792659	-0.683793	-0.101914
H220	H	1.292659	-0.183793	0.398086
H221	H	0.797163	-0.679692	-0.005366
H222	H	1.297163	-0.179692	0.494634
H223	H	0.746313	-0.559478	-0.098779
H224	H	1.246313	-0.059478	0.401221
H225	H	0.750794	-0.555358	-0.002238
H226	H	1.250794	-0.055358	0.497762
H227	H	0.664617	-0.649125	0.003690
H228	H	1.164617	-0.149125	0.503690
H229	H	0.660121	-0.653226	-0.092860
H230	H	1.160121	-0.153226	0.407140
H231	H	0.628864	-0.578028	-0.042307
H232	H	1.128864	-0.078028	0.457693
C233	C	0.822379	-0.004367	-0.268156
C234	C	1.322379	0.495633	0.231844
C235	C	0.868905	-0.055362	-0.221136
C236	C	1.368905	0.444638	0.278864
C237	C	0.820052	-0.100887	-0.174092
C238	C	1.320052	0.399113	0.325908
H239	H	0.789788	0.029138	-0.231790
H240	H	1.289788	0.529138	0.268210
H241	H	0.790277	-0.034176	-0.304513
H242	H	1.290277	0.465824	0.195487
H243	H	0.900993	-0.025555	-0.184782
H244	H	1.400993	0.474445	0.315218
H245	H	0.901495	-0.088883	-0.257481
H246	H	1.401495	0.411117	0.242519
H247	H	0.787950	-0.130697	-0.210448
H248	H	1.287950	0.369303	0.289552
H249	H	0.787463	-0.067376	-0.137730
H250	H	1.287463	0.432624	0.362270
H251	H	0.851612	-0.135498	-0.142189
H252	H	1.351612	0.364502	0.357811
H253	H	0.833556	-0.494154	-0.056319
H254	H	1.333556	0.005846	0.443681
H255	H	0.543714	0.100383	-0.174081
H256	H	1.043714	0.600383	0.325919
H257	H	1.042978	-0.299338	-0.070500
H258	H	1.542978	0.200662	0.429500
C259	C	0.764501	-0.273091	-0.051705
C260	C	1.264501	0.226909	0.448295
C261	C	0.772917	-0.355268	-0.052297
C262	C	1.272917	0.144732	0.447703
C263	C	0.698336	-0.386592	-0.047306
C264	C	1.198336	0.113408	0.452694
H265	H	0.738532	-0.253826	-0.001539
H266	H	1.238532	0.246174	0.498461
H267	H	0.734172	-0.257872	-0.098098
H268	H	1.234172	0.242128	0.401902
H269	H	0.803234	-0.370480	-0.005909
H270	H	1.303234	0.129520	0.494091
H271	H	0.798872	-0.374555	-0.102459
H272	H	1.298872	0.125445	0.397541
H273	H	0.668006	-0.371373	-0.093699
H274	H	1.168006	0.128627	0.406301
H275	H	0.672373	-0.367321	0.002860
H276	H	1.172373	0.132679	0.502860
H277	H	0.704035	-0.442352	-0.047715
H278	H	1.204035	0.057648	0.452285
H279	H	1.091839	-0.529009	-0.073801
H280	H	1.591839	-0.029009	0.426199
H281	H	0.845328	-0.398195	-0.057127
H282	H	1.345328	0.101805	0.442873
C283	C	1.034989	0.192848	-0.282673
C284	C	1.534989	0.692848	0.217327
C285	C	1.077060	0.231804	-0.342490
C286	C	1.577060	0.731804	0.157510
C287	C	1.130128	0.280918	-0.302528
C288	C	1.630128	0.780918	0.197472
H289	H	1.006741	0.230436	-0.246666
H290	H	1.506741	0.730436	0.253334
H291	H	1.070710	0.162146	-0.251005
H292	H	1.570710	0.662146	0.248995
H293	H	1.041345	0.262504	-0.374143
H294	H	1.541345	0.762504	0.125857
H295	H	1.105325	0.194236	-0.378500
H296	H	1.605325	0.694236	0.121500
H297	H	1.165848	0.250215	-0.270861
H298	H	1.665848	0.750215	0.229139
H299	H	1.101873	0.318500	-0.266522
H300	H	1.601873	0.818500	0.233478
H301	H	1.158684	0.307349	-0.343108
H302	H	1.658684	0.807349	0.156892
H303	H	1.013328	0.172811	-0.451493
H304	H	1.513328	0.672811	0.048507
H305	H	1.048208	0.205128	-0.687799
H306	H	1.548208	0.705128	-0.187799
H307	H	0.863222	0.033677	-0.675350
H308	H	1.363222	0.533677	-0.175350
