data_functionalizedCrystal
_audit_creation_method	'MofGen! by Chris Wilmer'
_symmetry_space_group_name_H-M	'P1'
_symmetry_Int_Tables_number	1
_symmetry_cell_setting	triclinic
loop_
_symmetry_equiv_pos_as_xyz
  x,y,z
_cell_length_a	6.817900
_cell_length_b	9.514072
_cell_length_c	10.992410
_cell_angle_alpha	88.554233
_cell_angle_beta	108.764651
_cell_angle_gamma	118.843421
loop_
_atom_site_label
_atom_site_type_symbol
_atom_site_fract_x
_atom_site_fract_y
_atom_site_fract_z
V1	V	-4.172171	-0.222204	-0.401600
O2	O	-4.069593	0.010678	-0.392919
O3	O	-4.206678	-0.440594	-0.399849
O4	O	-4.148872	-0.218786	-0.576297
O5	O	-4.127799	-0.212665	-0.215250
V6	V	-4.641803	-0.194349	-0.379190
O7	O	-4.463899	-0.283307	-0.450758
O8	O	-4.800272	-0.133246	-0.330032
O9	O	-4.384090	0.024041	-0.380940
O10	O	-4.861778	-0.427231	-0.387870
O11	O	-4.803572	-0.203888	-0.565539
O12	O	-4.441896	-0.197767	-0.204493
C13	C	-4.071035	-0.493833	-0.393771
C14	C	-4.180703	-0.672369	-0.393504
C15	C	-3.997296	-0.210893	-0.618845
C16	C	-4.060079	-0.209543	-0.761668
C17	C	-3.923996	-0.197247	-0.956735
C18	C	-3.858986	-0.199316	-0.808261
C19	C	-4.299373	-0.367896	-0.839489
C20	C	-4.363322	-0.366496	-0.988049
C21	C	-4.161158	-0.059868	-0.948628
C22	C	-4.090253	-0.059117	-0.799612
C23	C	-4.183077	0.077271	-0.387015
C24	C	-4.052649	0.255805	-0.387290
C25	C	-4.256814	-0.205665	-0.161937
C26	C	-4.173267	-0.207007	-0.019114
H27	H	-3.680850	-0.085454	-0.754405
H28	H	-3.916464	0.058025	-0.746724
C29	C	-3.819508	-0.344125	-0.775380
H30	H	-3.779580	-0.345880	-0.684419
H31	H	-3.961902	-0.442420	-0.820859
H32	H	-3.692652	-0.333399	-0.800561
H33	H	-4.374274	-0.747478	-0.398665
H34	H	-3.859082	-0.669090	-0.382111
H35	H	-3.926618	-0.302968	-1.005207
H36	H	-4.376801	-0.477907	-1.034824
H37	H	-3.776908	-0.082602	-0.975045
C38	C	-4.614044	-0.385119	-1.045735
H39	H	-4.676408	-0.393516	-0.978357
H40	H	-4.603292	-0.293002	-1.085348
H41	H	-4.717136	-0.480372	-1.109075
C42	C	-4.507171	-0.385750	-0.800657
H43	H	-4.449695	-0.296579	-0.736481
H44	H	-4.628172	-0.387520	-0.875010
H45	H	-4.571814	-0.484162	-0.766496
H46	H	-4.282724	-0.479581	-0.814390
H47	H	-4.026898	0.060382	-0.968442
H48	H	-4.231881	-0.057257	-0.767092
C49	C	-4.404960	-0.067628	-1.003838
H50	H	-4.513644	-0.160032	-1.069522
H51	H	-4.466145	-0.075603	-0.936011
H52	H	-4.385502	0.027953	-1.040072
