data_functionalizedCrystal
_audit_creation_method	'MofGen! by Chris Wilmer'
_symmetry_space_group_name_H-M	'P1'
_symmetry_Int_Tables_number	1
_symmetry_cell_setting	triclinic
loop_
_symmetry_equiv_pos_as_xyz
  x,y,z
_cell_length_a	10.685661
_cell_length_b	10.686285
_cell_length_c	19.805398
_cell_angle_alpha	85.612478
_cell_angle_beta	85.622066
_cell_angle_gamma	80.943086
loop_
_atom_site_label
_atom_site_type_symbol
_atom_site_fract_x
_atom_site_fract_y
_atom_site_fract_z
Zn1	Zn	1.979417	-0.654336	-0.437068
Zn2	Zn	1.995628	-0.866585	-0.315838
Zn3	Zn	1.767168	-0.638072	-0.315854
Zn4	Zn	1.783436	-0.850235	-0.420952
O5	O	1.881412	-0.752307	-0.372428
O6	O	2.159198	-0.696140	-0.427725
O7	O	1.965299	-0.836308	-0.221121
O8	O	1.781731	-0.462612	-0.338685
O9	O	2.171108	-0.852078	-0.338657
O10	O	1.937670	-0.474561	-0.427741
O11	O	1.797450	-0.668421	-0.221133
O12	O	1.591696	-0.652568	-0.323057
O13	O	1.809457	-0.824213	-0.517809
O14	O	1.603648	-0.808443	-0.400272
O15	O	1.953444	-0.680287	-0.529649
O16	O	1.981073	-1.042034	-0.323030
O17	O	1.825176	-1.030022	-0.400256
C18	C	1.551614	-0.726967	-0.359918
C19	C	1.410527	-0.716157	-0.354581
C20	C	1.906683	-1.082085	-0.359908
C21	C	1.917610	-1.223174	-0.354579
C22	C	2.212498	-0.777747	-0.384987
C23	C	2.353587	-0.788588	-0.390339
C24	C	1.881457	-0.752241	-0.548975
C25	C	1.881476	-0.752212	-0.624209
C26	C	1.856078	-0.421244	-0.385013
C27	C	1.845281	-0.280165	-0.390375
C28	C	1.956585	-0.677057	-1.092181
C29	C	1.956568	-0.677094	-1.021491
C30	C	1.881592	-0.752046	-0.979983
C31	C	1.806638	-0.826975	-1.009169
C32	C	1.806662	-0.826943	-1.079858
C33	C	1.806538	-0.827104	-0.724086
C34	C	1.806516	-0.827126	-0.653392
C35	C	1.956444	-0.677255	-0.665718
C36	C	1.956469	-0.677223	-0.736408
C37	C	1.881520	-0.752157	-0.765588
C38	C	1.881541	-0.752117	-0.842239
C39	C	1.881563	-0.752079	-0.903333
C40	C	1.881434	-0.752287	-0.196574
C41	C	1.881634	-0.751977	-0.121363
H42	H	1.774999	-1.221022	-0.425100
H43	H	1.987888	-1.282325	-0.319848
H44	H	1.351334	-0.645869	-0.319883
H45	H	2.017517	-0.616185	-0.770201
C46	C	1.739906	-0.893716	-0.539555
C47	C	1.724103	-0.909525	-0.607763
H48	H	1.689023	-0.944577	-0.511388
H49	H	1.826602	-0.918842	-0.530502
H50	H	1.714788	-0.807008	-0.530517
H51	H	1.749230	-0.996232	-0.616803
H52	H	1.637388	-0.884407	-0.616820
H53	H	2.017631	-0.616014	-1.125973
H54	H	2.017605	-0.616090	-0.997735
C55	C	1.596434	-0.872353	-0.976916
C56	C	1.724235	-0.909390	-0.963553
H57	H	1.545566	-0.923246	-0.948760
H58	H	1.571316	-0.785668	-0.967854
H59	H	1.585745	-0.883047	-1.023197
H60	H	1.734926	-0.898687	-0.917273
H61	H	1.749361	-0.996096	-0.972610
H62	H	1.412774	-0.858860	-0.425041
C63	C	2.022997	-0.610746	-0.562830
C64	C	2.038840	-0.594892	-0.633642
H65	H	2.073867	-0.559902	-0.543031
H66	H	1.936294	-0.585628	-0.548721
H67	H	2.048109	-0.697462	-0.548716
H68	H	2.013720	-0.508177	-0.647757
H69	H	2.125562	-0.620003	-0.647757
C70	C	1.658320	-0.975235	-0.704791
C71	C	1.724140	-0.909455	-0.756154
H72	H	1.607442	-1.026068	-0.724592
H73	H	1.717330	-1.028046	-0.677474
H74	H	1.605532	-0.916195	-0.677480
H75	H	1.776936	-0.968494	-0.783463
H76	H	1.665123	-0.856639	-0.783484
C77	C	1.761283	-1.037107	-1.091108
C78	C	1.724270	-0.909297	-1.111936
H79	H	1.710413	-1.087950	-1.110908
H80	H	1.847985	-1.062218	-1.105223
H81	H	1.750533	-1.047832	-1.043068
H82	H	1.735029	-0.898569	-1.159976
H83	H	1.637547	-0.884177	-1.097825
