data_functionalizedCrystal
_audit_creation_method	'MofGen! by Chris Wilmer'
_symmetry_space_group_name_H-M	'P1'
_symmetry_Int_Tables_number	1
_symmetry_cell_setting	triclinic
loop_
_symmetry_equiv_pos_as_xyz
  x,y,z
_cell_length_a	12.759401
_cell_length_b	12.827892
_cell_length_c	12.827885
_cell_angle_alpha	90.029786
_cell_angle_beta	90.019449
_cell_angle_gamma	90.016917
loop_
_atom_site_label
_atom_site_type_symbol
_atom_site_fract_x
_atom_site_fract_y
_atom_site_fract_z
Zn1	Zn	1.606246	-0.415940	0.590854
Zn2	Zn	1.606139	-0.590717	0.416114
Zn3	Zn	1.430549	-0.415996	0.416127
Zn4	Zn	1.430534	-0.590644	0.590813
O5	O	1.518367	-0.503324	0.503477
O6	O	1.753253	-0.439132	0.567686
O7	O	1.582809	-0.567594	0.269880
O8	O	1.453906	-0.269752	0.439327
O9	O	1.753175	-0.567540	0.439305
O10	O	1.582990	-0.269711	0.567698
O11	O	1.453803	-0.439227	0.269889
O12	O	1.283526	-0.439156	0.439288
O13	O	1.453881	-0.567416	0.737055
O14	O	1.283515	-0.567469	0.567629
O15	O	1.582976	-0.439061	0.737084
O16	O	1.582794	-0.736944	0.439266
O17	O	1.453778	-0.736890	0.567617
C18	C	1.245400	-0.503311	0.503456
C19	C	1.128623	-0.503331	0.503472
C20	C	1.073783	-0.570246	0.570194
C21	C	0.964059	-0.570250	0.570215
C22	C	0.964025	-0.436422	0.436782
C23	C	1.073747	-0.436413	0.436768
C24	C	1.518302	-0.774834	0.503458
C25	C	1.518370	-0.890987	0.503486
C26	C	1.582287	-0.942764	0.440044
C27	C	1.582358	-1.062814	0.440070
C28	C	1.792400	-0.503338	0.503498
C29	C	1.909177	-0.503344	0.503507
C30	C	1.518439	-0.503224	0.776047
C31	C	1.518469	-0.503181	0.892200
C32	C	1.518462	-0.230754	0.503518
C33	C	1.518502	-0.114601	0.503536
C34	C	1.518356	-0.503349	0.231967
C35	C	1.518530	-0.503097	0.115814
C36	C	1.582356	-0.439655	0.944000
C37	C	1.582389	-0.439609	1.064050
H38	H	0.919413	-0.624737	0.624549
H39	H	1.463791	-0.557528	0.936730
H40	H	1.463835	-0.557491	1.071275
F41	F	0.905612	-0.365208	0.365793
F42	F	1.132115	-0.365184	0.365754
F43	F	1.132183	-0.641463	0.641190
F44	F	1.446966	-1.056412	0.574529
F45	F	1.653751	-0.884541	0.369028
F46	F	1.653881	-1.121010	0.369069
F47	F	1.446916	-0.949210	0.574512
H48	H	1.637024	-0.385298	0.899470
F49	F	1.653889	-0.368524	1.122272
