data_functionalizedCrystal
_audit_creation_method	'MofGen! by Chris Wilmer'
_symmetry_space_group_name_H-M	'P1'
_symmetry_Int_Tables_number	1
_symmetry_cell_setting	triclinic
loop_
_symmetry_equiv_pos_as_xyz
  x,y,z
_cell_length_a	19.288864
_cell_length_b	18.366186
_cell_length_c	19.288865
_cell_angle_alpha	89.989632
_cell_angle_beta	96.863755
_cell_angle_gamma	90.022929
loop_
_atom_site_label
_atom_site_type_symbol
_atom_site_fract_x
_atom_site_fract_y
_atom_site_fract_z
O1	O	0.921353	0.060791	-0.086648
O2	O	1.254686	0.394125	0.246686
O3	O	1.588020	0.727458	0.580019
O4	O	0.719092	0.060743	-0.098336
O5	O	1.052426	0.394076	0.234997
O6	O	1.385759	0.727409	0.568330
O7	O	0.826067	0.060754	0.008638
O8	O	1.159400	0.394087	0.341972
O9	O	1.492734	0.727421	0.675305
O10	O	0.814378	0.060780	-0.193622
O11	O	1.147712	0.394113	0.139711
O12	O	1.481045	0.727447	0.473044
O13	O	0.826049	-0.060345	0.008641
O14	O	1.159382	0.272988	0.341975
O15	O	1.492715	0.606321	0.675308
O16	O	0.719074	-0.060357	-0.098333
O17	O	1.052407	0.272977	0.235000
O18	O	1.385740	0.606310	0.568333
O19	O	0.921334	-0.060308	-0.086645
O20	O	1.254668	0.273025	0.246689
O21	O	1.588001	0.606359	0.580022
Zn22	Zn	0.820201	-0.079559	-0.092488
Zn23	Zn	1.153535	0.253774	0.240845
Zn24	Zn	1.486868	0.587107	0.574178
Zn25	Zn	0.820226	0.079994	-0.092492
Zn26	Zn	1.153559	0.413328	0.240841
Zn27	Zn	1.486892	0.746661	0.574174
O28	O	0.814360	-0.060319	-0.193619
O29	O	1.147693	0.273014	0.139714
O30	O	1.481026	0.606347	0.473047
C31	C	0.693207	0.000187	-0.097959
C32	C	1.026540	0.333520	0.235375
C33	C	1.359873	0.666853	0.568708
C34	C	0.616103	0.000167	-0.096830
C35	C	0.949436	0.333501	0.236504
C36	C	1.282770	0.666834	0.569837
C37	C	0.571407	0.000187	-0.159598
C38	C	0.904740	0.333520	0.173736
C39	C	1.238073	0.666854	0.507069
C40	C	0.498960	0.000195	-0.158537
C41	C	0.832293	0.333528	0.174796
C42	C	1.165626	0.666862	0.508130
C43	C	0.471212	0.000198	-0.094705
C44	C	0.804545	0.333531	0.238629
C45	C	1.137879	0.666865	0.571962
C46	C	0.515918	0.000174	-0.031929
C47	C	0.849252	0.333508	0.301405
C48	C	1.182585	0.666841	0.634738
C49	C	0.588364	0.000159	-0.032991
C50	C	0.921697	0.333492	0.300342
C51	C	1.255030	0.666826	0.633676
C52	C	0.362957	0.042642	-0.044527
C53	C	0.696290	0.375976	0.288807
C54	C	1.029623	0.709309	0.622140
C55	C	0.290512	0.042662	-0.043467
C56	C	0.623845	0.375995	0.289867
C57	C	0.957179	0.709329	0.623200
C58	C	0.247767	0.000241	-0.091425
C59	C	0.581100	0.333575	0.241908
C60	C	0.914433	0.666908	0.575242
C61	C	0.277473	-0.042189	-0.140455
C62	C	0.610806	0.291144	0.192878
C63	C	0.944139	0.624477	0.526212
C64	C	0.349918	-0.042205	-0.141518
C65	C	0.683252	0.291129	0.191816
C66	C	1.016585	0.624462	0.525149
C67	C	0.392658	0.000214	-0.093546
C68	C	0.725991	0.333547	0.239788
C69	C	1.059325	0.666881	0.573121
C70	C	0.124514	0.000269	-0.153047
C71	C	0.457848	0.333602	0.180286
C72	C	0.791181	0.666935	0.513619
C73	C	0.052066	0.000272	-0.151984
C74	C	0.385400	0.333605	0.181349
C75	C	0.718733	0.666939	0.514683
C76	C	0.069026	0.000259	-0.025374
C77	C	0.402360	0.333592	0.307960
C78	C	0.735693	0.666925	0.641293
C79	C	0.141473	0.000248	-0.026439
C80	C	0.474806	0.333581	0.306894
C81	C	0.808140	0.666915	0.640228
C82	C	0.169212	0.000256	-0.090278
C83	C	0.502546	0.333590	0.243056
C84	C	0.835879	0.666923	0.576389
N85	N	0.820190	-0.188451	-0.092485
N86	N	1.153523	0.144883	0.240848
N87	N	1.486856	0.478216	0.574181
C88	C	0.862177	-0.226528	-0.134509
C89	C	1.195511	0.106805	0.198824
C90	C	1.528844	0.440138	0.532157
C91	C	0.862189	-0.302756	-0.134507
C92	C	1.195522	0.030577	0.198826
C93	C	1.528855	0.363910	0.532159
C94	C	0.820199	-0.340903	-0.092490
C95	C	1.153533	-0.007570	0.240844
C96	C	1.486866	0.325763	0.574177
C97	C	0.778209	-0.302816	-0.050457
C98	C	1.111543	0.030517	0.282876
C99	C	1.444876	0.363850	0.616209
C100	C	0.778204	-0.226590	-0.050455
C101	C	1.111538	0.106743	0.282878
C102	C	1.444871	0.440077	0.616212
C103	C	0.757588	-0.461700	-0.090733
C104	C	1.090921	-0.128367	0.242601
C105	C	1.424254	0.204967	0.575934
C106	C	0.757591	-0.537925	-0.090740
C107	C	1.090924	-0.204592	0.242593
C108	C	1.424258	0.128742	0.575927
C109	C	0.820215	-0.576011	-0.092492
C110	C	1.153548	-0.242677	0.240841
C111	C	1.486882	0.090656	0.574175
C112	C	0.882837	-0.537862	-0.094252
C113	C	1.216170	-0.204529	0.239082
C114	C	1.549503	0.128804	0.572415
C115	C	0.882832	-0.461636	-0.094249
C116	C	1.216165	-0.128303	0.239084
C117	C	1.549498	0.205031	0.572417
C118	C	0.820200	-0.423558	-0.092487
C119	C	1.153534	-0.090225	0.240847
C120	C	1.486867	0.243109	0.574180
C121	C	0.862219	-0.696744	-0.134516
C122	C	1.195552	-0.363410	0.198817
C123	C	1.528885	-0.030077	0.532151
C124	C	0.862231	-0.772973	-0.134509
C125	C	1.195565	-0.439639	0.198824
C126	C	1.528898	-0.106306	0.532158
C127	C	0.778245	-0.773031	-0.050463
C128	C	1.111579	-0.439698	0.282870
C129	C	1.444912	-0.106365	0.616204
C130	C	0.778239	-0.696804	-0.050466
C131	C	1.111572	-0.363470	0.282868
C132	C	1.444906	-0.030137	0.616201
C133	C	0.820225	-0.658664	-0.092496
C134	C	1.153558	-0.325331	0.240837
C135	C	1.486891	0.008002	0.574171
C136	C	0.947220	0.000250	-0.087022
C137	C	1.280553	0.333583	0.246311
C138	C	1.613887	0.666916	0.579645
C139	C	1.024324	0.000274	-0.088151
C140	C	1.357657	0.333607	0.245182
C141	C	1.690990	0.666940	0.578516
C142	C	0.825682	0.000202	0.034516
C143	C	1.159015	0.333535	0.367850
C144	C	1.492348	0.666869	0.701183
C145	C	0.824553	0.000195	0.111620
C146	C	1.157886	0.333529	0.444953
C147	C	1.491219	0.666862	0.778287
N148	N	0.820243	0.188885	-0.092490
N149	N	1.153576	0.522219	0.240843
N150	N	1.486909	0.855552	0.574177
C151	C	0.814745	0.000234	-0.219497
C152	C	1.148078	0.333568	0.113836
C153	C	1.481412	0.666901	0.447169
C154	C	0.815874	0.000246	-0.296601
C155	C	1.149207	0.333579	0.036733
C156	C	1.482541	0.666912	0.370066
C157	C	0.887321	0.000207	0.156316
C158	C	1.220654	0.333540	0.489650
C159	C	1.553987	0.666874	0.822983
C160	C	0.886260	0.000218	0.228763
C161	C	1.219593	0.333552	0.562097
C162	C	1.552927	0.666885	0.895430
C163	C	0.822428	0.000203	0.256511
C164	C	1.155761	0.333537	0.589844
C165	C	1.489094	0.666870	0.923178
C166	C	0.759652	0.000196	0.211805
C167	C	1.092985	0.333529	0.545138
C168	C	1.426318	0.666863	0.878471
C169	C	0.760714	0.000192	0.139359
C170	C	1.094047	0.333525	0.472693
C171	C	1.427381	0.666859	0.806026
C172	C	0.772242	-0.042227	0.364799
C173	C	1.105575	0.291106	0.698133
C174	C	1.438908	0.624439	1.031466
C175	C	0.771182	-0.042228	0.437244
C176	C	1.104515	0.291106	0.770577
C177	C	1.437849	0.624439	1.103910
C178	C	0.819148	0.000219	0.479956
C179	C	1.152481	0.333552	0.813290
C180	C	1.485815	0.666886	1.146623
C181	C	0.868186	0.042657	0.450217
C182	C	1.201519	0.375990	0.783551
C183	C	1.534853	0.709323	1.116884
C184	C	0.869248	0.042653	0.377772
C185	C	1.202582	0.375986	0.711105
C186	C	1.535915	0.709319	1.044439
C187	C	0.821269	0.000208	0.335065
C188	C	1.154602	0.333541	0.668398
C189	C	1.487935	0.666875	1.001732
C190	C	0.880770	0.000244	0.603209
C191	C	1.214104	0.333577	0.936542
C192	C	1.547437	0.666910	1.269875
C193	C	0.879707	0.000259	0.675657
C194	C	1.213040	0.333593	1.008990
C195	C	1.546374	0.666926	1.342323
C196	C	0.753097	0.000230	0.658697
C197	C	1.086430	0.333563	0.992030
C198	C	1.419763	0.666896	1.325363
C199	C	0.754162	0.000221	0.586250
C200	C	1.087495	0.333555	0.919583
C201	C	1.420829	0.666888	1.252917
C202	C	0.818001	0.000225	0.558511
C203	C	1.151334	0.333558	0.891844
C204	C	1.484667	0.666891	1.225177
H205	H	0.462561	0.000209	-0.209652
H206	H	0.795894	0.333542	0.123682
H207	H	1.129228	0.666875	0.457015
H208	H	0.933831	-0.568870	-0.095682
H209	H	1.267164	-0.235537	0.237652
H210	H	1.600497	0.097797	0.570985
C211	C	0.920948	0.089355	0.497191
C212	C	1.254281	0.422688	0.830524
C213	C	1.587615	0.756022	1.163858
H214	H	0.913288	0.083289	0.544595
H215	H	1.246621	0.416622	0.877929
H216	H	1.579955	0.749956	1.211262
H217	H	0.967076	0.074452	0.491481
H218	H	1.300410	0.407785	0.824814
H219	H	1.633743	0.741118	1.158147
H220	H	0.915018	0.139140	0.484484
H221	H	1.248351	0.472473	0.817817
H222	H	1.581685	0.805807	1.151151
C223	C	0.257842	0.089330	0.010465
C224	C	0.591175	0.422663	0.343799
C225	C	0.924508	0.755997	0.677132
H226	H	0.293675	0.114581	0.038884
H227	H	0.627008	0.447914	0.372218
H228	H	0.960341	0.781247	0.705551
H229	H	0.226384	0.123458	-0.013128
H230	H	0.559717	0.456791	0.320205
H231	H	0.893050	0.790125	0.653539
H232	H	0.233321	0.058736	0.038924
H233	H	0.566654	0.392069	0.372257
H234	H	0.899988	0.725402	0.705591
C235	C	0.908404	-0.654784	-0.180739
C236	C	1.241737	-0.321451	0.152594
C237	C	1.575070	0.011883	0.485927
H238	H	0.902380	-0.603932	-0.174727
H239	H	1.235714	-0.270599	0.158606
H240	H	1.569047	0.062735	0.491940
H241	H	0.955968	-0.667252	-0.167713
H242	H	1.289302	-0.333919	0.165620
H243	H	1.622635	-0.000586	0.498953
H244	H	0.895344	-0.667275	-0.228300
H245	H	1.228677	-0.333942	0.105033
H246	H	1.562011	-0.000608	0.438366
H247	H	0.937375	0.000231	0.265162
H248	H	1.270708	0.333564	0.598495
H249	H	1.604041	0.666897	0.931829
H250	H	0.147101	0.000265	-0.205028
H251	H	0.480434	0.333598	0.128305
H252	H	0.813767	0.666931	0.461638
C253	C	0.485399	0.000182	0.038285
C254	C	0.818732	0.333515	0.371618
C255	C	1.152066	0.666848	0.704951
H256	H	0.435851	0.000202	0.029928
H257	H	0.769184	0.333535	0.363262
H258	H	1.102518	0.666868	0.696595
H259	H	0.500729	-0.042053	0.064124
H260	H	0.834062	0.291280	0.397457
H261	H	1.167396	0.624614	0.730791
H262	H	0.500782	0.042412	0.064117
H263	H	0.834115	0.375746	0.397450
H264	H	1.167448	0.709079	0.730783
C265	C	0.409970	0.089315	0.008226
C266	C	0.743303	0.422648	0.341559
C267	C	1.076636	0.755981	0.674892
H268	H	0.381903	0.114596	0.037569
H269	H	0.715236	0.447929	0.370902
H270	H	1.048569	0.781263	0.704235
H271	H	0.441974	0.058726	0.035861
H272	H	0.775307	0.392059	0.369194
H273	H	1.108641	0.725393	0.702528
H274	H	0.435028	0.123428	-0.016214
H275	H	0.768361	0.456761	0.317119
H276	H	1.101694	0.790094	0.650452
H277	H	0.909175	0.077208	0.353561
H278	H	1.242509	0.410542	0.686895
H279	H	1.575842	0.743875	1.020228
C280	C	0.732044	-0.654916	-0.004248
C281	C	1.065377	-0.321583	0.329086
C282	C	1.398710	0.011751	0.662419
H283	H	0.707033	-0.688550	0.020773
H284	H	1.040366	-0.355217	0.354107
H285	H	1.373699	-0.021884	0.687440
H286	H	0.760603	-0.625171	0.027793
H287	H	1.093936	-0.291838	0.361126
H288	H	1.427269	0.041496	0.694459
H289	H	0.699983	-0.625192	-0.032799
H290	H	1.033317	-0.291859	0.300534
H291	H	1.366650	0.041474	0.633868
H292	H	0.703049	0.000208	0.549857
H293	H	1.036383	0.333541	0.883190
H294	H	1.369716	0.666874	1.216524
H295	H	0.896428	-0.803975	-0.168728
H296	H	1.229761	-0.470641	0.164606
H297	H	1.563094	-0.137308	0.497939
C298	C	0.688696	-0.419813	-0.088809
C299	C	1.022030	-0.086479	0.244524
C300	C	1.355363	0.246854	0.577857
H301	H	0.651402	-0.453448	-0.087773
H302	H	0.984736	-0.120114	0.245560
H303	H	1.318069	0.213219	0.578893
H304	H	0.692039	-0.390082	-0.048253
H305	H	1.025372	-0.056749	0.285081
H306	H	1.358706	0.276585	0.618414
H307	H	0.680142	-0.390075	-0.129227
H308	H	1.013476	-0.056742	0.204106
H309	H	1.346809	0.276592	0.537439
C310	C	0.382594	-0.088881	-0.195440
C311	C	0.715928	0.244452	0.137894
C312	C	1.049261	0.577786	0.471227
H313	H	0.346766	-0.114149	-0.223849
H314	H	0.680099	0.219184	0.109485
H315	H	1.013433	0.552518	0.442818
H316	H	0.407119	-0.058299	-0.223900
H317	H	0.740452	0.275034	0.109433
H318	H	1.073786	0.608367	0.442767
H319	H	0.414051	-0.123006	-0.171830
H320	H	0.747384	0.210327	0.161503
H321	H	1.080717	0.543661	0.494836
H322	H	0.242670	-0.076733	-0.179507
H323	H	0.576004	0.256601	0.153826
H324	H	0.909337	0.589934	0.487160
C325	C	0.688713	-0.579885	-0.088807
C326	C	1.022046	-0.246551	0.244526
C327	C	1.355380	0.086782	0.577860
H328	H	0.697683	-0.630737	-0.089069
H329	H	1.031016	-0.297403	0.244265
H330	H	1.364349	0.035930	0.577598
H331	H	0.668937	-0.567414	-0.047599
H332	H	1.002271	-0.234081	0.285734
H333	H	1.335604	0.099253	0.619068
H334	H	0.657028	-0.567397	-0.128573
H335	H	0.990361	-0.234063	0.204760
H336	H	1.323694	0.099270	0.538093
H337	H	0.932751	0.000250	0.580622
H338	H	1.266085	0.333583	0.913956
H339	H	1.599418	0.666917	1.247289
C340	C	0.190644	0.000237	0.042605
C341	C	0.523977	0.333570	0.375938
C342	C	0.857311	0.666904	0.709271
H343	H	0.237763	0.000223	0.032830
H344	H	0.571097	0.333556	0.366164
H345	H	0.904430	0.666890	0.699497
H346	H	0.182278	0.042467	0.068788
H347	H	0.515612	0.375800	0.402121
H348	H	0.848945	0.709133	0.735454
H349	H	0.182232	-0.041999	0.068790
H350	H	0.515565	0.291335	0.402123
H351	H	0.848899	0.624668	0.735456
H352	H	0.744058	-0.804090	-0.016250
H353	H	1.077391	-0.470757	0.317083
H354	H	1.410724	-0.137423	0.650416
C355	C	0.732020	-0.344775	-0.004241
C356	C	1.065353	-0.011441	0.329092
C357	C	1.398687	0.321892	0.662425
H358	H	0.738030	-0.395626	-0.010267
H359	H	1.071364	-0.062293	0.323067
H360	H	1.404697	0.271040	0.656400
H361	H	0.745074	-0.332289	0.043318
H362	H	1.078408	0.001044	0.376651
H363	H	1.411741	0.334377	0.709985
H364	H	0.684454	-0.332301	-0.017273
H365	H	1.017787	0.001033	0.316061
H366	H	1.351120	0.334366	0.649394
C367	C	0.002900	0.000294	-0.221032
C368	C	0.336233	0.333627	0.112301
C369	C	0.669566	0.666960	0.445634
H370	H	0.029799	0.000303	-0.259201
H371	H	0.363132	0.333637	0.074132
H372	H	0.696466	0.666970	0.407465
H373	H	-0.025738	-0.041931	-0.223254
H374	H	0.307596	0.291403	0.110080
H375	H	0.640929	0.624736	0.443413
H376	H	-0.025690	0.042535	-0.223245
H377	H	0.307644	0.375868	0.110088
H378	H	0.640977	0.709201	0.443422
H379	H	0.624756	0.000144	0.018124
H380	H	0.958090	0.333477	0.351457
H381	H	1.291423	0.666810	0.684790
H382	H	0.709599	0.000182	0.102967
H383	H	1.042933	0.333516	0.436300
H384	H	1.376266	0.666849	0.769633
H385	H	0.930822	0.000273	0.712049
H386	H	1.264156	0.333606	1.045382
H387	H	1.597489	0.666940	1.378715
C388	C	0.732011	-0.184703	-0.004232
C389	C	1.065344	0.148631	0.329101
C390	C	1.398677	0.481964	0.662434
H391	H	0.707001	-0.218336	0.020791
H392	H	1.040334	0.114997	0.354124
H393	H	1.373668	0.448331	0.687458
H394	H	0.760570	-0.154955	0.027806
H395	H	1.093903	0.178378	0.361139
H396	H	1.427237	0.511711	0.694473
H397	H	0.699949	-0.154981	-0.032785
H398	H	1.033282	0.178352	0.300549
H399	H	1.366616	0.511686	0.633882
C400	C	0.682883	0.000216	0.689210
C401	C	1.016216	0.333549	1.022543
C402	C	1.349549	0.666882	1.355877
H403	H	0.691238	0.000217	0.738758
H404	H	1.024572	0.333550	1.072091
H405	H	1.357905	0.666883	1.405425
H406	H	0.657053	0.042439	0.673843
H407	H	0.990387	0.375772	1.007176
H408	H	1.323720	0.709105	1.340510
H409	H	0.657041	-0.042027	0.673864
H410	H	0.990374	0.291307	1.007197
H411	H	1.323708	0.624640	1.340531
H412	H	0.939303	0.000212	0.133736
H413	H	1.272636	0.333546	0.467069
H414	H	1.605970	0.666879	0.800403
H415	H	0.896368	-0.195480	-0.168731
H416	H	1.229701	0.137853	0.164603
H417	H	1.563035	0.471187	0.497936
H418	H	0.731249	-0.076779	0.461451
H419	H	1.064583	0.256554	0.794784
H420	H	1.397916	0.589888	1.128118
H421	H	0.733180	-0.076796	0.330028
H422	H	1.066513	0.256537	0.663361
H423	H	1.399847	0.589870	0.996694
H424	H	0.707679	0.000185	0.234401
H425	H	1.041012	0.333519	0.567735
H426	H	1.374346	0.666852	0.901068
H427	H	0.896380	-0.333765	-0.168730
H428	H	1.229714	-0.000432	0.164603
H429	H	1.563047	0.332901	0.497937
C430	C	0.601920	0.000192	-0.229815
C431	C	0.935253	0.333526	0.103518
C432	C	1.268587	0.666859	0.436852
H433	H	0.651468	0.000187	-0.221460
H434	H	0.984801	0.333520	0.111873
H435	H	1.318135	0.666853	0.445206
H436	H	0.586539	-0.042029	-0.255654
H437	H	0.919872	0.291304	0.077680
H438	H	1.253205	0.624637	0.411013
H439	H	0.586587	0.042436	-0.255647
H440	H	0.919920	0.375769	0.077687
H441	H	1.253254	0.709103	0.411020
C442	C	0.038516	0.000258	0.044842
C443	C	0.371850	0.333592	0.378176
C444	C	0.705183	0.666925	0.711509
H445	H	0.075515	0.000242	0.082074
H446	H	0.408849	0.333575	0.415407
H447	H	0.742182	0.666908	0.748740
H448	H	0.010629	0.042492	0.047890
H449	H	0.343962	0.375825	0.381223
H450	H	0.677296	0.709158	0.714557
H451	H	0.010587	-0.041974	0.047887
H452	H	0.343920	0.291360	0.381221
H453	H	0.677254	0.624693	0.714554
C454	C	0.951710	-0.419675	-0.096174
C455	C	1.285044	-0.086342	0.237159
C456	C	1.618377	0.246992	0.570492
H457	H	0.989011	-0.453270	-0.097213
H458	H	1.322345	-0.119936	0.236120
H459	H	1.655678	0.213397	0.569454
H460	H	0.948361	-0.389928	-0.136729
H461	H	1.281695	-0.056595	0.196604
H462	H	1.615028	0.276738	0.529938
H463	H	0.960259	-0.389948	-0.055754
H464	H	1.293592	-0.056614	0.277579
H465	H	1.626925	0.276719	0.610912
