data_functionalizedCrystal
_audit_creation_method	'MofGen! by Chris Wilmer'
_symmetry_space_group_name_H-M	'P1'
_symmetry_Int_Tables_number	1
_symmetry_cell_setting	triclinic
loop_
_symmetry_equiv_pos_as_xyz
  x,y,z
_cell_length_a	14.044220
_cell_length_b	14.044220
_cell_length_c	12.503552
_cell_angle_alpha	93.839943
_cell_angle_beta	93.844387
_cell_angle_gamma	86.811123
loop_
_atom_site_label
_atom_site_type_symbol
_atom_site_fract_x
_atom_site_fract_y
_atom_site_fract_z
O1	O	1.282213	-0.225115	0.089324
O2	O	1.532213	0.024885	0.339324
O3	O	1.782213	0.274885	0.589324
O4	O	2.032213	0.524885	0.839324
O5	O	1.005542	-0.216809	0.089327
O6	O	1.255542	0.033191	0.339327
O7	O	1.505542	0.283191	0.589327
O8	O	1.755542	0.533191	0.839327
O9	O	1.139724	-0.082627	0.089315
O10	O	1.389724	0.167373	0.339315
O11	O	1.639724	0.417373	0.589315
O12	O	1.889724	0.667373	0.839315
O13	O	1.148031	-0.359297	0.089336
O14	O	1.398031	-0.109297	0.339336
O15	O	1.648031	0.140703	0.589336
O16	O	1.898031	0.390703	0.839336
O17	O	1.129621	-0.092726	-0.089327
O18	O	1.379621	0.157274	0.160673
O19	O	1.629621	0.407274	0.410673
O20	O	1.879621	0.657274	0.660673
O21	O	0.995439	-0.226909	-0.089315
O22	O	1.245439	0.023091	0.160685
O23	O	1.495439	0.273091	0.410685
O24	O	1.745439	0.523091	0.660685
O25	O	1.272110	-0.235214	-0.089318
O26	O	1.522110	0.014786	0.160682
O27	O	1.772110	0.264786	0.410682
O28	O	2.022110	0.514786	0.660682
Cu29	Cu	1.132852	-0.231984	-0.105628
Cu30	Cu	1.382852	0.018016	0.144372
Cu31	Cu	1.632852	0.268016	0.394372
Cu32	Cu	1.882852	0.518016	0.644372
Cu33	Cu	1.144800	-0.220039	0.105637
Cu34	Cu	1.394800	0.029961	0.355637
Cu35	Cu	1.644800	0.279961	0.605637
Cu36	Cu	1.894800	0.529961	0.855637
O37	O	1.137928	-0.369397	-0.089306
O38	O	1.387928	-0.119397	0.160694
O39	O	1.637928	0.130603	0.410694
O40	O	1.887928	0.380603	0.660694
C41	C	0.964868	-0.218223	0.000006
C42	C	1.214868	0.031777	0.250006
C43	C	1.464868	0.281777	0.500006
C44	C	1.714868	0.531777	0.750006
C45	C	0.858726	-0.207378	0.000007
C46	C	1.108726	0.042622	0.250007
C47	C	1.358726	0.292622	0.500007
C48	C	1.608726	0.542622	0.750007
C49	C	1.131037	-0.052055	-0.000007
C50	C	1.381037	0.197945	0.249993
C51	C	1.631037	0.447945	0.499993
C52	C	1.881037	0.697945	0.749993
C53	C	1.120192	0.054088	-0.000008
C54	C	1.370192	0.304088	0.249992
C55	C	1.620192	0.554088	0.499992
C56	C	1.870192	0.804088	0.749992
C57	C	1.312784	-0.233800	0.000005
C58	C	1.562784	0.016200	0.250005
C59	C	1.812784	0.266200	0.500005
C60	C	2.062784	0.516200	0.750005
C61	C	1.418927	-0.244644	0.000012
C62	C	1.668927	0.005356	0.250012
C63	C	1.918927	0.255356	0.500012
C64	C	2.168927	0.505356	0.750012
N65	N	1.124455	-0.240385	-0.254220
N66	N	1.374455	0.009615	-0.004220
N67	N	1.624455	0.259615	0.245780
N68	N	1.874455	0.509615	0.495780
C69	C	1.613264	-0.264470	0.000012
C70	C	1.863264	-0.014470	0.250012
C71	C	2.113264	0.235530	0.500012
C72	C	2.363264	0.485530	0.750012
C73	C	1.664394	-0.187556	0.000006
C74	C	1.914394	0.062444	0.250006
C75	C	2.164394	0.312444	0.500006
C76	C	2.414394	0.562444	0.750006
C77	C	1.772530	-0.198588	0.000006
C78	C	2.022530	0.051412	0.250006
C79	C	2.272530	0.301412	0.500006
C80	C	2.522530	0.551412	0.750006
C81	C	1.505118	-0.253440	0.000012
C82	C	1.755118	-0.003440	0.250012
C83	C	2.005118	0.246560	0.500012
C84	C	2.255118	0.496560	0.750012
C85	C	1.146615	-0.399968	0.000018
C86	C	1.396615	-0.149968	0.250018
C87	C	1.646615	0.100032	0.500018
C88	C	1.896615	0.350032	0.750018
C89	C	1.157460	-0.506111	0.000026
C90	C	1.407460	-0.256111	0.250026
C91	C	1.657460	-0.006111	0.500026
C92	C	1.907460	0.243889	0.750026
C93	C	1.100367	0.248427	0.000008
C94	C	1.350367	0.498427	0.250008
C95	C	1.600367	0.748427	0.500008
C96	C	1.850367	0.998427	0.750008
C97	C	1.177281	0.299557	0.000010
C98	C	1.427281	0.549557	0.250010
C99	C	1.677281	0.799557	0.500010
C100	C	1.927281	1.049557	0.750010
C101	C	1.166250	0.407693	0.000019
C102	C	1.416250	0.657693	0.250019
C103	C	1.666250	0.907693	0.500019
C104	C	1.916250	1.157693	0.750019
C105	C	1.111396	0.140280	-0.000001
C106	C	1.361396	0.390280	0.249999
C107	C	1.611396	0.640280	0.499999
C108	C	1.861396	0.890280	0.749999
C109	C	1.165551	-0.199270	-0.526656
C110	C	1.415551	0.050730	-0.276656
C111	C	1.665551	0.300730	-0.026656
C112	C	1.915551	0.550730	0.223344
C113	C	1.112111	-0.252743	-0.473328
C114	C	1.362111	-0.002743	-0.223328
C115	C	1.612111	0.247257	0.026672
C116	C	1.862111	0.497257	0.276672
C117	C	1.118981	-0.245865	-0.351405
C118	C	1.368981	0.004135	-0.101405
C119	C	1.618981	0.254135	0.148595
C120	C	1.868981	0.504135	0.398595
C121	C	1.158682	-0.206147	-0.648590
C122	C	1.408682	0.043853	-0.398590
C123	C	1.658682	0.293853	-0.148590
C124	C	1.908682	0.543853	0.101410
N125	N	1.153204	-0.211632	0.254229
N126	N	1.403204	0.038368	0.504229
N127	N	1.653204	0.288368	0.754229
N128	N	1.903204	0.538368	1.004229
H129	H	1.650702	-0.338598	0.000019
H130	H	1.900702	-0.088598	0.250019
H131	H	2.150702	0.161402	0.500019
H132	H	2.400702	0.411402	0.750019
H133	H	1.061201	-0.303690	-0.519239
H134	H	1.311201	-0.053690	-0.269239
H135	H	1.561201	0.196310	-0.019239
H136	H	1.811201	0.446310	0.230761
O137	O	1.232966	-0.131768	-0.465856
O138	O	1.482966	0.118232	-0.215856
O139	O	1.732966	0.368232	0.034144
O140	O	1.982966	0.618232	0.284144
H141	H	1.227842	-0.136886	-0.378248
H142	H	1.477842	0.113114	-0.128248
H143	H	1.727842	0.363114	0.121752
H144	H	1.977842	0.613114	0.371752
O145	O	1.002170	0.298006	-0.000008
O146	O	1.252170	0.548006	0.249992
O147	O	1.502170	0.798006	0.499992
O148	O	1.752170	1.048006	0.749992
H149	H	1.008807	0.376390	-0.000017
H150	H	1.258807	0.626390	0.249983
H151	H	1.508807	0.876390	0.499983
H152	H	1.758807	1.126390	0.749983
H153	H	1.626959	-0.113419	0.000078
H154	H	1.876959	0.136581	0.250078
H155	H	2.126959	0.386581	0.500078
H156	H	2.376959	0.636581	0.750078
O157	O	1.275483	0.249975	-0.000010
O158	O	1.525483	0.499975	0.249990
O159	O	1.775483	0.749975	0.499990
O160	O	2.025483	0.999975	0.749990
H161	H	1.268852	0.171589	-0.000028
H162	H	1.518852	0.421589	0.249972
H163	H	1.768852	0.671589	0.499972
H164	H	2.018852	0.921589	0.749972
