data_functionalizedCrystal
_audit_creation_method	'MofGen! by Chris Wilmer'
_symmetry_space_group_name_H-M	'P1'
_symmetry_Int_Tables_number	1
_symmetry_cell_setting	triclinic
loop_
_symmetry_equiv_pos_as_xyz
  x,y,z
_cell_length_a	10.723024
_cell_length_b	16.992695
_cell_length_c	16.053802
_cell_angle_alpha	87.258926
_cell_angle_beta	92.605405
_cell_angle_gamma	87.568046
loop_
_atom_site_label
_atom_site_type_symbol
_atom_site_fract_x
_atom_site_fract_y
_atom_site_fract_z
O1	O	-1.671600	-0.106759	-0.069425
O2	O	-1.171600	0.393241	0.430575
O3	O	-1.309355	-0.117291	-0.069428
O4	O	-0.809355	0.382709	0.430572
O5	O	-1.489025	0.002125	-0.069420
O6	O	-0.989025	0.502125	0.430580
O7	O	-1.491930	-0.226175	-0.069433
O8	O	-0.991930	0.273825	0.430567
O9	O	-1.479133	-0.004420	0.069439
O10	O	-0.979133	0.495580	0.569439
O11	O	-1.299463	-0.123837	0.069431
O12	O	-0.799463	0.376163	0.569431
O13	O	-1.661708	-0.113305	0.069434
O14	O	-1.161708	0.386695	0.569434
Zn15	Zn	-1.479015	-0.119610	0.091479
Zn16	Zn	-0.979015	0.380390	0.591479
Zn17	Zn	-1.492048	-0.110986	-0.091473
Zn18	Zn	-0.992048	0.389014	0.408527
O19	O	-1.482038	-0.232721	0.069426
O20	O	-0.982038	0.267279	0.569426
C21	C	-1.257843	-0.119797	0.000001
C22	C	-0.757843	0.380203	0.500001
C23	C	-1.119092	-0.117504	0.000000
C24	C	-0.619092	0.382496	0.500000
C25	C	-1.480343	0.028085	0.000009
C26	C	-0.980343	0.528085	0.500009
C27	C	-1.469195	0.115189	0.000009
C28	C	-0.969195	0.615189	0.500009
C29	C	-1.713220	-0.110798	0.000003
C30	C	-1.213220	0.389202	0.500003
C31	C	-1.851972	-0.113091	-0.000002
C32	C	-1.351972	0.386909	0.499998
C33	C	-1.049863	-0.184323	-0.000004
C34	C	-0.549863	0.315677	0.499996
C35	C	-0.906455	-0.181955	-0.000005
C36	C	-0.406455	0.318045	0.499995
C37	C	-1.490720	-0.258680	-0.000005
C38	C	-0.990720	0.241320	0.499995
C39	C	-1.501869	-0.345784	-0.000011
C40	C	-1.001869	0.154216	0.499989
N41	N	-1.470129	-0.125495	0.216339
N42	N	-0.970129	0.374505	0.716339
C43	C	-1.576755	0.164851	0.000011
C44	C	-1.076755	0.664851	0.500011
C45	C	-1.566274	0.246694	0.000003
C46	C	-1.066274	0.746694	0.500003
C47	C	-1.448231	0.278874	-0.000001
C48	C	-0.948231	0.778874	0.499999
C49	C	-1.340663	0.229206	-0.000005
C50	C	-0.840663	0.729206	0.499995
C51	C	-1.351146	0.147364	-0.000003
C52	C	-0.851146	0.647364	0.499997
C53	C	-1.404783	0.522706	-0.000013
C54	C	-0.904783	1.022706	0.499987
C55	C	-1.394308	0.604554	-0.000012
C56	C	-0.894308	1.104554	0.499988
C57	C	-1.619921	0.622037	-0.000006
C58	C	-1.119921	1.122037	0.499994
C59	C	-1.630393	0.540193	0.000001
C60	C	-1.130393	1.040193	0.500001
C61	C	-1.522825	0.490532	-0.000007
C62	C	-1.022825	0.990532	0.499993
N63	N	-1.437514	0.362531	-0.000006
N64	N	-0.937514	0.862531	0.499994
N65	N	-1.533543	0.406877	-0.000008
N66	N	-1.033543	0.906877	0.499992
N67	N	-1.500943	-0.105094	-0.216333
N68	N	-1.000943	0.394906	0.283667
C69	C	-1.546610	-0.074702	0.260036
C70	C	-1.046610	0.425298	0.760036
C71	C	-1.540407	-0.078826	0.347443
C72	C	-1.040407	0.421174	0.847443
C73	C	-1.457727	-0.133748	0.391150
C74	C	-0.957727	0.366252	0.891150
C75	C	-1.381238	-0.184544	0.347447
C76	C	-0.881238	0.315456	0.847447
C77	C	-1.387435	-0.180415	0.260042
C78	C	-0.887435	0.319585	0.760042
C79	C	-1.430651	-0.151761	0.652559
C80	C	-0.930651	0.348239	1.152559
C81	C	-1.424462	-0.155887	0.739970
C82	C	-0.924462	0.344113	1.239970
C83	C	-1.583630	-0.050168	0.739960
C84	C	-1.083630	0.449832	1.239960
C85	C	-1.589826	-0.046048	0.652553
C86	C	-1.089826	0.453952	1.152553
C87	C	-1.513332	-0.096840	0.608857
C88	C	-1.013332	0.403160	1.108857
N89	N	-1.451387	-0.137967	0.480494
N90	N	-0.951387	0.362033	0.980494
N91	N	-1.519666	-0.092617	0.519515
N92	N	-1.019666	0.407383	1.019515
H93	H	-1.096761	-0.243283	-0.000003
H94	H	-0.596761	0.256717	0.499997
H95	H	-1.707496	0.662479	-0.000000
H96	H	-1.207496	1.162479	0.500000
C97	C	-1.055739	-0.037849	0.000005
C98	C	-0.555739	0.462151	0.500005
N99	N	-1.008024	0.022149	0.000007
N100	N	-0.508024	0.522149	0.500007
C101	C	-1.760249	0.504802	0.000006
C102	C	-1.260249	1.004802	0.500006
N103	N	-1.858058	0.478145	0.000014
N104	N	-1.358058	0.978145	0.500014
H105	H	-0.846949	-0.239157	-0.000012
H106	H	-0.346949	0.260843	0.499988
C107	C	-1.706612	0.129462	0.000015
C108	C	-1.206612	0.629462	0.500015
N109	N	-1.804425	0.102809	0.000015
N110	N	-1.304425	0.602809	0.500015
C111	C	-1.210813	0.264606	-0.000002
C112	C	-0.710813	0.764606	0.499998
N113	N	-1.113007	0.291268	0.000006
N114	N	-0.613007	0.791268	0.500006
C115	C	-1.624511	-0.022930	0.395506
C116	C	-1.124511	0.477070	0.895506
N117	N	-1.687850	0.019181	0.431706
N118	N	-1.187850	0.519181	0.931706
H119	H	-1.263558	0.106930	-0.000005
H120	H	-0.763558	0.606930	0.499995
C121	C	-1.264447	0.639949	-0.000023
C122	C	-0.764447	1.139949	0.499977
N123	N	-1.166640	0.666609	-0.000031
N124	N	-0.666640	1.166609	0.499969
C125	C	-1.684598	0.301319	0.000018
C126	C	-1.184598	0.801319	0.500018
N127	N	-1.773726	0.342462	0.000034
N128	N	-1.273726	0.842462	0.500034
C129	C	-1.286454	0.468090	-0.000027
C130	C	-0.786454	0.968090	0.499973
N131	N	-1.197323	0.426950	-0.000040
N132	N	-0.697323	0.926950	0.499960
H133	H	-1.613942	-0.029982	0.224455
H134	H	-1.113942	0.470018	0.724455
C135	C	-1.680773	0.014375	0.604481
C136	C	-1.180773	0.514375	1.104481
N137	N	-1.749276	0.059886	0.568274
N138	N	-1.249276	0.559886	1.068274
C139	C	-1.667758	0.005706	0.788032
C140	C	-1.167758	0.505706	1.288032
N141	N	-1.731121	0.047796	0.824241
N142	N	-1.231121	0.547796	1.324241
C143	C	-1.333500	-0.216306	0.788046
C144	C	-0.833500	0.283694	1.288046
N145	N	-1.264992	-0.261812	0.824257
N146	N	-0.764992	0.238188	1.324257
C147	C	-1.346677	-0.207738	0.604505
C148	C	-0.846677	0.292262	1.104505
N149	N	-1.283484	-0.249939	0.568307
N150	N	-0.783484	0.250061	1.068307
C151	C	-1.290277	-0.244952	0.395528
C152	C	-0.790277	0.255048	0.895528
N153	N	-1.221762	-0.290452	0.431742
N154	N	-0.721762	0.209548	0.931742
H155	H	-0.911471	-0.055885	-0.000003
H156	H	-0.411471	0.444115	0.499997
C157	C	-1.303310	-0.236298	0.211975
C158	C	-0.803310	0.263702	0.711975
N159	N	-1.239945	-0.278392	0.175773
N160	N	-0.739945	0.221608	0.675773
