data_functionalizedCrystal
_audit_creation_method	'MofGen! by Chris Wilmer'
_symmetry_space_group_name_H-M	'P1'
_symmetry_Int_Tables_number	1
_symmetry_cell_setting	triclinic
loop_
_symmetry_equiv_pos_as_xyz
  x,y,z
_cell_length_a	12.759401
_cell_length_b	25.639240
_cell_length_c	25.639243
_cell_angle_alpha	90.021464
_cell_angle_beta	90.011420
_cell_angle_gamma	90.032989
loop_
_atom_site_label
_atom_site_type_symbol
_atom_site_fract_x
_atom_site_fract_y
_atom_site_fract_z
Zn1	Zn	1.606038	-0.208234	0.295565
Zn2	Zn	1.605903	-0.295646	0.208118
Zn3	Zn	1.430366	-0.208227	0.208145
Zn4	Zn	1.430274	-0.295641	0.295525
O5	O	1.518145	-0.251937	0.251838
O6	O	1.753041	-0.219835	0.283970
O7	O	1.582599	-0.284049	0.134957
O8	O	1.453764	-0.135063	0.219770
O9	O	1.752942	-0.284056	0.219724
O10	O	1.582830	-0.135068	0.283997
O11	O	1.453633	-0.219823	0.134977
O12	O	1.283332	-0.219817	0.219731
O13	O	1.453608	-0.284047	0.368695
O14	O	1.283265	-0.284040	0.283928
O15	O	1.582741	-0.219830	0.368725
O16	O	1.582510	-0.368811	0.219685
O17	O	1.453476	-0.368807	0.283902
C18	C	1.245178	-0.251928	0.251829
C19	C	1.128401	-0.251936	0.251837
C20	C	1.073491	-0.285322	0.218338
C21	C	0.963767	-0.285332	0.218347
C22	C	0.963873	-0.218563	0.285355
C23	C	1.073595	-0.218557	0.285348
C24	C	1.128297	-0.318701	0.184826
C25	C	1.073386	-0.352090	0.151324
C26	C	0.963662	-0.352099	0.151333
C27	C	0.908849	-0.318719	0.184844
C28	C	1.517997	-0.387780	0.251797
C29	C	1.518029	-0.445894	0.251797
C30	C	1.585383	-0.806221	0.285341
C31	C	1.585414	-0.860825	0.285352
O32	O	1.642504	-0.889032	0.313830
N33	N	1.518291	-0.888176	0.251889
C34	C	1.451125	-0.860920	0.218417
O35	O	1.394033	-0.889198	0.189955
C36	C	1.451089	-0.806316	0.218409
C37	C	1.518224	-0.778968	0.251871
C38	C	1.652512	-0.778873	0.318801
C39	C	1.652482	-0.724272	0.318789
C40	C	1.585323	-0.697020	0.285319
C41	C	1.518195	-0.724368	0.251859
C42	C	1.383918	-0.779061	0.184940
C43	C	1.383888	-0.724454	0.184935
C44	C	1.451023	-0.697106	0.218397
C45	C	1.451006	-0.642515	0.218377
N46	N	1.518129	-0.615164	0.251840
C47	C	1.585288	-0.642417	0.285311
C48	C	1.451203	-0.975590	0.218436
C49	C	1.451243	-1.030193	0.218440
C50	C	1.585531	-1.030094	0.285377
C51	C	1.585496	-0.975491	0.285369
C52	C	1.518326	-0.948240	0.251899
C53	C	1.585221	-0.527752	0.285284
C54	C	1.585188	-0.473146	0.285268
C55	C	1.450896	-0.473249	0.218334
C56	C	1.450932	-0.527850	0.218348
C57	C	1.518098	-0.555100	0.251827
O58	O	1.393942	-0.614274	0.189915
O59	O	1.642360	-0.614132	0.313773
C60	C	1.792178	-0.251947	0.251848
C61	C	1.908955	-0.251951	0.251853
C62	C	1.518179	-0.251939	0.388211
C63	C	1.518194	-0.251939	0.446325
C64	C	1.518323	-0.115564	0.251891
C65	C	1.518398	-0.057450	0.251913
C66	C	1.450981	-0.218501	0.806704
C67	C	1.450973	-0.218502	0.861309
O68	O	1.393843	-0.190077	0.889559
N69	N	1.518119	-0.251939	0.888608
C70	C	1.585269	-0.285382	0.861300
O71	O	1.642381	-0.313824	0.889534
C72	C	1.585271	-0.285384	0.806697
C73	C	1.518129	-0.251940	0.779400
C74	C	1.383843	-0.185061	0.779408
C75	C	1.383853	-0.185059	0.724807
C76	C	1.451000	-0.218499	0.697503
C77	C	1.518138	-0.251939	0.724800
C78	C	1.652416	-0.318829	0.779390
C79	C	1.652411	-0.318828	0.724783
C80	C	1.585269	-0.285384	0.697486
C81	C	1.585295	-0.285377	0.642895
N82	N	1.518150	-0.251939	0.615596
C83	C	1.451002	-0.218500	0.642900
C84	C	1.585259	-0.285377	0.975971
C85	C	1.585263	-0.285373	1.030573
C86	C	1.450966	-0.218493	1.030578
C87	C	1.450967	-0.218495	0.975974
C88	C	1.518113	-0.251939	0.948671
C89	C	1.451028	-0.218500	0.528235
C90	C	1.451047	-0.218500	0.473629
C91	C	1.585340	-0.285382	0.473629
C92	C	1.585326	-0.285380	0.528230
C93	C	1.518161	-0.251937	0.555531
O94	O	1.642394	-0.313788	0.614610
O95	O	1.393891	-0.190068	0.614659
C96	C	1.518109	-0.251944	1.115996
C97	C	1.518111	-0.251935	1.057882
H98	H	1.639861	-0.450881	0.312517
H99	H	1.707097	-0.346060	0.702555
O100	O	1.246641	-0.318690	0.184811
H101	H	1.275617	-0.289863	0.213732
O102	O	1.657668	-0.557139	0.321389
H103	H	1.704344	-0.528942	0.344647
O104	O	1.132505	-0.388091	0.115184
H105	H	1.075886	-0.411312	0.091895
O106	O	0.904434	-0.388111	0.115204
H107	H	0.854440	-0.364669	0.088657
H108	H	1.639949	-0.312600	1.052793
H109	H	1.396219	-0.451052	0.191081
H110	H	0.919235	-0.191387	0.312638
H111	H	1.118304	-0.191370	0.312625
H112	H	1.640010	-0.312606	0.550456
O113	O	1.724830	-0.354910	0.808814
H114	H	1.778337	-0.331524	0.833705
H115	H	1.329174	-0.157828	0.702587
O116	O	1.724908	-0.694778	0.354872
H117	H	1.771608	-0.722909	0.378144
O118	O	0.790502	-0.318726	0.184856
H119	H	0.761525	-0.347548	0.155930
H120	H	1.396274	-0.550118	0.191096
H121	H	1.329250	-0.801318	0.157691
H122	H	1.707201	-0.801056	0.346060
H123	H	1.640163	-0.953228	0.312617
H124	H	1.640214	-1.052293	0.312631
O125	O	1.378841	-1.059688	0.182347
H126	H	1.332135	-1.031559	0.159075
O127	O	1.378773	-0.946198	0.182323
H128	H	1.332119	-0.974394	0.159054
H129	H	1.639950	-0.312608	0.953744
H130	H	1.329187	-0.702268	0.157680
O131	O	1.657761	-0.321445	0.444171
H132	H	1.704458	-0.344698	0.472322
O133	O	1.378632	-0.182425	0.444187
H134	H	1.331935	-0.159176	0.472350
H135	H	1.396337	-0.191267	0.550457
O136	O	1.311423	-0.148987	0.808854
H137	H	1.264753	-0.125734	0.780691
H138	H	1.396295	-0.191262	0.953753
H139	H	1.396290	-0.191265	1.052819
