data_functionalizedCrystal
_audit_creation_method	'MofGen! by Chris Wilmer'
_symmetry_space_group_name_H-M	'P1'
_symmetry_Int_Tables_number	1
_symmetry_cell_setting	triclinic
loop_
_symmetry_equiv_pos_as_xyz
  x,y,z
_cell_length_a	12.594517
_cell_length_b	12.594516
_cell_length_c	12.594517
_cell_angle_alpha	90.001327
_cell_angle_beta	90.002075
_cell_angle_gamma	90.015853
loop_
_atom_site_label
_atom_site_type_symbol
_atom_site_fract_x
_atom_site_fract_y
_atom_site_fract_z
Zn1	Zn	1.627065	-0.423977	0.601875
Zn2	Zn	1.627015	-0.601910	0.423903
Zn3	Zn	1.449128	-0.423945	0.423904
Zn4	Zn	1.449051	-0.601913	0.601832
O5	O	1.538065	-0.512936	0.512878
O6	O	1.776004	-0.447592	0.578283
O7	O	1.603430	-0.578288	0.274957
O8	O	1.472785	-0.275004	0.447530
O9	O	1.775968	-0.578319	0.447528
O10	O	1.603514	-0.275027	0.578284
O11	O	1.472737	-0.447538	0.274958
O12	O	1.300172	-0.447541	0.447489
O13	O	1.472653	-0.578324	0.750784
O14	O	1.300115	-0.578294	0.578213
O15	O	1.603439	-0.447595	0.750815
O16	O	1.603355	-0.750856	0.447487
O17	O	1.472605	-0.750859	0.578211
C18	C	1.261524	-0.512915	0.512847
C19	C	1.143218	-0.512932	0.512859
C20	C	1.073965	-0.441718	0.441894
C21	C	1.003163	-0.538796	0.415717
C22	C	1.003222	-0.415902	0.539053
C23	C	1.073974	-0.610060	0.486631
C24	C	1.074039	-0.487100	0.610013
C25	C	1.003269	-0.584245	0.583873
C26	C	1.537995	-0.789477	0.512868
C27	C	1.538063	-0.907783	0.512899
C28	C	1.466941	-0.977076	0.583950
C29	C	1.441040	-1.047899	0.486827
C30	C	1.564060	-1.047759	0.610039
C31	C	1.512110	-0.977048	0.415724
C32	C	1.635176	-0.976901	0.539002
C33	C	1.609312	-1.047692	0.441812
C34	C	1.815686	-0.512959	0.512910
C35	C	1.933991	-0.512968	0.512924
C36	C	1.538043	-0.512964	0.790499
C37	C	1.538033	-0.512975	0.908805
C38	C	1.538164	-0.235316	0.512912
C39	C	1.538206	-0.117010	0.512926
C40	C	1.466898	-0.584069	0.978041
C41	C	1.563995	-0.610106	1.048832
C42	C	1.440941	-0.486965	1.048812
C43	C	1.635181	-0.539063	0.978038
C44	C	1.512063	-0.415877	0.978011
C45	C	1.609227	-0.441878	1.048771
C46	C	1.538064	-0.512941	1.236337
C47	C	1.538027	-0.512955	1.118032
H48	H	0.972032	-0.560667	0.333584
O49	O	0.966412	-0.656038	0.655624
C50	C	0.863059	-0.684899	0.814027
C51	C	0.904750	-0.603477	0.732866
H52	H	0.813178	-0.642438	0.876485
H53	H	0.932958	-0.726096	0.854141
H54	H	0.812114	-0.746465	0.771487
H55	H	0.955678	-0.541848	0.775326
H56	H	0.834802	-0.562362	0.692755
H57	H	1.717217	-0.945695	0.561104
H58	H	0.972087	-0.333840	0.561145
O59	O	1.110708	-0.708075	0.460140
C60	C	1.065965	-0.887647	0.411528
C61	C	1.024219	-0.776708	0.441543
H62	H	0.996060	-0.943161	0.396462
H63	H	1.116388	-0.920297	0.479235
H64	H	1.116365	-0.881585	0.336586
H65	H	0.973774	-0.782679	0.516458
H66	H	0.973854	-0.744098	0.373774
H67	H	1.105196	-0.465200	0.692121
O68	O	1.590358	-1.084940	0.707945
C69	C	1.713339	-1.188360	0.811769
C70	C	1.683677	-1.146349	0.700828
H71	H	1.788801	-1.237999	0.806057
H72	H	1.645875	-1.239563	0.843741
H73	H	1.727335	-1.118544	0.867663
H74	H	1.669698	-1.216098	0.644855
H75	H	1.751157	-1.095114	0.668944
H76	H	1.358835	-0.464974	1.079901
H77	H	1.406818	-0.644244	0.946985
O78	O	1.733238	-0.565390	0.941293
C79	C	1.912863	-0.613727	0.986016
C80	C	1.801878	-0.583897	1.027775
H81	H	1.968383	-0.628719	1.055915
H82	H	1.945437	-0.545957	0.935610
H83	H	1.906908	-0.688667	0.935596
H84	H	1.807742	-0.508984	1.078239
H85	H	1.769345	-0.651729	1.078122
H86	H	1.585966	-0.692211	1.079940
H87	H	1.490085	-0.946116	0.333563
O88	O	1.681123	-1.084642	0.370146
C89	C	1.762359	-1.238292	0.290199
C90	C	1.681025	-1.196587	0.371419
H91	H	1.762291	-1.328804	0.291186
H92	H	1.844877	-1.207914	0.311722
H93	H	1.740068	-1.209023	0.207499
H94	H	1.703218	-1.225839	0.454148
H95	H	1.598530	-1.226957	0.349805
O96	O	1.485634	-0.317990	0.940909
C97	C	1.353403	-0.179880	0.934861
C98	C	1.383204	-0.290756	0.976934
H99	H	1.270596	-0.157818	0.963988
H100	H	1.354355	-0.180627	0.844350
H101	H	1.413241	-0.119077	0.965159
H102	H	1.323395	-0.351621	0.946714
H103	H	1.382285	-0.289921	1.067443
O104	O	1.110955	-0.370062	0.370073
C105	C	1.116745	-0.316356	0.186530
C106	C	1.074806	-0.397590	0.267751
H107	H	1.087518	-0.338570	0.103788
H108	H	1.207258	-0.316469	0.187615
H109	H	1.086448	-0.233835	0.208078
H110	H	1.105025	-0.480150	0.246259
H111	H	0.984295	-0.397384	0.266651
O112	O	1.394922	-0.940123	0.655407
C113	C	1.211238	-0.934434	0.708632
C114	C	1.292684	-0.976335	0.627625
H115	H	1.128564	-0.963713	0.686212
H116	H	1.212292	-0.843922	0.708490
H117	H	1.232582	-0.964711	0.791220
H118	H	1.271396	-0.946136	0.544998
H119	H	1.291615	-1.066846	0.627860
H120	H	1.358980	-1.079108	0.464771
H121	H	1.669450	-0.381748	1.079631
