data_functionalizedCrystal
_audit_creation_method	'MofGen! by Chris Wilmer'
_symmetry_space_group_name_H-M	'P1'
_symmetry_Int_Tables_number	1
_symmetry_cell_setting	triclinic
loop_
_symmetry_equiv_pos_as_xyz
  x,y,z
_cell_length_a	17.000371
_cell_length_b	17.038272
_cell_length_c	7.088929
_cell_angle_alpha	96.674532
_cell_angle_beta	84.292666
_cell_angle_gamma	83.355402
loop_
_atom_site_label
_atom_site_type_symbol
_atom_site_fract_x
_atom_site_fract_y
_atom_site_fract_z
O1	O	1.050410	0.036602	0.158997
O2	O	1.550410	0.536602	0.658997
O3	O	0.820590	0.064847	0.159000
O4	O	1.320590	0.564847	0.659000
O5	O	0.934135	-0.062998	0.158983
O6	O	1.434135	0.437002	0.658983
O7	O	0.936865	0.164447	0.159014
O8	O	1.436865	0.664447	0.659014
O9	O	0.949306	-0.080119	-0.158994
O10	O	1.449306	0.419881	0.341006
O11	O	0.835761	0.047726	-0.158977
O12	O	1.335761	0.547726	0.341023
O13	O	1.065582	0.019481	-0.158980
O14	O	1.565582	0.519481	0.341020
Cu15	Cu	0.952057	0.032040	-0.188013
Cu16	Cu	1.452057	0.532040	0.311987
Cu17	Cu	0.934114	0.052288	0.188032
Cu18	Cu	1.434114	0.552288	0.688032
O19	O	0.952037	0.147326	-0.158964
O20	O	1.452037	0.647326	0.341036
C21	C	0.798624	0.057804	0.000011
C22	C	1.298624	0.557804	0.500011
C23	C	0.710571	0.062315	0.000012
C24	C	1.210571	0.562315	0.500012
C25	C	0.673845	-0.007108	-0.000001
C26	C	1.173845	0.492892	0.499999
C27	C	0.591109	-0.002863	0.000014
C28	C	1.091109	0.497137	0.500014
C29	C	0.545101	0.070803	0.000027
C30	C	1.045101	0.570803	0.500027
C31	C	0.581832	0.140231	0.000045
C32	C	1.081832	0.640231	0.500045
C33	C	0.664566	0.135987	0.000045
C34	C	1.164566	0.635987	0.500045
C35	C	0.295064	0.087198	0.000042
C36	C	0.795064	0.587198	0.500042
C37	C	0.212325	0.091436	0.000037
C38	C	0.712325	0.591436	0.500037
C39	C	0.221608	-0.051659	0.000009
C40	C	0.721608	0.448341	0.500009
C41	C	0.304344	-0.055897	-0.000003
C42	C	0.804344	0.444103	0.499997
C43	C	0.341067	0.013532	0.000025
C44	C	0.841067	0.513532	0.500025
C45	C	0.460531	0.075143	0.000036
C46	C	0.960531	0.575143	0.500036
C47	C	0.425635	0.009192	0.000030
C48	C	0.925635	0.509192	0.500030
C49	C	0.939236	-0.100517	-0.000005
C50	C	1.439236	0.399483	0.499995
C51	C	0.931823	-0.186802	-0.000004
C52	C	1.431823	0.313198	0.499996
C53	C	0.999881	-0.241578	-0.000007
C54	C	1.499881	0.258422	0.499993
C55	C	0.992911	-0.322650	0.000011
C56	C	1.492911	0.177350	0.500011
C57	C	0.917881	-0.348945	0.000018
C58	C	1.417881	0.151055	0.500018
C59	C	0.849817	-0.294163	0.000027
C60	C	1.349817	0.205837	0.500027
C61	C	0.856788	-0.213091	0.000022
C62	C	1.356788	0.286909	0.500022
C63	C	0.893254	-0.593015	0.000045
C64	C	1.393254	-0.093015	0.500045
C65	C	0.886289	-0.674094	0.000044
C66	C	1.386289	-0.174094	0.500044
C67	C	1.029383	-0.702575	0.000031
C68	C	1.529383	-0.202575	0.500031
C69	C	1.036348	-0.621501	0.000015
C70	C	1.536348	-0.121501	0.500015
C71	C	0.968283	-0.566725	0.000034
C72	C	1.468283	-0.066725	0.500034
C73	C	0.910755	-0.431814	0.000031
C74	C	1.410755	0.068186	0.500031
C75	C	0.975410	-0.483857	0.000035
C76	C	1.475410	0.016143	0.500035
C77	C	1.087546	0.026525	0.000012
C78	C	1.587546	0.526525	0.500012
C79	C	1.175599	0.022014	0.000024
C80	C	1.675599	0.522014	0.500024
C81	C	0.946935	0.184845	0.000029
C82	C	1.446935	0.684845	0.500029
C83	C	0.954347	0.271131	0.000041
C84	C	1.454347	0.771131	0.500041
N85	N	0.964682	0.017798	-0.452503
N86	N	1.464682	0.517798	0.047497
N87	N	0.921495	0.066524	0.452522
N88	N	1.421495	0.566524	0.952522
H89	H	0.544364	0.200213	0.000069
H90	H	1.044364	0.700213	0.500069
Cl91	Cl	0.731677	-0.099723	-0.000030
Cl92	Cl	1.231677	0.400277	0.499970
Cl93	Cl	0.544941	-0.090139	0.000053
Cl94	Cl	1.044941	0.409861	0.500053
H95	H	0.876736	0.117018	-0.465825
H96	H	1.376736	0.617018	0.034175
H97	H	0.837831	-0.548425	0.000059
H98	H	1.337831	-0.048425	0.500059
H99	H	0.788726	-0.315578	0.000045
H100	H	1.288726	0.184422	0.500045
H101	H	0.694467	0.192518	0.000046
H102	H	1.194467	0.692518	0.500046
Cl103	Cl	1.033801	-0.060160	-0.578573
Cl104	Cl	1.533801	0.439840	-0.078573
H105	H	1.048332	-0.367246	0.000005
H106	H	1.548332	0.132754	0.500005
Cl107	Cl	0.362178	-0.148511	-0.000034
Cl108	Cl	0.862178	0.351489	0.499966
H109	H	0.801367	-0.168493	0.000025
H110	H	1.301367	0.331507	0.500025
Cl111	Cl	0.154487	0.184052	0.000036
Cl112	Cl	0.654487	0.684052	0.500036
H113	H	0.825189	-0.695501	0.000019
H114	H	1.325189	-0.195501	0.500019
H115	H	1.036496	-0.462442	0.000071
H116	H	1.536496	0.037558	0.500071
H117	H	0.324953	0.143732	0.000078
H118	H	0.824953	0.643732	0.500078
Cl119	Cl	0.402685	0.167750	0.000054
Cl120	Cl	0.902685	0.667750	0.500054
Cl121	Cl	0.175436	-0.138934	-0.000015
Cl122	Cl	0.675436	0.361066	0.499985
Cl123	Cl	1.130671	-0.588447	0.000068
Cl124	Cl	1.630671	-0.088447	0.500068
H125	H	0.849665	-0.453233	0.000033
H126	H	1.349665	0.046767	0.500033
H127	H	0.463098	-0.050786	0.000031
H128	H	0.963098	0.449214	0.500031
H129	H	1.060979	-0.220176	-0.000025
H130	H	1.560979	0.279824	0.499975
H131	H	1.084796	-0.747182	0.000020
H132	H	1.584796	-0.247182	0.500020
