data_functionalizedCrystal
_audit_creation_method	'MofGen! by Chris Wilmer'
_symmetry_space_group_name_H-M	'P1'
_symmetry_Int_Tables_number	1
_symmetry_cell_setting	triclinic
loop_
_symmetry_equiv_pos_as_xyz
  x,y,z
_cell_length_a	10.654550
_cell_length_b	27.732025
_cell_length_c	9.130313
_cell_angle_alpha	90.013320
_cell_angle_beta	89.996220
_cell_angle_gamma	83.559187
loop_
_atom_site_label
_atom_site_type_symbol
_atom_site_fract_x
_atom_site_fract_y
_atom_site_fract_z
O1	O	1.664966	0.067884	-0.121867
O2	O	1.299214	0.074352	-0.121839
O3	O	1.493464	0.000792	-0.121898
O4	O	1.470716	0.141445	-0.121808
O5	O	1.493462	0.000794	0.121700
O6	O	1.299212	0.074354	0.121760
O7	O	1.664964	0.067886	0.121732
Cu8	Cu	1.482088	0.071120	0.143988
Cu9	Cu	1.482090	0.071118	-0.144096
O10	O	1.470714	0.141447	0.121791
C11	C	1.252435	0.073878	-0.000037
C12	C	1.113052	0.072457	-0.000029
C13	C	1.031737	0.115769	-0.000022
C14	C	0.900772	0.114431	-0.000048
C15	C	0.932452	0.026466	-0.000094
C16	C	1.063414	0.027805	-0.000057
C17	C	1.081375	0.160421	0.000006
C18	C	1.000058	0.203736	0.000011
C19	C	0.869094	0.202398	-0.000015
C20	C	0.819446	0.157745	-0.000046
C21	C	1.492990	-0.017218	-0.000114
C22	C	1.491565	-0.070882	-0.000157
C23	C	1.481444	-0.454111	-0.132857
C24	C	1.486776	-0.252419	-0.132904
O25	O	1.487517	-0.226348	-0.245837
N26	N	1.487441	-0.227192	-0.000122
C27	C	1.486782	-0.252393	0.132681
O28	O	1.487483	-0.226309	0.245619
C29	C	1.481459	-0.454085	0.132727
C30	C	1.480781	-0.479308	-0.000064
C31	C	1.480767	-0.479335	-0.265636
C32	C	1.479428	-0.529755	-0.265623
C33	C	1.478764	-0.554951	-0.132830
C34	C	1.479441	-0.529728	-0.000050
C35	C	1.480808	-0.479284	0.265528
C36	C	1.479481	-0.529711	0.265528
C37	C	1.478803	-0.554934	0.132738
C38	C	1.477438	-0.605344	0.132756
N39	N	1.476773	-0.630570	-0.000026
C40	C	1.477436	-0.605374	-0.132819
C41	C	1.489574	-0.146501	0.132647
C42	C	1.490902	-0.096078	0.132636
C43	C	1.490899	-0.096108	-0.132949
C44	C	1.489561	-0.146532	-0.132937
C45	C	1.488908	-0.171728	-0.000135
C46	C	1.474621	-0.711259	-0.132781
C47	C	1.473276	-0.761683	-0.132756
C48	C	1.473286	-0.761649	0.132828
C49	C	1.474624	-0.711229	0.132804
C50	C	1.475296	-0.686036	-0.000012
O51	O	1.476710	-0.631447	0.245629
O52	O	1.476762	-0.631468	-0.245740
C53	C	1.482784	-0.403692	-0.132870
C54	C	1.483460	-0.378468	-0.000090
C55	C	1.482797	-0.403665	0.132703
C56	C	1.484789	-0.328045	-0.000101
C57	C	1.485452	-0.302849	-0.132894
C58	C	1.484787	-0.328075	-0.265676
C59	C	1.483447	-0.378495	-0.265663
C60	C	1.483462	-0.378438	0.265484
C61	C	1.484801	-0.328018	0.265460
C62	C	1.485464	-0.302822	0.132667
C63	C	1.711743	0.068360	-0.000074
C64	C	1.851126	0.069781	-0.000091
C65	C	1.471188	0.159456	0.000003
C66	C	1.472613	0.213120	0.000037
N67	N	1.482095	0.071122	0.346611
N68	N	1.482093	0.071113	-0.346718
C69	C	1.568130	0.038560	0.423237
C70	C	1.568127	0.038555	0.576573
C71	C	1.396049	0.103676	0.576646
C72	C	1.396047	0.103679	0.423312
C73	C	1.654178	0.006003	0.346536
C74	C	1.740221	-0.026561	0.423162
C75	C	1.740218	-0.026566	0.576498
C76	C	1.654171	0.005992	0.653210
H77	H	1.188011	0.161516	0.000021
C78	C	1.054673	0.252851	0.000055
N79	N	1.095808	0.289846	0.000087
H80	H	1.482895	-0.399027	-0.373794
C81	C	1.834851	-0.062378	0.338777
N82	N	1.906124	-0.089359	0.275220
C83	C	1.488844	-0.174274	-0.279015
N84	N	1.488315	-0.195167	-0.389048
C85	C	1.478757	-0.557423	0.411625
N86	N	1.478206	-0.578295	0.521665
C87	C	0.877833	-0.022648	-0.000142
N88	N	0.836695	-0.059642	-0.000185
H89	H	1.325994	0.130184	0.639114
C90	C	1.491639	-0.068383	-0.279023
N91	N	1.492208	-0.047499	-0.389039
C92	C	1.301376	0.139488	0.339019
N93	N	1.230055	0.166455	0.275529
C94	C	0.779649	0.250045	0.000010
N95	N	0.712281	0.285934	0.000025
C96	C	1.475364	-0.683483	0.278879
N97	N	1.475934	-0.662588	0.388906
C98	C	1.654173	0.005983	0.821886
N99	N	1.654182	0.005979	0.948931
C100	C	1.472572	-0.789428	-0.278842
N101	N	1.472060	-0.810324	-0.388871
C102	C	0.675380	0.156276	-0.000069
N103	N	0.566870	0.155170	-0.000094
C104	C	1.485544	-0.300278	0.411551
N105	N	1.486115	-0.279387	0.521584
C106	C	1.491631	-0.068338	0.278716
N107	N	1.492187	-0.047445	0.388749
H108	H	1.489042	-0.167011	0.240797
C109	C	1.472552	-0.789375	0.278893
N110	N	1.472006	-0.810260	0.388911
C111	C	1.152866	-0.019840	-0.000072
N112	N	1.220242	-0.055727	-0.000081
C113	C	1.475350	-0.683553	-0.278886
N114	N	1.475889	-0.662685	-0.388933
H115	H	1.481312	-0.458825	-0.373778
C116	C	1.481559	-0.451550	0.411611
N117	N	1.482128	-0.430662	0.521650
H118	H	1.810269	-0.053084	0.638886
H119	H	1.478884	-0.550287	-0.373755
H120	H	1.654191	0.006006	0.221681
H121	H	1.482926	-0.398948	0.373623
H122	H	1.485318	-0.307551	-0.373801
