data_functionalizedCrystal
_audit_creation_method	'MofGen! by Chris Wilmer'
_symmetry_space_group_name_H-M	'P1'
_symmetry_Int_Tables_number	1
_symmetry_cell_setting	triclinic
loop_
_symmetry_equiv_pos_as_xyz
  x,y,z
_cell_length_a	12.759401
_cell_length_b	16.120531
_cell_length_c	12.759393
_cell_angle_alpha	87.140065
_cell_angle_beta	89.980789
_cell_angle_gamma	87.067419
loop_
_atom_site_label
_atom_site_type_symbol
_atom_site_fract_x
_atom_site_fract_y
_atom_site_fract_z
Zn1	Zn	1.584929	0.331852	-0.615123
Zn2	Zn	1.575858	0.471288	-0.448326
Zn3	Zn	1.409226	0.331895	-0.439465
Zn4	Zn	1.400260	0.471226	-0.623963
O5	O	1.492568	0.401565	-0.531719
O6	O	1.730746	0.350356	-0.593006
O7	O	1.553710	0.452841	-0.300132
O8	O	1.440082	0.215224	-0.455359
O9	O	1.724082	0.452800	-0.470461
O10	O	1.569170	0.215192	-0.584415
O11	O	1.431286	0.350430	-0.293622
O12	O	1.261016	0.350369	-0.463930
O13	O	1.424800	0.452694	-0.769809
O14	O	1.254429	0.452735	-0.599480
O15	O	1.560476	0.350296	-0.763314
O16	O	1.545016	0.587945	-0.479032
O17	O	1.416005	0.587899	-0.608071
C18	C	1.219602	0.401551	-0.531704
C19	C	1.102824	0.401565	-0.531723
C20	C	1.051427	0.348319	-0.595642
C21	C	0.941702	0.348327	-0.595650
C22	C	0.934782	0.454835	-0.467816
C23	C	1.044505	0.454821	-0.467804
C24	C	1.478581	0.618172	-0.545495
C25	C	1.472694	0.710838	-0.551424
C26	C	1.461951	0.880499	-0.562269
C27	C	1.523225	0.921791	-0.501110
C28	C	1.517247	1.016196	-0.507145
C29	C	1.467927	0.786085	-0.556236
C30	C	1.766600	0.401580	-0.531736
C31	C	1.883377	0.401586	-0.531743
C32	C	1.492650	0.401483	-0.805748
C33	C	1.492685	0.401448	-0.922522
C34	C	1.506601	1.184112	-0.517893
C35	C	1.512485	1.091447	-0.511952
C36	C	1.563360	0.348089	-1.083733
C37	C	1.563338	0.348122	-0.974011
C38	C	1.422056	0.454751	-0.980762
C39	C	1.422084	0.454723	-1.090482
C40	C	1.492551	0.401587	-0.258753
C41	C	1.492735	0.401387	-0.141964
H42	H	0.887284	0.498195	-0.415777
C43	C	1.101045	0.513399	-0.397484
N44	N	1.143631	0.557516	-0.344519
C45	C	1.344335	0.513409	-0.924120
N46	N	1.285790	0.557589	-0.881458
H47	H	1.405008	0.916046	-0.619155
C48	C	1.600151	0.873767	-0.424243
N49	N	1.658085	0.837592	-0.366345
C50	C	1.641086	0.289426	-1.140360
N51	N	1.699634	0.245241	-1.183009
C52	C	1.641026	0.289486	-0.909960
N53	N	1.699543	0.245318	-0.861718
C54	C	1.344385	0.513356	-1.154541
N55	N	1.285866	0.557517	-1.202790
H56	H	0.899860	0.304968	-0.647698
C57	C	1.115575	0.289728	-0.665945
N58	N	1.163889	0.245592	-0.718896
