data_functionalizedCrystal
_audit_creation_method	'MofGen! by Chris Wilmer'
_symmetry_space_group_name_H-M	'P1'
_symmetry_Int_Tables_number	1
_symmetry_cell_setting	triclinic
loop_
_symmetry_equiv_pos_as_xyz
  x,y,z
_cell_length_a	20.875641
_cell_length_b	15.698487
_cell_length_c	15.698487
_cell_angle_alpha	90.001001
_cell_angle_beta	57.590089
_cell_angle_gamma	62.440568
loop_
_atom_site_label
_atom_site_type_symbol
_atom_site_fract_x
_atom_site_fract_y
_atom_site_fract_z
Zr1	Zr	0.702128	0.854827	-0.146012
O2	O	0.835947	0.725330	-0.288548
O3	O	0.568309	0.890002	-0.097795
O4	O	0.702131	0.896519	-0.282030
O5	O	0.702122	0.718818	0.035872
O6	O	0.702133	1.036700	-0.282033
O7	O	0.702124	0.718814	-0.104313
O8	O	0.462750	1.025043	0.047530
O9	O	0.941505	0.730475	-0.293691
O10	O	0.623352	1.015084	-0.082696
O11	O	0.623348	0.910472	0.021924
O12	O	0.780907	0.918144	-0.194989
O13	O	0.780903	0.813532	-0.090369
Zr14	Zr	0.702128	1.078407	0.077563
Zr15	Zr	0.702132	1.078400	-0.146015
Zr16	Zr	0.702124	0.854834	0.077567
Zr17	Zr	0.870482	0.863033	-0.154214
Zr18	Zr	0.533774	1.070202	0.085766
O19	O	0.835947	1.043232	0.029347
O20	O	0.835952	1.043222	-0.288553
O21	O	0.835941	0.725340	0.029352
O22	O	0.568309	1.207904	0.220099
O23	O	0.568314	1.207894	-0.097801
O24	O	0.568303	0.890013	0.220104
O25	O	0.702133	1.214416	-0.104321
O26	O	0.702124	1.036716	0.213582
O27	O	0.702122	0.896535	0.213584
O28	O	0.702131	1.214421	0.035864
O29	O	0.941509	0.908186	-0.293694
O30	O	0.462747	1.025049	0.225245
O31	O	0.462750	1.202760	0.225242
O32	O	0.462753	1.202754	0.047527
O33	O	0.941502	0.730481	-0.115976
O34	O	0.941505	0.908191	-0.115979
O35	O	0.623348	1.015091	0.126540
O36	O	0.623352	1.119703	0.021921
O37	O	0.780907	1.022763	-0.090373
O38	O	0.780903	0.918151	0.014247
C39	C	0.491542	0.956354	-0.023964
C40	C	0.420072	0.952870	-0.020482
C41	C	0.386497	1.005838	-0.073456
C42	C	0.319337	1.002567	-0.070174
C43	C	0.285759	0.946323	-0.013923
C44	C	0.319337	0.893354	0.039058
C45	C	0.386490	0.896631	0.035782
C46	C	0.084915	0.930672	0.001738
C47	C	0.017759	0.927397	0.005008
C48	C	0.017763	1.036612	-0.104223
C49	C	0.084921	1.039879	-0.107500
C50	C	0.118490	0.986915	-0.054514
N51	N	0.217114	0.942976	-0.010570
N52	N	0.187129	0.990268	-0.057862
C53	C	0.702123	0.686962	-0.034220
C54	C	0.702121	0.592049	-0.034218
C55	C	0.702137	0.418265	-0.034229
C56	C	0.702132	0.514968	-0.034225
C57	C	0.912713	0.976881	-0.044485
C58	C	0.984184	0.980364	-0.047967
C59	C	0.702133	0.966608	-0.313887
C60	C	0.702134	0.966605	-0.408801
C61	C	0.702133	1.246273	-0.034229
C62	C	0.702134	1.341185	-0.034230
C63	C	0.702119	0.966628	-0.582565
C64	C	0.702124	0.966618	-0.485868
C65	C	0.702123	0.966626	0.245438
C66	C	0.702121	0.966629	0.340353
C67	C	0.491547	1.236009	-0.023968
C68	C	0.420078	1.327439	-0.020488
C69	C	0.491537	0.956363	0.255698
C70	C	0.420065	0.952882	0.354096
C71	C	0.491542	1.236018	0.255694
C72	C	0.420072	1.327450	0.354089
C73	C	0.912713	0.697216	-0.324142
C74	C	0.984184	0.605784	-0.422538
C75	C	0.912708	0.697225	-0.044480
C76	C	0.984177	0.605796	-0.047961
C77	C	0.912718	0.976872	-0.324147
C78	C	0.984190	0.980352	-0.422544
C79	C	0.386516	1.315765	-0.073471
C80	C	0.319372	1.401664	-0.070222
C81	C	0.285788	1.499236	-0.013982
C82	C	0.319357	1.510908	0.039002
C83	C	0.386504	1.425010	0.035746
C84	C	0.386501	1.005858	0.454922
C85	C	0.319354	1.002584	0.547385
C86	C	0.285768	0.946340	0.539019
C87	C	0.319339	0.893358	0.438181
C88	C	0.386489	0.896627	0.345721
C89	C	0.386510	1.425004	0.345687
C90	C	0.319365	1.510923	0.438131
C91	C	0.285778	1.499287	0.538977
C92	C	0.319346	1.401723	0.547377
C93	C	0.386495	1.315806	0.454934
C94	C	1.017753	0.508231	-0.414136
C95	C	1.084919	0.422313	-0.506581
C96	C	1.118510	0.433950	-0.607427
C97	C	1.084937	0.531513	-0.615827
C98	C	1.017777	0.617429	-0.523383
C99	C	1.017746	0.617470	0.005013
C100	C	1.084908	0.531572	0.001738
C101	C	1.118495	0.434000	-0.054505
C102	C	1.084923	0.422328	-0.107485
C103	C	1.017766	0.508225	-0.104216
C104	C	1.017755	1.036606	-0.414144
C105	C	1.084902	1.039896	-0.506589
C106	C	1.118488	0.986926	-0.607434
C107	C	1.084917	0.930670	-0.615832
C108	C	1.017766	0.927387	-0.523388
H109	H	0.413829	0.853497	0.078916
H110	H	0.292003	1.590363	0.084791
Cl111	Cl	0.277181	1.386967	-0.136832
H112	H	0.231112	1.569171	-0.011339
H113	H	0.291984	0.847565	0.431386
H114	H	0.990446	0.881575	-0.530242
H115	H	0.413822	1.434529	0.078899
H116	H	0.413839	1.051658	0.461754
Cl117	Cl	0.428671	0.830027	0.218972
Cl118	Cl	0.277162	1.069201	0.674138
Cl119	Cl	1.202919	0.326023	-0.058601
H120	H	0.990408	0.498736	-0.332030
Cl121	Cl	0.277112	0.822662	0.109791
Cl122	Cl	0.428726	1.193113	-0.144186
H123	H	0.231091	0.943687	0.614315
Cl124	Cl	0.127103	0.864092	0.068354
Cl125	Cl	0.277175	1.633562	0.427545
H126	H	1.173166	0.989608	-0.682700
Cl127	Cl	0.428726	1.439660	0.218920
H128	H	0.413835	1.051633	-0.119267
Cl129	Cl	0.201360	1.607308	0.655183
Cl130	Cl	1.127171	0.546125	-0.742614
Cl131	Cl	0.277112	1.387111	0.674164
Cl132	Cl	1.127151	0.299658	-0.178181
Cl133	Cl	0.975577	0.740064	-0.533965
H134	H	0.413812	1.236377	0.461791
H135	H	1.112242	0.342881	-0.499720
H136	H	1.173195	0.363983	-0.682692
Cl137	Cl	0.975542	0.740123	0.075720
Cl138	Cl	1.127096	0.546269	0.068354
H139	H	0.990436	0.498705	-0.147351
Cl140	Cl	1.127157	0.864074	-0.742618
Cl141	Cl	0.975545	1.103208	-0.287378
H142	H	0.292000	1.045698	-0.113309
Cl143	Cl	0.127134	1.110582	-0.178226
Cl144	Cl	1.127097	1.110615	-0.496007
Cl145	Cl	-0.024451	0.856681	0.075725
Cl146	Cl	-0.024445	1.103196	-0.170825
