data_functionalizedCrystal
_audit_creation_method	'MofGen! by Chris Wilmer'
_symmetry_space_group_name_H-M	'P1'
_symmetry_Int_Tables_number	1
_symmetry_cell_setting	triclinic
loop_
_symmetry_equiv_pos_as_xyz
  x,y,z
_cell_length_a	14.853567
_cell_length_b	14.853569
_cell_length_c	7.540329
_cell_angle_alpha	89.995237
_cell_angle_beta	90.000012
_cell_angle_gamma	83.635248
loop_
_atom_site_label
_atom_site_type_symbol
_atom_site_fract_x
_atom_site_fract_y
_atom_site_fract_z
O1	O	1.196364	0.117703	-0.147365
O2	O	0.933904	0.131724	-0.147396
O3	O	1.072144	-0.006516	-0.147363
O4	O	1.058124	0.255943	-0.147398
O5	O	1.072136	-0.006518	0.147602
O6	O	0.933896	0.131722	0.147569
O7	O	1.196355	0.117701	0.147600
Cu8	Cu	1.065125	0.124712	0.174517
Cu9	Cu	1.065135	0.124714	-0.174313
O10	O	1.058116	0.255941	0.147567
C11	C	0.900311	0.131088	0.000083
C12	C	0.800228	0.129184	0.000072
C13	C	0.387693	0.039019	0.000123
C14	C	0.366413	0.203251	0.000099
C15	C	0.460447	0.205041	0.000094
C16	C	0.518108	0.123819	0.000100
C17	C	0.481736	0.040806	0.000112
C18	C	0.496826	0.288053	0.000063
C19	C	0.590866	0.289846	0.000055
C20	C	0.648529	0.208622	0.000074
C21	C	0.612151	0.125606	0.000089
C22	C	0.669813	0.044384	0.000095
C23	C	0.633437	-0.038633	0.000122
C24	C	0.539399	-0.040417	0.000131
C25	C	0.742566	0.210407	0.000065
C26	C	0.763855	0.046172	0.000084
C27	C	1.071504	-0.040106	0.000120
C28	C	1.069600	-0.140189	0.000122
C29	C	0.986589	-0.176566	0.000115
C30	C	1.150822	-0.197855	0.000115
C31	C	1.149035	-0.291889	0.000108
C32	C	1.066024	-0.328266	0.000101
C33	C	0.984800	-0.270608	0.000102
C34	C	1.230258	-0.349554	0.000088
C35	C	1.228475	-0.443594	0.000079
C36	C	1.145463	-0.479972	0.000085
C37	C	1.064235	-0.422309	0.000088
C38	C	0.981224	-0.458685	0.000081
C39	C	0.899996	-0.401023	0.000097
C40	C	0.901788	-0.306987	0.000108
C41	C	1.143670	-0.574009	0.000073
C42	C	0.979435	-0.552728	0.000068
C43	C	1.229948	0.118337	0.000117
C44	C	1.330032	0.120241	0.000117
C45	C	1.058755	0.289531	0.000080
C46	C	1.060660	0.389615	0.000067
N47	N	1.065125	0.124710	0.419866
N48	N	1.065142	0.124708	-0.419662
H49	H	0.772179	0.277998	0.000046
C50	C	0.827276	-0.043175	0.000082
H51	H	0.792141	-0.092868	0.000085
H52	H	0.864412	-0.045895	0.102930
H53	H	0.864392	-0.045890	-0.102805
H54	H	0.911837	-0.582338	0.000079
H55	H	1.209806	-0.620953	0.000043
H56	H	0.832408	-0.430653	0.000080
H57	H	0.680397	-0.104764	0.000115
C58	C	0.630872	0.381159	0.000050
H59	H	0.583061	0.429274	0.000061
H60	H	0.667116	0.385276	-0.102806
H61	H	0.667110	0.385265	0.102928
C62	C	0.347685	-0.052293	0.000145
H63	H	0.283421	-0.041730	0.000142
H64	H	0.367476	-0.085742	0.103005
H65	H	0.367465	-0.085735	-0.102729
C66	C	0.499388	-0.131727	0.000139
H67	H	0.547195	-0.179846	0.000156
H68	H	0.463146	-0.135833	-0.102722
H69	H	0.463147	-0.135839	0.103013
C70	C	0.812447	-0.243559	0.000106
H71	H	0.825404	-0.182345	0.000092
H72	H	0.778410	-0.254598	0.102962
H73	H	0.778418	-0.254592	-0.102773
H74	H	0.449872	0.354179	0.000040
H75	H	0.920455	-0.129613	0.000135
C76	C	0.302993	0.292591	0.000074
H77	H	0.338126	0.342285	0.000050
H78	H	0.265863	0.295310	0.102929
H79	H	0.265872	0.295302	-0.102806
H80	H	1.294616	-0.490536	0.000069
C81	C	1.242125	-0.157843	0.000120
H82	H	1.231558	-0.093580	0.000137
H83	H	1.275576	-0.177621	-0.102737
H84	H	1.275569	-0.177631	0.102997
C85	C	1.321561	-0.309539	0.000088
H86	H	1.310991	-0.245276	0.000118
H87	H	1.355006	-0.329311	-0.102778
H88	H	1.355010	-0.329332	0.102956
