data_functionalizedCrystal
_audit_creation_method	'MofGen! by Chris Wilmer'
_symmetry_space_group_name_H-M	'P1'
_symmetry_Int_Tables_number	1
_symmetry_cell_setting	triclinic
loop_
_symmetry_equiv_pos_as_xyz
  x,y,z
_cell_length_a	6.817900
_cell_length_b	11.102288
_cell_length_c	19.551833
_cell_angle_alpha	94.522507
_cell_angle_beta	101.663477
_cell_angle_gamma	108.605689
loop_
_atom_site_label
_atom_site_type_symbol
_atom_site_fract_x
_atom_site_fract_y
_atom_site_fract_z
V1	V	-4.032649	-0.177171	-0.217858
O2	O	-3.993183	0.007143	-0.213711
O3	O	-4.009966	-0.349983	-0.216368
O4	O	-3.975027	-0.175048	-0.312873
O5	O	-4.028363	-0.169003	-0.116537
V6	V	-4.514140	-0.155054	-0.205739
O7	O	-4.298366	-0.225687	-0.244442
O8	O	-4.698620	-0.106538	-0.179156
O9	O	-4.313617	0.017757	-0.207229
O10	O	-4.671003	-0.339369	-0.209886
O11	O	-4.635822	-0.163223	-0.307060
O12	O	-4.348555	-0.157178	-0.110724
C13	C	-3.861521	-0.392092	-0.212931
C14	C	-3.924200	-0.533371	-0.212347
C15	C	-4.136392	-0.606239	-0.215558
C16	C	-4.195277	-0.738987	-0.215014
C17	C	-3.829754	-0.725986	-0.208044
C18	C	-3.770876	-0.593242	-0.208593
C19	C	-3.816953	-0.168943	-0.336033
C20	C	-3.851294	-0.168350	-0.413708
C21	C	-4.050151	-0.174451	-0.453755
C22	C	-4.082419	-0.173894	-0.526740
C23	C	-3.915831	-0.167262	-0.559676
C24	C	-3.716943	-0.161153	-0.519619
C25	C	-3.684674	-0.161697	-0.446635
C26	C	-3.863312	-0.236365	-0.678988
C27	C	-3.895591	-0.235829	-0.751972
C28	C	-4.015348	-0.165577	-0.784783
C29	C	-4.102862	-0.095880	-0.744604
C30	C	-4.070594	-0.096424	-0.671620
C31	C	-3.950800	-0.166670	-0.638815
C32	C	-4.249205	-0.171073	-0.903969
C33	C	-4.281462	-0.170508	-0.976954
C34	C	-3.915986	-0.157779	-0.969832
C35	C	-3.883729	-0.158332	-0.896848
C36	C	-4.050348	-0.164985	-0.863921
C37	C	-4.125405	0.059859	-0.210664
C38	C	-4.041964	0.201137	-0.211253
C39	C	-4.169973	-0.163287	-0.087561
C40	C	-4.114869	-0.163873	-0.009885
H41	H	-4.368060	-0.798311	-0.217630
H42	H	-4.261242	-0.557496	-0.218613
F43	F	-3.666590	-0.789715	-0.204047
F44	F	-3.545023	-0.515687	-0.205179
H45	H	-4.200384	-0.038678	-0.771317
F46	F	-3.473017	-0.155207	-0.404012
H47	H	-4.185827	-0.179863	-0.426951
H48	H	-4.244361	-0.178869	-0.559353
H49	H	-4.141849	-0.039671	-0.638908
F50	F	-3.539647	-0.154091	-0.554673
F51	F	-4.426528	-0.178145	-0.868922
H52	H	-4.443394	-0.175467	-1.009559
F53	F	-3.738677	-0.150701	-1.004879
H54	H	-3.721806	-0.153377	-0.864242
H55	H	-3.824343	-0.292589	-0.784681
H56	H	-3.765770	-0.293564	-0.652279
