data_functionalizedCrystal
_audit_creation_method	'MofGen! by Chris Wilmer'
_symmetry_space_group_name_H-M	'P1'
_symmetry_Int_Tables_number	1
_symmetry_cell_setting	triclinic
loop_
_symmetry_equiv_pos_as_xyz
  x,y,z
_cell_length_a	12.645331
_cell_length_b	12.759400
_cell_length_c	12.759393
_cell_angle_alpha	89.968436
_cell_angle_beta	89.978122
_cell_angle_gamma	90.013663
loop_
_atom_site_label
_atom_site_type_symbol
_atom_site_fract_x
_atom_site_fract_y
_atom_site_fract_z
Zn1	Zn	1.620745	-0.418233	-0.594076
Zn2	Zn	1.620639	-0.593952	-0.418396
Zn3	Zn	1.443462	-0.418284	-0.418405
Zn4	Zn	1.443451	-0.593867	-0.594027
O5	O	1.532074	-0.506084	-0.506226
O6	O	1.769078	-0.441556	-0.570789
O7	O	1.597096	-0.570706	-0.271376
O8	O	1.467028	-0.271256	-0.441732
O9	O	1.769000	-0.570656	-0.441717
O10	O	1.597277	-0.271219	-0.570797
O11	O	1.466925	-0.441644	-0.271383
O12	O	1.295113	-0.441562	-0.441685
O13	O	1.467009	-0.570512	-0.741055
O14	O	1.295105	-0.570562	-0.570714
O15	O	1.597266	-0.441474	-0.741091
O16	O	1.597085	-0.740962	-0.441670
O17	O	1.466906	-0.740900	-0.570705
C18	C	1.532011	-0.779051	-0.506204
C19	C	1.532081	-0.895828	-0.506230
C20	C	1.256644	-0.506059	-0.506196
C21	C	1.138814	-0.506074	-0.506208
C22	C	1.599941	-0.950687	-0.439116
C23	C	1.600006	-1.060412	-0.439148
C24	C	1.464343	-1.060407	-0.573412
C25	C	1.464284	-0.950685	-0.573384
C26	C	1.667738	-0.895831	-0.371961
C27	C	1.735602	-0.950690	-0.304841
C28	C	1.735667	-1.060414	-0.304873
C29	C	1.667868	-1.115279	-0.372026
C30	C	0.971220	-0.424546	-0.425484
C31	C	1.093780	-0.424757	-0.425128
C32	C	1.094300	-0.616752	-0.475963
C33	C	0.971702	-0.616307	-0.475412
C34	C	0.971662	-0.477976	-0.617489
C35	C	1.094268	-0.475504	-0.616871
C36	C	1.808579	-0.506110	-0.506257
C37	C	1.926409	-0.506121	-0.506271
C38	C	1.532148	-0.505978	-0.780260
C39	C	1.532180	-0.505933	-0.897036
C40	C	1.532166	-0.232051	-0.506271
C41	C	1.532205	-0.115274	-0.506290
C42	C	1.600014	-0.438737	-0.951919
C43	C	1.600040	-0.438699	-1.061643
C44	C	1.464393	-0.573062	-1.061593
C45	C	1.464363	-0.573094	-0.951871
C46	C	1.667831	-0.371575	-0.897085
C47	C	1.735672	-0.304374	-0.951967
C48	C	1.735697	-0.304336	-1.061691
C49	C	1.667881	-0.371499	-1.116533
C50	C	1.532061	-0.506114	-0.233259
C51	C	1.532235	-0.505863	-0.116483
H52	H	1.790808	-0.906014	-0.250173
H53	H	1.667935	-1.204623	-0.372055
H54	H	1.667820	-0.371601	-0.807742
C55	C	1.810320	-1.120762	-0.231050
C56	C	1.884893	-1.060417	-0.157189
C57	C	1.959545	-1.120762	-0.083360
C58	C	1.959624	-1.241452	-0.083392
C59	C	1.885048	-1.301803	-0.157255
C60	C	1.810395	-1.241458	-0.231084
H61	H	1.884838	-0.971069	-0.157163
H62	H	2.014752	-1.076085	-0.028682
H63	H	2.014886	-1.286123	-0.028739
H64	H	1.885103	-1.391151	-0.157281
H65	H	1.755189	-1.286135	-0.285762
C66	C	1.810263	-0.230496	-0.891647
C67	C	1.810243	-0.230534	-0.770957
C68	C	1.884836	-0.156653	-0.710640
C69	C	1.959449	-0.082734	-0.771012
C70	C	1.959472	-0.082692	-0.891709
C71	C	1.884879	-0.156573	-0.952027
H72	H	1.755008	-0.285257	-0.726260
H73	H	1.884819	-0.156685	-0.621292
H74	H	2.014668	-0.028043	-0.726362
H75	H	2.014708	-0.027970	-0.936407
H76	H	1.884897	-0.156542	-1.041375
H77	H	0.940761	-0.398678	-0.644994
C78	C	1.389760	-1.120754	-0.647269
C79	C	1.398337	-1.105571	-0.766710
C80	C	1.323749	-1.165915	-0.840566
C81	C	1.240585	-1.241443	-0.794980
C82	C	1.232004	-1.256630	-0.675533
C83	C	1.306592	-1.196285	-0.601678
H84	H	1.459904	-1.049658	-0.800461
H85	H	1.330102	-1.154673	-0.928989
H86	H	1.185370	-1.286114	-0.849653
H87	H	1.170438	-1.312543	-0.641783
H88	H	1.300240	-1.207527	-0.513255
C89	C	1.389634	-0.890328	-0.647202
C90	C	1.269132	-0.905504	-0.638519
C91	C	1.194483	-0.845144	-0.712339
C92	C	1.240336	-0.769608	-0.794842
C93	C	1.360843	-0.754429	-0.803528
C94	C	1.435492	-0.814788	-0.729708
H95	H	1.235184	-0.961423	-0.577442
H96	H	1.105275	-0.856381	-0.705908
H97	H	1.185076	-0.724926	-0.849488
H98	H	1.394792	-0.698510	-0.864605
H99	H	1.524700	-0.803551	-0.736139
C100	C	0.931413	-0.313333	-0.450810
C101	C	0.857727	-0.295222	-0.545155
C102	C	0.817914	-0.184006	-0.570485
C103	C	0.851786	-0.090900	-0.501470
C104	C	0.925476	-0.109009	-0.407118
C105	C	0.965290	-0.220225	-0.381788
H106	H	0.832649	-0.364147	-0.596251
H107	H	0.763364	-0.170601	-0.640331
H108	H	0.822314	-0.008571	-0.520220
H109	H	0.950555	-0.040084	-0.356023
H110	H	1.019840	-0.233630	-0.311942
H111	H	1.123367	-0.394057	-0.639677
H112	H	1.667895	-0.371451	-1.205878
H113	H	1.123876	-0.342685	-0.444085
H114	H	0.940374	-0.442943	-0.343551
H115	H	1.790928	-0.249610	-1.106374
H116	H	1.123060	-0.443360	-0.342711
C117	C	0.932525	-0.558236	-0.698815
C118	C	0.959666	-0.675164	-0.685766
C119	C	0.920527	-0.755428	-0.767082
C120	C	0.854247	-0.718764	-0.861447
C121	C	0.827101	-0.601830	-0.874500
C122	C	0.866240	-0.521566	-0.793184
H123	H	1.008734	-0.702310	-0.615907
H124	H	0.940622	-0.841990	-0.757419
H125	H	0.825273	-0.778180	-0.921643
H126	H	0.778033	-0.574684	-0.944359
H127	H	0.846145	-0.435004	-0.802847
C128	C	0.932998	-0.648539	-0.365573
C129	C	0.864105	-0.572918	-0.300910
C130	C	0.825408	-0.605148	-0.191067
C131	C	0.855604	-0.713000	-0.145886
C132	C	0.924501	-0.788628	-0.210549
C133	C	0.963198	-0.756398	-0.320392
H134	H	0.841748	-0.493074	-0.334355
H135	H	0.774406	-0.549163	-0.143200
H136	H	0.826959	-0.736859	-0.064574
H137	H	0.946858	-0.868472	-0.177104
H138	H	1.014201	-0.812383	-0.368260
C139	C	0.931643	-0.701204	-0.551418
C140	C	0.961459	-0.816839	-0.533480
C141	C	0.921403	-0.901740	-0.609476
C142	C	0.851530	-0.871007	-0.703409
C143	C	0.821710	-0.755367	-0.721351
C144	C	0.861766	-0.670466	-0.645355
H145	H	1.013187	-0.839594	-0.463942
H146	H	0.943479	-0.987345	-0.596194
H147	H	0.821879	-0.933856	-0.759666
H148	H	0.769983	-0.732612	-0.790890
H149	H	0.839691	-0.584861	-0.658638
C150	C	1.135703	-0.649552	-0.367299
C151	C	1.110765	-0.581848	-0.270525
C152	C	1.152166	-0.614641	-0.161859
C153	C	1.218504	-0.715138	-0.149966
C154	C	1.243446	-0.782849	-0.246743
C155	C	1.202045	-0.750056	-0.355410
H156	H	1.061655	-0.507448	-0.279326
H157	H	1.133702	-0.564516	-0.090218
H158	H	1.249152	-0.739413	-0.069525
H159	H	1.292557	-0.857249	-0.237942
H160	H	1.220509	-0.800180	-0.427050
H161	H	1.123472	-0.679156	-0.532957
H162	H	1.667690	-0.806488	-0.371924
H163	H	1.124927	-0.530584	-0.680282
H164	H	1.409180	-0.627743	-1.106253
H165	H	1.409110	-0.627795	-0.907184
