data_functionalizedCrystal
_audit_creation_method	'MofGen! by Chris Wilmer'
_symmetry_space_group_name_H-M	'P1'
_symmetry_Int_Tables_number	1
_symmetry_cell_setting	triclinic
loop_
_symmetry_equiv_pos_as_xyz
  x,y,z
_cell_length_a	21.295420
_cell_length_b	21.295417
_cell_length_c	12.759393
_cell_angle_alpha	89.963587
_cell_angle_beta	89.977683
_cell_angle_gamma	90.025484
loop_
_atom_site_label
_atom_site_type_symbol
_atom_site_fract_x
_atom_site_fract_y
_atom_site_fract_z
Zn1	Zn	0.962345	-0.250654	-0.594024
Zn2	Zn	0.962253	-0.355934	-0.418324
Zn3	Zn	0.857072	-0.250675	-0.418354
Zn4	Zn	0.857039	-0.355881	-0.593956
O5	O	0.909677	-0.303286	-0.506165
O6	O	1.050422	-0.264632	-0.570734
O7	O	0.948276	-0.342003	-0.271307
O8	O	0.871089	-0.162583	-0.441698
O9	O	1.050354	-0.341982	-0.441648
O10	O	0.948433	-0.162567	-0.570762
O11	O	0.871000	-0.264670	-0.271329
O12	O	0.768978	-0.264618	-0.441631
O13	O	0.871032	-0.341891	-0.740986
O14	O	0.768954	-0.341912	-0.570645
O15	O	0.948400	-0.264581	-0.741036
O16	O	0.948244	-0.444017	-0.441581
O17	O	0.870943	-0.443978	-0.570617
C18	C	0.746126	-0.303262	-0.506135
C19	C	0.676157	-0.303267	-0.506147
C20	C	0.176734	-0.263105	-0.573505
C21	C	0.242476	-0.263100	-0.573504
C22	C	0.275318	-0.303305	-0.506189
C23	C	0.242412	-0.343529	-0.438888
C24	C	0.176670	-0.343537	-0.438897
N25	N	0.378510	-0.308056	-0.414194
N26	N	0.440962	-0.308045	-0.414188
C27	C	0.473393	-0.303285	-0.506158
N28	N	0.441013	-0.298524	-0.598136
N29	N	0.378556	-0.298532	-0.598141
C30	C	0.346603	-0.303301	-0.506172
C31	C	0.577577	-0.263061	-0.573460
C32	C	0.643320	-0.263061	-0.573462
C33	C	0.643254	-0.343486	-0.438836
C34	C	0.577512	-0.343490	-0.438843
C35	C	0.544677	-0.303274	-0.506154
C36	C	0.909597	-0.466838	-0.506111
C37	C	0.909620	-0.536806	-0.506124
C38	C	0.949870	-0.569607	-0.573376
C39	C	0.949892	-0.635349	-0.573401
C40	C	0.909671	-0.668288	-0.506157
C41	C	0.869414	-0.635479	-0.438900
C42	C	0.869388	-0.569738	-0.438884
N43	N	0.904914	-0.771555	-0.414210
N44	N	0.904942	-0.834007	-0.414229
C45	C	0.909745	-0.866363	-0.506204
N46	N	0.914531	-0.833908	-0.598162
N47	N	0.914506	-0.771451	-0.598143
C48	C	0.909694	-0.739574	-0.506168
C49	C	0.950021	-0.970450	-0.573490
C50	C	0.950038	-1.036193	-0.573518
C51	C	0.869563	-1.036322	-0.439007
C52	C	0.869542	-0.970579	-0.438989
C53	C	0.909774	-0.937647	-0.506229
C54	C	1.073867	-0.303311	-0.506195
C55	C	1.143835	-0.303321	-0.506208
C56	C	0.909723	-0.303227	-0.780198
C57	C	0.909742	-0.303202	-0.896975
C58	C	0.909775	-0.139096	-0.506241
C59	C	0.909816	-0.069128	-0.506273
C60	C	0.949996	-0.343423	-1.061561
C61	C	0.949981	-0.343453	-0.951837
C62	C	0.869512	-0.262924	-0.951842
C63	C	0.869524	-0.262898	-1.061565
C64	C	0.972410	-0.417732	-0.801864
C65	C	1.012646	-0.458003	-0.747001
C66	C	1.074067	-0.467669	-0.782628
C67	C	1.095264	-0.437055	-0.873117
C68	C	1.055032	-0.396780	-0.927975
C69	C	0.993602	-0.387125	-0.892350
C70	C	0.847102	-0.188618	-1.211539
C71	C	0.806872	-0.148339	-1.266399
C72	C	0.745450	-0.138666	-1.230774
C73	C	0.724255	-0.169269	-1.140281
C74	C	0.764485	-0.209548	-1.085421
C75	C	0.825906	-0.219222	-1.121054
C76	C	0.909668	-0.303299	-0.233197
C77	C	0.909770	-0.303147	-0.116421
H78	H	0.550841	-0.230315	-0.628269
H79	H	0.550725	-0.376235	-0.384039
O80	O	0.830270	-0.537969	-0.373449
C81	C	0.794759	-0.581135	-0.314123
H82	H	0.820559	-0.627980	-0.310537
H83	H	0.788063	-0.562186	-0.231330
H84	H	0.746941	-0.588146	-0.352528
O85	O	1.154961	-0.446337	-0.907661
C86	C	1.187280	-0.388544	-0.909215
H87	H	1.163950	-0.354539	-0.852286
H88	H	1.238190	-0.396326	-0.884879
H89	H	1.185836	-0.368036	-0.991733
O90	O	0.144640	-0.382515	-0.373468
C91	C	0.106619	-0.346632	-0.305703
H92	H	0.096799	-0.298953	-0.342898
H93	H	0.060376	-0.372266	-0.291555
H94	H	0.131936	-0.339663	-0.227861
H95	H	0.836746	-0.230154	-0.907165
H96	H	0.747222	-0.234468	-1.011738
H97	H	0.669993	-0.376227	-0.384034
O98	O	0.988967	-0.537715	-0.638793
C99	C	1.024510	-0.580769	-0.698138
H100	H	0.998742	-0.627651	-0.701749
H101	H	1.031195	-0.561731	-0.780921
H102	H	1.072332	-0.587740	-0.659733
H103	H	0.836770	-0.943871	-0.384221
H104	H	0.982778	-0.943635	-0.628244
H105	H	0.674243	-0.161385	-1.111264
O106	O	1.075621	-0.366946	-1.015775
C107	C	1.071825	-0.301443	-1.001068
H108	H	1.072405	-0.290456	-0.913642
H109	H	1.113615	-0.277767	-1.040604
H110	H	1.026385	-0.283139	-1.037064
H111	H	0.982814	-1.062899	-0.628287
H112	H	0.897119	-0.196486	-1.240548
O113	O	0.830457	-1.068378	-0.373834
C114	C	0.789784	-1.106394	-0.433605
H115	H	0.811967	-1.116189	-0.513258
H116	H	0.781373	-1.152650	-0.390811
H117	H	0.743124	-1.081087	-0.445076
H118	H	0.712698	-0.105860	-1.275445
H119	H	0.836664	-0.662302	-0.384152
O120	O	0.675183	-0.223933	-0.638871
C121	C	0.632101	-0.188453	-0.698296
H122	H	0.585228	-0.186250	-0.655273
H123	H	0.651117	-0.138861	-0.709640
H124	H	0.625122	-0.211555	-0.778025
O125	O	0.988901	-0.667254	-0.638840
C126	C	0.953054	-0.705293	-0.706630
H127	H	0.903469	-0.685514	-0.713050
H128	H	0.975800	-0.705993	-0.787515
H129	H	0.950908	-0.755131	-0.674142
O130	O	0.989154	-0.382432	-1.114895
C131	C	1.029832	-0.346587	-1.178409
H132	H	1.033747	-0.297016	-1.145365
H133	H	1.078263	-0.369362	-1.179656
H134	H	1.010382	-0.344396	-1.261561
O135	O	1.113183	-0.506840	-0.729505
C136	C	1.132248	-0.556139	-0.795992
H137	H	1.127510	-0.540676	-0.881175
H138	H	1.183299	-0.568586	-0.778990
H139	H	1.101352	-0.599018	-0.781577
O140	O	0.991946	-0.487716	-0.659152
C141	C	0.929106	-0.470546	-0.639461
H142	H	0.906314	-0.453967	-0.715416
H143	H	0.902302	-0.512820	-0.607675
H144	H	0.927887	-0.430970	-0.579368
H145	H	0.922394	-0.409872	-0.772855
H146	H	0.269155	-0.376266	-0.384082
H147	H	0.150004	-0.230361	-0.628319
H148	H	0.269268	-0.230349	-0.628304
H149	H	0.824136	-0.123416	-1.340078
