data_functionalizedCrystal
_audit_creation_method	'MofGen! by Chris Wilmer'
_symmetry_space_group_name_H-M	'P1'
_symmetry_Int_Tables_number	1
_symmetry_cell_setting	triclinic
loop_
_symmetry_equiv_pos_as_xyz
  x,y,z
_cell_length_a	14.519731
_cell_length_b	14.519709
_cell_length_c	13.596369
_cell_angle_alpha	90.006934
_cell_angle_beta	89.994790
_cell_angle_gamma	96.315501
loop_
_atom_site_label
_atom_site_type_symbol
_atom_site_fract_x
_atom_site_fract_y
_atom_site_fract_z
O1	O	1.223856	-0.120986	-0.081791
O2	O	1.723856	0.379014	0.418209
O3	O	0.955382	-0.135202	-0.081794
O4	O	1.455382	0.364798	0.418206
O5	O	1.096737	0.006144	-0.081783
O6	O	1.596737	0.506144	0.418217
O7	O	1.082501	-0.262332	-0.081801
O8	O	1.582501	0.237668	0.418199
O9	O	1.096723	0.006151	0.081799
O10	O	1.596723	0.506151	0.581799
O11	O	0.955368	-0.135195	0.081789
O12	O	1.455368	0.364805	0.581789
O13	O	1.223842	-0.120979	0.081792
O14	O	1.723842	0.379021	0.581792
Zn15	Zn	1.089603	-0.128086	0.107763
Zn16	Zn	1.589603	0.371914	0.607763
Zn17	Zn	1.089621	-0.128096	-0.107765
Zn18	Zn	1.589621	0.371904	0.392235
O19	O	1.082487	-0.262325	0.081782
O20	O	1.582487	0.237675	0.581782
C21	C	1.096067	0.040507	0.000008
C22	C	1.596067	0.540507	0.500008
C23	C	1.094079	0.142889	0.000009
C24	C	1.594079	0.642889	0.500009
C25	C	0.921016	-0.134532	-0.000003
C26	C	1.421016	0.365468	0.499997
C27	C	0.818635	-0.132536	-0.000003
C28	C	1.318635	0.367464	0.499997
C29	C	1.258209	-0.121649	-0.000001
C30	C	1.758209	0.378351	0.499999
C31	C	1.360589	-0.123645	-0.000007
C32	C	1.860589	0.376355	0.499993
C33	C	1.443733	-0.125267	-0.000009
C34	C	1.943733	0.374733	0.499991
C35	C	1.548042	-0.127293	-0.000007
C36	C	2.048042	0.372707	0.499993
C37	C	1.631181	-0.128902	-0.000005
C38	C	2.131181	0.371098	0.499995
C39	C	1.735496	-0.130928	-0.000005
C40	C	2.235496	0.369072	0.499995
C41	C	1.083157	-0.296688	-0.000012
C42	C	1.583157	0.203312	0.499988
C43	C	1.085146	-0.399070	-0.000019
C44	C	1.585146	0.100930	0.499981
N45	N	1.089597	-0.128078	0.254855
N46	N	1.589597	0.371922	0.754855
C47	C	1.086759	0.517785	-0.000017
C48	C	1.586759	1.017785	0.499983
C49	C	1.088792	0.413477	-0.000009
C50	C	1.588792	0.913477	0.499991
C51	C	1.090419	0.330340	-0.000003
C52	C	1.590419	0.830340	0.499997
C53	C	1.092452	0.226025	0.000002
C54	C	1.592452	0.726025	0.500002
N55	N	1.089635	-0.128096	-0.254857
N56	N	1.589635	0.371904	0.245143
C57	C	1.089620	-0.128096	0.656146
C58	C	1.589620	0.371904	1.156146
C59	C	1.089611	-0.128095	0.544494
C60	C	1.589611	0.371905	1.044494
C61	C	1.089609	-0.128088	0.455504
C62	C	1.589609	0.371912	0.955504
C63	C	1.089599	-0.128085	0.343845
C64	C	1.589599	0.371915	0.843845
