data_functionalizedCrystal
_audit_creation_method	'MofGen! by Chris Wilmer'
_symmetry_space_group_name_H-M	'P1'
_symmetry_Int_Tables_number	1
_symmetry_cell_setting	triclinic
loop_
_symmetry_equiv_pos_as_xyz
  x,y,z
_cell_length_a	25.639242
_cell_length_b	15.298671
_cell_length_c	15.296720
_cell_angle_alpha	88.402671
_cell_angle_beta	99.661653
_cell_angle_gamma	99.672940
loop_
_atom_site_label
_atom_site_type_symbol
_atom_site_fract_x
_atom_site_fract_y
_atom_site_fract_z
Zn1	Zn	0.799281	0.434586	-0.434972
Zn2	Zn	1.299281	0.934586	0.065028
Zn3	Zn	0.828621	0.555735	-0.263182
Zn4	Zn	1.328621	1.055735	0.236818
Zn5	Zn	0.724005	0.409260	-0.288512
Zn6	Zn	1.224005	0.909260	0.211488
Zn7	Zn	0.729067	0.580993	-0.409615
Zn8	Zn	1.229067	1.080993	0.090385
O9	O	0.770243	0.495143	-0.349070
O10	O	1.270243	0.995143	0.150930
O11	O	0.876340	0.450685	-0.412195
O12	O	1.376340	0.950685	0.087805
O13	O	0.824904	0.515134	-0.143965
O14	O	1.324904	1.015134	0.356035
O15	O	0.719593	0.290047	-0.329154
O16	O	1.219593	0.790047	0.170846
O17	O	0.897896	0.539693	-0.285981
O18	O	1.397896	1.039693	0.214019
O19	O	0.774898	0.308654	-0.436757
O20	O	1.274898	0.808654	0.063243
O21	O	0.748043	0.407520	-0.162576
O22	O	1.248043	0.907520	0.337424
O23	O	0.651509	0.432012	-0.304566
O24	O	1.151509	0.932012	0.195434
O25	O	0.728221	0.582742	-0.535555
O26	O	1.228221	1.082742	-0.035555
O27	O	0.655229	0.558184	-0.393539
O28	O	1.155229	1.058184	0.106461
O29	O	0.779807	0.475177	-0.554185
O30	O	1.279807	0.975177	-0.054185
O31	O	0.829812	0.681657	-0.261394
O32	O	1.329812	1.181657	0.238606
O33	O	0.756671	0.700215	-0.368977
O34	O	1.256671	1.200215	0.131023
C35	C	0.634398	0.495091	-0.349050
C36	C	1.134398	0.995091	0.150950
C37	C	0.576283	0.495094	-0.349059
C38	C	1.076283	0.995094	0.150941
C39	C	0.313880	0.448915	-0.414875
C40	C	0.813880	0.948915	0.085125
C41	C	0.368484	0.448905	-0.414871
C42	C	0.868484	0.948905	0.085129
O43	O	0.387187	0.409603	-0.470831
O44	O	0.887187	0.909603	0.029169
N45	N	0.407011	0.495135	-0.349082
N46	N	0.907011	0.995135	0.150918
C47	C	0.390932	0.541385	-0.283297
C48	C	0.890932	1.041385	0.216703
O49	O	0.428716	0.580707	-0.227339
O50	O	0.928716	1.080707	0.272661
C51	C	0.336329	0.541399	-0.283305
C52	C	0.836329	1.041399	0.216695
C53	C	0.297805	0.495159	-0.349094
C54	C	0.797805	0.995159	0.150906
C55	C	0.275357	0.402679	-0.480658
C56	C	0.775357	0.902679	0.019342
C57	C	0.220757	0.402687	-0.480660
C58	C	0.720757	0.902687	0.019340
C59	C	0.204681	0.448931	-0.414879
C60	C	0.704681	0.948931	0.085121
C61	C	0.243205	0.495167	-0.349096
C62	C	0.743205	0.995167	0.150904
C63	C	0.320252	0.587654	-0.217525
C64	C	0.820252	1.087654	0.282475
C65	C	0.265644	0.587664	-0.217539
C66	C	0.765644	1.087664	0.282461
C67	C	0.227119	0.541424	-0.283327
C68	C	0.727119	1.041424	0.216673
C69	C	0.172529	0.541419	-0.283317
C70	C	0.672529	1.041419	0.216683
N71	N	0.134002	0.495189	-0.349106
N72	N	0.634002	0.995189	0.150894
C73	C	0.150078	0.448945	-0.414887
C74	C	0.650078	0.948945	0.085113
C75	C	0.505601	0.541353	-0.283287
C76	C	1.005601	1.041353	0.216713
C77	C	0.560202	0.541334	-0.283274
C78	C	1.060202	1.041334	0.216726
C79	C	0.537751	0.448856	-0.414849
C80	C	1.037751	0.948856	0.085151
C81	C	0.483148	0.448870	-0.414857
C82	C	0.983148	0.948870	0.085143
C83	C	0.467074	0.495123	-0.349076
C84	C	0.967074	0.995123	0.150924
C85	C	0.035415	0.448966	-0.414887
C86	C	0.535415	0.948966	0.085113
C87	C	-0.019189	0.448975	-0.414881
C88	C	0.480811	0.948975	0.085119
C89	C	0.003268	0.541457	-0.283309
C90	C	0.503268	1.041457	0.216691
C91	C	0.057867	0.541444	-0.283312
C92	C	0.557867	1.041444	0.216688
C93	C	0.073938	0.495197	-0.349108
C94	C	0.573938	0.995197	0.150892
O95	O	0.153787	0.580705	-0.227388
O96	O	0.653787	1.080705	0.272612
O97	O	0.112289	0.409640	-0.470843
O98	O	0.612289	0.909640	0.029157
C99	C	0.796987	0.722721	-0.309704
C100	C	1.296987	1.222721	0.190296
C101	C	0.808474	0.820085	-0.292893
C102	C	1.308474	1.320085	0.207107
C103	C	0.851971	0.856139	-0.229030
C104	C	1.351971	1.356139	0.270970
C105	C	0.862768	0.947617	-0.213238
C106	C	1.362768	1.447617	0.286762
C107	C	0.830065	1.003050	-0.261302
C108	C	1.330065	1.503050	0.238698
C109	C	0.786564	0.966996	-0.325162
C110	C	1.286564	1.466996	0.174838
C111	C	0.775769	0.875509	-0.340961
C112	C	1.275769	1.375509	0.159039
C113	C	0.753862	1.022420	-0.373233
C114	C	1.253862	1.522420	0.126767
C115	C	0.710362	0.986366	-0.437093
C116	C	1.210362	1.486366	0.062907
C117	C	0.699568	0.894887	-0.452888
C118	C	1.199568	1.394887	0.047112
C119	C	0.732271	0.839455	-0.404823
C120	C	1.232271	1.339455	0.095177
C121	C	0.764657	1.113907	-0.357435
C122	C	1.264657	1.613907	0.142565
C123	C	0.688455	1.133277	-0.469365
C124	C	1.188455	1.633277	0.030635
C125	C	0.677659	1.041798	-0.485157
C126	C	1.177659	1.541798	0.014843
C127	C	0.906620	0.495197	-0.349091
C128	C	1.406620	0.995197	0.150909
C129	C	0.964735	0.495219	-0.349100
C130	C	1.464735	0.995219	0.150900
C131	C	0.743403	1.266682	-0.388620
C132	C	1.243403	1.766682	0.111380
C133	C	0.731953	1.169331	-0.405503
C134	C	1.231953	1.669331	0.094497
C135	C	0.751306	0.534602	-0.577542
C136	C	1.251306	1.034602	-0.077542
C137	C	0.743235	0.551417	-0.674902
C138	C	1.243235	1.051417	-0.174902
C139	C	0.827924	0.374810	-0.988143
C140	C	1.327924	0.874810	-0.488143
C141	C	0.835510	0.359013	-0.896668
C142	C	1.335510	0.859013	-0.396668
C143	C	0.812442	0.407113	-0.841222
C144	C	1.312442	0.907113	-0.341222
C145	C	0.781787	0.471012	-0.877261
C146	C	1.281787	0.971012	-0.377261
C147	C	0.774204	0.486816	-0.968744
C148	C	1.274204	0.986816	-0.468744
C149	C	0.758721	0.519118	-0.821823
C150	C	1.258721	1.019118	-0.321823
C151	C	0.728066	0.583018	-0.857862
C152	C	1.228066	1.083018	-0.357862
C153	C	0.720484	0.598818	-0.949337
C154	C	1.220484	1.098818	-0.449337
C155	C	0.743552	0.550719	-1.004782
C156	C	1.243552	1.050719	-0.504782
C157	C	0.766304	0.503315	-0.730339
C158	C	1.266304	1.003315	-0.230339
C159	C	0.712584	0.615320	-0.710940
C160	C	1.212584	1.115320	-0.210940
C161	C	0.704998	0.631117	-0.802416
C162	C	1.204998	1.131117	-0.302416
C163	C	0.789130	0.455775	-0.121499
C164	C	1.289130	0.955775	0.378501
C165	C	0.797273	0.438713	-0.024181
C166	C	1.297273	0.938713	0.475819
H167	H	0.189393	0.365038	-0.534235
H168	H	0.689393	0.865038	-0.034235
H169	H	0.693801	0.654488	-0.665796
H170	H	1.193801	1.154488	-0.165796
Cl171	Cl	0.647342	1.202958	-0.529796
Cl172	Cl	1.147342	1.702958	-0.029796
H173	H	0.089235	0.579088	-0.229735
H174	H	0.589235	1.079088	0.270265
H175	H	0.252561	0.625333	-0.163972
H176	H	0.752561	1.125333	0.336028
H177	H	-0.009832	0.579104	-0.229749
H178	H	0.490168	1.079104	0.270251
H179	H	0.664151	0.865533	-0.504893
H180	H	1.164151	1.365533	-0.004893
H181	H	0.737378	0.563577	-1.079270
H182	H	1.237378	1.063577	-0.579270
Cl183	Cl	0.819342	1.159221	-0.277156
Cl184	Cl	1.319342	1.659221	0.222844
Cl185	Cl	0.295554	0.344536	-0.563367
Cl186	Cl	0.795554	0.844536	-0.063367
H187	H	0.791264	0.451286	-0.701006
H188	H	1.291264	0.951286	-0.201006
H189	H	0.846706	0.335660	-1.033294
H190	H	1.346706	0.835660	-0.533294
H191	H	0.680039	0.683145	-0.831772
H192	H	1.180039	1.183145	-0.331772
H193	H	0.642240	1.012431	-0.537153
H194	H	1.142240	1.512431	-0.037153
H195	H	0.818620	0.394247	-0.766739
H196	H	1.318620	0.894247	-0.266739
Cl197	Cl	0.434722	0.390739	-0.497567
Cl198	Cl	0.934722	0.890739	0.002433
Cl199	Cl	0.874045	0.278686	-0.851368
Cl200	Cl	1.374045	0.778686	-0.351368
H201	H	0.838858	1.077536	-0.248441
H202	H	1.338858	1.577536	0.251559
Cl203	Cl	0.917453	0.992937	-0.132963
Cl204	Cl	1.417453	1.492937	0.367037
H205	H	0.695528	0.650857	-0.978675
H206	H	1.195528	1.150857	-0.478675
Cl207	Cl	-0.067618	0.390839	-0.497592
Cl208	Cl	0.432382	0.890839	0.002408
H209	H	0.048493	0.411306	-0.468464
H210	H	0.548493	0.911306	0.031536
H211	H	0.878597	0.811001	-0.189906
H212	H	1.378597	1.311001	0.310094
H213	H	0.550849	0.411201	-0.468412
H214	H	1.050849	0.911201	0.031588
H215	H	0.492518	0.579015	-0.229712
H216	H	0.992518	1.079015	0.270288
Cl217	Cl	0.608627	0.599448	-0.200552
Cl218	Cl	1.108627	1.099448	0.299448
H219	H	0.351610	0.625308	-0.163953
H220	H	0.851610	1.125308	0.336047
H221	H	0.723483	0.764964	-0.417678
H222	H	1.223483	1.264964	0.082322
