data_functionalizedCrystal
_audit_creation_method	'MofGen! by Chris Wilmer'
_symmetry_space_group_name_H-M	'P1'
_symmetry_Int_Tables_number	1
_symmetry_cell_setting	triclinic
loop_
_symmetry_equiv_pos_as_xyz
  x,y,z
_cell_length_a	14.971482
_cell_length_b	11.026607
_cell_length_c	14.048226
_cell_angle_alpha	90.000769
_cell_angle_beta	89.992420
_cell_angle_gamma	96.099312
loop_
_atom_site_label
_atom_site_type_symbol
_atom_site_fract_x
_atom_site_fract_y
_atom_site_fract_z
O1	O	1.212292	0.158151	-0.079145
O2	O	0.954927	0.177098	-0.079150
O3	O	1.062279	-0.009059	-0.079144
O4	O	1.104940	0.344308	-0.079151
O5	O	1.062258	-0.009055	0.079177
O6	O	0.954906	0.177102	0.079172
O7	O	1.212271	0.158155	0.079176
Zn8	Zn	1.083585	0.167630	0.104311
Zn9	Zn	1.083613	0.167623	-0.104284
O10	O	1.104918	0.344312	0.079171
C11	C	0.921456	0.176254	0.000010
C12	C	0.821752	0.173717	0.000009
C13	C	0.774905	0.172524	0.086311
C14	C	0.681221	0.170121	0.086312
C15	C	0.634388	0.168919	0.000010
C16	C	0.681242	0.170108	-0.086299
C17	C	0.774923	0.172502	-0.086299
C18	C	0.485981	0.165121	-0.086293
C19	C	0.392293	0.162729	-0.086293
C20	C	0.392279	0.162740	0.086318
C21	C	0.485960	0.165134	0.086318
C22	C	0.532808	0.166325	0.000009
C23	C	1.054399	-0.054279	0.000015
C24	C	1.030938	-0.189027	0.000011
C25	C	1.095717	-0.262740	0.000011
C26	C	1.071471	-0.402009	0.000007
C27	C	1.245742	0.158999	0.000014
C28	C	1.345445	0.161536	0.000009
C29	C	1.112799	0.389532	0.000009
C30	C	1.136260	0.524280	0.000007
N31	N	1.083572	0.167633	0.246671
N32	N	1.083631	0.167610	-0.246645
C33	C	1.131181	0.085214	0.703513
C34	C	1.131174	0.085222	0.603856
C35	C	1.083612	0.167622	0.554041
C36	C	1.036061	0.250028	0.603890
C37	C	1.036074	0.250024	0.703546
C38	C	1.036037	0.250027	0.396176
C39	C	1.036022	0.250030	0.296513
C40	C	1.131137	0.085225	0.296485
C41	C	1.131149	0.085222	0.396141
C42	C	1.083597	0.167626	0.445983
H43	H	1.169128	-0.222743	0.000018
H44	H	0.643081	0.169130	0.156588
H45	H	1.169893	0.018130	0.563275
H46	H	0.643102	0.169121	-0.156567
N47	N	1.182487	-0.003654	0.757238
H48	H	1.139657	-0.057484	0.798596
H49	H	1.212609	-0.055762	0.710477
H50	H	0.998056	-0.442000	-0.000000
N51	N	1.182460	-0.003643	0.449864
H52	H	1.139633	-0.057475	0.491224
H53	H	1.212581	-0.055751	0.403101
N54	N	1.182430	-0.003652	0.242735
H55	H	1.175213	0.008856	0.172045
H56	H	1.248161	0.010515	0.260142
N57	N	0.933694	-0.241990	0.000000
H58	H	0.930157	-0.333972	-0.000003
H59	H	0.902932	-0.213655	0.058692
H60	H	1.209676	-0.435731	-0.000064
N61	N	0.984729	0.338905	0.242781
H62	H	0.954613	0.391115	0.289476
H63	H	1.027621	0.392634	0.201422
H64	H	0.997318	0.317134	0.436754
H65	H	0.997339	0.317126	0.563326
N66	N	0.984787	0.338889	0.757313
H67	H	1.008953	0.425062	0.739966
H68	H	0.919044	0.324658	0.739970
N69	N	0.825416	0.173833	0.179395
H70	H	0.781518	0.172712	0.234066
H71	H	0.859435	0.099641	0.183158
N72	N	0.536515	0.166413	-0.179379
H73	H	0.570533	0.092221	-0.183227
H74	H	0.492581	0.165338	-0.233999
H75	H	0.354131	0.161770	0.156594
N76	N	0.536478	0.166449	0.179398
H77	H	0.492587	0.165331	0.234075
H78	H	0.570498	0.092257	0.183160
H79	H	0.813065	0.173476	-0.156575
N80	N	0.341777	0.161439	-0.179373
H81	H	0.385667	0.162549	-0.234049
H82	H	0.298053	0.085261	-0.183124
