data_functionalizedCrystal
_audit_creation_method	'MofGen! by Chris Wilmer'
_symmetry_space_group_name_H-M	'P1'
_symmetry_Int_Tables_number	1
_symmetry_cell_setting	triclinic
loop_
_symmetry_equiv_pos_as_xyz
  x,y,z
_cell_length_a	10.685661
_cell_length_b	10.685194
_cell_length_c	19.805399
_cell_angle_alpha	85.604649
_cell_angle_beta	85.618063
_cell_angle_gamma	89.666413
loop_
_atom_site_label
_atom_site_type_symbol
_atom_site_fract_x
_atom_site_fract_y
_atom_site_fract_z
Zn1	Zn	1.879688	-0.646732	-0.433242
Zn2	Zn	1.863516	-0.856528	-0.310767
Zn3	Zn	1.669904	-0.630663	-0.312121
Zn4	Zn	1.653830	-0.840364	-0.415977
O5	O	1.766734	-0.743572	-0.368027
O6	O	2.053092	-0.688052	-0.423654
O7	O	1.837792	-0.826606	-0.216226
O8	O	1.711227	-0.457234	-0.335980
O9	O	2.041211	-0.842188	-0.333672
O10	O	1.865354	-0.469040	-0.424967
O11	O	1.695546	-0.660664	-0.217222
O12	O	1.492222	-0.644991	-0.319239
O13	O	1.683832	-0.814639	-0.512987
O14	O	1.480412	-0.799057	-0.395541
O15	O	1.849768	-0.672379	-0.525671
O16	O	1.822206	-1.029945	-0.316931
O17	O	1.668151	-1.018070	-0.394228
C18	C	1.440799	-0.718527	-0.355664
C19	C	1.301360	-0.707843	-0.350390
C20	C	1.741713	-1.069531	-0.353575
C21	C	1.731124	-1.208986	-0.347419
C22	C	2.093943	-0.768715	-0.380437
C23	C	2.233379	-0.779430	-0.385726
C24	C	1.766811	-0.743498	-0.544575
C25	C	1.766843	-0.743467	-0.619810
C26	C	1.791887	-0.416343	-0.382551
C27	C	1.802606	-0.276897	-0.388740
C28	C	1.853249	-0.669388	-0.661760
C29	C	1.853264	-0.669353	-0.732451
C30	C	1.766880	-0.743404	-0.761190
C31	C	1.680465	-0.817486	-0.719234
C32	C	1.680445	-0.817513	-0.648545
C33	C	1.680545	-0.817374	-1.004315
C34	C	1.680574	-0.817344	-1.075010
C35	C	1.853365	-0.669213	-1.088221
C36	C	1.853344	-0.669241	-1.017532
C37	C	1.766926	-0.743317	-0.975583
C38	C	1.766908	-0.743353	-0.898932
C39	C	1.766902	-0.743376	-0.837839
C40	C	1.766737	-0.743560	-0.192171
C41	C	1.766975	-0.743257	-0.116962
H42	H	1.871908	-1.228353	-0.428829
O43	O	1.937280	-0.597640	-0.633812
C44	C	2.107871	-0.593785	-0.561148
C45	C	2.012797	-0.675198	-0.592764
H46	H	2.168933	-0.656454	-0.527942
H47	H	2.169717	-0.540856	-0.603248
H48	H	2.055276	-0.523749	-0.528810
H49	H	2.065288	-0.745302	-0.625096
H50	H	1.950953	-0.728038	-0.550632
O51	O	1.648331	-1.266694	-0.299574
C52	C	1.490328	-1.241159	-0.208154
C53	C	1.584015	-1.175644	-0.262317
H54	H	1.438323	-1.167576	-0.178008
H55	H	1.420005	-1.297450	-0.233998
H56	H	1.543373	-1.306971	-0.172326
H57	H	1.531077	-1.109771	-0.298161
H58	H	1.654337	-1.119432	-0.236428
O59	O	1.937325	-0.597367	-0.773103
C60	C	2.108675	-0.450395	-0.778748
C61	C	2.013561	-0.531886	-0.732631
H62	H	2.170320	-0.397413	-0.746045
H63	H	2.169936	-0.512971	-0.811764
H64	H	2.056114	-0.380402	-0.812583
H65	H	2.066020	-0.601889	-0.698755
H66	H	1.952303	-0.469232	-0.699661
H67	H	1.923691	-0.608946	-0.994137
O68	O	1.291006	-0.862335	-0.426687
C69	C	1.265303	-1.020743	-0.504816
C70	C	1.199883	-0.926888	-0.458467
H71	H	1.191658	-1.072978	-0.530512
H72	H	1.331052	-0.967937	-0.545144
H73	H	1.321642	-1.090861	-0.473063
H74	H	1.143477	-0.856746	-0.490164
H75	H	1.134208	-0.979778	-0.418137
O76	O	1.937183	-0.597272	-1.129071
C77	C	2.013849	-0.531619	-1.243826
C78	C	1.918840	-0.613122	-1.197647
H79	H	1.999069	-0.544426	-1.299279
H80	H	1.999594	-0.428744	-1.233630
H81	H	2.113292	-0.561419	-1.232750
H82	H	1.819358	-0.583434	-1.208696
H83	H	1.933205	-0.715980	-1.207852
H84	H	1.610224	-0.877647	-1.098406
O85	O	1.596491	-0.889138	-0.963538
C86	C	1.425856	-0.893017	-0.876516
C87	C	1.520961	-0.811594	-0.922677
H88	H	1.364782	-0.830358	-0.843458
H89	H	1.364024	-0.945918	-0.909160
H90	H	1.478423	-0.963076	-0.842723
H91	H	1.468496	-0.741465	-0.956478
H92	H	1.582790	-0.758781	-0.889993
H93	H	1.610073	-0.877823	-0.614389
O94	O	1.243744	-0.624865	-0.309477
C95	C	1.269431	-0.466568	-0.231283
C96	C	1.334853	-0.560468	-0.277604
H97	H	1.343061	-0.414496	-0.205490
H98	H	1.213175	-0.396314	-0.263002
H99	H	1.203605	-0.519451	-0.191026
H100	H	1.400740	-0.507691	-0.317868
H101	H	1.391029	-0.630719	-0.245840
O102	O	1.596598	-0.889598	-0.747070
C103	C	1.519356	-1.098322	-0.756945
C104	C	1.614381	-1.016796	-0.725365
H105	H	1.533717	-1.201180	-0.739421
H106	H	1.419861	-1.068625	-0.740167
H107	H	1.534199	-1.085515	-0.814673
H108	H	1.599653	-1.029563	-0.667635
H109	H	1.713841	-1.046513	-0.742197
