data_functionalizedCrystal
_audit_creation_method	'MofGen! by Chris Wilmer'
_symmetry_space_group_name_H-M	'P1'
_symmetry_Int_Tables_number	1
_symmetry_cell_setting	triclinic
loop_
_symmetry_equiv_pos_as_xyz
  x,y,z
_cell_length_a	13.033808
_cell_length_b	13.031981
_cell_length_c	12.827885
_cell_angle_alpha	82.783254
_cell_angle_beta	97.153975
_cell_angle_gamma	105.194505
loop_
_atom_site_label
_atom_site_type_symbol
_atom_site_fract_x
_atom_site_fract_y
_atom_site_fract_z
Zn1	Zn	1.570119	-0.216338	-0.364242
Zn2	Zn	2.070119	0.283662	0.135758
Zn3	Zn	1.547455	-0.394034	-0.169784
Zn4	Zn	2.047455	0.105966	0.330216
Zn5	Zn	1.392495	-0.238984	-0.209160
Zn6	Zn	1.892495	0.261016	0.290840
Zn7	Zn	1.369940	-0.416537	-0.364132
Zn8	Zn	1.869940	0.083463	0.135868
O9	O	1.470002	-0.316473	-0.276830
O10	O	1.970002	0.183527	0.223170
O11	O	1.715740	-0.221015	-0.322014
O12	O	2.215740	0.278985	0.177986
O13	O	1.526853	-0.373526	-0.028769
O14	O	2.026853	0.126474	0.471231
O15	O	1.434982	-0.087307	-0.246258
O16	O	1.934982	0.412693	0.253742
O17	O	1.699088	-0.351567	-0.179146
O18	O	2.199088	0.148433	0.320854
O19	O	1.565482	-0.070669	-0.360196
O20	O	2.065482	0.429331	0.139804
O21	O	1.413005	-0.259611	-0.057699
O22	O	1.913005	0.240389	0.442301
O23	O	1.240876	-0.281432	-0.246151
O24	O	1.740876	0.218568	0.253849
O25	O	1.396540	-0.389920	-0.510385
O26	O	1.896540	0.110080	-0.010385
O27	O	1.224305	-0.411879	-0.360008
O28	O	1.724305	0.088121	0.139992
O29	O	1.543611	-0.242835	-0.510466
O30	O	2.043611	0.257165	-0.010466
O31	O	1.504982	-0.545691	-0.179039
O32	O	2.004982	-0.045691	0.320961
O33	O	1.374563	-0.562224	-0.321826
O34	O	1.874563	-0.062224	0.178174
C35	C	1.194053	-0.351555	-0.307341
C36	C	1.694053	0.148445	0.192659
C37	C	1.075998	-0.366589	-0.320416
C38	C	1.575998	0.133411	0.179584
C39	C	1.434895	-0.592503	-0.246167
C40	C	1.934895	-0.092503	0.253833
C41	C	1.419973	-0.710578	-0.233074
C42	C	1.919973	-0.210578	0.266926
C43	C	0.909533	-0.324183	-0.283537
C44	C	1.409533	0.175817	0.216463
C45	C	1.031549	-0.308645	-0.270019
C46	C	1.531549	0.191355	0.229981
C47	C	1.477847	-0.754909	-0.283678
C48	C	1.977847	-0.254909	0.216322
C49	C	1.462425	-0.876945	-0.270147
C50	C	1.962425	-0.376945	0.229853
C51	C	1.747029	-0.281255	-0.246200
C52	C	2.247029	0.218745	0.253800
C53	C	1.865081	-0.266247	-0.233147
C54	C	2.365081	0.233753	0.266853
C55	C	1.470087	-0.316362	-0.549403
C56	C	1.970087	0.183638	-0.049403
C57	C	1.470124	-0.316315	-0.665558
C58	C	1.970124	0.183685	-0.165558
C59	C	1.505276	-0.039361	-0.307632
C60	C	2.005276	0.460639	0.192368
C61	C	1.520307	0.078727	-0.320757
C62	C	2.020307	0.578727	0.179243
C63	C	1.542908	-0.243519	-0.717383
C64	C	2.042908	0.256481	-0.217383
C65	C	1.542947	-0.243468	-0.837435
C66	C	2.042947	0.256532	-0.337435
C67	C	1.469988	-0.316499	-0.005318
C68	C	1.969988	0.183501	0.494682
C69	C	1.470196	-0.316221	0.110825
C70	C	1.970196	0.183779	0.610825
H71	H	0.857257	-0.385291	-0.336680
H72	H	1.357257	0.114709	0.163320
H73	H	1.407883	-0.378551	-0.844612
H74	H	1.907883	0.121449	-0.344612
H75	H	1.359003	-0.762972	-0.179738
H76	H	1.859003	-0.262972	0.320262
C77	C	1.627051	-0.159367	-0.657260
C78	C	2.127051	0.340633	-0.157260
N79	N	1.690431	-0.095982	-0.611977
N80	N	2.190431	0.404018	-0.111977
H81	H	1.023727	-0.427700	-0.373566
H82	H	1.523727	0.072300	0.126434
H83	H	1.605263	-0.181148	-0.882003
H84	H	2.105263	0.318852	-0.382003
C85	C	1.102163	-0.226087	-0.198217
C86	C	1.602163	0.273913	0.301783
N87	N	1.155351	-0.163902	-0.144139
N88	N	1.655351	0.336098	0.355861
C89	C	0.935698	-0.183692	-0.161348
C90	C	1.435698	0.316308	0.338652
N91	N	0.988886	-0.121508	-0.107270
N92	N	1.488886	0.378492	0.392730
C93	C	1.560211	-0.684133	-0.355741
C94	C	2.060211	-0.184133	0.144259
N95	N	1.622251	-0.630825	-0.410018
N96	N	2.122251	-0.130825	0.089982
C97	C	1.385974	-0.400460	-0.725682
C98	C	1.885974	0.099540	-0.225682
N99	N	1.322590	-0.463840	-0.770967
N100	N	1.822590	0.036160	-0.270967
H101	H	1.581273	-0.868885	-0.374107
H102	H	2.081273	-0.368885	0.125893
C103	C	1.380083	-0.947715	-0.198051
C104	C	1.880083	-0.447715	0.301949
N105	N	1.318075	-1.001018	-0.143739
N106	N	1.818075	-0.501018	0.356261
