data_functionalizedCrystal
_audit_creation_method	'MofGen! by Chris Wilmer'
_symmetry_space_group_name_H-M	'P1'
_symmetry_Int_Tables_number	1
_symmetry_cell_setting	triclinic
loop_
_symmetry_equiv_pos_as_xyz
  x,y,z
_cell_length_a	23.532361
_cell_length_b	23.532407
_cell_length_c	22.010155
_cell_angle_alpha	89.999577
_cell_angle_beta	89.995873
_cell_angle_gamma	82.839173
loop_
_atom_site_label
_atom_site_type_symbol
_atom_site_fract_x
_atom_site_fract_y
_atom_site_fract_z
O1	O	0.755281	0.069001	-0.050470
O2	O	1.005281	0.319001	0.199530
O3	O	1.255281	0.569001	0.449530
O4	O	1.505281	0.819001	0.699530
O5	O	0.589414	0.079032	-0.050486
O6	O	0.839414	0.329032	0.199514
O7	O	1.089414	0.579032	0.449514
O8	O	1.339414	0.829032	0.699514
O9	O	0.677349	-0.008916	-0.050466
O10	O	0.927349	0.241084	0.199534
O11	O	1.177349	0.491084	0.449534
O12	O	1.427349	0.741084	0.699534
O13	O	0.667346	0.156949	-0.050490
O14	O	0.917346	0.406949	0.199510
O15	O	1.167346	0.656949	0.449510
O16	O	1.417346	0.906949	0.699510
O17	O	0.677333	-0.008903	0.050584
O18	O	0.927333	0.241097	0.300584
O19	O	1.177333	0.491097	0.550584
O20	O	1.427333	0.741097	0.800584
O21	O	0.589398	0.079045	0.050565
O22	O	0.839398	0.329045	0.300565
O23	O	1.089398	0.579045	0.550565
O24	O	1.339398	0.829045	0.800565
O25	O	0.755265	0.069014	0.050580
O26	O	1.005265	0.319014	0.300580
O27	O	1.255265	0.569014	0.550580
O28	O	1.505265	0.819014	0.800580
Cu29	Cu	0.672330	0.074030	0.059799
Cu30	Cu	0.922330	0.324030	0.309799
Cu31	Cu	1.172330	0.574030	0.559799
Cu32	Cu	1.422330	0.824030	0.809799
Cu33	Cu	0.672349	0.074015	-0.059705
Cu34	Cu	0.922349	0.324015	0.190295
Cu35	Cu	1.172349	0.574015	0.440295
Cu36	Cu	1.422349	0.824015	0.690295
O37	O	0.667330	0.156962	0.050561
O38	O	0.917330	0.406962	0.300561
O39	O	1.167330	0.656962	0.550561
O40	O	1.417330	0.906962	0.800561
C41	C	0.568189	0.078787	0.000038
C42	C	0.818189	0.328787	0.250038
C43	C	1.068189	0.578787	0.500038
C44	C	1.318189	0.828787	0.750038
C45	C	0.504971	0.078032	0.000032
C46	C	0.754971	0.328032	0.250032
C47	C	1.004971	0.578032	0.500032
C48	C	1.254971	0.828032	0.750032
C49	C	0.677086	-0.030126	0.000060
C50	C	0.927086	0.219874	0.250060
C51	C	1.177086	0.469874	0.500060
C52	C	1.427086	0.719874	0.750060
C53	C	0.676320	-0.093343	0.000065
C54	C	0.926320	0.156657	0.250065
C55	C	1.176320	0.406657	0.500065
C56	C	1.426320	0.656657	0.750065
C57	C	0.231736	0.074721	-0.055046
C58	C	0.481736	0.324721	0.194954
C59	C	0.731736	0.574721	0.444954
C60	C	0.981736	0.824721	0.694954
C61	C	0.291136	0.075436	-0.055048
C62	C	0.541136	0.325436	0.194952
C63	C	0.791136	0.575436	0.444952
C64	C	1.041136	0.825436	0.694952
O65	O	0.321869	0.075780	-0.101892
O66	O	0.571869	0.325780	0.148108
O67	O	0.821869	0.575780	0.398108
O68	O	1.071869	0.825780	0.648108
N69	N	0.320832	0.075804	0.000035
N70	N	0.570832	0.325804	0.250035
N71	N	0.820832	0.575804	0.500035
N72	N	1.070832	0.825804	0.750035
C73	C	0.291127	0.075452	0.055123
C74	C	0.541127	0.325452	0.305123
C75	C	0.791127	0.575452	0.555123
C76	C	1.041127	0.825452	0.805123
O77	O	0.321841	0.075830	0.101975
O78	O	0.571841	0.325830	0.351975
O79	O	0.821841	0.575830	0.601975
O80	O	1.071841	0.825830	0.851975
C81	C	0.231729	0.074733	0.055124
C82	C	0.481729	0.324733	0.305124
C83	C	0.731729	0.574733	0.555124
C84	C	0.981729	0.824733	0.805124
C85	C	0.202035	0.074370	0.000037
C86	C	0.452035	0.324370	0.250037
C87	C	0.702035	0.574370	0.500037
C88	C	0.952035	0.824370	0.750037
C89	C	0.202041	0.074358	-0.110128
C90	C	0.452041	0.324358	0.139872
C91	C	0.702041	0.574358	0.389872
C92	C	0.952041	0.824358	0.639872
C93	C	0.142645	0.073644	-0.110126
C94	C	0.392645	0.323644	0.139874
C95	C	0.642645	0.573644	0.389874
C96	C	0.892645	0.823644	0.639874
C97	C	0.112944	0.073293	-0.055043
C98	C	0.362944	0.323293	0.194957
C99	C	0.612944	0.573293	0.444957
C100	C	0.862944	0.823293	0.694957
C101	C	0.142639	0.073657	0.000039
C102	C	0.392639	0.323657	0.250039
C103	C	0.642639	0.573657	0.500039
C104	C	0.892639	0.823657	0.750039
C105	C	0.202026	0.074376	0.110211
C106	C	0.452026	0.324376	0.360211
C107	C	0.702026	0.574376	0.610211
C108	C	0.952026	0.824376	0.860211
C109	C	0.142624	0.073657	0.110207
C110	C	0.392624	0.323657	0.360207
C111	C	0.642624	0.573657	0.610207
C112	C	0.892624	0.823657	0.860207
C113	C	0.112929	0.073294	0.055121
C114	C	0.362929	0.323294	0.305121
C115	C	0.612929	0.573294	0.555121
C116	C	0.862929	0.823294	0.805121
C117	C	0.053542	0.072592	0.055125
C118	C	0.303542	0.322592	0.305125
C119	C	0.553542	0.572592	0.555125
C120	C	0.803542	0.822592	0.805125
N121	N	0.023845	0.072224	0.000042
N122	N	0.273845	0.322224	0.250042
N123	N	0.523845	0.572224	0.500042
N124	N	0.773845	0.822224	0.750042
C125	C	0.053546	0.072574	-0.055042
C126	C	0.303546	0.322574	0.194958
C127	C	0.553546	0.572574	0.444958
C128	C	0.803546	0.822574	0.694958
C129	C	0.415868	0.076961	0.055117
C130	C	0.665868	0.326961	0.305117
C131	C	0.915868	0.576961	0.555117
C132	C	1.165868	0.826961	0.805117
C133	C	0.475264	0.077684	0.055116
C134	C	0.725264	0.327684	0.305116
C135	C	0.975264	0.577684	0.555116
C136	C	1.225264	0.827684	0.805116
C137	C	0.475268	0.077667	-0.055055
C138	C	0.725268	0.327667	0.194945
C139	C	0.975268	0.577667	0.444945
C140	C	1.225268	0.827667	0.694945
C141	C	0.415870	0.076948	-0.055054
C142	C	0.665870	0.326948	0.194946
C143	C	0.915870	0.576948	0.444946
C144	C	1.165870	0.826948	0.694946
C145	C	0.386171	0.076593	0.000034
C146	C	0.636171	0.326593	0.250034
C147	C	0.886171	0.576593	0.500034
C148	C	1.136171	0.826593	0.750034
C149	C	-0.071190	0.071076	-0.055034
C150	C	0.178810	0.321076	0.194966
C151	C	0.428810	0.571076	0.444966
C152	C	0.678810	0.821076	0.694966
C153	C	-0.130591	0.070364	-0.055027
C154	C	0.119409	0.320364	0.194973
C155	C	0.369409	0.570364	0.444973
C156	C	0.619409	0.820364	0.694973
C157	C	-0.130589	0.070378	0.055144
C158	C	0.119411	0.320378	0.305144
C159	C	0.369411	0.570378	0.555144
C160	C	0.619411	0.820378	0.805144
C161	C	-0.071194	0.071093	0.055137
C162	C	0.178806	0.321093	0.305137
C163	C	0.428806	0.571093	0.555137
C164	C	0.678806	0.821093	0.805137
C165	C	-0.041495	0.071440	0.000044
C166	C	0.208505	0.321440	0.250044
C167	C	0.458505	0.571440	0.500044
C168	C	0.708505	0.821440	0.750044
O169	O	0.022771	0.072245	0.101945
O170	O	0.272771	0.322245	0.351945
O171	O	0.522771	0.572245	0.601945
O172	O	0.772771	0.822245	0.851945
O173	O	0.022826	0.072188	-0.101886
O174	O	0.272826	0.322188	0.148114
O175	O	0.522826	0.572188	0.398114
O176	O	0.772826	0.822188	0.648114
C177	C	0.723555	-0.492454	0.000036
C178	C	0.973555	-0.242454	0.250036
C179	C	1.223555	0.007546	0.500036
C180	C	1.473555	0.257546	0.750036
C181	C	0.722844	-0.551854	0.000031
C182	C	0.972844	-0.301854	0.250031
C183	C	1.222844	-0.051854	0.500031
C184	C	1.472844	0.198146	0.750031
O185	O	0.766630	-0.588606	0.000013
O186	O	1.016630	-0.338606	0.250013
O187	O	1.266630	-0.088606	0.500013
O188	O	1.516630	0.161394	0.750013
N189	N	0.670566	-0.574471	0.000027
N190	N	0.920566	-0.324471	0.250027
N191	N	1.170566	-0.074471	0.500027
N192	N	1.420566	0.175529	0.750027
C193	C	0.618997	-0.537685	0.000021
C194	C	0.868997	-0.287685	0.250021
C195	C	1.118997	-0.037685	0.500021
C196	C	1.368997	0.212315	0.750021
O197	O	0.574465	-0.562377	0.000016
O198	O	0.824465	-0.312377	0.250016
O199	O	1.074465	-0.062377	0.500016
O200	O	1.324465	0.187623	0.750016
C201	C	0.619709	-0.478286	0.000021
C202	C	0.869709	-0.228286	0.250021
C203	C	1.119709	0.021714	0.500021
C204	C	1.369709	0.271714	0.750021
C205	C	0.671990	-0.455672	0.000032
C206	C	0.921990	-0.205672	0.250032
C207	C	1.171990	0.044328	0.500032
C208	C	1.421990	0.294328	0.750032
C209	C	0.775832	-0.469839	0.000046
C210	C	1.025832	-0.219839	0.250046
C211	C	1.275832	0.030161	0.500046
C212	C	1.525832	0.280161	0.750046
C213	C	0.776543	-0.410443	0.000052
C214	C	1.026543	-0.160443	0.250052
C215	C	1.276543	0.089557	0.500052
C216	C	1.526543	0.339557	0.750052
C217	C	0.724977	-0.373662	0.000048
C218	C	0.974977	-0.123662	0.250048
C219	C	1.224977	0.126338	0.500048
C220	C	1.474977	0.376338	0.750048
C221	C	0.672701	-0.396276	0.000038
C222	C	0.922701	-0.146276	0.250038
C223	C	1.172701	0.103724	0.500038
C224	C	1.422701	0.353724	0.750038
C225	C	0.568140	-0.441501	0.000011
C226	C	0.818140	-0.191501	0.250011
C227	C	1.068140	0.058499	0.500011
C228	C	1.318140	0.308499	0.750011
C229	C	0.568857	-0.382099	0.000011
C230	C	0.818857	-0.132099	0.250011
C231	C	1.068857	0.117901	0.500011
C232	C	1.318857	0.367901	0.750011
C233	C	0.621137	-0.359485	0.000021
C234	C	0.871137	-0.109485	0.250021
C235	C	1.121137	0.140515	0.500021
C236	C	1.371137	0.390515	0.750021
C237	C	0.621847	-0.300099	0.000039
C238	C	0.871847	-0.050099	0.250039
C239	C	1.121847	0.199901	0.500039
C240	C	1.371847	0.449901	0.750039
N241	N	0.674124	-0.277481	0.000044
N242	N	0.924124	-0.027481	0.250044
N243	N	1.174124	0.222519	0.500044
N244	N	1.424124	0.472519	0.750044
C245	C	0.725690	-0.314263	0.000048
C246	C	0.975690	-0.064263	0.250048
C247	C	1.225690	0.185737	0.500048
C248	C	1.475690	0.435737	0.750048
C249	C	0.617505	-0.662427	0.000019
C250	C	0.867505	-0.412427	0.250019
C251	C	1.117505	-0.162427	0.500019
C252	C	1.367505	0.087573	0.750019
C253	C	0.616793	-0.721825	0.000023
C254	C	0.866793	-0.471825	0.250023
C255	C	1.116793	-0.221825	0.500023
C256	C	1.366793	0.028175	0.750023
C257	C	0.720640	-0.735990	0.000032
C258	C	0.970640	-0.485990	0.250032
C259	C	1.220640	-0.235990	0.500032
C260	C	1.470640	0.014010	0.750032
C261	C	0.721352	-0.676591	0.000033
C262	C	0.971352	-0.426591	0.250033
C263	C	1.221352	-0.176591	0.500033
C264	C	1.471352	0.073409	0.750033
C265	C	0.669783	-0.639810	0.000024
C266	C	0.919783	-0.389810	0.250024
C267	C	1.169783	-0.139810	0.500024
C268	C	1.419783	0.110190	0.750024
C269	C	0.727179	-0.189526	0.000061
C270	C	0.977179	0.060474	0.250061
C271	C	1.227179	0.310474	0.500061
C272	C	1.477179	0.560474	0.750061
C273	C	0.727886	-0.130124	0.000069
C274	C	0.977886	0.119876	0.250069
C275	C	1.227886	0.369876	0.500069
C276	C	1.477886	0.619876	0.750069
C277	C	0.624039	-0.115965	0.000057
C278	C	0.874039	0.134035	0.250057
C279	C	1.124039	0.384035	0.500057
C280	C	1.374039	0.634035	0.750057
C281	C	0.623332	-0.175361	0.000051
C282	C	0.873332	0.074639	0.250051
C283	C	1.123332	0.324639	0.500051
C284	C	1.373332	0.574639	0.750051
C285	C	0.674907	-0.212141	0.000051
C286	C	0.924907	0.037859	0.250051
C287	C	1.174907	0.287859	0.500051
C288	C	1.424907	0.537859	0.750051
O289	O	0.578083	-0.263312	0.000055
O290	O	0.828083	-0.013312	0.250055
O291	O	1.078083	0.236688	0.500055
O292	O	1.328083	0.486688	0.750055
O293	O	0.770214	-0.289562	0.000045
O294	O	1.020214	-0.039562	0.250045
O295	O	1.270214	0.210438	0.500045
O296	O	1.520214	0.460438	0.750045
C297	C	0.776489	0.069258	0.000055
C298	C	1.026489	0.319258	0.250055
C299	C	1.276489	0.569258	0.500055
C300	C	1.526489	0.819258	0.750055
C301	C	0.839708	0.070014	0.000057
C302	C	1.089708	0.320014	0.250057
C303	C	1.339708	0.570014	0.500057
C304	C	1.589708	0.820014	0.750057
C305	C	0.667592	0.178171	0.000033
C306	C	0.917592	0.428171	0.250033
C307	C	1.167592	0.678171	0.500033
C308	C	1.417592	0.928171	0.750033
C309	C	0.668358	0.241388	0.000024
C310	C	0.918358	0.491388	0.250024
C311	C	1.168358	0.741388	0.500024
C312	C	1.418358	0.991388	0.750024
N313	N	0.672321	0.074041	0.143851
N314	N	0.922321	0.324041	0.393851
N315	N	1.172321	0.574041	0.643851
N316	N	1.422321	0.824041	0.893851
N317	N	0.672362	0.074000	-0.143757
N318	N	0.922362	0.324000	0.106243
N319	N	1.172362	0.574000	0.356243
N320	N	1.422362	0.824000	0.606243
C321	C	0.711289	0.035077	0.563639
C322	C	0.961289	0.285077	0.813639
C323	C	1.211289	0.535077	1.063639
C324	C	1.461289	0.785077	1.313639
C325	C	0.711291	0.035073	0.627247
C326	C	0.961291	0.285073	0.877247
C327	C	1.211291	0.535073	1.127247
C328	C	1.461291	0.785073	1.377247
O329	O	0.744400	0.001952	0.660146
O330	O	0.994400	0.251952	0.910146
O331	O	1.244400	0.501952	1.160146
O332	O	1.494400	0.751952	1.410146
N333	N	0.672349	0.074003	0.659059
N334	N	0.922349	0.324003	0.909059
N335	N	1.172349	0.574003	1.159059
N336	N	1.422349	0.824003	1.409059
C337	C	0.633397	0.112935	0.627259
C338	C	0.883397	0.362935	0.877259
C339	C	1.133397	0.612935	1.127259
C340	C	1.383397	0.862935	1.377259
O341	O	0.600272	0.146048	0.660158
O342	O	0.850272	0.396048	0.910158
O343	O	1.100272	0.646048	1.160158
O344	O	1.350272	0.896048	1.410158
C345	C	0.633392	0.112936	0.563653
C346	C	0.883392	0.362936	0.813653
C347	C	1.133392	0.612936	1.063653
C348	C	1.383392	0.862936	1.313653
C349	C	0.672341	0.074008	0.531845
C350	C	0.922341	0.324008	0.781845
C351	C	1.172341	0.574008	1.031845
C352	C	1.422341	0.824008	1.281845
C353	C	0.750235	-0.003849	0.531831
C354	C	1.000235	0.246151	0.781831
C355	C	1.250235	0.496151	1.031831
C356	C	1.500235	0.746151	1.281831
C357	C	0.750232	-0.003844	0.468228
C358	C	1.000232	0.246156	0.718228
C359	C	1.250232	0.496156	0.968228
C360	C	1.500232	0.746156	1.218228
C361	C	0.711285	0.035087	0.436433
C362	C	0.961285	0.285087	0.686433
C363	C	1.211285	0.535087	0.936433
C364	C	1.461285	0.785087	1.186433
C365	C	0.672339	0.074012	0.468241
C366	C	0.922339	0.324012	0.718241
C367	C	1.172339	0.574012	0.968241
C368	C	1.422339	0.824012	1.218241
C369	C	0.594437	0.151866	0.531855
C370	C	0.844437	0.401866	0.781855
C371	C	1.094437	0.651866	1.031855
C372	C	1.344437	0.901866	1.281855
C373	C	0.594436	0.151863	0.468244
C374	C	0.844436	0.401863	0.718244
C375	C	1.094436	0.651863	0.968244
C376	C	1.344436	0.901863	1.218244
C377	C	0.633385	0.112934	0.436436
C378	C	0.883385	0.362934	0.686436
C379	C	1.133385	0.612934	0.936436
C380	C	1.383385	0.862934	1.186436
C381	C	0.633389	0.112948	0.372843
C382	C	0.883389	0.362948	0.622843
C383	C	1.133389	0.612948	0.872843
C384	C	1.383389	0.862948	1.122843
N385	N	0.672332	0.074018	0.341032
N386	N	0.922332	0.324018	0.591032
N387	N	1.172332	0.574018	0.841032
N388	N	1.422332	0.824018	1.091032
C389	C	0.711280	0.035087	0.372827
C390	C	0.961280	0.285087	0.622827
C391	C	1.211280	0.535087	0.872827
C392	C	1.461280	0.785087	1.122827
C393	C	0.633409	0.112930	0.760837
C394	C	0.883409	0.362930	1.010837
C395	C	1.133409	0.612930	1.260837
C396	C	1.383409	0.862930	1.510837
C397	C	0.633416	0.112933	0.824442
C398	C	0.883416	0.362933	1.074442
C399	C	1.133416	0.612933	1.324442
C400	C	1.383416	0.862933	1.574442
C401	C	0.711311	0.035069	0.824426
C402	C	0.961311	0.285069	1.074426
C403	C	1.211311	0.535069	1.324426
C404	C	1.461311	0.785069	1.574426
C405	C	0.711306	0.035070	0.760819
C406	C	0.961306	0.285070	1.010819
C407	C	1.211306	0.535070	1.260819
C408	C	1.461306	0.785070	1.510819
C409	C	0.672352	0.074000	0.729025
C410	C	0.922352	0.324000	0.979025
C411	C	1.172352	0.574000	1.229025
C412	C	1.422352	0.824000	1.479025
C413	C	0.711273	0.035101	0.239255
C414	C	0.961273	0.285101	0.489255
C415	C	1.211273	0.535101	0.739255
C416	C	1.461273	0.785101	0.989255
C417	C	0.711269	0.035110	0.175646
C418	C	0.961269	0.285110	0.425646
C419	C	1.211269	0.535110	0.675646
C420	C	1.461269	0.785110	0.925646
C421	C	0.633373	0.112971	0.175669
C422	C	0.883373	0.362971	0.425669
C423	C	1.133373	0.612971	0.675669
C424	C	1.383373	0.862971	0.925669
C425	C	0.633378	0.112964	0.239272
C426	C	0.883378	0.362964	0.489272
C427	C	1.133378	0.612964	0.739272
C428	C	1.383378	0.862964	0.989272
C429	C	0.672331	0.074024	0.271064
C430	C	0.922331	0.324024	0.521064
C431	C	1.172331	0.574024	0.771064
C432	C	1.422331	0.824024	1.021064
O433	O	0.600295	0.146051	0.339904
O434	O	0.850295	0.396051	0.589904
O435	O	1.100295	0.646051	0.839904
O436	O	1.350295	0.896051	1.089904
O437	O	0.744393	0.001976	0.339920
O438	O	0.994393	0.251976	0.589920
O439	O	1.244393	0.501976	0.839920
O440	O	1.494393	0.751976	1.089920
H441	H	-0.154766	0.070071	-0.099887
H442	H	0.095234	0.320071	0.150113
H443	H	0.345234	0.570071	0.400113
H444	H	0.595234	0.820071	0.650113
H445	H	-0.047017	0.071399	0.099993
H446	H	0.202983	0.321399	0.349993
H447	H	0.452983	0.571399	0.599993
H448	H	0.702983	0.821399	0.849993
H449	H	0.226218	0.074642	-0.154986
H450	H	0.476218	0.324642	0.095014
H451	H	0.726218	0.574642	0.345014
H452	H	0.976218	0.824642	0.595014
H453	H	0.601690	0.144637	0.734954
H454	H	0.851690	0.394637	0.984954
H455	H	1.101690	0.644637	1.234954
H456	H	1.351690	0.894637	1.484954
F457	F	0.591924	0.154404	0.141820
F458	F	0.841924	0.404404	0.391820
F459	F	1.091924	0.654404	0.641820
F460	F	1.341924	0.904404	0.891820
H461	H	-0.154783	0.070095	0.099991
H462	H	0.095217	0.320095	0.349991
H463	H	0.345217	0.570095	0.599991
H464	H	0.595217	0.820095	0.849991
H465	H	0.499462	0.077952	-0.099907
H466	H	0.749462	0.327952	0.150093
H467	H	0.999462	0.577952	0.400093
H468	H	1.249462	0.827952	0.650093
H469	H	0.118445	0.073372	0.155067
H470	H	0.368445	0.323372	0.405067
H471	H	0.618445	0.573372	0.655067
H472	H	0.868445	0.823372	0.905067
H473	H	0.499435	0.077988	0.099973
H474	H	0.749435	0.327988	0.349973
H475	H	0.999435	0.577988	0.599973
H476	H	1.249435	0.827988	0.849973
H477	H	0.391689	0.076679	0.099978
H478	H	0.641689	0.326679	0.349978
H479	H	0.891689	0.576679	0.599978
H480	H	1.141689	0.826679	0.849978
H481	H	0.575509	-0.632483	0.000017
H482	H	0.825509	-0.382483	0.250017
H483	H	1.075509	-0.132483	0.500017
H484	H	1.325509	0.117517	0.750017
H485	H	0.582056	-0.086007	0.000055
H486	H	0.832056	0.163993	0.250055
H487	H	1.082056	0.413993	0.500055
H488	H	1.332056	0.663993	0.750055
F489	F	-0.039590	0.071445	-0.113670
F490	F	0.210410	0.321445	0.136330
F491	F	0.460410	0.571445	0.386330
F492	F	0.710410	0.821445	0.636330
H493	H	0.118474	0.073346	-0.154983
H494	H	0.368474	0.323346	0.095017
H495	H	0.618474	0.573346	0.345017
H496	H	0.868474	0.823346	0.595017
F497	F	0.791685	-0.045279	0.434381
F498	F	1.041685	0.204721	0.684381
F499	F	1.291685	0.454721	0.934381
F500	F	1.541685	0.704721	1.184381
F501	F	0.552982	0.193298	0.565696
F502	F	0.802982	0.443298	0.815696
F503	F	1.052982	0.693298	1.065696
F504	F	1.302982	0.943298	1.315696
F505	F	0.552973	0.193298	0.434411
F506	F	0.802973	0.443298	0.684411
F507	F	1.052973	0.693298	0.934411
F508	F	1.302973	0.943298	1.184411
F509	F	0.782071	-0.228662	0.000060
F510	F	1.032071	0.021338	0.250060
F511	F	1.282071	0.271338	0.500060
F512	F	1.532071	0.521338	0.750060
H513	H	0.526862	-0.352154	0.000003
H514	H	0.776862	-0.102154	0.250003
H515	H	1.026862	0.147846	0.500003
H516	H	1.276862	0.397846	0.750003
H517	H	0.391697	0.076653	-0.099910
H518	H	0.641697	0.326653	0.150090
H519	H	0.891697	0.576653	0.400090
H520	H	1.141697	0.826653	0.650090
H521	H	0.226193	0.074670	0.155068
H522	H	0.476193	0.324670	0.405068
H523	H	0.726193	0.574670	0.655068
H524	H	0.976193	0.824670	0.905068
F525	F	0.783533	-0.106061	0.000080
F526	F	1.033533	0.143939	0.250080
F527	F	1.283533	0.393939	0.500080
F528	F	1.533533	0.643939	0.750080
F529	F	0.832188	-0.386384	0.000050
F530	F	1.082188	-0.136384	0.250050
F531	F	1.332188	0.113616	0.500050
F532	F	1.582188	0.363616	0.750050
H533	H	0.817825	-0.499782	0.000047
H534	H	1.067825	-0.249782	0.250047
H535	H	1.317825	0.000218	0.500047
H536	H	1.567825	0.250218	0.750047
H537	H	0.742988	0.003410	0.149750
H538	H	0.992988	0.253410	0.399750
H539	H	1.242988	0.503410	0.649750
H540	H	1.492988	0.753410	0.899750
H541	H	0.601668	0.144669	0.265171
H542	H	0.851668	0.394669	0.515171
H543	H	1.101668	0.644669	0.765171
H544	H	1.351668	0.894669	1.015171
H545	H	0.763923	-0.658183	0.000041
H546	H	1.013923	-0.408183	0.250041
H547	H	1.263923	-0.158183	0.500041
H548	H	1.513923	0.091817	0.750041
H549	H	0.762627	-0.765949	0.000033
H550	H	1.012627	-0.515949	0.250033
H551	H	1.262627	-0.265949	0.500033
H552	H	1.512627	-0.015949	0.750033
H553	H	0.743023	0.003369	0.850325
H554	H	0.993023	0.253369	1.100325
H555	H	1.243023	0.503369	1.350325
H556	H	1.493023	0.753369	1.600325
H557	H	0.574220	-0.740232	0.000025
H558	H	0.824220	-0.490232	0.250025
H559	H	1.074220	-0.240232	0.500025
H560	H	1.324220	0.009768	0.750025
F561	F	0.512495	-0.465555	-0.000003
F562	F	0.762495	-0.215555	0.249997
F563	F	1.012495	0.034445	0.499997
F564	F	1.262495	0.284445	0.749997
H565	H	0.601706	0.144638	0.850336
H566	H	0.851706	0.394638	1.100336
H567	H	1.101706	0.644638	1.350336
H568	H	1.351706	0.894638	1.600336
H569	H	0.580761	-0.193774	0.000060
H570	H	0.830761	0.056226	0.250060
H571	H	1.080761	0.306226	0.500060
H572	H	1.330761	0.556226	0.750060
H573	H	0.781951	-0.035553	0.557713
H574	H	1.031951	0.214447	0.807713
H575	H	1.281951	0.464447	1.057713
H576	H	1.531951	0.714447	1.307713
F577	F	0.752730	-0.006344	0.273081
F578	F	1.002730	0.243656	0.523081
F579	F	1.252730	0.493656	0.773081
F580	F	1.502730	0.743656	1.023081
F581	F	0.752760	-0.006363	0.726972
F582	F	1.002760	0.243637	0.976972
F583	F	1.252760	0.493637	1.226972
F584	F	1.502760	0.743637	1.476972
