data_functionalizedCrystal
_audit_creation_method	'MofGen! by Chris Wilmer'
_symmetry_space_group_name_H-M	'P1'
_symmetry_Int_Tables_number	1
_symmetry_cell_setting	triclinic
loop_
_symmetry_equiv_pos_as_xyz
  x,y,z
_cell_length_a	13.339070
_cell_length_b	11.792241
_cell_length_c	12.376457
_cell_angle_alpha	101.354533
_cell_angle_beta	75.589755
_cell_angle_gamma	99.911355
loop_
_atom_site_label
_atom_site_type_symbol
_atom_site_fract_x
_atom_site_fract_y
_atom_site_fract_z
O1	O	1.364732	0.554298	-0.094048
O2	O	1.069793	0.479486	-0.094041
O3	O	1.224419	0.353927	-0.094037
O4	O	1.210107	0.679857	-0.094053
O5	O	1.185776	0.385262	0.093974
O6	O	1.031151	0.510821	0.093970
O7	O	1.326090	0.585633	0.093963
Zn8	Zn	1.172485	0.553202	0.123817
Zn9	Zn	1.223398	0.511917	-0.123896
O10	O	1.171464	0.711191	0.093958
C11	C	1.012713	0.482516	-0.000035
C12	C	0.900204	0.444848	-0.000032
C13	C	1.204198	0.327027	-0.000032
C14	C	1.201507	0.200184	-0.000033
C15	C	0.537024	0.737736	-0.000064
C16	C	0.642733	0.773131	-0.000070
C17	C	0.707105	0.691063	-0.000060
C18	C	0.665760	0.573595	-0.000045
C19	C	0.560044	0.538195	-0.000047
C20	C	0.730125	0.491522	-0.000044
C21	C	0.688780	0.374054	-0.000028
C22	C	0.583073	0.338661	-0.000030
C23	C	0.518700	0.420728	-0.000040
C24	C	0.835841	0.526922	-0.000041
C25	C	0.858861	0.327381	-0.000025
C26	C	0.753152	0.291986	-0.000018
C27	C	1.196562	-0.032056	-0.000052
C28	C	1.199310	0.097178	-0.000042
C29	C	1.383170	0.582602	-0.000046
C30	C	1.495681	0.620269	-0.000057
C31	C	1.191685	0.738092	-0.000049
C32	C	1.194378	0.864933	-0.000056
N33	N	1.137745	0.581379	0.292874
N34	N	1.258146	0.483733	-0.292953
C35	C	1.338788	0.418302	0.647865
C36	C	1.363097	0.398579	0.529526
C37	C	1.306760	0.444277	0.470357
C38	C	1.226112	0.509702	0.529539
C39	C	1.201806	0.529435	0.647890
C40	C	1.169779	0.555410	0.470382
C41	C	1.089130	0.620835	0.529564
C42	C	1.064828	0.640564	0.647903
C43	C	1.121164	0.594866	0.707072
C44	C	1.194085	0.535677	0.352031
C45	C	1.057103	0.646810	0.352056
C46	C	1.032794	0.666533	0.470396
H47	H	0.793178	0.719888	-0.000068
O48	O	0.921380	0.247573	-0.000213
C49	C	0.993382	0.071588	-0.097571
C50	C	0.922562	0.161891	-0.097506
H51	H	0.994344	0.002279	-0.176211
H52	H	1.076072	0.116992	-0.097640
H53	H	0.962099	0.028598	-0.018850
H54	H	0.953752	0.204910	-0.176213
H55	H	0.839883	0.116424	-0.097378
O56	O	1.393479	0.373724	0.705221
C57	C	1.444273	0.200804	0.741514
C58	C	1.382311	0.251142	0.676463
H59	H	1.435247	0.101689	0.718305
H60	H	1.530326	0.237250	0.718214
H61	H	1.413056	0.226212	0.836255
H62	H	1.413439	0.225752	0.581708
H63	H	1.296266	0.214698	0.699857
O64	O	0.682714	0.887285	-0.000029
C65	C	0.648733	1.081454	-0.000112
C66	C	0.603315	0.952208	-0.000134
H67	H	0.584566	1.133977	-0.000221
H68	H	0.681435	1.116198	0.078588
H69	H	0.713854	1.089850	-0.078776
H70	H	0.538159	0.943710	0.078477
H71	H	0.570682	0.917523	-0.078887
O72	O	1.097383	0.614091	0.822030
C73	C	0.987382	0.703430	0.991874
C74	C	1.014188	0.681728	0.861685
H75	H	0.920132	0.758137	1.023974
H76	H	0.963593	0.616359	1.024067
H77	H	1.058641	0.751931	1.023963
H78	H	0.942970	0.633266	0.829499
H79	H	1.038019	0.768837	0.829569
H80	H	1.326556	0.428215	0.374000
O81	O	0.542758	0.224611	0.000123
C82	C	0.416781	0.085069	0.097557
C83	C	0.462323	0.214273	0.097514
H84	H	0.351756	0.076666	0.176301
H85	H	0.383965	0.050370	0.018925
H86	H	0.480969	0.032503	0.097509
H87	H	0.398192	0.266932	0.097602
H88	H	0.495166	0.248879	0.176139
H89	H	0.869493	0.622565	-0.000049
H90	H	0.432622	0.391916	-0.000035
H91	H	0.484605	0.804541	-0.000082
O92	O	1.441127	0.334573	0.472099
C93	C	1.488626	0.163183	0.339134
C94	C	1.400284	0.235803	0.403960
H95	H	1.455633	0.083299	0.284046
H96	H	1.551171	0.218485	0.283455
H97	H	1.524469	0.133966	0.401981
H98	H	1.364357	0.265036	0.341194
H99	H	1.337805	0.180456	0.459655
O100	O	0.986434	0.704110	0.705219
C101	C	0.853179	0.812323	0.692751
C102	C	0.941916	0.740354	0.627704
H103	H	0.817175	0.841667	0.630108
H104	H	0.790845	0.756536	0.748145
H105	H	0.885877	0.892121	0.748171
H106	H	0.909313	0.660550	0.572223
H107	H	1.004234	0.796223	0.572382
H108	H	0.967129	0.719805	0.518596
H109	H	1.011231	0.684024	0.303882
H110	H	0.719476	0.196340	-0.000015
H111	H	1.259749	0.482408	0.303856
