data_functionalizedCrystal
_audit_creation_method	'MofGen! by Chris Wilmer'
_symmetry_space_group_name_H-M	'P1'
_symmetry_Int_Tables_number	1
_symmetry_cell_setting	triclinic
loop_
_symmetry_equiv_pos_as_xyz
  x,y,z
_cell_length_a	10.489741
_cell_length_b	9.065218
_cell_length_c	8.140239
_cell_angle_alpha	89.998670
_cell_angle_beta	89.998782
_cell_angle_gamma	95.222470
loop_
_atom_site_label
_atom_site_type_symbol
_atom_site_fract_x
_atom_site_fract_y
_atom_site_fract_z
O1	O	1.694800	-0.208165	0.136505
O2	O	1.323675	-0.227704	0.136529
O3	O	1.516909	-0.003255	0.136513
O4	O	1.501566	-0.432614	0.136521
O5	O	1.516902	-0.003253	-0.136714
O6	O	1.323669	-0.227703	-0.136698
O7	O	1.694794	-0.208163	-0.136723
Zn8	Zn	1.509230	-0.217933	-0.180091
Zn9	Zn	1.509239	-0.217935	0.179898
O10	O	1.501560	-0.432612	-0.136706
C11	C	1.276135	-0.226228	-0.000081
C12	C	1.134489	-0.221813	-0.000071
C13	C	1.065834	-0.079002	-0.000089
C14	C	0.973954	-0.146465	0.134624
C15	C	0.973981	-0.146497	-0.134757
C16	C	1.044475	-0.289334	0.134753
C17	C	1.044512	-0.289347	-0.134748
C18	C	0.952660	-0.356914	-0.000003
C19	C	1.515431	0.051725	-0.000098
C20	C	1.511022	0.215547	-0.000089
C21	C	1.742334	-0.209640	-0.000109
C22	C	1.883979	-0.214055	-0.000107
C23	C	1.503038	-0.487593	-0.000092
C24	C	1.507447	-0.651414	-0.000089
N25	N	1.509234	-0.217930	-0.425773
N26	N	1.509245	-0.217925	0.425580
H27	H	1.075524	-0.349714	0.248771
H28	H	1.115099	0.038397	0.000077
H29	H	1.075774	-0.349723	-0.248644
H30	H	0.903661	-0.474437	0.000073
H31	H	0.942724	-0.086039	0.248514
H32	H	0.942783	-0.086045	-0.248646
