data_functionalizedCrystal
_audit_creation_method	'MofGen! by Chris Wilmer'
_symmetry_space_group_name_H-M	'P1'
_symmetry_Int_Tables_number	1
_symmetry_cell_setting	triclinic
loop_
_symmetry_equiv_pos_as_xyz
  x,y,z
_cell_length_a	13.032721
_cell_length_b	13.033304
_cell_length_c	19.805398
_cell_angle_alpha	97.203296
_cell_angle_beta	97.154074
_cell_angle_gamma	74.816908
loop_
_atom_site_label
_atom_site_type_symbol
_atom_site_fract_x
_atom_site_fract_y
_atom_site_fract_z
Zn1	Zn	-0.216893	-1.570088	-0.529948
Zn2	Zn	0.283107	-1.070088	-0.029948
Zn3	Zn	-0.394530	-1.547428	-0.429504
Zn4	Zn	0.105470	-1.047428	0.070496
Zn5	Zn	-0.239454	-1.392480	-0.403992
Zn6	Zn	0.260546	-0.892480	0.096008
Zn7	Zn	-0.416994	-1.369868	-0.529866
Zn8	Zn	0.083006	-0.869868	-0.029866
O9	O	-0.316968	-1.469966	-0.473328
O10	O	0.183032	-0.969966	0.026672
O11	O	-0.221613	-1.715722	-0.527335
O12	O	0.278387	-1.215722	-0.027335
O13	O	-0.373999	-1.526854	-0.331405
O14	O	0.126001	-1.026854	0.168595
O15	O	-0.087818	-1.434987	-0.410058
O16	O	0.412182	-0.934987	0.089942
O17	O	-0.352122	-1.699073	-0.453539
O18	O	0.147878	-1.199073	0.046461
O19	O	-0.071243	-1.565475	-0.502597
O20	O	0.428757	-1.065475	-0.002597
O21	O	-0.260066	-1.413014	-0.312661
O22	O	0.239934	-0.913014	0.187339
O23	O	-0.281849	-1.240841	-0.409979
O24	O	0.218151	-0.740841	0.090021
O25	O	-0.390410	-1.396447	-0.624592
O26	O	0.109590	-0.896447	-0.124592
O27	O	-0.412287	-1.224228	-0.502458
O28	O	0.087713	-0.724228	-0.002458
O29	O	-0.243396	-1.543549	-0.624652
O30	O	0.256604	-1.043549	-0.124652
O31	O	-0.546152	-1.504927	-0.453460
O32	O	-0.046152	-1.004927	0.046540
O33	O	-0.562657	-1.374475	-0.527196
O34	O	-0.062657	-0.874475	-0.027196
C35	C	-0.351954	-1.193994	-0.453441
C36	C	0.148046	-0.693994	0.046559
C37	C	-0.366947	-1.075929	-0.444952
C38	C	0.133053	-0.575929	0.055048
C39	C	-0.309159	-1.031516	-0.477750
C40	C	0.190841	-0.531516	0.022250
C41	C	-0.324653	-0.909489	-0.468977
C42	C	0.175347	-0.409489	0.031023
C43	C	-0.592942	-1.434817	-0.493104
C44	C	-0.092942	-0.934817	0.006896
C45	C	-0.710993	-1.419877	-0.501594
C46	C	-0.210993	-0.919877	-0.001594
C47	C	-0.755416	-1.477819	-0.468931
C48	C	-0.255416	-0.977819	0.031069
C49	C	-0.877428	-1.462380	-0.477705
C50	C	-0.377428	-0.962380	0.022295
C51	C	-0.039912	-1.505281	-0.453491
C52	C	0.460088	-1.005281	0.046509
C53	C	0.078153	-1.520330	-0.445038
C54	C	0.578153	-1.020330	0.054962
C55	C	-0.316892	-1.470003	-0.649867
C56	C	0.183108	-0.970003	-0.149867
C57	C	-0.316860	-1.470019	-0.725098
C58	C	0.183140	-0.970019	-0.225098
C59	C	-0.281840	-0.747016	-0.493287
C60	C	0.218160	-0.247016	0.006713
C61	C	-0.266856	-0.865080	-0.501780
C62	C	0.233144	-0.365080	-0.001780
C63	C	-0.375995	-1.529485	-1.196647
C64	C	0.124005	-1.029485	-0.696647
C65	C	-0.376028	-1.529452	-1.125958
C66	C	0.123972	-1.029452	-0.625958
C67	C	-0.316724	-1.470166	-1.080861
C68	C	0.183276	-0.970166	-0.580861
C69	C	-0.257392	-1.410902	-1.106455
C70	C	0.242608	-0.910902	-0.606455
C71	C	-0.257366	-1.410930	-1.177143
C72	C	0.242634	-0.910930	-0.677143
C73	C	-0.257496	-1.410788	-0.821381
C74	C	0.242504	-0.910788	-0.321381
C75	C	-0.257524	-1.410767	-0.750689
C76	C	0.242476	-0.910767	-0.250689
C77	C	-0.376157	-1.529310	-0.770196
C78	C	0.123843	-1.029310	-0.270196
C79	C	-0.376132	-1.529337	-0.840884
C80	C	0.123868	-1.029337	-0.340884
C81	C	-0.316805	-1.470069	-0.866472
C82	C	0.183195	-0.970069	-0.366472
C83	C	-0.316772	-1.470104	-0.943121
C84	C	0.183228	-0.970104	-0.443121
C85	C	-0.316750	-1.470137	-1.004213
C86	C	0.183250	-0.970137	-0.504213
C87	C	-0.316958	-1.469999	-0.297474
C88	C	0.183042	-0.969999	0.202526
C89	C	-0.316665	-1.470227	-0.222237
C90	C	0.183335	-0.970227	0.277763
H91	H	-0.205900	-0.917392	-0.536354
H92	H	0.294100	-0.417392	-0.036354
N93	N	-0.447678	-1.006633	-0.399153
N94	N	0.052322	-0.506633	0.100847
H95	H	-0.521165	-1.016225	-0.416400
H96	H	-0.021165	-0.516225	0.083600
H97	H	-0.428567	-1.028003	-0.351006
H98	H	0.071433	-0.528003	0.148994
H99	H	-0.869554	-1.581375	-0.410578
H100	H	-0.369554	-1.081375	0.089422
H101	H	-0.763289	-1.358845	-0.536057
H102	H	-0.263289	-0.858845	-0.036057
N103	N	-0.439973	-1.593418	-1.245282
N104	N	0.060027	-1.093418	-0.745282
H105	H	-0.430956	-1.584445	-1.293947
H106	H	0.069044	-1.084445	-0.793947
H107	H	-0.413834	-1.671382	-1.237206
H108	H	0.086166	-1.171382	-0.737206
N109	N	-0.440021	-1.593360	-1.098354
N110	N	0.059979	-1.093360	-0.598354
H111	H	-0.477582	-1.630927	-1.137648
H112	H	0.022418	-1.130927	-0.637648
H113	H	-0.390561	-1.648011	-1.069467
H114	H	0.109439	-1.148011	-0.569467
N115	N	-0.228444	-1.100806	-0.523563
N116	N	0.271556	-0.600806	-0.023563
H117	H	-0.173361	-1.153100	-0.495870
H118	H	0.326639	-0.653100	0.004130
H119	H	-0.265977	-1.141264	-0.561255
H120	H	0.234023	-0.641264	-0.061255
N121	N	-0.440091	-1.593284	-0.889524
N122	N	0.059909	-1.093284	-0.389524
H123	H	-0.477684	-1.630817	-0.862586
H124	H	0.022316	-1.130817	-0.362586
H125	H	-0.494716	-1.543789	-0.919257
H126	H	0.005284	-1.043789	-0.419257
N127	N	-0.405395	-0.840203	-0.423178
N128	N	0.094605	-0.340203	0.076822
H129	H	-0.441833	-0.886606	-0.402495
H130	H	0.058167	-0.386606	0.097505
H131	H	-0.367901	-0.799671	-0.385509
H132	H	0.132099	-0.299671	0.114491
N133	N	-0.686162	-1.558669	-0.423279
N134	N	-0.186162	-1.058669	0.076721
H135	H	-0.695709	-1.632142	-0.440667
H136	H	-0.195709	-1.132142	0.059333
H137	H	-0.608848	-1.558148	-0.423496
H138	H	-0.108848	-1.058148	0.076504
N139	N	-0.193570	-1.346806	-0.702048
N140	N	0.306430	-0.846806	-0.202048
H141	H	-0.202589	-1.355787	-0.653386
H142	H	0.297411	-0.855787	-0.153386
H143	H	-0.115606	-1.373001	-0.710163
H144	H	0.384394	-0.873001	-0.210163
H145	H	-0.929720	-1.401343	-0.512170
H146	H	-0.429720	-0.901343	-0.012170
N147	N	-0.440150	-1.593235	-0.742597
N148	N	0.059850	-1.093235	-0.242597
H149	H	-0.431288	-1.584107	-0.690975
H150	H	0.068712	-1.084107	-0.190975
H151	H	-0.518084	-1.567139	-0.759269
H152	H	-0.018084	-1.067139	-0.259269
H153	H	-0.209190	-1.362526	-0.842206
H154	H	0.290810	-0.862526	-0.342206
N155	N	-0.193433	-1.346951	-1.057819
N156	N	0.306567	-0.846951	-0.557819
H157	H	-0.202448	-1.355927	-1.009155
H158	H	0.297552	-0.855927	-0.509155
H159	H	-0.115471	-1.373157	-1.065937
H160	H	0.384529	-0.873157	-0.565937
N161	N	-0.193380	-1.347011	-1.204747
N162	N	0.306620	-0.847011	-0.704747
H163	H	-0.155814	-1.309451	-1.165453
H164	H	0.344186	-0.809451	-0.665453
H165	H	-0.138731	-1.396521	-1.233672
H166	H	0.361269	-0.896521	-0.733672
