data_functionalizedCrystal
_audit_creation_method	'MofGen! by Chris Wilmer'
_symmetry_space_group_name_H-M	'P1'
_symmetry_Int_Tables_number	1
_symmetry_cell_setting	triclinic
loop_
_symmetry_equiv_pos_as_xyz
  x,y,z
_cell_length_a	17.038272
_cell_length_b	26.210047
_cell_length_c	17.038272
_cell_angle_alpha	90.004020
_cell_angle_beta	91.111556
_cell_angle_gamma	90.010815
loop_
_atom_site_label
_atom_site_type_symbol
_atom_site_fract_x
_atom_site_fract_y
_atom_site_fract_z
O1	O	1.048768	0.042366	0.170536
O2	O	1.548768	0.542366	0.670536
O3	O	0.820957	0.042381	0.167828
O4	O	1.320957	0.542381	0.667828
O5	O	0.933508	0.042369	0.055276
O6	O	1.433508	0.542369	0.555276
O7	O	0.936216	0.042377	0.283088
O8	O	1.436216	0.542377	0.783088
O9	O	0.933470	-0.042489	0.055273
O10	O	1.433470	0.457511	0.555273
O11	O	0.820919	-0.042477	0.167825
O12	O	1.320919	0.457523	0.667825
O13	O	1.048730	-0.042492	0.170533
O14	O	1.548730	0.457508	0.670533
Cu15	Cu	0.934821	-0.050233	0.169179
Cu16	Cu	1.434821	0.449767	0.669179
Cu17	Cu	0.934866	0.050121	0.169182
Cu18	Cu	1.434866	0.550121	0.669182
O19	O	0.936178	-0.042481	0.283085
O20	O	1.436178	0.457519	0.783085
C21	C	0.791645	-0.000047	0.165364
C22	C	1.291645	0.499953	0.665364
C23	C	0.704361	-0.000041	0.158016
C24	C	1.204361	0.499959	0.658016
N25	N	0.934795	-0.120817	0.169177
N26	N	1.434795	0.379183	0.669177
C27	C	0.658752	-0.000039	0.225479
C28	C	1.158752	0.499961	0.725479
C29	C	0.576740	-0.000046	0.218570
C30	C	1.076740	0.499954	0.718570
C31	C	0.540339	-0.000052	0.144197
C32	C	1.040339	0.499948	0.644197
C33	C	0.585954	-0.000055	0.076728
C34	C	1.085954	0.499945	0.576728
C35	C	0.667965	-0.000052	0.083638
C36	C	1.167965	0.499948	0.583638
C37	C	0.292951	-0.000066	0.119787
C38	C	0.792951	0.499934	0.619787
C39	C	0.210935	-0.000068	0.112882
C40	C	0.710935	0.499932	0.612882
C41	C	0.201726	-0.000060	0.254725
C42	C	0.701726	0.499940	0.754725
C43	C	0.283739	-0.000054	0.261628
C44	C	0.783739	0.499946	0.761628
C45	C	0.329347	-0.000060	0.194159
C46	C	0.829347	0.499940	0.694159
C47	C	0.456510	-0.000058	0.137133
C48	C	0.956510	0.499942	0.637133
C49	C	0.413174	-0.000058	0.201224
C50	C	0.913174	0.499942	0.701224
C51	C	0.985655	-0.473333	0.219999
C52	C	1.485655	0.026667	0.719999
C53	C	0.985678	-0.686991	0.220000
C54	C	1.485678	-0.186991	0.720000
O55	O	1.028902	-0.714615	0.263202
O56	O	1.528902	-0.214615	0.763202
N57	N	0.934884	-0.713711	0.169176
N58	N	1.434884	-0.213711	0.669176
C59	C	0.884084	-0.687013	0.118343
C60	C	1.384084	-0.187013	0.618343
O61	O	0.840887	-0.714642	0.075108
O62	O	1.340887	-0.214642	0.575108
C63	C	0.884066	-0.473355	0.118339
C64	C	1.384066	0.026645	0.618339
C65	C	0.934857	-0.446638	0.169173
C66	C	1.434857	0.053362	0.669173
C67	C	1.036443	-0.446616	0.270828
C68	C	1.536443	0.053384	0.770828
C69	C	1.036434	-0.393204	0.270831
C70	C	1.536434	0.106796	0.770831
C71	C	0.985636	-0.366510	0.220004
C72	C	1.485636	0.133490	0.720004
C73	C	0.934848	-0.393227	0.169175
C74	C	1.434848	0.106773	0.669175
C75	C	0.833270	-0.446658	0.067503
C76	C	1.333270	0.053342	0.567503
C77	C	0.833272	-0.393240	0.067505
C78	C	1.333272	0.106760	0.567505
C79	C	0.884063	-0.366523	0.118339
C80	C	1.384063	0.133477	0.618339
C81	C	0.884041	-0.313121	0.118350
C82	C	1.384041	0.186879	0.618350
N83	N	0.934835	-0.286401	0.169175
N84	N	1.434835	0.213599	0.669175
C85	C	0.985633	-0.313096	0.220002
C86	C	1.485633	0.186904	0.720002
C87	C	0.884097	-0.799186	0.118350
C88	C	1.384097	-0.299186	0.618350
C89	C	0.884100	-0.852600	0.118352
C90	C	1.384100	-0.352600	0.618352
C91	C	0.985695	-0.852575	0.220008
C92	C	1.485695	-0.352575	0.720008
C93	C	0.985687	-0.799160	0.220010
C94	C	1.485687	-0.299160	0.720010
C95	C	0.934891	-0.772466	0.169175
C96	C	1.434891	-0.272466	0.669175
C97	C	0.985609	-0.200928	0.220003
C98	C	1.485609	0.299072	0.720003
C99	C	0.985593	-0.147512	0.220003
C100	C	1.485593	0.352488	0.720003
C101	C	0.884001	-0.147541	0.118344
C102	C	1.384001	0.352459	0.618344
C103	C	0.884014	-0.200953	0.118347
C104	C	1.384014	0.299047	0.618347
C105	C	0.934824	-0.227645	0.169179
C106	C	1.434824	0.272355	0.669179
O107	O	0.840846	-0.285465	0.075165
O108	O	1.340846	0.214535	0.575165
O109	O	1.028835	-0.285457	0.263219
O110	O	1.528835	0.214543	0.763219
C111	C	0.985664	-0.526744	0.219997
C112	C	1.485664	-0.026744	0.719997
C113	C	0.934876	-0.553461	0.169168
C114	C	1.434876	-0.053461	0.669168
C115	C	0.884078	-0.526767	0.118341
C116	C	1.384078	-0.026767	0.618341
C117	C	0.934879	-0.606875	0.169170
C118	C	1.434879	-0.106875	0.669170
C119	C	0.985677	-0.633570	0.219997
C120	C	1.485677	-0.133570	0.719997
C121	C	1.036471	-0.606850	0.270822
C122	C	1.536471	-0.106850	0.770822
C123	C	1.036462	-0.553439	0.270824
C124	C	1.536462	-0.053439	0.770824
C125	C	0.833285	-0.553486	0.067517
C126	C	1.333285	-0.053486	0.567517
C127	C	0.833297	-0.606898	0.067519
C128	C	1.333297	-0.106898	0.567519
C129	C	0.884095	-0.633592	0.118346
C130	C	1.384095	-0.133592	0.618346
C131	C	1.078042	-0.000064	0.172997
C132	C	1.578042	0.499936	0.672997
C133	C	1.165326	-0.000066	0.180346
C134	C	1.665326	0.499934	0.680346
C135	C	0.931027	-0.000060	0.025982
C136	C	1.431027	0.499940	0.525982
C137	C	0.923679	-0.000059	-0.061301
C138	C	1.423679	0.499941	0.438699
N139	N	0.934898	0.120705	0.169179
N140	N	1.434898	0.620705	0.669179
C141	C	0.991142	-0.000064	-0.106911
C142	C	1.491142	0.499936	0.393089
C143	C	0.984233	-0.000059	-0.188923
C144	C	1.484233	0.499941	0.311077
C145	C	0.909860	-0.000052	-0.225324
C146	C	1.409860	0.499948	0.274676
C147	C	0.842391	-0.000046	-0.179708
C148	C	1.342391	0.499954	0.320292
C149	C	0.849301	-0.000047	-0.097698
C150	C	1.349301	0.499953	0.402302
C151	C	0.885449	-0.000043	-0.472712
C152	C	1.385449	0.499957	0.027288
C153	C	0.878545	-0.000043	-0.554728
C154	C	1.378545	0.499957	-0.054728
C155	C	1.020387	-0.000056	-0.563937
C156	C	1.520387	0.499944	-0.063937
C157	C	1.027291	-0.000060	-0.481924
C158	C	1.527291	0.499940	0.018076
C159	C	0.959822	-0.000051	-0.436316
C160	C	1.459822	0.499949	0.063684
C161	C	0.902796	-0.000048	-0.309153
C162	C	1.402796	0.499952	0.190847
C163	C	0.966886	-0.000051	-0.352488
C164	C	1.466886	0.499949	0.147512
C165	C	0.938660	-0.000051	0.312379
C166	C	1.438660	0.499949	0.812379
C167	C	0.946008	-0.000048	0.399663
C168	C	1.446008	0.499952	0.899663
H169	H	0.688384	-0.000034	0.286042
H170	H	1.188384	0.499966	0.786042
H171	H	1.039170	-0.000064	-0.226054
H172	H	1.539170	0.499936	0.273946
Br173	Br	0.764333	-0.482903	-0.001488
Br174	Br	1.264333	0.017097	0.498512
Br175	Br	0.161534	-0.000087	0.011940
Br176	Br	0.661534	0.499913	0.511940
H177	H	0.791929	-0.628646	0.026126
H178	H	1.291929	-0.128646	0.526126
Br179	Br	1.105392	-0.482834	0.339817
Br180	Br	1.605392	0.017166	0.839817
H181	H	0.556310	-0.000067	0.016172
H182	H	1.056310	0.499933	0.516172
Br183	Br	0.407102	-0.000065	0.036200
Br184	Br	0.907102	0.499935	0.536200
Br185	Br	0.514844	-0.000042	0.310133
Br186	Br	1.014844	0.499958	0.810133
H187	H	1.027046	-0.777411	0.261404
H188	H	1.527046	-0.277411	0.761404
H189	H	0.705099	-0.000053	0.028702
H190	H	1.205099	0.499947	0.528702
H191	H	1.077821	-0.531691	0.312218
H192	H	1.577821	-0.031691	0.812218
H193	H	0.791919	-0.531757	0.026125
H194	H	1.291919	-0.031757	0.526125
Br195	Br	1.054636	-0.888814	0.288986
Br196	Br	1.554636	-0.388814	0.788986
H197	H	0.164583	-0.000056	0.309653
H198	H	0.664583	0.499944	0.809653
Br199	Br	1.054521	-0.111256	0.289004
Br200	Br	1.554521	0.388744	0.789004
H201	H	1.077828	-0.628594	0.312210
H202	H	1.577828	-0.128594	0.812210
Br203	Br	1.054567	-0.237144	0.288990
Br204	Br	1.554567	0.262856	0.788990
Br205	Br	0.815062	-0.111303	0.049371
Br206	Br	1.315062	0.388697	0.549371
Br207	Br	0.741455	-0.000028	-0.229109
Br208	Br	1.241455	0.499972	0.270891
Br209	Br	1.128229	-0.000053	-0.432528
Br210	Br	1.628229	0.499947	0.067472
Br211	Br	1.105355	-0.356954	0.339837
Br212	Br	1.605355	0.143046	0.839837
H213	H	0.330076	-0.000072	0.064848
H214	H	0.830076	0.499928	0.564848
Br215	Br	0.764338	-0.357016	-0.001497
Br216	Br	1.264338	0.142984	0.498503
Br217	Br	0.815152	-0.888852	0.049375
Br218	Br	1.315152	-0.388852	0.549375
H219	H	0.842646	-0.222707	0.076963
H220	H	1.342646	0.277293	0.576963
Br221	Br	0.815137	-0.762967	0.049368
Br222	Br	1.315137	-0.262967	0.549368
Br223	Br	0.801863	-0.000034	-0.358561
Br224	Br	1.301863	0.499966	0.141439
H225	H	0.794365	-0.000043	-0.060564
H226	H	1.294365	0.499957	0.439436
H227	H	1.051705	-0.000073	-0.077279
H228	H	1.551705	0.499927	0.422721
Br229	Br	1.067819	-0.000056	-0.303086
Br230	Br	1.567819	0.499944	0.196914
H231	H	1.075316	-0.000062	-0.601079
H232	H	1.575316	0.499938	-0.101079
Br233	Br	0.777603	-0.000040	-0.604129
Br234	Br	1.277603	0.499960	-0.104129
H235	H	0.830511	-0.000036	-0.435587
H236	H	1.330511	0.499964	0.064413
H237	H	0.442816	-0.000056	0.261778
H238	H	0.942816	0.499944	0.761778
Br239	Br	0.333134	-0.000040	0.362567
Br240	Br	0.833134	0.499960	0.862567
