data_functionalizedCrystal
_audit_creation_method	'MofGen! by Chris Wilmer'
_symmetry_space_group_name_H-M	'P1'
_symmetry_Int_Tables_number	1
_symmetry_cell_setting	triclinic
loop_
_symmetry_equiv_pos_as_xyz
  x,y,z
_cell_length_a	16.793024
_cell_length_b	16.793047
_cell_length_c	33.586455
_cell_angle_alpha	113.253857
_cell_angle_beta	66.219990
_cell_angle_gamma	112.758327
loop_
_atom_site_label
_atom_site_type_symbol
_atom_site_fract_x
_atom_site_fract_y
_atom_site_fract_z
O1	O	0.005016	-0.570216	-0.583573
O2	O	-0.034529	-0.474528	-0.453458
O3	O	0.114723	-0.474535	-0.528082
O4	O	-0.144235	-0.570209	-0.508949
O5	O	0.108729	-0.346329	-0.530229
O6	O	-0.040523	-0.346322	-0.455605
O7	O	-0.000977	-0.442010	-0.585721
Cu8	Cu	-0.021297	-0.382459	-0.520859
Cu9	Cu	-0.014209	-0.534079	-0.518320
O10	O	-0.150229	-0.442003	-0.511097
C11	C	0.005100	-0.790970	-0.238461
C12	C	0.009223	-0.693065	-0.217557
C13	C	0.003804	-0.645758	-0.241627
C14	C	-0.075059	-0.538459	-0.266316
C15	C	0.049838	-0.422849	-0.250165
C16	C	-0.040584	-0.395375	-0.435637
C17	C	-0.044693	-0.353446	-0.386631
C18	C	-0.039275	-0.401741	-0.363054
C19	C	-0.040566	-0.125547	-0.300731
C20	C	-0.044689	-0.223451	-0.321635
C21	C	-0.039266	-0.270752	-0.297563
C22	C	0.039597	-0.378051	-0.272874
C23	C	-0.085304	-0.493667	-0.289026
C24	C	0.005118	-0.521142	-0.103554
C25	C	0.009231	-0.563064	-0.152559
C26	C	0.003809	-0.514775	-0.176138
C27	C	0.010758	-0.652581	-0.172822
C28	C	0.001010	-0.556371	-0.220792
C29	C	-0.008251	-0.506059	-0.245823
C30	C	-0.046224	-0.263935	-0.366370
C31	C	-0.036476	-0.360146	-0.318399
C32	C	-0.027211	-0.410451	-0.293367
C33	C	0.815184	-0.521162	-0.508596
C34	C	0.717729	-0.563083	-0.506815
C35	C	0.669923	-0.514793	-0.509201
C36	C	0.564072	-0.463272	-0.548285
C37	C	0.445555	-0.498966	-0.486078
C38	C	0.415541	-0.125553	-0.528781
C39	C	0.375032	-0.223457	-0.531493
C40	C	0.423813	-0.270761	-0.529101
C41	C	0.149318	-0.395376	-0.530584
C42	C	0.246774	-0.353455	-0.532364
C43	C	0.294574	-0.401748	-0.529976
C44	C	0.400424	-0.453269	-0.490892
C45	C	0.518948	-0.417572	-0.553101
C46	C	0.548961	-0.790984	-0.510398
C47	C	0.589464	-0.693083	-0.507684
C48	C	0.540690	-0.645776	-0.510078
C49	C	0.678399	-0.652598	-0.506649
C50	C	0.581167	-0.556389	-0.510877
C51	C	0.530434	-0.506073	-0.515170
C52	C	0.286104	-0.263940	-0.532530
C53	C	0.383336	-0.360149	-0.528302
C54	C	0.434062	-0.410467	-0.524008
C55	C	-0.040530	-0.395407	-0.935652
C56	C	-0.044651	-0.353482	-0.886645
C57	C	-0.039242	-0.401770	-0.863061
C58	C	0.039602	-0.453292	-0.810474
C59	C	-0.085288	-0.417587	-0.750981
C60	C	0.005063	-0.791004	-0.738448
C61	C	0.009186	-0.693099	-0.717543
C62	C	0.003779	-0.645796	-0.741620
C63	C	0.005077	-0.521171	-0.603544
C64	C	0.009198	-0.563096	-0.652550
C65	C	0.003786	-0.514804	-0.676131
C66	C	-0.075058	-0.463283	-0.728717
C67	C	0.049835	-0.498991	-0.788214
C68	C	-0.040516	-0.125574	-0.800747
C69	C	-0.044642	-0.223476	-0.821649
C70	C	-0.039232	-0.270782	-0.797575
C71	C	-0.046172	-0.263965	-0.866386
C72	C	-0.036447	-0.360171	-0.818406
C73	C	-0.027197	-0.410486	-0.793373
C74	C	0.010719	-0.652613	-0.672809
C75	C	0.000994	-0.556406	-0.720789
C76	C	-0.008259	-0.506089	-0.745819
O77	O	-0.000965	0.173549	-0.277957
O78	O	-0.040516	-0.085616	-0.325254
O79	O	0.108737	0.059592	-0.327284
O80	O	-0.150219	0.028341	-0.275927
O81	O	0.114753	0.055151	-0.263265
O82	O	-0.034500	-0.090057	-0.261234
O83	O	0.005051	0.169108	-0.213937
Cu84	Cu	-0.014175	0.039120	-0.231740
Cu85	Cu	-0.021290	0.044372	-0.307451
O86	O	-0.144202	0.023900	-0.211907
O87	O	-0.034458	-0.474571	0.046517
O88	O	0.005076	-0.570190	-0.083599
O89	O	-0.144170	-0.570237	-0.008972
O90	O	0.114787	-0.474523	-0.028110
O91	O	-0.150200	-0.442024	-0.011093
O92	O	-0.000954	-0.441976	-0.085720
O93	O	-0.040488	-0.346357	0.044396
Cu94	Cu	-0.021272	-0.382460	-0.020856
Cu95	Cu	-0.014141	-0.534087	-0.018347
O96	O	0.108757	-0.346309	-0.030231
C97	C	-0.850734	0.086244	-0.289716
C98	C	-0.753280	0.087165	-0.312001
C99	C	-0.705462	0.081107	-0.288506
C100	C	-0.599592	0.000085	-0.264184
C101	C	-0.481080	0.121287	-0.283645
C102	C	-0.450996	0.035117	-0.097351
C103	C	-0.410501	0.028587	-0.146852
C104	C	-0.459292	0.034683	-0.169840
C105	C	-0.184802	0.024283	-0.235878
C106	C	-0.282257	0.023363	-0.213592
C107	C	-0.330068	0.029423	-0.237088
C108	C	-0.435938	0.110445	-0.261411
C109	C	-0.554456	-0.010759	-0.241948
C110	C	-0.584541	0.075410	-0.428242
C111	C	-0.625029	0.081943	-0.378743
C112	C	-0.576244	0.075844	-0.355753
C113	C	-0.713963	0.086424	-0.357292
C114	C	-0.616708	0.075351	-0.310510
C115	C	-0.565963	0.065400	-0.286043
C116	C	-0.321573	0.024104	-0.168302
C117	C	-0.418828	0.035176	-0.215083
C118	C	-0.469568	0.045131	-0.239552
O119	O	0.585213	0.169090	-0.504004
O120	O	0.494056	-0.090076	-0.525516
O121	O	0.488081	0.055124	-0.449918
O122	O	0.591189	0.023889	-0.579602
O123	O	0.359978	0.059584	-0.452885
O124	O	0.365953	-0.085616	-0.528483
O125	O	0.457110	0.173550	-0.506971
Cu126	Cu	0.399835	0.044374	-0.517998
Cu127	Cu	0.551332	0.039099	-0.514489
O128	O	0.463086	0.028349	-0.582569
C129	C	0.815354	-0.521094	-0.008709
C130	C	0.717898	-0.563028	-0.006927
C131	C	0.670072	-0.514739	-0.009298
C132	C	0.564182	-0.463204	-0.048354
C133	C	0.445681	-0.498945	0.013847
C134	C	0.415547	-0.125494	-0.028771
C135	C	0.375059	-0.223405	-0.031498
C136	C	0.423859	-0.270708	-0.029121
C137	C	0.149365	-0.395355	-0.030599
C138	C	0.246820	-0.353421	-0.032381
C139	C	0.294640	-0.401713	-0.030008
C140	C	0.400530	-0.453248	0.009048
C141	C	0.519038	-0.417504	-0.053155
C142	C	0.549171	-0.790955	-0.010537
C143	C	0.589653	-0.693047	-0.007809
C144	C	0.540859	-0.645741	-0.010187
C145	C	0.678588	-0.652551	-0.006775
C146	C	0.581317	-0.556344	-0.010973
C147	C	0.530562	-0.506029	-0.015250
C148	C	0.286131	-0.263897	-0.032533
C149	C	0.383402	-0.360104	-0.028335
C150	C	0.434150	-0.410423	-0.024057
O151	O	-0.620614	0.089309	0.052274
O152	O	-0.529507	0.043784	-0.078544
O153	O	-0.523494	0.194833	-0.006033
O154	O	-0.626628	-0.061740	-0.020236
O155	O	-0.395386	0.185419	-0.005549
O156	O	-0.401400	0.034370	-0.078059
O157	O	-0.492507	0.079895	0.052758
Cu158	Cu	-0.435256	0.056273	-0.012607
Cu159	Cu	-0.586758	0.067406	-0.013179
O160	O	-0.498521	-0.071154	-0.019752
C161	C	-0.437537	0.048335	0.402491
C162	C	-0.397043	0.041789	0.352989
C163	C	-0.445822	0.047883	0.329994
C164	C	-0.496646	0.126653	0.277022
C165	C	-0.465894	-0.000633	0.218811
C166	C	-0.837226	0.099430	0.210091
C167	C	-0.739773	0.100339	0.187806
C168	C	-0.691967	0.094287	0.211308
C169	C	-0.571027	0.088563	0.071568
C170	C	-0.611521	0.095108	0.121070
C171	C	-0.562739	0.089011	0.144061
C172	C	-0.511915	0.010241	0.197033
C173	C	-0.542670	0.137531	0.255247
C174	C	-0.171338	0.037467	0.263967
C175	C	-0.268788	0.036555	0.286249
C176	C	-0.316597	0.042611	0.262750
C177	C	-0.308112	0.037305	0.331542
C178	C	-0.405351	0.048369	0.284750
C179	C	-0.456092	0.058317	0.260279
C180	C	-0.700452	0.099593	0.142516
C181	C	-0.603213	0.088528	0.189308
C182	C	-0.552469	0.078578	0.213776
O183	O	-0.040608	-1.085661	-0.825229
O184	O	-0.001018	-0.826491	-0.777938
O185	O	-0.150287	-0.971682	-0.775894
O186	O	0.108661	-0.940470	-0.827272
O187	O	-0.144253	-0.976123	-0.711878
O188	O	0.005016	-0.830932	-0.713922
O189	O	-0.034575	-1.090102	-0.761213
Cu190	Cu	-0.014228	-0.960923	-0.731722
Cu191	Cu	-0.021364	-0.955670	-0.807428
O192	O	0.114695	-0.944911	-0.763256
C193	C	-0.036362	-0.225031	-0.248202
H194	H	-0.038845	-0.164658	-0.239332
H195	H	0.018110	-0.225348	-0.245951
H196	H	-0.086581	-0.256877	-0.228868
H197	H	-0.740818	0.102779	0.123104
C198	C	-0.049764	-0.210013	-0.393278
H199	H	-0.050544	-0.150461	-0.374562
H200	H	-0.102857	-0.238261	-0.402715
H201	H	0.001949	-0.208036	-0.419158
C202	C	0.402522	-0.544381	-0.447615
H203	H	0.344776	-0.534096	-0.430465
H204	H	0.440175	-0.519779	-0.428421
H205	H	0.396054	-0.607298	-0.460232
C206	C	-0.272111	0.043014	0.212752
H207	H	-0.212039	0.038676	0.203103
H208	H	-0.271038	0.097389	0.209764
H209	H	-0.305802	-0.006777	0.194543
H210	H	-0.297145	0.029698	-0.274103
H211	H	-0.267732	0.034117	0.350946
H212	H	0.413839	-0.532573	0.042316
C213	C	0.714533	-0.415928	-0.010074
H214	H	0.672741	-0.392963	-0.011742
H215	H	0.766528	-0.412578	-0.035752
H216	H	0.731746	-0.381277	0.016802
H217	H	0.330510	-0.448858	0.033327
H218	H	0.088092	-0.309407	-0.275738
C219	C	0.000892	-0.416000	-0.653236
H220	H	-0.002777	-0.393044	-0.673974
H221	H	0.054173	-0.381338	-0.644396
H222	H	-0.050518	-0.412668	-0.627217
C223	C	-0.543932	0.054056	0.354186
H224	H	-0.560852	0.052864	0.384605
H225	H	-0.583032	0.004475	0.338799
H226	H	-0.548435	0.108649	0.354086
C227	C	0.250095	-0.500552	-0.529190
H228	H	0.190026	-0.518225	-0.530550
H229	H	0.249015	-0.506536	-0.501995
H230	H	0.283802	-0.537855	-0.554549
H231	H	0.550886	-0.383867	-0.081621
H232	H	-0.365918	0.157102	-0.260160
H233	H	0.107243	-0.392097	-0.234140
H234	H	-0.518563	-0.039000	0.162804
H235	H	0.496488	-0.236853	-0.027824
H236	H	-0.586315	-0.066836	-0.224702
C237	C	0.305838	-0.447301	-0.458100
H238	H	0.283700	-0.413204	-0.466044
H239	H	0.309492	-0.418834	-0.427959
H240	H	0.265958	-0.506190	-0.460072
H241	H	-0.449229	0.177371	-0.300885
H242	H	-0.281187	0.020914	-0.148901
C243	C	0.561980	-0.372154	-0.591564
H244	H	0.521936	-0.343179	-0.590228
H245	H	0.573217	-0.416383	-0.619999
H246	H	0.617332	-0.328863	-0.588186
C247	C	0.442578	-0.691491	-0.511834
H248	H	0.419167	-0.649920	-0.513396
H249	H	0.406722	-0.710612	-0.485321
H250	H	0.441321	-0.742142	-0.537876
H251	H	-0.037138	-0.474881	-0.380005
H252	H	-0.037089	-0.236932	-0.761035
H253	H	-0.531920	0.039247	-0.151930
H254	H	0.496441	-0.236915	-0.527803
C255	C	0.250183	-0.500527	-0.029237
H256	H	0.190111	-0.518206	-0.030594
H257	H	0.249113	-0.506526	-0.002048
H258	H	0.283896	-0.537815	-0.054602
H259	H	0.001660	-0.441639	-0.159184
H260	H	-0.490116	0.084434	0.126151
H261	H	0.088099	-0.448874	-0.845454
H262	H	0.718758	-0.692512	-0.505593
C263	C	0.658774	-0.469154	-0.081153
H264	H	0.675532	-0.437489	-0.102573
H265	H	0.657815	-0.530487	-0.096617
H266	H	0.701340	-0.443135	-0.064500
H267	H	0.245737	-0.223998	-0.033572
C268	C	0.714408	-0.415991	-0.509990
H269	H	0.774481	-0.398327	-0.508637
H270	H	0.680708	-0.378681	-0.484636
H271	H	0.715493	-0.410014	-0.537190
H272	H	0.634089	-0.467700	-0.572564
H273	H	0.468233	-0.679598	-0.011487
H274	H	-0.142686	-0.383972	-0.734830
C275	C	-0.768508	0.090726	-0.383508
H276	H	-0.731874	0.089720	-0.413781
H277	H	-0.786998	0.144700	-0.369131
H278	H	-0.820299	0.040393	-0.383795
H279	H	-0.048809	-0.224052	-0.886301
H280	H	0.107227	-0.532615	-0.804368
H281	H	-0.142704	-0.524425	-0.305055
C282	C	-0.478132	0.069677	-0.379944
H283	H	-0.454712	0.065925	-0.359477
H284	H	-0.442282	0.121729	-0.389992
H285	H	-0.476879	0.017555	-0.405284
C286	C	0.014314	-0.706490	-0.145911
H287	H	0.015105	-0.669074	-0.116148
H288	H	0.067408	-0.726798	-0.160759
H289	H	-0.037397	-0.756852	-0.144218
C290	C	-0.749937	0.080733	-0.238504
H291	H	-0.810012	0.085062	-0.228856
H292	H	-0.716235	0.130529	-0.220306
H293	H	-0.751016	0.026362	-0.235503
C294	C	0.000897	-0.691485	-0.290987
H295	H	0.003365	-0.751862	-0.299852
H296	H	0.051105	-0.659645	-0.310323
H297	H	-0.053585	-0.691174	-0.293235
C298	C	-0.140576	-0.469257	-0.681468
H299	H	-0.124240	-0.503357	-0.670625
H300	H	-0.200474	-0.497724	-0.683491
H301	H	-0.137424	-0.410371	-0.661133
C302	C	-0.423143	-0.079886	0.197473
H303	H	-0.393588	-0.077870	0.216876
H304	H	-0.380444	-0.075641	0.168844
H305	H	-0.469034	-0.135044	0.193545
C306	C	0.733160	-0.706484	-0.005403
H307	H	0.696536	-0.766046	-0.005424
H308	H	0.751683	-0.678267	0.021324
H309	H	0.784932	-0.708432	-0.031281
C310	C	-0.487639	0.193172	0.323262
H311	H	-0.453678	0.176212	0.333862
H312	H	-0.546057	0.192163	0.344432
H313	H	-0.457609	0.252181	0.320017
C314	C	-0.585430	0.216777	0.276592
H315	H	-0.573446	0.251387	0.304766
H316	H	-0.648897	0.194211	0.281436
H317	H	-0.560315	0.253633	0.256742
C318	C	-0.036348	-0.500574	-0.885958
H319	H	-0.032692	-0.523539	-0.865220
H320	H	0.015053	-0.503909	-0.911978
H321	H	-0.089637	-0.535234	-0.894795
C322	C	0.231561	-0.210028	-0.533945
H323	H	0.172531	-0.247443	-0.534588
H324	H	0.260982	-0.189719	-0.560356
H325	H	0.227506	-0.159667	-0.507754
H326	H	0.001632	-0.679646	-0.778160
C327	C	0.014261	-0.706522	-0.645895
H328	H	0.015049	-0.669105	-0.616131
H329	H	0.067353	-0.726834	-0.660740
H330	H	-0.037452	-0.756881	-0.644203
C331	C	-0.736430	0.093938	0.261315
H332	H	-0.694643	0.089456	0.272229
H333	H	-0.788432	0.043996	0.263693
H334	H	-0.753631	0.148162	0.278874
H335	H	-0.123560	-0.607102	-0.263443
C336	C	-0.694184	-0.062942	-0.265887
H337	H	-0.716319	-0.046461	-0.282639
H338	H	-0.734059	-0.057926	-0.235905
H339	H	-0.690524	-0.123325	-0.280175
