data_functionalizedCrystal
_audit_creation_method	'MofGen! by Chris Wilmer'
_symmetry_space_group_name_H-M	'P1'
_symmetry_Int_Tables_number	1
_symmetry_cell_setting	triclinic
loop_
_symmetry_equiv_pos_as_xyz
  x,y,z
_cell_length_a	23.096457
_cell_length_b	12.970454
_cell_length_c	12.970454
_cell_angle_alpha	59.999776
_cell_angle_beta	89.998137
_cell_angle_gamma	59.999719
loop_
_atom_site_label
_atom_site_type_symbol
_atom_site_fract_x
_atom_site_fract_y
_atom_site_fract_z
Zr1	Zr	0.557765	1.128537	-0.135341
O2	O	0.465317	1.343624	-0.299960
O3	O	0.586105	0.913447	-0.084876
O4	O	0.586106	1.128537	-0.299967
O5	O	0.465316	1.128535	0.084797
O6	O	0.681387	1.128540	-0.299973
O7	O	0.465317	1.128534	-0.084869
O8	O	0.681385	0.743784	0.084785
O9	O	0.465317	1.513292	-0.299961
O10	O	0.669299	1.001920	-0.063359
O11	O	0.598192	1.001918	0.063266
O12	O	0.598193	1.255159	-0.189976
O13	O	0.527086	1.255157	-0.063351
Zr14	Zr	0.709725	1.128543	0.135247
Zr15	Zr	0.709727	1.128541	-0.135351
Zr16	Zr	0.557764	1.128538	0.135257
Zr17	Zr	0.557765	1.399137	-0.135343
Zr18	Zr	0.709725	0.857943	0.135249
O19	O	0.681385	1.343633	0.084782
O20	O	0.681387	1.343631	-0.299974
O21	O	0.465316	1.343626	0.084796
O22	O	0.802173	0.913456	0.299866
O23	O	0.802175	0.913454	-0.084890
O24	O	0.586104	0.913449	0.299880
O25	O	0.802175	1.128545	-0.084891
O26	O	0.681384	1.128543	0.299873
O27	O	0.586104	1.128540	0.299879
O28	O	0.802174	1.128545	0.084775
O29	O	0.586106	1.513295	-0.299969
O30	O	0.681384	0.743785	0.299875
O31	O	0.802173	0.743788	0.299867
O32	O	0.802174	0.743787	0.084777
O33	O	0.465317	1.513293	-0.084871
O34	O	0.586106	1.513296	-0.084879
O35	O	0.669298	1.001921	0.189882
O36	O	0.740405	1.001923	0.063257
O37	O	0.669299	1.255162	-0.063360
O38	O	0.598192	1.255160	0.063265
C39	C	0.633745	0.790061	-0.000045
C40	C	0.633745	0.675184	-0.000045
C41	C	0.443665	1.128534	-0.000035
C42	C	0.379154	1.128532	-0.000030
C43	C	0.385964	0.996348	0.066050
C44	C	0.325349	0.996346	0.066056
C45	C	0.257923	1.128536	-0.000044
C46	C	0.251114	1.260737	-0.066128
C47	C	0.311730	1.260736	-0.066121
N48	N	0.135128	1.226931	-0.107618
N49	N	0.077548	1.226924	-0.107622
C50	C	0.075290	1.128549	-0.000067
N51	N	0.132793	1.030159	0.107491
N52	N	0.190379	1.030162	0.107493
C53	C	0.192192	1.128552	-0.000058
C54	C	0.016378	0.996353	0.066026
C55	C	-0.044241	0.996357	0.066035
C56	C	-0.118475	1.260752	-0.066161
C57	C	-0.057857	1.260744	-0.066157
C58	C	0.009567	1.128541	-0.000067
C59	C	0.823826	1.128546	-0.000059
C60	C	0.888337	1.128548	-0.000064
C61	C	0.633747	1.128538	-0.338525
C62	C	0.633747	1.128538	-0.453401
C63	C	0.633745	1.467019	-0.000049
C64	C	0.633745	1.581896	-0.000049
C65	C	0.633744	1.128542	0.338430
C66	C	0.633744	1.128542	0.453307
C67	C	0.823826	0.790066	-0.000058
C68	C	0.888337	0.675192	-0.000061
C69	C	0.633744	0.790062	0.338432
C70	C	0.633744	0.675186	0.453309
C71	C	0.823824	0.790068	0.338420
C72	C	0.888335	0.675194	0.453292
C73	C	0.443666	1.467012	-0.338514
C74	C	0.379155	1.581886	-0.453386
C75	C	0.443665	1.467013	-0.000036
C76	C	0.379154	1.581888	-0.000033
C77	C	0.633747	1.467017	-0.338526
C78	C	0.633747	1.581894	-0.453403
C79	C	0.881516	0.621244	-0.066166
C80	C	0.942125	0.513322	-0.066195
C81	C	1.009556	0.459342	-0.000111
C82	C	1.016376	0.513300	0.065996
C83	C	0.955767	0.621228	0.066017
C84	C	0.955754	0.621249	0.441141
C85	C	1.016375	0.513327	0.549065
C86	C	1.009575	0.459346	0.669140
C87	C	0.942150	0.513302	0.681289
C88	C	0.881530	0.621229	0.573366
C89	C	0.311737	1.635844	-0.441235
C90	C	0.251116	1.743799	-0.549160
C91	C	0.257915	1.797787	-0.669234
C92	C	0.325341	1.743824	-0.681384
C93	C	0.385960	1.635878	-0.573460
C94	C	0.385975	1.635847	0.066061
C95	C	0.325365	1.743799	0.066060
C96	C	0.257935	1.797783	-0.000028
C97	C	0.251115	1.743819	-0.066130
C98	C	0.311724	1.635877	-0.066136
H99	H	0.440860	0.888698	0.119858
C100	C	0.304239	1.406147	-0.138824
C101	C	0.370913	1.406148	-0.138824
C102	C	0.363423	1.551561	-0.211532
C103	C	0.289260	1.696972	-0.284238
C104	C	0.222581	1.696977	-0.284241
C105	C	0.230070	1.551564	-0.211533
H106	H	0.425818	1.298501	-0.085000
H107	H	0.412784	1.551556	-0.211529
H108	H	0.283715	1.804616	-0.338060
H109	H	0.167676	1.804624	-0.338065
H110	H	0.180710	1.551569	-0.211535
H111	H	0.961304	0.665185	0.343379
H112	H	0.330932	1.787718	0.119893
H113	H	1.058902	0.371459	-0.000136
H114	H	-0.063406	1.368383	-0.119976
H115	H	0.826637	0.665137	0.583278
C116	C	0.176954	1.803130	-0.535775
C117	C	0.154679	1.877285	-0.466364
C118	C	0.080520	1.936609	-0.452975
C119	C	0.028636	1.921778	-0.508998
C120	C	0.050910	1.847619	-0.578415
C121	C	0.125069	1.788296	-0.591803
H122	H	0.193088	1.888266	-0.424888
H123	H	0.064032	1.991505	-0.401589
H124	H	-0.026261	1.965693	-0.499087
H125	H	0.012501	1.836638	-0.619890
H126	H	0.141557	1.733399	-0.643190
C127	C	1.090551	0.453906	0.138699
C128	C	1.112844	0.379677	0.282274
C129	C	1.187021	0.320271	0.354985
C130	C	1.238905	0.335094	0.284121
C131	C	1.216613	0.409327	0.140537
C132	C	1.142436	0.468732	0.067826
H133	H	1.074436	0.368701	0.334739
H134	H	1.203523	0.265320	0.461276
H135	H	1.293815	0.291119	0.337946
H136	H	1.255021	0.420303	0.088072
H137	H	1.125934	0.523684	-0.038464
H138	H	0.961331	0.665139	0.119855
H139	H	1.071270	0.469407	0.539151
C140	C	0.460120	1.576515	-0.586839
C141	C	0.526809	1.457773	-0.468145
C142	C	0.600967	1.398416	-0.481535
C143	C	0.608438	1.457802	-0.613620
C144	C	0.541747	1.576551	-0.732324
C145	C	0.467588	1.635907	-0.718934
H146	H	0.521281	1.413806	-0.370359
H147	H	0.650336	1.310510	-0.393662
H148	H	0.663334	1.413863	-0.623532
H149	H	0.547275	1.620518	-0.830109
H150	H	0.418220	1.723814	-0.806807
H151	H	0.208589	1.885677	-0.000014
H152	H	1.058941	0.371464	0.757008
C153	C	0.176937	1.803198	-0.138808
C154	C	0.125053	1.966449	-0.246011
C155	C	0.050873	2.025821	-0.318676
C156	C	0.028577	1.921944	-0.284137
C157	C	0.080463	1.758683	-0.176928
C158	C	0.154643	1.699310	-0.104264
H159	H	0.141556	2.043354	-0.271583
H160	H	0.012464	2.146678	-0.398039
H161	H	-0.026335	1.965895	-0.337928
H162	H	0.063960	1.681778	-0.151356
H163	H	0.193052	1.578454	-0.024901
H164	H	0.330895	0.888702	0.119867
H165	H	0.196212	1.368367	-0.119946
H166	H	0.936624	0.469334	0.779069
H167	H	0.306160	1.591946	-0.119954
H168	H	0.071278	0.888705	0.119867
H169	H	0.440875	1.591902	0.119886
C170	C	-0.036748	0.850943	0.138748
C171	C	0.037416	0.705534	0.211451
C172	C	0.044908	0.560119	0.284173
C173	C	-0.021764	0.560113	0.284192
C174	C	-0.095934	0.705528	0.211486
C175	C	-0.103426	0.850943	0.138764
H176	H	0.086776	0.705534	0.211440
H177	H	0.099814	0.452473	0.337995
H178	H	-0.016218	0.452468	0.338026
H179	H	-0.145293	0.705529	0.211498
H180	H	-0.158331	0.958589	0.084943
H181	H	0.208549	1.885682	-0.757102
H182	H	-0.173373	1.368383	-0.119981
H183	H	0.936558	0.469402	-0.120027
C184	C	0.807347	0.680614	-0.138874
C185	C	0.799859	0.621265	-0.211595
C186	C	0.725693	0.680635	-0.284315
C187	C	0.659015	0.799354	-0.284314
C188	C	0.666501	0.858710	-0.211590
C189	C	0.740667	0.799340	-0.138870
H190	H	0.849220	0.533376	-0.211599
H191	H	0.720151	0.636695	-0.338150
H192	H	0.604112	0.843303	-0.338146
H193	H	0.617140	0.946599	-0.211587
H194	H	0.746208	0.843280	-0.085036
H195	H	0.306187	1.591894	-0.343474
H196	H	0.330869	1.787794	-0.779161
