data_functionalizedCrystal
_audit_creation_method	'MofGen! by Chris Wilmer'
_symmetry_space_group_name_H-M	'P1'
_symmetry_Int_Tables_number	1
_symmetry_cell_setting	triclinic
loop_
_symmetry_equiv_pos_as_xyz
  x,y,z
_cell_length_a	14.519709
_cell_length_b	17.038272
_cell_length_c	12.996460
_cell_angle_alpha	89.993697
_cell_angle_beta	90.000034
_cell_angle_gamma	87.395851
loop_
_atom_site_label
_atom_site_type_symbol
_atom_site_fract_x
_atom_site_fract_y
_atom_site_fract_z
O1	O	1.231711	0.102503	-0.085433
O2	O	1.731711	0.602503	0.414567
O3	O	0.964158	0.114573	-0.085465
O4	O	1.464158	0.614573	0.414535
O5	O	1.096345	-0.005280	-0.085441
O6	O	1.596345	0.494720	0.414559
O7	O	1.099525	0.222356	-0.085457
O8	O	1.599525	0.722356	0.414543
O9	O	1.096329	-0.005287	0.085693
O10	O	1.596329	0.494713	0.585693
O11	O	0.964143	0.114567	0.085669
O12	O	1.464143	0.614567	0.585669
O13	O	1.231696	0.102496	0.085701
O14	O	1.731696	0.602496	0.585701
Cu15	Cu	1.097918	0.108531	0.101311
Cu16	Cu	1.597918	0.608531	0.601311
Cu17	Cu	1.097936	0.108539	-0.101075
Cu18	Cu	1.597936	0.608539	0.398925
O19	O	1.099510	0.222349	0.085677
O20	O	1.599510	0.722349	0.585677
C21	C	0.929748	0.114008	0.000098
C22	C	1.429748	0.614008	0.500098
C23	C	0.827237	0.112322	0.000086
C24	C	1.327237	0.612322	0.500086
C25	C	1.093444	-0.034416	0.000125
C26	C	1.593444	0.465584	0.500125
C27	C	1.084814	-0.121223	0.000124
C28	C	1.584814	0.378777	0.500124
C29	C	0.451867	0.106116	0.000134
C30	C	0.951867	0.606116	0.500134
C31	C	0.556307	0.107839	0.000120
C32	C	1.056307	0.607839	0.500120
C33	C	0.639549	0.109219	0.000109
C34	C	1.139549	0.609219	0.500109
C35	C	0.743995	0.110942	0.000098
C36	C	1.243995	0.610942	0.500098
C37	C	1.164047	-0.171209	0.000135
C38	C	1.664047	0.328791	0.500135
C39	C	1.155933	-0.252773	0.000124
C40	C	1.655933	0.247227	0.500124
C41	C	1.068585	-0.284349	0.000110
C42	C	1.568585	0.215651	0.500110
C43	C	0.989347	-0.234357	0.000097
C44	C	1.489347	0.265643	0.500097
C45	C	0.997462	-0.152795	0.000100
C46	C	1.497462	0.347205	0.500100
C47	C	1.039916	-0.530153	0.000093
C48	C	1.539916	-0.030153	0.500093
C49	C	1.031807	-0.611722	0.000092
C50	C	1.531807	-0.111722	0.500092
C51	C	1.198394	-0.630132	0.000118
C52	C	1.698394	-0.130132	0.500118
C53	C	1.206502	-0.548568	0.000127
C54	C	1.706502	-0.048568	0.500127
C55	C	1.127263	-0.498583	0.000108
C56	C	1.627263	0.001417	0.500108
C57	C	1.060289	-0.367720	0.000102
C58	C	1.560289	0.132280	0.500102
C59	C	1.135560	-0.415213	0.000109
C60	C	1.635560	0.084787	0.500109
C61	C	1.266107	0.103062	0.000135
C62	C	1.766107	0.603062	0.500135
C63	C	1.368617	0.104748	0.000141
C64	C	1.868617	0.604748	0.500141
C65	C	1.102410	0.251486	0.000108
C66	C	1.602410	0.751486	0.500108
C67	C	1.111040	0.338292	0.000103
C68	C	1.611040	0.838292	0.500103
N69	N	1.097912	0.108525	0.243658
N70	N	1.597912	0.608525	0.743658
N71	N	1.097949	0.108538	-0.243422
N72	N	1.597949	0.608538	0.256578
C73	C	1.097935	0.108539	0.663472
C74	C	1.597935	0.608539	1.163472
C75	C	1.097926	0.108538	0.546667
C76	C	1.597926	0.608538	1.046667
C77	C	1.097924	0.108533	0.453569
C78	C	1.597924	0.608533	0.953569
C79	C	1.097914	0.108530	0.336756
C80	C	1.597914	0.608530	0.836756
H81	H	1.220453	-0.293468	0.000135
H82	H	1.720453	0.206532	0.500135
H83	H	1.235175	-0.145506	0.000152
H84	H	1.735175	0.354494	0.500152
C85	C	1.285552	-0.685117	0.000128
C86	C	1.785552	-0.185117	0.500128
C87	C	1.355376	-0.681508	0.089000
C88	C	1.855376	-0.181508	0.589000
C89	C	1.442538	-0.736493	0.089006
C90	C	1.942538	-0.236493	0.589006
C91	C	1.459876	-0.795087	0.000139
C92	C	1.959876	-0.295087	0.500139
C93	C	1.390050	-0.798697	-0.088741
C94	C	1.890050	-0.298697	0.411259
C95	C	1.302888	-0.743713	-0.088746
C96	C	1.802888	-0.243713	0.411254
H97	H	1.342543	-0.638132	0.154791
H98	H	1.842543	-0.138132	0.654791
H99	H	1.494227	-0.733820	0.154801
H100	H	1.994227	-0.233820	0.654801
H101	H	1.524398	-0.835790	0.000143
H102	H	2.024398	-0.335790	0.500143
H103	H	1.402883	-0.842074	-0.154532
H104	H	1.902883	-0.342074	0.345468
H105	H	1.251199	-0.746386	-0.154541
H106	H	1.751199	-0.246386	0.345459
H107	H	0.960675	-0.637427	0.000098
H108	H	1.460675	-0.137427	0.500098
H109	H	0.975394	-0.489465	0.000078
H110	H	1.475394	0.010535	0.500078
H111	H	1.277629	-0.522865	0.000139
H112	H	1.777629	-0.022865	0.500139
H113	H	0.918226	-0.260072	0.000079
H114	H	1.418226	0.239928	0.500079
H115	H	1.206678	-0.389500	0.000097
H116	H	1.706678	0.110500	0.500097
C117	C	0.910305	-0.097806	0.000090
C118	C	1.410305	0.402194	0.500090
C119	C	0.840485	-0.101418	-0.088785
C120	C	1.340485	0.398582	0.411215
C121	C	0.753326	-0.046430	-0.088801
C122	C	1.253326	0.453570	0.411199
C123	C	0.735987	0.012170	0.000058
C124	C	1.235987	0.512170	0.500058
C125	C	0.805809	0.015785	0.088940
C126	C	1.305809	0.515785	0.588940
C127	C	0.892968	-0.039204	0.088957
C128	C	1.392968	0.460796	0.588957
H129	H	0.853318	-0.144799	-0.154571
H130	H	1.353318	0.355201	0.345429
H131	H	0.701639	-0.049106	-0.154599
H132	H	1.201639	0.450894	0.345401
H133	H	0.671466	0.052876	0.000046
H134	H	1.171466	0.552876	0.500046
H135	H	0.792976	0.059166	0.154726
H136	H	1.292976	0.559166	0.654726
H137	H	0.944655	-0.036528	0.154754
H138	H	1.444655	0.463472	0.654754
H139	H	0.989170	-0.393438	0.000093
H140	H	1.489170	0.106562	0.500093
