data_functionalizedCrystal
_audit_creation_method	'MofGen! by Chris Wilmer'
_symmetry_space_group_name_H-M	'P1'
_symmetry_Int_Tables_number	1
_symmetry_cell_setting	triclinic
loop_
_symmetry_equiv_pos_as_xyz
  x,y,z
_cell_length_a	19.188930
_cell_length_b	19.188925
_cell_length_c	17.666332
_cell_angle_alpha	89.989697
_cell_angle_beta	89.988397
_cell_angle_gamma	83.143665
loop_
_atom_site_label
_atom_site_type_symbol
_atom_site_fract_x
_atom_site_fract_y
_atom_site_fract_z
O1	O	0.087151	0.926152	-0.062973
O2	O	0.098889	0.722840	-0.062972
O3	O	-0.008636	0.830363	-0.062958
O4	O	0.194676	0.818629	-0.062987
O5	O	-0.008642	0.830344	0.062939
O6	O	0.098883	0.722821	0.062925
O7	O	0.087145	0.926133	0.062924
Cu8	Cu	0.093014	0.824476	0.074419
Cu9	Cu	0.093020	0.824498	-0.074468
O10	O	0.194670	0.818610	0.062909
C11	C	0.098507	0.696820	-0.000023
C12	C	0.097367	0.619315	-0.000022
C13	C	0.152831	0.057545	-0.000032
C14	C	0.153908	0.130368	-0.000037
C15	C	0.090816	0.175302	-0.000026
C16	C	0.026642	0.147408	-0.000031
C17	C	0.025568	0.074586	-0.000034
N18	N	0.045138	0.295973	0.042837
N19	N	0.046163	0.365150	0.042842
C20	C	0.094050	0.394712	-0.000018
N21	N	0.140883	0.352481	-0.042872
N22	N	0.139860	0.283297	-0.042874
C23	C	0.091974	0.254267	-0.000023
C24	C	0.159386	0.501561	-0.000023
C25	C	0.160460	0.574385	-0.000032
C26	C	0.033193	0.591425	-0.000018
C27	C	0.032121	0.518601	-0.000017
C28	C	0.095220	0.473673	-0.000016
C29	C	-0.034650	0.829974	-0.000007
C30	C	-0.112154	0.828833	-0.000001
C31	C	-0.157079	0.891924	0.000003
C32	C	-0.229903	0.890852	-0.000010
C33	C	-0.257799	0.826686	-0.000010
C34	C	-0.212864	0.763587	-0.000017
C35	C	-0.140041	0.764660	-0.000013
N36	N	-0.365805	0.777632	0.042835
N37	N	-0.434983	0.776617	0.042833
C38	C	-0.477207	0.823448	-0.000025
N39	N	-0.447641	0.871344	-0.042871
N40	N	-0.378456	0.872361	-0.042865
C41	C	-0.336761	0.825515	-0.000015
C42	C	-0.601097	0.885381	-0.000036
C43	C	-0.673922	0.884307	-0.000053
C44	C	-0.656880	0.757040	-0.000053
C45	C	-0.584057	0.758116	-0.000044
C46	C	-0.556170	0.822289	-0.000032
C47	C	0.220684	0.819000	-0.000043
C48	C	0.298188	0.820140	-0.000054
N49	N	0.093008	0.824465	0.179139
C50	C	0.087527	0.952154	-0.000027
C51	C	0.088666	1.029658	-0.000033
N52	N	0.093020	0.824514	-0.179187
C53	C	0.045420	0.872092	0.218755
C54	C	0.045416	0.872096	0.298003
C55	C	0.093014	0.824480	0.337631
C56	C	0.140606	0.776844	0.298005
C57	C	0.140604	0.776837	0.218759
N58	N	0.154821	0.815404	0.462041
N59	N	0.154821	0.815415	0.537321
C60	C	0.093023	0.824498	0.576395
N61	N	0.031223	0.833584	0.537345
N62	N	0.031223	0.833576	0.462057
C63	C	0.093022	0.824482	0.423560
C64	C	0.045427	0.872132	0.701940
C65	C	0.045423	0.872131	0.781190
C66	C	0.140619	0.776883	0.781191
C67	C	0.140617	0.776880	0.701943
C68	C	0.093022	0.824509	0.662323
H69	H	-0.018178	0.628010	-0.000016
O70	O	-0.242948	0.694379	-0.000008
H71	H	-0.275716	0.690854	-0.051317
O72	O	0.223120	0.160453	-0.000030
H73	H	0.213265	0.218639	-0.000031
H74	H	-0.103462	0.713282	-0.000015
H75	H	0.006663	0.910871	0.186498
O76	O	-0.571009	0.954591	-0.000038
H77	H	-0.614487	0.998284	-0.000052
H78	H	-0.679592	0.704794	-0.000057
O79	O	-0.535599	0.690065	-0.000028
H80	H	-0.545481	0.659347	-0.051337
O81	O	-0.722383	0.952358	-0.000043
H82	H	-0.690753	0.997158	-0.000024
H83	H	-0.266488	0.942230	-0.000010
H84	H	0.006662	0.910880	0.330264
H85	H	0.179360	0.738074	0.330275
O86	O	0.191977	0.725547	0.823926
H87	H	0.225076	0.692433	0.783061
O88	O	0.191953	0.725520	0.659206
H89	H	0.225055	0.692413	0.700073
O90	O	0.220888	0.009091	-0.000037
H91	H	0.209363	-0.046233	-0.000033
H92	H	0.179357	0.738053	0.186503
O93	O	-0.041406	0.195873	-0.000013
H94	H	-0.072119	0.186001	-0.051327
H95	H	0.006670	0.910911	0.669680
O96	O	-0.005900	0.923509	0.823925
H97	H	-0.038987	0.956631	0.783057
H98	H	-0.026685	0.051883	-0.000035
H99	H	0.210765	0.464978	-0.000023
H100	H	0.212713	0.597088	-0.000038
H101	H	-0.020129	0.495896	-0.000013
H102	H	-0.134379	0.944179	0.000010
