data_functionalizedCrystal
_audit_creation_method	'MofGen! by Chris Wilmer'
_symmetry_space_group_name_H-M	'P1'
_symmetry_Int_Tables_number	1
_symmetry_cell_setting	triclinic
loop_
_symmetry_equiv_pos_as_xyz
  x,y,z
_cell_length_a	14.044220
_cell_length_b	17.038272
_cell_length_c	13.101039
_cell_angle_alpha	93.604737
_cell_angle_beta	86.340132
_cell_angle_gamma	92.150217
loop_
_atom_site_label
_atom_site_type_symbol
_atom_site_fract_x
_atom_site_fract_y
_atom_site_fract_z
O1	O	1.277881	0.185592	-0.085106
O2	O	1.001361	0.178751	-0.085132
O3	O	1.137977	0.068241	-0.085111
O4	O	1.141265	0.296101	-0.085127
O5	O	1.128176	0.076185	0.085317
O6	O	0.991560	0.186694	0.085296
O7	O	1.268080	0.193535	0.085322
Zn8	Zn	1.128264	0.191376	0.112368
Zn9	Zn	1.141177	0.180910	-0.112178
O10	O	1.131464	0.304045	0.085301
C11	C	0.960905	0.179728	0.000079
C12	C	0.854960	0.170796	0.000069
C13	C	0.660980	0.154468	0.000091
C14	C	0.608455	0.217813	0.000090
C15	C	0.500518	0.208729	0.000102
C16	C	0.768927	0.163552	0.000079
C17	C	1.130087	0.042876	0.000103
C18	C	1.121168	-0.044541	0.000101
C19	C	1.203056	-0.088926	0.000110
C20	C	1.194670	-0.171064	0.000100
C21	C	1.104396	-0.208815	0.000088
C22	C	1.022502	-0.164424	0.000076
C23	C	1.030889	-0.082288	0.000079
C24	C	1.074767	-0.456646	0.000071
C25	C	1.066386	-0.538788	0.000071
C26	C	1.238555	-0.545423	0.000093
C27	C	1.246934	-0.463285	0.000102
C28	C	1.165040	-0.418901	0.000085
C29	C	1.095822	-0.292773	0.000080
C30	C	1.173615	-0.334945	0.000085
C31	C	1.308536	0.192558	0.000109
C32	C	1.414482	0.201490	0.000112
C33	C	1.139354	0.329410	0.000085
C34	C	1.148273	0.416827	0.000080
N35	N	1.119458	0.198518	0.265616
N36	N	1.149990	0.173762	-0.265426
C37	C	1.107478	0.208243	0.474656
C38	C	1.161967	0.164040	0.525540
C39	C	1.155301	0.169451	0.641858
C40	C	1.114143	0.202833	0.358328
H41	H	0.644550	0.278868	0.000081
O42	O	1.008061	-0.329322	0.000028
C43	C	0.838171	-0.314081	0.000076
C44	C	0.937502	-0.272586	0.000117
H45	H	0.781096	-0.268227	0.000169
H46	H	0.833986	-0.355663	-0.071270
H47	H	0.825896	-0.349077	0.071378
H48	H	0.949842	-0.237548	-0.071138
H49	H	0.941639	-0.231050	0.071509
O50	O	1.334553	-0.426490	0.000148
C51	C	1.423777	-0.302899	0.000088
C52	C	1.324489	-0.344468	0.000058
H53	H	1.415675	-0.236579	-0.000007
H54	H	1.460499	-0.317304	0.071430
H55	H	1.468670	-0.324053	-0.071218
H56	H	1.279519	-0.323338	0.071316
H57	H	1.287842	-0.330064	-0.071331
O58	O	0.617779	0.081690	0.000048
C59	C	0.469228	0.006173	0.000116
C60	C	0.518047	0.088638	0.000145
H61	H	0.388586	0.011764	0.000216
H62	H	0.495509	-0.030478	-0.071229
H63	H	0.487454	-0.023818	0.071419
H64	H	0.499843	0.118697	-0.071110
H65	H	0.491763	0.125232	0.071537
O66	O	1.318084	-0.588580	-0.000082
C67	C	1.413582	-0.689308	-0.088345
C68	C	1.323492	-0.640473	-0.088281
H69	H	1.417974	-0.731286	-0.159635
H70	H	1.479582	-0.648258	-0.088404
H71	H	1.409851	-0.724572	-0.016990
H72	H	1.327130	-0.605204	-0.159623
H73	H	1.257530	-0.681565	-0.088168
O74	O	1.290675	-0.052132	0.000166
C75	C	1.379907	0.071455	0.000113
C76	C	1.280617	0.029891	0.000078
H77	H	1.371810	0.137775	0.000020
H78	H	1.416626	0.057046	0.071456
H79	H	1.424801	0.050301	-0.071192
H80	H	1.235646	0.051021	0.071335
H81	H	1.243973	0.044298	-0.071311
H82	H	0.948998	-0.195167	0.000060
H83	H	1.261352	-0.207199	0.000109
H84	H	0.992869	-0.569521	0.000078
O85	O	0.951243	-0.039286	0.000116
C86	C	0.779594	-0.041372	0.000025
C87	C	0.869715	-0.090164	0.000015
H88	H	0.713657	-0.082487	-0.000079
H89	H	0.775042	0.000553	0.071364
H90	H	0.783377	-0.006055	-0.071284
H91	H	0.865994	-0.125528	0.071276
H92	H	0.874235	-0.132039	-0.071371
O93	O	1.223391	0.113956	0.473144
C94	C	1.285791	0.062557	0.307753
C95	C	1.216328	0.119419	0.366967
H96	H	1.280089	0.066942	0.221898
H97	H	1.361927	0.078807	0.328544
H98	H	1.266730	-0.000222	0.328989
H99	H	1.235301	0.182217	0.345763
H100	H	1.140211	0.103102	0.346171
O101	O	1.261261	-0.298195	-0.000040
C102	C	1.375742	-0.213453	-0.088345
C103	C	1.276454	-0.255023	-0.088324
H104	H	1.388066	-0.178551	-0.159726
H105	H	1.379881	-0.171792	-0.017068
H106	H	1.432817	-0.259292	-0.088285
H107	H	1.219322	-0.209240	-0.088420
H108	H	1.272397	-0.296698	-0.159595
O109	O	1.045806	0.258135	0.527007
C110	C	0.910134	0.271467	0.648266
C111	C	0.979921	0.214879	0.589044
H112	H	0.856836	0.236516	0.698421
H113	H	0.951662	0.315859	0.698562
H114	H	0.870200	0.303922	0.591594
H115	H	1.019873	0.182370	0.645642
H116	H	0.938340	0.170537	0.538733
H117	H	1.008083	-0.420519	0.000057
