data_functionalizedCrystal
_audit_creation_method	'MofGen! by Chris Wilmer'
_symmetry_space_group_name_H-M	'P1'
_symmetry_Int_Tables_number	1
_symmetry_cell_setting	triclinic
loop_
_symmetry_equiv_pos_as_xyz
  x,y,z
_cell_length_a	18.050590
_cell_length_b	21.295417
_cell_length_c	18.050582
_cell_angle_alpha	89.974292
_cell_angle_beta	90.000767
_cell_angle_gamma	90.018869
loop_
_atom_site_label
_atom_site_type_symbol
_atom_site_fract_x
_atom_site_fract_y
_atom_site_fract_z
Zn1	Zn	1.135285	-0.250831	-0.419585
Zn2	Zn	1.468618	0.082502	-0.086252
Zn3	Zn	1.801951	0.415835	0.247081
Zn4	Zn	1.135192	-0.356092	-0.295389
Zn5	Zn	1.468526	-0.022759	0.037945
Zn6	Zn	1.801859	0.310574	0.371278
Zn7	Zn	1.011104	-0.250821	-0.295444
Zn8	Zn	1.344437	0.082512	0.037890
Zn9	Zn	1.677771	0.415845	0.371223
Zn10	Zn	1.011049	-0.356047	-0.419571
Zn11	Zn	1.344382	-0.022713	-0.086238
Zn12	Zn	1.677715	0.310620	0.247096
O13	O	1.073157	-0.303448	-0.357497
O14	O	1.406491	0.029885	-0.024164
O15	O	1.739824	0.363219	0.309170
O16	O	1.239197	-0.264818	-0.403093
O17	O	1.572530	0.068516	-0.069760
O18	O	1.905864	0.401849	0.263573
O19	O	1.118716	-0.342143	-0.191471
O20	O	1.452049	-0.008810	0.141862
O21	O	1.785383	0.324524	0.475195
O22	O	1.027639	-0.162733	-0.311940
O23	O	1.360972	0.170600	0.021393
O24	O	1.694305	0.503934	0.354727
O25	O	1.239129	-0.342153	-0.311847
O26	O	1.572462	-0.008819	0.021487
O27	O	1.905796	0.324514	0.354820
O28	O	1.118874	-0.162741	-0.403147
O29	O	1.452207	0.170593	-0.069813
O30	O	1.785540	0.503926	0.263520
O31	O	1.027549	-0.264801	-0.191512
O32	O	1.360882	0.068533	0.141822
O33	O	1.694216	0.401866	0.475155
O34	O	0.907172	-0.264756	-0.311926
O35	O	1.240505	0.068577	0.021407
O36	O	1.573839	0.401910	0.354740
O37	O	1.027545	-0.342075	-0.523498
O38	O	1.360878	-0.008741	-0.190164
O39	O	1.694211	0.324592	0.143169
O40	O	0.907132	-0.342065	-0.403122
O41	O	1.240465	-0.008732	-0.069789
O42	O	1.573798	0.324602	0.263544
O43	O	1.118820	-0.264773	-0.523508
O44	O	1.452154	0.068560	-0.190175
O45	O	1.785487	0.401893	0.143159
O46	O	1.118663	-0.444176	-0.311833
O47	O	1.451996	-0.110842	0.021501
O48	O	1.785329	0.222491	0.354834
O49	O	1.027455	-0.444142	-0.403069
O50	O	1.360788	-0.110809	-0.069736
O51	O	1.694122	0.222525	0.263598
C52	C	0.880205	-0.303405	-0.357529
C53	C	1.213539	0.029928	-0.024196
C54	C	1.546872	0.363262	0.309138
C55	C	0.797660	-0.303402	-0.357560
C56	C	1.130993	0.029932	-0.024227
C57	C	1.464326	0.363265	0.309106
C58	C	0.598208	-0.345562	-0.407035
C59	C	0.931542	-0.012229	-0.073702
C60	C	1.264875	0.321104	0.259632
C61	C	0.548817	-0.288165	-0.425314
C62	C	0.882150	0.045168	-0.091981
C63	C	1.215484	0.378501	0.241353
C64	C	0.646529	-0.303437	-0.357524
C65	C	0.979863	0.029897	-0.024191
C66	C	1.313196	0.363230	0.309142
C67	C	0.548839	-0.360867	-0.339245
C68	C	0.882172	-0.027533	-0.005911
C69	C	1.215505	0.305800	0.327422
C70	C	0.500544	-0.303476	-0.357491
C71	C	0.833877	0.029857	-0.024157
C72	C	1.167211	0.363191	0.309176
C73	C	0.598225	-0.246009	-0.375838
C74	C	0.931558	0.087324	-0.042505
C75	C	1.264892	0.420657	0.290828
C76	C	0.598251	-0.318749	-0.289738
C77	C	0.931585	0.014584	0.043596
C78	C	1.264918	0.347917	0.376929
C79	C	0.548882	-0.261313	-0.307991
C80	C	0.882216	0.072021	0.025343
C81	C	1.215549	0.405354	0.358676
C82	C	0.730627	-0.303415	-0.357545
C83	C	1.063961	0.029918	-0.024212
C84	C	1.397294	0.363251	0.309121
C85	C	0.416448	-0.303491	-0.357469
C86	C	0.749781	0.029842	-0.024136
C87	C	1.083114	0.363176	0.309198
C88	C	1.073063	-0.467000	-0.357460
C89	C	1.406396	-0.133666	-0.024126
C90	C	1.739729	0.199667	0.309207
C91	C	1.073090	-0.536968	-0.357468
C92	C	1.406424	-0.203634	-0.024135
C93	C	1.739757	0.129699	0.309198
C94	C	1.120569	-0.569781	-0.404994
C95	C	1.453902	-0.236448	-0.071660
C96	C	1.787236	0.096886	0.261673
C97	C	1.120595	-0.635523	-0.405012
C98	C	1.453929	-0.302190	-0.071679
C99	C	1.787262	0.031143	0.261655
C100	C	1.073150	-0.668450	-0.357492
C101	C	1.406484	-0.335117	-0.024158
C102	C	1.739817	-0.001783	0.309175
C103	C	1.025662	-0.635629	-0.309963
C104	C	1.358996	-0.302296	0.023370
C105	C	1.692329	0.031038	0.356703
C106	C	1.025632	-0.569888	-0.309952
C107	C	1.358966	-0.236554	0.023382
C108	C	1.692299	0.096779	0.356715
N109	N	1.067546	-0.771706	-0.292499
N110	N	1.400880	-0.438373	0.040834
N111	N	1.734213	-0.105040	0.374168
N112	N	1.067579	-0.834158	-0.292512
N113	N	1.400913	-0.500825	0.040821
N114	N	1.734246	-0.167491	0.374155
C115	C	1.073237	-0.866525	-0.357525
C116	C	1.406571	-0.533191	-0.024192
C117	C	1.739904	-0.199858	0.309141
N118	N	1.078875	-0.834081	-0.422526
N119	N	1.412209	-0.500748	-0.089193
N120	N	1.745542	-0.167414	0.244141
N121	N	1.078846	-0.771624	-0.422512
N122	N	1.412180	-0.438291	-0.089179
N123	N	1.745513	-0.104957	0.244155
C124	C	1.073178	-0.739735	-0.357499
C125	C	1.406511	-0.406402	-0.024166
C126	C	1.739844	-0.073069	0.309167
C127	C	1.120747	-0.970624	-0.405074
C128	C	1.454080	-0.637290	-0.071741
C129	C	1.787414	-0.303957	0.261592
C130	C	1.120768	-1.036367	-0.405094
C131	C	1.454101	-0.703034	-0.071761
C132	C	1.787435	-0.369701	0.261573
C133	C	1.025839	-1.036472	-0.310039
C134	C	1.359172	-0.703138	0.023295
C135	C	1.692506	-0.369805	0.356628
C136	C	1.025814	-0.970729	-0.310026
C137	C	1.359147	-0.637396	0.023308
C138	C	1.692481	-0.304062	0.356641
C139	C	1.073272	-0.937809	-0.357542
C140	C	1.406605	-0.604476	-0.024209
C141	C	1.739939	-0.271142	0.309124
C142	C	1.266863	-0.303492	-0.357465
C143	C	1.600196	0.029842	-0.024132
C144	C	1.933530	0.363175	0.309201
C145	C	1.349409	-0.303510	-0.357452
C146	C	1.682742	0.029823	-0.024119
C147	C	2.016075	0.363157	0.309215
C148	C	1.073187	-0.303420	-0.551203
C149	C	1.406520	0.029913	-0.217870
C150	C	1.739853	0.363247	0.115464
C151	C	1.073199	-0.303408	-0.633749
C152	C	1.406532	0.029925	-0.300415
C153	C	1.739866	0.363259	0.032918
C154	C	1.073273	-0.139258	-0.357551
C155	C	1.406606	0.194076	-0.024218
C156	C	1.739939	0.527409	0.309116
C157	C	1.073322	-0.069290	-0.357574
C158	C	1.406655	0.264044	-0.024241
C159	C	1.739988	0.597377	0.309093
C160	C	1.023601	-0.345387	-0.833194
C161	C	1.356935	-0.012054	-0.499860
C162	C	1.690268	0.321280	-0.166527
C163	C	1.091356	-0.360785	-0.882566
C164	C	1.424689	-0.027452	-0.549232
C165	C	1.758023	0.305881	-0.215899
C166	C	1.073236	-0.303360	-0.784879
C167	C	1.406569	0.029973	-0.451546
C168	C	1.739902	0.363307	-0.118212
C169	C	1.005518	-0.287944	-0.882589
C170	C	1.338851	0.045389	-0.549256
C171	C	1.672185	0.378722	-0.215922
C172	C	1.073265	-0.303315	-0.930864
C173	C	1.406598	0.030019	-0.597531
C174	C	1.739932	0.363352	-0.264198
C175	C	1.141026	-0.318788	-0.833164
C176	C	1.474359	0.014545	-0.499830
C177	C	1.807693	0.347878	-0.166497
C178	C	1.055142	-0.245921	-0.833183
C179	C	1.388476	0.087413	-0.499850
C180	C	1.721809	0.420746	-0.166516
C181	C	1.122944	-0.261297	-0.882532
C182	C	1.456277	0.072036	-0.549199
C183	C	1.789610	0.405370	-0.215866
C184	C	1.073218	-0.303388	-0.700781
C185	C	1.406551	0.029946	-0.367447
C186	C	1.739884	0.363279	-0.034114
C187	C	1.073291	-0.303287	-1.014961
C188	C	1.406624	0.030046	-0.681628
C189	C	1.739957	0.363380	-0.348294
C190	C	1.073171	-0.303430	-0.164545
C191	C	1.406505	0.029903	0.168788
C192	C	1.739838	0.363236	0.502122
C193	C	1.073303	-0.303265	-0.082000
C194	C	1.406636	0.030068	0.251334
C195	C	1.739969	0.363402	0.584667
H196	H	0.527360	-0.225664	-0.266107
H197	H	0.860694	0.107669	0.067226
H198	H	1.194027	0.441003	0.400560
Br199	Br	1.185151	-0.925943	-0.469561
Br200	Br	1.518484	-0.592609	-0.136228
Br201	Br	1.851817	-0.259276	0.197105
H202	H	0.527103	-0.275226	-0.482625
H203	H	0.860437	0.058107	-0.149292
H204	H	1.193770	0.391440	0.184041
H205	H	0.619869	-0.381124	-0.448952
H206	H	0.953202	-0.047791	-0.115618
H207	H	1.286536	0.285542	0.217715
H208	H	0.527142	-0.409418	-0.323800
H209	H	0.860475	-0.076084	0.009534
H210	H	1.193809	0.257249	0.342867
H211	H	0.987155	-0.944011	-0.271323
H212	H	1.320489	-0.610677	0.062010
H213	H	1.653822	-0.277344	0.395344
H214	H	0.986968	-0.543170	-0.271250
H215	H	1.320302	-0.209837	0.062083
H216	H	1.653635	0.123496	0.395417
H217	H	0.981666	-0.380974	-0.811530
H218	H	1.315000	-0.047641	-0.478197
H219	H	1.648333	0.285692	-0.144864
H220	H	0.619828	-0.197444	-0.391350
H221	H	0.953161	0.135890	-0.058017
H222	H	1.286494	0.469223	0.275317
Br223	Br	1.116896	-0.441714	-0.918720
Br224	Br	1.450229	-0.108381	-0.585387
Br225	Br	1.783562	0.224953	-0.252053
Br226	Br	1.029574	-0.165012	-0.796999
Br227	Br	1.362907	0.168321	-0.463665
Br228	Br	1.696241	0.501654	-0.130332
Br229	Br	1.236524	-0.340587	-0.797137
Br230	Br	1.569857	-0.007254	-0.463803
Br231	Br	1.903191	0.326079	-0.130470
H232	H	1.159210	-0.542979	-0.443686
H233	H	1.492544	-0.209646	-0.110353
H234	H	1.825877	0.123687	0.222980
H235	H	0.948238	-0.274925	-0.904300
H236	H	1.281571	0.058409	-0.570966
H237	H	1.614905	0.391742	-0.237633
Br238	Br	0.634442	-0.340330	-0.194225
Br239	Br	0.967775	-0.006996	0.139109
Br240	Br	1.301108	0.326337	0.472442
Br241	Br	1.185039	-0.680066	-0.469511
Br242	Br	1.518373	-0.346733	-0.136178
Br243	Br	1.851706	-0.013399	0.197155
Br244	Br	1.193001	-0.202027	-0.918418
Br245	Br	1.526334	0.131306	-0.585085
Br246	Br	1.859668	0.464640	-0.251751
H247	H	0.987031	-0.662442	-0.271274
H248	H	1.320364	-0.329109	0.062060
H249	H	1.653697	0.004225	0.395393
Br250	Br	0.961444	-1.081150	-0.245550
Br251	Br	1.294777	-0.747817	0.087783
Br252	Br	1.628110	-0.414484	0.421117
Br253	Br	1.185198	-1.080901	-0.469610
Br254	Br	1.518531	-0.747568	-0.136277
Br255	Br	1.851865	-0.414235	0.197057
