data_functionalizedCrystal
_audit_creation_method	'MofGen! by Chris Wilmer'
_symmetry_space_group_name_H-M	'P1'
_symmetry_Int_Tables_number	1
_symmetry_cell_setting	triclinic
loop_
_symmetry_equiv_pos_as_xyz
  x,y,z
_cell_length_a	12.594517
_cell_length_b	12.827891
_cell_length_c	12.827885
_cell_angle_alpha	90.028034
_cell_angle_beta	89.978432
_cell_angle_gamma	89.971199
loop_
_atom_site_label
_atom_site_type_symbol
_atom_site_fract_x
_atom_site_fract_y
_atom_site_fract_z
Zn1	Zn	1.627174	0.415988	-0.590925
Zn2	Zn	1.627024	0.590765	-0.416191
Zn3	Zn	1.449177	0.416038	-0.416192
Zn4	Zn	1.449120	0.590687	-0.590884
O5	O	1.538123	0.503370	-0.503548
O6	O	1.776100	0.439184	-0.567763
O7	O	1.603393	0.567641	-0.269955
O8	O	1.472875	0.269796	-0.439389
O9	O	1.775989	0.567593	-0.439387
O10	O	1.603649	0.269759	-0.567764
O11	O	1.472730	0.439270	-0.269956
O12	O	1.300224	0.439194	-0.439348
O13	O	1.472778	0.567459	-0.737126
O14	O	1.300181	0.567508	-0.567694
O15	O	1.603593	0.439108	-0.737156
O16	O	1.603337	0.736991	-0.439347
O17	O	1.472632	0.736934	-0.567693
C18	C	1.261582	0.503349	-0.503517
C19	C	1.143277	0.503365	-0.503529
C20	C	1.537991	0.774880	-0.503538
C21	C	1.538032	0.891033	-0.503569
C22	C	1.538196	0.503269	-0.776118
C23	C	1.538227	0.503227	-0.892272
C24	C	1.074016	0.433480	-0.433855
C25	C	1.003183	0.528803	-0.408155
C26	C	1.003311	0.408088	-0.529247
C27	C	1.074002	0.598738	-0.477779
C28	C	1.074137	0.477959	-0.598916
C29	C	1.003336	0.573348	-0.573251
C30	C	1.815744	0.503392	-0.503580
C31	C	1.934050	0.503401	-0.503593
C32	C	1.473443	1.062963	-0.440046
C33	C	1.473399	0.942913	-0.440013
C34	C	1.538224	1.230800	-0.503590
C35	C	1.538112	1.114647	-0.503629
C36	C	1.602966	0.439702	-0.944071
C37	C	1.602999	0.439657	-1.064122
C38	C	1.538113	0.503394	-0.232038
C39	C	1.538288	0.503143	-0.115886
H40	H	1.105050	0.374438	-0.374861
H41	H	1.593442	1.070019	-0.558045
C42	C	1.677880	0.366180	-1.124292
C43	C	1.669275	0.247373	-1.109398
C44	C	1.744159	0.173894	-1.169570
C45	C	1.827648	0.219221	-1.244636
C46	C	1.836257	0.338034	-1.259532
C47	C	1.761373	0.411514	-1.199360
H48	H	1.607468	0.213813	-1.053827
H49	H	1.737786	0.085940	-1.158542
H50	H	1.883082	0.164827	-1.289179
H51	H	1.898063	0.371594	-1.315103
H52	H	1.767746	0.499467	-1.210388
H53	H	0.972203	0.327510	-0.550937
C54	C	1.612836	0.951061	-0.577116
C55	C	1.604092	0.936072	-0.695916
C56	C	1.678896	0.996109	-0.769463
C57	C	1.762444	1.071135	-0.724211
C58	C	1.771191	1.086127	-0.605405
C59	C	1.696388	1.026090	-0.531857
H60	H	1.542242	0.880530	-0.729420
H61	H	1.672420	0.985010	-0.857412
H62	H	1.817818	1.115578	-0.778655
H63	H	1.833042	1.141669	-0.571900
H64	H	1.702863	1.037189	-0.443909
C65	C	1.463379	0.576658	-0.952416
C66	C	1.471976	0.695476	-0.937499
C67	C	1.397126	0.768909	-0.997640
C68	C	1.313679	0.723524	-1.072698
C69	C	1.305078	0.604700	-1.087619
C70	C	1.379929	0.531266	-1.027478
H71	H	1.533751	0.729078	-0.881933
H72	H	1.403493	0.856871	-0.986594
H73	H	1.258270	0.777884	-1.117218
H74	H	1.243303	0.571098	-1.143185
H75	H	1.373562	0.443304	-1.038523
H76	H	1.418105	1.107592	-0.385638
H77	H	1.104925	0.679351	-0.455964
C78	C	1.398598	0.882878	-0.366468
C79	C	1.398661	0.762833	-0.366540
C80	C	1.323857	0.702796	-0.292992
C81	C	1.248990	0.762804	-0.219373
C82	C	1.248924	0.882857	-0.219299
C83	C	1.323728	0.942894	-0.292846
H84	H	1.454084	0.718405	-0.421040
H85	H	1.323906	0.613925	-0.293048
H86	H	1.193616	0.718361	-0.164929
H87	H	1.193501	0.927285	-0.164799
H88	H	1.323679	1.031765	-0.292791
H89	H	0.972019	0.550314	-0.327516
H90	H	1.482864	0.557535	-1.071346
C91	C	0.961667	0.653293	-0.652890
C92	C	0.989832	0.769486	-0.640916
C93	C	0.948163	0.849432	-0.720551
C94	C	0.878328	0.813185	-0.812160
C95	C	0.850160	0.696987	-0.824138
C96	C	0.891829	0.617041	-0.744503
H97	H	1.041531	0.796323	-0.573099
H98	H	0.969015	0.935450	-0.711684
H99	H	0.847482	0.872366	-0.871110
H100	H	0.798461	0.670150	-0.891956
H101	H	0.870976	0.531023	-0.753370
C102	C	1.116282	0.448865	-0.707820
C103	C	1.088475	0.342332	-0.755960
C104	C	1.130623	0.313223	-0.864864
C105	C	1.200578	0.390647	-0.925629
C106	C	1.228388	0.497187	-0.877490
C107	C	1.186240	0.526296	-0.768585
H108	H	1.036687	0.285011	-0.710977
H109	H	1.110036	0.234355	-0.900500
H110	H	1.231778	0.369099	-1.006247
H111	H	1.280176	0.554507	-0.922472
H112	H	1.206828	0.605164	-0.732950
C113	C	1.677814	0.366274	-0.883925
C114	C	1.631653	0.284324	-0.808865
C115	C	1.706505	0.210895	-0.748721
C116	C	1.827518	0.219415	-0.763636
C117	C	1.873685	0.301368	-0.838700
C118	C	1.798833	0.374798	-0.898844
H119	H	1.542067	0.278014	-0.797821
H120	H	1.672328	0.150228	-0.693154
H121	H	1.882927	0.165058	-0.719114
H122	H	1.963271	0.307679	-0.849744
H123	H	1.833010	0.435465	-0.954411
