data_functionalizedCrystal
_audit_creation_method	'MofGen! by Chris Wilmer'
_symmetry_space_group_name_H-M	'P1'
_symmetry_Int_Tables_number	1
_symmetry_cell_setting	triclinic
loop_
_symmetry_equiv_pos_as_xyz
  x,y,z
_cell_length_a	19.288864
_cell_length_b	19.288864
_cell_length_c	17.766277
_cell_angle_alpha	90.023305
_cell_angle_beta	89.979562
_cell_angle_gamma	96.863758
loop_
_atom_site_label
_atom_site_type_symbol
_atom_site_fract_x
_atom_site_fract_y
_atom_site_fract_z
O1	O	-0.921351	0.086644	0.062871
O2	O	-0.588018	0.419977	0.396205
O3	O	-0.254684	0.753311	0.729538
O4	O	-0.719090	0.098333	0.062825
O5	O	-0.385757	0.431666	0.396158
O6	O	-0.052424	0.765000	0.729491
O7	O	-0.826065	-0.008642	0.062803
O8	O	-0.492732	0.324691	0.396136
O9	O	-0.159398	0.658025	0.729469
O10	O	-0.814376	0.193619	0.062893
O11	O	-0.481043	0.526952	0.396227
O12	O	-0.147709	0.860285	0.729560
O13	O	-0.826051	-0.008638	-0.062386
O14	O	-0.492717	0.324695	0.270948
O15	O	-0.159384	0.658029	0.604281
O16	O	-0.719076	0.098337	-0.062364
O17	O	-0.385743	0.431670	0.270970
O18	O	-0.052409	0.765003	0.604303
O19	O	-0.921337	0.086648	-0.062317
O20	O	-0.588003	0.419981	0.271016
O21	O	-0.254670	0.753315	0.604349
Cu22	Cu	-0.820205	0.092493	-0.073771
Cu23	Cu	-0.486872	0.425826	0.259562
Cu24	Cu	-0.153538	0.759159	0.592895
Cu25	Cu	-0.820222	0.092488	0.074279
Cu26	Cu	-0.486888	0.425821	0.407612
Cu27	Cu	-0.153555	0.759155	0.740945
O28	O	-0.814362	0.193623	-0.062295
O29	O	-0.481029	0.526956	0.271038
O30	O	-0.147695	0.860289	0.604371
C31	C	-0.693207	0.097959	0.000224
C32	C	-0.359873	0.431292	0.333557
C33	C	-0.026540	0.764625	0.666890
C34	C	-0.616103	0.096830	0.000203
C35	C	-0.282770	0.430163	0.333537
C36	C	0.050564	0.763496	0.666870
C37	C	-0.825682	-0.034516	0.000198
C38	C	-0.492348	0.298817	0.333531
C39	C	-0.159015	0.632150	0.666865
C40	C	-0.824553	-0.111620	0.000167
C41	C	-0.491219	0.221713	0.333500
C42	C	-0.157886	0.555047	0.666834
C43	C	-0.947220	0.087022	0.000286
C44	C	-0.613887	0.420355	0.333619
C45	C	-0.280553	0.753689	0.666952
C46	C	-1.024324	0.088151	0.000311
C47	C	-0.690990	0.421484	0.333644
C48	C	-0.357657	0.754818	0.666977
C49	C	-0.814745	0.219497	0.000311
C50	C	-0.481412	0.552831	0.333644
C51	C	-0.148078	0.886164	0.666978
C52	C	-0.815874	0.296601	0.000347
C53	C	-0.482541	0.629934	0.333680
C54	C	-0.149207	0.963267	0.667014
C55	C	-0.571407	0.159598	0.000243
C56	C	-0.238073	0.492931	0.333577
C57	C	0.095260	0.826264	0.666910
C58	C	-0.498960	0.158537	0.000251
C59	C	-0.165626	0.491870	0.333585
C60	C	0.167707	0.825204	0.666918
C61	C	-0.471212	0.094705	0.000234
C62	C	-0.137879	0.428038	0.333568
C63	C	0.195455	0.761371	0.666901
C64	C	-0.515918	0.031929	0.000190
C65	C	-0.182585	0.365262	0.333523
C66	C	0.150748	0.698595	0.666857
C67	C	-0.588364	0.032991	0.000175
C68	C	-0.255030	0.366324	0.333508
C69	C	0.078303	0.699658	0.666841
C70	C	-0.362955	0.044524	0.044096
C71	C	-0.029622	0.377858	0.377430
C72	C	0.303712	0.711191	0.710763
C73	C	-0.290511	0.043464	0.044116
C74	C	0.042823	0.376798	0.377450
C75	C	0.376156	0.710131	0.710783
C76	C	-0.247767	0.091425	0.000278
C77	C	0.085567	0.424758	0.333612
C78	C	0.418900	0.758092	0.666945
C79	C	-0.277474	0.140457	-0.043570
C80	C	0.055859	0.473791	0.289763
C81	C	0.389192	0.807124	0.623097
C82	C	-0.349920	0.141520	-0.043585
C83	C	-0.016586	0.474853	0.289748
C84	C	0.316747	0.808187	0.623081
C85	C	-0.392658	0.093546	0.000250
C86	C	-0.059325	0.426879	0.333584
C87	C	0.274009	0.760212	0.666917
C88	C	-0.124514	0.153047	0.000326
C89	C	0.208819	0.486381	0.333659
C90	C	0.542152	0.819714	0.666992
C91	C	-0.052066	0.151984	0.000329
C92	C	0.281267	0.485317	0.333662
C93	C	0.614600	0.818651	0.666996
C94	C	-0.069026	0.025374	0.000275
C95	C	0.264307	0.358707	0.333609
C96	C	0.597640	0.692040	0.666942
C97	C	-0.141473	0.026439	0.000265
C98	C	0.191860	0.359772	0.333598
C99	C	0.525194	0.693106	0.666931
C100	C	-0.169212	0.090278	0.000293
C101	C	0.164121	0.423611	0.333627
C102	C	0.497454	0.756944	0.666960
N103	N	-0.820198	0.092495	-0.177902
N104	N	-0.486865	0.425829	0.155432
N105	N	-0.153531	0.759162	0.488765
C106	C	-0.753106	0.341297	0.000317
C107	C	-0.419773	0.674630	0.333651
C108	C	-0.086440	1.007964	0.666984
C109	C	-0.754167	0.413744	0.000301
C110	C	-0.420834	0.747077	0.333634
C111	C	-0.087500	1.080411	0.666967
C112	C	-0.817999	0.441492	0.000298
C113	C	-0.484666	0.774825	0.333632
C114	C	-0.151332	1.108158	0.666965
C115	C	-0.880775	0.396786	0.000332
C116	C	-0.547442	0.730119	0.333666
C117	C	-0.214109	1.063452	0.666999
C118	C	-0.879713	0.324340	0.000357
C119	C	-0.546379	0.657673	0.333690
C120	C	-0.213046	0.991007	0.667023
C121	C	-0.868173	0.549743	-0.043589
C122	C	-0.534840	0.883076	0.289744
C123	C	-0.201506	1.216410	0.623078
C124	C	-0.869233	0.622187	-0.043618
C125	C	-0.535900	0.955521	0.289716
C126	C	-0.202566	1.288854	0.623049
C127	C	-0.821279	0.664937	0.000227
C128	C	-0.487945	0.998271	0.333560
C129	C	-0.154612	1.331604	0.666894
C130	C	-0.772253	0.635235	0.044091
C131	C	-0.438920	0.968569	0.377424
C132	C	-0.105586	1.301902	0.710757
C133	C	-0.771190	0.562790	0.044115
C134	C	-0.437857	0.896123	0.377448
C135	C	-0.104524	1.229456	0.710782
C136	C	-0.819158	0.520046	0.000273
C137	C	-0.485825	0.853379	0.333606
C138	C	-0.152492	1.186712	0.666939
C139	C	-0.759657	0.788190	0.000180
C140	C	-0.426323	1.121523	0.333513
C141	C	-0.092990	1.454856	0.666847
C142	C	-0.760720	0.860638	0.000168
C143	C	-0.427387	1.193971	0.333501
C144	C	-0.094053	1.527304	0.666835
C145	C	-0.887330	0.843677	0.000192
C146	C	-0.553997	1.177011	0.333525
C147	C	-0.220663	1.510344	0.666859
C148	C	-0.886265	0.771231	0.000212
C149	C	-0.552932	1.104564	0.333545
C150	C	-0.219598	1.437898	0.666878
C151	C	-0.822426	0.743492	0.000202
C152	C	-0.489093	1.076825	0.333536
C153	C	-0.155760	1.410158	0.666869
C154	C	-0.862227	0.134494	-0.782159
C155	C	-0.528894	0.467827	-0.448826
C156	C	-0.195560	0.801160	-0.115493
C157	C	-0.862220	0.134501	-0.703358
C158	C	-0.528887	0.467834	-0.370024
C159	C	-0.195553	0.801167	-0.036691
C160	C	-0.820228	0.092480	-0.663990
C161	C	-0.486895	0.425814	-0.330657
C162	C	-0.153562	0.759147	0.002676
C163	C	-0.778227	0.050464	-0.703432
C164	C	-0.444894	0.383797	-0.370098
C165	C	-0.111560	0.717131	-0.036765
C166	C	-0.778230	0.050464	-0.782232
C167	C	-0.444897	0.383797	-0.448898
C168	C	-0.111563	0.717130	-0.115565
C169	C	-0.818502	0.029856	-0.539176
C170	C	-0.485169	0.363189	-0.205842
C171	C	-0.151835	0.696523	0.127491
C172	C	-0.818504	0.029855	-0.460377
C173	C	-0.485171	0.363188	-0.127043
C174	C	-0.151837	0.696521	0.206290
C175	C	-0.820215	0.092482	-0.420944
C176	C	-0.486882	0.425815	-0.087611
C177	C	-0.153549	0.759149	0.245723
C178	C	-0.821939	0.155111	-0.460320
C179	C	-0.488606	0.488445	-0.126986
C180	C	-0.155273	0.821778	0.206347
C181	C	-0.821942	0.155111	-0.539120
C182	C	-0.488609	0.488445	-0.205787
C183	C	-0.155276	0.821778	0.127547
C184	C	-0.820220	0.092476	-0.578545
C185	C	-0.486887	0.425810	-0.245211
C186	C	-0.153554	0.759143	0.088122
C187	C	-0.862203	0.134507	-0.296066
C188	C	-0.528870	0.467840	0.037267
C189	C	-0.195536	0.801174	0.370600
C190	C	-0.862191	0.134515	-0.217263
C191	C	-0.528858	0.467848	0.116070
C192	C	-0.195524	0.801182	0.449403
C193	C	-0.778202	0.050472	-0.217339
C194	C	-0.444869	0.383805	0.115995
C195	C	-0.111536	0.717139	0.449328
C196	C	-0.778210	0.050470	-0.296140
C197	C	-0.444877	0.383804	0.037193
C198	C	-0.111543	0.717137	0.370526
C199	C	-0.820214	0.092486	-0.335500
C200	C	-0.486881	0.425820	-0.002166
C201	C	-0.153548	0.759153	0.331167
N202	N	-0.820234	0.092480	0.178409
N203	N	-0.486901	0.425813	0.511742
N204	N	-0.153567	0.759147	0.845076
H205	H	-0.593987	0.211580	0.000268
H206	H	-0.260654	0.544913	0.333601
H207	H	0.072680	0.878247	0.666935
H208	H	-0.177866	-0.024674	0.000236
H209	H	0.155467	0.308660	0.333570
H210	H	0.488801	0.641993	0.666903
Cl211	Cl	-0.159390	0.233300	0.000354
Cl212	Cl	0.173943	0.566633	0.333688
Cl213	Cl	0.507277	0.899966	0.667021
Cl214	Cl	-0.914971	0.187353	-0.167691
Cl215	Cl	-0.581638	0.520687	0.165642
Cl216	Cl	-0.248305	0.854020	0.498975
H217	H	-0.624756	-0.018124	0.000143
H218	H	-0.291423	0.315210	0.333476
H219	H	0.041910	0.648543	0.666809
H220	H	-0.046435	-0.026600	0.000308
H221	H	0.286898	0.306734	0.333642
H222	H	0.620231	0.640067	0.666975
H223	H	-0.909150	0.646365	-0.079337
H224	H	-0.575817	0.979699	0.253996
H225	H	-0.242483	1.313032	0.587329
Cl226	Cl	-0.915026	0.187311	-0.653776
Cl227	Cl	-0.581693	0.520644	-0.320442
Cl228	Cl	-0.248360	0.853977	0.012891
H229	H	-0.744036	0.016252	-0.671374
H230	H	-0.410702	0.349586	-0.338040
H231	H	-0.077369	0.682919	-0.004707
H232	H	-0.907229	0.514941	-0.079291
H233	H	-0.573896	0.848274	0.254042
H234	H	-0.240562	1.181607	0.587375
H235	H	-0.932748	0.419382	0.000344
H236	H	-0.599415	0.752716	0.333678
H237	H	-0.266081	1.086049	0.667011
Cl238	Cl	-0.915004	0.187329	-0.345550
Cl239	Cl	-0.581671	0.520662	-0.012217
Cl240	Cl	-0.248337	0.853996	0.321117
Cl241	Cl	-0.824104	0.233842	-0.588619
Cl242	Cl	-0.490770	0.567175	-0.255285
Cl243	Cl	-0.157437	0.900509	0.078048
Cl244	Cl	-0.958628	0.268147	0.000392
Cl245	Cl	-0.625294	0.601480	0.333725
Cl246	Cl	-0.291961	0.934814	0.667059
H247	H	-0.744008	0.016263	-0.185287
H248	H	-0.410674	0.349596	0.148047
H249	H	-0.077341	0.682929	0.481380
Cl250	Cl	-0.915026	0.187320	-0.831635
Cl251	Cl	-0.581693	0.520653	-0.498302
Cl252	Cl	-0.248360	0.853987	-0.164969
H253	H	-0.744018	0.016255	-0.328246
H254	H	-0.410685	0.349588	0.005087
H255	H	-0.077351	0.682921	0.338421
Cl256	Cl	-0.681804	0.916829	0.000140
Cl257	Cl	-0.348471	1.250162	0.333473
Cl258	Cl	-0.015137	1.583496	0.666807
H259	H	-0.823333	0.206109	-0.428215
H260	H	-0.490000	0.539442	-0.094882
H261	H	-0.156666	0.872775	0.238451
H262	H	-0.817102	-0.021146	-0.571275
H263	H	-0.483769	0.312188	-0.237942
H264	H	-0.150435	0.645521	0.095391
Cl265	Cl	-0.816331	-0.048877	-0.410884
Cl266	Cl	-0.482998	0.284456	-0.077551
Cl267	Cl	-0.149665	0.617789	0.255783
H268	H	-0.374105	0.181442	-0.079290
H269	H	-0.040772	0.514775	0.254043
H270	H	0.292562	0.848108	0.587376
H271	H	-0.493322	-0.020044	0.000187
H272	H	-0.159988	0.313289	0.333520
H273	H	0.173345	0.646623	0.666853
H274	H	-0.744033	0.016250	-0.814337
H275	H	-0.410700	0.349583	-0.481003
H276	H	-0.077366	0.682917	-0.147670
H277	H	-0.242673	0.179511	-0.079268
H278	H	0.090660	0.512845	0.254066
H279	H	0.423994	0.846178	0.587399
Cl280	Cl	-0.253170	-0.018169	0.099247
Cl281	Cl	0.080163	0.315164	0.432580
Cl282	Cl	0.413496	0.648498	0.765913
Cl283	Cl	-0.442760	0.237451	0.000300
Cl284	Cl	-0.109426	0.570784	0.333633
Cl285	Cl	0.223907	0.904118	0.666966
H286	H	-0.397752	0.005467	0.079799
H287	H	-0.064419	0.338801	0.413132
H288	H	0.268914	0.672134	0.746465
Cl289	Cl	-0.672852	0.306429	0.000313
Cl290	Cl	-0.339519	0.639762	0.333647
Cl291	Cl	-0.006185	0.973095	0.666980
Cl292	Cl	-0.675253	0.469944	0.000260
Cl293	Cl	-0.341919	0.803278	0.333593
Cl294	Cl	-0.008586	1.136611	0.666926
H295	H	-0.015674	0.203099	0.000357
H296	H	0.317659	0.536433	0.333690
H297	H	0.650992	0.869766	0.667024
Cl298	Cl	-0.709565	0.525451	0.099260
Cl299	Cl	-0.376232	0.858785	0.432594
Cl300	Cl	-0.042898	1.192118	0.765927
H301	H	-0.733200	0.670042	0.079789
H302	H	-0.399867	1.003375	0.413122
H303	H	-0.066533	1.336708	0.746455
Cl304	Cl	-0.679404	0.753314	0.000172
Cl305	Cl	-0.346071	1.086647	0.333506
Cl306	Cl	-0.012738	1.419980	0.666839
H307	H	-0.939303	0.866269	0.000245
H308	H	-0.605970	1.199602	0.333578
H309	H	-0.272637	1.532935	0.666912
Cl310	Cl	-0.965178	0.715038	0.000242
Cl311	Cl	-0.631845	1.048371	0.333575
Cl312	Cl	-0.298511	1.381705	0.666908
