data_functionalizedCrystal
_audit_creation_method	'MofGen! by Chris Wilmer'
_symmetry_space_group_name_H-M	'P1'
_symmetry_Int_Tables_number	1
_symmetry_cell_setting	triclinic
loop_
_symmetry_equiv_pos_as_xyz
  x,y,z
_cell_length_a	21.395364
_cell_length_b	29.839131
_cell_length_c	21.395356
_cell_angle_alpha	89.963003
_cell_angle_beta	89.976411
_cell_angle_gamma	90.050179
loop_
_atom_site_label
_atom_site_type_symbol
_atom_site_fract_x
_atom_site_fract_y
_atom_site_fract_z
Zn1	Zn	0.957834	-0.178686	-0.354221
Zn2	Zn	1.457834	0.321314	0.145779
Zn3	Zn	0.957730	-0.253813	-0.249426
Zn4	Zn	1.457730	0.246187	0.250574
Zn5	Zn	0.853050	-0.178717	-0.249458
Zn6	Zn	1.353050	0.321283	0.250542
Zn7	Zn	0.853010	-0.253809	-0.354167
Zn8	Zn	1.353010	0.246191	0.145833
O9	O	0.905406	-0.216256	-0.301818
O10	O	1.405406	0.283744	0.198182
O11	O	1.045498	-0.188640	-0.340329
O12	O	1.545498	0.311360	0.159671
O13	O	0.943817	-0.243866	-0.161753
O14	O	1.443817	0.256134	0.338247
O15	O	0.867011	-0.115846	-0.263391
O16	O	1.367011	0.384154	0.236609
O17	O	1.045421	-0.243835	-0.263337
O18	O	1.545421	0.256165	0.236663
O19	O	0.943995	-0.115823	-0.340360
O20	O	1.443995	0.384177	0.159640
O21	O	0.866910	-0.188694	-0.161776
O22	O	1.366910	0.311306	0.338224
O23	O	0.765367	-0.188690	-0.263338
O24	O	1.265367	0.311310	0.236662
O25	O	0.866941	-0.243829	-0.441852
O26	O	1.366941	0.256171	0.058148
O27	O	0.765337	-0.243859	-0.340267
O28	O	1.265337	0.256141	0.159733
O29	O	0.943955	-0.188636	-0.441892
O30	O	1.443955	0.311364	0.058108
O31	O	0.943778	-0.316679	-0.263285
O32	O	1.443778	0.183321	0.236715
O33	O	0.866840	-0.316677	-0.340237
O34	O	1.366840	0.183323	0.159763
C35	C	0.742618	-0.216278	-0.301800
C36	C	1.242618	0.283722	0.198200
C37	C	0.672977	-0.216298	-0.301808
C38	C	1.172977	0.283702	0.198192
C39	C	0.640326	-0.187605	-0.341959
C40	C	1.140326	0.312395	0.158041
C41	C	0.574890	-0.187593	-0.341962
C42	C	1.074890	0.312407	0.158038
C43	C	0.542109	-0.216282	-0.301819
C44	C	1.042109	0.283718	0.198181
C45	C	0.574767	-0.244978	-0.261660
C46	C	1.074767	0.255022	0.238340
C47	C	0.640202	-0.244986	-0.261654
C48	C	1.140202	0.255014	0.238346
C49	C	0.438380	-0.256741	-0.296772
C50	C	0.938380	0.243259	0.203228
C51	C	0.372947	-0.256733	-0.296782
C52	C	0.872947	0.243267	0.203218
C53	C	0.340288	-0.216258	-0.301833
C54	C	0.840288	0.283742	0.198167
C55	C	0.373070	-0.175788	-0.306887
C56	C	0.873070	0.324212	0.193113
C57	C	0.438504	-0.175795	-0.306881
C58	C	0.938504	0.324205	0.193119
C59	C	0.471156	-0.216277	-0.301821
C60	C	0.971156	0.283723	0.198179
C61	C	0.236684	-0.187549	-0.341990
C62	C	0.736684	0.312451	0.158010
C63	C	0.171248	-0.187536	-0.341988
C64	C	0.671248	0.312464	0.158012
C65	C	0.171126	-0.244925	-0.261689
C66	C	0.671126	0.255075	0.238311
C67	C	0.236561	-0.244934	-0.261687
C68	C	0.736561	0.255066	0.238313
C69	C	0.269337	-0.216246	-0.301841
C70	C	0.769337	0.283754	0.198159
C71	C	0.905310	-0.332979	-0.301765
C72	C	1.405310	0.167021	0.198235
C73	C	0.905327	-0.382913	-0.301763
C74	C	1.405327	0.117087	0.198237
C75	C	0.945483	-0.692509	-0.341953
C76	C	1.445483	-0.192509	0.158047
C77	C	0.945551	-0.880182	-0.341991
C78	C	1.445551	-0.380182	0.158009
O79	O	0.979599	-0.904407	-0.376122
O80	O	1.479599	-0.404407	0.123878
N81	N	0.905512	-0.903698	-0.301887
N82	N	1.405512	-0.403698	0.198113
C83	C	0.865451	-0.880293	-0.261775
C84	C	1.365451	-0.380293	0.238225
O85	O	0.831393	-0.904600	-0.227670
O86	O	1.331393	-0.404600	0.272330
C87	C	0.865380	-0.692620	-0.261741
C88	C	1.365380	-0.192620	0.238259
C89	C	0.905426	-0.669107	-0.301842
C90	C	1.405426	-0.169107	0.198158
C91	C	0.985524	-0.668996	-0.382051
C92	C	1.485524	-0.168996	0.117949
C93	C	0.985509	-0.622081	-0.382039
C94	C	1.485509	-0.122081	0.117961
C95	C	0.945453	-0.598679	-0.341928
C96	C	1.445453	-0.098679	0.158072
C97	C	0.905411	-0.622192	-0.301830
C98	C	1.405411	-0.122192	0.198170
C99	C	0.825317	-0.669216	-0.221632
C100	C	1.325317	-0.169216	0.278368
C101	C	0.825301	-0.622295	-0.221628
C102	C	1.325301	-0.122295	0.278372
C103	C	0.865347	-0.598782	-0.261730
C104	C	1.365347	-0.098782	0.238270
C105	C	0.865339	-0.551874	-0.261707
C106	C	1.365339	-0.051874	0.238293
N107	N	0.905377	-0.528359	-0.301810
N108	N	1.405377	-0.028359	0.198190
C109	C	0.945434	-0.551761	-0.341921
C110	C	1.445434	-0.051761	0.158079
C111	C	0.865492	-0.978823	-0.261795
C112	C	1.365492	-0.478823	0.238205
C113	C	0.865510	-1.025741	-0.261802
C114	C	1.365510	-0.525741	0.238198
C115	C	0.945609	-1.025628	-0.342019
C116	C	1.445609	-0.525628	0.157981
C117	C	0.945593	-0.978709	-0.342008
C118	C	1.445593	-0.478709	0.157992
C119	C	0.905530	-0.955308	-0.301898
C120	C	1.405530	-0.455308	0.198102
C121	C	0.945400	-0.453235	-0.341892
C122	C	1.445400	0.046765	0.158108
C123	C	0.945383	-0.406315	-0.341874
C124	C	1.445383	0.093685	0.158126
C125	C	0.865283	-0.406433	-0.261660
C126	C	1.365283	0.093567	0.238340
C127	C	0.865301	-0.453348	-0.261675
C128	C	1.365301	0.046652	0.238325
C129	C	0.905362	-0.476748	-0.301796
C130	C	1.405362	0.023252	0.198204
O131	O	0.831304	-0.527620	-0.227599
O132	O	1.331304	-0.027620	0.272401
O133	O	0.979477	-0.527445	-0.376030
O134	O	1.479477	-0.027445	0.123970
C135	C	0.945498	-0.739425	-0.341965
C136	C	1.445498	-0.239425	0.158035
C137	C	0.905456	-0.762938	-0.301867
C138	C	1.405456	-0.262938	0.198133
C139	C	0.865399	-0.739536	-0.261756
C140	C	1.365399	-0.239536	0.238244
C141	C	0.905474	-0.809856	-0.301874
C142	C	1.405474	-0.309856	0.198126
C143	C	0.945531	-0.833258	-0.341985
C144	C	1.445531	-0.333258	0.158015
C145	C	0.985569	-0.809743	-0.382088
C146	C	1.485569	-0.309743	0.117912
C147	C	0.985554	-0.762827	-0.382076
C148	C	1.485554	-0.262827	0.117924
C149	C	0.825361	-0.763052	-0.221653
C150	C	1.325361	-0.263052	0.278347
C151	C	0.825380	-0.809967	-0.221668
C152	C	1.325380	-0.309967	0.278332
C153	C	0.865436	-0.833369	-0.261779
C154	C	1.365436	-0.333369	0.238221
C155	C	1.068829	-0.216234	-0.301836
C156	C	1.568829	0.283766	0.198164
C157	C	1.138470	-0.216225	-0.301844
C158	C	1.638470	0.283775	0.198156
C159	C	0.905455	-0.216228	-0.465241
C160	C	1.405455	0.283772	0.034759
C161	C	0.905476	-0.216216	-0.534883
C162	C	1.405476	0.283784	-0.034883
C163	C	0.905519	-0.099078	-0.301885
C164	C	1.405519	0.400922	0.198115
C165	C	0.905567	-0.049143	-0.301913
C166	C	1.405567	0.450857	0.198087
C167	C	0.865441	-0.187485	-0.567598
C168	C	1.365441	0.312515	-0.067598
C169	C	0.865439	-0.187477	-0.633033
C170	C	1.365439	0.312523	-0.133033
C171	C	0.905483	-0.216195	-0.665751
C172	C	1.405483	0.283805	-0.165751
C173	C	0.945521	-0.244932	-0.633028
C174	C	1.445521	0.255068	-0.133028
C175	C	0.945517	-0.244943	-0.567594
C176	C	1.445517	0.255057	-0.067594
C177	C	0.961935	-0.219716	-0.769436
C178	C	1.461935	0.280284	-0.269436
C179	C	0.961939	-0.219703	-0.834869
C180	C	1.461939	0.280297	-0.334869
C181	C	0.905493	-0.216165	-0.867572
C182	C	1.405493	0.283835	-0.367572
C183	C	0.849041	-0.212631	-0.834833
C184	C	1.349041	0.287369	-0.334833
C185	C	0.849038	-0.212642	-0.769399
C186	C	1.349038	0.287358	-0.269399
C187	C	0.905491	-0.216187	-0.736703
C188	C	1.405491	0.283813	-0.236703
C189	C	0.865453	-0.187423	-0.971240
C190	C	1.365453	0.312577	-0.471240
C191	C	0.865449	-0.187417	-1.036676
C192	C	1.365449	0.312583	-0.536676
C193	C	0.945537	-0.244871	-1.036670
C194	C	1.445537	0.255129	-0.536670
C195	C	0.945534	-0.244878	-0.971234
C196	C	1.445534	0.255122	-0.471234
C197	C	0.905493	-0.216152	-0.938523
C198	C	1.405493	0.283848	-0.438523
C199	C	0.905393	-0.216251	-0.139030
C200	C	1.405393	0.283749	0.360970
C201	C	0.905493	-0.216137	-0.069390
C202	C	1.405493	0.283863	0.430610
H203	H	0.977995	-0.387172	-0.374529
H204	H	1.477995	0.112828	0.125471
N205	N	0.673813	-0.158297	-0.382959
N206	N	1.173813	0.341703	0.117041
N207	N	0.732236	-0.158303	-0.382946
N208	N	1.232236	0.341697	0.117054
H209	H	0.755889	-0.137603	-0.411900
H210	H	1.255889	0.362397	0.088100
H211	H	0.263146	-0.268301	-0.228994
H212	H	0.763146	0.231699	0.271006
H213	H	0.346261	-0.289687	-0.292670
H214	H	0.846261	0.210313	0.207330
H215	H	0.803078	-0.209747	-0.861458
H216	H	1.303078	0.290253	-0.361458
N217	N	0.986435	-0.274229	-0.937822
N218	N	1.486435	0.225771	-0.437822
N219	N	1.022184	-0.299871	-0.967039
N220	N	1.522184	0.200129	-0.467039
H221	H	1.051070	-0.320603	-0.943443
H222	H	1.551070	0.179397	-0.443443
H223	H	0.832671	-0.387371	-0.229001
H224	H	1.332671	0.112629	0.270999
H225	H	0.832839	-0.164078	-0.659675
H226	H	1.332839	0.335922	-0.159675
N227	N	1.026466	-0.738820	-0.423041
N228	N	1.526466	-0.238820	0.076959
N229	N	1.062225	-0.759728	-0.458847
N230	N	1.562225	-0.259728	0.041153
H231	H	1.091121	-0.742775	-0.487782
H232	H	1.591121	-0.242775	0.012218
N233	N	0.784377	-0.598385	-0.180663
N234	N	1.284377	-0.098385	0.319337
N235	N	0.744432	-0.572223	-0.202666
N236	N	1.244432	-0.072223	0.297334
H237	H	0.715530	-0.555337	-0.173735
H238	H	1.215530	-0.055337	0.326265
H239	H	0.792707	-0.688352	-0.188977
H240	H	1.292707	-0.188352	0.311023
N241	N	0.986416	-0.274297	-0.534182
N242	N	1.486416	0.225703	-0.034182
N243	N	1.022164	-0.299940	-0.563398
N244	N	1.522164	0.200060	-0.063398
H245	H	1.051050	-0.320672	-0.539801
H246	H	1.551050	0.179328	-0.039801
H247	H	0.803073	-0.209766	-0.742746
H248	H	1.303073	0.290234	-0.242746
N249	N	1.019606	-0.223311	-0.868298
N250	N	1.519606	0.276689	-0.368298
N251	N	1.069999	-0.226477	-0.839095
N252	N	1.569999	0.273523	-0.339095
H253	H	1.110728	-0.229026	-0.862702
H254	H	1.610728	0.270974	-0.362702
N255	N	1.026487	-0.833659	-0.423052
N256	N	1.526487	-0.333659	0.076948
N257	N	1.026490	-0.875550	-0.423049
N258	N	1.526490	-0.375550	0.076951
H259	H	1.055385	-0.892444	-0.451979
H260	H	1.555385	-0.392444	0.048021
N261	N	0.824555	-0.158075	-0.937831
N262	N	1.324555	0.341925	-0.437831
N263	N	0.788810	-0.132423	-0.967053
N264	N	1.288810	0.367577	-0.467053
H265	H	0.759927	-0.111694	-0.943460
H266	H	1.259927	0.388306	-0.443460
H267	H	0.978017	-0.472282	-0.374566
H268	H	1.478017	0.027718	0.125434
N269	N	0.824542	-0.158068	-1.070087
N270	N	1.324542	0.341932	-0.570087
N271	N	0.788796	-0.132425	-1.040869
N272	N	1.288796	0.367575	-0.540869
H273	H	0.759904	-0.111697	-1.064465
H274	H	1.259904	0.388303	-0.564465
H275	H	0.548301	-0.164225	-0.374657
H276	H	1.048301	0.335775	0.125343
N277	N	0.824527	-0.158154	-0.534184
N278	N	1.324527	0.341846	-0.034184
N279	N	0.784583	-0.173974	-0.497651
N280	N	1.284583	0.326026	0.002349
H281	H	0.755685	-0.153261	-0.474050
H282	H	1.255685	0.346739	0.025950
N283	N	0.824561	-0.954930	-0.220818
N284	N	1.324561	-0.454930	0.279182
N285	N	0.788819	-0.975937	-0.185018
N286	N	1.288819	-0.475937	0.314982
H287	H	0.759912	-0.959064	-0.156075
H288	H	1.259912	-0.459064	0.343925
N289	N	0.784448	-0.739147	-0.180676
N290	N	1.284448	-0.239147	0.319324
N291	N	0.806499	-0.712972	-0.140762
N292	N	1.306499	-0.212972	0.359238
H293	H	0.777603	-0.696090	-0.111819
H294	H	1.277603	-0.196090	0.388181
N295	N	0.137660	-0.274231	-0.220673
N296	N	0.637660	0.225769	0.279327
N297	N	0.144949	-0.271196	-0.162867
N298	N	0.644949	0.228804	0.337133
H299	H	0.121312	-0.291893	-0.133896
H300	H	0.621312	0.208107	0.366104
N301	N	0.986432	-0.274208	-1.070091
N302	N	1.486432	0.225792	-0.570091
N303	N	0.986428	-0.274197	-1.128514
N304	N	1.486428	0.225803	-0.628514
H305	H	1.015309	-0.294918	-1.152122
H306	H	1.515309	0.205082	-0.652122
H307	H	0.464965	-0.289703	-0.292659
H308	H	0.964965	0.210297	0.207341
N309	N	0.270160	-0.158236	-0.382994
N310	N	0.770160	0.341764	0.117006
N311	N	0.262911	-0.116777	-0.378946
N312	N	0.762911	0.383223	0.121054
H313	H	0.286551	-0.096073	-0.407905
H314	H	0.786551	0.403927	0.092095
N315	N	1.019602	-0.223334	-0.736045
N316	N	1.519602	0.276666	-0.236045
N317	N	1.069999	-0.226484	-0.765281
N318	N	1.569999	0.273516	-0.265281
H319	H	1.110726	-0.229039	-0.741699
H320	H	1.610726	0.270961	-0.241699
N321	N	0.986417	-0.274267	-0.666455
N322	N	1.486417	0.225733	-0.166455
N323	N	0.986415	-0.274254	-0.724877
N324	N	1.486415	0.225746	-0.224877
H325	H	1.015297	-0.294975	-0.748486
H326	H	1.515297	0.205025	-0.248486
H327	H	0.465192	-0.142843	-0.310994
H328	H	0.965192	0.357157	0.189006
H329	H	0.346480	-0.142828	-0.310999
H330	H	0.846480	0.357172	0.189001
N331	N	0.673557	-0.274305	-0.220650
N332	N	1.173557	0.225695	0.279350
N333	N	0.710035	-0.302959	-0.242616
N334	N	1.210035	0.197041	0.257384
H335	H	0.733594	-0.323668	-0.213657
H336	H	1.233594	0.176332	0.286343
N337	N	0.137903	-0.158215	-0.382998
N338	N	0.637903	0.341785	0.117002
N339	N	0.167178	-0.132602	-0.418839
N340	N	0.667178	0.367398	0.081161
H341	H	0.143628	-0.111891	-0.447802
H342	H	0.643628	0.388109	0.052198
H343	H	0.832908	-1.044882	-0.229141
H344	H	1.332908	-0.544882	0.270859
N345	N	0.541275	-0.274277	-0.220654
N346	N	1.041275	0.225723	0.279346
N347	N	0.482852	-0.274267	-0.220664
N348	N	0.982852	0.225733	0.279336
H349	H	0.459198	-0.294959	-0.191701
H350	H	0.959198	0.205041	0.308299
H351	H	1.018116	-0.602939	-0.414695
H352	H	1.518116	-0.102939	0.085305
H353	H	1.018143	-0.688045	-0.414718
H354	H	1.518143	-0.188045	0.085282
N355	N	0.986504	-0.954700	-0.382972
N356	N	1.486504	-0.454700	0.117028
N357	N	1.022267	-0.975606	-0.418777
N358	N	1.522267	-0.475606	0.081223
H359	H	1.051162	-0.958652	-0.447711
H360	H	1.551162	-0.458652	0.052289
H361	H	0.832698	-0.472494	-0.229017
H362	H	1.332698	0.027506	0.270983
N363	N	0.986526	-1.049544	-0.382984
N364	N	1.486526	-0.549544	0.117016
N365	N	0.986532	-1.091434	-0.382980
N366	N	1.486532	-0.591434	0.117020
H367	H	1.015426	-1.108328	-0.411912
H368	H	1.515426	-0.608328	0.088088
N369	N	0.784472	-0.833975	-0.180693
N370	N	1.284472	-0.333975	0.319307
N371	N	0.748712	-0.813069	-0.144886
N372	N	1.248712	-0.313069	0.355114
H373	H	0.719818	-0.830023	-0.115950
H374	H	1.219818	-0.330023	0.384050
