data_functionalizedCrystal
_audit_creation_method	'MofGen! by Chris Wilmer'
_symmetry_space_group_name_H-M	'P1'
_symmetry_Int_Tables_number	1
_symmetry_cell_setting	triclinic
loop_
_symmetry_equiv_pos_as_xyz
  x,y,z
_cell_length_a	12.759401
_cell_length_b	17.640280
_cell_length_c	12.759393
_cell_angle_alpha	78.768122
_cell_angle_beta	89.981433
_cell_angle_gamma	78.799979
loop_
_atom_site_label
_atom_site_type_symbol
_atom_site_fract_x
_atom_site_fract_y
_atom_site_fract_z
Zn1	Zn	1.690822	-0.314645	-0.509510
Zn2	Zn	1.726246	-0.446842	-0.298339
Zn3	Zn	1.515134	-0.314684	-0.333839
Zn4	Zn	1.550626	-0.446779	-0.473998
O5	O	1.620707	-0.380738	-0.403922
O6	O	1.842545	-0.332192	-0.481504
O7	O	1.698214	-0.429354	-0.156016
O8	O	1.508761	-0.204071	-0.386861
O9	O	1.868571	-0.429317	-0.326357
O10	O	1.637838	-0.204043	-0.515926
O11	O	1.543111	-0.332258	-0.182097
O12	O	1.372818	-0.332196	-0.352426
O13	O	1.569251	-0.429208	-0.625741
O14	O	1.398894	-0.429246	-0.455400
O15	O	1.672252	-0.332130	-0.651832
O16	O	1.732629	-0.557441	-0.291922
O17	O	1.603601	-0.557395	-0.420977
C18	C	1.347735	-0.380719	-0.403912
C19	C	1.230961	-0.380730	-0.403928
C20	C	1.162566	-0.330253	-0.484791
C21	C	1.052846	-0.330268	-0.484794
C22	C	1.079928	-0.431245	-0.323065
C23	C	1.189645	-0.431225	-0.323059
C24	C	1.203882	-0.279758	-0.565660
C25	C	1.135486	-0.229277	-0.646530
C26	C	1.025766	-0.229292	-0.646533
C27	C	0.984442	-0.279788	-0.565665
C28	C	1.675839	-0.586097	-0.348767
C29	C	1.699520	-0.673951	-0.325206
C30	C	1.441231	-0.962907	-0.583289
C31	C	1.463486	-1.045459	-0.561117
C32	C	1.597926	-1.045442	-0.426868
C33	C	1.575686	-0.962889	-0.449032
C34	C	1.497337	-0.921628	-0.527243
C35	C	1.631792	-0.921609	-0.392986
C36	C	1.609550	-0.839063	-0.415145
C37	C	1.531202	-0.797796	-0.493350
C38	C	1.475095	-0.839081	-0.549402
C39	C	1.710135	-0.962872	-0.314770
C40	C	1.766241	-0.921592	-0.258724
C41	C	1.744005	-0.839044	-0.280888
C42	C	1.665657	-0.797777	-0.359093
C43	C	1.800112	-0.797759	-0.224836
C44	C	1.777870	-0.715212	-0.246995
C45	C	1.643415	-0.715231	-0.381252
C46	C	1.894745	-0.380757	-0.403932
C47	C	2.011524	-0.380765	-0.403936
C48	C	1.620759	-0.380658	-0.677977
C49	C	1.620781	-0.380624	-0.794762
C50	C	1.565389	-0.174576	-0.459315
C51	C	1.541815	-0.086722	-0.482920
C52	C	1.674422	-0.330070	-0.863213
C53	C	1.674439	-0.330042	-0.972945
C54	C	1.567174	-0.431127	-0.945764
C55	C	1.567151	-0.431151	-0.836035
C56	C	1.728053	-0.279543	-0.821940
C57	C	1.781699	-0.228986	-0.890392
C58	C	1.781716	-0.228958	-1.000124
C59	C	1.728087	-0.279486	-1.041404
C60	C	1.620700	-0.380760	-0.130948
C61	C	1.620822	-0.380571	-0.014223
H62	H	1.245334	-0.472328	-0.257213
H63	H	1.661715	-1.079048	-0.363186
H64	H	1.523452	-0.472304	-0.780304
O65	O	1.842465	-0.961595	-0.182828
C66	C	2.028005	-0.986829	-0.125259
C67	C	1.941782	-0.941461	-0.211276
H68	H	2.108326	-0.970580	-0.148240
H69	H	2.005328	-0.970631	-0.044856
H70	H	2.034199	-1.052912	-0.119037
H71	H	1.935543	-0.875367	-0.217595
H72	H	1.964494	-0.957724	-0.291634
O73	O	1.515172	-0.480322	-0.985714
C74	C	1.500303	-0.614764	-0.983191
C75	C	1.559264	-0.559136	-0.937844
H76	H	1.535943	-0.678497	-0.944524
H77	H	1.411856	-0.600949	-0.965310
H78	H	1.509508	-0.606024	-1.073381
H79	H	1.550145	-0.567845	-0.847649
H80	H	1.647688	-0.572965	-0.955809
H81	H	1.293220	-0.279740	-0.565667
O82	O	1.175701	-0.180340	-0.725160
C83	C	1.296856	-0.169816	-0.869806
C84	C	1.251386	-0.225329	-0.780815
H85	H	1.358072	-0.206166	-0.914814
H86	H	1.229173	-0.133752	-0.927675
H87	H	1.337037	-0.128421	-0.832755
H88	H	1.211216	-0.266771	-0.817772
H89	H	1.319111	-0.261337	-0.722959
O90	O	0.959480	-0.180230	-0.725188
C91	C	0.944196	-0.080043	-0.885568
C92	C	1.019384	-0.135576	-0.796563
H93	H	0.992595	-0.043914	-0.943285
H94	H	0.902635	-0.116352	-0.930744
H95	H	0.881673	-0.038710	-0.848515
H96	H	1.081968	-0.176920	-0.833528
H97	H	1.060866	-0.099218	-0.751397
H98	H	1.863896	-0.831366	-0.161150
H99	H	0.895095	-0.279779	-0.565656
H100	H	1.825353	-0.187843	-0.856775
O101	O	1.039620	-0.480273	-0.244626
C102	C	0.882588	-0.525025	-0.172933
C103	C	0.928094	-0.469470	-0.261840
H104	H	0.792411	-0.516298	-0.186807
H105	H	0.921229	-0.588788	-0.174119
H106	H	0.900436	-0.511077	-0.092001
H107	H	0.910260	-0.483347	-0.342816
H108	H	0.889453	-0.405723	-0.260560
H109	H	1.579622	-0.681634	-0.444948
O110	O	1.731845	-1.043058	-0.293414
C111	C	1.790648	-1.161453	-0.362395
C112	C	1.766120	-1.070645	-0.386718
H113	H	1.818342	-1.183785	-0.437821
H114	H	1.856324	-1.183894	-0.296917
H115	H	1.715352	-1.183909	-0.334449
H116	H	1.841353	-1.048122	-0.414708
H117	H	1.700402	-1.048258	-0.452161
H118	H	1.513086	-0.730581	-0.511383
H119	H	1.823556	-0.681602	-0.201355
O120	O	1.398934	-0.799115	-0.625393
C121	C	1.267996	-0.807834	-0.756302
C122	C	1.354191	-0.853193	-0.670254
H123	H	1.231813	-0.851536	-0.792613
H124	H	1.202617	-0.769256	-0.718439
H125	H	1.305807	-0.769120	-0.821616
H126	H	1.316477	-0.891950	-0.604914
H127	H	1.419561	-0.891722	-0.708195
H128	H	1.377439	-0.929311	-0.646985
O129	O	1.409048	-1.085681	-0.615435
C130	C	1.383763	-1.212856	-0.640843
C131	C	1.445477	-1.167404	-0.579238
H132	H	1.413208	-1.278936	-0.611617
H133	H	1.294693	-1.196740	-0.626639
H134	H	1.397751	-1.196531	-0.729947
H135	H	1.431577	-1.183703	-0.490116
H136	H	1.534526	-1.183523	-0.593532
H137	H	1.728047	-0.279563	-0.732592
O138	O	1.833912	-0.179822	-1.066463
C139	C	1.940253	-0.079532	-1.081844
C140	C	1.881198	-0.135149	-1.006595
H141	H	1.978480	-0.043387	-1.033474
H142	H	2.004994	-0.115776	-1.123447
H143	H	1.880932	-0.038217	-1.144342
H144	H	1.940437	-0.176474	-0.944038
H145	H	1.816441	-0.098855	-0.965071
O146	O	1.728290	-0.279531	-1.147978
C147	C	1.834497	-0.299765	-1.300003
C148	C	1.834413	-0.299756	-1.179301
H149	H	1.920290	-0.316099	-1.325370
H150	H	1.787029	-0.344591	-1.317793
H151	H	1.796225	-0.238547	-1.346223
H152	H	1.872702	-0.360940	-1.133002
H153	H	1.881848	-0.254888	-1.161594
