data_functionalizedCrystal
_audit_creation_method	'MofGen! by Chris Wilmer'
_symmetry_space_group_name_H-M	'P1'
_symmetry_Int_Tables_number	1
_symmetry_cell_setting	triclinic
loop_
_symmetry_equiv_pos_as_xyz
  x,y,z
_cell_length_a	10.723024
_cell_length_b	9.798715
_cell_length_c	10.723023
_cell_angle_alpha	90.002387
_cell_angle_beta	84.467709
_cell_angle_gamma	90.003403
loop_
_atom_site_label
_atom_site_type_symbol
_atom_site_fract_x
_atom_site_fract_y
_atom_site_fract_z
O1	O	1.657187	0.113479	0.175025
O2	O	1.294034	0.113483	0.191778
O3	O	1.483988	0.113475	0.001825
O4	O	1.467233	0.113487	0.364978
O5	O	1.483974	-0.113507	0.001824
O6	O	1.294020	-0.113499	0.191777
O7	O	1.657173	-0.113503	0.175024
Zn8	Zn	1.475594	-0.149539	0.183400
Zn9	Zn	1.475613	0.149519	0.183402
O10	O	1.467219	-0.113495	0.364976
C11	C	1.247528	-0.000007	0.190558
C12	C	1.108973	-0.000006	0.186911
N13	N	1.475590	-0.353639	0.183398
C14	C	0.917217	-0.000007	0.073603
C15	C	1.060420	-0.000008	0.077371
C16	C	1.548355	-0.421415	0.255759
C17	C	1.548375	-0.578578	0.255758
C18	C	1.703679	-0.000010	0.176243
C19	C	1.842234	-0.000002	0.179891
C20	C	1.482762	-0.000014	-0.044675
C21	C	1.479114	-0.000010	-0.183229
N22	N	1.475626	0.353619	0.183394
C23	C	1.477496	0.117576	-0.244994
C24	C	1.473726	0.117583	-0.388197
C25	C	1.468445	-0.000003	0.411477
C26	C	1.472093	0.000002	0.550031
H27	H	0.875395	-0.000030	-0.020182
Cl28	Cl	1.644554	-0.668559	0.351418
Cl29	Cl	1.474251	-0.155438	-0.367978
H30	H	1.610642	-0.363089	0.317706
H31	H	1.413321	-0.588104	0.121446
Cl32	Cl	1.009508	0.000011	0.327406
Cl33	Cl	1.159893	-0.000003	-0.063119
Cl34	Cl	0.906792	-0.000009	0.324697
H35	H	1.478895	0.218239	-0.191855
H36	H	1.413312	-0.411965	0.121443
Cl37	Cl	1.471587	0.273017	-0.470199
Cl38	Cl	1.476936	-0.155435	-0.265259
