data_functionalizedCrystal
_audit_creation_method	'MofGen! by Chris Wilmer'
_symmetry_space_group_name_H-M	'P1'
_symmetry_Int_Tables_number	1
_symmetry_cell_setting	triclinic
loop_
_symmetry_equiv_pos_as_xyz
  x,y,z
_cell_length_a	18.215407
_cell_length_b	12.594516
_cell_length_c	18.215399
_cell_angle_alpha	89.977894
_cell_angle_beta	89.982632
_cell_angle_gamma	90.013496
loop_
_atom_site_label
_atom_site_type_symbol
_atom_site_fract_x
_atom_site_fract_y
_atom_site_fract_z
Zn1	Zn	1.125117	-0.423826	-0.416097
Zn2	Zn	1.375117	-0.173826	-0.166097
Zn3	Zn	1.625117	0.076174	0.083903
Zn4	Zn	1.875117	0.326174	0.333903
Zn5	Zn	1.125044	-0.601823	-0.293044
Zn6	Zn	1.375044	-0.351823	-0.043044
Zn7	Zn	1.625044	-0.101823	0.206956
Zn8	Zn	1.875044	0.148177	0.456956
Zn9	Zn	1.002050	-0.423851	-0.293050
Zn10	Zn	1.252050	-0.173851	-0.043050
Zn11	Zn	1.502050	0.076149	0.206950
Zn12	Zn	1.752050	0.326149	0.456950
Zn13	Zn	1.002035	-0.601755	-0.416074
Zn14	Zn	1.252035	-0.351755	-0.166074
Zn15	Zn	1.502035	-0.101755	0.083926
Zn16	Zn	1.752035	0.148245	0.333926
O17	O	1.063561	-0.512814	-0.354566
O18	O	1.313561	-0.262814	-0.104566
O19	O	1.563561	-0.012814	0.145434
O20	O	1.813561	0.237186	0.395434
O21	O	1.228092	-0.447455	-0.399781
O22	O	1.478092	-0.197455	-0.149781
O23	O	1.728092	0.052545	0.100219
O24	O	1.978092	0.302545	0.350219
O25	O	1.108705	-0.578254	-0.190060
O26	O	1.358705	-0.328254	0.059940
O27	O	1.608705	-0.078254	0.309940
O28	O	1.858705	0.171746	0.559940
O29	O	1.018412	-0.274902	-0.309385
O30	O	1.268412	-0.024902	-0.059385
O31	O	1.518412	0.225098	0.190615
O32	O	1.768412	0.475098	0.440615
O33	O	1.228038	-0.578229	-0.309374
O34	O	1.478038	-0.328229	-0.059374
O35	O	1.728038	-0.078229	0.190626
O36	O	1.978038	0.171771	0.440626
O37	O	1.108829	-0.274883	-0.399787
O38	O	1.358829	-0.024883	-0.149787
O39	O	1.608829	0.225117	0.100213
O40	O	1.858829	0.475117	0.350213
O41	O	1.018341	-0.447499	-0.190065
O42	O	1.268341	-0.197499	0.059935
O43	O	1.518341	0.052501	0.309935
O44	O	1.768341	0.302501	0.559935
O45	O	0.899063	-0.447432	-0.309362
O46	O	1.149063	-0.197432	-0.059362
O47	O	1.399063	0.052568	0.190638
O48	O	1.649063	0.302568	0.440638
O49	O	1.018386	-0.578113	-0.519061
O50	O	1.268386	-0.328113	-0.269061
O51	O	1.518386	-0.078113	-0.019061
O52	O	1.768386	0.171887	0.230939
O53	O	0.899052	-0.578137	-0.399747
O54	O	1.149052	-0.328137	-0.149747
O55	O	1.399052	-0.078137	0.100253
O56	O	1.649052	0.171863	0.350253
O57	O	1.108814	-0.447389	-0.519079
O58	O	1.358814	-0.197389	-0.269079
O59	O	1.608814	0.052611	-0.019079
O60	O	1.858814	0.302611	0.230921
O61	O	1.108690	-0.750760	-0.309351
O62	O	1.358690	-0.500760	-0.059351
O63	O	1.608690	-0.250760	0.190649
O64	O	1.858690	-0.000760	0.440649
O65	O	1.018315	-0.750709	-0.399741
O66	O	1.268315	-0.500709	-0.149741
O67	O	1.518315	-0.250709	0.100259
O68	O	1.768315	-0.000709	0.350259
C69	C	0.872355	-0.512781	-0.354553
C70	C	1.122355	-0.262781	-0.104553
C71	C	1.372355	-0.012781	0.145447
C72	C	1.622355	0.237219	0.395447
C73	C	0.790556	-0.512793	-0.354565
C74	C	1.040556	-0.262793	-0.104565
C75	C	1.290556	-0.012793	0.145435
C76	C	1.540556	0.237207	0.395435
C77	C	0.602389	-0.444839	-0.401715
C78	C	0.852389	-0.194839	-0.151715
C79	C	1.102389	0.055161	0.098285
C80	C	1.352389	0.305161	0.348285
C81	C	0.525530	-0.444848	-0.401717
C82	C	0.775530	-0.194848	-0.151717
C83	C	1.025530	0.055152	0.098283
C84	C	1.275530	0.305152	0.348283
C85	C	0.525486	-0.580818	-0.307431
C86	C	0.775486	-0.330818	-0.057431
C87	C	1.025486	-0.080818	0.192569
C88	C	1.275486	0.169182	0.442569
C89	C	0.602343	-0.580803	-0.307425
C90	C	0.852343	-0.330803	-0.057425
C91	C	1.102343	-0.080803	0.192575
C92	C	1.352343	0.169197	0.442575
C93	C	0.640793	-0.512815	-0.354571
C94	C	0.890793	-0.262815	-0.104571
C95	C	1.140793	-0.012815	0.145429
C96	C	1.390793	0.237185	0.395429
C97	C	0.487077	-0.512839	-0.354579
C98	C	0.737077	-0.262839	-0.104579
C99	C	0.987077	-0.012839	0.145421
C100	C	1.237077	0.237161	0.395421
C101	C	0.403743	-0.512850	-0.354582
C102	C	0.653743	-0.262850	-0.104582
C103	C	0.903743	-0.012850	0.145418
C104	C	1.153743	0.237150	0.395418
C105	C	0.724132	-0.512803	-0.354568
C106	C	0.974132	-0.262803	-0.104568
C107	C	1.224132	-0.012803	0.145432
C108	C	1.474132	0.237197	0.395432
C109	C	1.063513	-0.789355	-0.354559
C110	C	1.313513	-0.539355	-0.104559
C111	C	1.563513	-0.289355	0.145441
C112	C	1.813513	-0.039355	0.395441
C113	C	1.063560	-0.907660	-0.354581
C114	C	1.313560	-0.657660	-0.104581
C115	C	1.563560	-0.407660	0.145419
C116	C	1.813560	-0.157660	0.395419
C117	C	1.014400	-0.976924	-0.403709
C118	C	1.264400	-0.726924	-0.153709
C119	C	1.514400	-0.476924	0.096291
C120	C	1.764400	-0.226924	0.346291
C121	C	0.996471	-1.047782	-0.336557
C122	C	1.246471	-0.797782	-0.086557
C123	C	1.496471	-0.547782	0.163443
C124	C	1.746471	-0.297782	0.413443
C125	C	1.081556	-1.047602	-0.421744
C126	C	1.331556	-0.797602	-0.171744
C127	C	1.581556	-0.547602	0.078256
C128	C	1.831556	-0.297602	0.328256
C129	C	1.045595	-0.976959	-0.287393
C130	C	1.295595	-0.726959	-0.037393
C131	C	1.545595	-0.476959	0.212607
C132	C	1.795595	-0.226959	0.462607
C133	C	1.130712	-0.976773	-0.372625
C134	C	1.380712	-0.726773	-0.122625
C135	C	1.630712	-0.476773	0.127375
C136	C	1.880712	-0.226773	0.377375
C137	C	1.112808	-1.047598	-0.305427
C138	C	1.362808	-0.797598	-0.055427
C139	C	1.612808	-0.547598	0.194573
C140	C	1.862808	-0.297598	0.444573
C141	C	1.255514	-0.512847	-0.354580
C142	C	1.505514	-0.262847	-0.104580
C143	C	1.755514	-0.012847	0.145420
C144	C	2.005514	0.237153	0.395420
C145	C	1.337313	-0.512862	-0.354585
C146	C	1.587313	-0.262862	-0.104585
C147	C	1.837313	-0.012862	0.145415
C148	C	2.087313	0.237138	0.395415
C149	C	1.063606	-0.512740	-0.546519
C150	C	1.313606	-0.262740	-0.296519
C151	C	1.563606	-0.012740	-0.046519
C152	C	1.813606	0.237260	0.203481
C153	C	1.063625	-0.512709	-0.628318
C154	C	1.313625	-0.262709	-0.378318
C155	C	1.563625	-0.012709	-0.128318
C156	C	1.813625	0.237291	0.121682
C157	C	1.063630	-0.235193	-0.354590
C158	C	1.313630	0.014807	-0.104590
C159	C	1.563630	0.264807	0.145410
C160	C	1.813630	0.514807	0.395410
C161	C	1.063659	-0.116887	-0.354599
C162	C	1.313659	0.133113	-0.104599
C163	C	1.563659	0.383113	0.145401
C164	C	1.813659	0.633113	0.395401
C165	C	1.110728	-0.444578	-0.816522
C166	C	1.360728	-0.194578	-0.566522
C167	C	1.610728	0.055422	-0.316522
C168	C	1.860728	0.305422	-0.066522
C169	C	1.110737	-0.444547	-0.893381
C170	C	1.360737	-0.194547	-0.643381
C171	C	1.610737	0.055453	-0.393381
C172	C	1.860737	0.305453	-0.143381
C173	C	1.016574	-0.580676	-0.893352
C174	C	1.266574	-0.330676	-0.643352
C175	C	1.516574	-0.080676	-0.393352
C176	C	1.766574	0.169324	-0.143352
C177	C	1.016563	-0.580701	-0.816494
C178	C	1.266563	-0.330701	-0.566494
C179	C	1.516563	-0.080701	-0.316494
C180	C	1.766563	0.169299	-0.066494
C181	C	1.063644	-0.512653	-0.778082
C182	C	1.313644	-0.262653	-0.528082
C183	C	1.563644	-0.012653	-0.278082
C184	C	1.813644	0.237347	-0.028082
C185	C	1.063664	-0.512597	-0.931798
C186	C	1.313664	-0.262597	-0.681798
C187	C	1.563664	-0.012597	-0.431798
C188	C	1.813664	0.237403	-0.181798
C189	C	1.063674	-0.512564	-1.015132
C190	C	1.313674	-0.262564	-0.765132
C191	C	1.563674	-0.012564	-0.515132
C192	C	1.813674	0.237436	-0.265132
C193	C	1.063634	-0.512685	-0.694743
C194	C	1.313634	-0.262685	-0.444743
C195	C	1.563634	-0.012685	-0.194743
C196	C	1.813634	0.237315	0.055257
C197	C	1.063559	-0.512810	-0.163360
C198	C	1.313559	-0.262810	0.086640
C199	C	1.563559	-0.012810	0.336640
C200	C	1.813559	0.237190	0.586640
C201	C	1.063683	-0.512541	-0.081561
C202	C	1.313683	-0.262541	0.168439
C203	C	1.563683	-0.012541	0.418439
C204	C	1.813683	0.237459	0.668439
H205	H	0.633693	-0.389475	-0.440102
H206	H	0.883693	-0.139475	-0.190102
H207	H	1.133693	0.110525	0.059898
H208	H	1.383693	0.360525	0.309898
H209	H	1.030348	-0.946057	-0.230585
H210	H	1.280348	-0.696057	0.019415
H211	H	1.530348	-0.446057	0.269415
H212	H	1.780348	-0.196057	0.519415
H213	H	1.187442	-0.945562	-0.387905
H214	H	1.437442	-0.695562	-0.137905
H215	H	1.687442	-0.445562	0.112095
H216	H	1.937442	-0.195562	0.362095
F217	F	0.643218	-0.653148	-0.257240
F218	F	0.893218	-0.403148	-0.007240
F219	F	1.143218	-0.153148	0.242760
F220	F	1.393218	0.096852	0.492760
F221	F	0.959967	-0.936360	-0.457935
F222	F	1.209967	-0.686360	-0.207935
F223	F	1.459967	-0.436360	0.042065
F224	F	1.709967	-0.186360	0.292065
F225	F	0.966473	-0.653097	-0.934240
F226	F	1.216473	-0.403097	-0.684240
F227	F	1.466473	-0.153097	-0.434240
F228	F	1.716473	0.096903	-0.184240
H229	H	1.096738	-1.078632	-0.478536
H230	H	1.346738	-0.828632	-0.228536
H231	H	1.596738	-0.578632	0.021464
H232	H	1.846738	-0.328632	0.271464
H233	H	1.149077	-0.389111	-0.924676
H234	H	1.399077	-0.139111	-0.674676
H235	H	1.649077	0.110889	-0.424676
H236	H	1.899077	0.360889	-0.174676
F237	F	0.922300	-1.088547	-0.316610
F238	F	1.172300	-0.838547	-0.066610
F239	F	1.422300	-0.588547	0.183390
F240	F	1.672300	-0.338547	0.433390
H241	H	1.149063	-0.389166	-0.785249
H242	H	1.399063	-0.139166	-0.535249
H243	H	1.649063	0.110834	-0.285249
H244	H	1.899063	0.360834	-0.035249
H245	H	0.978215	-0.636135	-0.785195
H246	H	1.228215	-0.386135	-0.535195
H247	H	1.478215	-0.136135	-0.285195
H248	H	1.728215	0.113865	-0.035195
H249	H	0.494266	-0.389493	-0.440105
H250	H	0.744266	-0.139493	-0.190105
H251	H	0.994266	0.110507	0.059895
H252	H	1.244266	0.360507	0.309895
H253	H	0.494171	-0.636173	-0.269047
H254	H	0.744171	-0.386173	-0.019047
H255	H	0.994171	-0.136173	0.230953
H256	H	1.244171	0.113827	0.480953
H257	H	1.154423	-1.078434	-0.263841
H258	H	1.404423	-0.828434	-0.013841
H259	H	1.654423	-0.578434	0.236159
H260	H	1.904423	-0.328434	0.486159
