data_functionalizedCrystal
_audit_creation_method	'MofGen! by Chris Wilmer'
_symmetry_space_group_name_H-M	'P1'
_symmetry_Int_Tables_number	1
_symmetry_cell_setting	triclinic
loop_
_symmetry_equiv_pos_as_xyz
  x,y,z
_cell_length_a	13.635800
_cell_length_b	10.992723
_cell_length_c	11.102291
_cell_angle_alpha	88.111272
_cell_angle_beta	108.605752
_cell_angle_gamma	71.229715
loop_
_atom_site_label
_atom_site_type_symbol
_atom_site_fract_x
_atom_site_fract_y
_atom_site_fract_z
V1	V	2.056200	-0.177779	0.396248
O2	O	2.035265	0.008526	0.388716
O3	O	2.045013	-0.352489	0.393527
O4	O	2.044586	-0.175051	0.569070
O5	O	2.035694	-0.170140	0.211958
V6	V	2.294698	-0.155494	0.374207
O7	O	2.193990	-0.226663	0.444597
O8	O	2.382006	-0.106609	0.325857
O9	O	2.194282	0.019217	0.376928
O10	O	2.374332	-0.341799	0.381738
O11	O	2.373902	-0.163132	0.558497
O12	O	2.194709	-0.158221	0.201384
V13	V	2.556200	-0.177779	0.396248
O14	O	2.535265	0.008526	0.388716
O15	O	2.545013	-0.352489	0.393527
O16	O	2.544586	-0.175051	0.569070
O17	O	2.535694	-0.170140	0.211958
V18	V	2.794698	-0.155494	0.374207
O19	O	2.693990	-0.226663	0.444597
O20	O	2.882006	-0.106609	0.325857
O21	O	2.694282	0.019217	0.376928
O22	O	2.874332	-0.341799	0.381738
O23	O	2.873902	-0.163132	0.558497
O24	O	2.694709	-0.158221	0.201384
C25	C	1.970271	-0.395080	0.387273
C26	C	2.001851	-0.537908	0.386200
C27	C	2.157803	-0.748849	0.391850
C28	C	2.125161	-0.600370	0.393457
C29	C	1.990108	-0.607125	0.503913
C30	C	2.023693	-0.755798	0.502943
C31	C	1.958581	-0.717514	0.259981
C32	C	1.927405	-0.568793	0.259635
C33	C	1.969727	-0.168738	0.611194
C34	C	2.000959	-0.167665	0.752478
C35	C	2.100695	0.061801	0.383178
C36	C	2.058735	0.204628	0.384259
C37	C	2.101239	-0.164538	0.159253
C38	C	2.059626	-0.165605	0.017969
C39	C	2.470271	-0.395080	0.387273
C40	C	2.501851	-0.537908	0.386200
C41	C	2.469727	-0.168738	0.611194
C42	C	2.500959	-0.167665	0.752478
C43	C	2.107650	-0.173568	0.825325
C44	C	2.136983	-0.172534	0.958071
C45	C	1.952924	-0.159698	0.945111
C46	C	1.923590	-0.160723	0.812366
C47	C	2.213917	-0.180984	0.832810
C48	C	2.243250	-0.179950	0.965556
C49	C	2.600695	0.061801	0.383178
C50	C	2.558735	0.204628	0.384259
C51	C	2.601239	-0.164538	0.159253
C52	C	2.559626	-0.165605	0.017969
C53	C	2.608707	-0.611554	0.392036
C54	C	2.638377	-0.745757	0.391039
C55	C	2.454322	-0.732657	0.378365
C56	C	2.424657	-0.598457	0.379371
C57	C	2.714968	-0.619117	0.399347
C58	C	2.744638	-0.753321	0.398350
C59	C	2.607650	-0.173568	0.825325
C60	C	2.636983	-0.172534	0.958071
C61	C	2.452924	-0.159698	0.945111
C62	C	2.423590	-0.160723	0.812366
C63	C	2.713917	-0.180984	0.832810
C64	C	2.743250	-0.179950	0.965556
H65	H	2.137812	-0.553216	0.309322
Cl66	Cl	2.228612	-0.046346	0.760094
H67	H	2.337651	-0.538502	0.374634
Cl68	Cl	2.287917	-0.328910	0.795020
Cl69	Cl	2.354529	-0.323371	1.047147
Cl70	Cl	2.202467	-0.787571	0.261100
Cl71	Cl	2.272363	-0.832441	0.530273
H72	H	2.094199	-0.807624	0.596527
H73	H	2.261260	-0.088726	0.994663
H74	H	2.815324	-0.272850	1.018397
H75	H	2.391478	-0.781973	0.372806
Cl76	Cl	2.801242	-0.589112	0.542053
Cl77	Cl	1.789457	-0.153292	0.720788
Cl78	Cl	1.941499	-0.496858	0.125064
Cl79	Cl	2.714812	-0.536023	0.261004
Cl80	Cl	2.846485	-0.843659	0.543780
Cl81	Cl	2.784336	-0.792298	0.264315
Cl82	Cl	2.289457	-0.153292	0.720788
Cl83	Cl	2.355670	-0.150975	1.020409
H84	H	1.951491	-0.786830	0.502618
H85	H	2.723443	-0.093779	0.785719
Cl86	Cl	2.771063	-0.039115	1.010508
H87	H	2.183570	-0.581728	0.484284
Cl88	Cl	1.786475	-0.500817	0.240089
H89	H	2.761848	-0.276799	0.808340
H90	H	1.901672	-0.566687	0.503075
Cl91	Cl	1.989383	-0.756805	0.120652
Cl92	Cl	1.843763	-0.762587	0.249587
Cl93	Cl	2.072893	-0.575969	0.648517
H94	H	1.889937	-0.154044	0.993888
