data_functionalizedCrystal
_audit_creation_method	'MofGen! by Chris Wilmer'
_symmetry_space_group_name_H-M	'P1'
_symmetry_Int_Tables_number	1
_symmetry_cell_setting	triclinic
loop_
_symmetry_equiv_pos_as_xyz
  x,y,z
_cell_length_a	10.968094
_cell_length_b	11.026607
_cell_length_c	9.482900
_cell_angle_alpha	78.599815
_cell_angle_beta	92.548310
_cell_angle_gamma	83.620158
loop_
_atom_site_label
_atom_site_type_symbol
_atom_site_fract_x
_atom_site_fract_y
_atom_site_fract_z
O1	O	1.656909	-0.216403	0.294166
O2	O	1.308283	-0.219100	0.206832
O3	O	1.453701	-0.039722	0.243266
O4	O	1.511490	-0.395781	0.257732
O5	O	1.424197	-0.076311	0.477666
O6	O	1.278778	-0.255689	0.441232
O7	O	1.627404	-0.252992	0.528566
Cu8	Cu	1.450397	-0.257681	0.506302
Cu9	Cu	1.485290	-0.214411	0.229096
O10	O	1.481985	-0.432370	0.492132
C11	C	1.248205	-0.234435	0.312678
C12	C	1.113146	-0.225603	0.278845
C13	C	0.898050	-0.231476	0.350209
C14	C	1.037639	-0.240616	0.385192
C15	C	1.428288	-0.012297	0.357794
C16	C	1.396509	0.123933	0.349828
C17	C	1.687482	-0.237657	0.422717
C18	C	1.822542	-0.246487	0.456541
C19	C	1.507399	-0.459795	0.377601
C20	C	1.539180	-0.596023	0.385558
N21	N	1.425864	-0.288116	0.701275
C22	C	1.484260	0.193556	0.371808
C23	C	1.451416	0.334356	0.363575
N24	N	1.509830	-0.183967	0.034125
C25	C	1.478044	-0.223380	0.786548
C26	C	1.457643	-0.248712	0.948854
H27	H	1.076330	-0.260229	0.502133
H28	H	1.074457	-0.205985	0.161903
H29	H	1.297068	0.168566	0.324907
Br30	Br	1.577306	-0.099423	0.707877
Br31	Br	0.887023	-0.279171	0.651446
H32	H	1.397857	-0.322888	0.996000
Br33	Br	1.650011	0.119182	0.413315
H34	H	1.351969	0.378984	0.338653
H35	H	1.569605	-0.109782	0.986977
Br36	Br	1.326217	-0.411741	0.779851
Br37	Br	0.833563	-0.198721	0.155303
Br38	Br	1.704938	0.329613	0.427070
