data_functionalizedCrystal
_audit_creation_method	'MofGen! by Chris Wilmer'
_symmetry_space_group_name_H-M	'P1'
_symmetry_Int_Tables_number	1
_symmetry_cell_setting	triclinic
loop_
_symmetry_equiv_pos_as_xyz
  x,y,z
_cell_length_a	18.050589
_cell_length_b	12.827893
_cell_length_c	12.827885
_cell_angle_alpha	90.021189
_cell_angle_beta	89.970449
_cell_angle_gamma	89.973570
loop_
_atom_site_label
_atom_site_type_symbol
_atom_site_fract_x
_atom_site_fract_y
_atom_site_fract_z
Zn1	Zn	-0.295659	-1.597576	-0.590904
Zn2	Zn	0.204341	-1.097576	-0.090904
Zn3	Zn	-0.419867	-1.597431	-0.416165
Zn4	Zn	0.080133	-1.097431	0.083835
Zn5	Zn	-0.295691	-1.422818	-0.416172
Zn6	Zn	0.204309	-0.922818	0.083828
Zn7	Zn	-0.419808	-1.422764	-0.590859
Zn8	Zn	0.080192	-0.922764	-0.090859
O9	O	-0.357756	-1.510147	-0.503525
O10	O	0.142244	-1.010147	-0.003525
O11	O	-0.312147	-1.743793	-0.567740
O12	O	0.187853	-1.243793	-0.067740
O13	O	-0.403433	-1.574230	-0.269930
O14	O	0.096567	-1.074230	0.230070
O15	O	-0.191762	-1.446083	-0.439372
O16	O	0.308238	-0.946083	0.060628
O17	O	-0.403402	-1.743687	-0.439360
O18	O	0.096598	-1.243687	0.060640
O19	O	-0.191739	-1.574478	-0.567747
O20	O	0.308261	-1.074478	-0.067747
O21	O	-0.312202	-1.445943	-0.269935
O22	O	0.187798	-0.945943	0.230065
O23	O	-0.312144	-1.276575	-0.439328
O24	O	0.187856	-0.776575	0.060672
O25	O	-0.403301	-1.445991	-0.737101
O26	O	0.096699	-0.945991	-0.237101
O27	O	-0.403332	-1.276535	-0.567670
O28	O	0.096668	-0.776535	-0.067670
O29	O	-0.312089	-1.574425	-0.737134
O30	O	0.187911	-1.074425	-0.237134
O31	O	-0.523784	-1.574178	-0.439317
O32	O	-0.023784	-1.074178	0.060683
O33	O	-0.523740	-1.445851	-0.567664
O34	O	-0.023740	-0.945851	-0.067664
C35	C	-0.357736	-1.238638	-0.503496
C36	C	0.142264	-0.738638	-0.003496
C37	C	-0.357745	-1.122484	-0.503508
C38	C	0.142255	-0.622484	-0.003508
C39	C	-0.312668	-1.070752	-0.567132
C40	C	0.187332	-0.570752	-0.067132
C41	C	-0.312677	-0.950702	-0.567146
C42	C	0.187323	-0.450702	-0.067146
C43	C	-0.550708	-1.510021	-0.503507
C44	C	-0.050708	-1.010021	-0.003507
C45	C	-0.633254	-1.510063	-0.503535
C46	C	-0.133254	-1.010063	-0.003535
C47	C	-0.832708	-1.440347	-0.573306
C48	C	-0.332708	-0.940347	-0.073306
C49	C	-0.882155	-1.414870	-0.477948
C50	C	-0.382155	-0.914870	0.022052
C51	C	-0.784384	-1.510166	-0.503549
C52	C	-0.284384	-1.010166	-0.003549
C53	C	-0.882019	-1.535694	-0.598917
C54	C	-0.382019	-1.035694	-0.098917
C55	C	-0.930370	-1.510263	-0.503570
C56	C	-0.430370	-1.010263	-0.003570
C57	C	-0.832744	-1.484639	-0.408140
C58	C	-0.332744	-0.984639	0.091860
C59	C	-0.832604	-1.605506	-0.529174
C60	C	-0.332604	-1.105506	-0.029174
C61	C	-0.882029	-1.580066	-0.433751
C62	C	-0.382029	-1.080066	0.066249
C63	C	-0.700286	-1.510107	-0.503538
C64	C	-0.200286	-1.010107	-0.003538
C65	C	-1.014466	-1.510322	-0.503570
C66	C	-0.514466	-1.010322	-0.003570
C67	C	-0.164051	-1.510303	-0.503565
C68	C	0.335949	-1.010303	-0.003565
C69	C	-0.081505	-1.510369	-0.503582
C70	C	0.418495	-1.010369	-0.003582
C71	C	-0.357685	-1.510219	-0.776095
C72	C	0.142315	-1.010219	-0.276095
C73	C	-0.357655	-1.510249	-0.892248
C74	C	0.142345	-1.010249	-0.392248
C75	C	-0.357771	-0.782718	-0.503546
C76	C	0.142229	-0.282718	-0.003546
C77	C	-0.357762	-0.898871	-0.503534
C78	C	0.142238	-0.398871	-0.003534
C79	C	-0.312511	-1.573809	-0.944049
C80	C	0.187489	-1.073809	-0.444049
C81	C	-0.312479	-1.573842	-1.064100
C82	C	0.187521	-1.073842	-0.564100
C83	C	-0.357774	-1.510137	-0.232015
C84	C	0.142226	-1.010137	0.267985
C85	C	-0.357595	-1.510309	-0.115862
C86	C	0.142405	-1.010309	0.384138
H87	H	-0.396342	-1.077898	-0.449046
H88	H	0.103658	-0.577898	0.050954
Cl89	Cl	-0.417354	-0.967545	-0.419433
Cl90	Cl	0.082646	-0.467545	0.080567
Cl91	Cl	-0.799469	-1.451220	-0.283596
Cl92	Cl	-0.299469	-0.951220	0.216404
H93	H	-0.273833	-1.628261	-1.108647
H94	H	0.226167	-1.128261	-0.608647
Cl95	Cl	-0.253070	-1.139582	-0.651216
Cl96	Cl	0.246930	-0.639582	-0.151216
H97	H	-0.903936	-1.334289	-0.456293
H98	H	-0.403936	-0.834289	0.043707
Cl99	Cl	-0.417287	-1.426262	-0.960987
Cl100	Cl	0.082713	-0.926262	-0.460987
H101	H	-0.396248	-1.455894	-1.071321
H102	H	0.103752	-0.955894	-0.571321
Cl103	Cl	-0.915255	-1.671291	-0.342587
Cl104	Cl	-0.415255	-1.171291	0.157413
Cl105	Cl	-0.253094	-0.882021	-0.651255
Cl106	Cl	0.246906	-0.382021	-0.151255
Cl107	Cl	-0.252856	-1.657764	-0.875310
Cl108	Cl	0.247144	-1.157764	-0.375310
H109	H	-0.810825	-1.686069	-0.550874
H110	H	-0.310825	-1.186069	-0.050874
H111	H	-0.811052	-1.381217	-0.632213
H112	H	-0.311052	-0.881217	-0.132213
Cl113	Cl	-0.915441	-1.568969	-0.723422
Cl114	Cl	-0.415441	-1.068969	-0.223422
