data_functionalizedCrystal
_audit_creation_method	'MofGen! by Chris Wilmer'
_symmetry_space_group_name_H-M	'P1'
_symmetry_Int_Tables_number	1
_symmetry_cell_setting	triclinic
loop_
_symmetry_equiv_pos_as_xyz
  x,y,z
_cell_length_a	6.817900
_cell_length_b	16.418049
_cell_length_c	16.305550
_cell_angle_alpha	95.392859
_cell_angle_beta	103.455250
_cell_angle_gamma	103.389670
loop_
_atom_site_label
_atom_site_type_symbol
_atom_site_fract_x
_atom_site_fract_y
_atom_site_fract_z
V1	V	-4.025855	-0.116594	-0.263330
O2	O	-4.013857	0.004875	-0.258012
O3	O	-3.976925	-0.230486	-0.261823
O4	O	-3.977266	-0.115119	-0.378044
O5	O	-4.013514	-0.111290	-0.140987
V6	V	-4.509576	-0.102027	-0.248661
O7	O	-4.286679	-0.148547	-0.295508
O8	O	-4.698950	-0.070073	-0.216484
O9	O	-4.335300	0.011866	-0.250168
O10	O	-4.638971	-0.223496	-0.253980
O11	O	-4.639315	-0.107331	-0.371005
O12	O	-4.334959	-0.103501	-0.133948
C13	C	-3.821803	-0.258241	-0.257745
C14	C	-3.863082	-0.351351	-0.257277
C15	C	-3.822237	-0.111078	-0.405994
C16	C	-3.863790	-0.110626	-0.499775
C17	C	-4.140109	-0.569849	-0.260438
C18	C	-4.178884	-0.657337	-0.260006
C19	C	-3.814681	-0.648771	-0.251559
C20	C	-3.775912	-0.561285	-0.251997
C21	C	-3.938631	-0.521826	-0.256432
C22	C	-4.016174	-0.696800	-0.255562
C23	C	-4.058214	-0.791658	-0.255094
C24	C	-3.896590	-0.426962	-0.256902
C25	C	-4.014883	-0.108876	-0.840516
C26	C	-3.778853	-0.103678	-0.799574
C27	C	-3.735656	-0.104495	-0.702081
C28	C	-3.939923	-0.109743	-0.671470
C29	C	-4.106679	-0.192465	-0.722309
C30	C	-4.148544	-0.191997	-0.819857
C31	C	-4.069896	-0.032013	-0.794476
C32	C	-4.021969	-0.031358	-0.696631
C33	C	-3.897571	-0.110237	-0.575934
C34	C	-4.057244	-0.108388	-0.936054
C35	C	-4.153764	0.039616	-0.254244
C36	C	-4.091723	0.132725	-0.254717
C37	C	-4.153330	-0.107545	-0.105993
C38	C	-4.091015	-0.107993	-0.012211
H39	H	-4.272608	-0.537724	-0.264048
C40	C	-3.557012	-0.509155	-0.247469
C41	C	-3.418778	-0.516347	-0.171858
C42	C	-3.217128	-0.468329	-0.167655
H43	H	-3.513884	-0.529465	-0.295041
H44	H	-3.557118	-0.451383	-0.248320
H45	H	-3.418665	-0.574106	-0.171015
H46	H	-3.461838	-0.496032	-0.124272
H47	H	-3.217234	-0.410558	-0.168506
H48	H	-3.174021	-0.488643	-0.215231
H49	H	-3.123315	-0.473196	-0.116351
H50	H	-3.609358	-0.045019	-0.666905
C51	C	-3.637920	-0.023982	-0.815988
C52	C	-3.760562	0.021913	-0.863178
C53	C	-3.630806	0.095329	-0.878331
H54	H	-3.557837	0.009948	-0.763079
H55	H	-3.546807	-0.039246	-0.847183
H56	H	-3.851638	0.037178	-0.831982
H57	H	-3.840641	-0.011991	-0.916096
H58	H	-3.539693	0.080065	-0.909527
H59	H	-3.550730	0.129251	-0.825418
H60	H	-3.713998	0.126473	-0.910357
H61	H	-3.733577	-0.158901	-0.831228
C62	C	-4.397463	-0.709554	-0.264206
C63	C	-4.392526	-0.748561	-0.191265
C64	C	-4.593844	-0.796676	-0.195108
H65	H	-4.488990	-0.673610	-0.266867
H66	H	-4.445836	-0.751689	-0.313629
H67	H	-4.344181	-0.706431	-0.141856
H68	H	-4.301040	-0.784519	-0.188589
H69	H	-4.642217	-0.838811	-0.244530
H70	H	-4.685355	-0.760726	-0.197771
H71	H	-4.590518	-0.823154	-0.145623
H72	H	-4.322356	-0.199252	-0.847868
C73	C	-3.646962	-0.179049	-0.680716
C74	C	-3.632101	-0.223534	-0.755640
C75	C	-3.550434	-0.292228	-0.735994
H76	H	-3.512102	-0.158849	-0.642074
H77	H	-3.736538	-0.215682	-0.655219
H78	H	-3.542527	-0.186907	-0.781124
H79	H	-3.766934	-0.243753	-0.794292
H80	H	-3.640010	-0.328862	-0.710497
H81	H	-3.415578	-0.272021	-0.697351
H82	H	-3.540358	-0.322424	-0.786827
C83	C	-4.099870	-0.269604	-0.860407
C84	C	-4.033134	-0.316476	-0.797018
C85	C	-3.988242	-0.387967	-0.834334
H86	H	-4.221907	-0.303755	-0.900974
H87	H	-3.992611	-0.252151	-0.888142
H88	H	-4.140384	-0.333930	-0.769296
H89	H	-3.911084	-0.282350	-0.756447
H90	H	-3.880983	-0.370513	-0.862069
H91	H	-4.110287	-0.422110	-0.874900
H92	H	-3.942939	-0.419774	-0.791329
H93	H	-4.169260	-0.030329	-0.675281
C94	C	-3.860947	0.050198	-0.650429
C95	C	-3.825437	0.051624	-0.562143
C96	C	-3.677131	0.126742	-0.519549
H97	H	-3.733951	0.052978	-0.665993
H98	H	-3.911453	0.097410	-0.665852
H99	H	-3.774923	0.004424	-0.546727
H100	H	-3.952389	0.048857	-0.546554
H101	H	-3.727637	0.173954	-0.534971
H102	H	-3.550148	0.129515	-0.535119
H103	H	-3.653033	0.127723	-0.459642
H104	H	-4.241951	-0.035085	-0.821299
H105	H	-3.682205	-0.680908	-0.247947
H106	H	-4.259812	-0.199297	-0.703414
H107	H	-4.051051	-0.250668	-0.705645
H108	H	-3.978704	0.030664	-0.807683
