data_functionalizedCrystal
_audit_creation_method	'MofGen! by Chris Wilmer'
_symmetry_space_group_name_H-M	'P1'
_symmetry_Int_Tables_number	1
_symmetry_cell_setting	triclinic
loop_
_symmetry_equiv_pos_as_xyz
  x,y,z
_cell_length_a	12.759395
_cell_length_b	12.759393
_cell_length_c	12.759387
_cell_angle_alpha	90.027941
_cell_angle_beta	89.980569
_cell_angle_gamma	89.985328
loop_
_atom_site_label
_atom_site_type_symbol
_atom_site_fract_x
_atom_site_fract_y
_atom_site_fract_z
Zn1	Zn	1.606268	0.418215	-0.593996
Zn2	Zn	1.606158	0.593932	-0.418325
Zn3	Zn	1.430566	0.418268	-0.418336
Zn4	Zn	1.430558	0.593853	-0.593967
O5	O	1.518387	0.506067	-0.506156
O6	O	1.753274	0.441536	-0.570700
O7	O	1.582823	0.570685	-0.271305
O8	O	1.453922	0.271240	-0.441654
O9	O	1.753194	0.570635	-0.441635
O10	O	1.583010	0.271201	-0.570711
O11	O	1.453816	0.441625	-0.271313
O12	O	1.283544	0.441548	-0.441626
O13	O	1.453909	0.570499	-0.740992
O14	O	1.283538	0.570549	-0.570662
O15	O	1.583002	0.441459	-0.741013
O16	O	1.582815	0.740943	-0.441608
O17	O	1.453802	0.740884	-0.570652
C18	C	1.245420	0.506046	-0.506143
C19	C	1.128643	0.506063	-0.506162
C20	C	1.128708	0.371849	-0.640775
C21	C	1.073879	0.304756	-0.708089
C22	C	0.964158	0.304774	-0.708102
C23	C	0.909262	0.371892	-0.640791
C24	C	0.964091	0.438986	-0.573477
C25	C	1.073815	0.438962	-0.573473
C26	C	0.964026	0.573192	-0.438861
C27	C	1.073748	0.573180	-0.438852
C28	C	0.909130	0.640309	-0.371550
C29	C	0.963959	0.707410	-0.304239
C30	C	1.073687	0.707389	-0.304230
C31	C	1.128576	0.640274	-0.371537
C32	C	1.518324	0.779035	-0.506148
C33	C	1.518394	0.895811	-0.506180
C34	C	1.652835	0.895819	-0.371908
C35	C	1.720083	0.950684	-0.304787
C36	C	1.720145	1.060405	-0.304823
C37	C	1.652953	1.115265	-0.371988
C38	C	1.585705	1.060400	-0.439109
C39	C	1.585649	0.950676	-0.439064
C40	C	1.451270	1.060392	-0.573385
C41	C	1.451202	0.950671	-0.573346
C42	C	1.384079	1.115252	-0.640550
C43	C	1.316824	1.060387	-0.707667
C44	C	1.316764	0.950659	-0.707628
C45	C	1.383954	0.895806	-0.640466
C46	C	1.792421	0.506089	-0.506170
C47	C	1.909197	0.506098	-0.506175
C48	C	1.518467	0.505964	-0.780190
C49	C	1.518501	0.505920	-0.896966
C50	C	1.518479	1.232034	-0.506203
C51	C	1.518519	1.115257	-0.506265
C52	C	1.652934	0.371560	-0.897008
C53	C	1.720166	0.304364	-0.951889
C54	C	1.720192	0.304326	-1.061611
C55	C	1.652976	0.371488	-1.116454
C56	C	1.585745	0.438684	-1.061572
C57	C	1.585728	0.438717	-0.951848
C58	C	1.451307	0.573038	-1.061531
C59	C	1.451285	0.573083	-0.951809
C60	C	1.384091	0.640200	-1.116373
C61	C	1.316863	0.707403	-1.061492
C62	C	1.316842	0.707439	-0.951763
C63	C	1.384053	0.640279	-0.896927
C64	C	1.518369	0.506094	-0.233188
C65	C	1.518539	0.505842	-0.116412
H66	H	0.919254	0.762047	-0.249436
H67	H	1.218049	0.371823	-0.640766
C68	C	1.793995	0.890338	-0.230910
C69	C	1.793935	0.769648	-0.230863
C70	C	1.867850	0.709307	-0.156990
C71	C	1.941825	0.769656	-0.083165
C72	C	1.941887	0.890353	-0.083210
C73	C	1.867972	0.950694	-0.157082
H74	H	1.739172	0.724968	-0.285515
H75	H	1.867803	0.619959	-0.156958
H76	H	1.996541	0.724988	-0.028480
H77	H	1.996651	0.935033	-0.028558
H78	H	1.868019	1.040042	-0.157115
H79	H	1.262137	0.762076	-1.106153
H80	H	1.652930	0.371594	-0.807667
H81	H	1.774910	1.105076	-0.250173
H82	H	0.819789	0.640317	-0.371563
H83	H	1.774890	0.249680	-0.907224
C84	C	1.242923	1.120731	-0.781545
C85	C	1.242999	1.241421	-0.781595
C86	C	1.169097	1.301770	-0.855475
C87	C	1.095120	1.241429	-0.929304
C88	C	1.095042	1.120732	-0.929257
C89	C	1.168944	1.060383	-0.855377
H90	H	1.297763	1.286095	-0.726940
H91	H	1.169155	1.391118	-0.855510
H92	H	1.040414	1.286102	-0.983994
H93	H	1.040277	1.076058	-0.983912
H94	H	1.168885	0.971035	-0.855343
C95	C	1.242887	0.781361	-0.891397
C96	C	1.242858	0.781414	-0.770707
C97	C	1.168903	0.855338	-0.710346
C98	C	1.094978	0.929209	-0.770675
C99	C	1.095005	0.929160	-0.891371
C100	C	1.168959	0.855235	-0.951733
H101	H	1.297584	0.726727	-0.726042
H102	H	1.168884	0.855374	-0.620998
H103	H	1.040233	0.983933	-0.725991
H104	H	1.040278	0.983846	-0.936036
H105	H	1.168978	0.855199	-1.041081
C106	C	1.794147	0.230413	-1.121988
C107	C	1.868079	0.156536	-1.061674
C108	C	1.942035	0.082625	-1.122051
C109	C	1.942057	0.082591	-1.242741
C110	C	1.868122	0.156470	-1.303061
C111	C	1.794166	0.230381	-1.242684
H112	H	1.868065	0.156560	-0.972326
H113	H	1.996766	0.027935	-1.077397
H114	H	1.996803	0.027877	-1.287435
H115	H	1.868136	0.156447	-1.392409
H116	H	1.739434	0.285072	-1.287338
H117	H	1.118588	0.250108	-0.762890
H118	H	1.384046	0.640306	-0.807586
H119	H	1.384113	0.640160	-1.205715
C120	C	0.903840	0.230973	-0.782147
C121	C	0.964212	0.157145	-0.856184
C122	C	0.903893	0.083344	-0.930228
C123	C	0.783203	0.083371	-0.930236
C124	C	0.722825	0.157202	-0.856196
C125	C	0.783143	0.231003	-0.782152
H126	H	1.053560	0.157122	-0.856180
H127	H	0.948590	0.028690	-0.985037
H128	H	0.738552	0.028739	-0.985048
H129	H	0.633477	0.157224	-0.856199
H130	H	0.738446	0.285657	-0.727343
H131	H	1.652994	0.371442	-1.205795
C132	C	1.133995	0.781195	-0.230180
C133	C	1.073608	0.855014	-0.156147
C134	C	1.133911	0.928820	-0.082096
C135	C	1.254601	0.928807	-0.082078
C136	C	1.314994	0.854985	-0.156114
C137	C	1.254691	0.781179	-0.230165
H138	H	0.984260	0.855026	-0.156158
H139	H	1.089202	0.983468	-0.027290
H140	H	1.299240	0.983443	-0.027261
H141	H	1.404342	0.854973	-0.156103
H142	H	1.299400	0.726531	-0.284971
H143	H	0.819921	0.371893	-0.640799
H144	H	1.217917	0.640245	-0.371531
H145	H	1.652778	0.806478	-0.371858
H146	H	1.383905	0.806465	-0.640421
H147	H	1.653019	1.204606	-0.372021
H148	H	1.262007	0.905994	-0.762289
H149	H	1.384138	1.204593	-0.640579
