data_functionalizedCrystal
_audit_creation_method	'MofGen! by Chris Wilmer'
_symmetry_space_group_name_H-M	'P1'
_symmetry_Int_Tables_number	1
_symmetry_cell_setting	triclinic
loop_
_symmetry_equiv_pos_as_xyz
  x,y,z
_cell_length_a	10.489741
_cell_length_b	19.288859
_cell_length_c	18.366186
_cell_angle_alpha	90.009917
_cell_angle_beta	90.005910
_cell_angle_gamma	83.836450
loop_
_atom_site_label
_atom_site_type_symbol
_atom_site_fract_x
_atom_site_fract_y
_atom_site_fract_z
O1	O	0.159072	0.922422	0.060564
O2	O	0.180544	0.720305	0.060562
O3	O	-0.015894	0.825963	0.060558
O4	O	0.355510	0.816764	0.060567
O5	O	-0.015904	0.825944	-0.060541
O6	O	0.180534	0.720287	-0.060538
O7	O	0.159063	0.922404	-0.060536
Zn8	Zn	0.169797	0.821342	-0.079764
Zn9	Zn	0.169810	0.821366	0.079790
O10	O	0.355501	0.816746	-0.060532
C11	C	0.179850	0.694415	0.000012
C12	C	0.177780	0.617297	0.000011
C13	C	0.279037	0.053935	0.000015
C14	C	0.280993	0.126395	0.000018
C15	C	0.165733	0.170329	0.000014
C16	C	0.048507	0.141798	0.000025
C17	C	0.046554	0.069339	0.000029
C18	C	0.079768	0.291016	-0.042417
C19	C	0.081726	0.363473	-0.042425
C20	C	0.171751	0.393815	0.000007
C21	C	0.259840	0.351690	0.042437
C22	C	0.257887	0.279231	0.042441
C23	C	0.167837	0.248899	0.000011
C24	C	0.291090	0.500907	0.000006
C25	C	0.293042	0.573368	0.000014
C26	C	0.060552	0.588770	0.000013
C27	C	0.058604	0.516310	0.000012
C28	C	0.173877	0.472382	0.000005
C29	C	-0.063415	0.825259	0.000009
C30	C	-0.204997	0.823180	0.000010
C31	C	-0.271614	0.755953	0.000015
C32	C	-0.364461	0.787702	-0.059693
C33	C	-0.364426	0.787736	0.059702
C34	C	-0.295979	0.854956	-0.059747
C35	C	-0.295935	0.854981	0.059701
C36	C	-0.388755	0.886778	-0.000021
C37	C	0.403021	0.817450	0.000019
C38	C	0.544604	0.819529	0.000022
C39	C	0.159757	0.948294	0.000016
C40	C	0.161827	1.025412	0.000021
N41	N	0.169787	0.821331	-0.188655
C42	C	0.082847	0.868132	-0.226757
C43	C	0.082842	0.868136	-0.302985
C44	C	0.169798	0.821347	-0.341108
C45	C	0.256745	0.774537	-0.302997
C46	C	0.256740	0.774529	-0.226770
C47	C	0.286012	0.812828	-0.461865
C48	C	0.286018	0.812840	-0.538090
C49	C	0.169814	0.821366	-0.576215
C50	C	0.053598	0.829895	-0.538106
C51	C	0.053592	0.829887	-0.461879
C52	C	0.169813	0.821350	-0.423762
C53	C	0.082860	0.868175	-0.696972
C54	C	0.082853	0.868174	-0.773201
C55	C	0.256767	0.774578	-0.773212
C56	C	0.256764	0.774575	-0.696984
C57	C	0.169812	0.821377	-0.658869
N58	N	0.169809	0.821383	0.188681
H59	H	-0.220711	0.700680	-0.000045
H60	H	-0.439433	0.942101	-0.000054
N61	N	-0.257768	0.890653	0.123020
N62	N	-0.202889	0.944713	0.116412
H63	H	-0.175931	0.969904	0.161135
N64	N	0.345582	0.726764	-0.658071
N65	N	0.423212	0.684987	-0.692114
H66	H	0.485941	0.651216	-0.664633
H67	H	-0.394832	0.759249	-0.110172
N68	N	-0.061112	0.487156	0.000014
N69	N	-0.088129	0.448448	0.051060
H70	H	-0.172682	0.427856	0.051062
N71	N	0.345574	0.726771	-0.812142
N72	N	0.305306	0.683460	-0.854689
H73	H	0.368024	0.649692	-0.882186
N74	N	0.408820	0.456022	0.000020
N75	N	0.407062	0.391328	0.000024
H76	H	0.490209	0.359628	0.000037
N77	N	-0.069242	0.186661	0.000009
N78	N	-0.173890	0.161181	0.000010
H79	H	-0.257056	0.192865	-0.000000
N80	N	0.412778	0.602504	-0.000009
N81	N	0.439786	0.641208	-0.051060
H82	H	0.524353	0.661786	-0.051078
N83	N	0.404736	0.804138	-0.577003
N84	N	0.508481	0.796519	-0.542957
H85	H	0.592330	0.790374	-0.570437
N86	N	-0.402478	0.752039	0.123019
N87	N	-0.359937	0.689823	0.133639
H88	H	-0.386807	0.664607	0.178354
H89	H	-0.033296	0.624540	0.000016
H90	H	0.380645	0.805873	-0.430830
N91	N	0.345552	0.726742	-0.341946
N92	N	0.345547	0.726755	-0.410004
H93	H	0.408265	0.692996	-0.437513
N94	N	-0.008253	0.406488	-0.085771
N95	N	-0.088640	0.379392	-0.123645
H96	H	-0.152192	0.409770	-0.154260
N97	N	0.400725	0.155542	-0.000009
N98	N	0.427721	0.194244	-0.051065
H99	H	0.512282	0.214828	-0.051087
N100	N	-0.005870	0.916001	-0.187836
N101	N	-0.083420	0.957824	-0.221871
H102	H	-0.146039	0.991655	-0.194382
N103	N	0.345556	0.726714	-0.187857
N104	N	0.423185	0.684935	-0.221900
H105	H	0.485915	0.651165	-0.194417
H106	H	-0.265795	0.883369	-0.110282
N107	N	0.347849	0.236192	0.085775
N108	N	0.424393	0.190606	0.056139
H109	H	0.487927	0.160207	0.086746
N110	N	-0.005982	0.915947	-0.341904
N111	N	-0.083612	0.957727	-0.307864
H112	H	-0.146345	0.991494	-0.335349
N113	N	-0.065121	0.838597	-0.422963
N114	N	-0.168871	0.846212	-0.457003
H115	H	-0.252716	0.852362	-0.429519
H116	H	0.372902	0.018174	0.000012
H117	H	-0.041027	0.836837	-0.569145
H118	H	0.012055	0.906282	-0.665937
N119	N	-0.005961	0.915973	-0.812135
N120	N	0.034287	0.959283	-0.854669
H121	H	-0.028444	0.993036	-0.882172
N122	N	0.351832	0.382666	0.085771
N123	N	0.430565	0.417945	0.056128
H124	H	0.495540	0.439823	0.086728
N125	N	-0.012194	0.260036	-0.085774
N126	N	-0.013825	0.268238	-0.153290
H127	H	-0.078771	0.246359	-0.183910
N128	N	-0.073191	0.040211	0.000038
N129	N	-0.176097	0.079442	0.000042
H130	H	-0.260670	0.058870	0.000048
