data_functionalizedCrystal
_audit_creation_method	'MofGen! by Chris Wilmer'
_symmetry_space_group_name_H-M	'P1'
_symmetry_Int_Tables_number	1
_symmetry_cell_setting	triclinic
loop_
_symmetry_equiv_pos_as_xyz
  x,y,z
_cell_length_a	17.038272
_cell_length_b	9.482900
_cell_length_c	11.026607
_cell_angle_alpha	101.386141
_cell_angle_beta	99.848786
_cell_angle_gamma	80.003315
loop_
_atom_site_label
_atom_site_type_symbol
_atom_site_fract_x
_atom_site_fract_y
_atom_site_fract_z
O1	O	1.065372	0.120704	0.285336
O2	O	0.837139	0.120747	0.281096
O3	O	0.932340	0.120723	0.104610
O4	O	0.970171	0.120727	0.461822
O5	O	0.951711	-0.121074	0.068682
O6	O	0.856510	-0.121051	0.245168
O7	O	1.084742	-0.121094	0.249408
Cu8	Cu	0.972395	-0.143150	0.244007
Cu9	Cu	0.949487	0.142803	0.286496
O10	O	0.989541	-0.121070	0.425894
C11	C	0.817152	-0.000146	0.259271
C12	C	0.728734	-0.000130	0.247752
N13	N	0.988513	-0.344274	0.214123
C14	C	0.935046	-0.000172	0.040715
C15	C	0.914240	-0.000163	-0.096146
C16	C	0.693526	-0.000130	0.353536
C17	C	0.610450	-0.000150	0.342699
C18	C	0.562584	-0.000160	0.226079
C19	C	0.597797	-0.000164	0.120287
C20	C	0.680872	-0.000154	0.131123
C21	C	0.311435	-0.000199	0.187797
C22	C	0.228355	-0.000204	0.176970
C23	C	0.241014	-0.000193	0.399383
C24	C	0.324089	-0.000175	0.410210
C25	C	0.359296	-0.000187	0.304416
C26	C	0.477667	-0.000176	0.215001
C27	C	0.444213	-0.000181	0.315494
C28	C	1.104730	-0.000197	0.271233
C29	C	1.193147	-0.000204	0.282754
N30	N	0.933374	0.343927	0.316372
C31	C	0.967648	0.416118	0.252828
C32	C	0.954234	0.583539	0.277676
C33	C	0.971687	-0.000172	-0.164022
C34	C	0.950185	-0.000162	-0.305475
C35	C	0.986835	-0.000172	0.489789
C36	C	1.007640	-0.000171	0.626651
H37	H	0.732494	-0.000121	0.448500
H38	H	0.581788	-0.000148	0.428840
H39	H	1.006925	0.353980	0.180035
H40	H	0.363056	-0.000150	0.505176
H41	H	0.914961	0.645673	0.350482
H42	H	0.849139	-0.000141	-0.142755
H43	H	0.709537	-0.000153	0.044982
H44	H	0.885079	-0.000141	-0.352079
H45	H	0.340091	-0.000210	0.101652
H46	H	0.189383	-0.000211	0.082000
H47	H	1.027793	0.593592	0.141325
H48	H	0.558819	-0.000193	0.025329
H49	H	0.212339	-0.000186	0.485513
H50	H	0.483190	-0.000181	0.410445
H51	H	0.438687	-0.000225	0.120042
H52	H	0.894103	0.406067	0.389174
H53	H	1.072737	-0.000074	-0.326729
H54	H	1.036789	-0.000193	-0.117413
