data_functionalizedCrystal
_audit_creation_method	'MofGen! by Chris Wilmer'
_symmetry_space_group_name_H-M	'P1'
_symmetry_Int_Tables_number	1
_symmetry_cell_setting	triclinic
loop_
_symmetry_equiv_pos_as_xyz
  x,y,z
_cell_length_a	12.827893
_cell_length_b	13.032721
_cell_length_c	13.033454
_cell_angle_alpha	89.068673
_cell_angle_beta	97.162513
_cell_angle_gamma	97.204267
loop_
_atom_site_label
_atom_site_type_symbol
_atom_site_fract_x
_atom_site_fract_y
_atom_site_fract_z
Zn1	Zn	1.474590	-0.335514	-0.633434
Zn2	Zn	1.974590	0.164486	-0.133434
Zn3	Zn	1.468911	-0.529367	-0.483297
Zn4	Zn	1.968911	-0.029367	0.016703
Zn5	Zn	1.318883	-0.357410	-0.461486
Zn6	Zn	1.818883	0.142590	0.038514
Zn7	Zn	1.275198	-0.507448	-0.655216
Zn8	Zn	1.775198	-0.007448	-0.155216
O9	O	1.384395	-0.432435	-0.558358
O10	O	1.884395	0.067565	-0.058358
O11	O	1.620070	-0.361239	-0.613531
O12	O	2.120070	0.138761	-0.113531
O13	O	1.464915	-0.524893	-0.336494
O14	O	1.964915	-0.024893	0.163506
O15	O	1.360197	-0.210585	-0.466052
O16	O	1.860197	0.289415	0.033948
O17	O	1.615897	-0.503662	-0.503225
O18	O	2.115897	-0.003662	-0.003225
O19	O	1.474594	-0.194499	-0.592382
O20	O	1.974594	0.305501	-0.092382
O21	O	1.354690	-0.398557	-0.320469
O22	O	1.854690	0.101443	0.179531
O23	O	1.166855	-0.377303	-0.487172
O24	O	1.666855	0.122697	0.012828
O25	O	1.285742	-0.466304	-0.796236
O26	O	1.785742	0.033696	-0.296236
O27	O	1.134760	-0.487535	-0.629505
O28	O	1.634760	0.012465	-0.129505
O29	O	1.432235	-0.339985	-0.780234
O30	O	1.932235	0.160015	-0.280234
O31	O	1.422555	-0.670379	-0.524346
O32	O	1.922555	-0.170379	-0.024346
O33	O	1.280235	-0.654275	-0.650654
O34	O	1.780235	-0.154275	-0.150654
C35	C	1.112891	-0.432417	-0.558336
C36	C	1.612891	0.067583	-0.058336
C37	C	0.996733	-0.432432	-0.558354
C38	C	1.496733	0.067568	-0.058354
C39	C	0.929091	-0.487088	-0.628701
C40	C	1.429091	0.012912	-0.128701
C41	C	0.809036	-0.487104	-0.628721
C42	C	1.309036	0.012896	-0.128721
C43	C	1.346064	-0.699641	-0.592253
C44	C	1.846064	-0.199641	-0.092253
C45	C	1.329758	-0.813949	-0.606787
C46	C	1.829758	-0.313949	-0.106787
C47	C	1.392956	-0.872838	-0.550819
C48	C	1.892956	-0.372838	-0.050819
C49	C	1.376104	-0.990981	-0.565840
C50	C	1.876104	-0.490981	-0.065840
C51	C	1.656960	-0.432453	-0.558381
C52	C	2.156960	0.067547	-0.058381
C53	C	1.773111	-0.432460	-0.558391
C54	C	2.273111	0.067540	-0.058391
C55	C	1.354749	-0.398257	-0.826593
C56	C	1.854749	0.101743	-0.326593
C57	C	1.342115	-0.383693	-0.940898
C58	C	1.842115	0.116307	-0.440898
C59	C	1.422902	-0.164182	-0.524354
C60	C	1.922902	0.335818	-0.024354
C61	C	1.439311	-0.049869	-0.509864
C62	C	1.939311	0.450131	-0.009864
C63	C	1.391020	-0.439708	-0.999788
C64	C	1.891020	0.060292	-0.499788
C65	C	1.377964	-0.424656	-1.117929
C66	C	1.877964	0.075344	-0.617929
C67	C	1.413997	-0.466405	-0.291158
C68	C	1.913997	0.033595	0.208842
C69	C	1.426875	-0.480680	-0.176816
C70	C	1.926875	0.019320	0.323184
H71	H	0.750926	-0.533901	-0.688945
H72	H	1.250926	-0.033901	-0.188945
F73	F	0.849056	-0.371299	-0.479660
F74	F	1.349056	0.128701	0.020340
H75	H	1.263180	-0.850996	-0.665828
H76	H	1.763180	-0.350996	-0.165828
H77	H	1.478418	-0.539780	-1.139776
H78	H	1.978418	-0.039780	-0.639776
F79	F	0.956261	-0.371277	-0.479655
F80	F	1.456261	0.128723	0.020345
F81	F	1.458390	-0.516950	-0.951371
F82	F	1.958390	-0.016950	-0.451371
F83	F	1.274760	-0.306438	-0.989313
F84	F	1.774760	0.193562	-0.489313
H85	H	1.309521	-1.028024	-0.624884
H86	H	1.809521	-0.528024	-0.124884
F87	F	0.969564	-0.548241	-0.707402
F88	F	1.469564	-0.048241	-0.207402
H89	H	1.326430	-0.365548	-1.154969
H90	H	1.826430	0.134452	-0.654969
H91	H	1.459543	-0.835792	-0.491785
H92	H	1.959543	-0.335792	0.008215
H93	H	1.505902	-1.012826	-0.450826
H94	H	2.005902	-0.512826	0.049174
