data_functionalizedCrystal
_audit_creation_method	'MofGen! by Chris Wilmer'
_symmetry_space_group_name_H-M	'P1'
_symmetry_Int_Tables_number	1
_symmetry_cell_setting	triclinic
loop_
_symmetry_equiv_pos_as_xyz
  x,y,z
_cell_length_a	9.065218
_cell_length_b	19.288867
_cell_length_c	18.366186
_cell_angle_alpha	89.995964
_cell_angle_beta	89.997386
_cell_angle_gamma	84.076477
loop_
_atom_site_label
_atom_site_type_symbol
_atom_site_fract_x
_atom_site_fract_y
_atom_site_fract_z
O1	O	0.184043	0.922777	-0.060521
O2	O	0.208865	0.720710	-0.060528
O3	O	-0.018335	0.825920	-0.060523
O4	O	0.411242	0.817567	-0.060526
O5	O	-0.018340	0.825909	0.060576
O6	O	0.208860	0.720698	0.060571
O7	O	0.184037	0.922766	0.060578
Zn8	Zn	0.196448	0.821730	0.079802
Zn9	Zn	0.196455	0.821745	-0.079752
O10	O	0.411237	0.817555	0.060573
C11	C	0.208063	0.694821	0.000021
C12	C	0.205664	0.617699	0.000018
C13	C	0.188386	0.062006	-0.065984
C14	C	0.190632	0.134471	-0.065987
C15	C	0.191759	0.170702	0.000024
C16	C	0.190602	0.134464	0.066043
C17	C	0.188342	0.062001	0.066043
C18	C	0.281740	0.280723	0.050596
C19	C	0.284009	0.353184	0.050593
C20	C	0.198723	0.394202	0.000024
C21	C	0.111186	0.362748	-0.050553
C22	C	0.108926	0.290286	-0.050553
C23	C	0.194208	0.249276	0.000030
C24	C	0.202304	0.509006	-0.065994
C25	C	0.204540	0.581473	-0.065993
C26	C	0.204525	0.581464	0.066038
C27	C	0.202274	0.509000	0.066036
C28	C	0.201170	0.472774	0.000018
C29	C	-0.073296	0.825112	0.000026
C30	C	-0.237055	0.822711	0.000022
C31	C	0.466198	0.818364	0.000023
C32	C	0.629957	0.820764	0.000022
C33	C	0.184839	0.948654	0.000028
C34	C	0.187238	1.025776	0.000026
N35	N	0.196442	0.821725	0.188693
N36	N	0.196449	0.821756	-0.188643
C37	C	0.095872	0.868344	0.773246
C38	C	0.095875	0.868345	0.697018
C39	C	0.196441	0.821745	0.658904
C40	C	0.297037	0.775154	0.697025
C41	C	0.297040	0.775159	0.773251
C42	C	0.216128	0.758606	0.538148
C43	C	0.216114	0.758600	0.461923
C44	C	0.196438	0.821730	0.423797
C45	C	0.176745	0.884868	0.461905
C46	C	0.176749	0.884873	0.538131
C47	C	0.196449	0.821735	0.576250
C48	C	0.095860	0.868323	0.303030
C49	C	0.095873	0.868325	0.226801
C50	C	0.297028	0.775127	0.226810
C51	C	0.297021	0.775131	0.303038
C52	C	0.196429	0.821728	0.341143
H53	H	0.201401	0.479510	-0.119749
Br54	Br	0.433527	0.711891	0.175091
H55	H	0.205437	0.610963	0.119786
H56	H	0.041742	0.396143	-0.091733
Br57	Br	-0.040621	0.931563	0.175074
H58	H	0.205464	0.610970	-0.119749
H59	H	0.378915	0.737192	0.334070
H60	H	0.232158	0.707194	0.569184
H61	H	0.201344	0.479501	0.119789
H62	H	0.355323	0.378786	0.091760
H63	H	0.351184	0.247333	0.091783
Br64	Br	0.242980	0.672916	0.410212
H65	H	0.013956	0.906267	0.334057
H66	H	0.191516	0.163968	0.119789
H67	H	0.013968	0.906288	0.804269
H68	H	0.013971	0.906285	0.665982
H69	H	0.191575	0.163974	-0.119742
H70	H	0.187412	0.032504	0.119798
Br71	Br	0.150036	0.970557	0.589848
H72	H	0.160734	0.936275	0.430865
H73	H	0.378922	0.737212	0.665989
Br74	Br	0.433549	0.711928	0.824979
H75	H	0.187482	0.032516	-0.119741
Br76	Br	-0.009871	0.247600	-0.119187
