data_functionalizedCrystal
_audit_creation_method	'MofGen! by Chris Wilmer'
_symmetry_space_group_name_H-M	'P1'
_symmetry_Int_Tables_number	1
_symmetry_cell_setting	triclinic
loop_
_symmetry_equiv_pos_as_xyz
  x,y,z
_cell_length_a	14.044220
_cell_length_b	14.044220
_cell_length_c	13.101039
_cell_angle_alpha	86.332523
_cell_angle_beta	86.340132
_cell_angle_gamma	86.811122
loop_
_atom_site_label
_atom_site_type_symbol
_atom_site_fract_x
_atom_site_fract_y
_atom_site_fract_z
O1	O	1.281968	-0.225348	-0.085109
O2	O	1.615302	0.107985	0.248224
O3	O	1.948635	0.441318	0.581558
O4	O	1.005298	-0.217041	-0.085135
O5	O	1.338632	0.116292	0.248198
O6	O	1.671965	0.449626	0.581532
O7	O	1.139480	-0.082860	-0.085112
O8	O	1.472813	0.250474	0.248221
O9	O	1.806147	0.583807	0.581554
O10	O	1.147787	-0.359530	-0.085132
O11	O	1.481120	-0.026197	0.248202
O12	O	1.814454	0.307137	0.581535
O13	O	1.129854	-0.092504	0.085316
O14	O	1.463188	0.240829	0.418649
O15	O	1.796521	0.574162	0.751983
O16	O	0.995673	-0.226686	0.085293
O17	O	1.329006	0.106647	0.418627
O18	O	1.662339	0.439981	0.751960
O19	O	1.272343	-0.234993	0.085319
O20	O	1.605676	0.098340	0.418652
O21	O	1.939009	0.431674	0.751986
Zn22	Zn	1.132479	-0.232371	0.112365
Zn23	Zn	1.465813	0.100963	0.445699
Zn24	Zn	1.799146	0.434296	0.779032
Zn25	Zn	1.145162	-0.219663	-0.112181
Zn26	Zn	1.478495	0.113670	0.221152
Zn27	Zn	1.811828	0.447003	0.554485
O28	O	1.138161	-0.369175	0.085296
O29	O	1.471494	-0.035841	0.418630
O30	O	1.804828	0.297492	0.751963
C31	C	0.964864	-0.218228	0.000076
C32	C	1.298197	0.115106	0.333409
C33	C	1.631531	0.448439	0.666743
C34	C	0.858722	-0.207383	0.000066
C35	C	1.192055	0.125951	0.333400
C36	C	1.525388	0.459284	0.666733
C37	C	0.664383	-0.187558	0.000088
C38	C	0.997716	0.145776	0.333421
C39	C	1.331049	0.479109	0.666755
C40	C	0.613253	-0.264472	0.000087
C41	C	0.946586	0.068861	0.333420
C42	C	1.279920	0.402195	0.666754
C43	C	0.505116	-0.253441	0.000099
C44	C	0.838449	0.079892	0.333432
C45	C	1.171783	0.413226	0.666766
C46	C	0.772529	-0.198587	0.000076
C47	C	1.105863	0.134746	0.333409
C48	C	1.439196	0.468080	0.666743
C49	C	1.131031	-0.052060	0.000102
C50	C	1.464365	0.281273	0.333435
C51	C	1.797698	0.614607	0.666769
C52	C	1.120187	0.054083	0.000102
C53	C	1.453520	0.387416	0.333435
C54	C	1.786854	0.720749	0.666769
C55	C	1.312777	-0.233806	0.000106
C56	C	1.646111	0.099527	0.333439
C57	C	1.979444	0.432860	0.666773
C58	C	1.418920	-0.244651	0.000109
C59	C	1.752253	0.088682	0.333442
C60	C	2.085587	0.422016	0.666775
C61	C	1.146610	-0.399974	0.000080
C62	C	1.479943	-0.066641	0.333413
C63	C	1.813276	0.266693	0.666747
C64	C	1.157455	-0.506116	0.000073
C65	C	1.490788	-0.172783	0.333406
C66	C	1.824121	0.160550	0.666740
N67	N	1.123831	-0.241043	0.265612
N68	N	1.457164	0.092290	0.598946
N69	N	1.790497	0.425623	0.932279
C70	C	1.100362	0.248421	0.000086
C71	C	1.433695	0.581755	0.333419
C72	C	1.767028	0.915088	0.666752
C73	C	1.177276	0.299551	0.000090
C74	C	1.510609	0.632884	0.333423
C75	C	1.843942	0.966218	0.666756
C76	C	1.166245	0.407688	0.000080
C77	C	1.499578	0.741021	0.333414
C78	C	1.832911	1.074354	0.666747
C79	C	1.111391	0.140275	0.000095
C80	C	1.444725	0.473608	0.333428
C81	C	1.778058	0.806941	0.666761
N82	N	1.153817	-0.210984	-0.265428
N83	N	1.487151	0.122349	0.067905
N84	N	1.820484	0.455683	0.401238
C85	C	1.112065	-0.252851	0.474653
C86	C	1.445398	0.080482	0.807986
C87	C	1.778731	0.413815	1.141320
C88	C	1.165580	-0.199179	0.525538
C89	C	1.498914	0.134154	0.858871
C90	C	1.832247	0.467488	1.192204
C91	C	1.159034	-0.205749	0.641855
C92	C	1.492367	0.127584	0.975188
C93	C	1.825700	0.460918	1.308522
C94	C	1.118610	-0.246282	0.358325
C95	C	1.451944	0.087051	0.691658
C96	C	1.785277	0.420384	1.024992
H97	H	0.650693	-0.338605	0.000077
H98	H	0.984026	-0.005271	0.333410
H99	H	1.317359	0.328062	0.666744
C100	C	0.561679	-0.071517	-0.087521
C101	C	0.895012	0.261816	0.245812
C102	C	1.228346	0.595149	0.579146
C103	C	0.613850	-0.087484	0.000088
C104	C	0.947183	0.245850	0.333422
C105	C	1.280516	0.579183	0.666755
H106	H	0.530480	-0.009734	-0.087525
H107	H	0.863813	0.323599	0.245808
H108	H	1.197146	0.656932	0.579142
H109	H	0.515396	-0.118325	-0.087507
H110	H	0.848730	0.215008	0.245826
H111	H	1.182063	0.548342	0.579160
H112	H	0.603786	-0.075650	-0.146947
H113	H	0.937119	0.257684	0.186386
H114	H	1.270453	0.591017	0.519719
H115	H	0.571741	-0.083359	0.059515
H116	H	0.905075	0.249975	0.392849
H117	H	1.238408	0.583308	0.726182
H118	H	0.660138	-0.040663	0.000084
H119	H	0.993471	0.292670	0.333417
H120	H	1.326804	0.626004	0.666751
C121	C	1.050286	-0.314846	0.639219
C122	C	1.383619	0.018487	0.972553
C123	C	1.716952	0.351821	1.305886
C124	C	1.043589	-0.321550	0.533764
C125	C	1.376922	0.011783	0.867098
C126	C	1.710256	0.345117	1.200431
H127	H	1.008018	-0.357264	0.675719
H128	H	1.341352	-0.023931	1.009052
H129	H	1.674685	0.309402	1.342385
H130	H	1.033444	-0.251249	0.656738
H131	H	1.366777	0.082084	0.990072
H132	H	1.700111	0.415417	1.323405
H133	H	1.113937	-0.331494	0.656720
H134	H	1.447270	0.001839	0.990054
H135	H	1.780603	0.335172	1.323387
H136	H	0.979939	-0.304895	0.516262
H137	H	1.313273	0.028439	0.849595
H138	H	1.646606	0.361772	1.182929
H139	H	1.060425	-0.385161	0.516238
H140	H	1.393758	-0.051827	0.849572
H141	H	1.727091	0.281506	1.182905
C142	C	1.322059	0.270539	0.087732
C143	C	1.655393	0.603872	0.421065
C144	C	1.988726	0.937205	0.754398
C145	C	1.277355	0.249017	0.000114
C146	C	1.610689	0.582350	0.333447
C147	C	1.944022	0.915684	0.666781
H148	H	1.383843	0.239342	0.087744
H149	H	1.717177	0.572675	0.421078
H150	H	2.050510	0.906008	0.754411
H151	H	1.284995	0.249237	0.147146
H152	H	1.618329	0.582571	0.480480
H153	H	1.951662	0.915904	0.813813
H154	H	1.327671	0.337635	0.087714
H155	H	1.661004	0.670968	0.421047
H156	H	1.994338	1.004302	0.754381
H157	H	1.271737	0.181921	0.000135
H158	H	1.605071	0.515254	0.333469
H159	H	1.938404	0.848588	0.666802
H160	H	1.314428	0.270313	-0.059316
H161	H	1.647762	0.603647	0.274017
H162	H	1.981095	0.936980	0.607351
C163	C	0.994215	0.361022	-0.087528
C164	C	1.327548	0.694355	0.245805
C165	C	1.660881	1.027689	0.579138
C166	C	1.000290	0.298959	0.000082
C167	C	1.333623	0.632292	0.333415
C168	C	1.666957	0.965626	0.666749
H169	H	0.932437	0.392234	-0.087522
H170	H	1.265770	0.725567	0.245811
H171	H	1.599104	1.058900	0.579145
H172	H	1.005045	0.325630	-0.146948
H173	H	1.338379	0.658964	0.186386
H174	H	1.671712	0.992297	0.519719
H175	H	1.041034	0.407303	-0.087520
H176	H	1.374367	0.740636	0.245813
H177	H	1.707701	1.073969	0.579146
H178	H	0.953475	0.252673	0.000070
H179	H	1.286808	0.586007	0.333404
H180	H	1.620142	0.919340	0.666737
H181	H	0.989449	0.334352	0.059517
H182	H	1.322782	0.667686	0.392850
H183	H	1.656116	1.001019	0.726184
C184	C	1.227062	-0.136867	0.360970
C185	C	1.560395	0.196467	0.694303
C186	C	1.893729	0.529800	1.027636
C187	C	1.233848	-0.130263	0.466426
C188	C	1.567181	0.203070	0.799760
C189	C	1.900514	0.536403	1.133093
H190	H	1.269144	-0.094260	0.324477
H191	H	1.602477	0.239073	0.657810
H192	H	1.935811	0.572406	0.991143
H193	H	1.163352	-0.120418	0.343581
H194	H	1.496685	0.212915	0.676915
H195	H	1.830018	0.546249	1.010248
H196	H	1.244105	-0.200400	0.343331
H197	H	1.577439	0.132934	0.676664
H198	H	1.910772	0.466267	1.009998
H199	H	1.216797	-0.066732	0.484067
H200	H	1.550131	0.266602	0.817400
H201	H	1.883464	0.599935	1.150733
H202	H	1.297572	-0.146706	0.483822
H203	H	1.630906	0.186627	0.817155
H204	H	1.964239	0.519961	1.150489
