data_functionalizedCrystal
_audit_creation_method	'MofGen! by Chris Wilmer'
_symmetry_space_group_name_H-M	'P1'
_symmetry_Int_Tables_number	1
_symmetry_cell_setting	triclinic
loop_
_symmetry_equiv_pos_as_xyz
  x,y,z
_cell_length_a	19.805405
_cell_length_b	19.805407
_cell_length_c	19.805399
_cell_angle_alpha	89.980803
_cell_angle_beta	90.029301
_cell_angle_gamma	89.977440
loop_
_atom_site_label
_atom_site_type_symbol
_atom_site_fract_x
_atom_site_fract_y
_atom_site_fract_z
Zn1	Zn	-0.269548	-1.034736	0.382705
Zn2	Zn	-0.019548	-0.784736	0.632705
Zn3	Zn	0.230452	-0.534736	0.882705
Zn4	Zn	0.480452	-0.284736	1.132705
Zn5	Zn	-0.382737	-1.034650	0.269513
Zn6	Zn	-0.132737	-0.784650	0.519513
Zn7	Zn	0.117263	-0.534650	0.769513
Zn8	Zn	0.367263	-0.284650	1.019513
Zn9	Zn	-0.269559	-0.921550	0.269530
Zn10	Zn	-0.019559	-0.671550	0.519530
Zn11	Zn	0.230441	-0.421550	0.769530
Zn12	Zn	0.480441	-0.171550	1.019530
Zn13	Zn	-0.382693	-0.921514	0.382661
Zn14	Zn	-0.132693	-0.671514	0.632661
Zn15	Zn	0.117307	-0.421514	0.882661
Zn16	Zn	0.367307	-0.171514	1.132661
O17	O	-0.326134	-0.978113	0.326102
O18	O	-0.076134	-0.728113	0.576102
O19	O	0.173866	-0.478113	0.826102
O20	O	0.423866	-0.228113	1.076102
O21	O	-0.284577	-1.129441	0.367701
O22	O	-0.034577	-0.879441	0.617701
O23	O	0.215423	-0.629441	0.867701
O24	O	0.465423	-0.379441	1.117701
O25	O	-0.367746	-1.019627	0.174799
O26	O	-0.117746	-0.769627	0.424799
O27	O	0.132254	-0.519627	0.674799
O28	O	0.382254	-0.269627	0.924799
O29	O	-0.174841	-0.936615	0.284569
O30	O	0.075159	-0.686615	0.534569
O31	O	0.325159	-0.436615	0.784569
O32	O	0.575159	-0.186615	1.034569
O33	O	-0.367736	-1.129378	0.284540
O34	O	-0.117736	-0.879378	0.534540
O35	O	0.132264	-0.629378	0.784540
O36	O	0.382264	-0.379378	1.034540
O37	O	-0.174833	-1.019772	0.367717
O38	O	0.075167	-0.769772	0.617717
O39	O	0.325167	-0.519772	0.867717
O40	O	0.575167	-0.269772	1.117717
O41	O	-0.284596	-0.936533	0.174811
O42	O	-0.034596	-0.686533	0.424811
O43	O	0.215404	-0.436533	0.674811
O44	O	0.465404	-0.186533	0.924811
O45	O	-0.284553	-0.826829	0.284526
O46	O	-0.034553	-0.576829	0.534526
O47	O	0.215447	-0.326829	0.784526
O48	O	0.465447	-0.076829	1.034526
O49	O	-0.367661	-0.936553	0.477383
O50	O	-0.117661	-0.686553	0.727383
O51	O	0.132339	-0.436553	0.977383
O52	O	0.382339	-0.186553	1.227383
O53	O	-0.367672	-0.826802	0.367642
O54	O	-0.117672	-0.576802	0.617642
O55	O	0.132328	-0.326802	0.867642
O56	O	0.382328	-0.076802	1.117642
O57	O	-0.284534	-1.019737	0.477415
O58	O	-0.034534	-0.769737	0.727415
O59	O	0.215466	-0.519737	0.977415
O60	O	0.465466	-0.269737	1.227415
O61	O	-0.477448	-1.019592	0.284497
O62	O	-0.227448	-0.769592	0.534497
O63	O	0.022552	-0.519592	0.784497
O64	O	0.272552	-0.269592	1.034497
O65	O	-0.477416	-0.936471	0.367626
O66	O	-0.227416	-0.686471	0.617626
O67	O	0.022584	-0.436471	0.867626
O68	O	0.272584	-0.186471	1.117626
C69	C	-0.501991	-0.978036	0.326069
C70	C	-0.251991	-0.728036	0.576069
C71	C	-0.001991	-0.478036	0.826069
C72	C	0.248009	-0.228036	1.076069
C73	C	-0.577222	-0.978066	0.326078
C74	C	-0.327222	-0.728066	0.576078
C75	C	-0.077222	-0.478066	0.826078
C76	C	0.172778	-0.228066	1.076078
C77	C	-0.326110	-0.802257	0.326081
C78	C	-0.076110	-0.552257	0.576081
C79	C	0.173890	-0.302257	0.826081
C80	C	0.423890	-0.052257	1.076081
C81	C	-0.326115	-0.727025	0.326089
C82	C	-0.076115	-0.477025	0.576089
C83	C	0.173885	-0.227025	0.826089
C84	C	0.423885	0.022975	1.076089
C85	C	-0.612561	-1.021389	0.282838
C86	C	-0.362561	-0.771389	0.532838
C87	C	-0.112561	-0.521389	0.782838
C88	C	0.137439	-0.271389	1.032838
C89	C	-0.683249	-1.021418	0.282853
C90	C	-0.433249	-0.771418	0.532853
C91	C	-0.183249	-0.521418	0.782853
C92	C	0.066751	-0.271418	1.032853
C93	C	-0.718598	-0.978119	0.326105
C94	C	-0.468598	-0.728119	0.576105
C95	C	-0.218598	-0.478119	0.826105
C96	C	0.031402	-0.228119	1.076105
C97	C	-0.683255	-0.934794	0.369350
C98	C	-0.433255	-0.684794	0.619350
C99	C	-0.183255	-0.434794	0.869350
C100	C	0.066745	-0.184794	1.119350
C101	C	-0.612568	-0.934769	0.369338
C102	C	-0.362568	-0.684769	0.619338
C103	C	-0.112568	-0.434769	0.869338
C104	C	0.137432	-0.184769	1.119338
C105	C	-0.968328	-0.934894	0.369400
C106	C	-0.718328	-0.684894	0.619400
C107	C	-0.468328	-0.434894	0.869400
C108	C	-0.218328	-0.184894	1.119400
C109	C	-1.039020	-0.934921	0.369407
C110	C	-0.789020	-0.684921	0.619407
C111	C	-0.539020	-0.434921	0.869407
C112	C	-0.289020	-0.184921	1.119407
C113	C	-1.039010	-1.021542	0.282915
C114	C	-0.789010	-0.771542	0.532915
C115	C	-0.539010	-0.521542	0.782915
C116	C	-0.289010	-0.271542	1.032915
C117	C	-0.968322	-1.021517	0.282903
C118	C	-0.718322	-0.771517	0.532903
C119	C	-0.468322	-0.521517	0.782903
C120	C	-0.218322	-0.271517	1.032903
C121	C	-0.932985	-0.978195	0.326150
C122	C	-0.682985	-0.728195	0.576150
C123	C	-0.432985	-0.478195	0.826150
C124	C	-0.182985	-0.228195	1.076150
C125	C	-0.856337	-0.978165	0.326134
C126	C	-0.606337	-0.728165	0.576134
C127	C	-0.356337	-0.478165	0.826134
C128	C	-0.106337	-0.228165	1.076134
C129	C	-0.795245	-0.978145	0.326118
C130	C	-0.545245	-0.728145	0.576118
C131	C	-0.295245	-0.478145	0.826118
C132	C	-0.045245	-0.228145	1.076118
C133	C	-0.282890	-0.691714	0.369456
C134	C	-0.032890	-0.441714	0.619456
C135	C	0.217110	-0.191714	0.869456
C136	C	0.467110	0.058286	1.119456
C137	C	-0.282892	-0.621025	0.369457
C138	C	-0.032892	-0.371025	0.619457
C139	C	0.217108	-0.121025	0.869457
C140	C	0.467108	0.128975	1.119457
C141	C	-0.326124	-0.585649	0.326093
C142	C	-0.076124	-0.335649	0.576093
C143	C	0.173876	-0.085649	0.826093
C144	C	0.423876	0.164351	1.076093
C145	C	-0.369350	-0.620965	0.282721
C146	C	-0.119350	-0.370965	0.532721
C147	C	0.130650	-0.120965	0.782721
C148	C	0.380650	0.129035	1.032721
C149	C	-0.369344	-0.691652	0.282718
C150	C	-0.119344	-0.441652	0.532718
C151	C	0.130656	-0.191652	0.782718
C152	C	0.380656	0.058348	1.032718
C153	C	-0.369375	-0.335892	0.282735
C154	C	-0.119375	-0.085892	0.532735
C155	C	0.130625	0.164108	0.782735
C156	C	0.380625	0.414108	1.032735
C157	C	-0.369379	-0.265199	0.282744
C158	C	-0.119379	-0.015199	0.532744
C159	C	0.130621	0.234801	0.782744
C160	C	0.380621	0.484801	1.032744
C161	C	-0.282923	-0.265265	0.369474
C162	C	-0.032923	-0.015265	0.619474
C163	C	0.217077	0.234735	0.869474
C164	C	0.467077	0.484735	1.119474
C165	C	-0.282917	-0.335952	0.369470
C166	C	-0.032917	-0.085952	0.619470
C167	C	0.217083	0.164048	0.869470
C168	C	0.467083	0.414048	1.119470
C169	C	-0.326141	-0.371262	0.326096
C170	C	-0.076141	-0.121262	0.576096
C171	C	0.173859	0.128738	0.826096
C172	C	0.423859	0.378738	1.076096
C173	C	-0.326137	-0.447910	0.326095
C174	C	-0.076137	-0.197910	0.576095
C175	C	0.173863	0.052090	0.826095
C176	C	0.423863	0.302090	1.076095
C177	C	-0.326131	-0.509002	0.326098
C178	C	-0.076131	-0.259002	0.576098
C179	C	0.173869	-0.009002	0.826098
C180	C	0.423869	0.240998	1.076098
C181	C	-0.149592	-0.978207	0.326150
C182	C	0.100408	-0.728207	0.576150
C183	C	0.350408	-0.478207	0.826150
C184	C	0.600408	-0.228207	1.076150
C185	C	-0.074360	-0.978248	0.326170
C186	C	0.175640	-0.728248	0.576170
C187	C	0.425640	-0.478248	0.826170
C188	C	0.675640	-0.228248	1.076170
C189	C	-0.326092	-0.978151	0.502645
C190	C	-0.076092	-0.728151	0.752645
C191	C	0.173908	-0.478151	1.002645
C192	C	0.423908	-0.228151	1.252645
C193	C	-0.326074	-0.978167	0.577877
C194	C	-0.076074	-0.728167	0.827877
C195	C	0.173926	-0.478167	1.077877
C196	C	0.423926	-0.228167	1.327877
C197	C	-0.326155	-0.154655	0.326117
C198	C	-0.076155	0.095345	0.576117
C199	C	0.173845	0.345345	0.826117
C200	C	0.423845	0.595345	1.076117
C201	C	-0.326150	-0.229887	0.326108
C202	C	-0.076150	0.020113	0.576108
C203	C	0.173850	0.270113	0.826108
C204	C	0.423850	0.520113	1.076108
C205	C	-0.326128	-0.978114	0.150246
C206	C	-0.076128	-0.728114	0.400246
C207	C	0.173872	-0.478114	0.650246
C208	C	0.423872	-0.228114	0.900246
C209	C	-0.325956	-0.978229	0.075015
C210	C	-0.075956	-0.728229	0.325015
C211	C	0.174044	-0.478229	0.575015
C212	C	0.424044	-0.228229	0.825015
C213	C	-0.282787	-1.021481	0.613239
C214	C	-0.032787	-0.771481	0.863239
C215	C	0.217213	-0.521481	1.113239
C216	C	0.467213	-0.271481	1.363239
C217	C	-0.282768	-1.021488	0.683928
C218	C	-0.032768	-0.771488	0.933928
C219	C	0.217232	-0.521488	1.183928
C220	C	0.467232	-0.271488	1.433928
C221	C	-0.326038	-0.978184	0.719253
C222	C	-0.076038	-0.728184	0.969253
C223	C	0.173962	-0.478184	1.219253
C224	C	0.423962	-0.228184	1.469253
C225	C	-0.369327	-0.934864	0.683886
C226	C	-0.119327	-0.684864	0.933886
C227	C	0.130673	-0.434864	1.183886
C228	C	0.380673	-0.184864	1.433886
C229	C	-0.369342	-0.934854	0.613198
C230	C	-0.119342	-0.684854	0.863198
C231	C	0.130658	-0.434854	1.113198
C232	C	0.380658	-0.184854	1.363198
C233	C	-0.369264	-0.934902	0.968959
C234	C	-0.119264	-0.684902	1.218959
C235	C	0.130736	-0.434902	1.468959
C236	C	0.380736	-0.184902	1.718959
C237	C	-0.369246	-0.934917	1.039651
C238	C	-0.119246	-0.684917	1.289651
C239	C	0.130754	-0.434917	1.539651
C240	C	0.380754	-0.184917	1.789651
C241	C	-0.282689	-1.021536	1.039688
C242	C	-0.032689	-0.771536	1.289688
C243	C	0.217311	-0.521536	1.539688
C244	C	0.467311	-0.271536	1.789688
C245	C	-0.282705	-1.021527	0.969001
C246	C	-0.032705	-0.771527	1.219001
C247	C	0.217295	-0.521527	1.469001
C248	C	0.467295	-0.271527	1.719001
C249	C	-0.325990	-0.978205	0.933640
C250	C	-0.075990	-0.728205	1.183640
C251	C	0.174010	-0.478205	1.433640
C252	C	0.424010	-0.228205	1.683640
C253	C	-0.326010	-0.978197	0.856992
C254	C	-0.076010	-0.728197	1.106992
C255	C	0.173990	-0.478197	1.356992
C256	C	0.423990	-0.228197	1.606992
C257	C	-0.326022	-0.978194	0.795900
C258	C	-0.076022	-0.728194	1.045900
C259	C	0.173978	-0.478194	1.295900
C260	C	0.423978	-0.228194	1.545900
H261	H	-0.583784	-1.056644	0.247614
H262	H	-0.333784	-0.806644	0.497614
H263	H	-0.083784	-0.556644	0.747614
H264	H	0.166216	-0.306644	0.997614
H265	H	-0.939544	-1.056773	0.247681
H266	H	-0.689544	-0.806773	0.497681
H267	H	-0.439544	-0.556773	0.747681
H268	H	-0.189544	-0.306773	0.997681
H269	H	-0.404542	-0.720401	0.247403
H270	H	-0.154542	-0.470401	0.497403
H271	H	0.095458	-0.220401	0.747403
H272	H	0.345458	0.029599	0.997403
F273	F	-0.415332	-0.888795	0.931334
F274	F	-0.165332	-0.638795	1.181334
F275	F	0.084668	-0.388795	1.431334
F276	F	0.334668	-0.138795	1.681334
F277	F	-0.415357	-0.583313	0.236567
F278	F	-0.165357	-0.333313	0.486567
F279	F	0.084643	-0.083313	0.736567
F280	F	0.334643	0.166687	0.986567
H281	H	-0.583796	-0.899492	0.404549
H282	H	-0.333796	-0.649492	0.654549
H283	H	-0.083796	-0.399492	0.904549
H284	H	0.166204	-0.149492	1.154549
H285	H	-1.067790	-1.056820	0.247704
H286	H	-0.817790	-0.806820	0.497704
H287	H	-0.567790	-0.556820	0.747704
H288	H	-0.317790	-0.306820	0.997704
H289	H	-0.404571	-0.364632	0.247418
H290	H	-0.154571	-0.114632	0.497418
H291	H	0.095429	0.135368	0.747418
H292	H	0.345429	0.385368	0.997418
F293	F	-0.236653	-1.067620	0.931409
F294	F	0.013347	-0.817620	1.181409
F295	F	0.263347	-0.567620	1.431409
F296	F	0.513347	-0.317620	1.681409
F297	F	-0.930729	-0.888786	0.415426
F298	F	-0.680729	-0.638786	0.665426
F299	F	-0.430729	-0.388786	0.915426
F300	F	-0.180729	-0.138786	1.165426
H301	H	-0.247553	-1.056747	0.584482
H302	H	0.002447	-0.806747	0.834482
H303	H	0.252447	-0.556747	1.084482
H304	H	0.502447	-0.306747	1.334482
H305	H	-0.247696	-0.592278	0.404772
H306	H	0.002304	-0.342278	0.654772
H307	H	0.252304	-0.092278	0.904772
H308	H	0.502304	0.157722	1.154772
F309	F	-0.720877	-0.888717	0.415386
F310	F	-0.470877	-0.638717	0.665386
F311	F	-0.220877	-0.388717	0.915386
F312	F	0.029123	-0.138717	1.165386
F313	F	-0.236720	-1.067613	0.721559
F314	F	0.013280	-0.817613	0.971559
F315	F	0.263280	-0.567613	1.221559
F316	F	0.513280	-0.317613	1.471559
F317	F	-1.076640	-0.888835	0.415445
F318	F	-0.826640	-0.638835	0.665445
F319	F	-0.576640	-0.388835	0.915445
F320	F	-0.326640	-0.138835	1.165445
F321	F	-0.236618	-1.067642	1.077327
F322	F	0.013382	-0.817642	1.327327
F323	F	0.263382	-0.567642	1.577327
F324	F	0.513382	-0.317642	1.827327
H325	H	-0.247688	-0.720512	0.404769
H326	H	0.002312	-0.470512	0.654769
H327	H	0.252312	-0.220512	0.904769
H328	H	0.502312	0.029488	1.154769
F329	F	-0.415412	-0.888751	0.575564
F330	F	-0.165412	-0.638751	0.825564
F331	F	0.084588	-0.388751	1.075564
F332	F	0.334588	-0.138751	1.325564
F333	F	-0.415302	-0.888823	1.077245
F334	F	-0.165302	-0.638823	1.327245
F335	F	0.084698	-0.388823	1.577245
F336	F	0.334698	-0.138823	1.827245
H337	H	-0.247716	-0.364752	0.404784
H338	H	0.002284	-0.114752	0.654784
H339	H	0.252284	0.135248	0.904784
H340	H	0.502284	0.385248	1.154784
H341	H	-0.404556	-0.899602	0.712653
H342	H	-0.154556	-0.649602	0.962653
H343	H	0.095444	-0.399602	1.212653
H344	H	0.345444	-0.149602	1.462653
H345	H	-0.712019	-1.056695	0.247642
H346	H	-0.462019	-0.806695	0.497642
H347	H	-0.212019	-0.556695	0.747642
H348	H	0.037981	-0.306695	0.997642
H349	H	-0.404585	-0.236398	0.247430
H350	H	-0.154585	0.013602	0.497430
H351	H	0.095415	0.263602	0.747430
H352	H	0.345415	0.513602	0.997430
F353	F	-0.236918	-0.227680	0.415636
F354	F	0.013082	0.022320	0.665636
F355	F	0.263082	0.272320	0.915636
F356	F	0.513082	0.522320	1.165636
