data_functionalizedCrystal
_audit_creation_method	'MofGen! by Chris Wilmer'
_symmetry_space_group_name_H-M	'P1'
_symmetry_Int_Tables_number	1
_symmetry_cell_setting	triclinic
loop_
_symmetry_equiv_pos_as_xyz
  x,y,z
_cell_length_a	14.853566
_cell_length_b	13.330367
_cell_length_c	14.853567
_cell_angle_alpha	90.002150
_cell_angle_beta	83.634672
_cell_angle_gamma	89.997816
loop_
_atom_site_label
_atom_site_type_symbol
_atom_site_fract_x
_atom_site_fract_y
_atom_site_fract_z
O1	O	1.196367	-0.083349	0.117695
O2	O	0.933907	-0.083364	0.131717
O3	O	1.072147	-0.083359	-0.006524
O4	O	1.058126	-0.083354	0.255936
O5	O	1.072133	0.083488	-0.006520
O6	O	0.933893	0.083483	0.131721
O7	O	1.196352	0.083499	0.117699
Cu8	Cu	1.065121	0.098725	0.124710
Cu9	Cu	1.065138	-0.098591	0.124705
O10	O	1.058112	0.083493	0.255940
C11	C	0.900311	0.000057	0.131084
C12	C	0.800227	0.000051	0.129181
C13	C	0.377050	-0.090880	0.121128
C14	C	0.377056	0.091023	0.121133
C15	C	0.471090	0.091020	0.122920
C16	C	0.518108	0.000066	0.123813
C17	C	0.471093	-0.090886	0.122918
C18	C	0.518112	0.181970	0.123824
C19	C	0.612151	0.181971	0.125613
C20	C	0.659172	0.091015	0.126499
C21	C	0.612151	0.000060	0.125603
C22	C	0.659169	-0.090895	0.126496
C23	C	0.612150	-0.181851	0.125593
C24	C	0.518114	-0.181841	0.123804
C25	C	0.753209	0.091006	0.128288
C26	C	0.753212	-0.090900	0.128286
C27	C	1.071505	0.000062	-0.040111
C28	C	1.069601	0.000053	-0.140194
C29	C	1.229948	0.000075	0.118332
C30	C	1.330032	0.000075	0.120235
N31	N	1.065116	0.237507	0.124713
N32	N	1.065151	-0.237372	0.124696
C33	C	1.003895	0.290030	0.185908
C34	C	1.126343	0.290012	0.063515
C35	C	1.126352	0.395030	0.063512
C36	C	1.065131	0.447553	0.124706
C37	C	1.003900	0.395058	0.185904
C38	C	1.187575	0.447533	0.002309
C39	C	1.187586	0.552558	0.002302
C40	C	1.126368	0.605083	0.063501
C41	C	1.065136	0.552581	0.124703
C42	C	1.003915	0.605104	0.185897
C43	C	0.942686	0.552604	0.247103
C44	C	0.942682	0.447583	0.247104
C45	C	1.126372	0.710105	0.063501
C46	C	1.003920	0.710132	0.185894
C47	C	0.979435	0.000067	-0.552728
C48	C	1.143668	0.000076	-0.574009
C49	C	1.145458	0.000070	-0.479976
C50	C	1.064236	0.000064	-0.422313
C51	C	0.981223	0.000064	-0.458685
C52	C	1.228470	0.000081	-0.443597
C53	C	1.230263	0.000076	-0.349558
C54	C	1.149040	0.000063	-0.291894
C55	C	1.066023	0.000061	-0.328271
C56	C	0.984801	0.000055	-0.270608
C57	C	0.901784	0.000047	-0.306984
C58	C	0.899999	0.000050	-0.401021
C59	C	1.150824	0.000059	-0.197856
C60	C	0.986588	0.000052	-0.176566
C61	C	1.058754	0.000071	0.289526
C62	C	1.060658	0.000073	0.389610
H63	H	0.479822	0.256020	0.123104
H64	H	1.209796	0.000089	-0.620963
H65	H	1.176219	0.752845	0.013664
C66	C	1.298642	0.000087	-0.597199
C67	C	1.317745	0.000093	-0.506979
H68	H	1.353761	0.000089	-0.636329
H69	H	1.264605	0.058262	-0.608227
H70	H	1.264617	-0.058105	-0.608228
H71	H	1.351765	0.058290	-0.495947
H72	H	1.351796	-0.058087	-0.495946
H73	H	0.650426	0.256033	0.126346
H74	H	1.237442	0.595297	-0.047534
H75	H	0.832411	0.000044	-0.430646
H76	H	0.920446	0.000043	-0.129622
C77	C	1.392425	0.000079	-0.380051
C78	C	1.321513	0.000074	-0.309579
H79	H	1.448757	0.000069	-0.355366
H80	H	1.388309	0.058263	-0.416275
H81	H	1.388306	-0.058104	-0.416295
H82	H	1.325627	0.058261	-0.273338
H83	H	1.325630	-0.058116	-0.273339
H84	H	0.791486	0.165061	0.129032
C85	C	0.808534	-0.085731	-0.188879
C86	C	0.812504	0.000038	-0.243596
H87	H	0.753415	-0.085737	-0.149749
H88	H	0.858226	-0.085715	-0.153767
H89	H	0.811253	-0.143908	-0.226017
H90	H	0.809792	0.058216	-0.206458
H91	H	0.762799	0.000032	-0.278711
H92	H	0.338767	0.165074	0.120412
H93	H	0.911845	0.000056	-0.582349
C94	C	1.248115	-0.085702	-0.104454
C95	C	1.242064	0.000069	-0.157867
H96	H	1.304444	-0.085692	-0.079763
H97	H	1.244019	-0.143872	-0.140705
H98	H	1.199992	-0.085701	-0.056660
H99	H	1.290183	0.000064	-0.205665
H100	H	1.246169	0.058254	-0.121613
H101	H	0.791488	-0.164968	0.129010
H102	H	0.479823	-0.255893	0.123068
C103	C	0.756306	-0.262615	0.128339
C104	C	0.663840	-0.281827	0.126574
H105	H	0.788218	-0.324335	0.128940
H106	H	0.764894	-0.225252	0.181164
H107	H	0.778517	-0.225240	0.076101
H108	H	0.641626	-0.319195	0.178816
H109	H	0.655246	-0.319205	0.073744
C110	C	0.882878	0.699600	0.306874
C111	C	0.936618	0.767862	0.253159
H112	H	0.841326	0.735242	0.348395
H113	H	0.920444	0.658644	0.339372
H114	H	0.850407	0.658631	0.269281
H115	H	0.969095	0.808827	0.290751
H116	H	0.899048	0.808835	0.220658
C117	C	0.888293	0.286601	0.301437
C118	C	0.875374	0.389873	0.314366
H119	H	0.846733	0.250974	0.342956
H120	H	0.948460	0.269386	0.311343
H121	H	0.878430	0.269405	0.241245
H122	H	0.885243	0.407071	0.374557
H123	H	0.815192	0.407095	0.304468
H124	H	0.892835	0.595381	0.296924
C125	C	0.232903	-0.171652	0.118379
C126	C	0.325372	-0.190856	0.120140
H127	H	0.201000	-0.233375	0.117775
H128	H	0.224307	-0.134291	0.065558
H129	H	0.210687	-0.134279	0.170621
H130	H	0.347589	-0.228223	0.067895
H131	H	0.333973	-0.228234	0.172967
H132	H	0.954045	0.247282	0.235743
C133	C	1.179131	0.257532	-0.092444
C134	C	1.193633	0.232222	-0.003703
H135	H	1.220673	0.221828	-0.133928
H136	H	1.187938	0.327572	-0.101246
H137	H	1.118948	0.240342	-0.102345
H138	H	1.253814	0.249418	0.006200
H139	H	1.184833	0.162166	0.005102
C140	C	1.240423	0.414869	-0.153628
C141	C	1.254865	0.389663	-0.064847
H142	H	1.281966	0.379092	-0.195054
H143	H	1.249272	0.484894	-0.162500
H144	H	1.180240	0.397699	-0.163542
H145	H	1.315046	0.406840	-0.054931
H146	H	1.246024	0.319623	-0.055971
