data_functionalizedCrystal
_audit_creation_method	'MofGen! by Chris Wilmer'
_symmetry_space_group_name_H-M	'P1'
_symmetry_Int_Tables_number	1
_symmetry_cell_setting	triclinic
loop_
_symmetry_equiv_pos_as_xyz
  x,y,z
_cell_length_a	16.959455
_cell_length_b	16.120484
_cell_length_c	16.959447
_cell_angle_alpha	87.133462
_cell_angle_beta	90.016723
_cell_angle_gamma	92.924574
loop_
_atom_site_label
_atom_site_type_symbol
_atom_site_fract_x
_atom_site_fract_y
_atom_site_fract_z
Zn1	Zn	1.192396	-0.331913	0.462899
Zn2	Zn	1.692396	0.168087	0.962899
Zn3	Zn	1.185602	-0.471342	0.337416
Zn4	Zn	1.685602	0.028658	0.837416
Zn5	Zn	1.060223	-0.331944	0.330732
Zn6	Zn	1.560223	0.168056	0.830732
Zn7	Zn	1.053476	-0.471284	0.469547
Zn8	Zn	1.553476	0.028716	0.969547
O9	O	1.122924	-0.401621	0.400149
O10	O	1.622924	0.098379	0.900149
O11	O	1.302105	-0.350420	0.446269
O12	O	1.802105	0.149580	0.946269
O13	O	1.168951	-0.452888	0.225920
O14	O	1.668951	0.047112	0.725920
O15	O	1.083423	-0.215275	0.342685
O16	O	1.583423	0.284725	0.842685
O17	O	1.297114	-0.452857	0.354077
O18	O	1.797114	0.047143	0.854077
O19	O	1.180530	-0.215252	0.439788
O20	O	1.680530	0.284748	0.939788
O21	O	1.076835	-0.350473	0.221010
O22	O	1.576835	0.149527	0.721010
O23	O	0.948718	-0.350417	0.349131
O24	O	1.448718	0.149583	0.849131
O25	O	1.071923	-0.452760	0.579274
O26	O	1.571923	0.047240	1.079274
O27	O	0.943761	-0.452790	0.451117
O28	O	1.443761	0.047210	0.951117
O29	O	1.173987	-0.350364	0.574390
O30	O	1.673987	0.149636	1.074390
O31	O	1.162409	-0.588000	0.360523
O32	O	1.662409	-0.088000	0.860523
O33	O	1.065336	-0.587958	0.457598
O34	O	1.565336	-0.087958	0.957598
C35	C	0.917559	-0.401601	0.400121
C36	C	1.417559	0.098399	0.900121
C37	C	0.829702	-0.401613	0.400129
C38	C	1.329702	0.098387	0.900129
C39	C	1.112424	-0.618229	0.410524
C40	C	1.612424	-0.118229	0.910524
C41	C	1.108005	-0.710894	0.414990
C42	C	1.608005	-0.210894	0.914990
C43	C	0.790989	-0.348236	0.347107
C44	C	1.290989	0.151764	0.847107
C45	C	0.785861	-0.454996	0.453163
C46	C	1.285861	0.045004	0.953163
C47	C	0.703315	-0.455005	0.453175
C48	C	1.203315	0.044995	0.953175
C49	C	0.664602	-0.401628	0.400153
C50	C	1.164602	0.098372	0.900153
C51	C	0.708435	-0.348242	0.347119
C52	C	1.208435	0.151758	0.847119
C53	C	0.659475	-0.508385	0.506214
C54	C	1.159475	-0.008385	1.006214
C55	C	0.576924	-0.508396	0.506228
C56	C	1.076924	-0.008396	1.006228
C57	C	0.538209	-0.455022	0.453202
C58	C	1.038209	0.044978	0.953202
C59	C	0.582048	-0.401635	0.400165
C60	C	1.082048	0.098365	0.900165
C61	C	0.543335	-0.348258	0.347143
C62	C	1.043335	0.151742	0.847143
C63	C	0.587172	-0.294874	0.294101
C64	C	1.087172	0.205126	0.794101
C65	C	0.669721	-0.294869	0.294092
C66	C	1.169721	0.205131	0.794092
C67	C	0.455661	-0.455027	0.453211
C68	C	0.955661	0.044973	0.953211
C69	C	0.460781	-0.348264	0.347155
C70	C	0.960781	0.151736	0.847155
C71	C	1.099940	-0.880556	0.423158
C72	C	1.599940	-0.380556	0.923158
C73	C	1.146050	-0.921846	0.377152
C74	C	1.646050	-0.421846	0.877152
C75	C	1.141563	-1.016251	0.381697
C76	C	1.641563	-0.516251	0.881697
C77	C	1.104426	-0.786142	0.418614
C78	C	1.604426	-0.286142	0.918614
C79	C	1.329092	-0.401642	0.400177
C80	C	1.829092	0.098358	0.900177
C81	C	1.416948	-0.401650	0.400189
C82	C	1.916948	0.098350	0.900189
C83	C	1.122961	-0.401552	0.606314
C84	C	1.622961	0.098448	1.106314
C85	C	1.122976	-0.401523	0.694169
C86	C	1.622976	0.098477	1.194169
C87	C	1.133487	-0.184168	0.389749
C88	C	1.633487	0.315832	0.889749
C89	C	1.137988	-0.091502	0.385318
C90	C	1.637988	0.408498	0.885318
C91	C	1.122937	-0.401630	0.194783
C92	C	1.622937	0.098370	0.694783
C93	C	1.123086	-0.401424	0.106917
C94	C	1.623086	0.098576	0.606917
C95	C	1.069935	-0.454747	1.068186
C96	C	1.569935	0.045253	1.568186
C97	C	1.176215	-0.348122	1.063095
C98	C	1.676215	0.151878	1.563095
C99	C	1.176193	-0.348140	0.980550
C100	C	1.676193	0.151860	1.480550
C101	C	1.123042	-0.401463	0.941819
C102	C	1.623042	0.098537	1.441819
C103	C	1.069913	-0.454768	0.985633
C104	C	1.569913	0.045232	1.485633
C105	C	1.229326	-0.294842	0.936730
C106	C	1.729326	0.205158	1.436730
C107	C	1.229307	-0.294858	0.854180
C108	C	1.729307	0.205142	1.354180
C109	C	1.176152	-0.348177	0.815447
C110	C	1.676152	0.151823	1.315447
C111	C	1.123020	-0.401484	0.859266
C112	C	1.623020	0.098516	1.359266
C113	C	1.069869	-0.454807	0.820535
C114	C	1.569869	0.045193	1.320535
C115	C	1.016732	-0.508110	0.864353
C116	C	1.516732	-0.008110	1.364353
C117	C	1.016757	-0.508088	0.946900
C118	C	1.516757	-0.008088	1.446900
C119	C	1.176127	-0.348200	0.732900
C120	C	1.676127	0.151800	1.232900
C121	C	1.069847	-0.454828	0.737983
C122	C	1.569847	0.045172	1.237983
H123	H	0.555641	-0.251411	0.250934
H124	H	1.055641	0.248589	0.750934
N125	N	0.825404	-0.509526	0.507309
N126	N	1.325404	-0.009526	1.007309
N127	N	0.812465	-0.586450	0.505632
N128	N	1.312465	-0.086450	1.005632
H129	H	0.840396	-0.624966	0.543873
H130	H	1.340396	-0.124966	1.043873
N131	N	0.835750	-0.293691	0.292934
N132	N	1.335750	0.206309	0.792934
N133	N	0.801172	-0.246034	0.245604
N134	N	1.301172	0.253966	0.745604
H135	H	0.832785	-0.207507	0.207345
H136	H	1.332785	0.292493	0.707345
N137	N	1.199777	-0.877250	0.323436
N138	N	1.699777	-0.377250	0.823436
N139	N	1.174238	-0.828719	0.270751
N140	N	1.674238	-0.328719	0.770751
H141	H	1.212176	-0.797222	0.232808
H142	H	1.712176	-0.297222	0.732808
N143	N	1.046176	-0.925147	0.476832
N144	N	1.546176	-0.425147	0.976832
N145	N	0.973689	-0.915579	0.471055
N146	N	1.473689	-0.415579	0.971055
H147	H	0.935715	-0.947081	0.508958
H148	H	1.435715	-0.447081	1.008958
H149	H	0.541238	-0.551865	0.549417
H150	H	1.041238	-0.051865	1.049417
N151	N	1.015541	-0.509296	0.698435
N152	N	1.515541	-0.009296	1.198435
N153	N	0.968105	-0.556877	0.737569
N154	N	1.468105	-0.056877	1.237569
H155	H	0.929750	-0.595345	0.709639
H156	H	1.429750	-0.095345	1.209639
H157	H	0.973460	-0.551529	0.832808
H158	H	1.473460	-0.051529	1.332808
N159	N	0.962489	-0.562525	0.991670
N160	N	1.462489	-0.062525	1.491670
N161	N	0.962520	-0.562498	1.065373
N162	N	1.462520	-0.062498	1.565373
H163	H	0.924194	-0.600945	1.096996
H164	H	1.424194	-0.100945	1.596996
H165	H	1.219492	-0.304714	1.094635
H166	H	1.719492	0.195286	1.594635
N167	N	1.015660	-0.509182	1.112950
N168	N	1.515660	-0.009182	1.612950
N169	N	1.015678	-0.509155	1.186653
N170	N	1.515678	-0.009155	1.686653
H171	H	0.977346	-0.547599	1.218269
H172	H	1.477346	-0.047599	1.718269
N173	N	0.699031	-0.562884	0.560378
N174	N	1.199031	-0.062884	1.060378
N175	N	0.772736	-0.562866	0.560360
N176	N	1.272736	-0.062866	1.060360
H177	H	0.800677	-0.601356	0.598617
H178	H	1.300677	-0.101356	1.098617
N179	N	0.714483	-0.240332	0.239913
N180	N	1.214483	0.259668	0.739913
N181	N	0.704972	-0.245763	0.167228
N182	N	1.204972	0.254237	0.667228
H183	H	0.736586	-0.207243	0.128966
H184	H	1.236586	0.292757	0.628966
H185	H	1.272604	-0.251434	0.968271
H186	H	1.772604	0.248566	1.468271
H187	H	0.429267	-0.304799	0.303976
H188	H	0.929267	0.195201	0.803976
H189	H	1.219392	-0.304803	0.697227
H190	H	1.719392	0.195197	1.197227
N191	N	0.410895	-0.509549	0.507395
N192	N	0.910895	-0.009549	1.007395
N193	N	0.445470	-0.557196	0.554737
N194	N	0.945470	-0.057196	1.054737
H195	H	0.413856	-0.595707	0.593008
H196	H	0.913856	-0.095707	1.093008
N197	N	1.283589	-0.240410	0.809438
N198	N	1.783589	0.259590	1.309438
N199	N	1.331042	-0.192807	0.844030
N200	N	1.831042	0.307193	1.344030
H201	H	1.369379	-0.154351	0.812430
H202	H	1.869379	0.345649	1.312430
