data_functionalizedCrystal
_audit_creation_method	'MofGen! by Chris Wilmer'
_symmetry_space_group_name_H-M	'P1'
_symmetry_Int_Tables_number	1
_symmetry_cell_setting	triclinic
loop_
_symmetry_equiv_pos_as_xyz
  x,y,z
_cell_length_a	18.215407
_cell_length_b	12.759400
_cell_length_c	18.215399
_cell_angle_alpha	90.023429
_cell_angle_beta	90.019833
_cell_angle_gamma	90.013614
loop_
_atom_site_label
_atom_site_type_symbol
_atom_site_fract_x
_atom_site_fract_y
_atom_site_fract_z
Zn1	Zn	1.125132	-0.418264	0.416139
Zn2	Zn	1.625132	0.081736	0.916139
Zn3	Zn	1.125065	-0.593962	0.293082
Zn4	Zn	1.625065	-0.093962	0.793082
Zn5	Zn	1.002064	-0.418299	0.293086
Zn6	Zn	1.502064	0.081701	0.793086
Zn7	Zn	1.002056	-0.593903	0.416107
Zn8	Zn	1.502056	-0.093903	0.916107
O9	O	1.063579	-0.506107	0.354604
O10	O	1.563579	-0.006107	0.854604
O11	O	1.228107	-0.441581	0.399827
O12	O	1.728107	0.058419	0.899827
O13	O	1.108725	-0.570699	0.190099
O14	O	1.608725	-0.070699	0.690099
O15	O	1.018421	-0.271273	0.309424
O16	O	1.518421	0.228727	0.809424
O17	O	1.228059	-0.570665	0.309418
O18	O	1.728059	-0.070665	0.809418
O19	O	1.108838	-0.271248	0.399831
O20	O	1.608838	0.228752	0.899831
O21	O	1.018357	-0.441640	0.190102
O22	O	1.518357	0.058360	0.690102
O23	O	0.899079	-0.441583	0.309394
O24	O	1.399079	0.058417	0.809394
O25	O	1.018406	-0.570566	0.519096
O26	O	1.518406	-0.070566	1.019096
O27	O	0.899072	-0.570599	0.399777
O28	O	1.399072	-0.070599	0.899777
O29	O	1.108830	-0.441525	0.519119
O30	O	1.608830	0.058475	1.019119
O31	O	1.108716	-0.740975	0.309387
O32	O	1.608716	-0.240975	0.809387
O33	O	1.018341	-0.740932	0.399773
O34	O	1.518341	-0.240932	0.899773
C35	C	0.872373	-0.506089	0.354583
C36	C	1.372373	-0.006089	0.854583
C37	C	0.790574	-0.506107	0.354591
C38	C	1.290574	-0.006107	0.854591
C39	C	0.602396	-0.573391	0.401594
C40	C	1.102396	-0.073391	0.901594
C41	C	0.525537	-0.573394	0.401604
C42	C	1.025537	-0.073394	0.901604
C43	C	0.525515	-0.438842	0.307629
C44	C	1.025515	0.061158	0.807629
C45	C	0.602372	-0.438835	0.307624
C46	C	1.102372	0.061165	0.807624
C47	C	0.640811	-0.506115	0.354606
C48	C	1.140811	-0.006115	0.854606
C49	C	0.487095	-0.506126	0.354620
C50	C	0.987095	-0.006126	0.854620
C51	C	0.403761	-0.506129	0.354630
C52	C	0.903761	-0.006129	0.854630
C53	C	0.724150	-0.506111	0.354597
C54	C	1.224150	-0.006111	0.854597
C55	C	1.063541	-0.779075	0.354592
C56	C	1.563541	-0.279075	0.854592
C57	C	1.063592	-0.895851	0.354612
C58	C	1.563592	-0.395851	0.854612
C59	C	1.110648	-0.950620	0.401725
C60	C	1.610648	-0.450620	0.901725
C61	C	1.110682	-1.060344	0.401743
C62	C	1.610682	-0.560344	0.901743
C63	C	1.016601	-1.060520	0.307528
C64	C	1.516601	-0.560520	0.807528
C65	C	1.016564	-0.950798	0.307515
C66	C	1.516564	-0.450798	0.807515
C67	C	1.157676	-0.895673	0.448822
C68	C	1.657676	-0.395673	0.948822
C69	C	1.204737	-0.950442	0.495938
C70	C	1.704737	-0.450442	0.995938
C71	C	1.204771	-1.060166	0.495956
C72	C	1.704771	-0.560166	0.995956
C73	C	1.157744	-1.115121	0.448858
C74	C	1.657744	-0.615121	0.948858
C75	C	1.255532	-0.506126	0.354625
C76	C	1.755532	-0.006126	0.854625
C77	C	1.337331	-0.506134	0.354635
C78	C	1.837331	-0.006134	0.854635
C79	C	1.063624	-0.506035	0.546557
C80	C	1.563624	-0.006035	1.046557
C81	C	1.063643	-0.506004	0.628356
C82	C	1.563643	-0.006004	1.128356
C83	C	1.063638	-0.232074	0.354632
C84	C	1.563638	0.267926	0.854632
C85	C	1.063663	-0.115297	0.354643
C86	C	1.563663	0.384703	0.854643
C87	C	1.063577	-0.506103	0.163398
C88	C	1.563577	-0.006103	0.663398
C89	C	1.063700	-0.505838	0.081599
C90	C	1.563700	-0.005838	0.581599
C91	C	1.110744	-0.438749	0.816563
C92	C	1.610744	0.061251	1.316563
C93	C	1.110753	-0.438719	0.893422
C94	C	1.610753	0.061281	1.393422
C95	C	1.016595	-0.573096	0.893386
C96	C	1.516595	-0.073096	1.393386
C97	C	1.016583	-0.573120	0.816529
C98	C	1.516583	-0.073120	1.316529
C99	C	1.063662	-0.505949	0.778119
C100	C	1.563662	-0.005949	1.278119
C101	C	1.063682	-0.505894	0.931835
C102	C	1.563682	-0.005894	1.431835
C103	C	1.063691	-0.505861	1.015169
C104	C	1.563691	-0.005861	1.515169
C105	C	1.063652	-0.505980	0.694780
C106	C	1.563652	-0.005980	1.194780
H107	H	1.157655	-0.806330	0.448811
H108	H	1.657655	-0.306330	0.948811
H109	H	0.978245	-0.906205	0.269151
H110	H	1.478245	-0.406205	0.769151
F111	F	1.157870	-1.231900	0.448793
F112	F	1.657870	-0.731900	0.948793
F113	F	0.643258	-0.367221	0.257614
F114	F	1.143258	0.132779	0.757614
H115	H	1.243085	-1.104757	0.534326
H116	H	1.743085	-0.604757	1.034326
H117	H	0.978315	-1.105273	0.269183
H118	H	1.478315	-0.605273	0.769183
F119	F	1.160847	-0.367257	0.775687
F120	F	1.660847	0.132743	1.275687
H121	H	1.243020	-0.905693	0.534289
H122	H	1.743020	-0.405693	1.034289
F123	F	0.484657	-0.644997	0.451617
F124	F	0.984657	-0.144997	0.951617
F125	F	1.160869	-0.367203	0.934333
F126	F	1.660869	0.132797	1.434333
H127	H	0.978267	-0.627787	0.924669
H128	H	1.478267	-0.127787	1.424669
F129	F	0.966465	-0.644642	0.775612
F130	F	1.466465	-0.144642	1.275612
H131	H	0.494208	-0.384067	0.269377
H132	H	0.994208	0.115933	0.769377
F133	F	0.643303	-0.644994	0.451598
F134	F	1.143303	-0.144994	0.951598
