data_functionalizedCrystal
_audit_creation_method	'MofGen! by Chris Wilmer'
_symmetry_space_group_name_H-M	'P1'
_symmetry_Int_Tables_number	1
_symmetry_cell_setting	triclinic
loop_
_symmetry_equiv_pos_as_xyz
  x,y,z
_cell_length_a	10.654549
_cell_length_b	10.654550
_cell_length_c	9.730223
_cell_angle_alpha	90.004929
_cell_angle_beta	90.000577
_cell_angle_gamma	95.515146
loop_
_atom_site_label
_atom_site_type_symbol
_atom_site_fract_x
_atom_site_fract_y
_atom_site_fract_z
O1	O	1.667834	-0.176398	-0.114258
O2	O	2.167834	0.323602	0.385742
O3	O	1.302355	-0.193205	-0.114268
O4	O	1.802355	0.306795	0.385732
O5	O	1.493498	-0.002062	-0.114254
O6	O	1.993498	0.497938	0.385746
O7	O	1.476692	-0.367541	-0.114272
O8	O	1.976692	0.132459	0.385728
O9	O	1.493496	-0.002053	0.114326
O10	O	1.993496	0.497947	0.614326
O11	O	1.302354	-0.193196	0.114312
O12	O	1.802354	0.306804	0.614312
O13	O	1.667832	-0.176389	0.114322
O14	O	2.167832	0.323611	0.614322
Zn15	Zn	1.485093	-0.184791	0.150609
Zn16	Zn	1.985093	0.315209	0.650609
Zn17	Zn	1.485095	-0.184803	-0.150555
Zn18	Zn	1.985095	0.315197	0.349445
O19	O	1.476690	-0.367532	0.114308
O20	O	1.976690	0.132468	0.614308
C21	C	1.255557	-0.191966	0.000021
C22	C	1.755557	0.308034	0.500021
C23	C	1.116113	-0.188275	0.000018
C24	C	1.616113	0.311725	0.500018
C25	C	0.905599	-0.297338	0.000018
C26	C	1.405599	0.202662	0.500018
C27	C	1.036619	-0.300816	0.000010
C28	C	1.536619	0.199184	0.500010
C29	C	1.064581	-0.072247	0.000020
C30	C	1.564581	0.427753	0.500020
C31	C	0.933563	-0.068770	0.000019
C32	C	1.433563	0.431230	0.500019
C33	C	1.492263	0.044740	0.000035
C34	C	1.992263	0.544740	0.500035
C35	C	1.488571	0.184183	0.000033
C36	C	1.988571	0.684183	0.500033
C37	C	1.714631	-0.177628	0.000030
C38	C	2.214631	0.322372	0.500030
C39	C	1.854074	-0.181319	0.000025
C40	C	2.354074	0.318681	0.500025
N41	N	1.485097	-0.184802	-0.356091
N42	N	1.985097	0.315198	0.143909
C43	C	1.477925	-0.414334	0.000016
C44	C	1.977925	0.085666	0.500016
C45	C	1.481617	-0.553777	0.000009
C46	C	1.981617	-0.053777	0.500009
C47	C	1.601113	0.263669	0.000036
C48	C	2.101113	0.763669	0.500036
C49	C	1.597636	0.394690	0.000019
C50	C	2.097636	0.894690	0.500019
C51	C	1.369067	0.366727	0.000003
C52	C	1.869067	0.866727	0.500003
C53	C	1.372544	0.235708	0.000010
C54	C	1.872544	0.735708	0.500010
C55	C	1.569895	-0.100331	-0.428011
C56	C	2.069895	0.399669	0.071989
C57	C	1.569901	-0.100324	-0.571894
C58	C	2.069901	0.399676	-0.071894
C59	C	1.400298	-0.269262	-0.571924
C60	C	1.900298	0.230738	-0.071924
C61	C	1.400300	-0.269274	-0.428044
C62	C	1.900300	0.230726	0.071956
N63	N	1.485100	-0.184783	0.356146
N64	N	1.985100	0.315217	0.856146
H65	H	1.129316	0.019386	0.000019
H66	H	1.629316	0.519386	0.500019
F67	F	0.878724	0.054720	0.000011
F68	F	1.378724	0.554720	0.500011
F69	F	1.724598	0.208837	0.000059
F70	F	2.224598	0.708837	0.500059
F71	F	1.091449	-0.424299	-0.000003
F72	F	1.591449	0.075701	0.499997
H73	H	1.689279	0.459403	0.000018
H74	H	2.189279	0.959403	0.500018
F75	F	1.310047	-0.359188	-0.351496
F76	F	1.810047	0.140812	0.148504
H77	H	1.638952	-0.031543	-0.630447
H78	H	2.138952	0.468457	-0.130447
H79	H	1.331256	-0.338036	-0.630523
H80	H	1.831256	0.161964	-0.130523
F81	F	0.821005	-0.417123	0.000020
F82	F	1.321005	0.082877	0.500020
F83	F	1.245589	0.421575	-0.000023
F84	F	1.745589	0.921575	0.499977
F85	F	1.660147	-0.010431	-0.351439
F86	F	2.160147	0.489569	0.148561
F87	F	1.252756	0.151108	-0.000003
F88	F	1.752756	0.651108	0.499997
