data_functionalizedCrystal
_audit_creation_method	'MofGen! by Chris Wilmer'
_symmetry_space_group_name_H-M	'P1'
_symmetry_Int_Tables_number	1
_symmetry_cell_setting	triclinic
loop_
_symmetry_equiv_pos_as_xyz
  x,y,z
_cell_length_a	21.295420
_cell_length_b	21.295417
_cell_length_c	12.645324
_cell_angle_alpha	89.959112
_cell_angle_beta	89.977076
_cell_angle_gamma	90.028757
loop_
_atom_site_label
_atom_site_type_symbol
_atom_site_fract_x
_atom_site_fract_y
_atom_site_fract_z
Zn1	Zn	0.962344	-0.250591	-0.599378
Zn2	Zn	0.962250	-0.355878	-0.422090
Zn3	Zn	0.857071	-0.250623	-0.422122
Zn4	Zn	0.857037	-0.355823	-0.599305
O5	O	0.909676	-0.303229	-0.510724
O6	O	1.050421	-0.264567	-0.575877
O7	O	0.948272	-0.341952	-0.273747
O8	O	0.871089	-0.162530	-0.445680
O9	O	1.050352	-0.341921	-0.445624
O10	O	0.948433	-0.162506	-0.575909
O11	O	0.870998	-0.264622	-0.273771
O12	O	0.768977	-0.264569	-0.445609
O13	O	0.871032	-0.341827	-0.747662
O14	O	0.768952	-0.341858	-0.575785
O15	O	0.948400	-0.264513	-0.747716
O16	O	0.948240	-0.443960	-0.445554
O17	O	0.870940	-0.443920	-0.575753
C18	C	0.746124	-0.303212	-0.510693
C19	C	0.676156	-0.303220	-0.510706
C20	C	0.176701	-0.343548	-0.578440
C21	C	0.242444	-0.343548	-0.578429
C22	C	0.275316	-0.303243	-0.510757
C23	C	0.242441	-0.262946	-0.443072
C24	C	0.176700	-0.262952	-0.443077
N25	N	0.378557	-0.248127	-0.502787
N26	N	0.441009	-0.248124	-0.502788
C27	C	0.473391	-0.303225	-0.510735
N28	N	0.440963	-0.358331	-0.518701
N29	N	0.378506	-0.358334	-0.518706
C30	C	0.346602	-0.303233	-0.510743
C31	C	0.577544	-0.343523	-0.578398
C32	C	0.643288	-0.343524	-0.578380
C33	C	0.643284	-0.262917	-0.443028
C34	C	0.577541	-0.262921	-0.443041
C35	C	0.544675	-0.303223	-0.510732
C36	C	0.909593	-0.466780	-0.510665
C37	C	0.909615	-0.536748	-0.510676
C38	C	0.949901	-0.569615	-0.442950
C39	C	0.949930	-0.635358	-0.442974
C40	C	0.909663	-0.668231	-0.510712
C41	C	0.869375	-0.635356	-0.578451
C42	C	0.869351	-0.569615	-0.578432
N43	N	0.854596	-0.771494	-0.518783
N44	N	0.854620	-0.833946	-0.518795
C45	C	0.909734	-0.866306	-0.510773
N46	N	0.964823	-0.833855	-0.502719
N47	N	0.964797	-0.771398	-0.502702
C48	C	0.909685	-0.739516	-0.510740
C49	C	0.950055	-0.970458	-0.443070
C50	C	0.950085	-1.036202	-0.443101
C51	C	0.869524	-1.036199	-0.578572
C52	C	0.869499	-0.970456	-0.578546
C53	C	0.909763	-0.937590	-0.510790
C54	C	1.073866	-0.303246	-0.510755
C55	C	1.143834	-0.303254	-0.510768
C56	C	0.909723	-0.303160	-0.787229
C57	C	0.909743	-0.303131	-0.905059
C58	C	0.909776	-0.139038	-0.510806
C59	C	0.909818	-0.069070	-0.510841
C60	C	0.958605	-0.254634	-1.072657
C61	C	0.958449	-0.254459	-0.950097
C62	C	0.843430	-0.285102	-0.949542
C63	C	0.843726	-0.284734	-1.072141
C64	C	0.926656	-0.369728	-1.072240
C65	C	0.928107	-0.369393	-0.949634
C66	C	0.909665	-0.303251	-0.235294
C67	C	0.909767	-0.303103	-0.117465
H68	H	0.149939	-0.230138	-0.387970
F69	F	0.794541	-0.328862	-1.110884
F70	F	1.023092	-0.269203	-1.111206
F71	F	0.992809	-0.670344	-0.370887
F72	F	0.992761	-0.534640	-0.370849
H73	H	0.836590	-0.662126	-0.633605
F74	F	0.277427	-0.220053	-0.371047
F75	F	0.141727	-0.386444	-0.650479
H76	H	0.670048	-0.230102	-0.387924
F77	F	0.277431	-0.386435	-0.650459
F78	F	0.542564	-0.386417	-0.650436
H79	H	0.670048	-0.376340	-0.633484
H80	H	0.806051	-0.319320	-0.920367
H81	H	0.550780	-0.230108	-0.387938
F82	F	0.826471	-0.534635	-0.650518
F83	F	0.992907	-0.935477	-0.370957
H84	H	0.982895	-1.062961	-0.387953
H85	H	0.836740	-1.062963	-0.633731
H86	H	0.976908	-0.382988	-0.920559
F87	F	0.826618	-0.935476	-0.650626
H88	H	1.007622	-0.265750	-0.920023
H89	H	0.947567	-0.205553	-1.103494
H90	H	0.947267	-0.205105	-0.920797
F91	F	0.824988	-0.221085	-1.109556
H92	H	0.828849	-0.236944	-0.918860
H93	H	0.974166	-0.386141	-1.103221
F94	F	0.884987	-0.419137	-0.909565
H95	H	0.891087	-0.405843	-1.101223
