data_functionalizedCrystal
_audit_creation_method	'MofGen! by Chris Wilmer'
_symmetry_space_group_name_H-M	'P1'
_symmetry_Int_Tables_number	1
_symmetry_cell_setting	triclinic
loop_
_symmetry_equiv_pos_as_xyz
  x,y,z
_cell_length_a	13.635800
_cell_length_b	23.752966
_cell_length_c	23.753023
_cell_angle_alpha	82.896721
_cell_angle_beta	100.067528
_cell_angle_gamma	79.933465
loop_
_atom_site_label
_atom_site_type_symbol
_atom_site_fract_x
_atom_site_fract_y
_atom_site_fract_z
V1	V	1.985891	-0.079884	0.178712
O2	O	1.988839	0.003095	0.174980
O3	O	1.953502	-0.157681	0.177808
O4	O	1.953505	-0.078981	0.256510
O5	O	1.988836	-0.076149	0.095733
V6	V	2.229827	-0.069920	0.168749
O7	O	2.111751	-0.101740	0.200568
O8	O	2.329066	-0.048063	0.146893
O9	O	2.150613	0.007877	0.169653
O10	O	2.285578	-0.152899	0.172481
O11	O	2.285582	-0.073654	0.251728
O12	O	2.150610	-0.070822	0.090951
V13	V	2.485891	-0.079884	0.178712
O14	O	2.488839	0.003095	0.174980
O15	O	2.453502	-0.157681	0.177808
O16	O	2.453505	-0.078981	0.256510
O17	O	2.488836	-0.076149	0.095733
V18	V	2.729827	-0.069920	0.168749
O19	O	2.611751	-0.101740	0.200568
O20	O	2.829066	-0.048063	0.146893
O21	O	2.650613	0.007877	0.169653
O22	O	2.785578	-0.152899	0.172481
O23	O	2.785582	-0.073654	0.251728
O24	O	2.650610	-0.070822	0.090951
C25	C	1.874275	-0.176636	0.175071
C26	C	1.888382	-0.240238	0.174850
C27	C	2.066424	-0.637578	0.176409
C28	C	2.079696	-0.697341	0.176210
O29	O	2.163478	-0.730741	0.178565
N30	N	1.995889	-0.724305	0.173241
C31	C	1.898807	-0.691504	0.170475
O32	O	1.828742	-0.719926	0.167932
C33	C	1.885538	-0.631742	0.170678
C34	C	1.969349	-0.604781	0.173642
C35	C	2.150229	-0.610616	0.179374
C36	C	2.136958	-0.550857	0.179571
C37	C	2.039883	-0.518060	0.176804
C38	C	1.956079	-0.545022	0.173840
C39	C	1.788458	-0.598943	0.167917
C40	C	1.775196	-0.539178	0.168121
C41	C	1.859008	-0.512216	0.171085
C42	C	1.845733	-0.452466	0.171271
N43	N	1.929539	-0.425502	0.174240
C44	C	2.026614	-0.458299	0.177007
C45	C	1.926679	-0.817006	0.170051
C46	C	1.939946	-0.876766	0.169844
C47	C	2.120834	-0.882599	0.175580
C48	C	2.107565	-0.822838	0.175782
C49	C	2.010486	-0.790043	0.173020
C50	C	1.998737	-0.332801	0.177422
C51	C	1.985457	-0.273036	0.177617
C52	C	1.804571	-0.267208	0.171884
C53	C	1.817849	-0.326967	0.171686
C54	C	1.914940	-0.359762	0.174457
O55	O	1.761982	-0.419029	0.168920
O56	O	2.096667	-0.429870	0.179558
C57	C	1.874279	-0.076246	0.275462
C58	C	1.888387	-0.076023	0.339064
C59	C	2.061511	0.026829	0.172389
C60	C	2.037023	0.090431	0.172613
C61	C	2.061508	-0.073560	0.071996
C62	C	2.037019	-0.073780	0.008393
C63	C	2.374275	-0.176636	0.175071
C64	C	2.388382	-0.240238	0.174850
C65	C	1.989642	-0.127136	0.741862
C66	C	2.002914	-0.126935	0.801625
O67	O	2.021423	-0.171420	0.839665
N68	N	1.995894	-0.074405	0.823129
C69	C	1.975610	-0.022072	0.784868
O70	O	1.970859	0.022628	0.808647
C71	C	1.962345	-0.022274	0.725107
C72	C	1.969357	-0.074807	0.703606
C73	C	1.996653	-0.179666	0.720360
C74	C	1.983380	-0.179866	0.660601
C75	C	1.963094	-0.127537	0.622345
C76	C	1.956083	-0.075008	0.643847
C77	C	1.942068	0.030058	0.686847
C78	C	1.928804	0.029852	0.627083
C79	C	1.935816	-0.022682	0.605581
C80	C	1.922524	-0.022879	0.545832
N81	N	1.929544	-0.075410	0.524327
C82	C	1.949829	-0.127739	0.562583
C83	C	2.003470	-0.021653	0.910372
C84	C	2.016728	-0.021450	0.970131
C85	C	2.044033	-0.126314	0.986884
C86	C	2.030768	-0.126516	0.927122
C87	C	2.010490	-0.074183	0.888867
C88	C	1.921952	-0.128156	0.437085
C89	C	1.908672	-0.128352	0.377321
C90	C	1.881373	-0.023488	0.360574
C91	C	1.894647	-0.023292	0.420333
C92	C	1.914941	-0.075631	0.458588
O93	O	1.904017	0.021582	0.507757
O94	O	1.954590	-0.172431	0.538796
C95	C	2.374279	-0.076246	0.275462
C96	C	2.388387	-0.076023	0.339064
C97	C	2.561511	0.026829	0.172389
C98	C	2.537023	0.090431	0.172613
C99	C	2.561508	-0.073560	0.071996
C100	C	2.537019	-0.073780	0.008393
C101	C	2.485457	-0.273036	0.177617
C102	C	2.498728	-0.332799	0.177418
C103	C	2.414922	-0.359762	0.174448
C104	C	2.317839	-0.326961	0.171683
C105	C	2.304570	-0.267200	0.171886
C106	C	2.485461	-0.078782	0.371860
C107	C	2.498729	-0.078565	0.431620
C108	C	2.414923	-0.075592	0.458584
C109	C	2.317841	-0.072831	0.425783
C110	C	2.304573	-0.073044	0.366023
C111	C	2.612442	0.123228	0.169848
C112	C	2.589442	0.182991	0.170050
C113	C	2.491025	0.209954	0.173021
C114	C	2.415601	0.177153	0.175784
C115	C	2.438599	0.117393	0.175579
C116	C	2.438594	-0.076746	-0.018555
C117	C	2.415568	-0.076946	-0.078318
C118	C	2.490970	-0.074184	-0.111129
C119	C	2.589402	-0.071216	-0.084177
C120	C	2.612426	-0.071012	-0.024416
H121	H	2.053710	-0.251086	0.180028
Cl122	Cl	2.684276	0.224214	0.166577
Cl123	Cl	2.022154	-0.245460	0.768444
Cl124	Cl	1.712485	-0.360862	0.167959
H125	H	2.577786	-0.080816	0.458319
Cl126	Cl	2.212934	-0.788951	0.179512
H127	H	2.377181	0.090693	0.177835
H128	H	2.472312	0.258616	0.173187
H129	H	2.199879	-0.909313	0.177828
Cl130	Cl	2.431621	-0.075328	0.533712
Cl131	Cl	2.462010	-0.074444	-0.186257
Cl132	Cl	2.069513	-0.192099	1.034988
H133	H	2.225523	-0.070798	0.339325
Cl134	Cl	2.291879	0.211060	0.179516
Cl135	Cl	2.291822	-0.080683	-0.112187
Cl136	Cl	2.039587	-0.192560	0.900099
Cl137	Cl	1.653147	-0.497953	0.164650
Cl138	Cl	2.212496	-0.069102	0.459690
H139	H	2.077797	-0.359496	0.179679
H140	H	2.692576	-0.068600	-0.002479
H141	H	1.725532	-0.240493	0.169628
Cl142	Cl	2.242328	-0.516971	0.183292
Cl143	Cl	2.272279	-0.651837	0.182851
H144	H	1.871694	-0.898711	0.167422
Cl145	Cl	1.992214	-0.245913	0.633581
H146	H	2.577783	-0.359497	0.179668
Cl147	Cl	2.684186	-0.067751	-0.125433
Cl148	Cl	2.212491	-0.360867	0.167946
Cl149	Cl	2.343784	-0.080218	0.022681
Cl150	Cl	1.804624	-0.775782	0.166571
Cl151	Cl	2.736174	0.089344	0.166112
H152	H	1.914380	-0.171132	0.359818
Cl153	Cl	1.683083	-0.632821	0.164185
Cl154	Cl	2.431619	-0.434892	0.174192
Cl155	Cl	2.007890	0.044595	0.997153
Cl156	Cl	1.947460	-0.193954	0.485168
Cl157	Cl	1.933249	0.096105	0.713862
Cl158	Cl	1.903328	0.095645	0.578993
Cl159	Cl	1.885821	0.042751	0.447364
Cl160	Cl	1.977957	0.044144	0.862283
Cl161	Cl	2.182521	-0.225975	0.168402
H162	H	2.553707	-0.251089	0.180031
Cl163	Cl	1.855869	0.042293	0.312469
Cl164	Cl	2.590834	-0.082519	0.337976
