data_functionalizedCrystal
_audit_creation_method	'MofGen! by Chris Wilmer'
_symmetry_space_group_name_H-M	'P1'
_symmetry_Int_Tables_number	1
_symmetry_cell_setting	triclinic
loop_
_symmetry_equiv_pos_as_xyz
  x,y,z
_cell_length_a	23.532407
_cell_length_b	23.532407
_cell_length_c	13.930277
_cell_angle_alpha	89.990782
_cell_angle_beta	89.998126
_cell_angle_gamma	82.848678
loop_
_atom_site_label
_atom_site_type_symbol
_atom_site_fract_x
_atom_site_fract_y
_atom_site_fract_z
O1	O	0.755262	0.069134	-0.079721
O2	O	1.088595	0.402468	0.253613
O3	O	1.421928	0.735801	0.586946
O4	O	0.589398	0.079138	-0.079750
O5	O	0.922732	0.412471	0.253583
O6	O	1.256065	0.745804	0.586916
O7	O	0.677332	-0.008796	-0.079717
O8	O	1.010665	0.324538	0.253616
O9	O	1.343998	0.657871	0.586950
O10	O	0.667328	0.157068	-0.079754
O11	O	1.000662	0.490401	0.253579
O12	O	1.333995	0.823734	0.586913
O13	O	0.677320	-0.008798	0.079945
O14	O	1.010653	0.324536	0.413278
O15	O	1.343986	0.657869	0.746611
O16	O	0.589386	0.079136	0.079912
O17	O	0.922720	0.412469	0.413245
O18	O	1.256053	0.745802	0.746578
O19	O	0.755250	0.069133	0.079941
O20	O	1.088583	0.402466	0.413274
O21	O	1.421916	0.735799	0.746608
Zn22	Zn	0.672316	0.074134	0.105276
Zn23	Zn	1.005649	0.407467	0.438609
Zn24	Zn	1.338983	0.740801	0.771943
Zn25	Zn	0.672332	0.074136	-0.105085
Zn26	Zn	1.005665	0.407470	0.228248
Zn27	Zn	1.338999	0.740803	0.561581
O28	O	0.667316	0.157066	0.079908
O29	O	1.000650	0.490399	0.413241
O30	O	1.333983	0.823733	0.746575
C31	C	0.568176	0.078882	0.000077
C32	C	0.901510	0.412215	0.333410
C33	C	1.234843	0.745549	0.666744
C34	C	0.504959	0.078116	0.000067
C35	C	0.838293	0.411449	0.333400
C36	C	1.171626	0.744783	0.666733
C37	C	0.677071	-0.030013	0.000116
C38	C	1.010404	0.303321	0.333450
C39	C	1.343738	0.636654	0.666783
C40	C	0.676305	-0.093230	0.000124
C41	C	1.009638	0.240104	0.333457
C42	C	1.342972	0.573437	0.666790
C43	C	0.723539	-0.492333	0.000079
C44	C	1.056872	-0.158999	0.333413
C45	C	1.390205	0.174334	0.666746
C46	C	0.722827	-0.551733	0.000072
C47	C	1.056160	-0.218400	0.333405
C48	C	1.389494	0.114934	0.666739
O49	O	0.766613	-0.588478	0.000044
O50	O	1.099946	-0.255144	0.333378
O51	O	1.433280	0.078189	0.666711
N52	N	0.670551	-0.574359	0.000063
N53	N	1.003884	-0.241026	0.333397
N54	N	1.337217	0.092307	0.666730
C55	C	0.618983	-0.537582	0.000052
C56	C	0.952316	-0.204248	0.333386
C57	C	1.285649	0.129085	0.666719
O58	O	0.574452	-0.562281	0.000043
O59	O	0.907785	-0.228948	0.333377
O60	O	1.241119	0.104385	0.666710
C61	C	0.619695	-0.478182	0.000053
C62	C	0.953028	-0.144849	0.333386
C63	C	1.286361	0.188484	0.666720
C64	C	0.671974	-0.455560	0.000071
C65	C	1.005308	-0.122227	0.333405
C66	C	1.338641	0.211107	0.666738
C67	C	0.775814	-0.469710	0.000097
C68	C	1.109147	-0.136376	0.333430
C69	C	1.442481	0.196957	0.666763
C70	C	0.776525	-0.410313	0.000106
C71	C	1.109859	-0.076980	0.333439
C72	C	1.443192	0.256353	0.666773
C73	C	0.724961	-0.373540	0.000098
C74	C	1.058294	-0.040207	0.333431
C75	C	1.391628	0.293126	0.666764
C76	C	0.672685	-0.396164	0.000080
C77	C	1.006019	-0.062830	0.333414
C78	C	1.339352	0.270503	0.666747
C79	C	0.568127	-0.441406	0.000035
C80	C	0.901460	-0.108073	0.333368
C81	C	1.234794	0.225261	0.666702
C82	C	0.568844	-0.382004	0.000035
C83	C	0.902177	-0.048670	0.333368
C84	C	1.235510	0.284663	0.666702
C85	C	0.621123	-0.359381	0.000053
C86	C	0.954457	-0.026048	0.333387
C87	C	1.287790	0.307286	0.666720
C88	C	0.621832	-0.299995	0.000082
C89	C	0.955166	0.033339	0.333415
C90	C	1.288499	0.366672	0.666748
N91	N	0.674109	-0.277368	0.000090
N92	N	1.007442	0.055965	0.333424
N93	N	1.340775	0.389298	0.666757
C94	C	0.725673	-0.314141	0.000098
C95	C	1.059006	0.019192	0.333432
C96	C	1.392340	0.352525	0.666765
C97	C	0.617491	-0.662324	0.000050
C98	C	0.950824	-0.328991	0.333383
C99	C	1.284158	0.004343	0.666716
C100	C	0.616778	-0.721722	0.000056
C101	C	0.950112	-0.388389	0.333389
C102	C	1.283445	-0.055055	0.666723
C103	C	0.720623	-0.735869	0.000074
C104	C	1.053957	-0.402536	0.333407
C105	C	1.387290	-0.069203	0.666740
C106	C	0.721335	-0.676470	0.000074
C107	C	1.054669	-0.343137	0.333408
C108	C	1.388002	-0.009804	0.666741
C109	C	0.669767	-0.639698	0.000058
C110	C	1.003101	-0.306365	0.333391
C111	C	1.336434	0.026969	0.666725
C112	C	0.727163	-0.189405	0.000118
C113	C	1.060496	0.143929	0.333452
C114	C	1.393829	0.477262	0.666785
C115	C	0.727869	-0.130003	0.000132
C116	C	1.061203	0.203331	0.333465
C117	C	1.394536	0.536664	0.666798
C118	C	0.624025	-0.115860	0.000109
C119	C	0.957358	0.217473	0.333442
C120	C	1.290692	0.550806	0.666775
C121	C	0.623318	-0.175257	0.000101
C122	C	0.956651	0.158076	0.333434
C123	C	1.289985	0.491409	0.666767
C124	C	0.674891	-0.212029	0.000102
C125	C	1.008225	0.121305	0.333436
C126	C	1.341558	0.454638	0.666769
O127	O	0.578070	-0.263215	0.000105
O128	O	0.911403	0.070118	0.333439
O129	O	1.244736	0.403451	0.666772
O130	O	0.770196	-0.289433	0.000095
O131	O	1.103529	0.043900	0.333428
O132	O	1.436863	0.377233	0.666761
C133	C	0.105856	0.125350	0.000100
C134	C	0.439190	0.458683	0.333433
C135	C	0.772523	0.792016	0.666766
C136	C	0.046456	0.124638	0.000106
C137	C	0.379789	0.457971	0.333439
C138	C	0.713123	0.791305	0.666772
O139	O	0.009711	0.168424	0.000131
O140	O	0.343045	0.501757	0.333464
O141	O	0.676378	0.835091	0.666797
N142	N	0.023830	0.072362	0.000116
N143	N	0.357163	0.405695	0.333449
N144	N	0.690496	0.739028	0.666782
C145	C	0.060607	0.020794	0.000129
C146	C	0.393941	0.354127	0.333463
C147	C	0.727274	0.687460	0.666796
O148	O	0.035908	-0.023737	0.000139
O149	O	0.369241	0.309596	0.333473
O150	O	0.702574	0.642930	0.666806
C151	C	0.120006	0.021506	0.000130
C152	C	0.453340	0.354839	0.333464
C153	C	0.786673	0.688172	0.666797
C154	C	0.142629	0.073785	0.000110
C155	C	0.475962	0.407119	0.333444
C156	C	0.809296	0.740452	0.666777
C157	C	0.128479	0.177625	0.000081
C158	C	0.461813	0.510958	0.333414
C159	C	0.795146	0.844292	0.666748
C160	C	0.187876	0.178336	0.000073
C161	C	0.521209	0.511670	0.333406
C162	C	0.854542	0.845003	0.666740
C163	C	0.224649	0.126772	0.000084
C164	C	0.557982	0.460105	0.333417
C165	C	0.891315	0.793439	0.666751
C166	C	0.202025	0.074496	0.000103
C167	C	0.535359	0.407830	0.333436
C168	C	0.868692	0.741163	0.666769
C169	C	0.156783	-0.030062	0.000151
C170	C	0.490116	0.303271	0.333484
C171	C	0.823450	0.636605	0.666818
C172	C	0.216185	-0.029345	0.000152
C173	C	0.549519	0.303988	0.333486
C174	C	0.882852	0.637321	0.666819
C175	C	0.238808	0.022934	0.000133
C176	C	0.572141	0.356268	0.333466
C177	C	0.905475	0.689601	0.666799
C178	C	0.298194	0.023643	0.000106
C179	C	0.631528	0.356977	0.333439
C180	C	0.964861	0.690310	0.666772
N181	N	0.320820	0.075920	0.000096
N182	N	0.654154	0.409253	0.333429
N183	N	0.987487	0.742586	0.666762
C184	C	0.284048	0.127484	0.000085
C185	C	0.617381	0.460817	0.333418
C186	C	0.950714	0.794151	0.666751
C187	C	-0.064135	0.019302	0.000129
C188	C	0.269198	0.352635	0.333463
C189	C	0.602532	0.685969	0.666796
C190	C	-0.123533	0.018589	0.000122
C191	C	0.209800	0.351923	0.333455
C192	C	0.543134	0.685256	0.666788
C193	C	-0.137680	0.122434	0.000100
C194	C	0.195653	0.455768	0.333433
C195	C	0.528986	0.789101	0.666766
C196	C	-0.078281	0.123146	0.000100
C197	C	0.255052	0.456480	0.333434
C198	C	0.588385	0.789813	0.666767
C199	C	-0.041509	0.071578	0.000119
C200	C	0.291824	0.404912	0.333453
C201	C	0.625158	0.738245	0.666786
C202	C	0.408784	0.128974	0.000068
C203	C	0.742118	0.462307	0.333401
C204	C	1.075451	0.795640	0.666734
C205	C	0.468186	0.129680	0.000056
C206	C	0.801520	0.463014	0.333389
C207	C	1.134853	0.796347	0.666722
C208	C	0.482329	0.025836	0.000083
C209	C	0.815662	0.359169	0.333416
C210	C	1.148995	0.692503	0.666749
C211	C	0.422932	0.025129	0.000090
C212	C	0.756265	0.358462	0.333423
C213	C	1.089598	0.691796	0.666756
C214	C	0.386160	0.076702	0.000085
C215	C	0.719494	0.410036	0.333418
C216	C	1.052827	0.743369	0.666752
O217	O	0.334974	-0.020119	0.000085
O218	O	0.668307	0.313214	0.333418
O219	O	1.001640	0.646547	0.666751
O220	O	0.308755	0.172007	0.000087
O221	O	0.642089	0.505340	0.333421
O222	O	0.975422	0.838674	0.666754
C223	C	0.776472	0.069388	0.000112
C224	C	1.109805	0.402722	0.333445
C225	C	1.443138	0.736055	0.666778
C226	C	0.839689	0.070154	0.000116
C227	C	1.173022	0.403487	0.333449
C228	C	1.506355	0.736821	0.666782
C229	C	0.667577	0.178283	0.000072
C230	C	1.000910	0.511616	0.333406
C231	C	1.334244	0.844949	0.666739
C232	C	0.668343	0.241500	0.000059
C233	C	1.001676	0.574833	0.333392
C234	C	1.335010	0.908167	0.666726
N235	N	0.672309	0.074132	0.248842
N236	N	1.005643	0.407465	0.582175
N237	N	1.338976	0.740799	0.915509
N238	N	0.672343	0.074134	-0.248651
N239	N	1.005677	0.407467	0.084682
N240	N	1.339010	0.740800	0.418015
C241	C	0.633394	0.113058	0.701097
C242	C	0.966727	0.446391	1.034430
C243	C	1.300060	0.779725	1.367763
C244	C	0.711286	0.035210	0.701096
C245	C	1.044619	0.368543	1.034429
C246	C	1.377953	0.701877	1.367762
C247	C	0.711279	0.035208	0.600600
C248	C	1.044613	0.368542	0.933933
C249	C	1.377946	0.701875	1.267267
C250	C	0.672330	0.074133	0.550348
C251	C	1.005663	0.407466	0.883681
C252	C	1.338996	0.740799	1.217015
C253	C	0.633387	0.113059	0.600592
C254	C	0.966720	0.446392	0.933925
C255	C	1.300054	0.779725	1.267258
C256	C	0.750225	-0.003713	0.550349
C257	C	1.083559	0.329620	0.883682
C258	C	1.416892	0.662954	1.217015
C259	C	0.750220	-0.003716	0.449847
C260	C	1.083554	0.329617	0.783180
C261	C	1.416887	0.662951	1.116513
C262	C	0.711268	0.035206	0.399593
C263	C	1.044601	0.368539	0.732926
C264	C	1.377934	0.701873	1.066260
C265	C	0.672323	0.074133	0.449843
C266	C	1.005656	0.407466	0.783176
C267	C	1.338990	0.740800	1.116510
C268	C	0.633373	0.113057	0.399591
C269	C	0.966707	0.446391	0.732924
C270	C	1.300040	0.779724	1.066258
C271	C	0.594425	0.151982	0.449839
C272	C	0.927759	0.485316	0.783172
C273	C	1.261092	0.818649	1.116506
C274	C	0.594434	0.151981	0.550338
C275	C	0.927768	0.485314	0.883671
C276	C	1.261101	0.818647	1.217005
C277	C	0.711259	0.035208	0.299094
C278	C	1.044592	0.368541	0.632427
C279	C	1.377926	0.701874	0.965761
C280	C	0.633367	0.113058	0.299086
C281	C	0.966700	0.446391	0.632419
C282	C	1.300033	0.779725	0.965753
H283	H	0.770443	-0.111587	0.000149
H284	H	1.103777	0.221746	0.333482
H285	H	1.437110	0.555080	0.666816
F286	F	0.791670	-0.045143	0.396376
F287	F	1.125003	0.288190	0.729709
F288	F	1.458337	0.621523	1.063043
F289	F	0.775503	-0.775016	0.000077
F290	F	1.108836	-0.441683	0.333411
F291	F	1.442170	-0.108350	0.666744
H292	H	0.743000	0.003522	0.742014
H293	H	1.076334	0.336855	1.075347
H294	H	1.409667	0.670188	1.408681
F295	F	0.211944	0.233980	0.000057
F296	F	0.545278	0.567313	0.333390
F297	F	0.878611	0.900647	0.666723
H298	H	0.580748	-0.193677	0.000112
H299	H	0.914081	0.139656	0.333446
H300	H	1.247414	0.472989	0.666779
F301	F	0.752711	-0.006213	0.245623
F302	F	1.086044	0.327120	0.578956
F303	F	1.419377	0.660454	0.912289
F304	F	0.791680	-0.045134	0.603830
F305	F	1.125013	0.288199	0.937163
F306	F	1.458346	0.621533	1.270496
F307	F	0.569149	-0.076714	0.000100
F308	F	0.902483	0.256619	0.333434
F309	F	1.235816	0.589953	0.666767
F310	F	0.552977	0.193410	0.396347
F311	F	0.886310	0.526744	0.729680
F312	F	1.219644	0.860077	1.063013
F313	F	0.782053	-0.228531	0.000120
F314	F	1.115386	0.104802	0.333453
F315	F	1.448720	0.438135	0.666786
H316	H	-0.167632	0.164421	0.000095
H317	H	0.165701	0.497754	0.333429
H318	H	0.499035	0.831087	0.666762
F319	F	0.832169	-0.386245	0.000105
F320	F	1.165502	-0.052911	0.333438
F321	F	1.498835	0.280422	0.666771
F322	F	0.591907	0.154485	0.245612
F323	F	0.925241	0.487818	0.578945
F324	F	1.258574	0.821151	0.912278
H325	H	0.098544	0.219617	0.000075
H326	H	0.431877	0.552951	0.333409
H327	H	0.765211	0.886284	0.666742
H328	H	0.817806	-0.499645	0.000100
H329	H	1.151140	-0.166312	0.333433
H330	H	1.484473	0.167022	0.666766
F331	F	0.561135	-0.745792	0.000054
F332	F	0.894469	-0.412459	0.333387
F333	F	1.227802	-0.079125	0.666720
H334	H	0.138375	-0.072634	0.000168
H335	H	0.471708	0.260700	0.333501
H336	H	0.805041	0.594033	0.666835
F337	F	-0.054210	0.178789	0.000081
F338	F	0.279123	0.512122	0.333415
F339	F	0.612456	0.845455	0.666748
H340	H	0.486602	0.172255	0.000039
H341	H	0.819935	0.505588	0.333372
H342	H	1.153269	0.838921	0.666706
F343	F	0.521475	-0.029040	0.000096
F344	F	0.854808	0.304294	0.333429
F345	F	1.188142	0.637627	0.666763
F346	F	-0.147603	-0.037054	0.000121
F347	F	0.185730	0.296280	0.333454
F348	F	0.519064	0.629613	0.666788
F349	F	0.369658	0.183864	0.000064
F350	F	0.702991	0.517198	0.333397
F351	F	1.036324	0.850531	0.666730
H352	H	0.575496	-0.632386	0.000045
H353	H	0.908829	-0.299053	0.333378
H354	H	1.242162	0.034280	0.666711
F355	F	0.776978	-0.652399	0.000094
F356	F	1.110311	-0.319066	0.333427
F357	F	1.443644	0.014267	0.666760
H358	H	-0.034198	-0.022693	0.000136
H359	H	0.299136	0.310640	0.333469
H360	H	0.632469	0.643973	0.666803
F361	F	0.512483	-0.465469	0.000011
F362	F	0.845816	-0.132136	0.333345
F363	F	1.179150	0.201197	0.666678
H364	H	0.601681	0.144749	0.742011
H365	H	0.935015	0.478082	1.075345
H366	H	1.268348	0.811415	1.408678
H367	H	0.246123	-0.071339	0.000169
H368	H	0.579457	0.261994	0.333502
H369	H	0.912790	0.595327	0.666835
F370	F	0.552987	0.193405	0.603819
F371	F	0.886321	0.526738	0.937152
F372	F	1.219654	0.860072	1.270486
H373	H	0.404512	-0.017441	0.000092
H374	H	0.737845	0.315892	0.333425
H375	H	1.071178	0.649225	0.666758
H376	H	0.526850	-0.352066	0.000020
H377	H	0.860183	-0.018732	0.333354
H378	H	1.193516	0.314601	0.666687
