data_functionalizedCrystal
_audit_creation_method	'MofGen! by Chris Wilmer'
_symmetry_space_group_name_H-M	'P1'
_symmetry_Int_Tables_number	1
_symmetry_cell_setting	triclinic
loop_
_symmetry_equiv_pos_as_xyz
  x,y,z
_cell_length_a	19.805407
_cell_length_b	14.908520
_cell_length_c	19.805399
_cell_angle_alpha	86.729391
_cell_angle_beta	90.019573
_cell_angle_gamma	93.320773
loop_
_atom_site_label
_atom_site_type_symbol
_atom_site_fract_x
_atom_site_fract_y
_atom_site_fract_z
Zn1	Zn	1.019204	-0.359181	0.398269
Zn2	Zn	1.012594	-0.510047	0.291612
Zn3	Zn	0.906017	-0.359206	0.285095
Zn4	Zn	0.899460	-0.509999	0.404757
O5	O	0.959319	-0.434608	0.344934
O6	O	1.113043	-0.379203	0.384134
O7	O	0.998435	-0.490068	0.196033
O8	O	0.926542	-0.232958	0.294665
O9	O	1.108187	-0.490044	0.305773
O10	O	1.009699	-0.232939	0.377814
O11	O	0.920133	-0.379246	0.191244
O12	O	0.810431	-0.379199	0.300956
O13	O	0.915366	-0.489962	0.498612
O14	O	0.805614	-0.489986	0.388871
O15	O	1.003341	-0.379157	0.493845
O16	O	0.992077	-0.636286	0.312064
O17	O	0.908957	-0.636250	0.395191
C18	C	0.783463	-0.434591	0.344911
C19	C	0.708231	-0.434605	0.344918
C20	C	0.670392	-0.492379	0.390629
C21	C	0.599704	-0.492380	0.390639
C22	C	0.566855	-0.434612	0.344934
C23	C	0.604699	-0.376832	0.299220
C24	C	0.675386	-0.376827	0.299214
C25	C	0.319625	-0.376852	0.299244
C26	C	0.248932	-0.376864	0.299252
C27	C	0.243942	-0.492406	0.390668
C28	C	0.314629	-0.492400	0.390662
C29	C	0.352467	-0.434618	0.344952
C30	C	0.429116	-0.434615	0.344943
C31	C	0.490208	-0.434618	0.344939
C32	C	0.949107	-0.669002	0.355053
C33	C	0.944800	-0.769277	0.359405
C34	C	1.023348	-0.957679	0.281093
C35	C	1.019304	-1.051896	0.285180
C36	C	0.932671	-1.051929	0.371669
C37	C	0.936715	-0.957712	0.367582
C38	C	0.982055	-0.910590	0.322292
C39	C	0.986095	-0.816372	0.318202
C40	C	0.899466	-0.816407	0.404694
C41	C	0.895421	-0.910624	0.408781
C42	C	1.135861	-0.434626	0.344957
C43	C	1.211092	-0.434634	0.344967
C44	C	0.959359	-0.434551	0.521474
C45	C	0.959376	-0.434527	0.596705
C46	C	0.969589	-0.199299	0.334789
C47	C	0.973966	-0.099024	0.330466
C48	C	0.959320	-0.434600	0.169077
C49	C	0.959445	-0.434370	0.093836
C50	C	1.005186	-0.376828	0.629568
C51	C	1.005194	-0.376802	0.700255
C52	C	0.959395	-0.434480	0.738078
C53	C	0.913581	-0.492182	0.705210
C54	C	0.913570	-0.492203	0.634524
C55	C	0.913622	-0.492098	0.990280
C56	C	0.913638	-0.492074	1.060971
C57	C	1.005247	-0.376697	1.056011
C58	C	1.005236	-0.376718	0.985325
C59	C	0.959419	-0.434416	0.952463
C60	C	0.959410	-0.434442	0.875816
C61	C	0.959407	-0.434459	0.814725
H62	H	0.341371	-0.539444	0.427878
O63	O	1.049740	-0.320926	0.592804
C64	C	1.091199	-0.372298	0.554123
H65	H	1.092287	-0.443346	0.578487
H66	H	1.144711	-0.339669	0.551925
H67	H	1.070127	-0.375420	0.500682
H68	H	0.876260	-0.539178	0.607768
O69	O	0.563027	-0.548468	0.435130
C70	C	0.581171	-0.528870	0.501769
H71	H	0.634003	-0.494181	0.501715
H72	H	0.580772	-0.594040	0.534842
H73	H	0.543412	-0.482543	0.522636
O74	O	1.049690	-0.320761	0.948483
C75	C	1.039840	-0.333129	0.879046
H76	H	1.014647	-0.402759	0.872385
H77	H	1.090798	-0.326998	0.851920
H78	H	1.006113	-0.279631	0.856683
O79	O	0.869170	-0.548228	1.097643
C80	C	0.880039	-0.638153	1.084261
H81	H	0.905965	-0.640044	1.033022
H82	H	0.829421	-0.678595	1.083579
H83	H	0.913517	-0.668535	1.125359
O84	O	0.572900	-0.320631	0.254796
C85	C	0.621458	-0.269653	0.214438
H86	H	0.671991	-0.266571	0.242030
H87	H	0.604125	-0.198562	0.204236
H88	H	0.627521	-0.302600	0.164414
H89	H	1.042499	-0.329820	0.727009
O90	O	1.049684	-0.320668	1.088040
C91	C	1.039886	-0.333025	1.158541
H92	H	0.986363	-0.362560	1.169460
H93	H	1.047432	-0.265439	1.182490
H94	H	1.077939	-0.381065	1.180681
H95	H	0.213126	-0.539452	0.427890
O96	O	0.217130	-0.320655	0.254829
C97	C	0.265683	-0.269667	0.214471
H98	H	0.316218	-0.266585	0.242060
H99	H	0.248347	-0.198577	0.204277
H100	H	0.271745	-0.302605	0.164444
H101	H	0.876325	-0.539092	0.963533
O102	O	1.059507	-1.097662	0.245268
C103	C	1.100850	-1.152075	0.286225
H104	H	1.106183	-1.123636	0.338307
H105	H	1.152924	-1.153072	0.261864
H106	H	1.076875	-1.223514	0.291622
O107	O	0.869155	-0.548180	0.742053
C108	C	0.878975	-0.535776	0.811489
H109	H	0.932502	-0.506235	0.819881
H110	H	0.871437	-0.603343	0.841265
H111	H	0.840929	-0.487722	0.829470
O112	O	1.030098	-0.770694	0.274120
C113	C	1.014351	-0.793772	0.207646
H114	H	0.985395	-0.862212	0.209186
H115	H	1.063084	-0.796962	0.177485
H116	H	0.981841	-0.740805	0.182514
H117	H	0.706194	-0.329777	0.261995
H118	H	0.895762	-1.090312	0.408547
H119	H	0.697132	-0.539423	0.427846
H120	H	1.060261	-0.919312	0.244211
O121	O	0.356440	-0.320854	0.254809
C122	C	0.395065	-0.372132	0.213226
H123	H	0.402695	-0.440539	0.239966
H124	H	0.446365	-0.335357	0.202603
H125	H	0.367369	-0.381965	0.163484
O126	O	0.851470	-0.956502	0.452810
C127	C	0.887640	-1.010902	0.498938
H128	H	0.938348	-1.024974	0.475732
H129	H	0.857220	-1.077182	0.510854
H130	H	0.896600	-0.974543	0.547528
H131	H	0.865840	-0.778057	0.438239
