data_functionalizedCrystal
_audit_creation_method	'MofGen! by Chris Wilmer'
_symmetry_space_group_name_H-M	'P1'
_symmetry_Int_Tables_number	1
_symmetry_cell_setting	triclinic
loop_
_symmetry_equiv_pos_as_xyz
  x,y,z
_cell_length_a	15.995350
_cell_length_b	14.971486
_cell_length_c	14.048226
_cell_angle_alpha	89.993360
_cell_angle_beta	89.997187
_cell_angle_gamma	83.553252
loop_
_atom_site_label
_atom_site_type_symbol
_atom_site_fract_x
_atom_site_fract_y
_atom_site_fract_z
O1	O	1.111103	0.115295	-0.079080
O2	O	1.611103	0.615295	0.420920
O3	O	0.867342	0.129533	-0.079100
O4	O	1.367342	0.629533	0.420900
O5	O	0.995756	-0.007793	-0.079083
O6	O	1.495756	0.492207	0.420917
O7	O	0.982689	0.252622	-0.079098
O8	O	1.482689	0.752622	0.420902
O9	O	0.995741	-0.007802	0.079238
O10	O	1.495741	0.492198	0.579238
O11	O	0.867327	0.129525	0.079221
O12	O	1.367327	0.629525	0.579221
O13	O	1.111088	0.115287	0.079241
O14	O	1.611088	0.615287	0.579241
Zn15	Zn	0.989205	0.122405	0.104368
Zn16	Zn	1.489205	0.622405	0.604368
Zn17	Zn	0.989225	0.122415	-0.104227
Zn18	Zn	1.489225	0.622415	0.395773
O19	O	0.982674	0.252614	0.079224
O20	O	1.482674	0.752614	0.579224
C21	C	0.995164	-0.041122	0.000077
C22	C	1.495164	0.458878	0.500077
C23	C	0.993413	-0.140417	0.000076
C24	C	1.493413	0.359583	0.500076
C25	C	0.836139	0.128940	0.000058
C26	C	1.336139	0.628940	0.500058
C27	C	0.743187	0.127175	0.000051
C28	C	1.243187	0.627175	0.500051
C29	C	1.068852	-0.197728	0.000083
C30	C	1.568852	0.302272	0.500083
C31	C	1.067202	-0.291026	0.000073
C32	C	1.567202	0.208974	0.500073
C33	C	0.990111	-0.327010	0.000064
C34	C	1.490111	0.172990	0.500064
C35	C	0.914666	-0.269691	0.000054
C36	C	1.414666	0.230309	0.500054
C37	C	0.916317	-0.176395	0.000057
C38	C	1.416317	0.323605	0.500057
C39	C	0.911229	-0.464150	0.000050
C40	C	1.411229	0.035850	0.500050
C41	C	0.909577	-0.557452	0.000049
C42	C	1.409577	-0.057452	0.500049
C43	C	1.062114	-0.578780	0.000067
C44	C	1.562114	-0.078780	0.500067
C45	C	1.063766	-0.485484	0.000070
C46	C	1.563766	0.014516	0.500070
C47	C	0.988320	-0.428172	0.000062
C48	C	1.488320	0.071828	0.500062
C49	C	0.405433	0.120838	0.000071
C50	C	0.905433	0.620838	0.500071
C51	C	0.452769	0.023037	0.000430
C52	C	0.952769	0.523037	0.500430
C53	C	0.549461	0.024802	0.000066
C54	C	1.049461	0.524802	0.500066
C55	C	0.572997	0.123982	0.000062
C56	C	1.072997	0.623982	0.500062
C57	C	0.531967	0.172225	-0.090347
C58	C	1.031967	0.672225	0.409653
C59	C	0.435329	0.169768	-0.090416
C60	C	0.935329	0.669768	0.409584
C61	C	0.434974	0.171780	0.089625
C62	C	0.934974	0.671780	0.589625
C63	C	0.531919	0.171757	0.090814
C64	C	1.031919	0.671757	0.590814
C65	C	0.667696	0.125763	0.000053
C66	C	1.167696	0.625763	0.500053
C67	C	0.310733	0.119060	0.000073
C68	C	0.810733	0.619060	0.500073
C69	C	1.142291	0.115880	0.000081
C70	C	1.642291	0.615880	0.500081
C71	C	1.235243	0.117645	0.000082
C72	C	1.735243	0.617645	0.500082
C73	C	0.983266	0.285942	0.000061
C74	C	1.483266	0.785942	0.500061
C75	C	0.985017	0.385237	0.000056
C76	C	1.485017	0.885237	0.500056
N77	N	0.989197	0.122397	0.246729
N78	N	1.489197	0.622397	0.746729
N79	N	0.989239	0.122416	-0.246588
N80	N	1.489239	0.622416	0.253412
C81	C	1.046076	0.061614	0.296554
C82	C	1.546076	0.561614	0.796554
C83	C	1.046082	0.061613	0.396212
C84	C	1.546082	0.561613	0.896212
C85	C	0.989212	0.122401	0.446042
C86	C	1.489212	0.622401	0.946042
C87	C	0.932326	0.183187	0.396210
C88	C	1.432326	0.683187	0.896210
C89	C	0.932317	0.183182	0.296554
C90	C	1.432317	0.683182	0.796554
C91	C	0.932350	0.183193	0.603924
C92	C	1.432350	0.683193	1.103924
C93	C	0.932360	0.183199	0.703587
C94	C	1.432360	0.683199	1.203587
C95	C	1.046115	0.061624	0.703582
C96	C	1.546115	0.561624	1.203582
C97	C	1.046106	0.061620	0.603926
C98	C	1.546106	0.561620	1.103926
C99	C	0.989221	0.122407	0.554100
C100	C	1.489221	0.622407	1.054100
H101	H	1.131629	-0.168438	0.000097
H102	H	1.631629	0.331562	0.500097
C103	C	1.108634	-0.005274	0.451016
C104	C	1.608634	0.494726	0.951016
N105	N	1.155743	-0.055665	0.492293
N106	N	1.655743	0.444335	0.992293
H107	H	1.128633	-0.337686	0.000081
H108	H	1.628633	0.162314	0.500081
C109	C	1.148569	-0.445904	0.000085
C110	C	1.648569	0.054096	0.500085
N111	N	1.212445	-0.416092	0.000094
N112	N	1.712445	0.083908	0.500094
H113	H	0.886017	0.232678	0.436787
H114	H	1.386017	0.732678	0.936787
C115	C	0.391858	0.266770	-0.095983
C116	C	0.891858	0.766770	0.404017
N117	N	0.359120	0.339830	-0.100187
N118	N	0.859120	0.839830	0.399813
H119	H	1.123545	-0.625449	0.000070
H120	H	1.623545	-0.125449	0.500070
C121	C	0.587811	-0.026436	0.087615
C122	C	1.087811	0.473564	0.587615
N123	N	0.616692	-0.065036	0.153557
N124	N	1.116692	0.434964	0.653557
C125	C	0.824773	-0.597032	0.000027
C126	C	1.324773	-0.097032	0.500027
N127	N	0.760898	-0.626844	0.000006
N128	N	1.260898	-0.126844	0.500006
H129	H	0.885999	0.232677	0.255987
H130	H	1.385999	0.732677	0.755987
C131	C	0.407188	0.128574	0.182203
C132	C	0.907188	0.628574	0.682203
N133	N	0.386262	0.096021	0.251928
N134	N	0.886262	0.596021	0.751928
H135	H	0.886026	0.232690	0.563359
H136	H	1.386026	0.732690	1.063359
C137	C	0.828234	-0.401108	0.000047
C138	C	1.328234	0.098892	0.500047
N139	N	0.765723	-0.353624	0.000051
N140	N	1.265723	0.146376	0.500051
H141	H	1.092418	0.012127	0.563355
H142	H	1.592418	0.512127	1.063355
H143	H	0.851897	-0.298997	0.000040
H144	H	1.351897	0.201003	0.500040
C145	C	0.833327	-0.113352	0.000052
C146	C	1.333327	0.386648	0.500052
N147	N	0.770817	-0.065869	0.000046
N148	N	1.270817	0.434131	0.500046
C149	C	0.587056	-0.026762	-0.087638
C150	C	1.087056	0.473238	0.412362
N151	N	0.615372	-0.065601	-0.153701
N152	N	1.115372	0.434399	0.346299
H153	H	0.433143	-0.015873	-0.064044
H154	H	0.933143	0.484127	0.435956
C155	C	0.427676	-0.029783	0.088017
C156	C	0.927676	0.470217	0.588017
N157	N	0.408769	-0.069568	0.153990
N158	N	0.908769	0.430432	0.653990
H159	H	0.416991	0.134594	-0.157995
H160	H	0.916991	0.634594	0.342005
H161	H	1.092432	0.012129	0.744156
H162	H	1.592432	0.512129	1.244156
C163	C	0.551151	0.270661	-0.094899
C164	C	1.051151	0.770661	0.405101
N165	N	0.565604	0.344803	-0.098328
N166	N	1.065604	0.844803	0.401672
C167	C	0.570255	0.126963	-0.181241
C168	C	1.070255	0.626963	0.318759
N169	N	0.599093	0.092865	-0.249701
N170	N	1.099093	0.592865	0.250299
H171	H	0.559194	0.136539	0.157697
H172	H	1.059194	0.636539	0.657697
H173	H	0.547356	0.244081	0.096271
H174	H	1.047356	0.744081	0.596271
H175	H	0.403285	0.243888	0.090233
H176	H	0.903285	0.743888	0.590233
C177	C	1.108639	-0.005259	0.241750
C178	C	1.608639	0.494741	0.741750
N179	N	1.155761	-0.055632	0.200475
N180	N	1.655761	0.444368	0.700475
H181	H	0.886049	0.232698	0.744153
H182	H	1.386049	0.732698	1.244153
