data_functionalizedCrystal
_audit_creation_method	'MofGen! by Chris Wilmer'
_symmetry_space_group_name_H-M	'P1'
_symmetry_Int_Tables_number	1
_symmetry_cell_setting	triclinic
loop_
_symmetry_equiv_pos_as_xyz
  x,y,z
_cell_length_a	14.044220
_cell_length_b	16.992694
_cell_length_c	15.455313
_cell_angle_alpha	87.142206
_cell_angle_beta	87.091725
_cell_angle_gamma	88.071450
loop_
_atom_site_label
_atom_site_type_symbol
_atom_site_fract_x
_atom_site_fract_y
_atom_site_fract_z
O1	O	0.198159	-1.057683	0.072025
O2	O	0.698159	-0.557683	0.572025
O3	O	0.195941	-0.829244	0.072050
O4	O	0.695941	-0.329244	0.572050
O5	O	0.058806	-0.940034	0.072029
O6	O	0.558806	-0.440034	0.572029
O7	O	0.335294	-0.946893	0.072046
O8	O	0.835294	-0.446893	0.572046
O9	O	0.066614	-0.933696	-0.072232
O10	O	0.566614	-0.433696	0.427768
O11	O	0.203749	-0.822906	-0.072211
O12	O	0.703749	-0.322906	0.427789
O13	O	0.205967	-1.051345	-0.072236
O14	O	0.705967	-0.551345	0.427764
Cu15	Cu	0.205571	-0.936547	-0.085396
Cu16	Cu	0.705571	-0.436547	0.414604
Cu17	Cu	0.196337	-0.944042	0.085210
Cu18	Cu	0.696337	-0.444042	0.585210
O19	O	0.343102	-0.940555	-0.072215
O20	O	0.843102	-0.440555	0.427785
C21	C	0.027168	-0.933863	-0.000101
C22	C	0.527168	-0.433863	0.499899
C23	C	-0.078736	-0.924909	-0.000101
C24	C	0.421264	-0.424909	0.499899
C25	C	0.196993	-0.796663	-0.000077
C26	C	0.696993	-0.296663	0.499923
C27	C	0.188484	-0.709024	-0.000068
C28	C	0.688484	-0.209024	0.499932
C29	C	0.204915	-1.083926	-0.000107
C30	C	0.704915	-0.583926	0.499893
C31	C	0.213424	-1.171565	-0.000111
C32	C	0.713424	-0.671565	0.499889
C33	C	-0.272638	-0.908540	-0.000087
C34	C	0.227362	-0.408540	0.499913
C35	C	-0.325460	-0.972046	-0.000092
C36	C	0.174540	-0.472046	0.499908
C37	C	-0.433354	-0.962938	-0.000084
C38	C	0.066646	-0.462938	0.499916
C39	C	-0.164734	-0.917647	-0.000095
C40	C	0.335266	-0.417647	0.499905
C41	C	0.374740	-0.946726	-0.000083
C42	C	0.874740	-0.446726	0.499917
C43	C	0.480644	-0.955680	-0.000077
C44	C	0.980644	-0.455680	0.499923
N45	N	0.212065	-0.931281	-0.205390
N46	N	0.712065	-0.431281	0.294610
C47	C	0.270581	-0.664526	-0.000063
C48	C	0.770581	-0.164526	0.499937
C49	C	0.262581	-0.582179	-0.000076
C50	C	0.762581	-0.082179	0.499924
C51	C	0.172483	-0.544332	-0.000086
C52	C	0.672483	-0.044332	0.499914
C53	C	0.090381	-0.588836	-0.000093
C54	C	0.590381	-0.088836	0.499907
C55	C	0.098382	-0.671181	-0.000087
C56	C	0.598382	-0.171181	0.499913
C57	C	0.139322	-0.298414	-0.000112
C58	C	0.639322	0.201586	0.499888
C59	C	0.131327	-0.216063	-0.000115
C60	C	0.631327	0.283937	0.499885
C61	C	0.303528	-0.209411	-0.000100
C62	C	0.803528	0.290589	0.499900
C63	C	0.311521	-0.291759	-0.000088
C64	C	0.811521	0.208241	0.499912
C65	C	0.229419	-0.336255	-0.000099
C66	C	0.729419	0.163745	0.499901
N67	N	0.164304	-0.460161	-0.000096
N68	N	0.664304	0.039839	0.499904
N69	N	0.237599	-0.420425	-0.000096
N70	N	0.737599	0.079575	0.499904
C71	C	0.153829	-0.978368	-0.250793
C72	C	0.653829	-0.478368	0.249207
C73	C	0.158750	-0.974393	-0.341600
C74	C	0.658750	-0.474393	0.158400
C75	C	0.221911	-0.923335	-0.387003
C76	C	0.721911	-0.423335	0.112997
C77	C	0.280149	-0.876243	-0.341594
C78	C	0.780149	-0.376243	0.158406
C79	C	0.275223	-0.880214	-0.250788
C80	C	0.775223	-0.380214	0.249212
C81	C	0.243148	-0.906193	-0.658581
C82	C	0.743148	-0.406193	-0.158581
C83	C	0.248072	-0.902227	-0.749393
C84	C	0.748072	-0.402227	-0.249393
C85	C	0.126671	-1.000377	-0.749394
C86	C	0.626671	-0.500377	-0.249394
C87	C	0.121754	-1.004347	-0.658586
C88	C	0.621754	-0.504347	-0.158586
C89	C	0.179989	-0.957251	-0.613185
C90	C	0.679989	-0.457251	-0.113185
N91	N	0.226945	-0.919273	-0.479822
N92	N	0.726945	-0.419273	0.020178
N93	N	0.174950	-0.961310	-0.520367
N94	N	0.674950	-0.461310	-0.020367
N95	N	0.189836	-0.949314	0.205204
N96	N	0.689836	-0.449314	0.705204
H97	H	-0.289655	-1.033258	-0.000040
H98	H	0.210345	-0.533258	0.499960
H99	H	-0.308444	-0.847335	-0.000078
H100	H	0.191556	-0.347335	0.499922
H101	H	0.111329	-1.012735	-0.378567
H102	H	0.611329	-0.512735	0.121433
Cl103	Cl	0.383852	-0.712096	-0.000045
Cl104	Cl	0.883852	-0.212096	0.499955
H105	H	0.384887	-0.322568	-0.000070
H106	H	0.884887	0.177432	0.499930
Cl107	Cl	0.365793	-0.526242	-0.000065
Cl108	Cl	0.865793	-0.026242	0.499935
H109	H	0.031530	-0.707411	-0.000090
H110	H	0.531530	-0.207411	0.499910
H111	H	0.070323	-1.045922	-0.621622
H112	H	0.570323	-0.545922	-0.121622
H113	H	0.331573	-0.834666	-0.378565
H114	H	0.831573	-0.334666	0.121435
H115	H	0.057956	-0.185251	-0.000123
H116	H	0.557956	0.314749	0.499877
Cl117	Cl	0.406736	-0.153468	-0.000089
Cl118	Cl	0.906736	0.346532	0.499911
Cl119	Cl	0.036107	-0.354342	-0.000125
Cl120	Cl	0.536107	0.145658	0.499875
Cl121	Cl	0.074427	-1.042563	-0.193726
Cl122	Cl	0.574427	-0.542563	0.306274
Cl123	Cl	-0.022885	-0.541257	-0.000112
Cl124	Cl	0.477115	-0.041257	0.499888
H125	H	0.079258	-1.038719	-0.786368
H126	H	0.579258	-0.538719	-0.286368
H127	H	0.299509	-0.860647	-0.786355
H128	H	0.799509	-0.360647	-0.286355
H129	H	0.290567	-0.867847	-0.621622
H130	H	0.790567	-0.367847	-0.121622
H131	H	0.322643	-0.841869	-0.213822
H132	H	0.822643	-0.341869	0.286178
