data_functionalizedCrystal
_audit_creation_method	'MofGen! by Chris Wilmer'
_symmetry_space_group_name_H-M	'P1'
_symmetry_Int_Tables_number	1
_symmetry_cell_setting	triclinic
loop_
_symmetry_equiv_pos_as_xyz
  x,y,z
_cell_length_a	16.109301
_cell_length_b	15.072220
_cell_length_c	16.109301
_cell_angle_alpha	90.002555
_cell_angle_beta	83.461481
_cell_angle_gamma	90.009777
loop_
_atom_site_label
_atom_site_type_symbol
_atom_site_fract_x
_atom_site_fract_y
_atom_site_fract_z
O1	O	1.103142	0.073729	0.106862
O2	O	0.861080	0.073744	0.120161
O3	O	0.988761	0.073727	-0.007520
O4	O	0.975461	0.073746	0.234542
O5	O	0.988729	-0.073838	-0.007513
O6	O	0.861049	-0.073821	0.120168
O7	O	1.103111	-0.073836	0.106869
Zn8	Zn	0.982075	-0.097258	0.113520
Zn9	Zn	0.982116	0.097166	0.113510
O10	O	0.975430	-0.073819	0.234549
C11	C	0.830090	-0.000037	0.119626
C12	C	0.737794	-0.000032	0.118011
N13	N	0.982052	-0.229947	0.113525
C14	C	0.515522	-0.000037	0.190018
C15	C	0.428801	-0.000042	0.188494
C16	C	0.448676	-0.000051	0.037006
C17	C	0.535394	-0.000051	0.038530
C18	C	0.568815	-0.000040	0.115039
C19	C	0.395376	-0.000045	0.111990
C20	C	0.301350	-0.000051	0.110337
C21	C	0.662847	-0.000035	0.116693
C22	C	0.982114	-0.589148	0.113507
C23	C	0.913566	-0.551532	0.181597
C24	C	0.913723	-0.448706	0.181846
C25	C	0.982083	-0.410944	0.113516
C26	C	1.068827	-0.448239	0.132440
C27	C	1.068443	-0.551097	0.132924
C28	C	0.964692	-0.551254	0.026291
C29	C	0.962702	-0.448390	0.026873
C30	C	0.982071	-0.310231	0.113520
C31	C	0.982133	-0.689861	0.113505
C32	C	1.134101	-0.000053	0.107404
C33	C	1.226397	-0.000052	0.109019
C34	C	0.988206	-0.000056	-0.038491
C35	C	0.986591	-0.000057	-0.130786
N36	N	0.982145	0.229854	0.113498
C37	C	1.058599	-0.000047	-0.353059
C38	C	1.057075	-0.000040	-0.439779
C39	C	0.905586	-0.000034	-0.419905
C40	C	0.907111	-0.000035	-0.333186
C41	C	0.983620	-0.000046	-0.299766
C42	C	0.980571	-0.000038	-0.473205
C43	C	0.978918	-0.000030	-0.567231
C44	C	0.985273	-0.000053	-0.205734
C45	C	0.975984	-0.000034	0.265521
C46	C	0.977600	-0.000027	0.357816
H47	H	0.385413	-0.000042	0.249550
O48	O	0.587051	-0.000013	-0.034386
C49	C	0.597620	-0.000076	-0.184803
C50	C	0.539025	-0.000093	-0.102294
H51	H	0.558814	-0.000159	-0.239728
H52	H	0.638713	0.061693	-0.187934
H53	H	0.638721	-0.061819	-0.187825
H54	H	0.497871	0.061608	-0.099216
H55	H	0.497989	-0.061903	-0.099198
H56	H	0.848878	-0.576291	0.170512
H57	H	1.121044	-0.575978	0.085284
O58	O	1.131150	-0.419203	0.074792
C59	C	1.241846	-0.459546	-0.031912
C60	C	1.171283	-0.492550	0.033329
H61	H	1.274324	-0.518829	-0.065440
H62	H	1.214445	-0.415275	-0.079299
H63	H	1.289048	-0.420090	0.000751
H64	H	1.124056	-0.532042	0.000738
H65	H	1.198744	-0.536774	0.080711
H66	H	1.120897	-0.000054	-0.325851
O67	O	1.087631	-0.417652	0.207495
C68	C	1.118259	-0.455158	0.346193
C69	C	1.096994	-0.489913	0.261226
H70	H	1.125818	-0.513562	0.389664
H71	H	1.179013	-0.415745	0.336827
H72	H	1.065624	-0.410421	0.375011
H73	H	1.149576	-0.534685	0.232362
H74	H	1.036214	-0.529276	0.270646
H75	H	0.542730	-0.000034	0.252317
O76	O	0.890819	-0.582074	0.004544
C77	C	0.753407	-0.545083	-0.030189
C78	C	0.837038	-0.510058	-0.005597
H79	H	0.709895	-0.486878	-0.038379
H80	H	0.765032	-0.583495	-0.091374
H81	H	0.723360	-0.590822	0.021043
H82	H	0.867129	-0.464285	-0.056773
H83	H	0.825359	-0.471698	0.055611
H84	H	1.118130	-0.000039	-0.483168
O85	O	0.831342	-0.000071	-0.452510
C86	C	0.761853	-0.000022	-0.577296
C87	C	0.845994	0.000004	-0.540485
H88	H	0.773671	0.000058	-0.648428
H89	H	0.724779	-0.061791	-0.555406
H90	H	0.724813	0.061720	-0.555295
H91	H	0.883103	-0.061696	-0.562469
H92	H	0.883005	0.061814	-0.562371
H93	H	0.421454	-0.000065	-0.025285
O94	O	0.836741	-0.418769	0.168438
C95	C	0.696533	-0.457553	0.143700
C96	C	0.783676	-0.491571	0.158890
H97	H	0.653611	-0.516396	0.135959
H98	H	0.669442	-0.415710	0.199234
H99	H	0.702054	-0.415359	0.084596
H100	H	0.778227	-0.533802	0.217966
H101	H	0.810736	-0.533367	0.103311
H102	H	0.846050	-0.000032	-0.289792
H103	H	0.898892	-0.424016	0.012511
O104	O	1.086905	-0.579749	0.208740
C105	C	1.180823	-0.664269	0.284139
C106	C	1.160019	-0.631874	0.198226
H107	H	1.239926	-0.706434	0.275667
H108	H	1.191185	-0.604662	0.325296
H109	H	1.126714	-0.705746	0.315058
H110	H	1.214100	-0.590414	0.167235
H111	H	1.149626	-0.691520	0.157129
H112	H	0.924535	-0.577366	0.245955
H113	H	0.924846	-0.424088	0.246568
O114	O	1.018383	-0.417584	-0.036350
C115	C	1.077412	-0.289429	-0.110602
C116	C	1.014322	-0.324194	-0.038967
H117	H	1.074137	-0.213921	-0.112753
H118	H	1.143187	-0.310760	-0.099677
H119	H	1.061574	-0.317884	-0.172454
H120	H	1.030082	-0.295755	0.022916
H121	H	0.948564	-0.302873	-0.049965
H122	H	1.014682	-0.575579	-0.024380
