data_functionalizedCrystal
_audit_creation_method	'MofGen! by Chris Wilmer'
_symmetry_space_group_name_H-M	'P1'
_symmetry_Int_Tables_number	1
_symmetry_cell_setting	triclinic
loop_
_symmetry_equiv_pos_as_xyz
  x,y,z
_cell_length_a	13.339070
_cell_length_b	14.044220
_cell_length_c	11.804365
_cell_angle_alpha	102.927057
_cell_angle_beta	74.875130
_cell_angle_gamma	104.409086
loop_
_atom_site_label
_atom_site_type_symbol
_atom_site_fract_x
_atom_site_fract_y
_atom_site_fract_z
O1	O	1.405383	0.472644	-0.099085
O2	O	1.105089	0.408756	-0.099076
O3	O	1.250726	0.301532	-0.099069
O4	O	1.259745	0.579868	-0.099093
O5	O	1.212382	0.329720	0.098985
O6	O	1.066744	0.436945	0.098978
O7	O	1.367038	0.500832	0.098969
Cu8	Cu	1.213390	0.471462	0.117057
Cu9	Cu	1.258737	0.438126	-0.117165
O10	O	1.221401	0.608057	0.098961
C11	C	1.047253	0.412058	-0.000048
C12	C	0.932048	0.379890	-0.000044
C13	C	0.589834	0.630011	-0.000084
C14	C	0.698075	0.660237	-0.000092
C15	C	0.756574	0.590153	-0.000079
C16	C	0.706820	0.489838	-0.000060
C17	C	0.598569	0.459607	-0.000062
C18	C	0.765309	0.419749	-0.000057
C19	C	0.715555	0.319434	-0.000038
C20	C	0.607315	0.289209	-0.000040
C21	C	0.548817	0.359293	-0.000052
C22	C	0.873560	0.449980	-0.000055
C23	C	0.882295	0.279576	-0.000034
C24	C	0.774054	0.249350	-0.000026
C25	C	1.227608	0.279274	-0.000041
C26	C	1.215837	0.170953	-0.000039
C27	C	1.194321	-0.027371	-0.000056
C28	C	1.277803	-0.063049	-0.000062
C29	C	1.265832	-0.173403	-0.000071
C30	C	1.206291	0.082993	-0.000047
C31	C	1.424874	0.497530	-0.000062
C32	C	1.540081	0.529697	-0.000074
C33	C	1.244520	0.630314	-0.000069
C34	C	1.256292	0.738634	-0.000078
N35	N	1.181503	0.494911	0.281796
N36	N	1.290631	0.414672	-0.281904
C37	C	1.367201	0.358346	0.655754
C38	C	1.391322	0.340602	0.531094
C39	C	1.338869	0.379178	0.468763
C40	C	1.262292	0.435500	0.531106
C41	C	1.238175	0.453251	0.655778
C42	C	1.209842	0.474083	0.468787
C43	C	1.133265	0.530405	0.531129
C44	C	1.109151	0.548153	0.655790
C45	C	1.161604	0.509578	0.718120
C46	C	1.233960	0.456332	0.344115
C47	C	1.104933	0.551237	0.344138
C48	C	1.080812	0.568980	0.468799
H49	H	0.844709	0.614769	-0.000088
H50	H	1.062223	0.582651	0.293390
N51	N	1.002599	0.626522	0.532468
N52	N	0.955769	0.660963	0.476815
H53	H	0.900529	0.701601	0.521780
H54	H	0.914058	0.531657	-0.000066
H55	H	1.113865	-0.079700	-0.000056
H56	H	1.296309	0.410475	0.293367
N57	N	1.363524	0.361053	0.341427
N58	N	1.431899	0.310768	0.285779
H59	H	1.449315	0.297963	0.195842
H60	H	1.453671	0.294747	0.480339
N61	N	0.438244	0.328422	-0.000030
N62	N	0.371815	0.364852	0.083454
H63	H	0.293721	0.343054	0.083470
N64	N	1.136970	0.527685	0.845462
N65	N	1.183805	0.493227	0.901091
H66	H	1.166408	0.506012	0.991029
H67	H	1.409908	0.326949	0.706512
N68	N	0.748880	0.762700	-0.000123
N69	N	0.696644	0.825265	-0.000138
H70	H	0.732525	0.897636	-0.000162
H71	H	1.046806	0.594023	0.706549
H72	H	0.542197	0.687061	-0.000104
N73	N	1.378739	0.002599	-0.000023
N74	N	1.423859	0.012069	0.083472
H75	H	1.495142	0.058437	0.083507
H76	H	0.566811	0.207524	-0.000038
H77	H	0.733530	0.167670	-0.000021
H78	H	0.929926	0.222507	-0.000029
