data_functionalizedCrystal
_audit_creation_method	'MofGen! by Chris Wilmer'
_symmetry_space_group_name_H-M	'P1'
_symmetry_Int_Tables_number	1
_symmetry_cell_setting	triclinic
loop_
_symmetry_equiv_pos_as_xyz
  x,y,z
_cell_length_a	12.827893
_cell_length_b	12.827892
_cell_length_c	19.805399
_cell_angle_alpha	89.977281
_cell_angle_beta	89.983356
_cell_angle_gamma	90.015362
loop_
_atom_site_label
_atom_site_type_symbol
_atom_site_fract_x
_atom_site_fract_y
_atom_site_fract_z
Zn1	Zn	1.597642	-0.416058	-0.382690
Zn2	Zn	2.097642	0.083942	0.117310
Zn3	Zn	1.597545	-0.590813	-0.269511
Zn4	Zn	2.097545	-0.090813	0.230489
Zn5	Zn	1.422892	-0.416087	-0.269520
Zn6	Zn	1.922892	0.083913	0.230480
Zn7	Zn	1.422869	-0.590758	-0.382664
Zn8	Zn	1.922869	-0.090758	0.117336
O9	O	1.510237	-0.503429	-0.326096
O10	O	2.010237	-0.003429	0.173904
O11	O	1.743866	-0.439251	-0.367683
O12	O	2.243866	0.060749	0.132317
O13	O	1.574345	-0.567671	-0.174796
O14	O	2.074345	-0.067671	0.325204
O15	O	1.446123	-0.269847	-0.284547
O16	O	1.946123	0.230153	0.215453
O17	O	1.743794	-0.567643	-0.284532
O18	O	2.243794	-0.067643	0.215468
O19	O	1.574512	-0.269826	-0.367692
O20	O	2.074512	0.230174	0.132308
O21	O	1.446029	-0.439300	-0.174802
O22	O	1.946029	0.060700	0.325198
O23	O	1.276653	-0.439246	-0.284522
O24	O	1.776653	0.060754	0.215478
O25	O	1.446085	-0.567548	-0.477384
O26	O	1.946085	-0.067548	0.022616
O27	O	1.276636	-0.567576	-0.367648
O28	O	1.776636	-0.067576	0.132352
O29	O	1.574490	-0.439197	-0.477403
O30	O	2.074490	0.060803	0.022597
O31	O	1.574323	-0.737042	-0.284506
O32	O	2.074323	-0.237042	0.215494
O33	O	1.445990	-0.737001	-0.367639
O34	O	1.945990	-0.237001	0.132361
C35	C	1.238727	-0.503409	-0.326083
C36	C	1.738727	-0.003409	0.173917
C37	C	1.122574	-0.503425	-0.326094
C38	C	1.622574	-0.003425	0.173906
C39	C	1.510172	-0.774939	-0.326084
C40	C	2.010172	-0.274939	0.173916
C41	C	1.510239	-0.891092	-0.326101
C42	C	2.010239	-0.391092	0.173899
C43	C	1.070809	-0.567026	-0.367164
C44	C	1.570809	-0.067026	0.132836
C45	C	0.950758	-0.567045	-0.367176
C46	C	1.450758	-0.067045	0.132824
C47	C	1.446869	-1.063015	-0.284955
C48	C	1.946869	-0.563015	0.215045
C49	C	1.446797	-0.942964	-0.284936
C50	C	1.946797	-0.442964	0.215064
C51	C	1.782807	-0.503450	-0.326109
C52	C	2.282807	-0.003450	0.173891
C53	C	1.898960	-0.503459	-0.326115
C54	C	2.398960	-0.003459	0.173885
C55	C	1.510296	-0.503363	-0.502639
C56	C	2.010296	-0.003363	-0.002639
C57	C	1.510321	-0.503335	-0.577871
C58	C	2.010321	-0.003335	-0.077871
C59	C	1.510331	-0.230859	-0.326123
C60	C	2.010331	0.269141	0.173877
C61	C	1.510371	-0.114706	-0.326135
C62	C	2.010371	0.385294	0.173865
C63	C	1.577183	-0.436499	-0.613226
C64	C	2.077183	0.063501	-0.113226
C65	C	1.577193	-0.436469	-0.683915
C66	C	2.077193	0.063531	-0.183915
C67	C	1.510347	-0.503281	-0.719247
C68	C	2.010347	-0.003281	-0.219247
C69	C	1.443477	-0.570119	-0.683886
C70	C	1.943477	-0.070119	-0.183886
C71	C	1.443462	-0.570143	-0.613199
C72	C	1.943462	-0.070143	-0.113199
C73	C	1.443536	-0.570022	-0.968960
C74	C	1.943536	-0.070022	-0.468960
C75	C	1.443559	-0.569995	-1.039652
C76	C	1.943559	-0.069995	-0.539652
C77	C	1.577268	-0.436347	-1.039675
C78	C	2.077268	0.063653	-0.539675
C79	C	1.577252	-0.436372	-0.968988
C80	C	2.077252	0.063628	-0.468988
C81	C	1.510380	-0.503206	-0.933634
C82	C	2.010380	-0.003206	-0.433634
C83	C	1.510367	-0.503237	-0.856986
C84	C	2.010367	-0.003237	-0.356986
C85	C	1.510363	-0.503256	-0.795894
C86	C	2.010363	-0.003256	-0.295894
C87	C	1.510239	-0.503419	-0.150240
C88	C	2.010239	-0.003419	0.349760
C89	C	1.510416	-0.503153	-0.075008
C90	C	2.010416	-0.003153	0.424992
H91	H	1.115367	-0.621460	-0.402319
H92	H	1.615367	-0.121460	0.097681
H93	H	1.631642	-0.382047	-0.712698
H94	H	2.131642	0.117953	-0.212698
Cl95	Cl	1.362997	-1.131899	-0.230549
Cl96	Cl	1.862997	-0.631899	0.269451
Cl97	Cl	0.882033	-0.651124	-0.421462
Cl98	Cl	1.382033	-0.151124	0.078538
H99	H	1.631690	-0.381970	-0.940224
H100	H	2.131690	0.118030	-0.440224
Cl101	Cl	0.967678	-0.419389	-0.271820
Cl102	Cl	1.467678	0.080611	0.228180
Cl103	Cl	1.594226	-1.045821	-0.380552
Cl104	Cl	2.094226	-0.545821	0.119448
H105	H	1.392434	-0.898512	-0.249678
H106	H	1.892434	-0.398512	0.250322
Cl107	Cl	1.359515	-0.653992	-1.084068
Cl108	Cl	1.859515	-0.153992	-0.584068
Cl109	Cl	1.053788	-0.419368	-0.271821
Cl110	Cl	1.553788	0.080632	0.228179
Cl111	Cl	1.359437	-0.654108	-0.728304
Cl112	Cl	1.859437	-0.154108	-0.228304
Cl113	Cl	1.594191	-0.959712	-0.380534
Cl114	Cl	2.094191	-0.459712	0.119466
H115	H	1.631621	-0.382097	-0.584464
H116	H	2.131621	0.117903	-0.084464
Cl117	Cl	1.359468	-0.654043	-0.924524
Cl118	Cl	1.859468	-0.154043	-0.424524
Cl119	Cl	1.661334	-0.352321	-1.084125
Cl120	Cl	2.161334	0.147679	-0.584125
Cl121	Cl	1.359400	-0.654166	-0.568752
Cl122	Cl	1.859400	-0.154166	-0.068752
