data_functionalizedCrystal
_audit_creation_method	'MofGen! by Chris Wilmer'
_symmetry_space_group_name_H-M	'P1'
_symmetry_Int_Tables_number	1
_symmetry_cell_setting	triclinic
loop_
_symmetry_equiv_pos_as_xyz
  x,y,z
_cell_length_a	11.169417
_cell_length_b	11.169416
_cell_length_c	11.169409
_cell_angle_alpha	89.972296
_cell_angle_beta	89.978351
_cell_angle_gamma	90.010304
loop_
_atom_site_label
_atom_site_type_symbol
_atom_site_fract_x
_atom_site_fract_y
_atom_site_fract_z
Zn1	Zn	-1.834948	0.477767	0.678640
Zn2	Zn	-1.334948	0.977767	1.178640
Zn3	Zn	-1.834831	0.678507	0.477973
Zn4	Zn	-1.334831	1.178507	0.977973
Zn5	Zn	-1.634234	0.477831	0.477968
Zn6	Zn	-1.134234	0.977831	0.977968
Zn7	Zn	-1.634235	0.678400	0.678611
Zn8	Zn	-1.134235	1.178400	1.178611
O9	O	-1.734562	0.578126	0.578298
O10	O	-1.234562	1.078126	1.078298
O11	O	-2.002882	0.504414	0.652035
O12	O	-1.502882	1.004414	1.152035
O13	O	-1.808172	0.651959	0.310022
O14	O	-1.308172	1.151959	0.810022
O15	O	-1.660907	0.309873	0.504597
O16	O	-1.160907	0.809873	1.004597
O17	O	-2.002796	0.651897	0.504606
O18	O	-1.502796	1.151897	1.004606
O19	O	-1.808371	0.309826	0.652030
O20	O	-1.308371	0.809826	1.152030
O21	O	-1.660794	0.504522	0.310019
O22	O	-1.160794	1.004522	0.810019
O23	O	-1.466284	0.504419	0.504570
O24	O	-0.966284	1.004419	1.004570
O25	O	-1.660909	0.651714	0.846565
O26	O	-1.160909	1.151714	1.346565
O27	O	-1.466285	0.651776	0.651982
O28	O	-0.966285	1.151776	1.151982
O29	O	-1.808372	0.504310	0.846586
O30	O	-1.308372	1.004310	1.346586
O31	O	-1.808173	0.846443	0.504578
O32	O	-1.308173	1.346443	1.004578
O33	O	-1.660796	0.846364	0.651987
O34	O	-1.160796	1.346364	1.151987
C35	C	-1.422737	0.578094	0.578273
C36	C	-0.922737	1.078094	1.078273
C37	C	-1.289337	0.578109	0.578290
C38	C	-0.789337	1.078109	1.078290
C39	C	-1.734505	0.889951	0.578306
C40	C	-1.234505	1.389951	1.078306
C41	C	-1.734590	1.023351	0.578350
C42	C	-1.234590	1.523351	1.078350
C43	C	-1.047604	0.578148	0.578316
C44	C	-0.547604	1.078148	1.078316
C45	C	-1.181004	0.578128	0.578303
C46	C	-0.681004	1.078128	1.078303
C47	C	-1.734654	0.577993	0.891341
C48	C	-1.234654	1.077993	1.391341
C49	C	-1.734693	0.577936	1.024741
C50	C	-1.234693	1.077936	1.524741
C51	C	-1.734643	1.265084	0.578332
C52	C	-1.234643	1.765084	1.078332
C53	C	-1.734657	1.131684	0.578388
C54	C	-1.234657	1.631684	1.078388
C55	C	-1.734539	0.578172	0.266473
C56	C	-1.234539	1.078172	0.766473
C57	C	-1.734732	0.577891	0.133074
C58	C	-1.234732	1.077891	0.633074
