data_functionalizedCrystal
_audit_creation_method	'MofGen! by Chris Wilmer'
_symmetry_space_group_name_H-M	'P1'
_symmetry_Int_Tables_number	1
_symmetry_cell_setting	triclinic
loop_
_symmetry_equiv_pos_as_xyz
  x,y,z
_cell_length_a	10.654550
_cell_length_b	16.109304
_cell_length_c	9.730223
_cell_angle_alpha	90.000164
_cell_angle_beta	90.000242
_cell_angle_gamma	83.973784
loop_
_atom_site_label
_atom_site_type_symbol
_atom_site_fract_x
_atom_site_fract_y
_atom_site_fract_z
O1	O	1.666257	0.116772	0.114178
O2	O	2.166257	0.616772	0.614178
O3	O	1.300628	0.127897	0.114202
O4	O	1.800628	0.627897	0.614202
O5	O	1.493485	0.001364	0.114190
O6	O	1.993485	0.501364	0.614190
O7	O	1.473400	0.243306	0.114190
O8	O	1.973400	0.743306	0.614190
O9	O	1.493471	0.001364	-0.114390
O10	O	1.993471	0.501364	0.385610
O11	O	1.300614	0.127897	-0.114378
O12	O	1.800614	0.627897	0.385622
O13	O	1.666244	0.116772	-0.114402
O14	O	2.166244	0.616772	0.385598
Zn15	Zn	1.483427	0.122335	-0.150682
Zn16	Zn	1.983427	0.622335	0.349318
Zn17	Zn	1.483445	0.122335	0.150482
Zn18	Zn	1.983445	0.622335	0.650482
O19	O	1.473387	0.243306	-0.114390
O20	O	1.973387	0.743306	0.385610
C21	C	1.253834	0.127080	-0.000084
C22	C	1.753834	0.627080	0.499916
C23	C	1.114424	0.124636	-0.000075
C24	C	1.614424	0.624636	0.499925
C25	C	1.033929	0.199138	-0.000079
C26	C	1.533929	0.699138	0.499921
C27	C	0.902939	0.196836	-0.000103
C28	C	1.402939	0.696836	0.499897
C29	C	0.932953	0.045526	-0.000113
C30	C	1.432953	0.545526	0.499887
C31	C	1.063940	0.047828	-0.000099
C32	C	1.563940	0.547828	0.499901
C33	C	1.492664	-0.029616	-0.000097
C34	C	1.992664	0.470384	0.499903
C35	C	1.490223	-0.121926	-0.000087
C36	C	1.990223	0.378074	0.499913
C37	C	1.484591	-0.334297	0.124507
C38	C	1.984591	0.165703	0.624507
C39	C	1.482286	-0.421031	0.124506
C40	C	1.982286	0.078969	0.624506
C41	C	1.482277	-0.421028	-0.124704
C42	C	1.982277	0.078972	0.375296
C43	C	1.484573	-0.334295	-0.124702
C44	C	1.984573	0.165705	0.375298
C45	C	1.485736	-0.290932	-0.000092
C46	C	1.985736	0.209068	0.499908
C47	C	1.481135	-0.464399	-0.000096
C48	C	1.981135	0.035601	0.499904
C49	C	1.478636	-0.558439	-0.000098
C50	C	1.978636	-0.058439	0.499902
C51	C	1.488234	-0.196885	-0.000089
C52	C	1.988234	0.303115	0.499911
C53	C	1.713037	0.117589	-0.000112
C54	C	2.213037	0.617589	0.499888
C55	C	1.852447	0.120033	-0.000113
C56	C	2.352447	0.620033	0.499887
C57	C	1.474208	0.274285	-0.000100
C58	C	1.974208	0.774285	0.499900
C59	C	1.476649	0.366595	-0.000101
C60	C	1.976649	0.866595	0.499899
N61	N	1.483424	0.122334	-0.356218
N62	N	1.983424	0.622334	0.143782
C63	C	1.559566	0.173229	-0.428145
C64	C	2.059566	0.673229	0.071855
C65	C	1.559586	0.173224	-0.572027
C66	C	2.059586	0.673224	-0.072027
C67	C	1.407313	0.071428	-0.572045
C68	C	1.907313	0.571428	-0.072045
C69	C	1.407300	0.071429	-0.428165
C70	C	1.907300	0.571429	0.071835
N71	N	1.483458	0.122329	0.356019
N72	N	1.983458	0.622329	0.856019
H73	H	1.129483	-0.012843	-0.000100
H74	H	1.629483	0.487157	0.499900
H75	H	1.485534	-0.298993	0.225973
H76	H	1.985534	0.201007	0.725973
N77	N	1.481049	-0.467799	-0.259100
N78	N	1.981049	0.032201	0.240900
H79	H	1.479432	-0.529326	-0.240197
H80	H	1.979432	-0.029326	0.259803
H81	H	1.559261	-0.458923	-0.313495
H82	H	2.059261	0.041077	0.186505
H83	H	1.075028	0.261680	-0.000070
H84	H	1.575028	0.761680	0.499930
N85	N	1.325212	0.016530	-0.649656
N86	N	1.825212	0.516530	-0.149656
H87	H	1.263734	0.052350	-0.709356
H88	H	1.763734	0.552350	-0.209356
H89	H	1.277058	-0.015707	-0.582172
H90	H	1.777058	0.484293	-0.082172
H91	H	1.621590	0.214667	-0.630584
H92	H	2.121590	0.714667	-0.130584
H93	H	0.837404	0.257503	-0.000109
H94	H	1.337404	0.757503	0.499891
H95	H	1.485499	-0.298985	-0.226172
H96	H	1.985499	0.201015	0.273828
H97	H	1.345295	0.029980	-0.369601
H98	H	1.845295	0.529980	0.130399
N99	N	0.878502	-0.037314	-0.000146
N100	N	1.378502	0.462686	0.499854
H101	H	0.783307	-0.027469	-0.000155
H102	H	1.283307	0.472531	0.499845
H103	H	0.907943	-0.069954	0.084588
H104	H	1.407943	0.430046	0.584588
N105	N	1.481130	-0.467810	0.258894
N106	N	1.981130	0.032190	0.758894
H107	H	1.482243	-0.427179	0.337828
H108	H	1.982243	0.072821	0.837828
H109	H	1.558008	-0.510070	0.264253
H110	H	2.058008	-0.010070	0.764253
H111	H	1.621551	0.214680	-0.369570
H112	H	2.121551	0.714680	0.130430
