data_functionalizedCrystal
_audit_creation_method	'MofGen! by Chris Wilmer'
_symmetry_space_group_name_H-M	'P1'
_symmetry_Int_Tables_number	1
_symmetry_cell_setting	triclinic
loop_
_symmetry_equiv_pos_as_xyz
  x,y,z
_cell_length_a	10.489741
_cell_length_b	11.026660
_cell_length_c	8.965430
_cell_angle_alpha	89.995643
_cell_angle_beta	89.998579
_cell_angle_gamma	83.437996
loop_
_atom_site_label
_atom_site_type_symbol
_atom_site_fract_x
_atom_site_fract_y
_atom_site_fract_z
O1	O	-1.731787	0.171541	0.123937
O2	O	-1.364133	0.187644	0.123959
O3	O	-1.517491	0.002674	0.123948
O4	O	-1.578429	0.356511	0.123948
O5	O	-1.517477	0.002689	-0.124131
O6	O	-1.364119	0.187659	-0.124120
O7	O	-1.731772	0.171556	-0.124142
Cu8	Cu	-1.547944	0.179609	-0.146782
Cu9	Cu	-1.547961	0.179591	0.146600
O10	O	-1.578414	0.356526	-0.124131
C11	C	-1.316326	0.186435	-0.000077
C12	C	-1.173897	0.182797	-0.000069
C13	C	-1.506242	-0.042627	-0.000088
C14	C	-1.472728	-0.177633	-0.000077
C15	C	-1.779579	0.172765	-0.000102
C16	C	-1.922008	0.176404	-0.000101
C17	C	-1.079869	0.065106	-0.000082
C18	C	-0.999978	0.120694	0.122230
C19	C	-1.000004	0.120737	-0.122356
C20	C	-1.095882	0.238434	0.122345
C21	C	-1.095914	0.238460	-0.122351
C22	C	-1.016069	0.294134	-0.000009
C23	C	-1.589663	0.401827	-0.000092
C24	C	-1.623177	0.536833	-0.000092
N25	N	-1.547941	0.179621	-0.353132
C26	C	-1.565266	0.749367	-0.000084
C27	C	-1.530626	0.609832	-0.000085
C28	C	-1.477911	0.265831	-0.549836
C29	C	-1.426913	0.156072	-0.450370
C30	C	-1.598880	0.289371	-0.450390
C31	C	-1.496903	0.069754	-0.549774
C32	C	-1.668938	0.203126	-0.549803
C33	C	-1.617970	0.093287	-0.450381
N34	N	-1.547972	0.179570	0.352949
H35	H	-1.108278	-0.031644	0.000071
H36	H	-1.418606	0.338674	-0.593505
H37	H	-1.771228	0.223073	-0.593516
H38	H	-0.958062	0.070925	-0.225762
Cl39	Cl	-1.430226	-0.073612	-0.616884
H40	H	-1.641967	0.382211	-0.406762
Cl41	Cl	-1.709406	-0.019423	-0.383381
H42	H	-0.958016	0.070890	0.225639
H43	H	-1.728054	0.577630	0.000017
H44	H	-1.425749	0.569033	-0.000073
H45	H	-1.137661	0.288186	0.225868
Cl46	Cl	-1.310812	0.759379	-0.000058
H47	H	-1.137899	0.288223	-0.225764
H48	H	-0.987949	0.390986	0.000058
H49	H	-1.670136	0.790171	-0.000097
H50	H	-1.324602	0.136166	-0.406684
