data_functionalizedCrystal
_audit_creation_method	'MofGen! by Chris Wilmer'
_symmetry_space_group_name_H-M	'P1'
_symmetry_Int_Tables_number	1
_symmetry_cell_setting	triclinic
loop_
_symmetry_equiv_pos_as_xyz
  x,y,z
_cell_length_a	10.723023
_cell_length_b	10.723023
_cell_length_c	15.455313
_cell_angle_alpha	92.691554
_cell_angle_beta	87.293778
_cell_angle_gamma	84.467548
loop_
_atom_site_label
_atom_site_type_symbol
_atom_site_fract_x
_atom_site_fract_y
_atom_site_fract_z
O1	O	1.662611	0.169612	-0.072120
O2	O	1.299459	0.186366	-0.072123
O3	O	1.489412	-0.003587	-0.072118
O4	O	1.472658	0.359565	-0.072125
O5	O	1.478549	0.007230	0.072144
O6	O	1.288596	0.197183	0.072138
O7	O	1.651748	0.180429	0.072142
Cu8	Cu	1.469180	0.189794	0.085312
Cu9	Cu	1.482027	0.177001	-0.085294
O10	O	1.461795	0.370382	0.072136
C11	C	1.247528	0.190555	0.000007
C12	C	1.108973	0.186908	0.000006
C13	C	1.482761	-0.044678	0.000012
C14	C	1.479114	-0.183233	0.000009
C15	C	1.041574	0.190886	0.074737
C16	C	0.898371	0.187116	0.074737
C17	C	1.483116	-0.250602	-0.074724
C18	C	1.479346	-0.393806	-0.074729
C19	C	1.703679	0.176239	0.000009
C20	C	1.842234	0.179886	0.000005
C21	C	1.468446	0.411473	0.000005
C22	C	1.472093	0.550027	0.000002
N23	N	1.460154	0.198791	0.205308
N24	N	1.491063	0.167994	-0.205289
C25	C	1.540881	0.118122	0.250704
C26	C	1.534066	0.124938	0.341512
C27	C	1.446529	0.212429	0.386921
C28	C	1.365794	0.293101	0.341519
C29	C	1.372603	0.286278	0.250713
C30	C	1.417137	0.241844	0.658502
C31	C	1.410336	0.248663	0.749314
C32	C	1.578607	0.080497	0.749301
C33	C	1.585414	0.073688	0.658493
C34	C	1.504674	0.154355	0.613099
N35	N	1.439564	0.219400	0.479741
N36	N	1.511634	0.147377	0.520280
H37	H	0.840430	0.190522	0.138717
H38	H	1.060659	0.180709	-0.063974
C39	C	1.470712	-0.248517	0.086444
H40	H	1.468681	-0.187679	0.133332
H41	H	1.541774	-0.307964	0.089669
H42	H	1.396476	-0.290166	0.089663
H43	H	1.482772	-0.451721	-0.138710
H44	H	1.489326	-0.202261	-0.138702
C45	C	1.637171	0.021879	0.200761
H46	H	1.684263	-0.025195	0.240807
H47	H	1.692156	0.064578	0.165324
H48	H	1.594486	-0.033144	0.165353
H49	H	1.294513	0.364334	0.378496
C50	C	1.313974	0.344840	0.799264
H51	H	1.266836	0.391880	0.759224
H52	H	1.356583	0.399889	0.834697
H53	H	1.259022	0.302057	0.834677
H54	H	0.900165	0.176494	-0.063978
H55	H	1.468680	-0.392067	0.063987
H56	H	1.599800	0.059250	0.378473
C57	C	1.681697	-0.022560	0.608549
H58	H	1.728793	-0.069636	0.648592
H59	H	1.736680	0.020142	0.573111
H60	H	1.639011	-0.077582	0.573140
C61	C	1.328361	0.330605	0.608575
H62	H	1.344945	0.314016	0.547990
H63	H	1.341530	0.415123	0.623456
H64	H	1.243835	0.317425	0.623465
H65	H	1.306865	0.351966	0.213752
C66	C	1.106830	0.199259	0.161172
H67	H	1.194517	0.200703	0.149832
H68	H	1.092013	0.128482	0.193507
H69	H	1.074226	0.273779	0.193497
C70	C	1.667401	-0.008240	0.799237
H71	H	1.650805	0.008342	0.859821
H72	H	1.751917	0.004948	0.784342
H73	H	1.654242	-0.092770	0.784363
