data_functionalizedCrystal
_audit_creation_method	'MofGen! by Chris Wilmer'
_symmetry_space_group_name_H-M	'P1'
_symmetry_Int_Tables_number	1
_symmetry_cell_setting	triclinic
loop_
_symmetry_equiv_pos_as_xyz
  x,y,z
_cell_length_a	10.540539
_cell_length_b	17.699083
_cell_length_c	16.176319
_cell_angle_alpha	90.013827
_cell_angle_beta	89.994664
_cell_angle_gamma	96.095747
loop_
_atom_site_label
_atom_site_type_symbol
_atom_site_fract_x
_atom_site_fract_y
_atom_site_fract_z
O1	O	1.683942	-0.106662	-0.068722
O2	O	1.314345	-0.116711	-0.068733
O3	O	1.509585	-0.001565	-0.068707
O4	O	1.488701	-0.221808	-0.068748
O5	O	1.509558	-0.001558	0.068786
O6	O	1.314318	-0.116704	0.068760
O7	O	1.683915	-0.106654	0.068771
Cu8	Cu	1.499114	-0.111678	0.081320
Cu9	Cu	1.499146	-0.111687	-0.081282
O10	O	1.488674	-0.221800	0.068745
C11	C	1.267042	-0.115954	0.000012
C12	C	1.126135	-0.113699	0.000008
C13	C	1.508823	0.026641	0.000043
C14	C	1.506578	0.110673	0.000053
C15	C	1.621180	0.158549	0.000063
C16	C	1.619063	0.237506	0.000065
C17	C	1.502343	0.268586	0.000063
C18	C	1.387732	0.220704	0.000050
C19	C	1.389851	0.141748	0.000042
C20	C	1.379187	0.539122	0.000080
C21	C	1.377078	0.618084	0.000091
C22	C	1.608400	0.634880	0.000103
C23	C	1.610518	0.555925	0.000095
C24	C	1.495908	0.508050	0.000078
C25	C	1.498205	0.422436	0.000075
C26	C	1.500045	0.354198	0.000072
C27	C	0.944289	-0.027300	0.000345
C28	C	1.090865	-0.029586	0.000027
C29	C	1.063738	-0.154182	-0.078511
C30	C	0.917246	-0.151311	-0.078568
C31	C	0.916695	-0.153014	0.077787
C32	C	1.063663	-0.153789	0.078816
C33	C	1.731217	-0.107412	0.000024
C34	C	1.872124	-0.109666	0.000022
N35	N	1.499101	-0.111671	0.195685
C36	C	1.489436	0.749994	0.000023
C37	C	1.491681	0.665962	0.000095
N38	N	1.499169	-0.111688	-0.195647
C39	C	1.585579	-0.060706	0.238961
C40	C	1.585586	-0.060705	0.325508
C41	C	1.499119	-0.111674	0.368777
C42	C	1.412631	-0.162642	0.325496
C43	C	1.412620	-0.162639	0.238950
C44	C	1.412675	-0.162657	0.674524
C45	C	1.412695	-0.162658	0.761075
C46	C	1.585641	-0.060723	0.761082
C47	C	1.585629	-0.060720	0.674536
C48	C	1.499138	-0.111684	0.631262
C49	C	1.499130	-0.111684	0.537418
C50	C	1.499131	-0.111679	0.462620
H51	H	1.712384	0.276484	0.000075
H52	H	1.105155	-0.124214	0.136905
C53	C	1.838967	0.580460	0.000098
C54	C	1.738820	0.521763	0.000093
H55	H	1.918175	0.559369	0.000089
H56	H	1.833326	0.610910	0.048046
H57	H	1.833326	0.610903	-0.047849
H58	H	1.744455	0.491324	0.048043
H59	H	1.744464	0.491301	-0.047860
H60	H	1.716228	0.133251	0.000070
H61	H	1.701721	0.673870	0.000112
H62	H	0.868357	-0.213768	0.078306
H63	H	1.342222	-0.204139	0.360731
H64	H	1.282024	0.643386	0.000091
H65	H	1.084961	-0.215953	-0.081444
C66	C	1.251170	0.299748	-0.070624
C67	C	1.259432	0.254868	0.000048
H68	H	1.171963	0.320842	-0.070620
H69	H	1.256805	0.269291	-0.118566
H70	H	1.319128	0.339559	-0.070608
H71	H	1.191479	0.215054	0.000028
H72	H	1.253784	0.285327	0.048002
H73	H	1.655996	-0.019204	0.203736
C74	C	1.150318	0.530462	0.000088
C75	C	1.253209	0.486505	0.000078
H76	H	1.072543	0.497974	0.000093
H77	H	1.154309	0.561597	-0.047854
H78	H	1.154316	0.561617	0.048040
H79	H	1.249217	0.455354	-0.047878
H80	H	1.249217	0.455357	0.048025
C81	C	0.972201	0.090596	0.074930
C82	C	0.906489	0.017571	0.076356
H83	H	0.948859	0.118296	0.121859
H84	H	0.950861	0.116075	0.026000
H85	H	1.061451	0.086941	0.075976
H86	H	0.817239	0.021227	0.075303
H87	H	0.927820	-0.007913	0.125298
H88	H	1.296530	0.102768	0.000034
H89	H	1.134050	0.002268	0.056314
C90	C	1.171117	-0.253191	0.018111
C91	C	1.094829	-0.236579	0.085199
H92	H	1.190345	-0.304307	0.022046
H93	H	1.248090	-0.220007	0.018782
H94	H	1.126638	-0.246538	-0.031992
H95	H	1.139311	-0.243227	0.135302
H96	H	1.017842	-0.269774	0.084536
H97	H	0.914698	0.005786	-0.055640
H98	H	1.656002	-0.019205	0.360743
H99	H	1.133208	0.002486	-0.056346
H100	H	1.106852	-0.126066	-0.136937
C101	C	0.989449	-0.089534	-0.204743
C102	C	0.879908	-0.110922	-0.157782
H103	H	0.966401	-0.064593	-0.253644
H104	H	1.029120	-0.133461	-0.219096
H105	H	1.047106	-0.056030	-0.173340
H106	H	0.822254	-0.144430	-0.189184
H107	H	0.840217	-0.066988	-0.143431
C108	C	1.756575	0.040048	0.683237
C109	C	1.680672	-0.004691	0.626975
H110	H	1.815243	0.074643	0.653874
H111	H	1.802140	0.008281	0.716974
H112	H	1.703818	0.067572	0.717012
H113	H	1.733429	-0.032219	0.593204
H114	H	1.635104	0.027081	0.593224
H115	H	0.868171	-0.211805	-0.082143
C116	C	1.241705	-0.263409	0.752381
C117	C	1.317632	-0.218680	0.808640
H118	H	1.183016	-0.297989	0.781747
H119	H	1.294435	-0.290943	0.718612
H120	H	1.196153	-0.231628	0.718639
H121	H	1.363191	-0.250460	0.842378
H122	H	1.264894	-0.191144	0.842423
C123	C	0.982750	-0.091589	0.205355
C124	C	0.874883	-0.116284	0.158176
H125	H	0.956964	-0.068919	0.254994
H126	H	1.036596	-0.055358	0.174694
H127	H	1.027831	-0.133747	0.218387
H128	H	0.829806	-0.074124	0.145139
H129	H	0.821016	-0.152518	0.188844
C130	C	1.384798	-0.265505	0.577184
C131	C	1.317621	-0.218689	0.626967
H132	H	1.326114	-0.300098	0.547821
H133	H	1.437550	-0.293024	0.610934
H134	H	1.436275	-0.235141	0.539026
H135	H	1.266151	-0.249052	0.665130
H136	H	1.264847	-0.191167	0.593215
C137	C	1.241677	-0.263407	0.247631
C138	C	1.317566	-0.218665	0.191378
H139	H	1.182997	-0.297997	0.218261
H140	H	1.196127	-0.231641	0.281401
H141	H	1.294443	-0.290935	0.281374
H142	H	1.264800	-0.191132	0.157640
H143	H	1.363119	-0.250435	0.157594
H144	H	1.656063	-0.019222	0.796325
