data_functionalizedCrystal
_audit_creation_method	'MofGen! by Chris Wilmer'
_symmetry_space_group_name_H-M	'P1'
_symmetry_Int_Tables_number	1
_symmetry_cell_setting	triclinic
loop_
_symmetry_equiv_pos_as_xyz
  x,y,z
_cell_length_a	12.759401
_cell_length_b	16.625546
_cell_length_c	12.759393
_cell_angle_alpha	90.036194
_cell_angle_beta	90.018496
_cell_angle_gamma	90.022629
loop_
_atom_site_label
_atom_site_type_symbol
_atom_site_fract_x
_atom_site_fract_y
_atom_site_fract_z
Zn1	Zn	1.606199	-0.320951	0.593948
Zn2	Zn	1.606069	-0.455807	0.418253
Zn3	Zn	1.430501	-0.320993	0.418287
Zn4	Zn	1.430465	-0.455745	0.593895
O5	O	1.518308	-0.388374	0.506096
O6	O	1.753203	-0.338848	0.570649
O7	O	1.582740	-0.437968	0.271237
O8	O	1.453876	-0.208155	0.441625
O9	O	1.753107	-0.437927	0.441568
O10	O	1.582961	-0.208124	0.570682
O11	O	1.453751	-0.338920	0.271261
O12	O	1.283475	-0.338860	0.441574
O13	O	1.453816	-0.437821	0.740923
O14	O	1.283449	-0.437862	0.570592
O15	O	1.582927	-0.338788	0.740962
O16	O	1.582706	-0.568632	0.441517
O17	O	1.453691	-0.568586	0.570560
C18	C	1.245341	-0.388359	0.506081
C19	C	1.128564	-0.388372	0.506100
C20	C	1.073717	-0.440005	0.573169
C21	C	0.963992	-0.440015	0.573180
C22	C	0.963974	-0.336758	0.439045
C23	C	1.073696	-0.336744	0.439040
C24	C	1.073726	-0.499623	0.650608
C25	C	0.964002	-0.499633	0.650619
C26	C	1.518209	-0.597865	0.506052
C27	C	1.518263	-0.687486	0.506068
C28	C	1.518446	-1.015662	0.506177
C29	C	1.518392	-0.924353	0.506150
C30	C	1.518353	-0.851577	0.506122
C31	C	1.518301	-0.760262	0.506096
C32	C	1.792342	-0.388390	0.506111
C33	C	1.909118	-0.388396	0.506117
C34	C	1.518382	-0.388293	0.780129
C35	C	1.518413	-0.388258	0.896906
C36	C	1.518437	-0.178065	0.506163
C37	C	1.518492	-0.088444	0.506191
C38	C	1.518296	-0.388397	0.233128
C39	C	1.518468	-0.388204	0.116352
C40	C	1.585650	-0.336687	0.951790
C41	C	1.585675	-0.336657	1.061514
C42	C	1.451223	-0.439778	1.061461
C43	C	1.451194	-0.439803	0.951739
C44	C	1.663279	-0.277153	0.951821
C45	C	1.663304	-0.277124	1.061546
H46	H	0.930008	-0.477343	0.727974
H47	H	0.934196	-0.562065	0.628680
N48	N	1.765376	-0.298087	1.098917
N49	N	1.842669	-0.255602	1.075271
H50	H	1.914755	-0.270403	1.101667
N51	N	1.382491	-0.492475	0.895692
N52	N	1.322481	-0.538489	0.944665
H53	H	1.273955	-0.575691	0.905083
H54	H	1.118349	-0.294694	0.384433
N55	N	1.382566	-0.492419	1.117489
N56	N	1.382595	-0.492386	1.215454
H57	H	1.334104	-0.529564	1.255025
H58	H	0.919287	-0.294723	0.384448
H59	H	1.641521	-0.214709	0.922072
N60	N	1.760212	-0.305238	0.909127
N61	N	1.832827	-0.326248	0.968909
H62	H	1.901286	-0.346086	0.938757
N63	N	1.626797	-0.202691	1.104260
N64	N	1.599439	-0.146974	1.044494
H65	H	1.573652	-0.094408	1.074661
H66	H	1.103537	-0.482970	0.732016
H67	H	1.107730	-0.558911	0.621317
