data_functionalizedCrystal
_audit_creation_method	'MofGen! by Chris Wilmer'
_symmetry_space_group_name_H-M	'P1'
_symmetry_Int_Tables_number	1
_symmetry_cell_setting	triclinic
loop_
_symmetry_equiv_pos_as_xyz
  x,y,z
_cell_length_a	14.519731
_cell_length_b	15.944551
_cell_length_c	14.421503
_cell_angle_alpha	89.998474
_cell_angle_beta	90.007592
_cell_angle_gamma	83.593795
loop_
_atom_site_label
_atom_site_type_symbol
_atom_site_fract_x
_atom_site_fract_y
_atom_site_fract_z
O1	O	1.223668	0.110183	0.077116
O2	O	0.955171	0.123131	0.077117
O3	O	1.096751	-0.005606	0.077108
O4	O	1.082087	0.238921	0.077125
O5	O	1.096729	-0.005592	-0.077115
O6	O	0.955148	0.123146	-0.077106
O7	O	1.223645	0.110198	-0.077108
Cu8	Cu	1.089395	0.116673	-0.091189
Cu9	Cu	1.089421	0.116656	0.091198
O10	O	1.082065	0.238936	-0.077099
C11	C	0.920801	0.122532	0.000006
C12	C	0.818424	0.120714	0.000006
C13	C	0.735283	0.119237	0.000010
C14	C	0.630977	0.117391	0.000010
C15	C	0.547841	0.115926	0.000010
C16	C	0.443528	0.114080	0.000012
C17	C	1.096131	-0.036894	-0.000004
C18	C	1.094306	-0.130143	-0.000004
C19	C	1.002186	-0.345139	0.000009
C20	C	1.044952	-0.406084	-0.076033
C21	C	1.091005	-0.300874	0.000003
C22	C	1.044996	-0.406082	0.076020
C23	C	1.087809	-0.465791	0.000014
C24	C	1.133796	-0.360590	-0.076102
C25	C	1.133826	-0.360582	0.076019
C26	C	1.176658	-0.421509	-0.000041
C27	C	1.092843	-0.205868	-0.000004
C28	C	1.085977	-0.560795	0.000014
C29	C	1.258015	0.110797	0.000006
C30	C	1.360392	0.112615	0.000012
C31	C	1.082685	0.270223	0.000015
C32	C	1.084510	0.363472	0.000022
N33	N	1.089383	0.116685	-0.219470
C34	C	1.024456	0.176681	-0.530919
C35	C	1.005796	0.100984	-0.469096
C36	C	1.089421	0.116652	-0.591359
C37	C	1.108019	0.192364	-0.469088
C38	C	1.089400	0.116672	-0.408638
C39	C	1.070719	0.040916	-0.530897
C40	C	1.172979	0.132346	-0.530894
C41	C	1.154353	0.056593	-0.469099
C42	C	1.089431	0.116641	-0.696620
C43	C	1.089390	0.116674	-0.303379
N44	N	1.089441	0.116638	0.219480
H45	H	1.007376	-0.426244	-0.140319
O46	O	1.219773	-0.004065	-0.436801
C47	C	1.177037	-0.061760	-0.381799
H48	H	1.108084	-0.030048	-0.354553
H49	H	1.224088	-0.082904	-0.320921
H50	H	1.164383	-0.118978	-0.425445
H51	H	1.243627	0.145642	-0.558063
H52	H	0.928462	-0.311944	-0.000066
O53	O	1.178501	-0.336526	-0.152854
C54	C	1.179665	-0.248227	-0.151941
H55	H	1.120472	-0.218125	-0.106875
H56	H	1.170934	-0.222783	-0.225668
H57	H	1.248528	-0.232371	-0.122544
H58	H	1.171370	-0.340400	0.140309
H59	H	1.123771	0.256386	-0.441956
O60	O	0.958820	0.237180	-0.563152
C61	C	0.912289	0.279124	-0.487676
H62	H	0.919259	0.236520	-0.424001
H63	H	0.835841	0.294916	-0.505566
H64	H	0.944138	0.339853	-0.472430
O65	O	1.264699	-0.460904	-0.000253
C66	C	1.311163	-0.437694	-0.080519
H67	H	1.258210	-0.415864	-0.136301
H68	H	1.358745	-0.494310	-0.107059
H69	H	1.354106	-0.384143	-0.063103
O70	O	1.000053	-0.430007	0.152687
C71	C	0.908099	-0.390752	0.152383
H72	H	0.903672	-0.331356	0.107866
H73	H	0.886004	-0.373083	0.226334
H74	H	0.860265	-0.436074	0.122706
H75	H	0.935125	0.087716	-0.441944
H76	H	1.054897	-0.023117	-0.557933
