data_functionalizedCrystal
_audit_creation_method	'MofGen! by Chris Wilmer'
_symmetry_space_group_name_H-M	'P1'
_symmetry_Int_Tables_number	1
_symmetry_cell_setting	triclinic
loop_
_symmetry_equiv_pos_as_xyz
  x,y,z
_cell_length_a	15.995350
_cell_length_b	17.699083
_cell_length_c	16.176319
_cell_angle_alpha	89.992304
_cell_angle_beta	89.996232
_cell_angle_gamma	83.387695
loop_
_atom_site_label
_atom_site_type_symbol
_atom_site_fract_x
_atom_site_fract_y
_atom_site_fract_z
O1	O	1.110790	0.097560	-0.068678
O2	O	1.610790	0.597560	0.431322
O3	O	0.866991	0.109607	-0.068695
O4	O	1.366991	0.609607	0.431305
O5	O	0.995778	-0.006594	-0.068679
O6	O	1.495778	0.493406	0.431321
O7	O	0.982003	0.213761	-0.068695
O8	O	1.482003	0.713761	0.431305
O9	O	0.995761	-0.006602	0.068814
O10	O	1.495761	0.493398	0.568814
O11	O	0.866973	0.109600	0.068798
O12	O	1.366973	0.609600	0.568798
O13	O	1.110773	0.097552	0.068815
O14	O	1.610773	0.597552	0.568815
Cu15	Cu	0.988871	0.103575	0.081361
Cu16	Cu	1.488871	0.603575	0.581361
Cu17	Cu	0.988892	0.103584	-0.081241
Cu18	Cu	1.488892	0.603584	0.418759
O19	O	0.981985	0.213754	0.068799
O20	O	1.481985	0.713754	0.568799
C21	C	0.835788	0.109105	0.000049
C22	C	1.335788	0.609105	0.500049
C23	C	0.742841	0.107612	0.000043
C24	C	1.242841	0.607612	0.500043
C25	C	0.995276	-0.034796	0.000068
C26	C	1.495276	0.465204	0.500068
C27	C	0.993795	-0.118816	0.000068
C28	C	1.493795	0.381184	0.500068
C29	C	1.069391	-0.167312	0.000074
C30	C	1.569391	0.332688	0.500074
C31	C	1.067994	-0.246257	0.000067
C32	C	1.567994	0.253743	0.500067
C33	C	0.991001	-0.276706	0.000059
C34	C	1.491001	0.223294	0.500059
C35	C	0.915400	-0.228205	0.000050
C36	C	1.415400	0.271795	0.500050
C37	C	0.916797	-0.149261	0.000051
C38	C	1.416797	0.350739	0.500051
C39	C	0.909763	-0.546577	0.000043
C40	C	1.409763	-0.046577	0.500043
C41	C	0.908372	-0.625527	0.000044
C42	C	1.408372	-0.125527	0.500044
C43	C	1.060960	-0.643574	0.000058
C44	C	1.560960	-0.143574	0.500058
C45	C	1.062358	-0.564630	0.000060
C46	C	1.562358	-0.064630	0.500060
C47	C	0.986757	-0.516135	0.000047
C48	C	1.486757	-0.016135	0.500047
C49	C	0.988272	-0.430533	0.000053
C50	C	1.488272	0.069467	0.500053
C51	C	0.989485	-0.362306	0.000058
C52	C	1.489485	0.137694	0.500058
C53	C	0.405104	0.102250	0.000060
C54	C	0.905104	0.602250	0.500060
C55	C	0.452706	0.019493	0.000373
C56	C	0.952706	0.519493	0.500373
C57	C	0.549394	0.020987	0.000057
C58	C	1.049394	0.520987	0.500057
C59	C	0.572659	0.104910	0.000052
C60	C	1.072659	0.604910	0.500052
C61	C	0.531499	0.145732	-0.078463
C62	C	1.031499	0.645732	0.421537
C63	C	0.434868	0.143653	-0.078523
C64	C	0.934868	0.643653	0.421477
C65	C	0.434505	0.145355	0.077833
C66	C	0.934505	0.645355	0.577833
C67	C	0.531450	0.145335	0.078865
C68	C	1.031450	0.645335	0.578865
C69	C	0.667354	0.106417	0.000045
C70	C	1.167354	0.606417	0.500045
C71	C	0.310409	0.100745	0.000062
C72	C	0.810409	0.600745	0.500062
C73	C	1.141975	0.098054	0.000069
C74	C	1.641975	0.598054	0.500069
C75	C	1.234923	0.099547	0.000070
C76	C	1.734923	0.599547	0.500070
C77	C	0.982487	0.241955	0.000050
C78	C	1.482487	0.741955	0.500050
C79	C	0.983968	0.325976	0.000044
C80	C	1.483968	0.825976	0.500044
N81	N	0.988863	0.103569	0.195726
N82	N	1.488863	0.603569	0.695726
N83	N	0.988907	0.103585	-0.195606
N84	N	1.488907	0.603585	0.304394
C85	C	1.045907	0.052136	0.238997
C86	C	1.545907	0.552136	0.738997
C87	C	1.045911	0.052135	0.325544
C88	C	1.545911	0.552135	0.825544
C89	C	0.988874	0.103571	0.368818
C90	C	1.488874	0.603571	0.868818
C91	C	0.931824	0.155007	0.325541
C92	C	1.431824	0.655007	0.825541
C93	C	0.931816	0.155003	0.238995
C94	C	1.431816	0.655003	0.738995
C95	C	0.931853	0.155021	0.674569
C96	C	1.431853	0.655021	1.174569
C97	C	0.931866	0.155022	0.761121
C98	C	1.431866	0.655022	1.261121
C99	C	1.045947	0.052153	0.761118
C100	C	1.545947	0.552153	1.261118
C101	C	1.045940	0.052149	0.674573
C102	C	1.545940	0.552149	1.174573
C103	C	0.988887	0.103582	0.631303
C104	C	1.488887	0.603582	1.131303
C105	C	0.988882	0.103581	0.537459
C106	C	1.488882	0.603581	1.037459
C107	C	0.988883	0.103576	0.462661
C108	C	1.488883	0.603576	0.962661
H109	H	1.132087	-0.142527	0.000086
H110	H	1.632087	0.357473	0.500086
H111	H	1.129552	-0.285740	0.000074
H112	H	1.629552	0.214260	0.500074
N113	N	0.873568	0.207558	0.630390
N114	N	1.373568	0.707558	1.130390
N115	N	0.822648	0.253477	0.669041
N116	N	1.322648	0.753477	1.169041
H117	H	0.781481	0.290584	0.637837
H118	H	1.281481	0.790584	1.137837
H119	H	1.125053	-0.539843	0.000070
H120	H	1.625053	-0.039843	0.500070
N121	N	0.873549	0.207553	0.194805
N122	N	1.373549	0.707553	0.694805
N123	N	0.874550	0.277513	0.204457
N124	N	1.374550	0.777513	0.704457
H125	H	0.833395	0.314627	0.173249
H126	H	1.333395	0.814627	0.673249
H127	H	0.558820	0.115535	0.136950
H128	H	1.058820	0.615535	0.636950
N129	N	1.138188	-0.693111	0.000081
N130	N	1.638188	-0.193111	0.500081
N131	N	1.154423	-0.739182	0.058041
N132	N	1.654423	-0.239182	0.558041
H133	H	1.208964	-0.774166	0.058061
H134	H	1.708964	-0.274166	0.558061
N135	N	0.394233	0.219864	-0.083004
N136	N	0.894233	0.719864	0.416996
N137	N	0.345603	0.245379	-0.026538
N138	N	0.845603	0.745379	0.473462
H139	H	0.316905	0.299200	-0.029709
H140	H	0.816905	0.799200	0.470291
N141	N	0.428208	-0.021829	-0.069848
N142	N	0.928208	0.478171	0.430152
N143	N	0.394495	-0.081480	-0.059893
N144	N	0.894495	0.418520	0.440107
H145	H	0.377186	-0.110663	-0.109485
H146	H	0.877186	0.389337	0.390515
N147	N	0.839570	-0.099732	0.000034
N148	N	1.339570	0.400268	0.500034
N149	N	0.770831	-0.126926	0.000022
N150	N	1.270831	0.373074	0.500022
H151	H	0.716286	-0.091947	0.000005
H152	H	1.216286	0.408053	0.500005
N153	N	0.585124	-0.019276	0.070661
N154	N	1.085124	0.480724	0.570661
N155	N	0.538659	-0.048679	0.120515
N156	N	1.038659	0.451321	0.620515
H157	H	0.563891	-0.077121	0.170379
H158	H	1.063891	0.422879	0.670379
N159	N	0.584427	-0.019532	-0.070669
N160	N	1.084427	0.480468	0.429331
N161	N	0.537459	-0.048999	-0.119955
N162	N	1.037459	0.451001	0.380045
H163	H	0.562199	-0.077616	-0.169910
H164	H	1.062199	0.422384	0.330090
N165	N	0.829721	-0.656632	0.000048
N166	N	1.329721	-0.156632	0.500048
N167	N	0.778780	-0.641781	0.057999
N168	N	1.278780	-0.141781	0.557999
H169	H	0.723237	-0.663750	0.058005
H170	H	1.223237	-0.163750	0.558005
H171	H	0.885417	0.196909	0.796353
H172	H	1.385417	0.696909	1.296353
H173	H	0.848204	-0.507102	0.000032
H174	H	1.348204	-0.007102	0.500032
N175	N	0.567151	0.110175	-0.151773
N176	N	1.067151	0.610175	0.348227
N177	N	0.542586	0.134497	-0.221214
N178	N	1.042586	0.634497	0.278786
H179	H	0.567762	0.109381	-0.272989
H180	H	1.067762	0.609381	0.227011
N181	N	0.836743	-0.259289	0.000038
N182	N	1.336743	0.240711	0.500038
N183	N	0.785819	-0.244420	-0.057921
N184	N	1.285819	0.255580	0.442079
H185	H	0.730264	-0.266370	-0.057926
H186	H	1.230264	0.233630	0.442074
H187	H	0.434244	-0.013590	0.056679
H188	H	0.934244	0.486410	0.556679
N189	N	0.411992	0.106317	-0.152149
N190	N	0.911992	0.606317	0.347851
N191	N	0.467367	0.081972	-0.203131
N192	N	0.967367	0.581972	0.296869
H193	H	0.451217	0.055601	-0.255132
H194	H	0.951217	0.555601	0.244868
H195	H	0.414017	0.118296	0.137345
H196	H	0.914017	0.618296	0.637345
N197	N	0.549062	0.223079	-0.082123
N198	N	1.049062	0.723079	0.417877
N199	N	0.592215	0.249040	-0.026774
N200	N	1.092215	0.749040	0.473226
H201	H	0.604621	0.303666	-0.029356
H202	H	1.104621	0.803666	0.470644
N203	N	0.550602	0.222099	0.084806
N204	N	1.050602	0.722099	0.584806
N205	N	0.625461	0.235542	0.089778
N206	N	1.125461	0.735542	0.589778
H207	H	0.638998	0.289757	0.093963
H208	H	1.138998	0.789757	0.593963
N209	N	1.104133	-0.000418	0.194770
N210	N	1.604133	0.499582	0.694770
N211	N	1.077619	-0.047394	0.146494
N212	N	1.577619	0.452606	0.646494
H213	H	1.118731	-0.084514	0.115250
H214	H	1.618731	0.415486	0.615250
N215	N	0.394491	0.221892	0.078495
N216	N	0.894491	0.721892	0.578495
N217	N	0.316019	0.234494	0.081047
N218	N	0.816019	0.734494	0.581047
H219	H	0.287754	0.288546	0.081510
H220	H	0.787754	0.788546	0.581510
N221	N	1.104183	-0.000411	0.369732
N222	N	1.604183	0.499589	0.869732
N223	N	1.155107	-0.046330	0.331085
N224	N	1.655107	0.453670	0.831085
H225	H	1.196263	-0.083444	0.362291
H226	H	1.696263	0.416556	0.862291
H227	H	1.092387	0.010268	0.639342
H228	H	1.592387	0.510268	1.139342
H229	H	1.092401	0.010271	0.796358
H230	H	1.592401	0.510271	1.296358
N231	N	0.873561	0.207538	0.369754
N232	N	1.373561	0.707538	0.869754
N233	N	0.873575	0.207535	0.447026
N234	N	1.373575	0.707535	0.947026
H235	H	0.832426	0.244637	0.478252
H236	H	1.332426	0.744637	0.978252
