data_functionalizedCrystal
_audit_creation_method	'MofGen! by Chris Wilmer'
_symmetry_space_group_name_H-M	'P1'
_symmetry_Int_Tables_number	1
_symmetry_cell_setting	triclinic
loop_
_symmetry_equiv_pos_as_xyz
  x,y,z
_cell_length_a	14.853566
_cell_length_b	14.853567
_cell_length_c	13.330367
_cell_angle_alpha	90.000844
_cell_angle_beta	89.995295
_cell_angle_gamma	96.365328
loop_
_atom_site_label
_atom_site_type_symbol
_atom_site_fract_x
_atom_site_fract_y
_atom_site_fract_z
O1	O	1.196370	-0.117698	-0.083349
O2	O	0.933910	-0.131721	-0.083364
O3	O	1.072150	0.006520	-0.083359
O4	O	1.058129	-0.255939	-0.083354
O5	O	1.072130	0.006523	0.083488
O6	O	0.933890	-0.131718	0.083483
O7	O	1.196349	-0.117695	0.083499
Cu8	Cu	1.065118	-0.124706	0.098725
Cu9	Cu	1.065142	-0.124710	-0.098591
O10	O	1.058109	-0.255936	0.083493
C11	C	0.900311	-0.131084	0.000057
C12	C	0.800227	-0.129181	0.000051
C13	C	0.377053	-0.121132	-0.090880
C14	C	0.377053	-0.121129	0.091023
C15	C	0.471087	-0.122916	0.091020
C16	C	0.518108	-0.123813	0.000066
C17	C	0.471096	-0.122922	-0.090886
C18	C	0.518105	-0.123816	0.181970
C19	C	0.612145	-0.125605	0.181971
C20	C	0.659169	-0.126495	0.091015
C21	C	0.612151	-0.125603	0.000060
C22	C	0.659172	-0.126500	-0.090895
C23	C	0.612157	-0.125601	-0.181851
C24	C	0.518120	-0.123812	-0.181841
C25	C	0.753206	-0.128284	0.091006
C26	C	0.753215	-0.128290	-0.090900
C27	C	1.071505	0.040111	0.000062
C28	C	1.069601	0.140194	0.000053
C29	C	1.229948	-0.118332	0.000075
C30	C	1.330032	-0.120235	0.000075
C31	C	1.058754	-0.289526	0.000071
C32	C	1.060658	-0.389610	0.000073
N33	N	1.065108	-0.124703	0.237507
C34	C	0.979435	0.552728	0.000067
C35	C	1.143668	0.574009	0.000076
C36	C	1.145458	0.479976	0.000070
C37	C	1.064236	0.422313	0.000064
C38	C	0.981223	0.458685	0.000064
C39	C	1.228470	0.443597	0.000081
C40	C	1.230263	0.349558	0.000076
C41	C	1.149040	0.291894	0.000063
C42	C	1.066023	0.328271	0.000061
C43	C	0.984801	0.270608	0.000055
C44	C	0.901784	0.306984	0.000047
C45	C	0.899999	0.401021	0.000050
C46	C	1.150824	0.197856	0.000059
C47	C	0.986588	0.176566	0.000052
N48	N	1.065159	-0.124706	-0.237372
C49	C	1.003926	-0.185899	0.710127
C50	C	1.126381	-0.063514	0.710100
C51	C	1.126371	-0.063511	0.605082
C52	C	1.065138	-0.124704	0.552581
C53	C	1.003916	-0.185900	0.605099
C54	C	1.187599	-0.002322	0.552556
C55	C	1.187592	-0.002318	0.447531
C56	C	1.126354	-0.063507	0.395029
C57	C	1.065128	-0.124705	0.447553
C58	C	1.003895	-0.185898	0.395053
C59	C	0.942664	-0.247092	0.447575
C60	C	0.942678	-0.247089	0.552597
C61	C	1.126340	-0.063510	0.290007
C62	C	1.003885	-0.185899	0.290025
H63	H	0.338770	-0.120397	-0.164934
H64	H	1.209796	0.620963	0.000089
H65	H	0.650418	-0.126335	0.256033
Br66	Br	0.876351	0.098316	0.000032
H67	H	0.954070	-0.235720	0.752894
Br68	Br	0.787344	0.450393	0.000032
Br69	Br	0.866775	0.602090	0.000041
Br70	Br	0.454314	-0.122551	-0.305270
Br71	Br	0.791558	0.228717	0.000051
H72	H	0.791481	-0.129025	0.165061
H73	H	1.297861	0.319950	0.000082
H74	H	1.218415	0.168244	0.000073
H75	H	1.176240	-0.013696	0.752849
Br76	Br	0.920771	-0.268944	0.218782
H77	H	0.338762	-0.120405	0.165074
H78	H	1.237457	0.047495	0.595305
H79	H	1.237448	0.047510	0.404774
Br80	Br	0.454286	-0.122615	0.305401
H81	H	1.294597	0.490552	0.000095
Br82	Br	0.859574	-0.330145	0.376314
H83	H	0.892827	-0.296912	0.595367
H84	H	1.176198	-0.013691	0.247248
H85	H	0.791493	-0.129017	-0.164968
H86	H	0.650453	-0.126337	-0.255906
