data_functionalizedCrystal
_audit_creation_method	'MofGen! by Chris Wilmer'
_symmetry_space_group_name_H-M	'P1'
_symmetry_Int_Tables_number	1
_symmetry_cell_setting	triclinic
loop_
_symmetry_equiv_pos_as_xyz
  x,y,z
_cell_length_a	21.295417
_cell_length_b	16.959455
_cell_length_c	16.959447
_cell_angle_alpha	90.023646
_cell_angle_beta	89.964807
_cell_angle_gamma	89.974501
loop_
_atom_site_label
_atom_site_type_symbol
_atom_site_fract_x
_atom_site_fract_y
_atom_site_fract_z
Zn1	Zn	-0.250681	-1.208327	-0.447079
Zn2	Zn	0.249319	-0.708327	0.052921
Zn3	Zn	-0.355958	-1.208225	-0.314889
Zn4	Zn	0.144042	-0.708225	0.185111
Zn5	Zn	-0.250697	-1.076155	-0.314894
Zn6	Zn	0.249303	-0.576155	0.185106
Zn7	Zn	-0.355907	-1.076096	-0.447006
Zn8	Zn	0.144093	-0.576096	0.052994
O9	O	-0.303311	-1.142201	-0.380967
O10	O	0.196689	-0.642201	0.119033
O11	O	-0.264660	-1.318924	-0.429571
O12	O	0.235340	-0.818924	0.070429
O13	O	-0.342022	-1.190688	-0.204279
O14	O	0.157978	-0.690688	0.295721
O15	O	-0.162605	-1.093755	-0.332462
O16	O	0.337395	-0.593755	0.167538
O17	O	-0.342007	-1.318849	-0.332452
O18	O	0.157993	-0.818849	0.167548
O19	O	-0.162594	-1.190861	-0.429577
O20	O	0.337406	-0.690861	0.070423
O21	O	-0.264688	-1.093657	-0.204283
O22	O	0.235312	-0.593657	0.295717
O23	O	-0.264639	-0.965536	-0.332391
O24	O	0.235361	-0.465536	0.167609
O25	O	-0.341920	-1.093654	-0.557626
O26	O	0.158080	-0.593654	-0.057626
O27	O	-0.341936	-0.965493	-0.429453
O28	O	0.158064	-0.465493	0.070547
O29	O	-0.264611	-1.190803	-0.557680
O30	O	0.235389	-0.690803	-0.057680
O31	O	-0.444040	-1.190630	-0.332381
O32	O	0.055960	-0.690630	0.167619
O33	O	-0.444003	-1.093555	-0.429447
O34	O	0.055997	-0.593555	0.070553
C35	C	-0.303284	-0.936834	-0.380915
C36	C	0.196716	-0.436834	0.119085
C37	C	-0.303288	-0.848978	-0.380912
C38	C	0.196712	-0.348978	0.119088
C39	C	-0.343526	-0.477453	-0.330333
C40	C	0.156474	0.022547	0.169667
C41	C	-0.263110	-0.477552	-0.431621
C42	C	0.236890	0.022448	0.068379
C43	C	-0.263102	-0.560097	-0.431606
C44	C	0.236898	-0.060097	0.068394
C45	C	-0.303307	-0.601325	-0.380955
C46	C	0.196693	-0.101325	0.119045
C47	C	-0.343521	-0.560006	-0.330319
C48	C	0.156479	-0.060006	0.169681
C49	C	-0.222893	-0.601422	-0.482248
C50	C	0.277107	-0.101422	0.017752
C51	C	-0.222884	-0.683973	-0.482236
C52	C	0.277116	-0.183973	0.017764
C53	C	-0.263087	-0.725202	-0.431580
C54	C	0.236913	-0.225202	0.068420
C55	C	-0.303302	-0.683878	-0.380941
C56	C	0.196698	-0.183878	0.119059
C57	C	-0.343507	-0.725105	-0.330290
C58	C	0.156493	-0.225105	0.169710
C59	C	-0.383719	-0.683783	-0.279646
C60	C	0.116281	-0.183783	0.220354
C61	C	-0.383724	-0.601235	-0.279663
C62	C	0.116276	-0.101235	0.220337
C63	C	-0.263083	-0.807750	-0.431563
C64	C	0.236917	-0.307750	0.068437
C65	C	-0.343502	-0.807659	-0.330275
C66	C	0.156498	-0.307659	0.169725
C67	C	-0.466862	-1.142097	-0.380923
C68	C	0.033138	-0.642097	0.119077
C69	C	-0.536830	-1.142125	-0.380931
C70	C	-0.036830	-0.642125	0.119069
C71	C	-0.569695	-1.192717	-0.330440
C72	C	-0.069695	-0.692717	0.169560
C73	C	-0.635438	-1.192754	-0.330458
C74	C	-0.135438	-0.692754	0.169542
C75	C	-0.668313	-1.142185	-0.380958
C76	C	-0.168313	-0.642185	0.119042
C77	C	-0.635440	-1.091590	-0.431458
C78	C	-0.135440	-0.591590	0.068542
C79	C	-0.569698	-1.091560	-0.431445
C80	C	-0.069698	-0.591560	0.068555
N81	N	-0.771573	-1.073038	-0.386967
N82	N	-0.271573	-0.573038	0.113033
N83	N	-0.834025	-1.073069	-0.386975
N84	N	-0.334025	-0.573069	0.113025
C85	C	-0.866387	-1.142273	-0.381003
C86	C	-0.366387	-0.642273	0.118997
N87	N	-0.833939	-1.211448	-0.375008
N88	N	-0.333939	-0.711448	0.124992
N89	N	-0.771482	-1.211416	-0.374995
N90	N	-0.271482	-0.711416	0.125005
C91	C	-0.739598	-1.142212	-0.380979
C92	C	-0.239598	-0.642212	0.119021
C93	C	-0.970538	-1.192910	-0.330530
C94	C	-0.470538	-0.692910	0.169470
C95	C	-1.036282	-1.192948	-0.330553
C96	C	-0.536282	-0.692948	0.169447
C97	C	-1.036282	-1.091777	-0.431549
C98	C	-0.536282	-0.591777	0.068451
C99	C	-0.970540	-1.091745	-0.431530
C100	C	-0.470540	-0.591745	0.068470
C101	C	-0.937672	-1.142311	-0.381016
C102	C	-0.437672	-0.642311	0.118984
C103	C	-0.139120	-1.142326	-0.381028
C104	C	0.360880	-0.642326	0.118972
C105	C	-0.069152	-1.142380	-0.381054
C106	C	0.430848	-0.642380	0.118946
C107	C	-0.303258	-1.142233	-0.587135
C108	C	0.196742	-0.642233	-0.087135
C109	C	-0.303236	-1.142247	-0.674992
C110	C	0.196764	-0.642247	-0.174992
C111	C	-0.303330	-0.348369	-0.381005
C112	C	0.196670	0.151631	0.118995
C113	C	-0.303321	-0.436225	-0.380984
C114	C	0.196679	0.063775	0.119016
C115	C	-0.343421	-1.091761	-1.046442
C116	C	0.156579	-0.591761	-0.546442
C117	C	-0.262919	-1.192923	-1.046493
C118	C	0.237081	-0.692923	-0.546493
C119	C	-0.262932	-1.192902	-0.963947
C120	C	0.237068	-0.692902	-0.463947
C121	C	-0.303191	-1.142310	-0.922645
C122	C	0.196809	-0.642310	-0.422645
C123	C	-0.343437	-1.091740	-0.963889
C124	C	0.156563	-0.591740	-0.463889
C125	C	-0.222691	-1.243478	-0.922697
C126	C	0.277309	-0.743478	-0.422697
C127	C	-0.222703	-1.243459	-0.840146
C128	C	0.277297	-0.743459	-0.340146
C129	C	-0.262960	-1.192863	-0.798843
C130	C	0.237040	-0.692863	-0.298843
C131	C	-0.303207	-1.142289	-0.840091
C132	C	0.196793	-0.642289	-0.340091
C133	C	-0.343466	-1.091698	-0.798789
C134	C	0.156534	-0.591698	-0.298789
C135	C	-0.383711	-1.041120	-0.840037
C136	C	0.116289	-0.541120	-0.340037
C137	C	-0.383694	-1.041143	-0.922585
C138	C	0.116306	-0.541143	-0.422585
C139	C	-0.262977	-1.192839	-0.716294
C140	C	0.237023	-0.692839	-0.216294
C141	C	-0.343482	-1.091677	-0.716236
C142	C	0.156518	-0.591677	-0.216236
C143	C	-0.303317	-1.142213	-0.175601
C144	C	0.196683	-0.642213	0.324399
C145	C	-0.303162	-1.142352	-0.087744
C146	C	0.196838	-0.642352	0.412256
H147	H	-0.190164	-0.567849	-0.523490
H148	H	0.309836	-0.067849	-0.023490
H149	H	-0.190141	-0.717611	-0.523473
H150	H	0.309859	-0.217611	-0.023473
H151	H	-0.189918	-1.284672	-0.956331
H152	H	0.310082	-0.784672	-0.456331
C153	C	-0.143122	-1.343453	-0.848497
C154	C	0.356878	-0.843453	-0.348497
C155	C	-0.178462	-1.299045	-0.794811
C156	C	0.321538	-0.799045	-0.294811
H157	H	-0.115806	-1.377764	-0.820506
H158	H	0.384194	-0.877764	-0.320506
H159	H	-0.170547	-1.373678	-0.880680
H160	H	0.329453	-0.873678	-0.380680
H161	H	-0.119038	-1.309033	-0.880706
H162	H	0.380962	-0.809033	-0.380706
H163	H	-0.202551	-1.333466	-0.762606
H164	H	0.297449	-0.833466	-0.262606
H165	H	-0.151034	-1.268819	-0.762615
H166	H	0.348966	-0.768819	-0.262615
H167	H	-0.376261	-1.050471	-0.682613
H168	H	0.123739	-0.550471	-0.182613
C169	C	-1.029674	-1.292932	-0.230708
C170	C	-0.529674	-0.792932	0.269292
C171	C	-1.072410	-1.248562	-0.275048
C172	C	-0.572410	-0.748562	0.224952
H173	H	-1.051980	-1.327262	-0.196438
H174	H	-0.551980	-0.827262	0.303562
H175	H	-1.003991	-1.323134	-0.265169
H176	H	-0.503991	-0.823134	0.234831
H177	H	-1.004074	-1.258488	-0.200436
H178	H	-0.504074	-0.758488	0.299564
H179	H	-1.098007	-1.283006	-0.305325
H180	H	-0.598007	-0.783006	0.194675
H181	H	-1.098103	-1.218358	-0.240583
H182	H	-0.598103	-0.718358	0.259417
C183	C	-0.463271	-0.941142	-0.914243
C184	C	0.036729	-0.441142	-0.414243
C185	C	-0.427932	-0.985556	-0.967924
C186	C	0.072068	-0.485556	-0.467924
H187	H	-0.490579	-0.906824	-0.942238
H188	H	0.009421	-0.406824	-0.442238
H189	H	-0.487358	-0.975552	-0.882039
H190	H	0.012642	-0.475552	-0.382039
H191	H	-0.435841	-0.910917	-0.882055
H192	H	0.064159	-0.410917	-0.382055
H193	H	-0.455362	-1.015786	-1.000108
H194	H	0.044638	-0.515786	-0.500108
H195	H	-0.403843	-0.951142	-1.000142
H196	H	0.096157	-0.451142	-0.500142
C197	C	-0.869759	-1.237779	-0.285657
C198	C	-0.369759	-0.737779	0.214343
C199	C	-0.934403	-1.248495	-0.275014
C200	C	-0.434403	-0.748495	0.224986
H201	H	-0.847454	-1.272093	-0.251380
H202	H	-0.347454	-0.772093	0.248620
H203	H	-0.858946	-1.249307	-0.338769
H204	H	-0.358946	-0.749307	0.161231
H205	H	-0.859035	-1.184671	-0.274026
H206	H	-0.359035	-0.684671	0.225974
H207	H	-0.945128	-1.301603	-0.286650
H208	H	-0.445128	-0.801603	0.213350
H209	H	-0.945220	-1.236973	-0.221889
H210	H	-0.445220	-0.736973	0.278111
H211	H	-1.063048	-1.050606	-0.472670
H212	H	-0.563048	-0.550606	0.027330
H213	H	-0.416492	-0.999931	-0.806398
H214	H	0.083508	-0.499931	-0.306398
H215	H	-0.542936	-1.233892	-0.289311
H216	H	-0.042936	-0.733892	0.210689
H217	H	-0.230212	-1.234021	-0.682714
H218	H	0.269788	-0.734021	-0.182714
H219	H	-0.376185	-1.050579	-1.080030
H220	H	0.123815	-0.550579	-0.580030
C221	C	-0.227156	-1.237875	-1.173057
C222	C	0.272844	-0.737875	-0.673057
C223	C	-0.218669	-1.248534	-1.091890
C224	C	0.281331	-0.748534	-0.591890
H225	H	-0.199834	-1.272206	-1.201083
H226	H	0.300166	-0.772206	-0.701083
H227	H	-0.269446	-1.249416	-1.186558
H228	H	0.230554	-0.749416	-0.686558
H229	H	-0.217933	-1.184775	-1.186575
H230	H	0.282067	-0.684775	-0.686575
H231	H	-0.227897	-1.301633	-1.078371
H232	H	0.272103	-0.801633	-0.578371
H233	H	-0.176370	-1.236999	-1.078384
H234	H	0.323630	-0.736999	-0.578384
H235	H	-0.662211	-1.050417	-0.472577
H236	H	-0.162211	-0.550417	0.027423
H237	H	-0.376240	-0.841220	-0.289026
H238	H	0.123760	-0.341220	0.210974
C239	C	-0.468396	-0.508363	-0.268511
C240	C	0.031604	-0.008363	0.231489
C241	C	-0.427927	-0.555812	-0.224006
C242	C	0.072073	-0.055812	0.275994
H243	H	-0.495687	-0.480323	-0.234151
H244	H	0.004313	0.019677	0.265849
H245	H	-0.444451	-0.472003	-0.298673
H246	H	0.055549	0.027997	0.201327
H247	H	-0.492503	-0.540588	-0.302883
H248	H	0.007497	-0.040588	0.197117
H249	H	-0.403816	-0.523587	-0.189638
H250	H	0.096184	-0.023587	0.310362
H251	H	-0.451874	-0.592177	-0.193831
H252	H	0.048126	-0.092177	0.306169
H253	H	-0.416458	-0.717361	-0.238410
H254	H	0.083542	-0.217361	0.261590
C255	C	-0.183604	-0.799552	-0.531693
C256	C	0.316396	-0.299552	-0.031693
C257	C	-0.218888	-0.853171	-0.487228
C258	C	0.281112	-0.353171	0.012772
H259	H	-0.156317	-0.827595	-0.566056
H260	H	0.343683	-0.327595	-0.066056
H261	H	-0.211066	-0.767363	-0.561864
H262	H	0.288934	-0.267363	-0.061864
H263	H	-0.159491	-0.767344	-0.497311
H264	H	0.340509	-0.267344	0.002689
H265	H	-0.243005	-0.885376	-0.521609
H266	H	0.256995	-0.385376	-0.021609
H267	H	-0.191423	-0.885374	-0.457054
H268	H	0.308577	-0.385374	0.042946
C269	C	-0.227414	-0.351055	-0.476612
C270	C	0.272586	0.148945	0.023388
C271	C	-0.218916	-0.432236	-0.487293
C272	C	0.281084	0.067764	0.012707
H273	H	-0.200125	-0.323079	-0.510980
H274	H	0.299875	0.176921	-0.010980
H275	H	-0.269716	-0.337521	-0.488090
H276	H	0.230284	0.162479	0.011910
H277	H	-0.218152	-0.337507	-0.423524
H278	H	0.281848	0.162493	0.076476
H279	H	-0.228183	-0.445785	-0.540380
H280	H	0.271817	0.054215	-0.040380
H281	H	-0.176605	-0.445776	-0.475821
H282	H	0.323395	0.054224	0.024179
C283	C	-0.428199	-0.384580	-0.319164
C284	C	0.071801	0.115420	0.180836
C285	C	-0.387728	-0.432037	-0.274669
C286	C	0.112272	0.067963	0.225331
H287	H	-0.455490	-0.356546	-0.284798
H288	H	0.044510	0.143454	0.215202
H289	H	-0.404255	-0.348214	-0.349320
H290	H	0.095745	0.151786	0.150680
H291	H	-0.452307	-0.416799	-0.353541
H292	H	0.047693	0.083201	0.146459
H293	H	-0.363617	-0.399817	-0.240296
H294	H	0.136383	0.100183	0.259704
H295	H	-0.411675	-0.468407	-0.244499
H296	H	0.088325	0.031593	0.255501
H297	H	-0.662202	-1.233954	-0.289343
H298	H	-0.162202	-0.733954	0.210657
H299	H	-0.542939	-1.050361	-0.472561
H300	H	-0.042939	-0.550361	0.027439
H301	H	-0.943779	-1.050545	-0.472640
H302	H	-0.443779	-0.550545	0.027360
