data_functionalizedCrystal
_audit_creation_method	'MofGen! by Chris Wilmer'
_symmetry_space_group_name_H-M	'P1'
_symmetry_Int_Tables_number	1
_symmetry_cell_setting	triclinic
loop_
_symmetry_equiv_pos_as_xyz
  x,y,z
_cell_length_a	14.519731
_cell_length_b	11.892314
_cell_length_c	12.837942
_cell_angle_alpha	93.956320
_cell_angle_beta	89.258897
_cell_angle_gamma	94.347339
loop_
_atom_site_label
_atom_site_type_symbol
_atom_site_fract_x
_atom_site_fract_y
_atom_site_fract_z
O1	O	-1.229831	0.094029	-0.130083
O2	O	-0.962738	0.094025	-0.146066
O3	O	-1.090363	0.094020	0.012839
O4	O	-1.102207	0.094034	-0.288988
O5	O	-1.101901	-0.093981	0.000985
O6	O	-0.974277	-0.093976	-0.157920
O7	O	-1.241370	-0.093971	-0.141938
Zn8	Zn	-1.109655	-0.123823	-0.151811
Zn9	Zn	-1.094453	0.123876	-0.136192
O10	O	-1.113746	-0.093966	-0.300843
C11	C	-0.934083	0.000024	-0.151244
C12	C	-0.831509	0.000022	-0.149000
N13	N	-1.120038	-0.292870	-0.162470
C14	C	-0.748208	0.000025	-0.147176
C15	C	-0.643702	0.000023	-0.144898
C16	C	-0.560407	0.000021	-0.143090
C17	C	-0.455895	0.000021	-0.140812
C18	C	-1.192432	-0.470362	-0.236681
C19	C	-1.185145	-0.352025	-0.229226
C20	C	-1.062212	-0.352062	-0.103167
C21	C	-1.069499	-0.470399	-0.110622
C22	C	-1.134612	-0.529545	-0.177380
C23	C	-1.141903	-0.647885	-0.184828
C24	C	-1.018966	-0.647920	-0.058776
C25	C	-1.011679	-0.529583	-0.051321
C26	C	-0.270025	0.000026	-0.136759
C27	C	-0.372599	0.000019	-0.139004
C28	C	-1.092130	0.000020	0.045541
C29	C	-1.080196	0.000022	0.160641
N30	N	-1.084077	0.292924	-0.125525
C31	C	-1.111977	0.000036	-0.333544
C32	C	-1.123911	0.000041	-0.448644
C33	C	-1.223665	0.000048	0.401323
C34	C	-1.212456	0.000049	0.509470
C35	C	-1.046570	0.000035	0.485087
C36	C	-1.057779	0.000033	0.376939
C37	C	-1.146329	0.000038	0.335061
C38	C	-1.157538	0.000028	0.226911
C39	C	-0.991652	0.000022	0.202530
C40	C	-0.980443	0.000024	0.310677
H41	H	-1.245454	-0.518519	-0.291031
N42	N	-0.956135	0.000024	0.527899
N43	N	-0.936252	-0.079219	0.580547
H44	H	-0.872382	-0.079228	0.610789
N45	N	-0.890002	0.000029	0.353477
N46	N	-0.880003	0.000037	0.450038
H47	H	-0.816127	0.000039	0.480266
N48	N	-1.291441	0.000064	0.577172
N49	N	-1.298824	0.079312	0.645234
H50	H	-1.354610	0.079324	0.693051
H51	H	-0.971884	-0.696119	-0.010489
N52	N	-1.247993	0.000021	0.184147
N53	N	-1.317034	0.000029	0.243326
H54	H	-1.380921	0.000025	0.213128
H55	H	-1.009195	-0.303885	-0.048821
N56	N	-1.314112	0.000019	0.358534
N57	N	-1.373254	-0.079234	0.373778
H58	H	-1.437135	-0.079258	0.343558
N59	N	-1.208421	-0.708286	-0.253016
N60	N	-1.260039	-0.655424	-0.305957
H61	H	-1.307019	-0.698079	-0.354118
N62	N	-1.244214	-0.291587	-0.289806
N63	N	-1.302344	-0.344415	-0.349402
H64	H	-1.344066	-0.301732	-0.392190
H65	H	-0.928680	0.000005	0.148567
N66	N	-0.945204	-0.469148	0.016899
N67	N	-0.948605	-0.482360	0.112662
H68	H	-0.901665	-0.439675	0.160852
