data_functionalizedCrystal
_audit_creation_method	'MofGen! by Chris Wilmer'
_symmetry_space_group_name_H-M	'P1'
_symmetry_Int_Tables_number	1
_symmetry_cell_setting	triclinic
loop_
_symmetry_equiv_pos_as_xyz
  x,y,z
_cell_length_a	17.019282
_cell_length_b	14.519709
_cell_length_c	16.098692
_cell_angle_alpha	86.949862
_cell_angle_beta	83.070929
_cell_angle_gamma	83.534293
loop_
_atom_site_label
_atom_site_type_symbol
_atom_site_fract_x
_atom_site_fract_y
_atom_site_fract_z
O1	O	1.047113	0.117739	-0.005866
O2	O	0.816718	0.131857	0.010665
O3	O	0.938024	-0.009437	0.001954
O4	O	0.925806	0.259033	0.002846
O5	O	0.944327	-0.002061	-0.137008
O6	O	0.823020	0.139233	-0.128296
O7	O	1.053416	0.125114	-0.144827
Zn8	Zn	0.939219	0.133345	-0.158625
Zn9	Zn	0.930915	0.123627	0.024463
O10	O	0.932109	0.266409	-0.136116
C11	C	0.940606	-0.040109	-0.067486
C12	C	0.938900	-0.142491	-0.067364
C13	C	0.790383	0.134866	-0.056700
C14	C	0.702524	0.132833	-0.050396
C15	C	0.932618	-0.517391	-0.066892
C16	C	0.934362	-0.413082	-0.067023
C17	C	0.935759	-0.329945	-0.067129
C18	C	0.937504	-0.225629	-0.067259
C19	C	0.664688	0.135896	-0.123185
C20	C	0.582137	0.133971	-0.117264
C21	C	0.537422	0.128990	-0.038554
C22	C	0.575264	0.125924	0.034239
C23	C	0.657814	0.127842	0.028318
C24	C	0.288001	0.122990	-0.016886
C25	C	0.205445	0.121075	-0.010970
C26	C	0.212324	0.129121	-0.162474
C27	C	0.294875	0.131045	-0.168389
C28	C	0.332710	0.127973	-0.095595
C29	C	0.453041	0.127025	-0.032501
C30	C	0.417090	0.129932	-0.101649
C31	C	1.079750	0.122105	-0.077460
C32	C	1.167609	0.124138	-0.083758
C33	C	0.929527	0.297081	-0.066674
C34	C	0.931233	0.399463	-0.066791
N35	N	0.944892	0.139976	-0.283578
C36	C	0.898817	0.086215	-0.323884
C37	C	0.902805	0.090865	-0.411357
C38	C	0.952873	0.149272	-0.458522
C39	C	0.998950	0.203040	-0.418210
C40	C	0.994956	0.198394	-0.330738
C41	C	0.967331	0.166110	-0.722801
C42	C	0.971322	0.170749	-0.810278
C43	C	0.875177	0.058576	-0.803419
C44	C	0.871192	0.053931	-0.715947
C45	C	0.917265	0.107702	-0.675642
C46	C	0.956953	0.154025	-0.547934
C47	C	0.913180	0.102954	-0.586232
N48	N	0.925248	0.116988	0.149415
H49	H	0.701088	0.139961	-0.187279
H50	H	0.551336	0.136450	-0.176536
H51	H	0.865287	0.047086	-0.444170
H52	H	0.997721	0.201577	-0.586345
H53	H	0.830424	0.006367	-0.677550
H54	H	0.331277	0.135097	-0.232482
H55	H	0.453501	0.133983	-0.165735
H56	H	0.872412	0.055403	-0.547826
H57	H	0.181510	0.131620	-0.221739
H58	H	1.012095	0.218315	-0.848678
H59	H	0.837666	0.014800	-0.836245
H60	H	1.039712	0.250600	-0.456618
H61	H	1.004851	0.209890	-0.689996
H62	H	1.032473	0.242175	-0.297922
H63	H	0.169040	0.117021	0.053128
H64	H	0.318797	0.120487	0.042388
H65	H	0.538851	0.121861	0.098327
H66	H	0.688619	0.125350	0.087590
H67	H	0.416625	0.122969	0.031585
H68	H	0.858049	0.038651	-0.285488
