data_functionalizedCrystal
_audit_creation_method	'MofGen! by Chris Wilmer'
_symmetry_space_group_name_H-M	'P1'
_symmetry_Int_Tables_number	1
_symmetry_cell_setting	triclinic
loop_
_symmetry_equiv_pos_as_xyz
  x,y,z
_cell_length_a	12.645331
_cell_length_b	12.594516
_cell_length_c	12.645323
_cell_angle_alpha	90.025622
_cell_angle_beta	90.022676
_cell_angle_gamma	90.010795
loop_
_atom_site_label
_atom_site_type_symbol
_atom_site_fract_x
_atom_site_fract_y
_atom_site_fract_z
Zn1	Zn	1.620775	-0.423763	0.599441
Zn2	Zn	1.620674	-0.601766	0.422178
Zn3	Zn	1.443489	-0.423799	0.422185
Zn4	Zn	1.443489	-0.601696	0.599394
O5	O	1.532107	-0.512756	0.510800
O6	O	1.769108	-0.447389	0.575943
O7	O	1.597128	-0.578202	0.273832
O8	O	1.467048	-0.274848	0.445721
O9	O	1.769035	-0.578167	0.445710
O10	O	1.597299	-0.274822	0.575950
O11	O	1.466951	-0.447451	0.273837
O12	O	1.295142	-0.447383	0.445675
O13	O	1.467048	-0.578049	0.747747
O14	O	1.295142	-0.578084	0.575870
O15	O	1.597299	-0.447322	0.747782
O16	O	1.597128	-0.750702	0.445664
O17	O	1.466951	-0.750651	0.575864
C18	C	1.256677	-0.512731	0.510769
C19	C	1.138847	-0.512745	0.510781
C20	C	0.971248	-0.430143	0.429327
C21	C	1.093807	-0.430357	0.428969
C22	C	1.094338	-0.624870	0.480265
C23	C	0.971740	-0.624419	0.479709
C24	C	0.971695	-0.484290	0.623065
C25	C	1.094300	-0.481785	0.622442
C26	C	1.532058	-0.789297	0.510781
C27	C	1.532134	-0.907602	0.510809
C28	C	1.603019	-0.976844	0.440069
C29	C	1.628928	-1.047545	0.536828
C30	C	1.506358	-1.047700	0.414111
C31	C	1.558092	-0.976745	0.607618
C32	C	1.435477	-0.976894	0.484837
C33	C	1.461348	-1.047563	0.581662
C34	C	1.808612	-0.512782	0.510831
C35	C	1.926442	-0.512793	0.510844
C36	C	1.532185	-0.512674	0.787305
C37	C	1.532218	-0.512639	0.905135
C38	C	1.532185	-0.235135	0.510841
C39	C	1.532218	-0.116830	0.510859
C40	C	1.532090	-0.512761	0.235370
C41	C	1.532262	-0.512496	0.117540
C42	C	1.450024	-0.594491	1.072678
C43	C	1.450240	-0.594897	0.950118
C44	C	1.643921	-0.543081	0.949655
C45	C	1.643470	-0.543595	1.072253
C46	C	1.503765	-0.399885	1.072334
C47	C	1.501273	-0.400561	0.949728
H48	H	1.124964	-0.537592	0.686426
O49	O	1.129574	-0.331143	0.451896
C50	C	1.092633	-0.300482	0.552565
H51	H	1.018662	-0.347975	0.572995
H52	H	1.072846	-0.212180	0.551937
H53	H	1.156514	-0.316499	0.614164
O54	O	1.672429	-0.641803	1.106259
C55	C	1.774660	-0.665586	1.068622
H56	H	1.791978	-0.615700	0.995447
H57	H	1.779315	-0.753422	1.047318
H58	H	1.835351	-0.646870	1.132666
H59	H	1.469053	-0.678380	0.920802
O60	O	0.936999	-0.556164	0.695403
C61	C	0.872187	-0.631900	0.644912
H62	H	0.838659	-0.596595	0.568980
H63	H	0.804490	-0.654986	0.699797
H64	H	0.921002	-0.705360	0.625133
H65	H	1.468654	-0.677453	1.103495
O66	O	1.726563	-1.084392	0.563037
C67	C	1.795217	-0.997917	0.580503
H68	H	1.763987	-0.925057	0.537107
H69	H	1.877434	-1.018385	0.549679
H70	H	1.799746	-0.980383	0.668845
H71	H	1.579847	-0.945710	0.689486
O72	O	1.674618	-0.939969	0.368753
C73	C	1.725468	-1.026416	0.319424
H74	H	1.720035	-1.099287	0.372588
H75	H	1.812119	-1.005911	0.305234
H76	H	1.685370	-1.043951	0.240563
H77	H	1.353723	-0.945834	0.462812
O78	O	0.937509	-0.653425	0.381908
C79	C	0.875421	-0.746067	0.389939
H80	H	0.896983	-0.790433	0.465487
H81	H	0.890906	-0.799275	0.318654
H82	H	0.788170	-0.723406	0.392168
H83	H	1.123087	-0.449196	0.345808
O84	O	1.480422	-1.084755	0.316451
C85	C	1.555341	-1.048744	0.242108
H86	H	1.595675	-0.974169	0.273537
H87	H	1.513814	-1.029748	0.164352
H88	H	1.617115	-1.113193	0.228317
H89	H	1.401439	-1.078418	0.641576
H90	H	1.556794	-0.336240	0.919108
O91	O	1.351436	-0.572320	0.914076
C92	C	1.314063	-0.657739	0.852391
H93	H	1.384040	-0.705287	0.820992
H94	H	1.265893	-0.625711	0.783184
H95	H	1.262035	-0.711289	0.903115
H96	H	1.419070	-0.377602	0.920629
H97	H	1.366948	-0.575624	1.102151
H98	H	1.706822	-0.486466	1.101932
H99	H	1.123396	-0.399274	0.645453
O100	O	0.934325	-0.452255	0.330723
C101	C	0.876434	-0.364695	0.292356
H102	H	0.847092	-0.315020	0.361777
H103	H	0.805925	-0.394264	0.244466
H104	H	0.929468	-0.313998	0.239799
H105	H	1.423729	-0.372136	1.103239
O106	O	1.718979	-0.474179	0.914719
C107	C	1.722688	-0.476805	0.803313
H108	H	1.689551	-0.555670	0.773935
H109	H	1.808122	-0.468062	0.775912
H110	H	1.673392	-0.408808	0.770006
O111	O	1.673105	-0.640347	0.913174
C112	C	1.598568	-0.716770	0.946047
H113	H	1.555098	-0.686508	1.019040
H114	H	1.641030	-0.794051	0.965998
H115	H	1.539307	-0.731549	0.879687
O116	O	1.575278	-0.327127	1.107082
C117	C	1.650757	-0.377676	1.171887
H118	H	1.615668	-0.453960	1.205370
H119	H	1.673694	-0.322508	1.239617
H120	H	1.723943	-0.397433	1.123081
H121	H	0.942102	-0.688084	0.536493
O122	O	0.936218	-0.330576	0.451768
C123	C	0.977733	-0.258465	0.377309
H124	H	1.052777	-0.292947	0.341059
H125	H	0.997108	-0.180202	0.418299
H126	H	0.916886	-0.243934	0.312362
O127	O	1.129012	-0.700431	0.548794
C128	C	1.087622	-0.800034	0.519083
H129	H	1.012826	-0.787957	0.470195
H130	H	1.067864	-0.847869	0.592997
H131	H	1.148706	-0.844818	0.470034
H132	H	1.124996	-0.649457	0.399106
H133	H	0.940790	-0.403956	0.650818
