data_functionalizedCrystal
_audit_creation_method	'MofGen! by Chris Wilmer'
_symmetry_space_group_name_H-M	'P1'
_symmetry_Int_Tables_number	1
_symmetry_cell_setting	triclinic
loop_
_symmetry_equiv_pos_as_xyz
  x,y,z
_cell_length_a	19.288864
_cell_length_b	19.288859
_cell_length_c	13.448316
_cell_angle_alpha	89.992367
_cell_angle_beta	90.028391
_cell_angle_gamma	96.865013
loop_
_atom_site_label
_atom_site_type_symbol
_atom_site_fract_x
_atom_site_fract_y
_atom_site_fract_z
O1	O	-0.086629	0.921353	-0.082759
O2	O	-0.098322	0.719092	-0.082763
O3	O	0.008655	0.826067	-0.082699
O4	O	-0.193606	0.814378	-0.082822
O5	O	0.008661	0.826053	0.082685
O6	O	-0.098316	0.719078	0.082621
O7	O	-0.086622	0.921340	0.082625
Cu8	Cu	-0.092468	0.820208	0.097724
Cu9	Cu	-0.092476	0.820224	-0.097862
O10	O	-0.193599	0.814365	0.082562
C11	C	-0.097943	0.693209	-0.000070
C12	C	-0.096816	0.616105	-0.000069
C13	C	-0.151959	0.052064	-0.000104
C14	C	-0.153025	0.124511	-0.000110
C15	C	-0.090255	0.169217	-0.000069
C16	C	-0.026416	0.141472	-0.000049
C17	C	-0.025353	0.069027	-0.000053
C18	C	-0.043440	0.290483	0.057904
C19	C	-0.044506	0.362927	0.057914
C20	C	-0.093533	0.392663	-0.000061
C21	C	-0.141505	0.349946	-0.058034
C22	C	-0.140442	0.277500	-0.058038
C23	C	-0.091402	0.247773	-0.000066
C24	C	-0.158523	0.498955	-0.000095
C25	C	-0.159586	0.571403	-0.000107
C26	C	-0.032976	0.588364	-0.000037
C27	C	-0.031915	0.515917	-0.000035
C28	C	-0.094691	0.471216	-0.000059
C29	C	-0.219479	0.814747	-0.000146
C30	C	-0.296583	0.815876	-0.000193
C31	C	-0.341280	0.753108	-0.000175
C32	C	-0.413727	0.754169	-0.000152
C33	C	-0.441474	0.818001	-0.000129
C34	C	-0.396766	0.880778	-0.000153
C35	C	-0.324321	0.879715	-0.000185
C36	C	-0.549720	0.868176	0.057866
C37	C	-0.622165	0.869236	0.057905
C38	C	-0.664919	0.821281	-0.000033
C39	C	-0.635222	0.772255	-0.057996
C40	C	-0.562776	0.771192	-0.058029
C41	C	-0.520028	0.819161	-0.000094
C42	C	-0.788173	0.759659	0.000009
C43	C	-0.860621	0.760722	0.000025
C44	C	-0.843658	0.887333	0.000034
C45	C	-0.771211	0.886267	0.000008
C46	C	-0.743473	0.822429	0.000000
C47	C	0.034535	0.825684	0.000006
C48	C	0.111638	0.824555	0.000047
C49	C	-0.087001	0.947223	-0.000069
C50	C	-0.088128	1.024327	-0.000078
N51	N	-0.092463	0.820202	0.235288
N52	N	-0.092476	0.820235	-0.235426
C53	C	-0.045112	0.867585	0.287357
C54	C	-0.045112	0.867589	0.391460
C55	C	-0.092465	0.820213	0.443493
C56	C	-0.139818	0.772825	0.391417
C57	C	-0.139814	0.772818	0.287316
C58	C	-0.139822	0.772844	0.608397
C59	C	-0.139827	0.772852	0.712506
C60	C	-0.045120	0.867616	0.712541
C61	C	-0.045116	0.867609	0.608440
C62	C	-0.092470	0.820221	0.556372
H63	H	-0.209639	0.462558	-0.000117
N64	N	0.034728	0.636572	-0.000004
H65	H	0.024370	0.686676	-0.000009
H66	H	0.062563	0.627608	0.061319
N67	N	-0.681326	0.720532	-0.120499
H68	H	-0.667883	0.726825	-0.192800
H69	H	-0.675237	0.671497	-0.098795
N70	N	-0.426691	0.949625	-0.000119
H71	H	-0.410337	0.977108	0.061184
H72	H	-0.410404	0.977065	-0.061472
N73	N	0.041285	0.189689	0.000007
H74	H	0.081885	0.161122	0.000024
H75	H	0.043598	0.220127	-0.061296
N76	N	0.043496	0.039105	-0.000024
H77	H	0.083101	0.078417	-0.000003
H78	H	0.046699	0.009412	0.061288
H79	H	-0.318701	0.701126	-0.000190
H80	H	-0.866248	0.939306	-0.000019
N81	N	-0.190905	0.721762	0.768631
H82	H	-0.220902	0.691739	0.719851
H83	H	-0.164395	0.691147	0.811863
H84	H	-0.179501	0.242723	-0.105244
H85	H	-0.006555	0.906172	0.433854
N86	N	-0.461957	0.686472	-0.000102
H87	H	-0.492435	0.684088	-0.061388
H88	H	-0.433351	0.645904	-0.000069
H89	H	-0.514914	0.907232	0.105045
H90	H	-0.205005	0.147099	-0.000121
N91	N	0.005968	0.918671	0.231229
H92	H	-0.020489	0.949338	0.188000
H93	H	0.035959	0.948641	0.280068
N94	N	0.007230	0.408989	0.120451
H95	H	0.056284	0.402933	0.098840
H96	H	-0.000943	0.459375	0.111645
N97	N	-0.190886	0.721716	0.231147
H98	H	-0.164418	0.691046	0.187990
H99	H	-0.220875	0.691752	0.279964
H100	H	-0.178380	0.734254	0.566006
H101	H	-0.003513	0.266279	0.105117
N102	N	-0.530744	0.718313	-0.120530
H103	H	-0.568817	0.688090	-0.157227
H104	H	-0.497286	0.743430	-0.170034
H105	H	-0.287927	0.930830	-0.000202
H106	H	-0.006561	0.906189	0.566075
N107	N	0.005953	0.918735	0.768685
H108	H	0.036650	0.892308	0.811910
H109	H	0.035894	0.948734	0.719853
N110	N	-0.219664	0.003852	-0.000044
H111	H	-0.260263	0.032421	-0.000032
H112	H	-0.222032	-0.026599	-0.061328
N113	N	-0.194392	0.382006	-0.120566
H114	H	-0.187787	0.434381	-0.111772
H115	H	-0.187719	0.370217	-0.192834
N116	N	-0.758248	0.690809	-0.000005
H117	H	-0.797561	0.651205	0.000002
H118	H	-0.728590	0.687617	-0.061326
H119	H	-0.897014	0.709607	0.000034
N120	N	-0.190891	0.721730	0.447542
H121	H	-0.240168	0.729569	0.429382
H122	H	-0.182956	0.672481	0.429432
N123	N	-0.228436	0.601323	-0.000154
H124	H	-0.268039	0.562010	-0.000171
H125	H	-0.231631	0.631010	0.061151
H126	H	0.020063	0.493333	-0.000007
H127	H	-0.734817	0.937380	-0.000001
H128	H	-0.646339	0.909153	0.105106
