data_functionalizedCrystal
_audit_creation_method	'MofGen! by Chris Wilmer'
_symmetry_space_group_name_H-M	'P1'
_symmetry_Int_Tables_number	1
_symmetry_cell_setting	triclinic
loop_
_symmetry_equiv_pos_as_xyz
  x,y,z
_cell_length_a	14.908571
_cell_length_b	17.640280
_cell_length_c	14.908308
_cell_angle_alpha	97.330278
_cell_angle_beta	89.824947
_cell_angle_gamma	74.921313
loop_
_atom_site_label
_atom_site_type_symbol
_atom_site_fract_x
_atom_site_fract_y
_atom_site_fract_z
Zn1	Zn	1.445833	-0.413045	0.498174
Zn2	Zn	1.484886	-0.538235	0.320716
Zn3	Zn	1.300448	-0.397842	0.342463
Zn4	Zn	1.325685	-0.537295	0.462571
O5	O	1.389213	-0.471604	0.405981
O6	O	1.578484	-0.436407	0.480433
O7	O	1.466202	-0.513643	0.199068
O8	O	1.292829	-0.289105	0.387120
O9	O	1.607176	-0.528384	0.350055
O10	O	1.399643	-0.300274	0.501520
O11	O	1.330696	-0.410497	0.215045
O12	O	1.176326	-0.409585	0.352597
O13	O	1.335841	-0.526782	0.591827
O14	O	1.194867	-0.512041	0.440840
O15	O	1.424113	-0.435496	0.617984
O16	O	1.490673	-0.648865	0.315532
O17	O	1.373708	-0.648174	0.419752
C18	C	1.152545	-0.459062	0.395215
C19	C	1.051300	-0.453716	0.390626
C20	C	0.880453	-0.550508	0.473704
C21	C	0.785325	-0.545487	0.469395
C22	C	0.765915	-0.438653	0.377705
C23	C	0.861043	-0.443673	0.382014
C24	C	0.918309	-0.499603	0.430014
C25	C	1.013439	-0.504626	0.434317
C26	C	0.994026	-0.397788	0.342633
C27	C	0.898899	-0.392768	0.338324
C28	C	1.439191	-0.677239	0.361439
C29	C	1.460653	-0.765216	0.342418
C30	C	1.226523	-1.052872	0.550826
C31	C	1.246694	-1.135539	0.532924
C32	C	1.368555	-1.136202	0.424518
C33	C	1.348398	-1.053534	0.442414
C34	C	1.277380	-1.011876	0.505568
C35	C	1.399256	-1.012538	0.397156
C36	C	1.379096	-0.929876	0.415047
C37	C	1.308080	-0.888212	0.478197
C38	C	1.257221	-0.929214	0.523460
C39	C	1.470269	-1.054197	0.333997
C40	C	1.521126	-1.013201	0.288739
C41	C	1.500972	-0.930538	0.306635
C42	C	1.429955	-0.888874	0.369784
C43	C	1.551830	-0.889536	0.261372
C44	C	1.531671	-0.806875	0.279264
C45	C	1.409796	-0.806213	0.387676
C46	C	1.626806	-0.484197	0.416790
C47	C	1.728054	-0.489563	0.421396
C48	C	1.378436	-0.482730	0.638098
C49	C	1.373843	-0.487470	0.737013
C50	C	1.339064	-0.265169	0.450717
C51	C	1.317694	-0.177199	0.469781
C52	C	1.399987	-0.460468	0.174782
C53	C	1.404702	-0.455514	0.075924
C54	C	1.457124	-0.401304	0.950127
C55	C	1.452812	-0.405756	1.043067
C56	C	1.360899	-0.500821	1.015834
C57	C	1.365212	-0.496369	0.922895
C58	C	1.413328	-0.446610	0.890045
C59	C	1.417646	-0.442163	0.797102
C60	C	1.325728	-0.537224	0.769872
C61	C	1.321415	-0.541675	0.862812
H62	H	1.060064	-0.550169	0.473399
C63	C	1.492445	-1.145128	0.314321
N64	N	1.509150	-1.213617	0.299504
C65	C	0.943448	-0.612033	0.526499
N66	N	0.990895	-0.658375	0.566267
H67	H	1.321726	-0.541333	1.042598
C68	C	0.702905	-0.377127	0.324920
N69	N	0.655444	-0.330784	0.285163
C70	C	1.148388	-1.007042	0.620287
N71	N	1.089532	-0.972522	0.672595
C72	C	0.835896	-0.331248	0.285527
N73	N	0.788444	-0.284912	0.245757
C74	C	0.743689	-0.601492	0.517450
N75	N	0.712330	-0.643678	0.553646
C76	C	1.035676	-0.341792	0.294567
N77	N	1.067048	-0.299619	0.258362
C78	C	1.510056	-0.346573	0.913989
N79	N	1.549925	-0.305348	0.886772
C80	C	1.268483	-0.596402	0.898960
N81	N	1.228613	-0.637622	0.926185
C82	C	1.277549	-0.587064	0.703773
N83	N	1.241264	-0.624604	0.653986
C84	C	1.331661	-0.760382	0.457137
N85	N	1.272805	-0.725862	0.509445
H86	H	1.205284	-1.168916	0.569795
C87	C	1.179086	-0.883384	0.592920
N88	N	1.120230	-0.848864	0.645229
C89	C	1.599240	-1.059034	0.219268
N90	N	1.658078	-1.093555	0.166941
H91	H	1.426376	-1.170132	0.373095
C92	C	1.629938	-0.935371	0.191895
N93	N	1.688769	-0.969893	0.139562
C94	C	1.587624	-0.761777	0.229485
N95	N	1.629770	-0.727809	0.191991
H96	H	1.456825	-0.401647	0.770358
C97	C	1.500995	-0.355918	1.109155
N98	N	1.537289	-0.318378	1.158933
H99	H	1.291662	-0.820903	0.492756
