data_functionalizedCrystal
_audit_creation_method	'MofGen! by Chris Wilmer'
_symmetry_space_group_name_H-M	'P1'
_symmetry_Int_Tables_number	1
_symmetry_cell_setting	triclinic
loop_
_symmetry_equiv_pos_as_xyz
  x,y,z
_cell_length_a	14.908783
_cell_length_b	29.839131
_cell_length_c	14.908308
_cell_angle_alpha	93.253999
_cell_angle_beta	89.788727
_cell_angle_gamma	93.325426
loop_
_atom_site_label
_atom_site_type_symbol
_atom_site_fract_x
_atom_site_fract_y
_atom_site_fract_z
Zn1	Zn	1.345237	-0.157131	-0.587761
Zn2	Zn	1.845237	0.342869	-0.087761
Zn3	Zn	1.353783	-0.227697	-0.437371
Zn4	Zn	1.853783	0.272303	0.062629
Zn5	Zn	1.203551	-0.156645	-0.428733
Zn6	Zn	1.703551	0.343355	0.071267
Zn7	Zn	1.194804	-0.236300	-0.578989
Zn8	Zn	1.694804	0.263700	-0.078989
O9	O	1.274344	-0.194443	-0.508213
O10	O	1.774344	0.305557	-0.008213
O11	O	1.472200	-0.163095	-0.575098
O12	O	1.972200	0.336905	-0.075098
O13	O	1.341091	-0.214468	-0.310403
O14	O	1.841091	0.285532	0.189597
O15	O	1.222430	-0.093842	-0.449885
O16	O	1.722430	0.406158	0.050115
O17	O	1.478479	-0.214940	-0.464607
O18	O	1.978479	0.285060	0.035393
O19	O	1.326526	-0.094199	-0.566722
O20	O	1.826526	0.405801	-0.066722
O21	O	1.230716	-0.162267	-0.304057
O22	O	1.730716	0.337733	0.195943
O23	O	1.076561	-0.170608	-0.441378
O24	O	1.576561	0.329392	0.058622
O25	O	1.207522	-0.229602	-0.705974
O26	O	1.707522	0.270398	-0.205974
O27	O	1.070135	-0.229130	-0.551771
O28	O	1.570135	0.270870	-0.051771
O29	O	1.318045	-0.171437	-0.712419
O30	O	1.818045	0.328563	-0.212419
O31	O	1.332610	-0.291706	-0.456100
O32	O	1.832610	0.208294	0.043900
O33	O	1.215809	-0.298027	-0.560146
O34	O	1.715809	0.201973	-0.060146
C35	C	1.040722	-0.200750	-0.494686
C36	C	1.540722	0.299250	0.005314
C37	C	0.940776	-0.203460	-0.488920
C38	C	1.440776	0.296540	0.011080
C39	C	0.746417	-0.154650	-0.593315
C40	C	1.246417	0.345350	-0.093315
C41	C	0.652509	-0.157194	-0.587901
C42	C	1.152509	0.342806	-0.087901
C43	C	0.659050	-0.211091	-0.472672
C44	C	1.159050	0.288909	0.027328
C45	C	0.752958	-0.208546	-0.478087
C46	C	1.252958	0.291454	0.021913
C47	C	0.796638	-0.180325	-0.538411
C48	C	1.296638	0.319675	-0.038411
C49	C	0.890548	-0.177784	-0.543830
C50	C	1.390548	0.322216	-0.043830
C51	C	0.897087	-0.231677	-0.428597
C52	C	1.397087	0.268323	0.071403
C53	C	0.803179	-0.234222	-0.423182
C54	C	1.303179	0.265778	0.076818
C55	C	1.274211	-0.311167	-0.508130
C56	C	1.774211	0.188833	-0.008130
C57	C	1.274235	-0.361101	-0.508129
C58	C	1.774235	0.138899	-0.008129
C59	C	1.328529	-0.670898	-0.569132
C60	C	1.828529	-0.170898	-0.069132
C61	C	1.328624	-0.858570	-0.569192
C62	C	1.828624	-0.358570	-0.069192
O63	O	1.374656	-0.882967	-0.620995
O64	O	1.874656	-0.382967	-0.120995
N65	N	1.274490	-0.881884	-0.508322
N66	N	1.774490	-0.381884	-0.008322
C67	C	1.220325	-0.858278	-0.447437
C68	C	1.720325	-0.358278	0.052563
O69	O	1.174277	-0.882415	-0.395671
O70	O	1.674277	-0.382415	0.104329
C71	C	1.220227	-0.670607	-0.447382
C72	C	1.720227	-0.170607	0.052618
C73	C	1.274370	-0.647295	-0.508250
C74	C	1.774370	-0.147295	-0.008250
C75	C	1.382668	-0.647585	-0.629995
C76	C	1.882668	-0.147585	-0.129995
C77	C	1.382647	-0.600670	-0.629976
C78	C	1.882647	-0.100670	-0.129976
C79	C	1.328488	-0.577067	-0.569094
C80	C	1.828488	-0.077067	-0.069094
C81	C	1.274350	-0.600380	-0.508231
C82	C	1.774350	-0.100380	-0.008231
C83	C	1.166057	-0.647003	-0.386503
C84	C	1.666057	-0.147003	0.113497
C85	C	1.166036	-0.600082	-0.386496
C86	C	1.666036	-0.100082	0.113504
C87	C	1.220179	-0.576769	-0.447363
C88	C	1.720179	-0.076769	0.052637
C89	C	1.220170	-0.529861	-0.447330
C90	C	1.720170	-0.029861	0.052670
N91	N	1.274304	-0.506547	-0.508200
N92	N	1.774304	-0.006547	-0.008200
C93	C	1.328463	-0.530150	-0.569082
C94	C	1.828463	-0.030150	-0.069082
C95	C	1.220382	-0.956808	-0.447469
C96	C	1.720382	-0.456808	0.052531
C97	C	1.220408	-1.003726	-0.447481
C98	C	1.720408	-0.503726	0.052519
C99	C	1.328705	-1.004014	-0.569237
C100	C	1.828705	-0.504014	-0.069237
C101	C	1.328684	-0.957095	-0.569220
C102	C	1.828684	-0.457095	-0.069220
C103	C	1.274516	-0.933494	-0.508339
C104	C	1.774516	-0.433494	-0.008339
C105	C	1.328416	-0.431624	-0.569037
C106	C	1.828416	0.068376	-0.069037
C107	C	1.328393	-0.384704	-0.569011
C108	C	1.828393	0.115296	-0.069011
C109	C	1.220093	-0.384420	-0.447258
C110	C	1.720093	0.115580	0.052742
C111	C	1.220119	-0.431335	-0.447282
C112	C	1.720119	0.068665	0.052718
C113	C	1.274283	-0.454936	-0.508178
C114	C	1.774283	0.045064	-0.008178
O115	O	1.174155	-0.505436	-0.395561
O116	O	1.674155	-0.005436	0.104439
O117	O	1.374489	-0.506005	-0.620853
O118	O	1.874489	-0.006005	-0.120853
C119	C	1.328550	-0.717813	-0.569151
C120	C	1.828550	-0.217813	-0.069151
C121	C	1.274411	-0.741126	-0.508288
C122	C	1.774411	-0.241126	-0.008288
C123	C	1.220252	-0.717523	-0.447406
C124	C	1.720252	-0.217523	0.052594
C125	C	1.274437	-0.788043	-0.508300
C126	C	1.774437	-0.288043	-0.008300
C127	C	1.328596	-0.811646	-0.569182
C128	C	1.828596	-0.311646	-0.069182
C129	C	1.382729	-0.788331	-0.630052
C130	C	1.882729	-0.288331	-0.130052
C131	C	1.382709	-0.741416	-0.630033
C132	C	1.882709	-0.241416	-0.130033
C133	C	1.166119	-0.740837	-0.386536
C134	C	1.666119	-0.240837	0.113464
C135	C	1.166145	-0.787753	-0.386559
C136	C	1.666145	-0.287753	0.113441
C137	C	1.220304	-0.811356	-0.447441
C138	C	1.720304	-0.311356	0.052559
C139	C	1.508878	-0.188112	-0.521795
C140	C	2.008878	0.311888	-0.021795
C141	C	1.608822	-0.185414	-0.527582
C142	C	2.108822	0.314586	-0.027582
C143	C	1.260855	-0.201533	-0.742733
C144	C	1.760855	0.298467	-0.242733
C145	C	1.255107	-0.204554	-0.842671
C146	C	1.755107	0.295446	-0.342671
C147	C	1.274500	-0.077264	-0.508319
C148	C	1.774500	0.422736	-0.008319
C149	C	1.274567	-0.027329	-0.508363
C150	C	1.774567	0.472671	-0.008363
C151	C	1.359390	-0.149654	-1.037179
C152	C	1.859390	0.350346	-0.537179
C153	C	1.353992	-0.152491	-1.131080
C154	C	1.853992	0.347509	-0.631080
C155	C	1.238908	-0.213063	-1.124376
C156	C	1.738908	0.286937	-0.624376
C157	C	1.244307	-0.210226	-1.030475
C158	C	1.744307	0.289774	-0.530475
C159	C	1.304550	-0.178521	-0.986880
C160	C	1.804550	0.321479	-0.486880
C161	C	1.309952	-0.175686	-0.892977
C162	C	1.809952	0.324314	-0.392977
C163	C	1.194865	-0.236256	-0.886275
C164	C	1.694865	0.263744	-0.386275
C165	C	1.189467	-0.239093	-0.980176
C166	C	1.689467	0.260907	-0.480176
C167	C	1.287832	-0.187348	-0.274609
C168	C	1.787832	0.312652	0.225391
C169	C	1.293754	-0.184195	-0.174682
C170	C	1.793754	0.315805	0.325318
H171	H	0.781982	-0.131673	-0.642438
H172	H	1.281982	0.368327	-0.142438
H173	H	0.611623	-0.136286	-0.632607
H174	H	1.111623	0.363714	-0.132607
H175	H	0.937987	-0.252588	-0.383897
H176	H	1.437987	0.247412	0.116103
Br177	Br	1.391714	-0.132661	-0.833813
Br178	Br	1.891714	0.367339	-0.333813
Br179	Br	1.157147	-0.256084	-1.183556
Br180	Br	1.657147	0.243916	-0.683556
H181	H	1.408447	-0.123841	-1.001683
H182	H	1.908447	0.376159	-0.501683
H183	H	0.623470	-0.234061	-0.423549
H184	H	1.123470	0.265939	0.076451
H185	H	0.767602	-0.257197	-0.374065
H186	H	1.267602	0.242803	0.125935
Br187	Br	1.401883	-0.353068	-0.651619
Br188	Br	1.901883	0.146932	-0.151619
H189	H	1.372515	-0.450834	-0.618631
H190	H	1.872515	0.049166	-0.118631
Br191	Br	1.402167	-0.925462	-0.651828
Br192	Br	1.902167	-0.425462	-0.151828
H193	H	1.426733	-0.581692	-0.679542
H194	H	1.926733	-0.081692	-0.179542
Br195	Br	1.428416	-0.113312	-1.199341
Br196	Br	1.928416	0.386688	-0.699341
H197	H	1.140417	-0.264905	-1.015684
H198	H	1.640417	0.235095	-0.515684
H199	H	1.122015	-0.721624	-0.336959
H200	H	1.622015	-0.221624	0.163041
H201	H	1.426770	-0.666798	-0.679578
H202	H	1.926770	-0.166798	-0.179578
H203	H	1.372805	-1.023239	-0.618809
H204	H	1.872805	-0.523239	-0.118809
Br205	Br	1.146940	-1.035357	-0.364858
Br206	Br	1.646940	-0.535357	0.135142
H207	H	1.176000	-0.365195	-0.397686
H208	H	1.676000	0.134805	0.102314
H209	H	1.176271	-0.937595	-0.397890
H210	H	1.676271	-0.437595	0.102110
H211	H	1.121968	-0.665976	-0.336937
H212	H	1.621968	-0.165976	0.163063
Br213	Br	1.092515	-0.568054	-0.303868
Br214	Br	1.592515	-0.068054	0.196132
H215	H	1.176038	-0.450317	-0.397712
H216	H	1.676038	0.049683	0.102288
H217	H	1.426797	-0.722438	-0.679597
H218	H	1.926797	-0.222438	-0.179597
H219	H	1.426831	-0.807557	-0.679621
H220	H	1.926831	-0.307557	-0.179621
Br221	Br	1.092662	-0.819385	-0.303940
Br222	Br	1.592662	-0.319385	0.196060
H223	H	0.926111	-0.154805	-0.592950
H224	H	1.426111	0.345195	-0.092950
Br225	Br	1.120448	-0.275441	-0.818008
Br226	Br	1.620448	0.224559	-0.318008
