data_functionalizedCrystal
_audit_creation_method	'MofGen! by Chris Wilmer'
_symmetry_space_group_name_H-M	'P1'
_symmetry_Int_Tables_number	1
_symmetry_cell_setting	triclinic
loop_
_symmetry_equiv_pos_as_xyz
  x,y,z
_cell_length_a	16.974800
_cell_length_b	12.837942
_cell_length_c	16.053802
_cell_angle_alpha	92.838962
_cell_angle_beta	91.074188
_cell_angle_gamma	89.097746
loop_
_atom_site_label
_atom_site_type_symbol
_atom_site_fract_x
_atom_site_fract_y
_atom_site_fract_z
O1	O	1.059003	0.132168	0.002153
O2	O	1.559003	0.632168	0.502153
O3	O	0.830734	0.148040	-0.013279
O4	O	1.330734	0.648040	0.486721
O5	O	0.939807	-0.010813	-0.005900
O6	O	1.439807	0.489187	0.494100
O7	O	0.949930	0.291020	-0.005226
O8	O	1.449930	0.791020	0.494774
O9	O	0.933800	-0.002105	0.132553
O10	O	1.433800	0.497895	0.632553
O11	O	0.824727	0.156747	0.125174
O12	O	1.324727	0.656747	0.625174
O13	O	1.052997	0.140875	0.140605
O14	O	1.552997	0.640875	0.640605
Zn15	Zn	0.937909	0.150194	0.154872
Zn16	Zn	1.437909	0.650194	0.654872
Zn17	Zn	0.945822	0.138721	-0.027545
Zn18	Zn	1.445822	0.638721	0.472455
O19	O	0.943924	0.299728	0.133227
O20	O	1.443924	0.799728	0.633227
C21	C	0.798310	0.151630	0.053959
C22	C	1.298310	0.651630	0.553959
C23	C	0.710646	0.149344	0.048033
C24	C	1.210646	0.649344	0.548033
C25	C	0.666191	0.153014	0.120721
C26	C	1.166191	0.653014	0.620721
C27	C	0.583822	0.150849	0.115155
C28	C	1.083822	0.650849	0.615155
C29	C	0.545908	0.145022	0.036901
C30	C	1.045908	0.645022	0.536901
C31	C	0.590368	0.141349	-0.035793
C32	C	1.090368	0.641349	0.464207
C33	C	0.672737	0.143506	-0.030227
C34	C	1.172737	0.643506	0.469773
C35	C	0.299914	0.138055	0.012159
C36	C	0.799914	0.638055	0.512159
C37	C	0.217540	0.135901	0.006598
C38	C	0.717540	0.635901	0.506598
C39	C	0.210999	0.145399	0.157548
C40	C	0.710999	0.645399	0.657548
C41	C	0.293369	0.147562	0.163107
C42	C	0.793369	0.647562	0.663107
C43	C	0.337822	0.143884	0.090413
C44	C	0.837822	0.643884	0.590413
N45	N	0.461713	0.142813	0.031210
N46	N	0.961713	0.642813	0.531210
N47	N	0.422016	0.146086	0.096105
N48	N	0.922016	0.646086	0.596105
C49	C	0.933384	-0.045089	0.063095
C50	C	1.433384	0.454911	0.563095
C51	C	0.923184	-0.160194	0.062404
C52	C	1.423184	0.339806	0.562404
C53	C	1.045801	-0.400816	0.070675
C54	C	1.545801	0.099184	0.570675
C55	C	1.036221	-0.508968	0.070026
C56	C	1.536221	-0.008968	0.570026
C57	C	0.894447	-0.484653	0.060451
C58	C	1.394447	0.015347	0.560451
C59	C	0.904026	-0.376501	0.061100
C60	C	1.404026	0.123499	0.561100
C61	C	0.979706	-0.334587	0.066214
C62	C	1.479706	0.165413	0.566214
C63	C	0.989284	-0.226432	0.066868
C64	C	1.489284	0.273568	0.566868
C65	C	0.847510	-0.202119	0.057287
C66	C	1.347510	0.297881	0.557287
C67	C	0.837931	-0.310272	0.056638
C68	C	1.337931	0.189728	0.556638
C69	C	1.085421	0.137285	0.073366
C70	C	1.585421	0.637285	0.573366
C71	C	1.173085	0.139571	0.079286
C72	C	1.673085	0.639571	0.579286
C73	C	0.950347	0.334004	0.064230
C74	C	1.450347	0.834004	0.564230
C75	C	0.960547	0.449109	0.064916
C76	C	1.460547	0.949109	0.564916
N77	N	0.932513	0.158023	0.279367
N78	N	1.432513	0.658023	0.779367
N79	N	0.951223	0.130884	-0.152040
N80	N	1.451223	0.630884	0.347960
C81	C	0.978945	0.090455	0.326202
C82	C	1.478945	0.590455	0.826202
C83	C	0.975179	0.095942	0.413354
C84	C	1.475179	0.595942	0.913354
C85	C	0.924985	0.169002	0.453670
C86	C	1.424985	0.669002	0.953670
C87	C	0.878549	0.236572	0.406829
C88	C	1.378549	0.736572	0.906829
C89	C	0.882311	0.231080	0.319678
C90	C	1.382311	0.731080	0.819678
C91	C	0.908549	0.192963	0.713968
C92	C	1.408549	0.692963	1.213968
C93	C	0.904792	0.198452	0.801125
C94	C	1.404792	0.698452	1.301125
C95	C	1.001421	0.057819	0.807644
C96	C	1.501421	0.557819	1.307644
C97	C	1.005182	0.052338	0.720492
C98	C	1.505182	0.552338	1.220492
C99	C	0.958743	0.119905	0.673658
C100	C	1.458743	0.619905	1.173658
N101	N	0.921136	0.174614	0.542753
N102	N	1.421136	0.674614	1.042753
N103	N	0.962588	0.114287	0.584576
N104	N	1.462588	0.614287	1.084576
H105	H	0.186673	0.131158	-0.057130
H106	H	0.686673	0.631158	0.442870
H107	H	1.012986	0.040922	0.451487
H108	H	1.512986	0.540922	0.951487
H109	H	0.776315	-0.344414	0.052472
H110	H	1.276315	0.155586	0.552472
H111	H	1.046054	-0.007153	0.687669
H112	H	1.546054	0.492847	1.187669
H113	H	0.870737	0.247980	0.675842
H114	H	1.370737	0.747980	1.175842
H115	H	0.863916	0.257950	0.833945
H116	H	1.363916	0.757950	1.333945
H117	H	1.039229	0.002808	0.845784
H118	H	1.539229	0.502808	1.345784
H119	H	0.844501	0.286100	0.281545
H120	H	1.344501	0.786100	0.781545
H121	H	1.090043	-0.562890	0.073657
H122	H	1.590043	-0.062890	0.573657
H123	H	0.837676	0.296056	0.439658
H124	H	1.337676	0.796056	0.939658
H125	H	0.324232	0.152303	0.226831
H126	H	0.824232	0.652303	0.726831
H127	H	0.547631	0.153821	0.174346
H128	H	1.047631	0.653821	0.674346
H129	H	0.697054	0.157768	0.184445
H130	H	1.197054	0.657768	0.684445
H131	H	0.832832	-0.518800	0.056279
H132	H	1.332832	-0.018800	0.556279
H133	H	0.174796	0.148393	0.216731
H134	H	0.674796	0.648393	0.716731
H135	H	0.793691	-0.148183	0.053661
H136	H	1.293691	0.351817	0.553661
H137	H	0.559493	0.136597	-0.099510
H138	H	1.059493	0.636597	0.400490
H139	H	0.336098	0.135056	-0.047033
H140	H	0.836098	0.635056	0.452967
H141	H	1.019821	0.030967	0.293383
H142	H	1.519821	0.530967	0.793383
H143	H	0.708931	0.140520	-0.089417
H144	H	1.208931	0.640520	0.410583
H145	H	1.107422	-0.366688	0.074847
H146	H	1.607422	0.133312	0.574847
H147	H	1.050906	-0.192307	0.071035
H148	H	1.550906	0.307693	0.571035
