data_functionalizedCrystal
_audit_creation_method	'MofGen! by Chris Wilmer'
_symmetry_space_group_name_H-M	'P1'
_symmetry_Int_Tables_number	1
_symmetry_cell_setting	triclinic
loop_
_symmetry_equiv_pos_as_xyz
  x,y,z
_cell_length_a	6.817900
_cell_length_b	15.300992
_cell_length_c	11.102228
_cell_angle_alpha	93.596688
_cell_angle_beta	108.604565
_cell_angle_gamma	104.175078
loop_
_atom_site_label
_atom_site_type_symbol
_atom_site_fract_x
_atom_site_fract_y
_atom_site_fract_z
V1	V	-4.088923	-0.124760	-0.396639
O2	O	-4.071635	0.005993	-0.388695
O3	O	-4.043495	-0.247376	-0.394305
O4	O	-4.066046	-0.122842	-0.569454
O5	O	-4.048928	-0.119403	-0.212333
V6	V	-4.568859	-0.109120	-0.374549
O7	O	-4.358051	-0.159067	-0.445096
O8	O	-4.749929	-0.074813	-0.326091
O9	O	-4.391081	0.013496	-0.376883
O10	O	-4.703544	-0.239874	-0.382493
O11	O	-4.726251	-0.114477	-0.558855
O12	O	-4.368530	-0.111039	-0.201733
C13	C	-3.888393	-0.277267	-0.388146
C14	C	-3.932707	-0.377508	-0.387389
C15	C	-3.895691	-0.411723	-0.270610
C16	C	-3.937349	-0.505910	-0.269904
C17	C	-4.016009	-0.565881	-0.385978
C18	C	-4.053033	-0.531660	-0.502767
C19	C	-4.011390	-0.437474	-0.503472
C20	C	-4.139823	-0.727971	-0.501288
C21	C	-4.181466	-0.822163	-0.500583
C22	C	-4.065782	-0.796407	-0.267719
C23	C	-4.024139	-0.702222	-0.268425
C24	C	-4.061162	-0.668007	-0.385214
C25	C	-3.917157	-0.118410	-0.611564
C26	C	-3.979756	-0.117653	-0.752844
C27	C	-4.054375	-0.199873	-0.837621
C28	C	-4.113205	-0.199160	-0.970368
C29	C	-4.022779	-0.034000	-0.933549
C30	C	-3.963965	-0.034714	-0.800804
C31	C	-4.365651	-0.300286	-1.178067
C32	C	-4.440239	-0.382509	-1.262848
C33	C	-4.343302	-0.452756	-1.231850
C34	C	-4.171730	-0.440782	-1.116071
C35	C	-4.097125	-0.358557	-1.031296
C36	C	-4.194110	-0.288314	-1.062295
C37	C	-3.711504	0.066407	-0.593104
C38	C	-3.636884	0.148633	-0.508325
C39	C	-3.733803	0.218888	-0.539319
C40	C	-3.905342	0.206923	-0.655099
C41	C	-3.979963	0.124697	-0.739877
C42	C	-3.883043	0.054442	-0.708874
C43	C	-4.209524	0.043382	-0.383039
C44	C	-4.144450	0.143622	-0.383803
C45	C	-4.180759	-0.115473	-0.159617
C46	C	-4.097399	-0.116225	-0.018336
H47	H	-4.041555	-0.409619	-0.598567
F48	F	-4.622824	-0.395246	-1.386070
F49	F	-4.468851	-0.225528	-1.211062
H50	H	-4.009926	0.033527	-0.972614
F51	F	-4.162557	0.111959	-0.863092
H52	H	-3.957427	-0.348806	-0.937035
F53	F	-4.136765	-0.595488	-0.626302
H54	H	-4.067238	-0.267407	-0.798577
H55	H	-4.092789	-0.497983	-1.090850
F56	F	-4.422691	-0.540263	-1.322084
F57	F	-4.008492	0.281698	-0.688092
H58	H	-3.672977	0.285852	-0.470300
H59	H	-3.497181	0.158375	-0.414060
H60	H	-3.632574	0.009202	-0.567855
F61	F	-4.179242	-0.691561	-0.625589
H62	H	-3.831624	-0.362900	-0.176088
H63	H	-3.960077	-0.653395	-0.173907
F64	F	-4.026370	-0.832821	-0.143423
F65	F	-4.265340	-0.885990	-0.624127
F66	F	-3.897966	-0.542320	-0.145611
