data_functionalizedCrystal
_audit_creation_method	'MofGen! by Chris Wilmer'
_symmetry_space_group_name_H-M	'P1'
_symmetry_Int_Tables_number	1
_symmetry_cell_setting	triclinic
loop_
_symmetry_equiv_pos_as_xyz
  x,y,z
_cell_length_a	17.019372
_cell_length_b	17.019294
_cell_length_c	13.930277
_cell_angle_alpha	86.116472
_cell_angle_beta	93.869203
_cell_angle_gamma	83.656821
loop_
_atom_site_label
_atom_site_type_symbol
_atom_site_fract_x
_atom_site_fract_y
_atom_site_fract_z
O1	O	1.046553	0.100471	-0.001693
O2	O	0.816877	0.113292	-0.021725
O3	O	0.938122	-0.007959	-0.001682
O4	O	0.925309	0.221722	-0.021736
O5	O	0.938105	-0.007961	0.157979
O6	O	0.816861	0.113290	0.137936
O7	O	1.046536	0.100468	0.157968
Zn8	Zn	0.931696	0.106879	0.173301
Zn9	Zn	0.931718	0.106882	-0.037059
O10	O	0.925292	0.221719	0.137924
C11	C	0.787481	0.112806	0.055718
C12	C	0.699914	0.111351	0.048605
C13	C	0.204655	0.103095	0.003947
C14	C	0.286934	0.104462	0.010643
C15	C	0.328055	0.105150	0.101023
C16	C	0.286895	0.104463	0.184712
C17	C	0.204618	0.103090	0.178015
C18	C	0.576477	0.109290	0.125597
C19	C	0.658759	0.110666	0.132287
C20	C	0.658792	0.110663	-0.041782
C21	C	0.576514	0.109295	-0.048471
C22	C	0.535361	0.108604	0.035218
C23	C	0.412157	0.106550	0.107869
C24	C	0.451261	0.107198	0.028371
C25	C	0.937628	-0.037349	0.080537
C26	C	0.936170	-0.124917	0.087653
C27	C	0.935496	-0.166051	0.003965
C28	C	0.934121	-0.248331	0.010654
C29	C	0.933425	-0.289475	0.101031
C30	C	0.934097	-0.248335	0.184725
C31	C	0.935466	-0.166057	0.178034
C32	C	0.929285	-0.537903	0.125585
C33	C	0.927918	-0.620188	0.132269
C34	C	0.927940	-0.620178	-0.041803
C35	C	0.929315	-0.537898	-0.048485
C36	C	0.929982	-0.496765	0.035208
C37	C	0.932022	-0.373579	0.107871
C38	C	0.931379	-0.412662	0.028368
C39	C	1.075933	0.100955	0.080523
C40	C	1.163500	0.102410	0.087629
C41	C	0.925786	0.251109	0.055704
C42	C	0.927244	0.338678	0.048581
N43	N	0.931687	0.106876	0.316867
N44	N	0.931734	0.106878	-0.180623
C45	C	0.878029	0.160551	0.760265
C46	C	0.985429	0.053207	0.777983
C47	C	0.985420	0.053204	0.677487
C48	C	0.931715	0.106877	0.618375
C49	C	0.878019	0.160551	0.659759
C50	C	1.039119	-0.000464	0.636095
C51	C	1.039113	-0.000468	0.535593
C52	C	0.985403	0.053201	0.476479
C53	C	0.931705	0.106877	0.517869
C54	C	0.878001	0.160550	0.458756
C55	C	0.824298	0.214223	0.500144
C56	C	0.824310	0.214221	0.600644
C57	C	0.985391	0.053203	0.375979
C58	C	0.877991	0.160550	0.358251
H59	H	0.542982	0.108716	0.193744
F60	F	0.330662	0.105193	0.280901
H61	H	0.171110	0.102540	0.246158
F62	F	1.096278	-0.057579	0.699006
F63	F	0.767148	0.271348	0.437222
H64	H	0.417777	0.106635	-0.045215
H65	H	0.445647	0.107112	0.181457
F66	F	1.096265	-0.057592	0.491552
H67	H	0.543038	0.108734	-0.122068
H68	H	0.927348	-0.653685	0.205868
F69	F	0.933404	-0.292105	-0.078418
H70	H	0.927396	-0.653678	-0.109941
F71	F	0.929985	-0.494135	0.214658
F72	F	0.933348	-0.292125	0.280911
F73	F	1.042588	-0.003908	0.840894
F74	F	0.820874	0.217668	0.804310
F75	F	1.042546	-0.003911	0.331936
H76	H	0.320439	0.105015	-0.057500
F77	F	0.936241	-0.122270	-0.092227
F78	F	0.702596	0.111395	-0.130844
H79	H	0.171179	0.102540	-0.069651
H80	H	0.692237	0.111231	0.205889
H81	H	0.931459	-0.407088	0.181456
F82	F	0.930056	-0.494115	-0.144676
F83	F	0.820826	0.217674	0.295346
F84	F	0.936183	-0.122279	0.267106
F85	F	0.767162	0.271341	0.644696
F86	F	0.932121	-0.368872	-0.067815
