data_functionalizedCrystal
_audit_creation_method	'MofGen! by Chris Wilmer'
_symmetry_space_group_name_H-M	'P1'
_symmetry_Int_Tables_number	1
_symmetry_cell_setting	triclinic
loop_
_symmetry_equiv_pos_as_xyz
  x,y,z
_cell_length_a	12.827893
_cell_length_b	12.827892
_cell_length_c	18.215399
_cell_angle_alpha	89.976162
_cell_angle_beta	89.982485
_cell_angle_gamma	90.015553
loop_
_atom_site_label
_atom_site_type_symbol
_atom_site_fract_x
_atom_site_fract_y
_atom_site_fract_z
Zn1	Zn	1.597653	-0.416039	-0.416091
Zn2	Zn	1.597552	-0.590799	-0.293034
Zn3	Zn	1.422900	-0.416073	-0.293044
Zn4	Zn	1.422880	-0.590739	-0.416064
O5	O	1.510246	-0.503412	-0.354558
O6	O	1.743876	-0.439232	-0.399775
O7	O	1.574350	-0.567659	-0.190051
O8	O	1.446132	-0.269832	-0.309382
O9	O	1.743802	-0.567627	-0.309365
O10	O	1.574522	-0.269808	-0.399784
O11	O	1.446034	-0.439289	-0.190058
O12	O	1.276661	-0.439232	-0.309355
O13	O	1.446098	-0.567526	-0.519052
O14	O	1.276647	-0.567559	-0.399738
O15	O	1.574504	-0.439175	-0.519072
O16	O	1.574331	-0.737027	-0.309338
O17	O	1.446000	-0.736983	-0.399728
C18	C	1.238736	-0.503393	-0.354545
C19	C	1.122583	-0.503410	-0.354557
C20	C	1.070778	-0.439826	-0.309912
C21	C	0.950728	-0.439842	-0.309923
C22	C	1.510181	-0.774922	-0.354545
C23	C	1.510249	-0.891075	-0.354564
C24	C	1.573826	-0.942847	-0.309886
C25	C	1.573898	-1.062897	-0.309905
C26	C	1.782816	-0.503433	-0.354572
C27	C	1.898970	-0.503441	-0.354578
C28	C	1.510310	-0.503340	-0.546511
C29	C	1.510337	-0.503310	-0.628310
C30	C	1.510340	-0.230842	-0.354587
C31	C	1.510381	-0.114689	-0.354600
C32	C	1.577222	-0.436415	-0.816516
C33	C	1.577234	-0.436384	-0.893375
C34	C	1.443526	-0.570043	-0.893342
C35	C	1.443509	-0.570068	-0.816485
C36	C	1.510363	-0.503255	-0.778074
C37	C	1.510392	-0.503200	-0.931790
C38	C	1.510405	-0.503167	-1.015124
C39	C	1.510349	-0.503286	-0.694735
C40	C	1.510243	-0.503409	-0.163352
C41	C	1.510418	-0.503145	-0.081553
H42	H	1.078059	-0.557862	-0.392785
H43	H	1.628209	-0.898296	-0.271624
O44	O	1.642230	-0.371600	-0.930800
C45	C	1.709731	-0.431081	-0.975248
H46	H	1.672854	-0.510271	-0.986748
H47	H	1.723753	-0.388494	-1.029301
H48	H	1.787167	-0.442574	-0.945639
O49	O	0.897547	-0.375050	-0.264236
C50	C	0.834360	-0.434533	-0.216692
H51	H	0.867302	-0.516797	-0.212035
H52	H	0.832994	-0.396647	-0.160098
H53	H	0.751690	-0.438252	-0.239496
O54	O	1.642042	-0.371357	-0.779237
C55	C	1.619250	-0.267202	-0.798046
H56	H	1.535771	-0.261922	-0.819164
H57	H	1.628256	-0.215586	-0.747512
H58	H	1.675291	-0.239873	-0.842671
O59	O	1.445589	-1.061542	-0.400316
C60	C	1.505066	-0.998291	-0.447821
H61	H	1.587356	-1.031173	-0.452444
H62	H	1.467225	-0.996925	-0.504433
H63	H	1.508709	-0.915629	-0.425002
O64	O	0.952217	-0.568245	-0.400218
C65	C	1.015369	-0.508767	-0.447789
H66	H	1.031608	-0.429508	-0.421917
H67	H	1.092165	-0.551270	-0.457546
H68	H	0.973401	-0.497429	-0.502370
H69	H	1.389058	-0.624496	-0.785184
O70	O	1.124004	-0.375013	-0.264265
C71	C	1.187080	-0.434477	-0.216685
H72	H	1.203323	-0.513732	-0.242555
H73	H	1.263879	-0.391958	-0.206916
H74	H	1.145044	-0.445824	-0.162110
O75	O	1.638835	-1.116164	-0.264361
C76	C	1.624461	-1.224169	-0.274527
H77	H	1.590140	-1.238939	-0.331299
H78	H	1.702741	-1.265645	-0.269655
H79	H	1.568880	-1.255259	-0.230846
O80	O	1.445228	-0.944102	-0.400180
C81	C	1.341046	-0.917635	-0.384033
H82	H	1.338782	-0.838389	-0.355778
H83	H	1.294139	-0.914005	-0.437119
H84	H	1.305973	-0.979109	-0.346146
O85	O	1.378692	-0.634913	-0.930770
C86	C	1.393024	-0.620544	-1.006850
H87	H	1.473685	-0.586319	-1.017361
H88	H	1.385918	-0.698810	-1.036048
H89	H	1.331062	-0.564884	-1.028663
