data_functionalizedCrystal
_audit_creation_method	'MofGen! by Chris Wilmer'
_symmetry_space_group_name_H-M	'P1'
_symmetry_Int_Tables_number	1
_symmetry_cell_setting	triclinic
loop_
_symmetry_equiv_pos_as_xyz
  x,y,z
_cell_length_a	10.654559
_cell_length_b	15.995350
_cell_length_c	9.130313
_cell_angle_alpha	90.000982
_cell_angle_beta	89.999532
_cell_angle_gamma	83.990529
loop_
_atom_site_label
_atom_site_type_symbol
_atom_site_fract_x
_atom_site_fract_y
_atom_site_fract_z
O1	O	1.666291	0.117635	-0.121799
O2	O	1.300667	0.128832	-0.121800
O3	O	1.493473	0.001404	-0.121798
O4	O	1.473484	0.245063	-0.121801
O5	O	1.493471	0.001408	0.121801
O6	O	1.300665	0.128835	0.121799
O7	O	1.666288	0.117639	0.121799
Cu8	Cu	1.483476	0.123237	0.144042
Cu9	Cu	1.483479	0.123233	-0.144042
O10	O	1.473482	0.245066	0.121798
C11	C	1.253879	0.128010	-0.000001
C12	C	1.114469	0.125545	-0.000001
C13	C	1.063939	0.048202	0.000004
C14	C	0.932947	0.045891	-0.000007
C15	C	0.903024	0.198275	-0.000021
C16	C	1.034014	0.200585	-0.000021
C17	C	1.144394	-0.026837	0.000024
C18	C	1.093865	-0.104187	0.000030
C19	C	0.962873	-0.106498	0.000019
C20	C	0.882410	-0.031458	0.000002
C21	C	1.492646	-0.029794	-0.000002
C22	C	1.490168	-0.122758	-0.000010
C23	C	1.481271	-0.460558	-0.000005
C24	C	1.343958	-0.413924	-0.000551
C25	C	1.346436	-0.317219	-0.000002
C26	C	1.485684	-0.292971	-0.000008
C27	C	1.553411	-0.333652	0.139096
C28	C	1.549961	-0.430308	0.139213
C29	C	1.552800	-0.430654	-0.137805
C30	C	1.552768	-0.333708	-0.139643
C31	C	1.488186	-0.198259	-0.000005
C32	C	1.478774	-0.555270	0.000002
C33	C	1.713076	0.118461	-0.000003
C34	C	1.852487	0.120925	-0.000012
C35	C	1.474310	0.276264	-0.000002
C36	C	1.476787	0.369229	-0.000003
N37	N	1.483483	0.123240	0.346664
N38	N	1.483482	0.123224	-0.346665
C39	C	1.568880	0.066834	0.423317
C40	C	1.568876	0.066824	0.576654
C41	C	1.398077	0.179633	0.576672
C42	C	1.398075	0.179638	0.423338
C43	C	1.654288	0.010436	0.346644
C44	C	1.739692	-0.045973	0.423296
C45	C	1.739689	-0.045984	0.576633
C46	C	1.654282	0.010416	0.653317
H47	H	1.293199	-0.289109	-0.099718
H48	H	1.328536	0.225568	0.360927
O49	O	1.484529	-0.454940	0.276940
H50	H	1.455639	-0.397840	0.342831
O51	O	1.831783	-0.106809	0.340578
H52	H	1.929681	-0.095546	0.370005
O53	O	0.741124	-0.033949	-0.000002
H54	H	0.713045	-0.067455	-0.099283
O55	O	1.688917	-0.314143	0.145968
H56	H	1.739903	-0.339507	0.046883
H57	H	1.251056	-0.024965	0.000037
H58	H	0.837501	0.259368	-0.000032
H59	H	1.075155	0.263565	-0.000011
H60	H	1.650774	-0.461968	0.145520
O61	O	1.271233	-0.438907	-0.132662
H62	H	1.332172	-0.484832	-0.199346
O63	O	1.831805	-0.106815	0.659317
H64	H	1.891200	-0.146021	0.580236
O65	O	1.654297	0.010443	0.181260
H66	H	1.580571	0.059144	0.140838
H67	H	1.289318	-0.433835	0.098647
O68	O	1.275467	-0.280719	0.132326
H69	H	1.176317	-0.296023	0.127495
O70	O	1.491113	-0.296425	0.276233
H71	H	1.411926	-0.248962	0.245668
O72	O	1.654283	0.010404	0.818704
H73	H	1.580551	0.059097	0.859144
O74	O	1.180648	-0.185117	0.000043
H75	H	1.123501	-0.239287	0.000029
H76	H	1.654041	-0.461824	-0.138744
O77	O	1.305989	0.240479	0.659371
H78	H	1.208089	0.229210	0.629962
H79	H	1.507907	-0.451456	-0.243238
H80	H	1.503251	-0.306750	-0.242549
O81	O	0.908366	-0.189919	0.000034
H82	H	0.986322	-0.241706	0.000062
H83	H	1.654314	-0.317755	-0.148047
