data_functionalizedCrystal
_audit_creation_method	'MofGen! by Chris Wilmer'
_symmetry_space_group_name_H-M	'P1'
_symmetry_Int_Tables_number	1
_symmetry_cell_setting	triclinic
loop_
_symmetry_equiv_pos_as_xyz
  x,y,z
_cell_length_a	16.974800
_cell_length_b	13.339070
_cell_length_c	15.455313
_cell_angle_alpha	93.394339
_cell_angle_beta	90.973911
_cell_angle_gamma	99.476486
loop_
_atom_site_label
_atom_site_type_symbol
_atom_site_fract_x
_atom_site_fract_y
_atom_site_fract_z
O1	O	1.077288	0.129038	0.003523
O2	O	0.851236	0.144496	-0.012353
O3	O	0.938318	-0.010570	-0.006234
O4	O	0.990206	0.284104	-0.002595
O5	O	0.933331	-0.001739	0.137677
O6	O	0.846248	0.153327	0.131559
O7	O	1.072301	0.137869	0.147435
Cu8	Cu	0.958819	0.146404	0.152637
Cu9	Cu	0.964718	0.135961	-0.017555
O10	O	0.985218	0.292935	0.141316
C11	C	0.819219	0.148162	0.057530
C12	C	0.731246	0.145916	0.051351
C13	C	0.687201	0.149672	0.126897
C14	C	0.604540	0.147545	0.121094
C15	C	0.565925	0.141670	0.039745
C16	C	0.609975	0.137911	-0.035806
C17	C	0.692634	0.140030	-0.030003
C18	C	0.319000	0.134809	0.013975
C19	C	0.236335	0.132693	0.008177
C20	C	0.230906	0.142326	0.165079
C21	C	0.313567	0.144451	0.170875
C22	C	0.357610	0.140686	0.095324
N23	N	0.481432	0.139499	0.033811
N24	N	0.442100	0.142849	0.101258
C25	C	0.927060	-0.043869	0.065105
C26	C	0.900934	-0.156245	0.063267
C27	C	1.104073	-0.520460	0.077533
C28	C	1.128622	-0.414877	0.079266
C29	C	1.071702	-0.350214	0.075266
C30	C	0.990230	-0.391144	0.069534
C31	C	0.965678	-0.496737	0.067808
C32	C	0.933307	-0.326491	0.065541
C33	C	0.851835	-0.367422	0.059809
C34	C	0.827288	-0.473005	0.058083
C35	C	0.884207	-0.537667	0.062083
C36	C	0.957858	-0.220898	0.067266
C37	C	0.819463	-0.197176	0.057541
C38	C	0.794915	-0.302759	0.055809
C39	C	1.104318	0.134203	0.077550
C40	C	1.192291	0.136449	0.083723
C41	C	0.996477	0.326234	0.069975
C42	C	1.022602	0.438610	0.071808
N43	N	0.954676	0.153749	0.272342
N44	N	0.968865	0.128608	-0.137259
C45	C	0.991695	0.087896	0.320337
C46	C	0.988571	0.093459	0.410925
C47	C	0.948432	0.164882	0.453517
C48	C	0.911408	0.230739	0.405515
C49	C	0.914528	0.225169	0.314928
C50	C	0.934961	0.188895	0.724152
C51	C	0.931846	0.194461	0.814746
C52	C	1.009008	0.057180	0.820149
C53	C	1.012128	0.051621	0.729560
C54	C	0.975100	0.117474	0.681566
N55	N	0.945240	0.170573	0.546113
N56	N	0.978288	0.111777	0.588972
H57	H	1.024193	-0.187583	0.071933
H58	H	1.091695	-0.264244	0.076677
H59	H	1.194956	-0.381559	0.083934
C60	C	1.127876	-0.692855	0.079209
C61	C	1.166632	-0.591537	0.081932
H62	H	1.166502	-0.736734	0.081922
H63	H	1.093685	-0.702195	0.127110
H64	H	1.097165	-0.708352	0.026740
H65	H	1.197338	-0.576038	0.134405
H66	H	1.200836	-0.582191	0.034027
H67	H	0.204898	0.127911	-0.058070
C68	C	0.813942	-0.686992	-0.017031
C69	C	0.857227	-0.653732	0.060174
H70	H	0.797293	-0.758648	-0.018211
H71	H	0.768383	-0.654353	-0.020219
H72	H	0.846800	-0.670547	-0.065022
H73	H	0.824367	-0.670170	0.108165
H74	H	0.902792	-0.686382	0.063371
H75	H	0.578527	0.133120	-0.102043
H76	H	0.760947	-0.506326	0.053422
H77	H	0.345001	0.149230	0.237118
H78	H	0.728579	-0.336099	0.051142
C79	C	0.404953	0.044666	-0.071238
C80	C	0.367409	0.130681	-0.069068
H81	H	0.434838	0.042118	-0.122510
H82	H	0.439777	0.048472	-0.021966
H83	H	0.365703	-0.014927	-0.070725
H84	H	0.406659	0.190275	-0.069575
H85	H	0.332582	0.126884	-0.118353
H86	H	0.773114	-0.144526	0.054288
C87	C	0.905488	0.241332	0.582898
C88	C	0.894278	0.261296	0.671405
H89	H	0.880369	0.286032	0.550333
H90	H	0.961029	0.251593	0.571909
H91	H	0.882654	0.172833	0.566426
H92	H	0.917117	0.329793	0.687878
H93	H	0.838726	0.251042	0.682399
C94	C	1.065181	-0.042766	0.407169
C95	C	1.029279	0.021087	0.463682
H96	H	1.090320	-0.087440	0.439741
H97	H	1.025614	-0.081480	0.368991
H98	H	1.103967	-0.002680	0.374457
H99	H	0.990488	-0.019000	0.496389
H100	H	1.068850	0.059804	0.501875
H101	H	1.024384	0.029740	0.285665
C102	C	1.088075	-0.083527	0.744004
C103	C	1.056244	-0.026895	0.682746
H104	H	1.115308	-0.132001	0.715100
H105	H	1.124437	-0.039118	0.781960
H106	H	1.046063	-0.117881	0.776486
H107	H	1.098256	0.007466	0.650267
H108	H	1.019879	-0.071310	0.644774
H109	H	0.568680	0.150587	0.182611
H110	H	0.195037	0.145389	0.226588
H111	H	1.039152	0.003565	0.859234
H112	H	0.884382	0.278793	0.275851
C113	C	0.855859	0.329579	0.800309
C114	C	0.887708	0.272961	0.861564
H115	H	0.828606	0.378032	0.829214
H116	H	0.897856	0.363950	0.767832
H117	H	0.819503	0.285151	0.762346
H118	H	0.924069	0.317388	0.899523
H119	H	0.845706	0.238588	0.894055
C120	C	0.805380	0.258580	0.500222
C121	C	0.867287	0.309246	0.452335
H122	H	0.778147	0.307052	0.529129
H123	H	0.769020	0.214180	0.462257
H124	H	0.826992	0.220159	0.541767
H125	H	0.845674	0.347661	0.410785
H126	H	0.903653	0.353664	0.490303
H127	H	0.718636	0.154465	0.193141
H128	H	0.728495	0.136973	-0.091520
