data_functionalizedCrystal
_audit_creation_method	'MofGen! by Chris Wilmer'
_symmetry_space_group_name_H-M	'P1'
_symmetry_Int_Tables_number	1
_symmetry_cell_setting	triclinic
loop_
_symmetry_equiv_pos_as_xyz
  x,y,z
_cell_length_a	10.654550
_cell_length_b	10.489741
_cell_length_c	9.130313
_cell_angle_alpha	89.995761
_cell_angle_beta	89.999724
_cell_angle_gamma	84.512052
loop_
_atom_site_label
_atom_site_type_symbol
_atom_site_fract_x
_atom_site_fract_y
_atom_site_fract_z
O1	O	1.667923	0.179162	-0.121689
O2	O	1.302453	0.196231	-0.121716
O3	O	1.493504	0.002095	-0.121693
O4	O	1.476872	0.373299	-0.121712
O5	O	1.493491	0.002089	0.121906
O6	O	1.302440	0.196226	0.121883
O7	O	1.667910	0.179156	0.121910
Cu8	Cu	1.485174	0.187691	0.144139
Cu9	Cu	1.485189	0.187697	-0.143945
O10	O	1.476859	0.373293	0.121887
C11	C	1.255648	0.194975	0.000080
C12	C	1.116203	0.191225	0.000070
C13	C	1.036771	0.305530	0.000068
C14	C	0.905748	0.301999	0.000094
C15	C	0.933603	0.069849	0.000117
C16	C	1.064623	0.073381	0.000102
C17	C	1.492241	-0.045439	0.000105
C18	C	1.488483	-0.187067	0.000102
C19	C	1.366923	-0.255148	0.000083
C20	C	1.424340	-0.347301	0.120194
C21	C	1.424382	-0.347270	-0.119976
C22	C	1.545951	-0.277354	0.120313
C23	C	1.545976	-0.277314	-0.119965
C24	C	1.603481	-0.369439	0.000176
C25	C	1.714715	0.180413	0.000110
C26	C	1.854160	0.184162	0.000111
N27	N	1.485172	0.187685	0.346761
C28	C	1.478122	0.420827	0.000085
C29	C	1.481880	0.562454	0.000079
N30	N	1.485201	0.187693	-0.346568
C31	C	1.569798	0.101758	0.423423
C32	C	1.569810	0.101758	0.576760
C33	C	1.400565	0.273624	0.576760
C34	C	1.400548	0.273617	0.423426
H35	H	1.266977	-0.205449	0.000196
H36	H	1.703517	-0.418912	0.000250
C37	C	0.996073	0.534644	0.000066
C38	C	1.093469	0.435062	0.000054
H39	H	1.031076	0.614612	0.000070
H40	H	0.945546	0.528441	-0.084871
H41	H	0.945555	0.528422	0.085026
H42	H	1.143981	0.441278	-0.084912
H43	H	1.144017	0.441268	0.085000
H44	H	0.841079	0.395078	0.000096
C45	C	1.183831	0.346461	0.624010
C46	C	1.307556	0.368077	0.661040
H47	H	1.126412	0.404770	0.676049
H48	H	1.171714	0.358762	0.521732
H49	H	1.169453	0.261192	0.649160
H50	H	1.321936	0.453343	0.635880
H51	H	1.319678	0.355787	0.763342
H52	H	1.331629	0.343589	0.361003
H53	H	1.372900	-0.378290	0.221732
C54	C	0.745125	-0.038646	0.000135
C55	C	0.876900	-0.059681	0.000132
H56	H	0.710125	-0.118616	0.000132
H57	H	0.717943	0.008456	0.085077
H58	H	0.717940	0.008471	-0.084820
H59	H	0.904087	-0.106790	0.085093
H60	H	0.904093	-0.106803	-0.084819
H61	H	1.129300	-0.019705	0.000107
C62	C	1.618154	-0.102605	0.256357
C63	C	1.615312	-0.235780	0.257556
H64	H	1.660965	-0.076939	0.341091
H65	H	1.661055	-0.078098	0.171187
H66	H	1.534366	-0.062460	0.256004
H67	H	1.699101	-0.275925	0.257898
H68	H	1.572414	-0.260299	0.342749
C69	C	1.551532	-0.270327	-0.382704
C70	C	1.615358	-0.235417	-0.257040
H71	H	1.594356	-0.244450	-0.467334
H72	H	1.548984	-0.360581	-0.384179
H73	H	1.467972	-0.229605	-0.381831
H74	H	1.698914	-0.276147	-0.257908
H75	H	1.617919	-0.145146	-0.255565
C76	C	1.737109	-0.068109	0.561349
C77	C	1.662840	0.007309	0.661027
H78	H	1.794547	-0.126415	0.613374
H79	H	1.684418	-0.114491	0.501560
H80	H	1.782746	-0.014567	0.501527
H81	H	1.617195	-0.046233	0.720842
H82	H	1.715537	0.053695	0.720841
H83	H	1.372937	-0.378207	-0.221530
H84	H	1.638702	0.031785	0.361007
