data_functionalizedCrystal
_audit_creation_method	'MofGen! by Chris Wilmer'
_symmetry_space_group_name_H-M	'P1'
_symmetry_Int_Tables_number	1
_symmetry_cell_setting	triclinic
loop_
_symmetry_equiv_pos_as_xyz
  x,y,z
_cell_length_a	6.817900
_cell_length_b	17.078509
_cell_length_c	16.256277
_cell_angle_alpha	96.260070
_cell_angle_beta	103.500353
_cell_angle_gamma	99.306544
loop_
_atom_site_label
_atom_site_type_symbol
_atom_site_fract_x
_atom_site_fract_y
_atom_site_fract_z
V1	V	-4.005855	-0.110408	-0.263788
O2	O	-4.015200	0.004646	-0.258854
O3	O	-3.936901	-0.218286	-0.261899
O4	O	-3.957741	-0.108999	-0.378873
O5	O	-3.994216	-0.105398	-0.141070
V6	V	-4.492110	-0.096612	-0.249120
O7	O	-4.261123	-0.140671	-0.295963
O8	O	-4.687040	-0.066349	-0.216945
O9	O	-4.337857	0.011266	-0.251009
O10	O	-4.600161	-0.211666	-0.254053
O11	O	-4.621146	-0.101622	-0.371838
O12	O	-4.317017	-0.098021	-0.134034
C13	C	-3.776893	-0.244575	-0.257716
C14	C	-3.801803	-0.332769	-0.256939
C15	C	-3.922493	-0.828770	-0.252119
C16	C	-3.899104	-0.745904	-0.252853
C17	C	-4.068755	-0.708524	-0.257433
C18	C	-4.261813	-0.754016	-0.261290
C19	C	-4.285203	-0.836882	-0.260562
C20	C	-4.018251	-0.461127	-0.260067
C21	C	-3.994844	-0.378255	-0.260792
C22	C	-3.632137	-0.370148	-0.252357
C23	C	-3.655541	-0.453015	-0.251624
C24	C	-3.848598	-0.498501	-0.255485
N25	N	-4.044851	-0.623821	-0.258181
N26	N	-3.872503	-0.583203	-0.254744
C27	C	-3.803476	-0.105168	-0.406927
C28	C	-3.845285	-0.104730	-0.501009
C29	C	-4.135646	-0.107791	-0.732828
C30	C	-4.042055	-0.039704	-0.775971
C31	C	-3.921738	-0.103905	-0.673257
C32	C	-4.089787	-0.171164	-0.797743
C33	C	-3.995604	-0.103113	-0.839640
C34	C	-3.827577	-0.035769	-0.715152
C35	C	-3.875355	-0.167289	-0.736929
C36	C	-3.781609	-0.099183	-0.780041
C37	C	-3.879191	-0.104361	-0.577407
C38	C	-4.038134	-0.102650	-0.935486
C39	C	-4.161207	0.037551	-0.255190
C40	C	-4.115534	0.125744	-0.255972
C41	C	-4.134624	-0.101855	-0.105976
C42	C	-4.072055	-0.102289	-0.011893
H43	H	-4.442396	-0.873916	-0.263701
H44	H	-3.804563	-0.221242	-0.719480
C45	C	-4.323534	0.028521	-0.775881
C46	C	-4.137710	0.033119	-0.799520
H47	H	-4.382600	0.073474	-0.790424
H48	H	-4.298641	0.028492	-0.715909
H49	H	-4.415398	-0.019517	-0.805291
H50	H	-4.045841	0.081155	-0.770104
H51	H	-4.162596	0.033156	-0.859503
H52	H	-3.632173	-0.095519	-0.800757
H53	H	-4.399948	-0.723576	-0.265025
C54	C	-4.475247	-0.182790	-0.748366
C55	C	-4.337384	-0.112602	-0.704881
H56	H	-4.599889	-0.185753	-0.731192
H57	H	-4.416809	-0.228175	-0.735115
H58	H	-4.502565	-0.182035	-0.808283
H59	H	-4.310054	-0.113360	-0.644964
H60	H	-4.395834	-0.067205	-0.718125
H61	H	-3.784341	-0.859199	-0.248391
H62	H	-3.517381	-0.483442	-0.247878
H63	H	-3.741912	-0.708872	-0.249713
C64	C	-4.276391	-0.247491	-0.934395
C65	C	-4.240011	-0.248401	-0.846127
H66	H	-4.369152	-0.295170	-0.964260
H67	H	-4.150403	-0.244543	-0.950457
H68	H	-4.334326	-0.202149	-0.948330
H69	H	-4.182062	-0.293740	-0.832191
H70	H	-4.366024	-0.251358	-0.830058
C71	C	-3.435227	-0.239523	-0.249734
C72	C	-3.419942	-0.320150	-0.248124
H73	H	-3.304223	-0.208659	-0.247128
H74	H	-3.481523	-0.220245	-0.202010
H75	H	-3.530282	-0.234984	-0.301164
H76	H	-3.324898	-0.324690	-0.196691
H77	H	-3.373618	-0.339434	-0.295853
C78	C	-3.492481	0.046290	-0.691196
C79	C	-3.677515	0.041552	-0.666898
H80	H	-3.399846	0.094022	-0.661399
H81	H	-3.518248	0.047040	-0.751075
H82	H	-3.433846	0.001025	-0.677577
H83	H	-3.736159	0.086814	-0.680522
H84	H	-3.651751	0.040809	-0.607005
C85	C	-4.298649	-0.482659	-0.193932
C86	C	-4.230456	-0.511107	-0.264293
H87	H	-4.429658	-0.513518	-0.196536
H88	H	-4.308962	-0.427963	-0.195026
H89	H	-4.203584	-0.487218	-0.142513
H90	H	-4.325513	-0.506542	-0.315712
H91	H	-4.220155	-0.565817	-0.263206
H92	H	-4.133002	-0.347822	-0.264513
