data_functionalizedCrystal
_audit_creation_method	'MofGen! by Chris Wilmer'
_symmetry_space_group_name_H-M	'P1'
_symmetry_Int_Tables_number	1
_symmetry_cell_setting	triclinic
loop_
_symmetry_equiv_pos_as_xyz
  x,y,z
_cell_length_a	11.026607
_cell_length_b	15.995350
_cell_length_c	9.482900
_cell_angle_alpha	99.336743
_cell_angle_beta	78.636152
_cell_angle_gamma	96.039196
loop_
_atom_site_label
_atom_site_type_symbol
_atom_site_fract_x
_atom_site_fract_y
_atom_site_fract_z
O1	O	1.629075	0.340363	-0.120882
O2	O	2.129075	0.840363	0.379118
O3	O	1.275769	0.300437	-0.120885
O4	O	1.775769	0.800437	0.379115
O5	O	1.462080	0.199968	-0.120882
O6	O	1.962080	0.699968	0.379118
O7	O	1.442765	0.440832	-0.120885
O8	O	1.942765	0.940832	0.379115
O9	O	1.424236	0.220481	0.120910
O10	O	1.924236	0.720481	0.620910
O11	O	1.237926	0.320950	0.120907
O12	O	1.737926	0.820950	0.620907
O13	O	1.591231	0.360875	0.120910
O14	O	2.091231	0.860875	0.620910
Cu15	Cu	1.411123	0.342785	0.142986
Cu16	Cu	1.911123	0.842785	0.642986
Cu17	Cu	1.455878	0.318527	-0.142961
Cu18	Cu	1.955878	0.818527	0.357039
O19	O	1.404921	0.461344	0.120907
O20	O	1.904921	0.961344	0.620907
C21	C	1.211637	0.303328	0.000010
C22	C	1.711637	0.803328	0.500010
C23	C	1.076923	0.281371	0.000009
C24	C	1.576923	0.781371	0.500009
C25	C	1.003118	0.341997	0.000007
C26	C	1.503118	0.841997	0.500007
C27	C	0.863884	0.319305	0.000005
C28	C	1.363884	0.819305	0.500005
C29	C	1.442360	0.178909	0.000011
C30	C	1.942360	0.678909	0.500011
C31	C	1.439967	0.085597	0.000003
C32	C	1.939967	0.585597	0.500003
C33	C	1.431369	-0.253446	0.000008
C34	C	1.931369	0.246554	0.500008
C35	C	1.298767	-0.226057	-0.000536
C36	C	1.798767	0.273943	0.499464
C37	C	1.301076	-0.128960	0.000009
C38	C	1.801076	0.371040	0.500009
C39	C	1.435634	-0.085243	0.000005
C40	C	1.935634	0.414757	0.500005
C41	C	1.479470	-0.104742	0.138078
C42	C	1.979470	0.395258	0.638078
C43	C	1.476118	-0.201871	0.138193
C44	C	1.976118	0.298129	0.638193
C45	C	1.521895	-0.225142	-0.136769
C46	C	2.021895	0.274858	0.363231
C47	C	1.522149	-0.128356	-0.138594
C48	C	2.022149	0.371644	0.361406
C49	C	1.438051	0.009819	0.000008
C50	C	1.938051	0.509819	0.500008
C51	C	1.428954	-0.348507	0.000014
C52	C	1.928954	0.151493	0.500014
C53	C	1.655364	0.357984	0.000012
C54	C	2.155364	0.857984	0.500012
C55	C	1.790080	0.379940	0.000004
C56	C	2.290080	0.879940	0.500004
C57	C	1.424641	0.482403	0.000011
C58	C	1.924641	0.982403	0.500011
C59	C	1.427036	0.575714	0.000009
C60	C	1.927036	1.075714	0.500009
N61	N	1.379654	0.359848	0.344106
N62	N	1.879654	0.859848	0.844106
N63	N	1.487357	0.301459	-0.344081
N64	N	1.987357	0.801459	0.155919
C65	C	1.446587	0.323554	0.416306
C66	C	1.946587	0.823554	0.916306
C67	C	1.420413	0.337759	0.583723
C68	C	1.920413	0.837759	1.083723
H69	H	1.265122	-0.116689	-0.098967
H70	H	1.765122	0.383311	0.401033
F71	F	1.486593	-0.272132	-0.273557
F72	F	1.986593	0.227868	0.226443
F73	F	1.587795	0.247266	0.574727
F74	F	2.087795	0.747266	1.074727
H75	H	1.490286	-0.116985	-0.240737
H76	H	1.990286	0.383015	0.259263
H77	H	1.343722	0.379346	0.645846
H78	H	1.843722	0.879346	1.145846
H79	H	1.572555	-0.218904	0.144455
H80	H	2.072555	0.281096	0.644455
H81	H	1.302967	0.401433	0.406234
H82	H	1.802967	0.901433	0.906234
F83	F	1.249700	-0.271705	-0.129957
F84	F	1.749700	0.228295	0.370043
H85	H	1.523265	0.281962	0.354179
H86	H	2.023265	0.781962	0.854179
F87	F	1.055251	0.431801	0.000011
F88	F	1.555251	0.931801	0.500011
H89	H	0.824003	0.250594	-0.000031
H90	H	1.324003	0.750594	0.499969
H91	H	0.829962	0.448650	0.000012
H92	H	1.329962	0.948650	0.500012
F93	F	1.607631	-0.066235	0.144790
F94	F	2.107631	0.433765	0.644790
H95	H	1.037037	0.212664	-0.000028
H96	H	1.537037	0.712664	0.499972
H97	H	1.230558	-0.245256	0.097926
H98	H	1.730558	0.254744	0.597926
H99	H	1.233768	-0.100491	0.099153
H100	H	1.733768	0.399509	0.599153
H101	H	1.412240	-0.218609	0.241408
H102	H	1.912240	0.281391	0.741408
F103	F	1.399036	-0.065210	0.272385
F104	F	1.899036	0.434790	0.772385
H105	H	1.619870	-0.242236	-0.137701
H106	H	2.119870	0.257764	0.362299
F107	F	1.652112	-0.089867	-0.149505
F108	F	2.152112	0.410133	0.350495
