data_functionalizedCrystal
_audit_creation_method	'MofGen! by Chris Wilmer'
_symmetry_space_group_name_H-M	'P1'
_symmetry_Int_Tables_number	1
_symmetry_cell_setting	triclinic
loop_
_symmetry_equiv_pos_as_xyz
  x,y,z
_cell_length_a	23.532407
_cell_length_b	10.268362
_cell_length_c	11.792254
_cell_angle_alpha	90.005455
_cell_angle_beta	83.523638
_cell_angle_gamma	89.999248
loop_
_atom_site_label
_atom_site_type_symbol
_atom_site_fract_x
_atom_site_fract_y
_atom_site_fract_z
O1	O	0.756079	0.108138	0.137771
O2	O	1.089412	0.441472	0.471104
O3	O	1.422746	0.774805	0.804438
O4	O	0.590334	0.108177	0.157705
O5	O	0.923668	0.441510	0.491038
O6	O	1.257001	0.774843	0.824372
O7	O	0.677225	0.108147	-0.017526
O8	O	1.010559	0.441481	0.315807
O9	O	1.343892	0.774814	0.649141
O10	O	0.669188	0.108168	0.313002
O11	O	1.002522	0.441501	0.646336
O12	O	1.335855	0.774834	0.979669
O13	O	0.677218	-0.108453	-0.017533
O14	O	1.010551	0.224880	0.315800
O15	O	1.343884	0.558213	0.649133
O16	O	0.590327	-0.108424	0.157698
O17	O	0.923660	0.224909	0.491031
O18	O	1.256993	0.558243	0.824365
O19	O	0.756072	-0.108462	0.137764
O20	O	1.089405	0.224871	0.471097
O21	O	1.422738	0.558204	0.804431
Cu22	Cu	0.673198	-0.128220	0.147730
Cu23	Cu	1.006532	0.205113	0.481064
Cu24	Cu	1.339865	0.538446	0.814397
Cu25	Cu	0.673207	0.127935	0.147739
Cu26	Cu	1.006541	0.461268	0.481072
Cu27	Cu	1.339874	0.794602	0.814405
O28	O	0.669181	-0.108433	0.312995
O29	O	1.002514	0.224900	0.646328
O30	O	1.335847	0.558234	0.979662
C31	C	0.569112	-0.000119	0.157194
C32	C	0.902445	0.333215	0.490527
C33	C	1.235778	0.666548	0.823861
C34	C	0.505885	-0.000104	0.155668
C35	C	0.839219	0.333229	0.489001
C36	C	1.172552	0.666562	0.822334
N37	N	0.673196	-0.308386	0.147724
N38	N	1.006530	0.024947	0.481057
N39	N	1.339863	0.358280	0.814390
C40	C	0.673205	-0.574057	0.147736
C41	C	1.006538	-0.240724	0.481070
C42	C	1.339871	0.092610	0.814403
C43	C	0.673198	-0.426219	0.147733
C44	C	1.006531	-0.092886	0.481066
C45	C	1.339865	0.240448	0.814399
C46	C	0.107342	-0.000158	0.249793
C47	C	0.440676	0.333176	0.583127
C48	C	0.774009	0.666509	0.916460
C49	C	0.047934	-0.000166	0.248376
C50	C	0.381267	0.333168	0.581709
C51	C	0.714600	0.666501	0.915042
O52	O	0.011708	-0.000208	0.335631
O53	O	0.345042	0.333126	0.668964
O54	O	0.678375	0.666459	1.002298
N55	N	0.024688	-0.000170	0.144201
N56	N	0.358021	0.333163	0.477534
N57	N	0.691354	0.666497	0.810867
C58	C	0.060854	-0.000179	0.041437
C59	C	0.394187	0.333154	0.374770
C60	C	0.727521	0.666487	0.708103
O61	O	0.035626	-0.000185	-0.047302
O62	O	0.368960	0.333148	0.286031
O63	O	0.702293	0.666482	0.619364
C64	C	0.120261	-0.000181	0.042856
C65	C	0.453595	0.333153	0.376189
C66	C	0.786928	0.666486	0.709522
C67	C	0.143504	-0.000163	0.147037
C68	C	0.476837	0.333170	0.480371
C69	C	0.810171	0.666504	0.813704
C70	C	0.130585	-0.000142	0.353967
C71	C	0.463919	0.333192	0.687300
C72	C	0.797252	0.666525	1.020633
C73	C	0.189990	-0.000131	0.355384
C74	C	0.523323	0.333202	0.688717
C75	C	0.856657	0.666536	1.022051
C76	C	0.226151	-0.000137	0.252628
C77	C	0.559485	0.333197	0.585961
C78	C	0.892818	0.666530	0.919295
C79	C	0.202908	-0.000153	0.148455
C80	C	0.536242	0.333181	0.481788
C81	C	0.869575	0.666514	0.815121
C82	C	0.156427	-0.000199	-0.059907
C83	C	0.489760	0.333134	0.273427
C84	C	0.823093	0.666467	0.606760
C85	C	0.215838	-0.000202	-0.058479
C86	C	0.549171	0.333132	0.274854
C87	C	0.882504	0.666465	0.608188
C88	C	0.239080	-0.000184	0.045703
C89	C	0.572413	0.333149	0.379036
C90	C	0.905747	0.666483	0.712369
C91	C	0.298475	-0.000148	0.047116
C92	C	0.631808	0.333186	0.380449
C93	C	0.965141	0.666519	0.713783
N94	N	0.321721	-0.000143	0.151291
N95	N	0.655054	0.333190	0.484624
N96	N	0.988387	0.666523	0.817958
C97	C	0.285559	-0.000138	0.254047
C98	C	0.618892	0.333195	0.587380
C99	C	0.952226	0.666529	0.920714
C100	C	-0.063906	-0.000179	0.038465
C101	C	0.269427	0.333154	0.371798
C102	C	0.602760	0.666488	0.705131
C103	C	-0.123313	-0.000168	0.037045
C104	C	0.210021	0.333165	0.370378
C105	C	0.543354	0.666498	0.703711
C106	C	-0.136229	-0.000157	0.243984
C107	C	0.197104	0.333176	0.577317
C108	C	0.530438	0.666510	0.910651
C109	C	-0.076821	-0.000158	0.245403
C110	C	0.256512	0.333175	0.578736
C111	C	0.589845	0.666508	0.912070
C112	C	-0.040660	-0.000175	0.142640
C113	C	0.292673	0.333159	0.475973
C114	C	0.626006	0.666492	0.809306
C115	C	0.410313	-0.000115	0.257016
C116	C	0.743647	0.333219	0.590349
C117	C	1.076980	0.666552	0.923682
C118	C	0.469724	-0.000099	0.258424
C119	C	0.803057	0.333234	0.591757
C120	C	1.136390	0.666568	0.925090
C121	C	0.482635	-0.000117	0.051485
C122	C	0.815968	0.333216	0.384818
C123	C	1.149301	0.666550	0.718152
C124	C	0.423230	-0.000126	0.050076
C125	C	0.756563	0.333207	0.383410
C126	C	1.089896	0.666541	0.716743
C127	C	0.387070	-0.000129	0.152851
C128	C	0.720403	0.333204	0.486184
C129	C	1.053736	0.666537	0.819517
O130	O	0.334735	-0.000111	-0.040094
O131	O	0.668068	0.333222	0.293240
O132	O	1.001402	0.666556	0.626573
O133	O	0.310795	-0.000149	0.342771
O134	O	0.644128	0.333184	0.676105
O135	O	0.977461	0.666517	1.009438
C136	C	0.777294	-0.000164	0.138275
C137	C	1.110628	0.333169	0.471608
C138	C	1.443961	0.666503	0.804942
C139	C	0.840521	-0.000170	0.139801
C140	C	1.173854	0.333164	0.473135
C141	C	1.507187	0.666497	0.806468
C142	C	0.676715	-0.000152	-0.059808
C143	C	1.010048	0.333181	0.273525
C144	C	1.343382	0.666514	0.606858
C145	C	0.675200	-0.000151	-0.185786
C146	C	1.008533	0.333182	0.147548
C147	C	1.341866	0.666516	0.480881
N148	N	0.673214	0.308101	0.147736
N149	N	1.006547	0.641434	0.481070
N150	N	1.339881	0.974767	0.814403
C151	C	0.673969	-0.000146	-0.288093
C152	C	1.007302	0.333187	0.045240
C153	C	1.340635	0.666521	0.378573
C154	C	0.672429	-0.000134	-0.416444
C155	C	1.005762	0.333200	-0.083110
C156	C	1.339096	0.666533	0.250223
C157	C	0.669691	-0.000130	0.355277
C158	C	1.003024	0.333203	0.688611
C159	C	1.336357	0.666536	1.021944
C160	C	0.671206	-0.000123	0.481255
C161	C	1.004539	0.333210	0.814588
C162	C	1.337873	0.666543	1.147921
H163	H	0.380878	-0.000122	0.340705
H164	H	0.714212	0.333212	0.674038
H165	H	1.047545	0.666545	1.007371
H166	H	0.101148	-0.000142	0.437648
H167	H	0.434481	0.333192	0.770981
H168	H	0.767814	0.666525	1.104314
O169	O	-0.054340	-0.000208	0.346704
O170	O	0.278993	0.333125	0.680037
O171	O	0.612326	0.666459	1.013370
C172	C	-0.073438	-0.000112	0.551807
C173	C	0.259895	0.333221	0.885140
C174	C	0.593229	0.666554	1.218474
C175	C	-0.098969	-0.000083	0.437160
C176	C	0.234365	0.333250	0.770493
C177	C	0.567698	0.666584	1.103827
H178	H	-0.109507	0.000016	0.624971
H179	H	0.223826	0.333350	0.958304
H180	H	0.557159	0.666683	1.291638
H181	H	-0.045970	-0.090783	0.557727
H182	H	0.287363	0.242550	0.891061
H183	H	0.620696	0.575883	1.224394
H184	H	-0.045928	0.090511	0.557591
H185	H	0.287406	0.423844	0.890924
H186	H	0.620739	0.757178	1.224258
H187	H	-0.126505	-0.090645	0.431299
H188	H	0.206828	0.242688	0.764632
H189	H	0.540162	0.576022	1.097965
H190	H	-0.126403	0.090648	0.431289
H191	H	0.206930	0.423981	0.764622
H192	H	0.540263	0.757314	1.097955
O193	O	-0.145954	-0.000342	-0.064086
O194	O	0.187379	0.332992	0.269248
O195	O	0.520712	0.666325	0.602581
C196	C	-0.205490	-0.112608	-0.185837
C197	C	0.127843	0.220726	0.147497
C198	C	0.461177	0.554059	0.480830
C199	C	-0.179900	-0.112550	-0.071253
C200	C	0.153433	0.220783	0.262081
C201	C	0.486767	0.554116	0.595414
H202	H	-0.232931	-0.203332	-0.191679
H203	H	0.100403	0.130001	0.141654
H204	H	0.433736	0.463334	0.474988
H205	H	-0.233020	-0.022026	-0.191693
H206	H	0.100314	0.311307	0.141641
H207	H	0.433647	0.644641	0.474974
H208	H	-0.169425	-0.112544	-0.259010
H209	H	0.163909	0.220789	0.074323
H210	H	0.497242	0.554123	0.407657
H211	H	-0.215928	-0.112660	0.001986
H212	H	0.117405	0.220673	0.335320
H213	H	0.450739	0.554007	0.668653
H214	H	-0.152355	-0.203124	-0.065496
H215	H	0.180978	0.130209	0.267837
H216	H	0.514311	0.463542	0.601170
H217	H	0.208908	-0.000116	0.440219
H218	H	0.542241	0.333217	0.773553
H219	H	0.875575	0.666550	1.106886
H220	H	-0.165683	-0.000159	0.327653
H221	H	0.167651	0.333175	0.660987
H222	H	0.500984	0.666508	0.994320
H223	H	0.488644	-0.000084	0.343264
H224	H	0.821977	0.333249	0.676598
H225	H	1.155311	0.666583	1.009931
O226	O	-0.028863	-0.000116	-0.061471
O227	O	0.304471	0.333217	0.271862
O228	O	0.637804	0.666550	0.605196
C229	C	-0.022334	-0.000191	-0.266874
C230	C	0.310999	0.333142	0.066459
C231	C	0.644333	0.666475	0.399793
C232	C	-0.062082	-0.000231	-0.153784
C233	C	0.271252	0.333102	0.179549
C234	C	0.604585	0.666436	0.512883
H235	H	-0.049175	-0.000312	-0.341538
H236	H	0.284158	0.333022	-0.008205
H237	H	0.617491	0.666355	0.325128
H238	H	0.005789	0.090479	-0.271462
H239	H	0.339122	0.423813	0.061871
H240	H	0.672456	0.757146	0.395205
H241	H	0.005816	-0.090815	-0.271338
H242	H	0.339150	0.242518	0.061996
H243	H	0.672483	0.575852	0.395329
H244	H	-0.090267	0.090331	-0.149245
H245	H	0.243066	0.423665	0.184089
H246	H	0.576399	0.756998	0.517422
H247	H	-0.090166	-0.090961	-0.149243
H248	H	0.243167	0.242372	0.184090
H249	H	0.576501	0.575705	0.517423
H250	H	0.137513	-0.000215	-0.144743
H251	H	0.470847	0.333119	0.188591
H252	H	0.804180	0.666452	0.521924
H253	H	0.245278	-0.000216	-0.142163
H254	H	0.578611	0.333118	0.191170
H255	H	0.911944	0.666451	0.524503
O256	O	0.400743	-0.000183	-0.051223
O257	O	0.734076	0.333150	0.282110
O258	O	1.067409	0.666484	0.615444
C259	C	0.419831	-0.000106	-0.256328
C260	C	0.753164	0.333227	0.077006
C261	C	1.086498	0.666560	0.410339
C262	C	0.445367	-0.000060	-0.141687
C263	C	0.778701	0.333274	0.191647
C264	C	1.112034	0.666607	0.524980
H265	H	0.455898	0.000021	-0.329497
H266	H	0.789231	0.333354	0.003836
H267	H	1.122564	0.666688	0.337169
H268	H	0.392368	-0.090783	-0.262252
H269	H	0.725701	0.242551	0.071082
H270	H	1.059034	0.575884	0.404415
H271	H	0.392315	0.090511	-0.262098
H272	H	0.725649	0.423845	0.071235
H273	H	1.058982	0.757178	0.404569
H274	H	0.472909	-0.090616	-0.135839
H275	H	0.806242	0.242717	0.197494
H276	H	1.139575	0.576051	0.530828
H277	H	0.472798	0.090677	-0.135812
H278	H	0.806131	0.424010	0.197522
H279	H	1.139464	0.757343	0.530855
O280	O	0.517827	0.000048	-0.048252
O281	O	0.851160	0.333381	0.285082
O282	O	1.184494	0.666715	0.618415
C283	C	0.592382	0.112278	-0.166764
C284	C	0.925715	0.445611	0.166569
C285	C	1.259049	0.778945	0.499902
C286	C	0.552567	0.112251	-0.053761
C287	C	0.885900	0.445585	0.279573
C288	C	1.219234	0.778918	0.612906
H289	H	0.620471	0.202998	-0.171266
H290	H	0.953805	0.536332	0.162068
H291	H	1.287138	0.869665	0.495401
H292	H	0.620558	0.021692	-0.171273
H293	H	0.953891	0.355025	0.162060
H294	H	1.287224	0.688358	0.495393
H295	H	0.565559	0.112200	-0.241457
H296	H	0.898892	0.445533	0.091876
H297	H	1.232226	0.778867	0.425210
H298	H	0.579345	0.112375	0.020996
H299	H	0.912678	0.445708	0.354329
H300	H	1.246012	0.779042	0.687663
H301	H	0.524389	0.202829	-0.049351
H302	H	0.857722	0.536163	0.283982
H303	H	1.191056	0.869496	0.617315
