data_functionalizedCrystal
_audit_creation_method	'MofGen! by Chris Wilmer'
_symmetry_space_group_name_H-M	'P1'
_symmetry_Int_Tables_number	1
_symmetry_cell_setting	triclinic
loop_
_symmetry_equiv_pos_as_xyz
  x,y,z
_cell_length_a	14.560438
_cell_length_b	20.919309
_cell_length_c	14.560438
_cell_angle_alpha	89.999924
_cell_angle_beta	60.000095
_cell_angle_gamma	57.438533
loop_
_atom_site_label
_atom_site_type_symbol
_atom_site_fract_x
_atom_site_fract_y
_atom_site_fract_z
Zr1	Zr	0.933569	0.641721	-0.084682
O2	O	1.137078	0.535338	-0.237279
O3	O	0.738311	0.674339	-0.037900
O4	O	0.929925	0.674327	-0.229508
O5	O	0.945460	0.535353	0.105470
O6	O	0.917666	0.783958	-0.223382
O7	O	0.945463	0.535350	-0.045671
O8	O	0.574902	0.783979	0.119371
O9	O	1.288224	0.535332	-0.237283
O10	O	0.806419	0.770059	-0.013379
O11	O	0.815565	0.688246	0.094844
O12	O	1.041167	0.688231	-0.130751
O13	O	1.050314	0.606418	-0.022528
Zr14	Zr	0.914013	0.816574	0.166142
Zr15	Zr	0.914017	0.816569	-0.074911
Zr16	Zr	0.933564	0.641726	0.156370
Zr17	Zr	1.174630	0.641711	-0.084687
Zr18	Zr	0.672952	0.816584	0.166147
O19	O	1.109271	0.783956	0.119360
O20	O	1.109278	0.783949	-0.223386
O21	O	1.137071	0.535345	0.105466
O22	O	0.710504	0.922957	0.318739
O23	O	0.710511	0.922950	-0.024006
O24	O	0.738304	0.674346	0.304846
O25	O	0.902122	0.922942	-0.024010
O26	O	0.917656	0.783968	0.310968
O27	O	0.929915	0.674337	0.304842
O28	O	0.902119	0.922945	0.127131
O29	O	1.272683	0.674312	-0.229516
O30	O	0.574899	0.783983	0.310975
O31	O	0.559358	0.922963	0.318742
O32	O	0.559361	0.922960	0.127138
O33	O	1.288220	0.535335	-0.045678
O34	O	1.272679	0.674316	-0.037911
O35	O	0.806415	0.770064	0.212211
O36	O	0.797268	0.851877	0.103988
O37	O	1.032016	0.770049	-0.013384
O38	O	1.041163	0.688236	0.094839
C39	C	0.622261	0.729161	0.040736
C40	C	0.519924	0.729165	0.040738
C41	C	0.948247	0.510440	0.028507
C42	C	0.956547	0.436212	0.024359
C43	C	0.285679	0.789541	0.127370
C44	C	0.381812	0.789561	0.127376
C45	C	0.561903	0.668751	-0.045918
C46	C	0.465770	0.668735	-0.045929
C47	C	0.837914	0.444051	0.083671
C48	C	0.845721	0.374304	0.079771
C49	C	0.972163	0.296718	0.016551
C50	C	1.090805	0.288881	-0.042762
C51	C	1.082997	0.358628	-0.038855
C52	C	1.001869	0.083992	0.001694
C53	C	1.009668	0.014244	-0.002212
C54	C	0.764583	0.099672	0.120324
C55	C	0.756786	0.169416	0.124221
C56	C	0.875428	0.161572	0.064912
C57	C	0.980146	0.225424	0.012560
C58	C	0.867444	0.232866	0.068910
C59	C	1.225321	0.729134	0.040724
C60	C	1.327658	0.729130	0.040721
C61	C	0.923797	0.729142	-0.260790
C62	C	0.923799	0.729140	-0.363123
C63	C	0.899335	0.947855	0.052952
C64	C	0.891035	1.022083	0.057101
C65	C	1.046333	0.686428	-0.472466
C66	C	1.046325	0.686437	-0.568614
C67	C	0.801240	0.771873	-0.446063
C68	C	0.801248	0.771867	-0.349917
C69	C	0.923785	0.729153	0.342250
C70	C	0.923783	0.729155	0.444583
C71	C	0.597804	0.947869	0.052959
C72	C	0.487167	1.022101	0.057109
C73	C	0.622255	0.729166	0.342256
C74	C	0.519916	0.729173	0.444591
C75	C	0.597799	0.947874	0.354479
C76	C	0.487160	1.022108	0.460962
C77	C	1.249783	0.510421	-0.273019
C78	C	1.360422	0.436187	-0.379502
C79	C	1.249777	0.510426	0.028501
C80	C	1.360414	0.436194	0.024351
C81	C	1.225327	0.729129	-0.260796
C82	C	1.327666	0.729122	-0.363131
C83	C	0.439988	1.014253	-0.002216
C84	C	0.336047	1.083995	0.001660
C85	C	0.279281	1.161584	0.064870
C86	C	0.326470	1.169430	0.124197
C87	C	0.430416	1.099689	0.120313
C88	C	0.430427	1.099682	0.454477
C89	C	0.326483	1.169440	0.554521
C90	C	0.279267	1.161621	0.661048
C91	C	0.336010	1.084038	0.667530
C92	C	0.439958	1.014283	0.567488
C93	C	1.417166	0.358613	-0.373017
C94	C	1.521140	0.288855	-0.473061
C95	C	1.568362	0.296674	-0.579588
C96	C	1.511613	0.374257	-0.586070
C97	C	1.407647	0.444012	-0.486028
C98	C	1.407604	0.444042	0.083666
C99	C	1.511572	0.374300	0.079763
C100	C	1.568341	0.296711	0.016550
C101	C	1.521147	0.288865	-0.042773
C102	C	1.417188	0.358606	-0.038875
C103	C	0.467059	0.771883	0.553933
C104	C	0.370911	0.771880	0.650083
C105	C	0.380483	0.686455	0.527537
C106	C	0.476636	0.686454	0.431388
H107	H	0.347620	0.838755	0.197933
H108	H	0.345230	0.651676	0.516801
H109	H	0.327880	0.806658	0.739111
O110	O	1.582380	0.205175	-0.110943
H111	H	1.626999	0.198063	-0.201840
H112	H	0.701459	0.806653	-0.260878
O113	O	0.501217	0.930571	-0.070408
H114	H	0.450947	0.936844	-0.111017
H115	H	1.567329	0.225691	-0.467761
H116	H	0.297639	1.077590	-0.046651
O117	O	0.669061	0.817960	-0.431816
H118	H	0.615337	0.793292	-0.386493
H119	H	1.549979	0.380705	0.128075
H120	H	0.674362	0.619579	-0.116464
H121	H	0.194641	1.218365	0.068024
H122	H	1.378770	0.352205	-0.087174
H123	H	1.378725	0.352231	-0.286287
O124	O	0.265228	1.253118	0.192383
H125	H	0.185012	1.300288	0.185121
H126	H	0.502299	0.806665	0.564689
O127	O	1.680511	0.221435	-0.687489
H128	H	1.712025	0.166182	-0.665072
H129	H	1.361447	0.507175	-0.491322
O130	O	1.562540	0.382686	-0.700971
H131	H	1.644354	0.321143	-0.769437
H132	H	0.519677	0.651670	0.342351
H133	H	0.468816	1.106091	0.168630
H134	H	0.468855	1.106064	0.367747
H135	H	1.146121	0.651636	-0.483225
O136	O	0.265278	1.253112	0.547517
H137	H	0.315561	1.246823	0.456633
O138	O	0.167135	1.236860	0.768949
H139	H	0.135614	1.292113	0.746532
O140	O	0.136720	0.854689	0.220818
H141	H	0.092183	0.825648	0.267215
H142	H	0.499963	0.619539	-0.116494
H143	H	1.361390	0.507213	0.135148
H144	H	0.734951	0.507221	0.135157
H145	H	0.486138	0.951121	0.572784
O146	O	0.717768	0.382756	0.143726
H147	H	0.628534	0.448423	0.188325
O148	O	0.620410	0.253098	0.192403
H149	H	0.539225	0.246831	0.232996
O150	O	0.285053	1.075616	0.782435
H151	H	0.300162	1.105358	0.830728
O152	O	0.636622	0.108132	0.184300
H153	H	0.663287	0.046601	0.170972
O154	O	1.146050	-0.069444	-0.070391
H155	H	1.227239	-0.063182	-0.110966
O156	O	1.680432	0.221491	0.012387
H157	H	1.703680	0.239992	0.064277
H158	H	1.146105	0.651657	-0.657643
H159	H	1.098476	0.077595	-0.046620
H160	H	1.179601	0.352240	-0.087139
O161	O	1.227187	0.205202	-0.110964
H162	H	1.212689	0.158019	-0.103732
H163	H	0.764495	0.296039	0.120388
O164	O	1.116517	0.141740	-0.055646
H165	H	1.125935	0.107912	0.001897
