data_functionalizedCrystal
_audit_creation_method	'MofGen! by Chris Wilmer'
_symmetry_space_group_name_H-M	'P1'
_symmetry_Int_Tables_number	1
_symmetry_cell_setting	triclinic
loop_
_symmetry_equiv_pos_as_xyz
  x,y,z
_cell_length_a	17.077404
_cell_length_b	12.759399
_cell_length_c	17.077396
_cell_angle_alpha	90.026002
_cell_angle_beta	90.019501
_cell_angle_gamma	90.015341
loop_
_atom_site_label
_atom_site_type_symbol
_atom_site_fract_x
_atom_site_fract_y
_atom_site_fract_z
Zn1	Zn	1.200097	-0.418260	0.443856
Zn2	Zn	1.200022	-0.593961	0.312596
Zn3	Zn	1.068829	-0.418297	0.312604
Zn4	Zn	1.068815	-0.593898	0.443820
O5	O	1.134441	-0.506104	0.378219
O6	O	1.309934	-0.441578	0.426456
O7	O	1.182593	-0.570700	0.202750
O8	O	1.086279	-0.271271	0.330034
O9	O	1.309879	-0.570664	0.330020
O10	O	1.182721	-0.271244	0.426464
O11	O	1.086206	-0.441641	0.202756
O12	O	0.958980	-0.441580	0.329998
O13	O	1.086255	-0.570558	0.553671
O14	O	0.958970	-0.570594	0.426402
O15	O	1.182708	-0.441517	0.553698
O16	O	1.182580	-0.740973	0.329984
O17	O	1.086182	-0.740927	0.426394
C18	C	0.930493	-0.506085	0.378197
C19	C	0.843243	-0.506102	0.378207
C20	C	0.802268	-0.573381	0.428323
C21	C	0.720287	-0.573383	0.428336
C22	C	0.679284	-0.506111	0.378227
C23	C	0.720264	-0.438825	0.328108
C24	C	0.802243	-0.438818	0.328100
C25	C	0.549394	-0.438846	0.328127
C26	C	0.467410	-0.438854	0.328134
C27	C	0.467438	-0.573410	0.428363
C28	C	0.549417	-0.573404	0.428355
C29	C	0.590393	-0.506119	0.378235
C30	C	1.134392	-0.779071	0.378201
C31	C	1.134444	-0.895848	0.378220
C32	C	1.184695	-0.950699	0.328076
C33	C	1.184746	-1.060423	0.328103
C34	C	1.084286	-1.060435	0.428418
C35	C	1.084240	-0.950713	0.428395
C36	C	1.277400	-1.210298	0.300171
C37	C	1.327645	-1.265152	0.250016
C38	C	1.339725	-1.229604	0.173426
C39	C	1.301549	-1.139202	0.146975
C40	C	1.251299	-1.084353	0.197127
C41	C	1.239233	-1.119900	0.273728
C42	C	0.991585	-0.800836	0.456318
C43	C	0.941330	-0.745985	0.506466
C44	C	0.929242	-0.781532	0.583058
C45	C	0.967404	-0.871938	0.609505
C46	C	1.017658	-0.926789	0.559357
C47	C	1.029748	-0.891234	0.482766
C48	C	1.339185	-0.506124	0.378241
C49	C	1.426435	-0.506132	0.378251
C50	C	1.134488	-0.506026	0.582963
C51	C	1.134508	-0.505993	0.670213
C52	C	1.134510	-0.232071	0.378254
C53	C	1.134540	-0.115294	0.378269
C54	C	1.134438	-0.506105	0.174271
C55	C	1.134570	-0.505842	0.087022
C56	C	1.184733	-0.438796	0.711219
C57	C	1.184742	-0.438761	0.793199
C58	C	1.134531	-0.505930	0.834173
C59	C	1.084300	-0.573130	0.793161
C60	C	1.084288	-0.573159	0.711182
C61	C	1.084332	-0.573066	0.964032
C62	C	1.084346	-0.573039	1.046016
C63	C	1.184787	-0.438669	1.046048
C64	C	1.184774	-0.438698	0.964069
C65	C	1.134545	-0.505900	0.923064
H66	H	0.434073	-0.628193	0.469175
C67	C	0.594472	-0.364830	0.272999
C68	C	0.583222	-0.245406	0.279561
C69	C	0.628302	-0.171396	0.224435
C70	C	0.684632	-0.216809	0.162746
C71	C	0.695884	-0.336240	0.156182
C72	C	0.650804	-0.410250	0.211308
H73	H	0.541521	-0.211783	0.325229
H74	H	0.619972	-0.082985	0.229295
H75	H	0.718003	-0.162022	0.121939
H76	H	0.737585	-0.369863	0.110514
H77	H	0.659134	-0.498660	0.206449
H78	H	0.835647	-0.628165	0.469125
H79	H	0.686929	-0.628169	0.469145
C80	C	1.394994	-1.289951	0.118259
C81	C	1.377828	-1.405224	0.097729
C82	C	1.433099	-1.465579	0.042571
C83	C	1.505536	-1.410662	0.007943
C84	C	1.522706	-1.295382	0.028473
C85	C	1.467435	-1.235027	0.083631
H86	H	1.324202	-1.445883	0.123363
H87	H	1.420388	-1.550917	0.027373
H88	H	1.546451	-1.455340	-0.032889
H89	H	1.576332	-1.254723	0.002839
H90	H	1.480146	-1.149690	0.098829
C91	C	1.264124	-1.249394	0.384429
C92	C	1.306110	-1.348831	0.413515
C93	C	1.292834	-1.387932	0.497774
C94	C	1.237572	-1.327595	0.552946
C95	C	1.195582	-1.228152	0.523861
C96	C	1.208858	-1.189052	0.439602
H97	H	1.347021	-1.393501	0.372672
H98	H	1.323918	-1.461546	0.519304
H99	H	1.227744	-1.356540	0.615320
H100	H	1.154671	-1.183482	0.564704
H101	H	1.177774	-1.115437	0.418072
C102	C	1.029140	-0.646960	1.091089
C103	C	0.973906	-0.720901	1.045989
C104	C	0.918715	-0.794843	1.091062
C105	C	0.918759	-0.794843	1.181236
C106	C	0.973995	-0.720899	1.226341
C107	C	1.029186	-0.646958	1.181268
H108	H	0.973872	-0.720903	0.979233
H109	H	0.877826	-0.849581	1.057672
H110	H	0.877904	-0.849579	1.214602
H111	H	0.974029	-0.720897	1.293098
H112	H	1.070075	-0.592220	1.214659
H113	H	1.043414	-0.627815	0.826529
H114	H	1.225624	-0.384103	0.677864
C115	C	1.240008	-0.364814	0.918998
C116	C	1.233635	-0.245373	0.930281
C117	C	1.288869	-0.171485	0.885211
C118	C	1.350475	-0.217039	0.828857
C119	C	1.356851	-0.336487	0.817572
C120	C	1.301618	-0.410374	0.862642
H121	H	1.188028	-0.211645	0.972000
H122	H	1.284149	-0.083062	0.893566
H123	H	1.391363	-0.162344	0.795493
H124	H	1.402458	-0.370214	0.775853
H125	H	1.306338	-0.498798	0.854287
H126	H	1.225575	-0.906030	0.287222
H127	H	1.225684	-0.383950	1.079439
H128	H	1.043381	-0.627867	0.677797
H129	H	1.048735	-1.000399	0.580899
H130	H	1.043418	-0.627773	0.930647
C131	C	0.594522	-0.647406	0.483473
C132	C	0.650852	-0.729826	0.449343
C133	C	0.695956	-0.803827	0.504462
C134	C	0.684730	-0.795409	0.593712
C135	C	0.628398	-0.712986	0.627847
C136	C	0.583294	-0.638984	0.572727
H137	H	0.659164	-0.736060	0.383271
H138	H	0.737657	-0.864842	0.479193
H139	H	0.718119	-0.850190	0.634515
H140	H	0.620085	-0.706751	0.693919
H141	H	0.541592	-0.577969	0.597996
C142	C	0.847321	-0.364810	0.272972
C143	C	0.836068	-0.245387	0.279537
C144	C	0.881145	-0.171372	0.224412
C145	C	0.937476	-0.216780	0.162722
C146	C	0.948731	-0.336210	0.156155
C147	C	0.903654	-0.410225	0.211280
H148	H	0.794367	-0.211768	0.325206
H149	H	0.872813	-0.082962	0.229274
H150	H	0.970845	-0.161990	0.121915
H151	H	0.990432	-0.369829	0.110486
H152	H	0.911986	-0.498635	0.206418
H153	H	0.686872	-0.384046	0.287312
C154	C	1.209311	-0.984912	0.168043
C155	C	1.222593	-0.945804	0.083792
C156	C	1.180611	-0.846357	0.054708
C157	C	1.125347	-0.786017	0.109876
C158	C	1.112062	-0.825124	0.194133
C159	C	1.154044	-0.924571	0.223216
H160	H	1.263506	-0.990472	0.042949
H161	H	1.190446	-0.817408	-0.007664
H162	H	1.094269	-0.712400	0.088347
H163	H	1.071149	-0.780456	0.234976
H164	H	1.144209	-0.953521	0.285589
H165	H	0.434026	-0.384062	0.287340
H166	H	1.358728	-1.338758	0.271559
H167	H	1.311383	-1.110271	0.084605
H168	H	1.043411	-1.105120	0.469268
C169	C	0.954112	-0.911048	0.693758
C170	C	0.871181	-0.941121	0.721102
C171	C	0.857885	-0.980231	0.805355
C172	C	0.927521	-0.989268	0.862264
C173	C	1.010458	-0.959194	0.834921
C174	C	1.023754	-0.920084	0.750668
H175	H	0.819627	-0.934432	0.678973
H176	H	0.796489	-1.002494	0.825595
H177	H	0.917678	-1.018220	0.924633
H178	H	1.062012	-0.965883	0.877050
H179	H	1.085150	-0.897821	0.730428
C180	C	0.873956	-0.721200	0.638221
C181	C	0.831966	-0.621765	0.609135
C182	C	0.776684	-0.561438	0.664299
C183	C	0.763391	-0.600545	0.748549
C184	C	0.805382	-0.699984	0.777639
C185	C	0.860664	-0.760312	0.722475
H186	H	0.841805	-0.592811	0.546764
H187	H	0.745600	-0.487826	0.642764
H188	H	0.722468	-0.555887	0.789385
H189	H	0.795543	-0.728938	0.840010
H190	H	0.891748	-0.833924	0.744010
H191	H	1.001429	-0.771879	0.393953
H192	H	0.910261	-0.672368	0.484928
H193	H	1.225642	-0.384045	0.826582
