data_functionalizedCrystal
_audit_creation_method	'MofGen! by Chris Wilmer'
_symmetry_space_group_name_H-M	'P1'
_symmetry_Int_Tables_number	1
_symmetry_cell_setting	triclinic
loop_
_symmetry_equiv_pos_as_xyz
  x,y,z
_cell_length_a	16.109301
_cell_length_b	17.699104
_cell_length_c	15.186229
_cell_angle_alpha	89.995322
_cell_angle_beta	89.999362
_cell_angle_gamma	83.376499
loop_
_atom_site_label
_atom_site_type_symbol
_atom_site_fract_x
_atom_site_fract_y
_atom_site_fract_z
O1	O	1.102971	0.097284	-0.073175
O2	O	0.860889	0.109390	-0.073189
O3	O	0.988761	-0.006841	-0.073174
O4	O	0.975100	0.213515	-0.073190
O5	O	0.988752	-0.006843	0.073284
O6	O	0.860881	0.109389	0.073268
O7	O	1.102963	0.097282	0.073283
Zn8	Zn	0.981920	0.103335	0.096529
Zn9	Zn	0.981931	0.103337	-0.096435
O10	O	0.975091	0.213514	0.073267
C11	C	0.829911	0.108899	0.000038
C12	C	0.737618	0.107429	0.000033
C13	C	0.988264	-0.035040	0.000055
C14	C	0.986786	-0.119059	0.000056
C15	C	0.515238	0.172980	0.000038
C16	C	0.428520	0.171592	0.000044
C17	C	0.448621	0.033687	0.000050
C18	C	0.535337	0.035076	0.000051
C19	C	0.568643	0.104724	0.000040
C20	C	0.395209	0.101948	0.000046
C21	C	0.301185	0.100444	0.000052
C22	C	0.662673	0.106229	0.000036
C23	C	1.053513	-0.643835	0.000034
C24	C	1.054896	-0.564889	0.000042
C25	C	0.979831	-0.516379	0.000040
C26	C	0.903377	-0.546818	0.000038
C27	C	0.901995	-0.625762	0.000037
C28	C	0.908950	-0.228444	0.000046
C29	C	0.910338	-0.149494	0.000045
C30	C	1.061851	-0.167571	0.000052
C31	C	1.060469	-0.246515	0.000050
C32	C	0.984016	-0.276947	0.000053
C33	C	0.982517	-0.362549	0.000046
C34	C	0.981329	-0.430778	0.000040
C35	C	1.133941	0.097773	0.000054
C36	C	1.226234	0.099243	0.000053
C37	C	0.975588	0.241712	0.000036
C38	C	0.977065	0.325731	0.000030
N39	N	0.981919	0.103333	0.228221
N40	N	0.981940	0.103333	-0.228128
C41	C	1.038559	0.051883	0.453951
C42	C	1.038562	0.051881	0.546141
C43	C	0.925293	0.154786	0.546136
C44	C	0.925287	0.154783	0.453948
C45	C	0.981925	0.103333	0.407858
C46	C	0.981933	0.103333	0.592236
C47	C	0.981936	0.103332	0.692192
C48	C	0.981922	0.103333	0.307895
H49	H	0.385040	0.227173	0.000044
C50	C	0.828897	-0.096734	0.000186
C51	C	0.825280	-0.050874	0.075522
C52	C	0.750280	-0.002256	0.075673
H53	H	0.783097	-0.126069	0.000235
H54	H	0.826282	-0.065515	-0.050862
H55	H	0.827887	-0.082089	0.126556
H56	H	0.871063	-0.021524	0.075489
H57	H	0.747665	0.028963	0.024626
H58	H	0.704486	-0.031597	0.075720
H59	H	0.747820	0.028870	0.126783
C60	C	0.819054	-0.658912	-0.000108
C61	C	0.813847	-0.703718	-0.075445
C62	C	0.737457	-0.734275	-0.075599
H63	H	0.774473	-0.618795	-0.000156
H64	H	0.815357	-0.689379	0.050939
H65	H	0.817536	-0.673253	-0.126479
H66	H	0.858411	-0.743847	-0.075413
H67	H	0.733760	-0.764742	-0.024552
H68	H	0.692882	-0.694153	-0.075644
H69	H	0.733918	-0.764685	-0.126709
H70	H	1.084676	0.009988	0.416427
H71	H	0.421492	-0.023018	0.000064
H72	H	0.578822	-0.020510	0.000055
C73	C	1.144945	-0.134676	0.000011
C74	C	1.210386	-0.194057	-0.000016
C75	C	1.286941	-0.163786	-0.000070
H76	H	1.148756	-0.104272	0.051071
H77	H	1.148679	-0.104272	-0.051082
H78	H	1.206654	-0.224448	0.051071
H79	H	1.206602	-0.224466	-0.051072
H80	H	1.290675	-0.133383	-0.051163
H81	H	1.290744	-0.133382	0.050990
H82	H	1.331352	-0.204071	-0.000097
H83	H	1.084678	0.009985	0.583667
C84	C	0.825862	-0.261331	0.000000
C85	C	0.760422	-0.201948	-0.000028
C86	C	0.683866	-0.232218	-0.000082
H87	H	0.822049	-0.291742	0.051060
H88	H	0.822127	-0.291727	-0.051092
H89	H	0.764155	-0.171565	0.051059
H90	H	0.764207	-0.171533	-0.051084
H91	H	0.680132	-0.262614	-0.051174
H92	H	0.680063	-0.262628	0.050979
H93	H	0.639457	-0.191932	-0.000109
C94	C	0.863758	0.210732	0.404056
C95	C	0.814177	0.255809	0.464149
C96	C	0.757496	0.307359	0.418221
H97	H	0.829123	0.183582	0.368098
H98	H	0.893580	0.242286	0.368105
H99	H	0.784357	0.224259	0.500086
H100	H	0.848788	0.282975	0.500110
H101	H	0.787318	0.338912	0.382270
H102	H	0.722868	0.280202	0.382264
H103	H	0.723854	0.337954	0.458987
H104	H	0.542353	0.229692	0.000036
H105	H	1.114640	-0.683327	0.000029
H106	H	1.117147	-0.540114	0.000046
H107	H	0.879181	0.196677	0.583672
H108	H	1.121595	-0.286009	0.000047
H109	H	0.842258	-0.507314	0.000042
