data_functionalizedCrystal
_audit_creation_method	'MofGen! by Chris Wilmer'
_symmetry_space_group_name_H-M	'P1'
_symmetry_Int_Tables_number	1
_symmetry_cell_setting	triclinic
loop_
_symmetry_equiv_pos_as_xyz
  x,y,z
_cell_length_a	21.606444
_cell_length_b	21.606444
_cell_length_c	20.016444
_cell_angle_alpha	120.009504
_cell_angle_beta	89.997025
_cell_angle_gamma	60.003501
loop_
_atom_site_label
_atom_site_type_symbol
_atom_site_fract_x
_atom_site_fract_y
_atom_site_fract_z
Zr1	Zr	0.596232	0.677515	0.087788
O2	O	0.497401	0.806652	0.194492
O3	O	0.626529	0.548382	0.055062
O4	O	0.626520	0.677522	0.194466
O5	O	0.497417	0.677506	-0.054859
O6	O	0.728372	0.677522	0.194465
O7	O	0.497410	0.677513	0.055087
O8	O	0.728387	0.446515	-0.054905
O9	O	0.497402	0.908512	0.194510
O10	O	0.715461	0.601495	0.041123
O11	O	0.639456	0.601489	-0.040928
O12	O	0.639446	0.753534	0.123203
O13	O	0.563440	0.753529	0.041153
Zr14	Zr	0.758686	0.677503	-0.087566
Zr15	Zr	0.758674	0.677515	0.087786
Zr16	Zr	0.596244	0.677503	-0.087563
Zr17	Zr	0.596233	0.839970	0.087818
Zr18	Zr	0.758685	0.515048	-0.087596
O19	O	0.728389	0.806636	-0.054840
O20	O	0.728373	0.806652	0.194488
O21	O	0.497418	0.806636	-0.054836
O22	O	0.857517	0.548366	-0.194270
O23	O	0.857501	0.548382	0.055058
O24	O	0.626545	0.548366	-0.194266
O25	O	0.857501	0.677512	0.055081
O26	O	0.728398	0.677496	-0.194244
O27	O	0.626546	0.677496	-0.194243
O28	O	0.857509	0.677505	-0.054865
O29	O	0.626521	0.908512	0.194508
O30	O	0.728397	0.446506	-0.194286
O31	O	0.857517	0.446506	-0.194288
O32	O	0.857507	0.446515	-0.054907
O33	O	0.497411	0.908503	0.055129
O34	O	0.626531	0.908503	0.055127
O35	O	0.715472	0.601484	-0.122981
O36	O	0.791478	0.601489	-0.040930
O37	O	0.715462	0.753529	0.041150
O38	O	0.639457	0.753524	-0.040900
C39	C	0.677458	0.474302	0.000074
C40	C	0.677458	0.405336	0.000062
C41	C	0.621340	0.429075	0.060650
C42	C	0.621342	0.364286	0.060667
C43	C	0.677459	0.275758	0.000092
C44	C	0.733582	0.252019	-0.060500
C45	C	0.733582	0.316808	-0.060513
C46	C	0.733582	-0.009267	-0.060449
C47	C	0.733575	-0.074056	-0.060432
C48	C	0.621341	0.038210	0.060732
C49	C	0.621342	0.102999	0.060719
C50	C	0.677467	0.079255	0.000130
C51	C	0.677465	0.149508	0.000113
C52	C	0.677458	0.205506	0.000105
C53	C	0.474269	0.677509	0.000114
C54	C	0.405308	0.677509	0.000116
C55	C	0.372905	0.677516	0.060688
C56	C	0.308111	0.677511	0.060685
C57	C	0.275718	0.677507	0.000112
C58	C	0.308126	0.677498	-0.060466
C59	C	0.372922	0.677496	-0.060466
C60	C	0.046813	0.677504	-0.060469
C61	C	-0.017989	0.677509	-0.060463
C62	C	-0.017998	0.677520	0.060682
C63	C	0.046798	0.677518	0.060682
C64	C	0.079203	0.677504	0.000102
C65	C	0.149460	0.677507	0.000105
C66	C	0.205458	0.677510	0.000112
C67	C	0.880649	0.677509	0.000108
C68	C	0.949610	0.677509	0.000107
C69	C	0.677444	0.677523	0.219449
C70	C	0.677439	0.677528	0.293891
C71	C	0.677460	0.880716	0.000148
C72	C	0.677461	0.949682	0.000160
C73	C	0.637770	0.756885	0.507994
C74	C	0.637775	0.756883	0.577936
C75	C	0.717135	0.598148	0.492231
C76	C	0.717134	0.598151	0.422291
C77	C	0.677447	0.677522	0.430176
C78	C	0.677453	0.677517	0.570058
C79	C	0.677459	0.677514	0.645892
C80	C	0.677443	0.677526	0.354337
C81	C	0.677469	0.677500	0.780776
C82	C	0.677461	0.677511	0.706343
C83	C	0.880648	0.474302	0.000071
C84	C	0.949609	0.405336	0.000057
C85	C	0.677473	0.474288	-0.219264
C86	C	0.677477	0.405317	-0.293718
C87	C	0.880663	0.474288	-0.219267
C88	C	0.949629	0.405316	-0.293722
C89	C	0.474255	0.880730	0.219489
C90	C	0.405290	0.949702	0.293945
C91	C	0.474270	0.880716	0.000151
C92	C	0.405309	0.949683	0.000165
C93	C	0.677446	0.880730	0.219486
C94	C	0.677441	0.949701	0.293940
C95	C	0.942314	0.372951	0.042889
C96	C	1.007103	0.308159	0.042893
C97	C	1.079187	0.275747	0.000059
C98	C	1.086481	0.308138	-0.042774
C99	C	1.021692	0.372934	-0.042772
C100	C	0.717159	0.372924	-0.371520
C101	C	0.717161	0.308127	-0.441484
C102	C	0.677484	0.275720	-0.433644
C103	C	0.637797	0.308119	-0.355833
C104	C	0.637792	0.372919	-0.285871
C105	C	1.021696	0.372929	-0.285858
C106	C	1.086503	0.308132	-0.355809
C107	C	1.079240	0.275719	-0.433625
C108	C	1.007165	0.308113	-0.441488
C109	C	0.942360	0.372913	-0.371537
C110	C	0.333222	0.982097	0.286080
C111	C	0.268415	1.046914	0.356032
C112	C	0.275678	1.079330	0.433847
C113	C	0.347753	1.046933	0.441710
C114	C	0.412558	0.982121	0.371759
C115	C	0.412605	0.982074	-0.042660
C116	C	0.347815	1.046884	-0.042644
C117	C	0.275731	1.079298	0.000192
C118	C	0.268437	1.046904	0.043022
C119	C	0.333226	0.982099	0.043010
C120	C	0.717125	0.982088	0.286073
C121	C	0.717136	1.046886	0.356024
C122	C	0.677457	1.079299	0.433840
C123	C	0.637772	1.046906	0.441705
C124	C	0.637766	0.982105	0.371756
H125	H	0.575644	0.057537	0.110069
H126	H	0.575646	0.383622	0.110004
Br127	Br	0.090755	0.677531	0.142894
Br128	Br	0.770981	0.938114	0.180474
Br129	Br	0.770988	0.490436	0.481537
Br130	Br	0.677499	0.187776	-0.528603
H131	H	0.209735	1.073281	0.349613
Br132	Br	1.184310	0.264182	-0.345119
H133	H	1.145180	0.281740	-0.077647
H134	H	1.001150	0.281794	0.077772
H135	H	1.131936	0.222986	0.000064
Br136	Br	0.187720	1.167290	0.528774
H137	H	0.605455	0.821514	0.514419
H138	H	0.327294	0.955706	0.222725
Br139	Br	0.583929	0.864594	0.683547
H140	H	0.779282	-0.028611	-0.109783
H141	H	0.883681	0.399274	-0.377952
Br142	Br	0.264171	0.677482	-0.142680
H143	H	0.749448	0.533521	0.358923
H144	H	0.073190	0.677495	-0.109795
H145	H	1.027624	0.399311	-0.222503
H146	H	0.883625	0.399339	0.077779
H147	H	1.027643	0.399293	-0.077656
Br148	Br	0.771027	0.264170	-0.547074
H149	H	-0.044362	0.677504	-0.109792
Br150	Br	0.771017	0.416887	-0.382183
H151	H	0.749451	1.073254	0.349604
H152	H	1.132015	0.222955	-0.490577
H153	H	0.605494	0.281723	-0.349462
Br154	Br	0.323311	0.938143	0.101131
Br155	Br	0.583935	0.416869	-0.180284
H156	H	0.677467	1.132064	0.490791
H157	H	0.222982	1.132066	0.000195
H158	H	0.353658	1.073335	0.505076
H159	H	1.001263	0.281712	-0.504855
H160	H	0.353768	1.073249	-0.077524
H161	H	0.471238	0.955746	0.378173
Br162	Br	0.809738	-0.194206	-0.142649
Br163	Br	0.583918	1.090913	0.547320
Br164	Br	0.583896	0.938166	0.382446
Br165	Br	0.510425	0.938101	-0.100798
H166	H	0.209738	1.073304	0.077897
H167	H	0.575636	0.501156	0.109970
H168	H	0.575643	0.175081	0.110043
Br169	Br	0.809745	0.131875	-0.142707
H170	H	0.779279	0.297473	-0.109850
H171	H	0.399273	0.677525	0.110016
H172	H	-0.044387	0.677527	0.110008
Br173	Br	0.416901	0.677478	-0.142680
Br174	Br	0.264137	0.677516	0.142889
