data_functionalizedCrystal
_audit_creation_method	'MofGen! by Chris Wilmer'
_symmetry_space_group_name_H-M	'P1'
_symmetry_Int_Tables_number	1
_symmetry_cell_setting	triclinic
loop_
_symmetry_equiv_pos_as_xyz
  x,y,z
_cell_length_a	25.639242
_cell_length_b	25.639239
_cell_length_c	16.625539
_cell_angle_alpha	89.968745
_cell_angle_beta	89.970645
_cell_angle_gamma	90.034213
loop_
_atom_site_label
_atom_site_type_symbol
_atom_site_fract_x
_atom_site_fract_y
_atom_site_fract_z
Zn1	Zn	0.799262	-0.208212	-0.456082
Zn2	Zn	1.299262	0.291788	0.043918
Zn3	Zn	0.799175	-0.295650	-0.321242
Zn4	Zn	1.299175	0.204350	0.178758
Zn5	Zn	0.711828	-0.208224	-0.321242
Zn6	Zn	1.211828	0.291776	0.178758
Zn7	Zn	0.711784	-0.295612	-0.456011
Zn8	Zn	1.211784	0.204388	0.043989
O9	O	0.755512	-0.251924	-0.388644
O10	O	1.255512	0.248076	0.111356
O11	O	0.872416	-0.219822	-0.438225
O12	O	1.372416	0.280178	0.061775
O13	O	0.787570	-0.284074	-0.208409
O14	O	1.287570	0.215926	0.291591
O15	O	0.723481	-0.135057	-0.339158
O16	O	1.223481	0.364943	0.160842
O17	O	0.872351	-0.284063	-0.339158
O18	O	1.372351	0.215937	0.160842
O19	O	0.787719	-0.135048	-0.438224
O20	O	1.287719	0.364952	0.061776
O21	O	0.723396	-0.219842	-0.208409
O22	O	1.223396	0.280158	0.291591
O23	O	0.638657	-0.219805	-0.339089
O24	O	1.138657	0.280195	0.160911
O25	O	0.723406	-0.283997	-0.568853
O26	O	1.223406	0.216003	-0.068853
O27	O	0.638624	-0.284008	-0.438104
O28	O	1.138624	0.215992	0.061896
O29	O	0.787676	-0.219785	-0.568905
O30	O	1.287676	0.280215	-0.068905
O31	O	0.787527	-0.368810	-0.339090
O32	O	1.287527	0.131190	0.160910
O33	O	0.723321	-0.368782	-0.438104
O34	O	1.223321	0.131218	0.061896
C35	C	0.619669	-0.251904	-0.388589
C36	C	1.119669	0.248096	0.111411
C37	C	0.561555	-0.251908	-0.388585
C38	C	1.061555	0.248092	0.111415
C39	C	0.201184	-0.285411	-0.440152
C40	C	0.701184	0.214589	0.059848
C41	C	0.146580	-0.285414	-0.440165
C42	C	0.646580	0.214586	0.059835
O43	O	0.118337	-0.313875	-0.483963
O44	O	0.618337	0.186125	0.016037
N45	N	0.119273	-0.251939	-0.388697
N46	N	0.619273	0.248061	0.111303
C47	C	0.146573	-0.218454	-0.337218
C48	C	0.646573	0.281546	0.162782
O49	O	0.118332	-0.189981	-0.293442
O50	O	0.618332	0.310019	0.206558
C51	C	0.201176	-0.218449	-0.337210
C52	C	0.701176	0.281551	0.162790
C53	C	0.228481	-0.251930	-0.388676
C54	C	0.728481	0.248070	0.111324
C55	C	0.228489	-0.318889	-0.491614
C56	C	0.728489	0.181111	0.008386
C57	C	0.283089	-0.318887	-0.491600
C58	C	0.783089	0.181113	0.008400
C59	C	0.310386	-0.285406	-0.440124
C60	C	0.810386	0.214594	0.059876
C61	C	0.283081	-0.251928	-0.388662
C62	C	0.783081	0.248072	0.111338
C63	C	0.228475	-0.184962	-0.285736
C64	C	0.728475	0.315038	0.214264
C65	C	0.283082	-0.184959	-0.285733
C66	C	0.783082	0.315041	0.214267
C67	C	0.310387	-0.218440	-0.337199
C68	C	0.810387	0.281560	0.162801
C69	C	0.364978	-0.218444	-0.337172
C70	C	0.864978	0.281556	0.162828
N71	N	0.392285	-0.251919	-0.388640
N72	N	0.892285	0.248081	0.111360
C73	C	0.364989	-0.285400	-0.440116
C74	C	0.864989	0.214600	0.059884
C75	C	0.031902	-0.218468	-0.337240
C76	C	0.531902	0.281532	0.162760
C77	C	-0.022700	-0.218475	-0.337243
C78	C	0.477300	0.281525	0.162757
C79	C	-0.022689	-0.285435	-0.440191
C80	C	0.477311	0.214565	0.059809
C81	C	0.031914	-0.285429	-0.440183
C82	C	0.531914	0.214571	0.059817
C83	C	0.059209	-0.251943	-0.388708
C84	C	0.559209	0.248057	0.111292
C85	C	0.479654	-0.285393	-0.440082
C86	C	0.979654	0.214607	0.059918
C87	C	0.534259	-0.285388	-0.440061
C88	C	1.034259	0.214612	0.059939
C89	C	0.534244	-0.218427	-0.337117
C90	C	1.034244	0.281573	0.162883
C91	C	0.479643	-0.218433	-0.337134
C92	C	0.979643	0.281567	0.162866
C93	C	0.452349	-0.251917	-0.388624
C94	C	0.952349	0.248083	0.111376
O95	O	0.393256	-0.189997	-0.293399
O96	O	0.893256	0.310003	0.206601
O97	O	0.393236	-0.313864	-0.483892
O98	O	0.893236	0.186136	0.016108
C99	C	0.755424	-0.387767	-0.388607
C100	C	1.255424	0.112233	0.111393
C101	C	0.755434	-0.445881	-0.388618
C102	C	1.255434	0.054119	0.111382
C103	C	0.789031	-0.806246	-0.337175
C104	C	1.289031	-0.306246	0.162825
C105	C	0.789051	-0.860850	-0.337186
C106	C	1.289051	-0.360850	0.162814
O107	O	0.817526	-0.889089	-0.293407
O108	O	1.317526	-0.389089	0.206593
N109	N	0.755604	-0.888163	-0.388698
N110	N	1.255604	-0.388163	0.111302
C111	C	0.722138	-0.860869	-0.440207
C112	C	1.222138	-0.360869	0.059793
O113	O	0.693690	-0.889115	-0.484024
O114	O	1.193690	-0.389115	0.015976
C115	C	0.722120	-0.806266	-0.440200
C116	C	1.222120	-0.306266	0.059800
C117	C	0.755566	-0.778956	-0.388679
C118	C	1.255566	-0.278956	0.111321
C119	C	0.822475	-0.778936	-0.285659
C120	C	1.322475	-0.278936	0.214341
C121	C	0.822454	-0.724335	-0.285648
C122	C	1.322454	-0.224335	0.214352
C123	C	0.788989	-0.697045	-0.337152
C124	C	1.288989	-0.197045	0.162848
C125	C	0.755545	-0.724355	-0.388668
C126	C	1.255545	-0.224355	0.111332
C127	C	0.688657	-0.778973	-0.491714
C128	C	1.188657	-0.278973	0.008286
C129	C	0.688643	-0.724366	-0.491702
C130	C	1.188643	-0.224366	0.008298
C131	C	0.722089	-0.697056	-0.440182
C132	C	1.222089	-0.197056	0.059818
C133	C	0.722059	-0.642464	-0.440160
C134	C	1.222059	-0.142464	0.059840
N135	N	0.755507	-0.615151	-0.388649
N136	N	1.255507	-0.115151	0.111351
C137	C	0.788972	-0.642442	-0.337145
C138	C	1.288972	-0.142442	0.162855
C139	C	0.722177	-0.975540	-0.440220
C140	C	1.222177	-0.475540	0.059780
C141	C	0.722191	-1.030142	-0.440224
C142	C	1.222191	-0.530142	0.059776
C143	C	0.789106	-1.030120	-0.337203
C144	C	1.289106	-0.530120	0.162797
C145	C	0.789089	-0.975516	-0.337196
C146	C	1.289089	-0.475516	0.162804
C147	C	0.755625	-0.948227	-0.388708
C148	C	1.255625	-0.448227	0.111292
C149	C	0.788925	-0.527777	-0.337124
C150	C	1.288925	-0.027777	0.162876
C151	C	0.788899	-0.473171	-0.337114
C152	C	1.288899	0.026829	0.162886
C153	C	0.721987	-0.473199	-0.440137
C154	C	1.221987	0.026801	0.059863
C155	C	0.722010	-0.527799	-0.440144
C156	C	1.222010	-0.027799	0.059856
C157	C	0.755483	-0.555087	-0.388635
C158	C	1.255483	-0.055087	0.111365
O159	O	0.693601	-0.614191	-0.483920
O160	O	1.193601	-0.114191	0.016080
O161	O	0.817419	-0.614189	-0.293343
O162	O	1.317419	-0.114189	0.206657
C163	C	0.891885	-0.251945	-0.388699
C164	C	1.391885	0.248055	0.111301
C165	C	0.949999	-0.251954	-0.388723
C166	C	1.449999	0.248046	0.111277
C167	C	0.755546	-0.251885	-0.598953
C168	C	1.255546	0.248115	-0.098953
C169	C	0.755560	-0.251869	-0.688574
C170	C	1.255560	0.248131	-0.188574
C171	C	0.755615	-0.115551	-0.388699
C172	C	1.255615	0.384449	0.111301
C173	C	0.755658	-0.057437	-0.388722
C174	C	1.255658	0.442563	0.111278
C175	C	0.755585	-0.251810	-1.016750
C176	C	1.255585	0.248190	-0.516750
C177	C	0.755576	-0.251828	-0.925442
C178	C	1.255576	0.248172	-0.425442
C179	C	0.755573	-0.251840	-0.852665
C180	C	1.255573	0.248160	-0.352665
C181	C	0.755564	-0.251857	-0.761351
C182	C	1.255564	0.248143	-0.261351
C183	C	0.755508	-0.251925	-0.179153
C184	C	1.255508	0.248075	0.320847
C185	C	0.755595	-0.251795	-0.089533
C186	C	1.255595	0.248205	0.410467
H187	H	0.457411	-0.191171	-0.295225
H188	H	0.957411	0.308829	0.204775
H189	H	0.694738	-0.450970	-0.482069
H190	H	1.194738	0.049030	0.017931
N191	N	0.654457	-0.696483	-0.544310
N192	N	1.154457	-0.196483	-0.044310
N193	N	0.654439	-0.647731	-0.544296
N194	N	1.154439	-0.147731	-0.044296
H195	H	0.630295	-0.628039	-0.581448
H196	H	1.130295	-0.128039	-0.081448
N197	N	0.856623	-0.696451	-0.233016
N198	N	1.356623	-0.196451	0.266984
N199	N	0.886498	-0.720833	-0.187040
N200	N	1.386498	-0.220833	0.312960
H201	H	0.910633	-0.701143	-0.149867
H202	H	1.410633	-0.201143	0.350133
N203	N	0.688029	-1.058043	-0.492844
N204	N	1.188029	-0.558043	0.007156
N205	N	0.688048	-1.106796	-0.492856
N206	N	1.188048	-0.606796	0.007144
H207	H	0.663922	-1.126500	-0.530023
H208	H	1.163922	-0.626500	-0.030023
N209	N	0.562121	-0.184225	-0.284531
N210	N	1.062121	0.315775	0.215469
N211	N	0.555994	-0.187622	-0.210120
N212	N	1.055994	0.312378	0.289880
H213	H	0.575682	-0.163462	-0.172984
H214	H	1.075682	0.336538	0.327016
H215	H	0.694777	-0.550036	-0.482099
H216	H	1.194777	-0.050036	0.017901
H217	H	0.305303	-0.157687	-0.243820
H218	H	0.805303	0.342313	0.256180
H219	H	0.305316	-0.346150	-0.533511
H220	H	0.805316	0.153850	-0.033511
N221	N	0.059803	-0.319634	-0.492746
N222	N	0.559803	0.180366	0.007254
N223	N	0.053676	-0.367875	-0.487259
N224	N	0.553676	0.132125	0.012741
H225	H	0.073370	-0.392034	-0.524383
H226	H	0.573370	0.107966	-0.024383
H227	H	-0.044924	-0.312695	-0.482109
H228	H	0.455076	0.187305	0.017891
N229	N	0.059781	-0.184273	-0.284634
N230	N	0.559781	0.315727	0.215366
N231	N	0.090216	-0.202624	-0.233192
N232	N	0.590216	0.297376	0.266808
H233	H	0.109903	-0.178474	-0.196039
H234	H	0.609903	0.321526	0.303961
N235	N	0.687987	-0.947675	-0.492845
N236	N	1.187987	-0.447675	0.007155
N237	N	0.658128	-0.972073	-0.538830
N238	N	1.158128	-0.472073	-0.038830
H239	H	0.633982	-0.952396	-0.575999
H240	H	1.133982	-0.452396	-0.075999
N241	N	-0.050578	-0.184271	-0.284666
N242	N	0.449422	0.315729	0.215334
N243	N	-0.044445	-0.136031	-0.290149
N244	N	0.455555	0.363969	0.209851
H245	H	-0.064131	-0.111871	-0.253017
H246	H	0.435869	0.388129	0.246983
N247	N	0.562141	-0.319597	-0.492636
N248	N	1.062141	0.180403	0.007364
N249	N	0.537759	-0.349487	-0.538592
N250	N	1.037759	0.150513	-0.038592
H251	H	0.557448	-0.373646	-0.575722
H252	H	1.057448	0.126354	-0.075722
H253	H	0.206253	-0.157699	-0.243825
H254	H	0.706253	0.342301	0.256175
N255	N	0.200620	-0.353093	-0.544210
N256	N	0.700620	0.146907	-0.044210
N257	N	0.225016	-0.382978	-0.590151
N258	N	0.725016	0.117022	-0.090151
H259	H	0.205338	-0.407139	-0.627298
H260	H	0.705338	0.092861	-0.127298
N261	N	0.823066	-0.445284	-0.284475
N262	N	1.323066	0.054716	0.215525
N263	N	0.852942	-0.469661	-0.238495
N264	N	1.352942	0.030339	0.261505
H265	H	0.877072	-0.449967	-0.201319
H266	H	1.377072	0.050033	0.298681
N267	N	0.823119	-0.555637	-0.284502
N268	N	1.323119	-0.055637	0.215498
N269	N	0.852972	-0.531238	-0.238511
N270	N	1.352972	-0.031238	0.261489
H271	H	0.877119	-0.550913	-0.201342
H272	H	1.377119	-0.050913	0.298658
H273	H	0.849729	-0.801150	-0.243718
H274	H	1.349729	-0.301150	0.256282
H275	H	0.661419	-0.801199	-0.533663
H276	H	1.161419	-0.301199	-0.033663
H277	H	0.457438	-0.312658	-0.482012
H278	H	0.957438	0.187342	0.017988
H279	H	0.816357	-1.052349	-0.295268
H280	H	1.316357	-0.552349	0.204732
N281	N	0.823255	-0.947630	-0.284562
N282	N	1.323255	-0.447630	0.215438
N283	N	0.853127	-0.972010	-0.238579
N284	N	1.353127	-0.472010	0.261421
H285	H	0.877259	-0.952318	-0.201404
H286	H	1.377259	-0.452318	0.298596
