data_functionalizedCrystal
_audit_creation_method	'MofGen! by Chris Wilmer'
_symmetry_space_group_name_H-M	'P1'
_symmetry_Int_Tables_number	1
_symmetry_cell_setting	triclinic
loop_
_symmetry_equiv_pos_as_xyz
  x,y,z
_cell_length_a	10.654549
_cell_length_b	9.065215
_cell_length_c	9.130313
_cell_angle_alpha	89.996437
_cell_angle_beta	89.997498
_cell_angle_gamma	84.749737
loop_
_atom_site_label
_atom_site_type_symbol
_atom_site_fract_x
_atom_site_fract_y
_atom_site_fract_z
O1	O	1.668659	0.207233	-0.121762
O2	O	2.168659	0.707233	0.378238
O3	O	1.303258	0.226977	-0.121772
O4	O	1.803258	0.726977	0.378228
O5	O	1.493513	0.002421	-0.121761
O6	O	1.993513	0.502421	0.378239
O7	O	1.478404	0.431789	-0.121774
O8	O	1.978404	0.931789	0.378226
O9	O	1.493500	0.002414	0.121838
O10	O	1.993500	0.502414	0.621838
O11	O	1.303245	0.226970	0.121826
O12	O	1.803245	0.726970	0.621826
O13	O	1.668645	0.207226	0.121836
O14	O	2.168645	0.707226	0.621836
Cu15	Cu	1.485944	0.217098	0.144074
Cu16	Cu	1.985944	0.717098	0.644074
Cu17	Cu	1.485960	0.217105	-0.144010
Cu18	Cu	1.985960	0.717105	0.355990
O19	O	1.478391	0.431782	0.121825
O20	O	1.978391	0.931782	0.621825
C21	C	1.256448	0.225524	0.000026
C22	C	1.756448	0.725524	0.500026
C23	C	1.116987	0.221187	0.000022
C24	C	1.616987	0.721187	0.500022
C25	C	0.906979	0.349316	0.000024
C26	C	1.406979	0.849316	0.500024
C27	C	1.038016	0.353402	0.000015
C28	C	1.538016	0.853402	0.500015
C29	C	1.064916	0.084876	0.000023
C30	C	1.564916	0.584876	0.500023
C31	C	0.933882	0.080792	0.000021
C32	C	1.433882	0.580792	0.500021
C33	C	1.492055	-0.052561	0.000037
C34	C	1.992055	0.447439	0.500037
C35	C	1.487716	-0.216381	0.000032
C36	C	1.987716	0.283619	0.500032
C37	C	1.715456	0.208679	0.000035
C38	C	2.215456	0.708679	0.500035
C39	C	1.854916	0.213016	0.000029
C40	C	2.354916	0.713016	0.500029
C41	C	1.479848	0.486764	0.000024
C42	C	1.979848	0.986764	0.500024
C43	C	1.484188	0.650584	0.000019
C44	C	1.984188	1.150584	0.500019
N45	N	1.485942	0.217091	0.346697
N46	N	1.985942	0.717091	0.846697
N47	N	1.485971	0.217100	-0.346633
N48	N	1.985971	0.717100	0.153367
C49	C	1.570216	0.117700	0.423354
C50	C	2.070216	0.617700	0.923354
C51	C	1.570228	0.117700	0.576690
C52	C	2.070228	0.617700	1.076690
C53	C	1.401688	0.316496	0.576700
C54	C	1.901688	0.816496	1.076700
C55	C	1.401671	0.316488	0.423366
C56	C	1.901671	0.816488	0.923366
H57	H	0.891493	-0.030207	0.000021
H58	H	1.391493	0.469793	0.500021
Cl59	Cl	1.676174	-0.007257	0.673055
Cl60	Cl	2.176174	0.492743	1.173055
Cl61	Cl	1.676152	-0.007261	0.326976
Cl62	Cl	2.176152	0.492739	0.826976
H63	H	1.333039	0.397424	0.360948
H64	H	1.833039	0.897424	0.860948
Cl65	Cl	1.164196	-0.081338	0.000028
Cl66	Cl	1.664196	0.418662	0.500028
H67	H	1.333078	0.397425	0.639139
H68	H	1.833078	0.897425	1.139139
H69	H	0.842688	0.456982	0.000030
H70	H	1.342688	0.956982	0.500030
H71	H	1.080398	0.464391	0.000010
H72	H	1.580398	0.964391	0.500010
