data_functionalizedCrystal
_audit_creation_method	'MofGen! by Chris Wilmer'
_symmetry_space_group_name_H-M	'P1'
_symmetry_Int_Tables_number	1
_symmetry_cell_setting	triclinic
loop_
_symmetry_equiv_pos_as_xyz
  x,y,z
_cell_length_a	16.109302
_cell_length_b	18.266242
_cell_length_c	16.109304
_cell_angle_alpha	90.003536
_cell_angle_beta	83.462209
_cell_angle_gamma	90.010978
loop_
_atom_site_label
_atom_site_type_symbol
_atom_site_fract_x
_atom_site_fract_y
_atom_site_fract_z
O1	O	1.103138	0.060909	0.106871
O2	O	0.861076	0.060903	0.120170
O3	O	0.988755	0.060907	-0.007510
O4	O	0.975459	0.060905	0.234551
O5	O	0.988734	-0.060855	-0.007517
O6	O	0.861054	-0.060859	0.120163
O7	O	1.103116	-0.060853	0.106865
Zn8	Zn	0.982082	-0.080188	0.113513
Zn9	Zn	0.982110	0.080238	0.113522
O10	O	0.975437	-0.060857	0.234545
C11	C	0.830090	0.000021	0.119628
C12	C	0.737795	0.000019	0.118012
C13	C	0.525442	-0.066346	0.114274
C14	C	0.438722	-0.066344	0.112747
C15	C	0.438756	0.066408	0.112758
C16	C	0.525476	0.066405	0.114279
C17	C	0.568816	0.000025	0.115041
C18	C	0.395377	0.000031	0.111994
C19	C	0.301351	0.000034	0.110338
C20	C	0.662848	0.000022	0.116695
N21	N	0.982069	-0.189675	0.113506
C22	C	1.038623	-0.227982	0.056997
C23	C	1.038629	-0.304627	0.056994
C24	C	0.982087	-0.342962	0.113513
C25	C	0.925521	-0.304646	0.170026
C26	C	0.925512	-0.228002	0.170023
N27	N	0.971485	-0.463295	0.187083
N28	N	0.971499	-0.536103	0.187083
C29	C	0.982110	-0.573885	0.113525
N30	N	0.992724	-0.536107	0.039964
N31	N	0.992714	-0.463293	0.039965
C32	C	0.982090	-0.426069	0.113523
C33	C	1.038674	-0.695299	0.057007
C34	C	1.038674	-0.771945	0.057002
C35	C	0.925570	-0.771962	0.170042
C36	C	0.925567	-0.695317	0.170040
C37	C	0.982123	-0.656990	0.113523
C38	C	1.134102	0.000031	0.107407
C39	C	1.226397	0.000038	0.109022
C40	C	0.988206	0.000027	-0.038488
C41	C	0.986590	0.000032	-0.130784
N42	N	0.982130	0.189725	0.113521
C43	C	0.982868	0.066402	-0.343117
C44	C	0.981342	0.066401	-0.429838
C45	C	0.981322	-0.066350	-0.429842
C46	C	0.982842	-0.066349	-0.343122
C47	C	0.983619	0.000029	-0.299763
C48	C	0.980573	0.000027	-0.473202
C49	C	0.978918	0.000026	-0.567228
C50	C	0.985273	0.000031	-0.205731
C51	C	0.975987	0.000024	0.265523
C52	C	0.977603	0.000024	0.357818
H53	H	0.560727	-0.120397	0.114894
H54	H	0.980691	-0.120393	-0.465156
H55	H	0.403411	-0.120390	0.112122
H56	H	0.983450	-0.120401	-0.307822
H57	H	1.084684	-0.335823	0.010975
H58	H	0.403458	0.120451	0.112139
H59	H	1.084673	-0.196779	0.010976
H60	H	0.560792	0.120456	0.114902
H61	H	0.879483	-0.335862	0.216044
H62	H	0.879457	-0.196812	0.216040
H63	H	1.084723	-0.664092	0.010985
H64	H	0.879530	-0.803174	0.216058
H65	H	1.084725	-0.803136	0.010981
H66	H	0.980728	0.120448	-0.465133
H67	H	0.879518	-0.664125	0.216058
H68	H	0.983498	0.120451	-0.307816
