data_functionalizedCrystal
_audit_creation_method	'MofGen! by Chris Wilmer'
_symmetry_space_group_name_H-M	'P1'
_symmetry_Int_Tables_number	1
_symmetry_cell_setting	triclinic
loop_
_symmetry_equiv_pos_as_xyz
  x,y,z
_cell_length_a	12.970454
_cell_length_b	12.970454
_cell_length_c	12.970454
_cell_angle_alpha	89.998716
_cell_angle_beta	120.000191
_cell_angle_gamma	120.001146
loop_
_atom_site_label
_atom_site_type_symbol
_atom_site_fract_x
_atom_site_fract_y
_atom_site_fract_z
Zr1	Zr	-1.128522	0.993211	-0.135324
O2	O	-1.343615	0.828585	-0.299946
O3	O	-0.913430	1.043679	-0.084857
O4	O	-1.128521	1.043678	-0.299948
O5	O	-1.128524	0.828585	0.084812
O6	O	-1.128520	1.213346	-0.299951
O7	O	-1.128523	0.828586	-0.084855
O8	O	-0.743762	1.213347	0.084809
O9	O	-1.513283	0.828583	-0.299948
O10	O	-1.001900	1.191822	-0.063336
O11	O	-1.001901	1.065200	0.063286
O12	O	-1.255143	1.065199	-0.189957
O13	O	-1.255145	0.938578	-0.063335
Zr14	Zr	-1.128522	1.263809	0.135271
Zr15	Zr	-1.128521	1.263811	-0.135328
Zr16	Zr	-1.128524	0.993209	0.135275
Zr17	Zr	-1.399124	0.993208	-0.135326
Zr18	Zr	-0.857921	1.263811	0.135273
O19	O	-1.343615	1.213341	0.084804
O20	O	-1.343613	1.213343	-0.299952
O21	O	-1.343617	0.828582	0.084810
O22	O	-0.913430	1.428434	0.299894
O23	O	-0.913428	1.428437	-0.084863
O24	O	-0.913432	1.043676	0.299900
O25	O	-1.128520	1.428435	-0.084864
O26	O	-1.128523	1.213341	0.299895
O27	O	-1.128524	1.043674	0.299898
O28	O	-1.128521	1.428434	0.084802
O29	O	-1.513282	1.043674	-0.299951
O30	O	-0.743763	1.213345	0.299898
O31	O	-0.743762	1.428436	0.299895
O32	O	-0.743760	1.428438	0.084805
O33	O	-1.513284	0.828582	-0.084858
O34	O	-1.513283	1.043673	-0.084861
O35	O	-1.001901	1.191820	0.189904
O36	O	-1.001900	1.318442	0.063282
O37	O	-1.255143	1.191819	-0.063338
O38	O	-1.255145	1.065198	0.063284
C39	C	-0.790041	1.128513	-0.000024
C40	C	-0.675163	1.128514	-0.000023
C41	C	-1.128524	0.790030	-0.000021
C42	C	-1.128525	0.675154	-0.000019
C43	C	-0.467002	1.128509	-0.000028
C44	C	-0.581875	1.128515	-0.000027
C45	C	-1.128521	1.128512	-0.338504
C46	C	-1.128520	1.128513	-0.453380
C47	C	-1.128521	1.466989	-0.000032
C48	C	-1.128520	1.581866	-0.000033
C49	C	-1.128524	1.128507	0.338451
C50	C	-1.128525	1.128507	0.453327
C51	C	-0.790039	1.466992	-0.000029
C52	C	-0.675161	1.581870	-0.000030
C53	C	-0.790043	1.128511	0.338454
C54	C	-0.675166	1.128511	0.453331
C55	C	-0.790041	1.466990	0.338449
C56	C	-0.675163	1.581867	0.453324
C57	C	-1.467004	0.790029	-0.338501
C58	C	-1.581881	0.675152	-0.453377
C59	C	-1.467006	0.790027	-0.000024
C60	C	-1.581884	0.675149	-0.000023
C61	C	-1.467002	1.128509	-0.338506
C62	C	-1.581879	1.128508	-0.453384
