data_functionalizedCrystal
_audit_creation_method	'MofGen! by Chris Wilmer'
_symmetry_space_group_name_H-M	'P1'
_symmetry_Int_Tables_number	1
_symmetry_cell_setting	triclinic
loop_
_symmetry_equiv_pos_as_xyz
  x,y,z
_cell_length_a	26.210047
_cell_length_b	17.699083
_cell_length_c	17.699083
_cell_angle_alpha	96.716985
_cell_angle_beta	90.020578
_cell_angle_gamma	89.985126
loop_
_atom_site_label
_atom_site_type_symbol
_atom_site_fract_x
_atom_site_fract_y
_atom_site_fract_z
O1	O	0.042358	-1.004092	0.095726
O2	O	0.042375	-0.783714	0.108178
O3	O	0.042362	-0.900129	-0.008237
O4	O	0.042372	-0.887677	0.212141
O5	O	-0.042496	-0.900086	-0.008270
O6	O	-0.042483	-0.783671	0.108146
O7	O	-0.042500	-1.004049	0.095693
Cu8	Cu	-0.050239	-0.893856	0.101916
Cu9	Cu	0.050115	-0.893907	0.101955
O10	O	-0.042486	-0.887634	0.212109
C11	C	-0.000052	-0.755495	0.107716
C12	C	-0.000045	-0.671477	0.106377
N13	N	-0.120823	-0.893826	0.101889
C14	C	-0.526799	-0.848079	0.056073
C15	C	-0.313141	-0.848045	0.056054
O16	O	-0.285529	-0.809102	0.017039
N17	N	-0.286407	-0.893855	0.101899
C18	C	-0.313091	-0.939680	0.147749
O19	O	-0.285450	-0.978650	0.186737
C20	C	-0.526749	-0.939717	0.147763
C21	C	-0.553480	-0.893899	0.101921
C22	C	-0.553530	-0.802264	0.010234
C23	C	-0.606942	-0.802270	0.010242
C24	C	-0.633622	-0.848090	0.056090
C25	C	-0.606891	-0.893904	0.101929
C26	C	-0.553432	-0.985546	0.193608
C27	C	-0.606850	-0.985553	0.193606
C28	C	-0.633581	-0.939734	0.147764
C29	C	-0.686983	-0.939730	0.147785
N30	N	-0.713717	-0.893920	0.101940
C31	C	-0.687036	-0.848100	0.056092
C32	C	-0.200918	-0.939657	0.147739
C33	C	-0.147504	-0.939647	0.147737
C34	C	-0.147557	-0.848012	0.056041
C35	C	-0.200972	-0.848019	0.056048
C36	C	-0.227652	-0.893847	0.101894
C37	C	-0.799204	-0.848115	0.056114
C38	C	-0.852620	-0.848123	0.056129
C39	C	-0.852563	-0.939760	0.147821
C40	C	-0.799151	-0.939750	0.147810
C41	C	-0.772473	-0.893925	0.101950
O42	O	-0.714628	-0.978660	0.186774
O43	O	-0.714687	-0.809149	0.017098
C44	C	-0.473388	-0.848073	0.056065
C45	C	-0.446657	-0.893887	0.101904
C46	C	-0.473337	-0.939707	0.147752
C47	C	-0.393243	-0.893877	0.101902
C48	C	-0.366562	-0.848057	0.056054
C49	C	-0.393296	-0.802247	0.010209
C50	C	-0.446707	-0.802253	0.010217
C51	C	-0.446604	-0.985517	0.193597
C52	C	-0.393192	-0.985507	0.193586
C53	C	-0.366512	-0.939687	0.147738
C54	C	-0.000067	-0.899662	-0.036451
C55	C	-0.000067	-0.898323	-0.120469
N56	N	0.120699	-0.893943	0.101976
C57	C	-0.000072	-1.032268	0.096156
C58	C	-0.000074	-1.116286	0.097494
C59	C	-0.000042	-0.622856	0.174710
C60	C	-0.000049	-0.543913	0.173448
C61	C	-0.000055	-0.513592	0.103852
C62	C	-0.000059	-0.562219	0.035513
C63	C	-0.000056	-0.641161	0.036776
C64	C	-0.000072	-0.243856	0.030418
C65	C	-0.000074	-0.164908	0.029160
C66	C	-0.000065	-0.146608	0.167090
C67	C	-0.000062	-0.225550	0.168353
C68	C	-0.000069	-0.274170	0.100015
C69	C	-0.000063	-0.359769	0.101384
C70	C	-0.000058	-0.427995	0.102481
C71	C	-0.000073	-0.966656	-0.169090
C72	C	-0.000069	-0.965394	-0.248033
C73	C	-0.000062	-0.895798	-0.278354
C74	C	-0.000054	-0.827459	-0.229727
C75	C	-0.000055	-0.828722	-0.150785
C76	C	-0.000050	-0.822364	-0.548090
C77	C	-0.000050	-0.821106	-0.627038
C78	C	-0.000063	-0.959036	-0.645338
C79	C	-0.000064	-0.960299	-0.566396
C80	C	-0.000054	-0.891961	-0.517776
C81	C	-0.000058	-0.893330	-0.432177
C82	C	-0.000061	-0.894427	-0.363951
C83	C	-0.000056	-0.888102	0.240322
C84	C	-0.000053	-0.889440	0.324340
H85	H	-0.874382	-0.810808	0.018798
H86	H	-0.125744	-0.976947	0.185075
Br87	Br	-0.000049	-0.266695	0.262808
H88	H	-0.000046	-0.504328	0.229092
Br89	Br	-0.000043	-0.735980	-0.084798
H90	H	-0.125824	-0.810701	0.018712
Br91	Br	-0.000077	-1.058137	-0.314017
H92	H	-0.000062	-0.107012	0.222734
Br93	Br	-0.763007	-0.785928	-0.006129
H94	H	-0.000045	-0.770792	-0.254420
H95	H	-0.000072	-1.016971	-0.541714
H96	H	-0.000059	-0.680748	-0.018868
H97	H	-0.628701	-0.764963	-0.027090
H98	H	-0.000069	-1.014680	-0.684934
H99	H	-0.000046	-0.764429	-0.651721
Br100	Br	-0.000033	-0.729619	-0.482115
H101	H	-0.531812	-0.764952	-0.027105
H102	H	-0.222733	-0.810709	0.018719
Br103	Br	-0.482805	-1.047708	0.255826
Br104	Br	-0.762872	-1.001942	0.210015
Br105	Br	-0.357076	-0.740059	-0.052008
H106	H	-0.531677	-1.022858	0.230937
H107	H	-0.000079	-0.283434	-0.025228
H108	H	-0.628570	-1.022874	0.230940
Br109	Br	-0.237118	-1.001855	0.209968
H110	H	-0.000079	-0.140225	-0.027517
H111	H	-0.000072	-0.537526	-0.021154
Br112	Br	-0.888782	-1.001935	0.210046
H113	H	-0.468467	-0.764943	-0.027113
H114	H	-0.000037	-0.647537	0.231384
Br115	Br	-0.000090	-1.061114	-0.127948
Br116	Br	-0.356922	-1.047684	0.255819
