data_functionalizedCrystal
_audit_creation_method	'MofGen! by Chris Wilmer'
_symmetry_space_group_name_H-M	'P1'
_symmetry_Int_Tables_number	1
_symmetry_cell_setting	triclinic
loop_
_symmetry_equiv_pos_as_xyz
  x,y,z
_cell_length_a	8.634740
_cell_length_b	7.681481
_cell_length_c	19.288862
_cell_angle_alpha	84.270454
_cell_angle_beta	88.147205
_cell_angle_gamma	83.381330
loop_
_atom_site_label
_atom_site_type_symbol
_atom_site_fract_x
_atom_site_fract_y
_atom_site_fract_z
O1	O	2.029856	0.146516	-0.231956
O2	O	1.581037	0.146511	-0.212975
O3	O	1.818422	0.146469	-0.122220
O4	O	1.792472	0.146559	-0.322712
O5	O	1.847640	-0.146394	-0.111020
O6	O	1.610256	-0.146352	-0.201775
O7	O	2.059075	-0.146347	-0.220756
Zn8	Zn	1.839304	-0.192847	-0.209487
Zn9	Zn	1.800808	0.193012	-0.224244
O10	O	1.821690	-0.146304	-0.311511
C11	C	1.538226	0.000079	-0.203075
C12	C	1.367133	0.000075	-0.190255
N13	N	1.865588	-0.456186	-0.199417
C14	C	2.101885	0.000090	-0.230656
C15	C	2.272978	0.000106	-0.243477
C16	C	1.832198	0.000030	-0.090686
C17	C	1.829696	0.000006	-0.013410
N18	N	1.774536	0.456351	-0.234310
C19	C	1.968981	-0.000005	0.021769
C20	C	1.966627	0.000016	0.094376
C21	C	1.824983	0.000012	0.131802
C22	C	1.685679	0.000033	0.096614
C23	C	1.688036	0.000030	0.024008
C24	C	1.723872	-0.102584	0.251622
C25	C	1.721522	-0.102592	0.324228
C26	C	1.817708	0.000029	0.355745
C27	C	1.916272	0.102635	0.314648
C28	C	1.918629	0.102632	0.242041
C29	C	1.822412	0.000016	0.210532
C30	C	1.954450	0.000043	0.469652
C31	C	1.952088	0.000074	0.542260
C32	C	1.671138	0.000074	0.544499
C33	C	1.673502	0.000060	0.471891
C34	C	1.815162	0.000036	0.434473
C35	C	1.807921	0.000114	0.656955
C36	C	1.810443	0.000073	0.579682
H37	H	1.323262	0.000114	-0.298851
Br38	Br	2.052379	0.241884	0.186268
Br39	Br	1.619617	-0.418292	-0.293675
Br40	Br	2.020539	-0.581550	-0.140062
H41	H	1.574609	0.000039	-0.004634
H42	H	2.084332	-0.000018	-0.008693
H43	H	1.316839	0.000100	-0.134878
Br44	Br	2.155669	0.000008	0.142129
H45	H	1.994596	0.186200	0.340307
Br46	Br	2.146700	-0.000008	0.418867
H47	H	2.065515	0.000075	0.570901
Br48	Br	1.478902	0.000087	0.595284
H49	H	1.560082	0.000059	0.443249
H50	H	1.641258	-0.186129	0.357683
H51	H	1.645543	-0.186159	0.225968
H52	H	1.570351	0.000034	0.127092
