data_functionalizedCrystal
_audit_creation_method	'MofGen! by Chris Wilmer'
_symmetry_space_group_name_H-M	'P1'
_symmetry_Int_Tables_number	1
_symmetry_cell_setting	triclinic
loop_
_symmetry_equiv_pos_as_xyz
  x,y,z
_cell_length_a	19.319731
_cell_length_b	19.318970
_cell_length_c	19.315557
_cell_angle_alpha	60.007379
_cell_angle_beta	60.014690
_cell_angle_gamma	59.991495
loop_
_atom_site_label
_atom_site_type_symbol
_atom_site_fract_x
_atom_site_fract_y
_atom_site_fract_z
O1	O	0.095954	-1.011347	0.845684
O2	O	0.036156	-0.787405	0.681392
O3	O	0.177960	-0.929104	0.681276
O4	O	-0.045850	-0.869648	0.845799
O5	O	0.225008	-0.882072	0.728208
O6	O	0.083204	-0.740373	0.728324
O7	O	0.143002	-0.964315	0.892616
Cu8	Cu	0.117399	-0.848050	0.814755
Cu9	Cu	0.061759	-0.903670	0.759252
O10	O	0.001198	-0.822616	0.892732
N11	N	0.156535	-0.808935	0.853797
N12	N	0.022631	-0.942793	0.720211
C13	C	0.182113	-0.653200	0.879374
C14	C	0.182221	-0.783395	1.009518
C15	C	0.312319	-0.783375	0.879314
C16	C	0.182127	-0.783371	0.879357
C17	C	0.214696	-0.750836	0.911890
C18	C	-0.132988	-0.968144	0.694232
C19	C	-0.002674	-0.968326	0.564242
C20	C	-0.002907	-1.098444	0.694459
C21	C	-0.002887	-0.968321	0.694542
C22	C	-0.035363	-1.000810	0.661869
N23	N	0.389025	-0.808944	0.853717
O24	O	0.660019	-0.816766	0.651282
O25	O	0.660312	-0.981573	0.874999
O26	O	0.660193	-0.981192	0.733108
O27	O	0.660138	-0.817147	0.793174
O28	O	0.519202	-0.934278	0.780210
O29	O	0.519321	-0.934658	0.922102
O30	O	0.519028	-0.769852	0.698384
Cu31	Cu	0.506300	-0.847971	0.814544
Cu32	Cu	0.673039	-0.903453	0.758840
O33	O	0.519147	-0.770232	0.840276
N34	N	0.790314	-0.942480	0.719658
N35	N	0.156514	-0.576494	0.853827
O36	O	-0.045823	-0.305328	0.845846
O37	O	0.177892	-0.305317	0.681053
O38	O	0.035967	-0.305340	0.681465
O39	O	0.096102	-0.305306	0.845434
O40	O	0.083020	-0.446347	0.728459
O41	O	0.224945	-0.446325	0.728047
O42	O	0.001230	-0.446335	0.892839
Cu43	Cu	0.117383	-0.459205	0.814734
Cu44	Cu	0.061738	-0.292448	0.759159
O45	O	0.143154	-0.446313	0.892428
N46	N	0.022597	-0.175159	0.720067
N47	N	0.156703	-0.808977	1.086224
O48	O	0.148753	-1.011298	1.357359
O49	O	-0.016009	-0.787491	1.357400
O50	O	-0.015627	-0.929387	1.357339
O51	O	0.148372	-0.869401	1.357420
O52	O	0.031342	-0.882367	1.216340
O53	O	0.030961	-0.740471	1.216400
O54	O	0.195723	-0.964278	1.216360
Cu55	Cu	0.117631	-0.848081	1.203506
Cu56	Cu	0.062083	-0.903688	1.370254
O57	O	0.195341	-0.822381	1.216420
N58	N	0.023010	-0.942801	1.487536
C59	C	0.054075	-0.735670	0.682223
C60	C	0.229681	-0.911148	0.682079
C61	C	0.125082	-1.016051	0.891784
C62	C	-0.050524	-0.840572	0.891928
C63	C	0.589851	-0.980810	0.926735
C64	C	0.589706	-0.980340	0.751019
C65	C	0.589484	-0.770613	0.646650
C66	C	0.589634	-0.771085	0.822364
C67	C	0.229543	-0.375646	0.681799
C68	C	0.053845	-0.375847	0.682366
C69	C	-0.050480	-0.375832	0.892036
C70	C	0.125277	-0.375807	0.891527
C71	C	-0.015214	-0.735785	1.286905
C72	C	-0.014732	-0.911497	1.286802
C73	C	0.194928	-1.015984	1.286855
C74	C	0.194457	-0.840261	1.286926
H75	H	0.041301	-0.671339	0.630625
O76	O	-0.127190	-0.375782	0.953649
C77	C	-0.179969	-0.375810	0.923154
H78	H	-0.157036	-0.349133	0.850938
H79	H	-0.177677	-0.443458	0.944723
C80	C	-0.299865	-0.353258	1.046956
C81	C	-0.271702	-0.320487	0.958259
H82	H	-0.356451	-0.319136	1.068613
H83	H	-0.264306	-0.353242	1.067503
H84	H	-0.297948	-0.409631	1.064919
H85	H	-0.273610	-0.264119	0.940298
H86	H	-0.307263	-0.320492	0.937710
O87	O	0.140789	-0.375849	0.952908
C88	C	0.224117	-0.375825	0.922009
H89	H	0.264199	-0.402511	0.867578
H90	H	0.222855	-0.308177	0.898369
C91	C	0.213470	-0.398358	1.060568
C92	C	0.262701	-0.431140	0.993720
H93	H	0.237270	-0.432475	1.104803
H94	H	0.157329	-0.398371	1.081386
H95	H	0.212422	-0.341985	1.040857
H96	H	0.263739	-0.487508	1.013429
H97	H	0.318843	-0.431138	0.972907
O98	O	0.589617	-1.041852	0.735828
C99	C	0.516643	-1.064700	0.793961
H100	H	0.492335	-1.047819	0.852731
H101	H	0.465459	-1.028931	0.763269
C102	C	0.568759	-1.181512	0.747355
C103	C	0.538908	-1.160785	0.819539
H104	H	0.582491	-1.240781	0.763130
H105	H	0.617922	-1.166118	0.708187
H106	H	0.526101	-1.151698	0.721785
H107	H	0.581570	-1.190591	0.845102
H108	H	0.489752	-1.176187	0.858713
H109	H	-0.066232	-0.924309	1.286721
O110	O	0.140324	-1.092730	0.953422
C111	C	0.130870	-1.081671	1.024880
H112	H	0.140120	-1.019543	1.004517
H113	H	0.064646	-1.079890	1.072863
C114	C	0.186147	-1.232230	1.090637
C115	C	0.197515	-1.155926	1.065625
H116	H	0.227253	-1.278035	1.115774
H117	H	0.192513	-1.239682	1.042496
H118	H	0.130958	-1.230734	1.130619
H119	H	0.252699	-1.157419	1.025637
H120	H	0.191159	-1.148476	1.113761
O121	O	0.306425	-0.926390	0.620545
C122	C	0.359103	-1.009707	0.651183
H123	H	0.336101	-1.032157	0.723397
H124	H	0.356771	-1.053547	0.629703
C125	C	0.479120	-0.983596	0.527425
C126	C	0.450872	-1.011168	0.616119
H127	H	0.535728	-0.984499	0.505794
H128	H	0.443630	-0.927465	0.506781
H129	H	0.477169	-1.020134	0.509536
H130	H	0.452813	-0.974624	0.634007
H131	H	0.486365	-1.067293	0.636765
H132	H	-0.114808	-0.827900	0.943589
O133	O	0.256032	-0.825019	1.286829
C134	C	0.327494	-0.834422	1.213789
H135	H	0.326823	-0.876940	1.189425
H136	H	0.325774	-0.769586	1.162667
C137	C	0.409610	-0.822622	1.265899
C138	C	0.408789	-0.874849	1.235979
H139	H	0.459757	-0.847555	1.279584
H140	H	0.361463	-0.816284	1.315106
H141	H	0.408173	-0.768595	1.223293
H142	H	0.410215	-0.928871	1.278589
H143	H	0.456938	-0.881197	1.186779
O144	O	0.305959	-0.375071	0.619815
C145	C	0.294343	-0.301881	0.548616
H146	H	0.226659	-0.277809	0.549775
H147	H	0.306244	-0.250655	0.550266
C148	C	0.440139	-0.353213	0.465624
C149	C	0.357010	-0.323651	0.467044
H150	H	0.478797	-0.366640	0.415306
H151	H	0.447966	-0.402521	0.513593
H152	H	0.450044	-0.310520	0.467003
H153	H	0.347103	-0.366348	0.465676
H154	H	0.349182	-0.274351	0.419073
O155	O	0.589984	-1.042458	1.003420
C156	C	0.589983	-1.011926	1.056191
H157	H	0.616612	-0.957474	1.015431
H158	H	0.522356	-0.988420	1.099042
C159	C	0.612655	-1.150760	1.161072
C160	C	0.645369	-1.083886	1.111010
H161	H	0.646816	-1.195148	1.194890
H162	H	0.612653	-1.171330	1.125521
H163	H	0.556300	-1.131160	1.196773
H164	H	0.701718	-1.103483	1.075302
H165	H	0.645381	-1.063321	1.146556
H166	H	-0.066941	-0.671507	1.286916
H167	H	0.040966	-0.375849	0.630853
H168	H	0.246659	-1.080258	1.286832
O169	O	0.589409	-0.708985	0.569945
C170	C	0.589358	-0.739499	0.517192
H171	H	0.616123	-0.811717	0.540114
H172	H	0.521699	-0.717990	0.519539
C173	C	0.611671	-0.615634	0.397283
C174	C	0.644551	-0.704333	0.425431
H175	H	0.645713	-0.593939	0.340679
H176	H	0.611702	-0.595073	0.432824
H177	H	0.555288	-0.597721	0.399245
H178	H	0.700928	-0.722244	0.423478
H179	H	0.644530	-0.724895	0.389887
H180	H	0.589622	-0.719555	0.835218
