data_functionalizedCrystal
_audit_creation_method	'MofGen! by Chris Wilmer'
_symmetry_space_group_name_H-M	'P1'
_symmetry_Int_Tables_number	1
_symmetry_cell_setting	triclinic
loop_
_symmetry_equiv_pos_as_xyz
  x,y,z
_cell_length_a	14.395555
_cell_length_b	18.878441
_cell_length_c	18.878441
_cell_angle_alpha	89.999813
_cell_angle_beta	60.002389
_cell_angle_gamma	60.000355
loop_
_atom_site_label
_atom_site_type_symbol
_atom_site_fract_x
_atom_site_fract_y
_atom_site_fract_z
Zr1	Zr	1.016819	-0.092991	0.682404
O2	O	1.210605	-0.206093	0.569305
O3	O	0.823027	-0.058318	0.717071
O4	O	1.016816	-0.206095	0.717076
O5	O	1.016821	0.058253	0.569300
O6	O	1.016821	-0.206099	0.833644
O7	O	1.016816	-0.058315	0.569300
O8	O	0.670168	0.058248	0.833635
O9	O	1.363474	-0.206094	0.569309
O10	O	0.902743	-0.043535	0.818853
O11	O	0.902743	0.043461	0.731860
O12	O	1.130905	-0.130528	0.731866
O13	O	1.130905	-0.043531	0.644872
Zr14	Zr	1.016837	0.092915	0.868315
Zr15	Zr	1.016828	-0.092997	0.868316
Zr16	Zr	1.016828	0.092921	0.682403
Zr17	Zr	1.260629	-0.092994	0.682409
Zr18	Zr	0.773028	0.092918	0.868309
O19	O	1.210629	0.058242	0.833647
O20	O	1.210617	-0.206101	0.833649
O21	O	1.210617	0.058251	0.569304
O22	O	0.823052	0.206017	0.981413
O23	O	0.823039	-0.058327	0.981414
O24	O	0.823039	0.206026	0.717070
O25	O	1.016835	-0.058329	0.981419
O26	O	1.016841	0.206019	0.833642
O27	O	1.016835	0.206023	0.717074
O28	O	1.016841	0.058239	0.981418
O29	O	1.363481	-0.206099	0.717084
O30	O	0.670175	0.206023	0.833634
O31	O	0.670182	0.206018	0.981409
O32	O	0.670175	0.058243	0.981410
O33	O	1.363481	-0.058319	0.569308
O34	O	1.363488	-0.058324	0.717083
O35	O	0.902751	0.130452	0.818853
O36	O	0.902751	0.043456	0.905846
O37	O	1.130913	-0.043537	0.818859
O38	O	1.130913	0.043459	0.731865
C39	C	0.711860	-0.000034	0.775352
C40	C	0.608357	-0.000033	0.775350
C41	C	1.016817	-0.000030	0.542811
C42	C	1.016814	-0.000027	0.463887
C43	C	1.016839	0.232510	0.775358
C44	C	1.016843	0.311434	0.775358
C45	C	0.547764	0.047404	0.727920
C46	C	0.562015	-0.034397	0.693544
C47	C	0.409710	0.081742	0.809704
C48	C	0.624034	-0.081882	0.740927
C49	C	0.471665	0.034316	0.857132
C50	C	0.485963	-0.047533	0.822777
C51	C	1.321796	-0.000041	0.775366
C52	C	1.425300	-0.000043	0.775369
C53	C	1.016817	-0.232586	0.775360
C54	C	1.016814	-0.311510	0.775361
C55	C	1.135939	0.303106	0.729952
C56	C	1.135935	0.377267	0.729948
C57	C	1.016833	0.459756	0.775355
C58	C	0.897727	0.468082	0.820761
C59	C	0.897732	0.393922	0.820760
C60	C	0.897723	0.622652	0.820763
C61	C	0.897717	0.696818	0.820766
C62	C	1.135926	0.605998	0.729951
C63	C	1.135931	0.531837	0.729950
C64	C	1.016825	0.540169	0.775358
C65	C	0.897717	0.045379	0.472212
C66	C	0.897721	0.045379	0.398051
C67	C	1.016824	-0.000032	0.315565
C68	C	1.135930	-0.045439	0.307242
C69	C	1.135924	-0.045434	0.381402
C70	C	1.135933	-0.045448	0.152672
C71	C	1.135939	-0.045455	0.078506
C72	C	0.897731	0.045366	0.169321
C73	C	0.897725	0.045371	0.243481
C74	C	1.016831	-0.000039	0.235152
C75	C	1.016839	-0.000046	1.007907
C76	C	1.016843	-0.000049	1.086832
C77	C	0.711871	-0.000042	1.007900
C78	C	0.608371	-0.000044	1.086822
C79	C	0.711871	0.232513	0.775351
C80	C	0.608371	0.311439	0.775348
C81	C	0.711882	0.232506	1.007899
C82	C	0.608386	0.311429	1.086821
C83	C	1.321775	-0.232581	0.542819
C84	C	1.425271	-0.311505	0.463898
C85	C	1.321785	-0.000034	0.542818
C86	C	1.425285	-0.000032	0.463896
C87	C	1.321785	-0.232589	0.775367
C88	C	1.425285	-0.311515	0.775370
C89	C	0.559762	-0.045460	1.078476
C90	C	0.462527	-0.045479	1.152624
C91	C	0.413895	-0.000076	1.235119
C92	C	0.462514	0.045342	1.243464
C93	C	0.559754	0.045355	1.169316
C94	C	0.559771	0.393919	0.820756
C95	C	0.462536	0.468086	0.820750
C96	C	0.413896	0.459770	0.775341
C97	C	0.462505	0.377281	0.729927
C98	C	0.559746	0.303117	0.729929
C99	C	0.559783	0.303081	1.169301
C100	C	0.462551	0.377230	1.243463
C101	C	0.413917	0.459727	1.235144
C102	C	0.462529	0.468073	1.152655
C103	C	0.559766	0.393924	1.078494
C104	C	1.473885	-0.303157	0.381418
C105	C	1.571147	-0.377306	0.307255
C106	C	1.619787	-0.459803	0.315574
C107	C	1.571168	-0.468149	0.398063
C108	C	1.473914	-0.394000	0.472224
C109	C	1.473904	0.045377	0.472243
C110	C	1.571167	0.045375	0.398094
C111	C	1.619801	-0.000031	0.315599
C112	C	1.571178	-0.045445	0.307255
C113	C	1.473925	-0.045448	0.381402
C114	C	1.473894	-0.303171	0.820788
C115	C	1.571130	-0.377324	0.820808
C116	C	1.619762	-0.459818	0.775404
C117	C	1.571143	-0.468160	0.729984
C118	C	1.473903	-0.394009	0.729970
H119	H	0.574990	0.087459	0.687755
C120	C	1.624669	-0.558898	0.407203
H121	H	1.689539	-0.601855	0.351219
H122	H	1.662613	-0.565421	0.438017
H123	H	1.554852	-0.565408	0.438002
H124	H	1.434333	-0.400808	0.539381
C125	C	0.408993	0.095299	1.334208
H126	H	0.451864	0.122353	1.328569
H127	H	0.317181	0.138259	1.365005
H128	H	0.424932	0.056102	1.365030
C129	C	1.624677	-0.095381	0.216508
H130	H	1.689548	-0.088861	0.173551
H131	H	1.662619	-0.155126	0.209987
H132	H	1.554859	-0.072942	0.209997
C133	C	0.612233	-0.073660	0.600128
H134	H	0.611804	-0.123576	0.595345
H135	H	0.556680	-0.032038	0.586425
H136	H	0.699215	-0.089600	0.560981
H137	H	0.318106	0.150903	0.838750
H138	H	0.800730	0.082362	0.539372
C139	C	1.420422	0.095328	0.562977
H140	H	1.463327	0.122361	0.557316
H141	H	1.328612	0.138304	0.593791
H142	H	1.436364	0.056127	0.593795
C143	C	1.266930	-0.095385	0.372244
H144	H	1.337865	-0.122438	0.312498
H145	H	1.271881	-0.056188	0.399284
H146	H	1.271876	-0.138359	0.399289
C147	C	0.613214	0.403113	0.987769
H148	H	0.678097	0.347143	0.944786
H149	H	0.543384	0.433934	0.981278
H150	H	0.651158	0.433926	0.981268
C151	C	0.613267	0.212344	1.178469
H152	H	0.570394	0.218005	1.238218
H153	H	0.597322	0.181525	1.151434
H154	H	0.705086	0.181530	1.151428
C155	C	1.624639	0.095331	0.407284
H156	H	1.689540	0.088824	0.351314
H157	H	1.554825	0.155073	0.438092
H158	H	1.662566	0.072899	0.438108
C159	C	0.747718	-0.175357	0.701572
H160	H	0.733103	-0.214372	0.685182
H161	H	0.820048	-0.180032	0.651945
H162	H	0.766294	-0.189339	0.743320
C163	C	1.420400	-0.212418	0.372254
H164	H	1.355507	-0.169445	0.428229
H165	H	1.490217	-0.205913	0.341448
H166	H	1.382463	-0.205914	0.341435
H167	H	0.422969	0.535244	0.857735
C168	C	0.306961	0.541285	1.316723
H169	H	0.284958	0.591617	1.299961
H170	H	0.231090	0.541284	1.350272
H171	H	0.338867	0.541274	1.350260
H172	H	0.334715	-0.000093	1.295488
H173	H	1.434313	-0.236007	0.857762
C174	C	1.624608	-0.368132	0.870760
H175	H	1.581731	-0.308380	0.897782
H176	H	1.608666	-0.395160	0.913743
H177	H	1.716427	-0.395174	0.831560
C178	C	1.624723	-0.558905	0.679981
H179	H	1.581870	-0.553263	0.652912
H180	H	1.716532	-0.589666	0.637030
H181	H	1.608826	-0.589765	0.719143
C182	C	1.726775	-0.000018	0.234045
H183	H	1.748750	0.033538	0.250838
H184	H	1.802656	-0.057869	0.200494
H185	H	1.694896	0.024306	0.200496
C186	C	0.613248	-0.095409	0.987739
H187	H	0.678118	-0.088898	0.944766
H188	H	0.651189	-0.155152	0.981237
H189	H	0.543425	-0.072983	0.981234
H190	H	1.610716	-0.370493	0.240096
C191	C	1.726735	-0.541377	0.775418
H192	H	1.748723	-0.524585	0.808965
H193	H	1.694873	-0.574933	0.799729
H194	H	1.802621	-0.574921	0.717562
H195	H	0.422917	0.535252	1.145894
C196	C	1.420458	-0.403198	0.679995
H197	H	1.463366	-0.462950	0.652951
H198	H	1.328645	-0.376162	0.719172
H199	H	1.436423	-0.376165	0.637013
C200	C	0.409082	0.368034	1.334189
H201	H	0.451961	0.308281	1.328516
H202	H	0.425030	0.395060	1.365014
H203	H	0.317263	0.395076	1.365004
H204	H	0.599319	0.082344	1.176124
H205	H	1.434342	-0.082423	0.374594
H206	H	0.459020	-0.087709	0.862886
H207	H	0.599363	0.400707	0.857734
C208	C	0.306925	0.541356	0.775352
H209	H	0.284944	0.591666	0.808909
H210	H	0.338786	0.541373	0.717502
H211	H	0.231035	0.541368	0.799674
H212	H	0.800741	0.082355	0.404837
H213	H	0.800734	0.629443	0.857734
C214	C	0.421477	0.073602	0.950529
H215	H	0.346236	0.131741	0.974856
H216	H	0.398832	0.040496	0.984472
H217	H	0.488400	0.072827	0.949875
H218	H	1.698976	-0.520172	0.255181
H219	H	0.800741	0.082340	0.310643
C220	C	0.409050	-0.095430	1.143430
H221	H	0.451928	-0.122452	1.083678
H222	H	0.424994	-0.138414	1.170457
H223	H	0.317232	-0.056229	1.170469
H224	H	1.232927	0.235944	0.692981
C225	C	0.766727	0.403083	0.870698
H226	H	0.695792	0.462830	0.897744
H227	H	0.761789	0.376040	0.831493
H228	H	0.761767	0.376042	0.913675
H229	H	1.232915	0.370479	0.692976
H230	H	1.232915	0.464673	0.692981
C231	C	0.766716	0.095326	0.178485
H232	H	0.783773	0.088831	0.122506
H233	H	0.717771	0.072904	0.209295
H234	H	0.717788	0.155071	0.209295
C235	C	0.408978	0.368145	0.679993
H236	H	0.344094	0.424132	0.686511
H237	H	0.478769	0.337335	0.620248
H238	H	0.371016	0.337343	0.702433
C239	C	0.613187	0.212393	0.679984
H240	H	0.570277	0.218070	0.652949
H241	H	0.705000	0.181564	0.637010
H242	H	0.597226	0.181579	0.719185
H243	H	0.800733	0.763982	0.857735
H244	H	1.232906	0.599216	0.692976
H245	H	0.800751	0.535251	0.857728
H246	H	1.232922	-0.082409	0.145883
C247	C	1.266948	-0.095391	-0.012226
H248	H	1.337883	-0.122422	-0.006566
H249	H	1.271916	-0.138368	-0.043050
H250	H	1.271878	-0.056180	-0.043033
H251	H	1.232905	-0.082409	0.240075
