data_functionalizedCrystal
_audit_creation_method	'MofGen! by Chris Wilmer'
_symmetry_space_group_name_H-M	'P1'
_symmetry_Int_Tables_number	1
_symmetry_cell_setting	triclinic
loop_
_symmetry_equiv_pos_as_xyz
  x,y,z
_cell_length_a	27.732048
_cell_length_b	27.731996
_cell_length_c	26.809956
_cell_angle_alpha	89.998344
_cell_angle_beta	89.996742
_cell_angle_gamma	82.632022
loop_
_atom_site_label
_atom_site_type_symbol
_atom_site_fract_x
_atom_site_fract_y
_atom_site_fract_z
O1	O	0.640920	0.057512	-0.041422
O2	O	0.974254	0.390845	0.291912
O3	O	1.307587	0.724178	0.625245
O4	O	0.500125	0.066257	-0.041438
O5	O	0.833458	0.399591	0.291896
O6	O	1.166792	0.732924	0.625229
O7	O	0.574909	-0.008514	-0.041418
O8	O	0.908242	0.324819	0.291915
O9	O	1.241575	0.658153	0.625248
O10	O	0.566137	0.132283	-0.041441
O11	O	0.899470	0.465616	0.291892
O12	O	1.232803	0.798950	0.625226
O13	O	0.574894	-0.008503	0.041541
O14	O	0.908228	0.324831	0.374874
O15	O	1.241561	0.658164	0.708207
O16	O	0.500111	0.066269	0.041522
O17	O	0.833444	0.399602	0.374855
O18	O	1.166778	0.732935	0.708188
O19	O	0.640906	0.057523	0.041538
O20	O	0.974239	0.390856	0.374871
O21	O	1.307573	0.724190	0.708204
Zn22	Zn	0.570506	0.061898	0.054701
Zn23	Zn	0.903840	0.395231	0.388034
Zn24	Zn	1.237173	0.728564	0.721368
Zn25	Zn	0.570525	0.061883	-0.054601
Zn26	Zn	0.903858	0.395216	0.278732
Zn27	Zn	1.237192	0.728549	0.612065
O28	O	0.566123	0.132294	0.041518
O29	O	0.899456	0.465628	0.374852
O30	O	1.232789	0.798961	0.708185
C31	C	0.482111	0.066079	0.000040
C32	C	0.815445	0.399413	0.333373
C33	C	1.148778	0.732746	0.666707
C34	C	0.428456	0.065527	0.000034
C35	C	0.761790	0.398860	0.333368
C36	C	1.095123	0.732193	0.666701
C37	C	0.574721	-0.026516	0.000063
C38	C	0.908055	0.306818	0.333396
C39	C	1.241388	0.640151	0.666730
C40	C	0.574179	-0.080172	0.000068
C41	C	0.907512	0.253161	0.333401
C42	C	1.240845	0.586495	0.666735
C43	C	0.089634	0.106232	0.000050
C44	C	0.422967	0.439565	0.333383
C45	C	0.756300	0.772898	0.666716
C46	C	-0.112026	0.104180	0.000054
C47	C	0.221308	0.437514	0.333388
C48	C	0.554641	0.770847	0.666721
O49	O	-0.143288	0.141402	0.000070
O50	O	0.190045	0.474735	0.333403
O51	O	0.523379	0.808069	0.666737
N52	N	-0.131141	0.059844	0.000060
N53	N	0.202192	0.393177	0.333394
N54	N	0.535526	0.726511	0.666727
C55	C	-0.099838	0.016017	0.000069
C56	C	0.233495	0.349351	0.333402
C57	C	0.566829	0.682684	0.666735
O58	O	-0.120724	-0.021740	0.000079
O59	O	0.212609	0.311593	0.333413
O60	O	0.545943	0.644926	0.666746
C61	C	0.101820	0.018069	0.000068
C62	C	0.435153	0.351402	0.333401
C63	C	0.768487	0.684736	0.666734
C64	C	0.120933	0.062408	0.000056
C65	C	0.454266	0.395742	0.333390
C66	C	0.787599	0.729075	0.666723
C67	C	0.108747	0.150567	0.000039
C68	C	0.442080	0.483900	0.333372
C69	C	0.775413	0.817234	0.666705
C70	C	0.159159	0.151079	0.000035
C71	C	0.492492	0.484413	0.333368
C72	C	0.825825	0.817746	0.666702
C73	C	0.190457	0.107256	0.000042
C74	C	0.523791	0.440589	0.333375
C75	C	0.857124	0.773923	0.666708
C76	C	0.171344	0.062920	0.000052
C77	C	0.504678	0.396254	0.333386
C78	C	0.838011	0.729587	0.666719
C79	C	0.133122	-0.025757	0.000079
C80	C	0.466455	0.307576	0.333413
C81	C	0.799789	0.640909	0.666746
C82	C	0.183539	-0.025240	0.000080
C83	C	0.516873	0.308093	0.333414
C84	C	0.850206	0.641426	0.666747
C85	C	0.202652	0.019099	0.000069
C86	C	0.535985	0.352432	0.333402
C87	C	0.869318	0.685765	0.666736
C88	C	0.253055	0.019609	0.000055
C89	C	0.586388	0.352943	0.333389
C90	C	0.919722	0.686276	0.666722
N91	N	0.272171	0.063946	0.000049
N92	N	0.605504	0.397279	0.333382
N93	N	0.938837	0.730612	0.666716
C94	C	0.240872	0.107769	0.000042
C95	C	0.574205	0.441102	0.333376
C96	C	0.907538	0.774436	0.666709
C97	C	-0.205712	0.014943	0.000068
C98	C	0.127621	0.348277	0.333402
C99	C	0.460955	0.681610	0.666735
C100	C	-0.256126	0.014430	0.000068
C101	C	0.077207	0.347764	0.333401
C102	C	0.410540	0.681097	0.666735
C103	C	-0.268310	0.102594	0.000054
C104	C	0.065023	0.435927	0.333388
C105	C	0.398356	0.769260	0.666721
C106	C	-0.217895	0.103106	0.000051
C107	C	0.115438	0.436440	0.333385
C108	C	0.448772	0.769773	0.666718
C109	C	-0.186597	0.059280	0.000062
C110	C	0.146737	0.392613	0.333396
C111	C	0.480070	0.725946	0.666729
C112	C	0.346741	0.108842	0.000034
C113	C	0.680074	0.442175	0.333367
C114	C	1.013407	0.775508	0.666700
C115	C	0.397158	0.109350	0.000028
C116	C	0.730491	0.442683	0.333361
C117	C	1.063824	0.776017	0.666694
C118	C	0.409337	0.021187	0.000044
C119	C	0.742670	0.354520	0.333377
C120	C	1.076004	0.687854	0.666710
C121	C	0.358925	0.020678	0.000047
C122	C	0.692258	0.354012	0.333381
C123	C	1.025591	0.687345	0.666714
C124	C	0.327627	0.064510	0.000044
C125	C	0.660961	0.397843	0.333377
C126	C	0.994294	0.731176	0.666710
O127	O	0.284346	-0.017592	0.000045
O128	O	0.617679	0.315741	0.333379
O129	O	0.951013	0.649074	0.666712
O130	O	0.261767	0.145521	0.000043
O131	O	0.595101	0.478855	0.333376
O132	O	0.928434	0.812188	0.666709
C133	C	0.039222	0.105719	0.000053
C134	C	0.372555	0.439053	0.333387
C135	C	0.705889	0.772386	0.666720
C136	C	0.020109	0.061384	0.000064
C137	C	0.353442	0.394717	0.333397
C138	C	0.686776	0.728050	0.666731
C139	C	0.051408	0.017560	0.000071
C140	C	0.384741	0.350894	0.333404
C141	C	0.718074	0.684227	0.666738
C142	C	-0.030305	0.060871	0.000064
C143	C	0.303028	0.394204	0.333397
C144	C	0.636361	0.727537	0.666730
C145	C	-0.061604	0.104694	0.000057
C146	C	0.271729	0.438027	0.333390
C147	C	0.605062	0.771361	0.666723
C148	C	-0.042489	0.149030	0.000051
C149	C	0.290844	0.482364	0.333384
C150	C	0.624178	0.815697	0.666717
C151	C	0.007923	0.149543	0.000047
C152	C	0.341256	0.482876	0.333380
C153	C	0.674590	0.816209	0.666713
C154	C	0.032292	-0.026776	0.000077
C155	C	0.365626	0.306557	0.333410
C156	C	0.698959	0.639891	0.666744
C157	C	-0.018120	-0.027285	0.000081
C158	C	0.315213	0.306049	0.333414
C159	C	0.648547	0.639382	0.666747
C160	C	-0.049419	0.016539	0.000074
C161	C	0.283914	0.349872	0.333407
C162	C	0.617248	0.683205	0.666740
C163	C	0.570772	-0.412894	-0.045178
C164	C	0.904105	-0.079561	0.288155
C165	C	1.237438	0.253772	0.621489
C166	C	0.568711	-0.614553	-0.045187
C167	C	0.902044	-0.281219	0.288146
C168	C	1.235377	0.052114	0.621480
O169	O	0.568430	-0.640629	-0.083646
O170	O	0.901763	-0.307295	0.249687
O171	O	1.235096	0.026038	0.583021
N172	N	0.568447	-0.639764	0.000034
N173	N	0.901780	-0.306430	0.333367
N174	N	1.235114	0.026903	0.666700
C175	C	0.568695	-0.614556	0.045260
C176	C	0.902029	-0.281223	0.378593
C177	C	1.235362	0.052110	0.711926
O178	O	0.568419	-0.640626	0.083723
O179	O	0.901752	-0.307293	0.417056
O180	O	1.235085	0.026040	0.750389
C181	C	0.570753	-0.412899	0.045268
C182	C	0.904086	-0.079565	0.378602
C183	C	1.237419	0.253768	0.711935
C184	C	0.571021	-0.387691	0.000045
C185	C	0.904355	-0.054358	0.333378
C186	C	1.237688	0.278976	0.666711
C187	C	0.571040	-0.387687	-0.090398
C188	C	0.904373	-0.054353	0.242936
C189	C	1.237706	0.278980	0.576269
C190	C	0.571557	-0.337276	-0.090395
C191	C	0.904891	-0.003942	0.242938
C192	C	1.238224	0.329391	0.576272
C193	C	0.571807	-0.312072	-0.045173
C194	C	0.905141	0.021261	0.288161
C195	C	1.238474	0.354595	0.621494
C196	C	0.571539	-0.337280	0.000047
C197	C	0.904873	-0.003947	0.333381
C198	C	1.238206	0.329387	0.666714
C199	C	0.570998	-0.387692	0.090494
C200	C	0.904331	-0.054359	0.423827
C201	C	1.237664	0.278975	0.757161
C202	C	0.571511	-0.337274	0.090492
C203	C	0.904844	-0.003941	0.423825
C204	C	1.238178	0.329393	0.757159
C205	C	0.571780	-0.312067	0.045268
C206	C	0.905113	0.021267	0.378602
C207	C	1.238446	0.354600	0.711935
C208	C	0.572307	-0.261665	0.045273
C209	C	0.905640	0.071668	0.378606
C210	C	1.238974	0.405001	0.711939
N211	N	0.572571	-0.236454	0.000052
N212	N	0.905904	0.096879	0.333385
N213	N	1.239237	0.430212	0.666719
C214	C	0.572321	-0.261658	-0.045171
C215	C	0.905654	0.071676	0.288163
C216	C	1.238987	0.405009	0.621496
C217	C	0.567616	-0.720430	0.045252
C218	C	0.900949	-0.387097	0.378585
C219	C	1.234283	-0.053763	0.711919
C220	C	0.567102	-0.770844	0.045250
C221	C	0.900436	-0.437511	0.378583
C222	C	1.233769	-0.104178	0.711917
C223	C	0.567117	-0.770837	-0.045197
C224	C	0.900450	-0.437503	0.288137
C225	C	1.233784	-0.104170	0.621470
C226	C	0.567634	-0.720422	-0.045194
C227	C	0.900967	-0.387089	0.288139
C228	C	1.234301	-0.053755	0.621472
C229	C	0.567880	-0.695219	0.000032
C230	C	0.901213	-0.361886	0.333365
C231	C	1.234546	-0.028552	0.666698
C232	C	0.573409	-0.155791	-0.045161
C233	C	0.906742	0.177543	0.288172
C234	C	1.240075	0.510876	0.621505
C235	C	0.573929	-0.105375	-0.045155
C236	C	0.907262	0.227958	0.288179
C237	C	1.240595	0.561291	0.621512
C238	C	0.573912	-0.105387	0.045292
C239	C	0.907245	0.227947	0.378625
C240	C	1.240578	0.561280	0.711959
C241	C	0.573394	-0.155798	0.045286
C242	C	0.906728	0.177535	0.378619
C243	C	1.240061	0.510869	0.711952
C244	C	0.573141	-0.180999	0.000055
C245	C	0.906475	0.152335	0.333388
C246	C	1.239808	0.485668	0.666721
O247	O	0.572583	-0.235558	0.083712
O248	O	0.905916	0.097776	0.417045
O249	O	1.239249	0.431109	0.750378
O250	O	0.572587	-0.235578	-0.083627
O251	O	0.905920	0.097756	0.249706
O252	O	1.239253	0.431089	0.583039
C253	C	0.570254	-0.463306	-0.045181
C254	C	0.903587	-0.129972	0.288153
C255	C	1.236920	0.203361	0.621486
C256	C	0.569986	-0.488513	0.000039
C257	C	0.903319	-0.155180	0.333373
C258	C	1.236652	0.178153	0.666706
C259	C	0.570235	-0.463310	0.045262
C260	C	0.903569	-0.129977	0.378595
C261	C	1.236902	0.203357	0.711929
C262	C	0.569472	-0.538928	0.000037
C263	C	0.902805	-0.205594	0.333371
C264	C	1.236139	0.127739	0.666704
C265	C	0.569222	-0.564131	-0.045185
C266	C	0.902556	-0.230798	0.288148
C267	C	1.235889	0.102535	0.621481
C268	C	0.569486	-0.538920	-0.090406
C269	C	0.902819	-0.205587	0.242927
C270	C	1.236153	0.127746	0.576261
C271	C	0.570004	-0.488509	-0.090403
C272	C	0.903337	-0.155176	0.242930
C273	C	1.236670	0.178158	0.576263
C274	C	0.569972	-0.488521	0.090483
C275	C	0.903305	-0.155188	0.423816
C276	C	1.236638	0.178146	0.757149
C277	C	0.569454	-0.538932	0.090476
C278	C	0.902788	-0.205599	0.423809
C279	C	1.236121	0.127734	0.757143
C280	C	0.569205	-0.564136	0.045253
C281	C	0.902538	-0.230802	0.378587
C282	C	1.235871	0.102531	0.711920
C283	C	0.658920	0.057701	0.000059
C284	C	0.992253	0.391034	0.333392
C285	C	1.325587	0.724368	0.666725
C286	C	0.712575	0.058254	0.000061
C287	C	1.045908	0.391587	0.333394
C288	C	1.379241	0.724920	0.666728
C289	C	0.566310	0.150296	0.000036
C290	C	0.899643	0.483629	0.333369
C291	C	1.232977	0.816963	0.666703
C292	C	0.566853	0.203952	0.000028
C293	C	0.900186	0.537286	0.333361
C294	C	1.233519	0.870619	0.666694
N295	N	0.570497	0.061908	0.129297
N296	N	0.903831	0.395241	0.462630
N297	N	1.237164	0.728574	0.795964
N298	N	0.570538	0.061869	-0.129197
N299	N	0.903871	0.395202	0.204136
N300	N	1.237205	0.728536	0.537469
C301	C	0.603635	0.028782	0.473932
C302	C	0.936968	0.362115	0.807265
C303	C	1.270301	0.695449	1.140598
C304	C	0.603646	0.028775	0.682809
C305	C	0.936980	0.362108	1.016143
C306	C	1.270313	0.695441	1.349476
O307	O	0.631801	0.000613	0.709820
O308	O	0.965135	0.333946	1.043154
O309	O	1.298468	0.667280	1.376487
N310	N	0.570528	0.061872	0.708924
N311	N	0.903861	0.395205	1.042258
N312	N	1.237194	0.728539	1.375591
C313	C	0.537402	0.094972	0.682816
C314	C	0.870735	0.428305	1.016150
C315	C	1.204068	0.761638	1.349483
O316	O	0.509229	0.123119	0.709821
O317	O	0.842562	0.456453	1.043155
O318	O	1.175896	0.789786	1.376488
C319	C	0.537388	0.094976	0.473940
C320	C	0.870722	0.428310	0.807273
C321	C	1.204055	0.761643	1.140606
C322	C	0.570512	0.061880	0.447828
C323	C	0.903846	0.395213	0.781161
C324	C	1.237179	0.728547	1.114494
C325	C	0.636756	-0.004312	0.447820
C326	C	0.970089	0.329021	0.781153
C327	C	1.303422	0.662355	1.114486
C328	C	0.636754	-0.004308	0.395603
C329	C	0.970088	0.329025	0.728937
C330	C	1.303421	0.662359	1.062270
C331	C	0.603632	0.028790	0.369499
C332	C	0.936965	0.362123	0.702832
C333	C	1.270299	0.695457	1.036166
C334	C	0.570511	0.061884	0.395611
C335	C	0.903844	0.395217	0.728945
C336	C	1.237177	0.728551	1.062278
C337	C	0.504260	0.128073	0.447833
C338	C	0.837594	0.461406	0.781166
C339	C	1.170927	0.794740	1.114499
C340	C	0.504259	0.128071	0.395610
C341	C	0.837592	0.461404	0.728944
C342	C	1.170926	0.794737	1.062277
C343	C	0.537383	0.094974	0.369498
C344	C	0.870716	0.428308	0.702832
C345	C	1.204050	0.761641	1.036165
C346	C	0.537387	0.094986	0.317291
C347	C	0.870720	0.428319	0.650624
C348	C	1.204054	0.761652	0.983957
N349	N	0.570506	0.061888	0.291176
N350	N	0.903839	0.395222	0.624509
N351	N	1.237172	0.728555	0.957843
C352	C	0.603628	0.028790	0.317280
C353	C	0.936961	0.362124	0.650613
C354	C	1.270295	0.695457	0.983947
C355	C	0.537412	0.094967	0.792480
C356	C	0.870745	0.428301	1.125813
C357	C	1.204078	0.761634	1.459146
C358	C	0.537415	0.094967	0.844699
C359	C	0.870749	0.428300	1.178032
C360	C	1.204082	0.761633	1.511365
C361	C	0.603660	0.028769	0.844688
C362	C	0.936993	0.362102	1.178021
C363	C	1.270326	0.695436	1.511355
C364	C	0.603658	0.028772	0.792468
C365	C	0.936991	0.362106	1.125801
C366	C	1.270324	0.695439	1.459135
C367	C	0.570530	0.061870	0.766365
C368	C	0.903864	0.395203	1.099698
C369	C	1.237197	0.728537	1.433032
C370	C	0.603623	0.028802	0.207622
C371	C	0.936956	0.362135	0.540955
C372	C	1.270289	0.695468	0.874289
C373	C	0.603620	0.028810	0.155401
C374	C	0.936953	0.362143	0.488735
C375	C	1.270286	0.695476	0.822068
C376	C	0.537374	0.095005	0.155416
C377	C	0.870707	0.428339	0.488750
C378	C	1.204041	0.761672	0.822083
C379	C	0.537379	0.094999	0.207633
C380	C	0.870712	0.428333	0.540966
C381	C	1.204045	0.761666	0.874299
C382	C	0.570505	0.061893	0.233734
C383	C	0.903838	0.395226	0.567068
C384	C	1.237171	0.728560	0.900401
O385	O	0.509243	0.123129	0.290248
O386	O	0.842576	0.456462	0.623581
O387	O	1.175910	0.789796	0.956914
O388	O	0.631789	0.000640	0.290266
O389	O	0.965123	0.333973	0.623599
O390	O	1.298456	0.667306	0.956933
C391	C	0.603636	0.028778	0.526148
C392	C	0.936970	0.362111	0.859481
C393	C	1.270303	0.695445	1.192815
C394	C	0.570515	0.061872	0.552260
C395	C	0.903849	0.395205	0.885593
C396	C	1.237182	0.728539	1.218927
C397	C	0.537393	0.094970	0.526156
C398	C	0.870726	0.428303	0.859489
C399	C	1.204059	0.761637	1.192823
C400	C	0.570519	0.061872	0.604479
C401	C	0.903852	0.395205	0.937812
C402	C	1.237186	0.728538	1.271146
C403	C	0.603641	0.028774	0.630583
C404	C	0.936975	0.362107	0.963917
C405	C	1.270308	0.695440	1.297250
C406	C	0.636760	-0.004324	0.604468
C407	C	0.970093	0.329010	0.937802
C408	C	1.303427	0.662343	1.271135
C409	C	0.636759	-0.004320	0.552252
C410	C	0.970092	0.329014	0.885585
C411	C	1.303425	0.662347	1.218919
C412	C	0.504274	0.128067	0.552271
C413	C	0.837607	0.461401	0.885604
C414	C	1.170941	0.794734	1.218937
C415	C	0.504279	0.128061	0.604487
C416	C	0.837612	0.461394	0.937820
C417	C	1.170945	0.794728	1.271154
C418	C	0.537401	0.094963	0.630591
C419	C	0.870734	0.428297	0.963925
C420	C	1.204068	0.761630	1.297258
H421	H	0.412716	0.145458	0.000018
H422	H	0.746049	0.478791	0.333351
H423	H	1.079382	0.812125	0.666685
F424	F	0.566825	-0.797668	0.093383
F425	F	0.900159	-0.464334	0.426717
F426	F	1.233492	-0.131001	0.760050
F427	F	0.216847	-0.071888	0.000093
F428	F	0.550180	0.261445	0.333427
F429	F	0.883514	0.594779	0.666760
F430	F	0.469023	0.163291	0.632273
F431	F	0.802357	0.496625	0.965606
F432	F	1.135690	0.829958	1.298939
F433	F	-0.276461	-0.032761	0.000069
F434	F	0.056872	0.300572	0.333402
F435	F	0.390205	0.633905	0.666735
H436	H	0.630595	0.001859	0.134142
H437	H	0.963928	0.335192	0.467476
H438	H	1.297262	0.668525	0.800809
H439	H	0.510411	0.121954	0.228894
H440	H	0.843744	0.455287	0.562227
H441	H	1.177077	0.788620	0.895560
F442	F	0.569223	-0.565753	-0.138535
F443	F	0.902556	-0.232420	0.194798
F444	F	1.235889	0.100914	0.528131
H445	H	0.570222	-0.467989	-0.127229
H446	H	0.903556	-0.134656	0.206104
H447	H	1.236889	0.198677	0.539438
F448	F	0.672012	-0.039543	0.475594
F449	F	1.005345	0.293791	0.808928
F450	F	1.338678	0.627124	1.142261
H451	H	0.343363	-0.015426	0.000049
H452	H	0.676696	0.317907	0.333382
H453	H	1.010029	0.651240	0.666716
H454	H	0.477288	0.155023	0.469086
H455	H	0.810621	0.488356	0.802419
H456	H	1.143954	0.821689	1.135753
H457	H	0.477281	0.155022	0.374360
H458	H	0.810615	0.488355	0.707693
H459	H	1.143948	0.821689	1.041026
H460	H	0.573200	-0.176303	-0.081993
H461	H	0.906534	0.157031	0.251341
H462	H	1.239867	0.490364	0.584674
H463	H	-0.180232	-0.020747	0.000077
H464	H	0.153101	0.312586	0.333411
H465	H	0.486434	0.645919	0.666744
F466	F	0.638912	-0.006453	0.764683
F467	F	0.972245	0.326880	1.098016
F468	F	1.305579	0.660213	1.431349
F469	F	0.672013	-0.039548	0.632259
F470	F	1.005347	0.293786	0.965593
F471	F	1.338680	0.627119	1.298926
F472	F	0.502125	0.130230	0.127627
F473	F	0.835458	0.463564	0.460960
F474	F	1.168792	0.796897	0.794293
F475	F	-0.038455	-0.074480	0.000086
F476	F	0.294879	0.258853	0.333420
F477	F	0.628212	0.592187	0.666753
H478	H	0.630630	0.001820	0.865951
H479	H	0.963963	0.335153	1.199284
H480	H	1.297297	0.668487	1.532617
F481	F	0.567919	-0.693599	-0.093327
F482	F	0.901252	-0.360265	0.240007
F483	F	1.234585	-0.026932	0.573340
F484	F	0.672014	-0.039546	0.524468
F485	F	1.005347	0.293787	0.857801
F486	F	1.338680	0.627121	1.191134
H487	H	0.663725	-0.031259	0.374346
H488	H	0.997059	0.302074	0.707679
H489	H	1.330392	0.635408	1.041012
F490	F	0.469019	0.163296	0.524495
F491	F	0.802352	0.496630	0.857828
F492	F	1.135686	0.829963	1.191161
H493	H	0.057772	-0.062463	0.000084
H494	H	0.391105	0.270870	0.333417
H495	H	0.724438	0.604203	0.666751
H496	H	0.434830	-0.014493	0.000047
H497	H	0.768163	0.318841	0.333381
H498	H	1.101496	0.652174	0.666714
F499	F	0.028257	0.196735	0.000035
F500	F	0.361591	0.530068	0.333368
F501	F	0.694924	0.863401	0.666701
F502	F	0.569172	-0.565755	0.138613
F503	F	0.902505	-0.232422	0.471946
F504	F	1.235838	0.100912	0.805280
H505	H	0.571774	-0.316756	-0.127221
H506	H	0.905108	0.016578	0.206112
H507	H	1.238441	0.349911	0.539446
F508	F	-0.301629	0.149234	0.000048
F509	F	0.031704	0.482567	0.333381
F510	F	0.365037	0.815901	0.666714
H511	H	-0.067981	0.184713	0.000043
H512	H	0.265352	0.518046	0.333376
H513	H	0.598685	0.851379	0.666710
H514	H	0.321264	0.144533	0.000032
H515	H	0.654597	0.477867	0.333366
H516	H	0.987930	0.811200	0.666699
H517	H	-0.202337	0.139211	0.000045
H518	H	0.130996	0.472544	0.333378
H519	H	0.464329	0.805878	0.666712
F520	F	0.567875	-0.693613	0.093391
F521	F	0.901208	-0.360279	0.426724
F522	F	1.234542	-0.026946	0.760058
F523	F	0.112792	-0.072950	0.000084
F524	F	0.446126	0.260383	0.333418
F525	F	0.779459	0.593717	0.666751
H526	H	0.574149	-0.084854	-0.081983
H527	H	0.907482	0.248480	0.251351
H528	H	1.240815	0.581813	0.584684
H529	H	0.574117	-0.084857	0.082111
H530	H	0.907451	0.248476	0.415444
H531	H	1.240784	0.581809	0.748778
H532	H	0.570834	-0.408202	-0.127226
H533	H	0.904168	-0.074868	0.206108
H534	H	1.237501	0.258465	0.539441
H535	H	0.566914	-0.791366	-0.082019
H536	H	0.900247	-0.458033	0.251315
H537	H	1.233581	-0.124699	0.584648
F538	F	0.570710	-0.414509	0.138628
F539	F	0.904043	-0.081175	0.471961
F540	F	1.237377	0.252158	0.805295
F541	F	0.571772	-0.310454	0.138629
F542	F	0.905106	0.022879	0.471962
F543	F	1.238439	0.356213	0.805296
H544	H	0.573180	-0.176324	0.082110
H545	H	0.906514	0.157009	0.415444
H546	H	1.239847	0.490343	0.748777
H547	H	0.570176	-0.468005	0.127309
H548	H	0.903509	-0.134672	0.460642
H549	H	1.236843	0.198661	0.793976
H550	H	0.174715	0.187185	0.000026
H551	H	0.508048	0.520518	0.333359
H552	H	0.841381	0.853852	0.666692
F553	F	0.502152	0.130197	0.764704
F554	F	0.835485	0.463530	1.098037
F555	F	1.168818	0.796864	1.431370
F556	F	0.638880	-0.006434	0.235394
F557	F	0.972213	0.326900	0.568727
F558	F	1.305546	0.660233	0.902060
H559	H	0.083267	0.186255	0.000035
H560	H	0.416601	0.519589	0.333368
H561	H	0.749934	0.852922	0.666702
F562	F	0.502166	0.130198	0.872484
F563	F	0.835500	0.463531	1.205817
F564	F	1.168833	0.796865	1.539151
