data_functionalizedCrystal
_audit_creation_method	'MofGen! by Chris Wilmer'
_symmetry_space_group_name_H-M	'P1'
_symmetry_Int_Tables_number	1
_symmetry_cell_setting	triclinic
loop_
_symmetry_equiv_pos_as_xyz
  x,y,z
_cell_length_a	23.196402
_cell_length_b	14.560438
_cell_length_c	14.560438
_cell_angle_alpha	90.001034
_cell_angle_beta	60.001682
_cell_angle_gamma	60.001244
loop_
_atom_site_label
_atom_site_type_symbol
_atom_site_fract_x
_atom_site_fract_y
_atom_site_fract_z
Zr1	Zr	0.631008	0.884777	-0.120489
O2	O	0.751274	0.738133	-0.267129
O3	O	0.510743	0.929728	-0.075542
O4	O	0.631010	0.929728	-0.267138
O5	O	0.631005	0.738136	0.075608
O6	O	0.631012	1.080867	-0.267139
O7	O	0.631006	0.738132	-0.075533
O8	O	0.415876	1.080866	0.075591
O9	O	0.846141	0.738137	-0.267122
O10	O	0.560211	1.061696	-0.056367
O11	O	0.560209	0.948906	0.056429
O12	O	0.701808	0.948907	-0.169151
O13	O	0.701806	0.836117	-0.056355
Zr14	Zr	0.631008	1.125831	0.120561
Zr15	Zr	0.631011	1.125825	-0.120491
Zr16	Zr	0.631006	0.884783	0.120563
Zr17	Zr	0.782311	0.884784	-0.120479
Zr18	Zr	0.479706	1.125825	0.120551
O19	O	0.751274	1.080881	0.075614
O20	O	0.751277	1.080872	-0.267131
O21	O	0.751270	0.738141	0.075616
O22	O	0.510743	1.272476	0.267200
O23	O	0.510747	1.272467	-0.075545
O24	O	0.510740	0.929737	0.267203
O25	O	0.631012	1.272473	-0.075537
O26	O	0.631006	1.080880	0.267210
O27	O	0.631005	0.929742	0.267211
O28	O	0.631010	1.272476	0.075604
O29	O	0.846143	0.929738	-0.267124
O30	O	0.415874	1.080871	0.267195
O31	O	0.415876	1.272472	0.267194
O32	O	0.415878	1.272467	0.075589
O33	O	0.846139	0.738142	-0.075518
O34	O	0.846141	0.929743	-0.075519
O35	O	0.560209	1.061702	0.169223
O36	O	0.560211	1.174492	0.056427
O37	O	0.701808	1.061702	-0.056357
O38	O	0.701806	0.948912	0.056438
C39	C	0.441752	1.005296	0.000023
C40	C	0.377520	1.005293	0.000018
C41	C	0.347351	1.064161	-0.058864
C42	C	0.286990	1.064172	-0.058855
C43	C	0.256812	1.005293	0.000021
C44	C	0.286985	0.946423	0.058917
C45	C	0.347339	0.946423	0.058915
C46	C	0.194782	0.906673	-0.008381
C47	C	0.134432	0.906670	-0.008387
C48	C	0.070657	1.005294	0.000033
C49	C	0.067247	1.103922	0.008437
C50	C	0.127601	1.103922	0.008435
C51	C	0.191368	1.005287	0.000030
C52	C	-0.024963	1.064179	-0.058842
C53	C	-0.085329	1.064193	-0.058825
C54	C	-0.085327	0.946434	0.058939
C55	C	-0.024968	0.946430	0.058929
C56	C	0.005213	1.005301	0.000032
C57	C	0.631005	0.703790	0.000038
C58	C	0.631004	0.601459	0.000039
C59	C	0.557093	0.612255	0.058907
C60	C	0.557097	0.516100	0.058907
C61	C	0.704929	0.398356	-0.058837
C62	C	0.704924	0.494509	-0.058830
C63	C	0.820265	1.005313	0.000049
C64	C	0.884497	1.005315	0.000053
C65	C	0.631012	1.005297	-0.301484
C66	C	0.631013	1.005294	-0.403817
C67	C	0.631012	1.306819	0.000034
C68	C	0.631013	1.409150	0.000033
C69	C	0.704923	0.946420	-0.510765
C70	C	0.704920	0.946434	-0.606914
C71	C	0.557088	1.064196	-0.489152
C72	C	0.557092	1.064188	-0.393006
C73	C	0.631005	1.005312	0.301555
C74	C	0.631004	1.005315	0.403888
C75	C	0.441755	1.306810	0.000021
C76	C	0.377525	1.409139	0.000015
C77	C	0.441749	1.005304	0.301542
C78	C	0.377516	1.005304	0.403871
C79	C	0.441752	1.306818	0.301540
C80	C	0.377520	1.409149	0.403868
C81	C	0.820265	0.703791	-0.301469
C82	C	0.884497	0.601460	-0.403796
C83	C	0.820261	0.703798	0.000051
C84	C	0.884492	0.601470	0.000056
C85	C	0.820268	1.005305	-0.301471
C86	C	0.884501	1.005305	-0.403799
C87	C	0.347361	1.398315	-0.058874
C88	C	0.287018	1.494454	-0.058902
C89	C	0.256835	1.601416	-0.000032
C90	C	0.287004	1.612238	0.058860
C91	C	0.347351	1.516100	0.058880
C92	C	0.347352	1.064182	0.510813
C93	C	0.287006	1.064177	0.606971
C94	C	0.256823	1.005300	0.596184
C95	C	0.286993	0.946415	0.489231
C96	C	0.347341	0.946414	0.393075
C97	C	0.347358	1.516090	0.393044
C98	C	0.287013	1.612250	0.489183
C99	C	0.256829	1.601467	0.596144
C100	C	0.286997	1.494515	0.606966
C101	C	0.347345	1.398357	0.510828
C102	C	0.914667	0.494519	-0.392972
C103	C	0.975030	0.398358	-0.489111
C104	C	1.005217	0.409142	-0.596073
C105	C	0.975045	0.516094	-0.606894
C106	C	0.914687	0.612252	-0.510757
C107	C	0.914662	0.612293	0.058936
C108	C	0.975022	0.516154	0.058937
C109	C	1.005207	0.409192	0.000064
C110	C	0.975035	0.398371	-0.058823
C111	C	0.914680	0.494509	-0.058830
C112	C	0.914665	1.064193	-0.392977
C113	C	0.975011	1.064215	-0.489116
C114	C	1.005195	1.005342	-0.596077
C115	C	0.975024	0.946452	-0.606897
C116	C	0.914676	0.946437	-0.510759
H117	H	0.262422	1.112110	-0.106805
H118	H	0.371895	1.311284	0.519657
Br119	Br	0.388313	1.530756	0.247894
Br120	Br	0.456772	1.144112	-0.474490
H121	H	0.890091	0.485717	-0.305888
Br122	Br	0.805243	0.866501	-0.525439
Br123	Br	0.805245	0.253208	-0.138728
Br124	Br	0.174921	1.005314	0.726694
Br125	Br	0.246031	1.757409	0.138753
Br126	Br	0.873745	0.757383	-0.525467
Br127	Br	1.015964	0.253224	-0.474398
H128	H	0.890090	0.699378	0.106885
H129	H	0.207690	1.679774	0.674416
Br130	Br	0.873715	1.144102	-0.247827
H131	H	0.371935	1.311230	-0.106827
Br132	Br	0.456785	0.530760	0.138813
H133	H	-0.000391	1.112119	-0.106796
H134	H	0.890117	0.485681	-0.106774
H135	H	0.999570	1.112169	-0.480284
Br136	Br	0.805231	0.866535	-0.752059
H137	H	0.999631	0.524861	-0.693994
H138	H	0.262412	1.485751	0.694067
Br139	Br	1.087099	1.005372	-0.726540
Br140	Br	1.015955	0.530867	0.138863
H141	H	0.262456	1.699327	0.480351
H142	H	0.496902	1.112136	-0.305917
H143	H	1.054364	0.330835	-0.674345
H144	H	0.765115	0.485710	-0.106765
H145	H	1.054352	0.330920	0.000078
Br146	Br	1.016007	0.253199	-0.138714
H147	H	0.262461	1.485621	-0.106858
Br148	Br	0.388275	1.530809	0.138816
H149	H	0.371921	1.112126	0.519617
Br150	Br	0.246073	1.144101	0.752106
Br151	Br	0.174935	1.731880	-0.000071
Br152	Br	0.873752	0.866499	-0.525468
Br153	Br	0.246020	0.866517	0.474611
H154	H	0.137218	0.826360	-0.015236
H155	H	0.999610	0.898519	-0.693998
H156	H	0.124819	1.184228	0.015281
Br157	Br	-0.019297	1.237777	0.019854
Br158	Br	0.388308	1.144056	-0.138794
Br159	Br	-0.126272	1.144089	-0.138747
Br160	Br	-0.126277	0.866528	0.138846
Br161	Br	0.388268	0.866504	0.247943
H162	H	0.246717	0.826349	-0.015260
Br163	Br	0.246022	0.866530	0.138835
Br164	Br	0.388284	0.866528	0.138836
Br165	Br	0.015979	0.866534	0.138845
H166	H	0.496903	0.699334	0.106854
