data_functionalizedCrystal
_audit_creation_method	'MofGen! by Chris Wilmer'
_symmetry_space_group_name_H-M	'P1'
_symmetry_Int_Tables_number	1
_symmetry_cell_setting	triclinic
loop_
_symmetry_equiv_pos_as_xyz
  x,y,z
_cell_length_a	19.188930
_cell_length_b	10.654550
_cell_length_c	9.730223
_cell_angle_alpha	90.002155
_cell_angle_beta	90.014334
_cell_angle_gamma	83.814855
loop_
_atom_site_label
_atom_site_type_symbol
_atom_site_fract_x
_atom_site_fract_y
_atom_site_fract_z
O1	O	0.927166	0.156781	0.114724
O2	O	0.723993	0.177887	0.114628
O3	O	0.830251	-0.015504	0.114679
O4	O	0.820908	0.350172	0.114673
O5	O	0.830250	-0.015513	-0.113901
O6	O	0.723992	0.177878	-0.113952
O7	O	0.927165	0.156773	-0.113856
Zn8	Zn	0.825578	0.167324	-0.150196
Zn9	Zn	0.825580	0.167335	0.150968
O10	O	0.820907	0.350163	-0.113907
C11	C	0.697977	0.177199	0.000326
C12	C	0.620459	0.175147	0.000290
C13	C	0.829564	-0.062292	0.000392
C14	C	0.827512	-0.201692	0.000401
C15	C	0.824612	-0.398166	0.124988
C16	C	0.826548	-0.267187	0.124997
C17	C	0.826547	-0.267184	-0.124213
C18	C	0.824617	-0.398163	-0.124221
C19	C	0.576277	0.288622	0.000310
C20	C	0.503441	0.286695	0.000325
C21	C	0.474789	0.171286	0.000348
C22	C	0.518981	0.057795	0.000321
C23	C	0.591816	0.059726	0.000292
N24	N	0.366232	0.083073	0.078201
N25	N	0.297042	0.081246	0.078231
C26	C	0.255343	0.165461	0.000432
N27	N	0.285446	0.251591	-0.077381
N28	N	0.354643	0.253421	-0.077405
C29	C	0.395813	0.169179	0.000378
C30	C	0.132183	0.276855	0.000466
C31	C	0.059345	0.274922	0.000473
C32	C	0.074887	0.046020	0.000482
C33	C	0.147723	0.047955	0.000462
C34	C	0.176366	0.163376	0.000460
C35	C	0.953181	0.157460	0.000449
C36	C	1.030699	0.159512	0.000494
C37	C	0.821594	0.396951	0.000383
C38	C	0.823646	0.536351	0.000383
N39	N	0.825583	0.167315	-0.355732
N40	N	0.825581	0.167334	0.356504
C41	C	0.872721	0.081866	0.428453
C42	C	0.872724	0.081860	0.572336
C43	C	0.778440	0.252792	0.572309
C44	C	0.778441	0.252804	0.428429
H45	H	0.827336	-0.213877	0.226462
N46	N	0.161435	0.394759	0.000456
N47	N	0.121975	0.496072	0.000457
H48	H	0.142632	0.579344	0.000447
H49	H	0.740054	0.322408	0.369844
N50	N	0.823622	-0.465038	-0.251523
N51	N	0.774710	-0.438562	-0.334976
H52	H	0.774009	-0.485792	-0.424880
H53	H	0.827337	-0.213849	-0.225662
H54	H	0.911106	0.012274	0.369895
H55	H	0.823821	-0.451481	0.226449
N56	N	0.920874	-0.005465	0.645807
N57	N	0.919476	-0.121562	0.629717
H58	H	0.953484	-0.183240	0.681604
N59	N	0.014222	0.390853	0.000476
N60	N	0.039809	0.493891	0.000471
H61	H	0.007941	0.575771	0.000472
N62	N	0.458309	0.402624	0.000337
N63	N	0.483893	0.505665	0.000328
H64	H	0.452021	0.587542	0.000337
N65	N	0.730295	0.340084	0.645802
N66	N	0.730300	0.340063	0.774265
H67	H	0.696296	0.401714	0.826170
H68	H	0.627789	-0.032682	0.000277
N69	N	0.605523	0.406529	0.000312
N70	N	0.566060	0.507840	0.000331
H71	H	0.586716	0.591114	0.000334
N72	N	0.489706	-0.060082	0.000331
N73	N	0.424675	-0.061791	0.000357
H74	H	0.403999	-0.145046	0.000356
H75	H	0.051560	-0.047949	0.000587
H76	H	0.183697	-0.044449	0.000454
