data_functionalizedCrystal
_audit_creation_method	'MofGen! by Chris Wilmer'
_symmetry_space_group_name_H-M	'P1'
_symmetry_Int_Tables_number	1
_symmetry_cell_setting	triclinic
loop_
_symmetry_equiv_pos_as_xyz
  x,y,z
_cell_length_a	21.395362
_cell_length_b	29.839131
_cell_length_c	21.395355
_cell_angle_alpha	90.027826
_cell_angle_beta	90.043940
_cell_angle_gamma	90.051103
loop_
_atom_site_label
_atom_site_type_symbol
_atom_site_fract_x
_atom_site_fract_y
_atom_site_fract_z
Zn1	Zn	0.957840	-0.178715	0.354545
Zn2	Zn	0.957734	-0.253830	0.249751
Zn3	Zn	0.853055	-0.178736	0.249746
Zn4	Zn	0.853016	-0.253840	0.354455
O5	O	0.905411	-0.216280	0.302124
O6	O	1.045504	-0.188667	0.340683
O7	O	0.943820	-0.243874	0.162072
O8	O	0.867015	-0.115866	0.263684
O9	O	1.045426	-0.243853	0.263691
O10	O	0.944000	-0.115851	0.340679
O11	O	0.866913	-0.188702	0.162069
O12	O	0.765372	-0.188711	0.263597
O13	O	0.866949	-0.243869	0.442145
O14	O	0.765343	-0.243889	0.340526
O15	O	0.943963	-0.188676	0.442211
O16	O	0.943782	-0.316699	0.263604
O17	O	0.866846	-0.316705	0.340530
C18	C	0.742623	-0.216304	0.302052
C19	C	0.672982	-0.216325	0.302035
C20	C	0.640270	-0.245094	0.342032
C21	C	0.574835	-0.245083	0.342060
C22	C	0.542114	-0.216308	0.302080
C23	C	0.574833	-0.187533	0.262080
C24	C	0.640268	-0.187541	0.262058
C25	C	0.438389	-0.212688	0.245676
C26	C	0.372957	-0.212683	0.245697
C27	C	0.340293	-0.216278	0.302149
C28	C	0.373071	-0.219889	0.358582
C29	C	0.438505	-0.219897	0.358560
C30	C	0.471161	-0.216295	0.302100
C31	C	0.236629	-0.245037	0.342180
C32	C	0.171192	-0.245023	0.342209
C33	C	0.171192	-0.187475	0.262223
C34	C	0.236627	-0.187487	0.262200
C35	C	0.269342	-0.216270	0.302177
C36	C	0.905316	-0.333003	0.302071
C37	C	0.905332	-0.382937	0.302070
C38	C	0.945488	-0.692538	0.342273
C39	C	0.945556	-0.880211	0.342310
O40	O	0.979605	-0.904439	0.376453
N41	N	0.905517	-0.903722	0.302194
C42	C	0.865456	-0.880313	0.262068
O43	O	0.831397	-0.904617	0.227952
C44	C	0.865385	-0.692640	0.262034
C45	C	0.905431	-0.669131	0.302149
C46	C	0.985531	-0.669029	0.382385
C47	C	0.985516	-0.622113	0.382373
C48	C	0.945459	-0.598707	0.342248
C49	C	0.905416	-0.622216	0.302136
C50	C	0.825321	-0.669232	0.221912
C51	C	0.825305	-0.622311	0.221908
C52	C	0.865351	-0.598802	0.262022
C53	C	0.865344	-0.551894	0.262000
N54	N	0.905383	-0.528383	0.302117
C55	C	0.945440	-0.551789	0.342241
C56	C	0.865497	-0.978843	0.262088
C57	C	0.865515	-1.025761	0.262095
C58	C	0.945615	-1.025656	0.342339
C59	C	0.945599	-0.978737	0.342328
C60	C	0.905536	-0.955332	0.302204
C61	C	0.945406	-0.453263	0.342212
C62	C	0.945389	-0.406344	0.342194
C63	C	0.865287	-0.406453	0.261953
C64	C	0.865306	-0.453368	0.261968
C65	C	0.905367	-0.476772	0.302102
O66	O	0.831308	-0.527637	0.227880
O67	O	0.979484	-0.527477	0.376362
C68	C	0.945503	-0.739453	0.342285
C69	C	0.905461	-0.762962	0.302173
C70	C	0.865404	-0.739556	0.262049
C71	C	0.905479	-0.809880	0.302181
C72	C	0.945537	-0.833286	0.342305
C73	C	0.985576	-0.809775	0.382421
C74	C	0.985561	-0.762859	0.382409
C75	C	0.825365	-0.763067	0.221932
C76	C	0.825383	-0.809983	0.221947
C77	C	0.865441	-0.833389	0.262071
C78	C	1.068834	-0.216257	0.302198
C79	C	1.138476	-0.216247	0.302229
C80	C	0.905463	-0.216271	0.465548
C81	C	0.905485	-0.216267	0.535189
C82	C	0.905524	-0.099102	0.302191
C83	C	0.905572	-0.049167	0.302220
C84	C	0.905395	-0.216257	0.139337
C85	C	0.905495	-0.216134	0.069696
C86	C	0.945585	-0.187527	0.567937
C87	C	0.945584	-0.187507	0.633373
C88	C	0.905490	-0.216237	0.666057
C89	C	0.865383	-0.244979	0.633301
C90	C	0.865381	-0.244994	0.567867
C91	C	0.900510	-0.256689	0.769712
C92	C	0.900517	-0.256674	0.835145
C93	C	0.905494	-0.216189	0.867878
C94	C	0.910478	-0.175717	0.835170
C95	C	0.910475	-0.175733	0.769736
C96	C	0.905488	-0.216223	0.737010
C97	C	0.945595	-0.187425	0.971579
C98	C	0.945589	-0.187405	1.037016
C99	C	0.865392	-0.244881	1.036943
C100	C	0.865394	-0.244897	0.971507
C101	C	0.905499	-0.216170	0.938830
H102	H	0.548196	-0.268511	0.374633
Br103	Br	0.917235	-0.120810	0.725348
H104	H	0.978208	-0.959599	0.374993
Br105	Br	0.917239	-0.120769	0.879585
Br106	Br	0.126792	-0.148417	0.207969
H107	H	0.465190	-0.222836	0.404509
Br108	Br	1.000019	-0.148438	0.927227
Br109	Br	0.126796	-0.284067	0.396501
H110	H	0.978242	-0.163998	1.063679
Br111	Br	0.770967	-0.701125	0.167468
H112	H	0.666903	-0.268532	0.374586
H113	H	0.978236	-0.164101	0.660042
H114	H	0.832736	-0.268369	0.659917
H115	H	0.832740	-0.268268	1.063554
H116	H	0.346274	-0.209746	0.199746
Br117	Br	0.893773	-0.311639	0.725295
Br118	Br	0.281025	-0.148440	0.207915
H119	H	0.978232	-1.044721	0.375009
H120	H	0.832724	-0.268398	0.541203
Br121	Br	0.810971	-0.283905	0.927060
Br122	Br	0.530428	-0.148476	0.207826
H123	H	1.018194	-0.828840	0.415090
Br124	Br	0.328751	-0.224767	0.435202
H125	H	1.018123	-0.602975	0.415039
Br126	Br	0.482712	-0.207809	0.169055
Br127	Br	0.684665	-0.148493	0.207773
H128	H	0.792678	-0.603256	0.189235
H129	H	0.896462	-0.289629	0.861771
Br130	Br	0.999744	-0.374441	0.396637
H131	H	0.263267	-0.268472	0.374735
Br132	Br	0.810927	-0.374678	0.207500
Br133	Br	0.999776	-0.485018	0.396679
Br134	Br	1.039899	-0.700785	0.436850
Br135	Br	0.811175	-1.057660	0.207641
Br136	Br	0.811115	-0.947085	0.207632
Br137	Br	0.810967	-0.485275	0.207517
H138	H	1.018170	-0.743722	0.415075
H139	H	0.792774	-0.829120	0.189275
Br140	Br	1.000010	-0.148538	0.523592
H141	H	0.792744	-0.744014	0.189259
