data_functionalizedCrystal
_audit_creation_method	'MofGen! by Chris Wilmer'
_symmetry_space_group_name_H-M	'P1'
_symmetry_Int_Tables_number	1
_symmetry_cell_setting	triclinic
loop_
_symmetry_equiv_pos_as_xyz
  x,y,z
_cell_length_a	8.597340
_cell_length_b	13.262508
_cell_length_c	7.088929
_cell_angle_alpha	99.547107
_cell_angle_beta	103.954719
_cell_angle_gamma	82.751928
loop_
_atom_site_label
_atom_site_type_symbol
_atom_site_fract_x
_atom_site_fract_y
_atom_site_fract_z
O1	O	2.109749	0.139223	0.260953
O2	O	1.646063	0.155772	0.193172
O3	O	1.881724	-0.000086	0.150955
O4	O	1.874088	0.295082	0.303170
O5	O	1.913215	-0.020962	0.463264
O6	O	1.677554	0.134896	0.505480
O7	O	2.141240	0.118348	0.573261
Cu8	Cu	1.912272	0.124716	0.567887
Cu9	Cu	1.875031	0.149404	0.198546
O10	O	1.905579	0.274206	0.615478
C11	C	1.602308	0.144720	0.339205
C12	C	1.425016	0.142878	0.309040
C13	C	1.894145	-0.048291	0.286921
C14	C	1.884221	-0.160825	0.226762
C15	C	1.924903	-0.523572	0.738161
C16	C	1.934215	-0.417839	0.794683
C17	C	1.921718	-0.353581	0.652708
C18	C	1.899906	-0.395064	0.454200
C19	C	1.890580	-0.500806	0.397670
C20	C	1.887395	-0.330815	0.312217
C21	C	1.865583	-0.372298	0.113709
C22	C	1.856260	-0.478030	0.057189
C23	C	1.868758	-0.542288	0.199164
C24	C	1.896721	-0.225073	0.368747
C25	C	1.862398	-0.202308	0.028256
C26	C	1.853086	-0.308040	-0.028266
C27	C	2.184994	0.129400	0.427224
C28	C	2.362285	0.131243	0.457377
C29	C	1.893157	0.322411	0.479508
C30	C	1.903080	0.434946	0.539655
N31	N	1.938478	0.107351	0.827663
N32	N	1.848837	0.166761	-0.061232
H33	H	1.914466	-0.191307	0.530372
H34	H	1.755935	0.228327	0.873829
H35	H	1.343078	0.151429	0.158948
H36	H	1.444215	0.122685	0.607455
H37	H	1.929298	-0.267489	0.698741
H38	H	1.951991	-0.384073	0.956310
O39	O	2.049226	0.033774	0.904843
C40	C	2.012196	-0.063351	0.799514
H41	H	1.936373	-0.053667	0.646686
H42	H	2.128399	-0.113007	0.786169
H43	H	1.941876	-0.101919	0.880511
O44	O	1.937274	-0.585901	0.876267
C45	C	2.087453	-0.578617	1.010234
H46	H	2.135172	-0.502478	1.008411
H47	H	2.072557	-0.582805	1.164171
H48	H	2.176067	-0.644675	0.966453
H49	H	1.861185	-0.628386	0.153154
H50	H	1.835325	-0.341831	-0.189895
O51	O	1.834869	-0.518184	-0.135726
C52	C	1.689254	-0.473839	-0.242114
H53	H	1.655059	-0.396441	-0.158206
H54	H	1.704813	-0.462407	-0.392167
H55	H	1.590143	-0.526807	-0.262000
H56	H	1.852210	-0.149987	-0.087354
