data_functionalizedCrystal
_audit_creation_method	'MofGen! by Chris Wilmer'
_symmetry_space_group_name_H-M	'P1'
_symmetry_Int_Tables_number	1
_symmetry_cell_setting	triclinic
loop_
_symmetry_equiv_pos_as_xyz
  x,y,z
_cell_length_a	12.759399
_cell_length_b	12.759401
_cell_length_c	12.759393
_cell_angle_alpha	90.018776
_cell_angle_beta	90.027038
_cell_angle_gamma	90.015808
loop_
_atom_site_label
_atom_site_type_symbol
_atom_site_fract_x
_atom_site_fract_y
_atom_site_fract_z
Zn1	Zn	0.418210	-1.606252	-0.594006
Zn2	Zn	0.593925	-1.606143	-0.418336
Zn3	Zn	0.418262	-1.430553	-0.418345
Zn4	Zn	0.593849	-1.430540	-0.593977
O5	O	0.506061	-1.518372	-0.506166
O6	O	0.441530	-1.753258	-0.570711
O7	O	0.570676	-1.582810	-0.271316
O8	O	0.271234	-1.453911	-0.441663
O9	O	0.570627	-1.753178	-0.441647
O10	O	0.271196	-1.582996	-0.570720
O11	O	0.441617	-1.453805	-0.271323
O12	O	0.441543	-1.283530	-0.441635
O13	O	0.570496	-1.453888	-0.741002
O14	O	0.570546	-1.283521	-0.570671
O15	O	0.441456	-1.582983	-0.741023
O16	O	0.740936	-1.582798	-0.441619
O17	O	0.740880	-1.453783	-0.570662
C18	C	0.779029	-1.518306	-0.506159
C19	C	0.895805	-1.518373	-0.506192
C20	C	0.506043	-1.245405	-0.506152
C21	C	0.506060	-1.128628	-0.506170
C22	C	0.505962	-1.518447	-0.780199
C23	C	0.505919	-1.518478	-0.896976
C24	C	0.950662	-1.585625	-0.439076
C25	C	1.060386	-1.585688	-0.439115
C26	C	1.060387	-1.451238	-0.573387
C27	C	0.950665	-1.451181	-0.573353
C28	C	0.895802	-1.652817	-0.371915
C29	C	0.950658	-1.720073	-0.304793
C30	C	1.060382	-1.720136	-0.304832
C31	C	1.115250	-1.652942	-0.371992
C32	C	1.232028	-1.518463	-0.506210
C33	C	1.115251	-1.518493	-0.506264
C34	C	0.506081	-1.792405	-0.506181
C35	C	0.506089	-1.909182	-0.506188
C36	C	0.573350	-0.964057	-0.573261
C37	C	0.573338	-1.073781	-0.573250
C38	C	0.438796	-1.073745	-0.439090
C39	C	0.438814	-0.964023	-0.439096
C40	C	0.438667	-1.585727	-1.061576
C41	C	0.438714	-1.585704	-0.951852
C42	C	0.573091	-1.451279	-0.951831
C43	C	0.573049	-1.451307	-1.061553
C44	C	0.371450	-1.652949	-1.116446
C45	C	0.304279	-1.720151	-1.061599
C46	C	0.304325	-1.720128	-0.951875
C47	C	0.371542	-1.652904	-0.896997
C48	C	0.506085	-1.518358	-0.233199
C49	C	0.505831	-1.518530	-0.116423
H50	H	0.905979	-1.774786	-0.250120
H51	H	1.105043	-1.774907	-0.250186
H52	H	1.204595	-1.653007	-0.372026
O53	O	0.366279	-0.904820	-0.366739
H54	H	0.312898	-0.854840	-0.413847
O55	O	0.231888	-1.792616	-0.892721
H56	H	0.243216	-1.781316	-0.807206
H57	H	1.105069	-1.396532	-0.628065
H58	H	0.906001	-1.396420	-0.628005
O59	O	0.371404	-1.652972	-1.234790
H60	H	0.313387	-1.711008	-1.263733
O61	O	0.645990	-0.904945	-0.645571
H62	H	0.628128	-0.926038	-0.728071
H63	H	0.249560	-1.774888	-1.106287
O64	O	0.645875	-1.132973	-0.645600
H65	H	0.692649	-1.076401	-0.692257
O66	O	0.366231	-1.132890	-0.366731
H67	H	0.312817	-1.182894	-0.413840
O68	O	0.371597	-1.652875	-0.778651
H69	H	0.313598	-1.710893	-0.749728
O70	O	0.645574	-1.378763	-0.892649
H71	H	0.634310	-1.390024	-0.807138
H72	H	0.627740	-1.396590	-1.106210
O73	O	0.777457	-1.652751	-0.371881
H74	H	0.748523	-1.710776	-0.313912
