data_functionalizedCrystal
_audit_creation_method	'MofGen! by Chris Wilmer'
_symmetry_space_group_name_H-M	'P1'
_symmetry_Int_Tables_number	1
_symmetry_cell_setting	triclinic
loop_
_symmetry_equiv_pos_as_xyz
  x,y,z
_cell_length_a	27.440280
_cell_length_b	14.395555
_cell_length_c	14.395555
_cell_angle_alpha	60.003134
_cell_angle_beta	89.995994
_cell_angle_gamma	59.990847
loop_
_atom_site_label
_atom_site_type_symbol
_atom_site_fract_x
_atom_site_fract_y
_atom_site_fract_z
Zr1	Zr	0.469464	1.016737	-0.121933
O2	O	0.391640	1.210548	-0.270251
O3	O	0.493326	0.822932	-0.076466
O4	O	0.493320	1.016726	-0.270258
O5	O	0.391645	1.016761	0.076409
O6	O	0.573522	1.016711	-0.270264
O7	O	0.391646	1.016754	-0.076458
O8	O	0.573532	0.670049	0.076395
O9	O	0.391635	1.363423	-0.270251
O10	O	0.563351	0.902634	-0.057079
O11	O	0.503497	0.902650	0.057009
O12	O	0.503490	1.130818	-0.171157
O13	O	0.443636	1.130834	-0.057070
Zr14	Zr	0.597376	1.016724	0.121864
Zr15	Zr	0.597377	1.016713	-0.121942
Zr16	Zr	0.469463	1.016748	0.121873
Zr17	Zr	0.469456	1.260556	-0.121932
Zr18	Zr	0.597384	0.772906	0.121863
O19	O	0.573515	1.210530	0.076397
O20	O	0.573516	1.210514	-0.270263
O21	O	0.391639	1.210564	0.076409
O22	O	0.675200	0.822914	0.270182
O23	O	0.675201	0.822898	-0.076479
O24	O	0.493324	0.822947	0.270194
O25	O	0.675195	1.016701	-0.076478
O26	O	0.573520	1.016736	0.270189
O27	O	0.493318	1.016750	0.270195
O28	O	0.675195	1.016708	0.076389
O29	O	0.493309	1.363404	-0.270258
O30	O	0.573531	0.670057	0.270188
O31	O	0.675205	0.670038	0.270181
O32	O	0.675206	0.670030	0.076388
O33	O	0.391634	1.363432	-0.076458
O34	O	0.493308	1.363413	-0.076465
O35	O	0.563350	0.902644	0.171088
O36	O	0.623204	0.902628	0.057000
O37	O	0.563344	1.130812	-0.057078
O38	O	0.503489	1.130828	0.057009
C39	C	0.533430	0.711751	-0.000035
C40	C	0.533433	0.608244	-0.000036
C41	C	0.566055	0.485750	-0.062243
C42	C	0.509783	0.623886	-0.107332
C43	C	0.589695	0.471519	0.045001
C44	C	0.477101	0.562053	-0.045185
C45	C	0.557054	0.409613	0.107208
C46	C	0.500748	0.547739	0.062146
C47	C	0.373421	1.016761	-0.000024
C48	C	0.319118	1.016771	-0.000020
C49	C	-0.017579	1.016698	-0.084252
C50	C	-0.068597	1.016688	-0.084253
O51	O	-0.094972	1.016636	-0.155851
N52	N	-0.094115	1.016695	-0.000038
C53	C	-0.068609	1.016697	0.084189
O54	O	-0.094999	1.016700	0.155820
C55	C	-0.017590	1.016697	0.084193
C56	C	0.007922	1.016704	-0.000033
C57	C	0.007933	1.016703	-0.168471
C58	C	0.058947	1.016715	-0.168471
C59	C	0.084448	1.016721	-0.084253
C60	C	0.058936	1.016716	-0.000034
C61	C	0.007918	1.016690	0.168424
C62	C	0.058941	1.016689	0.168422
C63	C	0.084453	1.016696	0.084195
C64	C	0.135451	1.016734	0.084185
N65	N	0.160969	1.016727	-0.000030
C66	C	0.135468	1.016721	-0.084248
C67	C	-0.175753	1.016695	0.084174
C68	C	-0.226774	1.016704	0.084166
C69	C	-0.226758	1.016693	-0.084274
C70	C	-0.175738	1.016693	-0.084270
C71	C	-0.150235	1.016688	-0.000040
C72	C	0.242600	1.016747	-0.084243
C73	C	0.293617	1.016764	-0.084239
C74	C	0.293598	1.016768	0.084205
C75	C	0.242584	1.016758	0.084198
C76	C	0.217087	1.016743	-0.000032
O77	O	0.161859	1.016781	0.155750
O78	O	0.161868	1.016701	-0.155859
C79	C	0.693420	1.016701	-0.000046
C80	C	0.747722	1.016691	-0.000050
C81	C	0.533421	1.016717	-0.304998
C82	C	0.533422	1.016712	-0.408500
C83	C	0.533410	1.321710	-0.000034
C84	C	0.533407	1.425218	-0.000034
C85	C	0.566064	0.892296	-0.406888
C86	C	0.509781	0.954500	-0.499906
C87	C	0.589690	0.954514	-0.499911
C88	C	0.477106	1.078916	-0.500155
C89	C	0.557056	1.078913	-0.500145
C90	C	0.500740	1.141207	-0.593180
C91	C	0.533419	1.016745	0.304929
C92	C	0.533419	1.016749	0.408431
C93	C	0.693430	0.711722	-0.000046
C94	C	0.747735	0.608204	-0.000050
C95	C	0.533429	0.711765	0.304928
C96	C	0.533432	0.608262	0.408430
C97	C	0.693428	0.711735	0.304917
C98	C	0.747734	0.608223	0.408415
C99	C	0.373412	1.321726	-0.304986
C100	C	0.319107	1.425239	-0.408484
C101	C	0.373411	1.321740	-0.000023
C102	C	0.319105	1.425257	-0.000019
C103	C	0.533411	1.321697	-0.304998
C104	C	0.533408	1.425199	-0.408499
C105	C	0.741995	0.559594	-0.059611
C106	C	0.793016	0.462342	-0.059637
C107	C	0.849777	0.413695	-0.000096
C108	C	0.855516	0.462314	0.059466
C109	C	0.804496	0.559571	0.059485
C110	C	0.804485	0.559603	0.397466
C111	C	0.855515	0.462356	0.494704
C112	C	0.849794	0.413723	0.602890
C113	C	0.793037	0.462351	0.613836
C114	C	0.742007	0.559604	0.516599
C115	C	0.262355	1.473870	-0.397536
C116	C	0.211325	1.571148	-0.494773
C117	C	0.217047	1.619786	-0.602959
C118	C	0.273804	1.571151	-0.613905
C119	C	0.324833	1.473882	-0.516669
C120	C	0.324845	1.473877	0.059531
C121	C	0.273824	1.571156	0.059531
C122	C	0.217063	1.619807	-0.000014
C123	C	0.211324	1.571183	-0.059571
C124	C	0.262345	1.473912	-0.059577
C125	C	0.500798	0.547681	0.406818
C126	C	0.557084	0.409569	0.499831
C127	C	0.477170	0.561922	0.499844
C128	C	0.589751	0.471450	0.500080
C129	C	0.509797	0.623877	0.500079
C130	C	0.566117	0.485774	0.593110
H131	H	0.473111	0.574808	0.114740
C132	C	0.654068	0.420936	0.498960
N133	N	0.702509	0.382889	0.498110
C134	C	0.603275	0.449103	-0.133398
N135	N	0.631304	0.421503	-0.186995
H136	H	0.577085	0.317941	0.500756
H137	H	0.593759	0.458742	0.672736
C138	C	0.810794	0.613089	0.278471
N139	N	0.815550	0.653375	0.188846
C140	C	0.603293	0.750174	-0.299138
N141	N	0.631331	0.643131	-0.217980
C142	C	0.482775	0.747654	-0.229854
N143	N	0.462437	0.840870	-0.322138
C144	C	0.482770	0.883473	-0.501165
N145	N	0.462427	0.829968	-0.502105
H146	H	0.637279	0.901905	-0.500813
C147	C	0.148881	1.624695	-0.125047
N148	N	0.101848	1.664992	-0.174352
H149	H	0.809178	0.599137	0.107993
C150	C	0.412777	0.612603	-0.096791
N151	N	0.364329	0.650676	-0.135665
C152	C	0.412883	0.612182	0.501074
N153	N	0.364462	0.650040	0.501992
H154	H	0.577060	0.317976	0.197882
C155	C	0.786690	0.408867	-0.125151
N156	N	0.781923	0.368590	-0.174492
C157	C	0.653990	0.421223	0.096462
N158	N	0.702418	0.383339	0.135216
C159	C	0.412788	1.149902	-0.499038
N160	N	0.364345	1.203361	-0.498192
H161	H	0.489782	0.715538	0.499095
H162	H	0.901725	0.422772	0.485771
C163	C	0.905934	0.306732	0.709843
N164	N	0.948220	0.226141	0.790396
C165	C	-0.147705	1.016693	0.176839
N166	N	-0.126580	1.016686	0.246636
C167	C	0.679582	0.613071	0.528662
N168	N	0.632564	0.653340	0.537757
H169	H	0.314386	1.016774	-0.152830
H170	H	0.473096	1.246498	-0.672806
C171	C	0.463571	0.584280	0.299067
N172	N	0.435534	0.611844	0.217909
C173	C	0.214560	1.016737	-0.176903
N174	N	0.193438	1.016738	-0.246699
C175	C	0.256047	1.420394	-0.278540
N176	N	0.251290	1.380130	-0.188915
H177	H	0.079717	1.016716	-0.237053
C178	C	0.148898	1.624626	-0.482707
N179	N	0.101879	1.664903	-0.473615
H180	H	-0.012824	1.016694	-0.237053
C181	C	0.584087	1.149875	-0.498819
N182	N	0.604454	1.203313	-0.497812
H183	H	-0.154969	1.016698	-0.152854
H184	H	-0.247529	1.016686	-0.152849
H185	H	0.788387	0.422740	0.701934
H186	H	-0.247548	1.016719	0.152741
H187	H	-0.012847	1.016683	0.237009
H188	H	0.175491	1.698989	-0.682126
H189	H	0.278456	1.610765	-0.702002
C190	C	0.387258	1.420383	-0.528732
N191	N	0.434276	1.380090	-0.537826
H192	H	0.221806	1.016771	0.152773
C193	C	0.086991	1.016685	0.261083
N194	N	0.108116	1.016686	0.330874
H195	H	0.371058	1.434273	0.108027
C196	C	0.280151	1.624614	0.125061
N197	N	0.284917	1.664873	0.174422
C198	C	0.160944	1.726802	0.000010
N199	N	0.118678	1.807387	0.000036
H200	H	0.695782	0.599202	-0.108110
C201	C	0.321661	1.016768	0.176845
N202	N	0.342803	1.016755	0.246628
C203	C	0.905896	0.306700	-0.000120
N204	N	0.948162	0.226107	-0.000137
H205	H	0.257662	1.434329	-0.108066
C206	C	0.917959	0.408779	0.124966
N207	N	0.964992	0.368445	0.174307
