data_functionalizedCrystal
_audit_creation_method	'MofGen! by Chris Wilmer'
_symmetry_space_group_name_H-M	'P1'
_symmetry_Int_Tables_number	1
_symmetry_cell_setting	triclinic
loop_
_symmetry_equiv_pos_as_xyz
  x,y,z
_cell_length_a	6.817900
_cell_length_b	17.110477
_cell_length_c	17.110486
_cell_angle_alpha	96.939211
_cell_angle_beta	99.060439
_cell_angle_gamma	99.060298
loop_
_atom_site_label
_atom_site_type_symbol
_atom_site_fract_x
_atom_site_fract_y
_atom_site_fract_z
V1	V	-3.954938	-0.109247	-0.246618
O2	O	-3.966477	0.005492	-0.242029
O3	O	-3.885154	-0.216852	-0.244831
O4	O	-3.885155	-0.107460	-0.354223
O5	O	-3.966476	-0.104657	-0.131879
V6	V	-4.444108	-0.095536	-0.232907
O7	O	-4.203810	-0.139325	-0.276696
O8	O	-4.645433	-0.065458	-0.202830
O9	O	-4.290685	0.012069	-0.234695
O10	O	-4.549965	-0.210275	-0.237496
O11	O	-4.549966	-0.100126	-0.347646
O12	O	-4.290684	-0.097322	-0.125302
C13	C	-3.725645	-0.243087	-0.240914
C14	C	-3.749732	-0.331054	-0.240170
C15	C	-3.725645	-0.103546	-0.380454
C16	C	-3.749732	-0.102797	-0.468421
C17	C	-3.941549	-0.376408	-0.243763
C18	C	-3.964171	-0.459064	-0.243069
C19	C	-3.794973	-0.496363	-0.238775
C20	C	-3.603142	-0.451003	-0.235183
C21	C	-3.580524	-0.368350	-0.235884
C22	C	-3.854236	-0.745721	-0.236467
C23	C	-3.876869	-0.828379	-0.235765
C24	C	-4.237899	-0.836434	-0.243652
C25	C	-4.215261	-0.753779	-0.244347
C26	C	-4.023435	-0.708427	-0.240760
C27	C	-3.818092	-0.580849	-0.238062
C28	C	-4.000321	-0.623943	-0.241478
C29	C	-3.941550	-0.106395	-0.513775
C30	C	-3.964170	-0.105690	-0.596429
C31	C	-3.794972	-0.101394	-0.633728
C32	C	-3.603137	-0.097794	-0.588367
C33	C	-3.580518	-0.098493	-0.505714
C34	C	-3.854235	-0.099083	-0.883085
C35	C	-3.876871	-0.098387	-0.965745
C36	C	-4.237903	-0.106281	-0.973801
C37	C	-4.215268	-0.106984	-0.891147
C38	C	-4.023435	-0.103380	-0.845792
C39	C	-3.818089	-0.100677	-0.718214
C40	C	-4.000318	-0.104092	-0.761307
C41	C	-4.113536	0.038300	-0.238609
C42	C	-4.068686	0.126267	-0.239358
C43	C	-4.113536	-0.101239	-0.099067
C44	C	-4.068689	-0.101984	-0.011099
H45	H	-4.079330	-0.346045	-0.247252
H46	H	-4.394077	-0.873368	-0.246572
H47	H	-3.698041	-0.708804	-0.233542
C48	C	-3.369520	-0.094540	-0.455825
H49	H	-3.271992	-0.091889	-0.489876
H50	H	-3.338255	-0.048297	-0.416229
H51	H	-3.368132	-0.141007	-0.430601
H52	H	-4.120364	-0.108615	-0.633353
H53	H	-3.424329	-0.331424	-0.232961
H54	H	-4.138076	-0.107587	-0.730935
C55	C	-3.690749	-0.093659	-1.006776
H56	H	-3.731706	-0.093769	-1.062498
H57	H	-3.597939	-0.045798	-0.984395
H58	H	-3.627804	-0.138508	-0.998758
C59	C	-4.175166	-0.508949	-0.247014
H60	H	-4.272689	-0.474895	-0.249660
H61	H	-4.206448	-0.548545	-0.293256
H62	H	-4.176541	-0.534171	-0.200546
C63	C	-4.401389	-0.712759	-0.249091
H64	H	-4.518875	-0.751610	-0.251143
H65	H	-4.385160	-0.673493	-0.203183
H66	H	-4.414980	-0.687877	-0.295891
C67	C	-3.690743	-0.869407	-0.231045
H68	H	-3.573260	-0.830561	-0.229016
H69	H	-3.677123	-0.894296	-0.184254
H70	H	-3.707017	-0.908670	-0.276965
C71	C	-3.631977	-0.621876	-0.233331
H72	H	-3.514488	-0.583031	-0.231292
H73	H	-3.618378	-0.646770	-0.186543
H74	H	-3.648237	-0.661136	-0.279253
H75	H	-3.680332	-0.097182	-0.748592
C76	C	-4.401383	-0.111713	-0.850120
H77	H	-4.360441	-0.111623	-0.794401
H78	H	-4.464342	-0.066871	-0.858135
H79	H	-4.494181	-0.159580	-0.872510
C80	C	-3.417023	-0.093071	-0.629394
H81	H	-3.457966	-0.093179	-0.685117
H82	H	-3.324207	-0.045213	-0.607010
H83	H	-3.354090	-0.137923	-0.621375
H84	H	-3.465381	-0.481379	-0.231692
H85	H	-4.138081	-0.593571	-0.244979
H86	H	-4.079336	-0.109898	-0.483414
H87	H	-4.394086	-0.109215	-1.010737
H88	H	-3.698046	-0.096176	-0.846172
