data_functionalizedCrystal
_audit_creation_method	'MofGen! by Chris Wilmer'
_symmetry_space_group_name_H-M	'P1'
_symmetry_Int_Tables_number	1
_symmetry_cell_setting	triclinic
loop_
_symmetry_equiv_pos_as_xyz
  x,y,z
_cell_length_a	10.654559
_cell_length_b	9.130313
_cell_length_c	8.559649
_cell_angle_alpha	90.000859
_cell_angle_beta	102.866326
_cell_angle_gamma	90.000468
loop_
_atom_site_label
_atom_site_type_symbol
_atom_site_fract_x
_atom_site_fract_y
_atom_site_fract_z
O1	O	1.644663	0.121800	-0.224247
O2	O	1.276981	0.121800	-0.245590
O3	O	1.493215	0.121798	-0.002677
O4	O	1.428429	0.121801	-0.467160
O5	O	1.493212	-0.121801	-0.002683
O6	O	1.276978	-0.121799	-0.245597
O7	O	1.644660	-0.121799	-0.224253
Cu8	Cu	1.460819	-0.144042	-0.234926
Cu9	Cu	1.460823	0.144042	-0.234918
O10	O	1.428426	-0.121798	-0.467167
C11	C	1.230344	0.000001	-0.244023
C12	C	1.091387	0.000001	-0.239325
C13	C	1.055077	-0.000004	-0.091886
C14	C	0.924510	0.000007	-0.087482
C15	C	0.866571	0.000022	-0.377969
C16	C	0.997136	0.000021	-0.382372
C17	C	1.149328	-0.000024	0.051160
C18	C	1.113020	-0.000030	0.198611
C19	C	0.982453	-0.000019	0.203015
C20	C	0.888193	-0.000002	0.059969
N21	N	1.460826	-0.346664	-0.234930
C22	C	1.556592	-0.423317	-0.127405
C23	C	1.556591	-0.576654	-0.127386
C24	C	1.365051	-0.576672	-0.342431
C25	C	1.365048	-0.423338	-0.342441
C26	C	1.652370	-0.346644	-0.019894
C27	C	1.748145	-0.423296	0.087639
C28	C	1.748143	-0.576633	0.087658
C29	C	1.652367	-0.653317	-0.019856
C30	C	1.691297	0.000003	-0.225820
C31	C	1.830255	0.000012	-0.230518
C32	C	1.498123	0.000002	0.056795
C33	C	1.512738	0.000010	0.234013
N34	N	1.460827	0.346665	-0.234901
C35	C	1.423518	0.000002	-0.526639
C36	C	1.408904	0.000004	-0.703856
H37	H	1.026698	0.000012	-0.502429
N38	N	0.747368	-0.000013	0.064721
H39	H	0.693169	-0.000015	-0.048268
H40	H	0.727398	0.090288	0.122879
H41	H	1.826117	-0.360853	0.175182
N42	N	1.645315	-0.000014	0.343132
H43	H	1.637319	-0.000026	0.458511
H44	H	1.693662	0.090292	0.321877
N45	N	1.276342	0.000011	0.187012
H46	H	1.227928	0.090310	0.208146
H47	H	1.228032	-0.090354	0.208181
N48	N	1.290154	-0.000044	0.046422
H49	H	1.332990	0.090248	0.102398
H50	H	1.298750	-0.000094	-0.068724
H51	H	1.652382	-0.221789	-0.019903
H52	H	0.952897	-0.000010	0.323076
N53	N	0.764928	0.000022	-0.532259
H54	H	0.709459	0.090319	-0.536917
H55	H	0.709560	-0.090345	-0.536821
H56	H	1.189774	-0.000031	0.315073
H57	H	1.826119	-0.639043	0.175225
N58	N	1.261755	-0.659373	-0.458386
H59	H	1.276291	-0.768141	-0.442064
H60	H	1.265315	-0.632579	-0.571794
H61	H	1.652366	-0.778175	-0.019820
N62	N	1.261757	-0.340649	-0.458406
H63	H	1.201088	-0.412485	-0.526520
H64	H	1.302965	-0.277031	-0.529545
