data_functionalizedCrystal
_audit_creation_method	'MofGen! by Chris Wilmer'
_symmetry_space_group_name_H-M	'P1'
_symmetry_Int_Tables_number	1
_symmetry_cell_setting	triclinic
loop_
_symmetry_equiv_pos_as_xyz
  x,y,z
_cell_length_a	6.817900
_cell_length_b	16.256208
_cell_length_c	16.255661
_cell_angle_alpha	95.350611
_cell_angle_beta	103.488922
_cell_angle_gamma	103.499088
loop_
_atom_site_label
_atom_site_type_symbol
_atom_site_fract_x
_atom_site_fract_y
_atom_site_fract_z
V1	V	-4.026770	-0.117778	-0.264174
O2	O	-4.014188	0.004956	-0.258835
O3	O	-3.978378	-0.232858	-0.262666
O4	O	-3.978331	-0.116275	-0.379254
O5	O	-4.014235	-0.112433	-0.141440
V6	V	-4.510402	-0.103061	-0.249458
O7	O	-4.287789	-0.150061	-0.296455
O8	O	-4.699579	-0.070778	-0.217177
O9	O	-4.335587	0.012018	-0.250966
O10	O	-4.640380	-0.225796	-0.254797
O11	O	-4.640333	-0.108406	-0.372192
O12	O	-4.335634	-0.104564	-0.134379
C13	C	-3.823382	-0.260902	-0.258575
C14	C	-3.865103	-0.354983	-0.258109
C15	C	-4.180993	-0.643087	-0.261101
C16	C	-4.024588	-0.573415	-0.189040
C17	C	-4.015127	-0.693616	-0.256396
C18	C	-4.097310	-0.595653	-0.329275
C19	C	-3.941426	-0.527235	-0.257239
C20	C	-3.859240	-0.625174	-0.184270
C21	C	-3.932023	-0.647427	-0.324568
C22	C	-3.775481	-0.577774	-0.252486
C23	C	-4.057590	-0.789464	-0.255909
C24	C	-3.898947	-0.431387	-0.257719
C25	C	-3.823321	-0.112188	-0.407294
C26	C	-3.865001	-0.111721	-0.501374
C27	C	-3.775555	-0.106138	-0.724178
C28	C	-3.932006	-0.178197	-0.793840
C29	C	-3.941385	-0.110845	-0.673620
C30	C	-3.859223	-0.037961	-0.771594
C31	C	-4.015152	-0.109994	-0.840001
C32	C	-4.097318	-0.182968	-0.742052
C33	C	-4.024473	-0.042668	-0.719790
C34	C	-4.181062	-0.114748	-0.789432
C35	C	-3.898884	-0.111335	-0.577772
C36	C	-4.057670	-0.109510	-0.935849
C37	C	-4.153925	0.040058	-0.255055
C38	C	-4.091442	0.134138	-0.255526
C39	C	-4.153986	-0.108654	-0.106334
C40	C	-4.091545	-0.109117	-0.012253
H41	H	-3.603605	-0.549394	-0.248826
H42	H	-4.197564	-0.582244	-0.390559
H43	H	-4.197565	-0.244317	-0.728743
H44	H	-4.352936	-0.118407	-0.817788
O45	O	-3.886281	-0.685877	-0.393020
C46	C	-4.012700	-0.671329	-0.469308
H47	H	-4.159314	-0.656719	-0.456361
H48	H	-4.059189	-0.730858	-0.519879
H49	H	-3.921826	-0.614647	-0.493373
H50	H	-3.893361	-0.235496	-0.826073
H51	H	-4.063040	0.014633	-0.687534
O52	O	-3.570595	-0.101754	-0.690115
C53	C	-3.478050	-0.027232	-0.628625
H54	H	-3.572020	0.021780	-0.642288
H55	H	-3.310916	0.000886	-0.631875
H56	H	-3.476375	-0.044102	-0.561991
O57	O	-3.739317	0.035135	-0.787501
C58	C	-3.526241	0.039372	-0.754160
H59	H	-3.509235	-0.001705	-0.701121
H60	H	-3.435544	0.108628	-0.727022
H61	H	-3.461645	0.014620	-0.807374
H62	H	-4.352750	-0.671603	-0.264649
H63	H	-3.758996	-0.638474	-0.122924
O64	O	-4.071105	-0.535026	-0.120757
C65	C	-4.284444	-0.568506	-0.125514
H66	H	-4.373908	-0.596246	-0.194776
H67	H	-4.350041	-0.515228	-0.101659
H68	H	-4.301895	-0.621113	-0.083954
