data_functionalizedCrystal
_audit_creation_method	'MofGen! by Chris Wilmer'
_symmetry_space_group_name_H-M	'P1'
_symmetry_Int_Tables_number	1
_symmetry_cell_setting	triclinic
loop_
_symmetry_equiv_pos_as_xyz
  x,y,z
_cell_length_a	25.639242
_cell_length_b	29.839126
_cell_length_c	25.639240
_cell_angle_alpha	89.969504
_cell_angle_beta	90.028283
_cell_angle_gamma	89.971322
loop_
_atom_site_label
_atom_site_type_symbol
_atom_site_fract_x
_atom_site_fract_y
_atom_site_fract_z
Zn1	Zn	0.799280	-0.254094	-0.208253
Zn2	Zn	1.049280	-0.004094	0.041747
Zn3	Zn	1.299280	0.245906	0.291747
Zn4	Zn	1.549280	0.495906	0.541747
Zn5	Zn	0.799203	-0.178955	-0.295679
Zn6	Zn	1.049203	0.071045	-0.045679
Zn7	Zn	1.299203	0.321045	0.204321
Zn8	Zn	1.549203	0.571045	0.454321
Zn9	Zn	0.711847	-0.178965	-0.208253
Zn10	Zn	0.961847	0.071035	0.041747
Zn11	Zn	1.211847	0.321035	0.291747
Zn12	Zn	1.461847	0.571035	0.541747
Zn13	Zn	0.711811	-0.254045	-0.295653
Zn14	Zn	0.961811	-0.004045	-0.045653
Zn15	Zn	1.211811	0.245955	0.204347
Zn16	Zn	1.461811	0.495955	0.454347
O17	O	0.755535	-0.216515	-0.251959
O18	O	1.005535	0.033485	-0.001959
O19	O	1.255535	0.283485	0.248041
O20	O	1.505535	0.533485	0.498041
O21	O	0.872435	-0.244143	-0.219862
O22	O	1.122435	0.005857	0.030138
O23	O	1.372435	0.255857	0.280138
O24	O	1.622435	0.505857	0.530138
O25	O	0.787597	-0.116089	-0.284092
O26	O	1.037597	0.133911	-0.034092
O27	O	1.287597	0.383911	0.215908
O28	O	1.537597	0.633911	0.465908
O29	O	0.723492	-0.188955	-0.135087
O30	O	0.973492	0.061045	0.114913
O31	O	1.223492	0.311045	0.364913
O32	O	1.473492	0.561045	0.614913
O33	O	0.872378	-0.188939	-0.284093
O34	O	1.122378	0.061061	-0.034093
O35	O	1.372378	0.311061	0.215907
O36	O	1.622378	0.561061	0.465907
O37	O	0.787729	-0.244152	-0.135088
O38	O	1.037729	0.005848	0.114912
O39	O	1.287729	0.255848	0.364912
O40	O	1.537729	0.505848	0.614912
O41	O	0.723417	-0.116096	-0.219861
O42	O	0.973417	0.133904	0.030139
O43	O	1.223417	0.383904	0.280139
O44	O	1.473417	0.633904	0.530139
O45	O	0.638677	-0.188908	-0.219835
O46	O	0.888677	0.061092	0.030165
O47	O	1.138677	0.311092	0.280165
O48	O	1.388677	0.561092	0.530165
O49	O	0.723431	-0.316919	-0.284048
O50	O	0.973431	-0.066919	-0.034048
O51	O	1.223431	0.183081	0.215952
O52	O	1.473431	0.433081	0.465952
O53	O	0.638650	-0.244069	-0.284047
O54	O	0.888650	0.005931	-0.034047
O55	O	1.138650	0.255931	0.215953
O56	O	1.388650	0.505931	0.465953
O57	O	0.787695	-0.316954	-0.219836
O58	O	1.037695	-0.066954	0.030164
O59	O	1.287695	0.183046	0.280164
O60	O	1.537695	0.433046	0.530164
O61	O	0.787563	-0.188892	-0.368841
O62	O	1.037563	0.061108	-0.118841
O63	O	1.287563	0.311108	0.131159
O64	O	1.537563	0.561108	0.381159
O65	O	0.723356	-0.244060	-0.368821
O66	O	0.973356	0.005940	-0.118821
O67	O	1.223356	0.255940	0.131179
O68	O	1.473356	0.505940	0.381179
C69	C	0.619693	-0.216484	-0.251939
C70	C	0.869693	0.033516	-0.001939
C71	C	1.119693	0.283516	0.248061
C72	C	1.369693	0.533516	0.498061
C73	C	0.561578	-0.216482	-0.251942
C74	C	0.811578	0.033518	-0.001942
C75	C	1.061578	0.283518	0.248058
C76	C	1.311578	0.533518	0.498058
C77	C	0.201211	-0.245210	-0.285451
C78	C	0.451211	0.004790	-0.035451
C79	C	0.701211	0.254790	0.214549
C80	C	0.951211	0.504790	0.464549
C81	C	0.146606	-0.245217	-0.285454
C82	C	0.396606	0.004783	-0.035454
C83	C	0.646606	0.254783	0.214546
C84	C	0.896606	0.504783	0.464546
O85	O	0.118365	-0.269617	-0.313918
O86	O	0.368365	-0.019617	-0.063918
O87	O	0.618365	0.230383	0.186082
O88	O	0.868365	0.480383	0.436082
N89	N	0.119296	-0.216544	-0.251974
N90	N	0.369296	0.033456	-0.001974
N91	N	0.619296	0.283456	0.248026
N92	N	0.869296	0.533456	0.498026
C93	C	0.146593	-0.187865	-0.218484
C94	C	0.396593	0.062135	0.031516
C95	C	0.646593	0.312135	0.281516
C96	C	0.896593	0.562135	0.531516
O97	O	0.118349	-0.163477	-0.190007
O98	O	0.368349	0.086523	0.059993
O99	O	0.618349	0.336523	0.309993
O100	O	0.868349	0.586523	0.559993
C101	C	0.201196	-0.187861	-0.218479
C102	C	0.451196	0.062139	0.031521
C103	C	0.701196	0.312139	0.281521
C104	C	0.951196	0.562139	0.531521
C105	C	0.228504	-0.216532	-0.251965
C106	C	0.478504	0.033468	-0.001965
C107	C	0.728504	0.283468	0.248035
C108	C	0.978504	0.533468	0.498035
C109	C	0.228518	-0.273880	-0.318934
C110	C	0.478518	-0.023880	-0.068934
C111	C	0.728518	0.226120	0.181066
C112	C	0.978518	0.476120	0.431066
C113	C	0.283119	-0.273872	-0.318931
C114	C	0.533119	-0.023872	-0.068931
C115	C	0.783119	0.226128	0.181069
C116	C	1.033119	0.476128	0.431069
C117	C	0.310412	-0.245194	-0.285445
C118	C	0.560412	0.004806	-0.035445
C119	C	0.810412	0.254806	0.214555
C120	C	1.060412	0.504806	0.464555
C121	C	0.283104	-0.216525	-0.251962
C122	C	0.533104	0.033475	-0.001962
C123	C	0.783104	0.283475	0.248038
C124	C	1.033104	0.533475	0.498038
C125	C	0.228492	-0.159185	-0.184988
C126	C	0.478492	0.090815	0.065012
C127	C	0.728492	0.340815	0.315012
C128	C	0.978492	0.590815	0.565012
C129	C	0.283099	-0.159183	-0.184985
C130	C	0.533099	0.090817	0.065015
C131	C	0.783099	0.340817	0.315015
C132	C	1.033099	0.590817	0.565015
C133	C	0.310407	-0.187854	-0.218471
C134	C	0.560407	0.062146	0.031529
C135	C	0.810407	0.312146	0.281529
C136	C	1.060407	0.562146	0.531529
C137	C	0.364998	-0.187839	-0.218474
C138	C	0.614998	0.062161	0.031526
C139	C	0.864998	0.312161	0.281526
C140	C	1.114998	0.562161	0.531526
N141	N	0.392308	-0.216512	-0.251954
N142	N	0.642308	0.033488	-0.001954
N143	N	0.892308	0.283488	0.248046
N144	N	1.142308	0.533488	0.498046
C145	C	0.365015	-0.245190	-0.285440
C146	C	0.615015	0.004810	-0.035440
C147	C	0.865015	0.254810	0.214560
C148	C	1.115015	0.504810	0.464560
C149	C	0.031922	-0.187877	-0.218498
C150	C	0.281922	0.062123	0.031502
C151	C	0.531922	0.312123	0.281502
C152	C	0.781922	0.562123	0.531502
C153	C	-0.022680	-0.187879	-0.218506
C154	C	0.227320	0.062121	0.031494
C155	C	0.477320	0.312121	0.281494
C156	C	0.727320	0.562121	0.531494
C157	C	-0.022663	-0.245232	-0.285474
C158	C	0.227337	0.004768	-0.035474
C159	C	0.477337	0.254768	0.214526
C160	C	0.727337	0.504768	0.464526
C161	C	0.031940	-0.245227	-0.285469
C162	C	0.281940	0.004773	-0.035469
C163	C	0.531940	0.254773	0.214531
C164	C	0.781940	0.504773	0.464531
C165	C	0.059233	-0.216550	-0.251978
C166	C	0.309233	0.033450	-0.001978
C167	C	0.559233	0.283450	0.248022
C168	C	0.809233	0.533450	0.498022
C169	C	0.479680	-0.245171	-0.285432
C170	C	0.729680	0.004829	-0.035432
C171	C	0.979680	0.254829	0.214568
C172	C	1.229680	0.504829	0.464568
C173	C	0.534285	-0.245159	-0.285428
C174	C	0.784285	0.004841	-0.035428
C175	C	1.034285	0.254841	0.214572
C176	C	1.284285	0.504841	0.464572
C177	C	0.534264	-0.187809	-0.218458
C178	C	0.784264	0.062191	0.031542
C179	C	1.034264	0.312191	0.281542
C180	C	1.284264	0.562191	0.531542
C181	C	0.479663	-0.187818	-0.218463
C182	C	0.729663	0.062182	0.031537
C183	C	0.979663	0.312182	0.281537
C184	C	1.229663	0.562182	0.531537
C185	C	0.452373	-0.216503	-0.251952
C186	C	0.702373	0.033497	-0.001952
C187	C	0.952373	0.283497	0.248048
C188	C	1.202373	0.533497	0.498048
O189	O	0.393273	-0.163453	-0.190023
O190	O	0.643273	0.086547	0.059977
O191	O	0.893273	0.336547	0.309977
O192	O	1.143273	0.586547	0.559977
O193	O	0.393265	-0.269578	-0.313908
O194	O	0.643265	-0.019578	-0.063908
O195	O	0.893265	0.230422	0.186092
O196	O	1.143265	0.480422	0.436092
C197	C	0.755567	-0.333693	-0.251939
C198	C	1.005567	-0.083693	-0.001939
C199	C	1.255567	0.166307	0.248061
C200	C	1.505567	0.416307	0.498061
C201	C	0.755581	-0.383627	-0.251931
C202	C	1.005581	-0.133627	-0.001931
C203	C	1.255581	0.116373	0.248069
C204	C	1.505581	0.366373	0.498069
C205	C	0.722173	-0.693277	-0.218433
C206	C	0.972173	-0.443277	0.031567
C207	C	1.222173	-0.193277	0.281567
C208	C	1.472173	0.056723	0.531567
C209	C	0.722188	-0.880951	-0.218397
C210	C	0.972188	-0.630951	0.031603
C211	C	1.222188	-0.380951	0.281603
C212	C	1.472188	-0.130951	0.531603
O213	O	0.693757	-0.905221	-0.189968
O214	O	0.943757	-0.655221	0.060032
O215	O	1.193757	-0.405221	0.310032
O216	O	1.443757	-0.155221	0.560032
N217	N	0.755606	-0.904413	-0.251833
N218	N	1.005606	-0.654413	-0.001833
N219	N	1.255606	-0.404413	0.248167
N220	N	1.505606	-0.154413	0.498167
C221	C	0.789020	-0.880954	-0.285283
C222	C	1.039020	-0.630954	-0.035283
C223	C	1.289020	-0.380954	0.214717
C224	C	1.539020	-0.130954	0.464717
O225	O	0.817441	-0.905216	-0.313725
O226	O	1.067441	-0.655216	-0.063725
O227	O	1.317441	-0.405216	0.186275
O228	O	1.567441	-0.155216	0.436275
C229	C	0.789003	-0.693282	-0.285321
C230	C	1.039003	-0.443282	-0.035321
C231	C	1.289003	-0.193282	0.214679
C232	C	1.539003	0.056718	0.464679
C233	C	0.755586	-0.669822	-0.251879
C234	C	1.005586	-0.419822	-0.001879
C235	C	1.255586	-0.169822	0.248121
C236	C	1.505586	0.080178	0.498121
C237	C	0.688759	-0.669818	-0.184994
C238	C	0.938759	-0.419818	0.065006
C239	C	1.188759	-0.169818	0.315006
C240	C	1.438759	0.080182	0.565006
C241	C	0.688757	-0.622902	-0.185002
C242	C	0.938757	-0.372902	0.064998
C243	C	1.188757	-0.122902	0.314998
C244	C	1.438757	0.127098	0.564998
C245	C	0.722170	-0.599446	-0.218448
C246	C	0.972170	-0.349446	0.031552
C247	C	1.222170	-0.099446	0.281552
C248	C	1.472170	0.150554	0.531552
C249	C	0.755585	-0.622906	-0.251887
C250	C	1.005585	-0.372906	-0.001887
C251	C	1.255585	-0.122906	0.248113
C252	C	1.505585	0.127094	0.498113
C253	C	0.822414	-0.669824	-0.318773
C254	C	1.072414	-0.419824	-0.068773
C255	C	1.322414	-0.169824	0.181227
C256	C	1.572414	0.080176	0.431227
C257	C	0.822406	-0.622903	-0.318781
C258	C	1.072406	-0.372903	-0.068781
C259	C	1.322406	-0.122903	0.181219
C260	C	1.572406	0.127097	0.431219
C261	C	0.788989	-0.599443	-0.285339
C262	C	1.038989	-0.349443	-0.035339
C263	C	1.288989	-0.099443	0.214661
C264	C	1.538989	0.150557	0.464661
C265	C	0.788996	-0.552535	-0.285340
C266	C	1.038996	-0.302535	-0.035340
C267	C	1.288996	-0.052535	0.214660
C268	C	1.538996	0.197465	0.464660
N269	N	0.755578	-0.529073	-0.251904
N270	N	1.005578	-0.279073	-0.001904
N271	N	1.255578	-0.029073	0.248096
N272	N	1.505578	0.220927	0.498096
C273	C	0.722165	-0.552529	-0.218458
C274	C	0.972165	-0.302529	0.031542
C275	C	1.222165	-0.052529	0.281542
C276	C	1.472165	0.197471	0.531542
C277	C	0.789028	-0.979485	-0.285259
C278	C	1.039028	-0.729485	-0.035259
C279	C	1.289028	-0.479485	0.214741
C280	C	1.539028	-0.229485	0.464741
C281	C	0.789033	-1.026402	-0.285249
C282	C	1.039033	-0.776402	-0.035249
C283	C	1.289033	-0.526402	0.214751
C284	C	1.539033	-0.276402	0.464751
C285	C	0.722200	-1.026396	-0.218364
C286	C	0.972200	-0.776396	0.031636
C287	C	1.222200	-0.526396	0.281636
C288	C	1.472200	-0.276396	0.531636
C289	C	0.722198	-0.979477	-0.218372
C290	C	0.972198	-0.729477	0.031628
C291	C	1.222198	-0.479477	0.281628
C292	C	1.472198	-0.229477	0.531628
C293	C	0.755610	-0.956022	-0.251823
C294	C	1.005610	-0.706022	-0.001823
C295	C	1.255610	-0.456022	0.248177
C296	C	1.505610	-0.206022	0.498177
C297	C	0.722165	-0.454003	-0.218476
C298	C	0.972165	-0.204003	0.031524
C299	C	1.222165	0.045997	0.281524
C300	C	1.472165	0.295997	0.531524
C301	C	0.722168	-0.407083	-0.218485
C302	C	0.972168	-0.157083	0.031515
C303	C	1.222168	0.092917	0.281515
C304	C	1.472168	0.342917	0.531515
C305	C	0.789000	-0.407094	-0.285372
C306	C	1.039000	-0.157094	-0.035372
C307	C	1.289000	0.092906	0.214628
C308	C	1.539000	0.342906	0.464628
C309	C	0.788999	-0.454009	-0.285361
C310	C	1.038999	-0.204009	-0.035361
C311	C	1.288999	0.045991	0.214639
C312	C	1.538999	0.295991	0.464639
C313	C	0.755577	-0.477463	-0.251911
C314	C	1.005577	-0.227463	-0.001911
C315	C	1.255577	0.022537	0.248089
C316	C	1.505577	0.272537	0.498089
O317	O	0.817408	-0.528236	-0.313758
O318	O	1.067408	-0.278236	-0.063758
O319	O	1.317408	-0.028236	0.186242
O320	O	1.567408	0.221764	0.436242
O321	O	0.693740	-0.528258	-0.190028
O322	O	0.943740	-0.278258	0.059972
O323	O	1.193740	-0.028258	0.309972
O324	O	1.443740	0.221742	0.559972
C325	C	0.722174	-0.740193	-0.218426
C326	C	0.972174	-0.490193	0.031574
C327	C	1.222174	-0.240193	0.281574
C328	C	1.472174	0.009807	0.531574
C329	C	0.755589	-0.763653	-0.251864
C330	C	1.005589	-0.513653	-0.001864
C331	C	1.255589	-0.263653	0.248136
C332	C	1.505589	-0.013653	0.498136
C333	C	0.789002	-0.740197	-0.285311
C334	C	1.039002	-0.490197	-0.035311
C335	C	1.289002	-0.240197	0.214689
C336	C	1.539002	0.009803	0.464689
C337	C	0.755594	-0.810571	-0.251854
C338	C	1.005594	-0.560571	-0.001854
C339	C	1.255594	-0.310571	0.248146
C340	C	1.505594	-0.060571	0.498146
C341	C	0.722181	-0.834026	-0.218408
C342	C	0.972181	-0.584026	0.031592
C343	C	1.222181	-0.334026	0.281592
C344	C	1.472181	-0.084026	0.531592
C345	C	0.688763	-0.810564	-0.184972
C346	C	0.938763	-0.560564	0.065028
C347	C	1.188763	-0.310564	0.315028
C348	C	1.438763	-0.060564	0.565028
C349	C	0.688761	-0.763648	-0.184979
C350	C	0.938761	-0.513648	0.065021
C351	C	1.188761	-0.263648	0.315021
C352	C	1.438761	-0.013648	0.565021
C353	C	0.822420	-0.763659	-0.318747
C354	C	1.072420	-0.513659	-0.068747
C355	C	1.322420	-0.263659	0.181253
C356	C	1.572420	-0.013659	0.431253
C357	C	0.822419	-0.810575	-0.318736
C358	C	1.072419	-0.560575	-0.068736
C359	C	1.322419	-0.310575	0.181264
C360	C	1.572419	-0.060575	0.431264
C361	C	0.789006	-0.834031	-0.285290
C362	C	1.039006	-0.584031	-0.035290
C363	C	1.289006	-0.334031	0.214710
C364	C	1.539006	-0.084031	0.464710
C365	C	0.891908	-0.216545	-0.251980
C366	C	1.141908	0.033455	-0.001980
C367	C	1.391908	0.283455	0.248020
C368	C	1.641908	0.533455	0.498020
C369	C	0.950022	-0.216559	-0.251989
C370	C	1.200022	0.033441	-0.001989
C371	C	1.450022	0.283441	0.248011
C372	C	1.700022	0.533441	0.498011
C373	C	0.755461	-0.216479	-0.387802
C374	C	1.005461	0.033521	-0.137802
C375	C	1.255461	0.283521	0.112198
C376	C	1.505461	0.533521	0.362198
C377	C	0.755477	-0.216479	-0.445916
C378	C	1.005477	0.033521	-0.195916
C379	C	1.255477	0.283521	0.054084
C380	C	1.505477	0.533521	0.304084
C381	C	0.755533	-0.099792	-0.251942
C382	C	1.005533	0.150208	-0.001942
C383	C	1.255533	0.400208	0.248058
C384	C	1.505533	0.650208	0.498058
C385	C	0.755620	-0.049858	-0.251803
C386	C	1.005620	0.200142	-0.001803
C387	C	1.255620	0.450142	0.248197
C388	C	1.505620	0.700142	0.498197
C389	C	0.789000	-0.245308	-0.806241
C390	C	1.039000	0.004692	-0.556241
C391	C	1.289000	0.254692	-0.306241
C392	C	1.539000	0.504692	-0.056241
C393	C	0.789015	-0.245317	-0.860845
C394	C	1.039015	0.004683	-0.610845
C395	C	1.289015	0.254683	-0.360845
C396	C	1.539015	0.504683	-0.110845
O397	O	0.817430	-0.269791	-0.889049
O398	O	1.067430	-0.019791	-0.639049
O399	O	1.317430	0.230209	-0.389049
O400	O	1.567430	0.480209	-0.139049
N401	N	0.755608	-0.216558	-0.888198
N402	N	1.005608	0.033442	-0.638198
N403	N	1.255608	0.283442	-0.388198
N404	N	1.505608	0.533442	-0.138198
C405	C	0.722179	-0.187792	-0.860945
C406	C	0.972179	0.062208	-0.610945
C407	C	1.222179	0.312208	-0.360945
C408	C	1.472179	0.562208	-0.110945
O409	O	0.693764	-0.163331	-0.889225
O410	O	0.943764	0.086669	-0.639225
O411	O	1.193764	0.336669	-0.389225
O412	O	1.443764	0.586669	-0.139225
C413	C	0.722161	-0.187785	-0.806341
C414	C	0.972161	0.062215	-0.556341
C415	C	1.222161	0.312215	-0.306341
C416	C	1.472161	0.562215	-0.056341
C417	C	0.755575	-0.216542	-0.778991
C418	C	1.005575	0.033458	-0.528991
C419	C	1.255575	0.283458	-0.278991
C420	C	1.505575	0.533458	-0.028991
C421	C	0.822410	-0.274063	-0.778890
C422	C	1.072410	-0.024063	-0.528890
C423	C	1.322410	0.225937	-0.278890
C424	C	1.572410	0.475937	-0.028890
C425	C	0.822396	-0.274053	-0.724290
C426	C	1.072396	-0.024053	-0.474290
C427	C	1.322396	0.225947	-0.224290
C428	C	1.572396	0.475947	0.025710
C429	C	0.788970	-0.245288	-0.697040
C430	C	1.038970	0.004712	-0.447040
C431	C	1.288970	0.254712	-0.197040
C432	C	1.538970	0.504712	0.052960
C433	C	0.755560	-0.216533	-0.724390
C434	C	1.005560	0.033467	-0.474390
C435	C	1.255560	0.283467	-0.224390
C436	C	1.505560	0.533467	0.025610
C437	C	0.688730	-0.159021	-0.779088
C438	C	0.938730	0.090979	-0.529088
C439	C	1.188730	0.340979	-0.279088
C440	C	1.438730	0.590979	-0.029088
C441	C	0.688714	-0.159017	-0.724481
C442	C	0.938714	0.090983	-0.474481
C443	C	1.188714	0.340983	-0.224481
C444	C	1.438714	0.590983	0.025519
C445	C	0.722128	-0.187775	-0.697131
C446	C	0.972128	0.062225	-0.447131
C447	C	1.222128	0.312225	-0.197131
C448	C	1.472128	0.562225	0.052869
C449	C	0.722119	-0.187758	-0.642540
C450	C	0.972119	0.062242	-0.392540
C451	C	1.222119	0.312242	-0.142540
C452	C	1.472119	0.562242	0.107460
N453	N	0.755527	-0.216516	-0.615186
N454	N	1.005527	0.033484	-0.365186
N455	N	1.255527	0.283484	-0.115186
N456	N	1.505527	0.533484	0.134814
C457	C	0.788953	-0.245281	-0.642436
C458	C	1.038953	0.004719	-0.392436
C459	C	1.288953	0.254719	-0.142436
C460	C	1.538953	0.504719	0.107564
C461	C	0.722218	-0.187808	-0.975615
C462	C	0.972218	0.062192	-0.725615
C463	C	1.222218	0.312192	-0.475615
C464	C	1.472218	0.562192	-0.225615
C465	C	0.722237	-0.187812	-1.030217
C466	C	0.972237	0.062188	-0.780217
C467	C	1.222237	0.312188	-0.530217
C468	C	1.472237	0.562188	-0.280217
C469	C	0.789074	-0.245338	-1.030114
C470	C	1.039074	0.004662	-0.780114
C471	C	1.289074	0.254662	-0.530114
C472	C	1.539074	0.504662	-0.280114
C473	C	0.789056	-0.245331	-0.975511
C474	C	1.039056	0.004669	-0.725511
C475	C	1.289056	0.254669	-0.475511
C476	C	1.539056	0.504669	-0.225511
C477	C	0.755625	-0.216567	-0.948262
C478	C	1.005625	0.033433	-0.698262
C479	C	1.255625	0.283433	-0.448262
C480	C	1.505625	0.533433	-0.198262
C481	C	0.788919	-0.245258	-0.527771
C482	C	1.038919	0.004742	-0.277771
C483	C	1.288919	0.254742	-0.027771
C484	C	1.538919	0.504742	0.222229
C485	C	0.788903	-0.245245	-0.473166
C486	C	1.038903	0.004755	-0.223166
C487	C	1.288903	0.254755	0.026834
C488	C	1.538903	0.504755	0.276834
C489	C	0.722065	-0.187721	-0.473274
C490	C	0.972065	0.062279	-0.223274
C491	C	1.222065	0.312279	0.026726
C492	C	1.472065	0.562279	0.276726
C493	C	0.722083	-0.187732	-0.527875
C494	C	0.972083	0.062268	-0.277875
C495	C	1.222083	0.312268	-0.027875
C496	C	1.472083	0.562268	0.222125
C497	C	0.755512	-0.216505	-0.555122
C498	C	1.005512	0.033495	-0.305122
C499	C	1.255512	0.283495	-0.055122
C500	C	1.505512	0.533495	0.194878
O501	O	0.693718	-0.163297	-0.614301
O502	O	0.943718	0.086703	-0.364301
O503	O	1.193718	0.336703	-0.114301
O504	O	1.443718	0.586703	0.135699
O505	O	0.817358	-0.269742	-0.614150
O506	O	1.067358	-0.019742	-0.364150
O507	O	1.317358	0.230258	-0.114150
O508	O	1.567358	0.480258	0.135850
C509	C	0.755623	-0.216560	-0.115586
C510	C	1.005623	0.033440	0.134414
C511	C	1.255623	0.283440	0.384414
C512	C	1.505623	0.533440	0.634414
C513	C	0.755661	-0.216579	-0.057472
C514	C	1.005661	0.033421	0.192528
C515	C	1.255661	0.283421	0.442528
C516	C	1.505661	0.533421	0.692528
H517	H	0.694956	-0.387984	-0.191250
H518	H	0.944956	-0.137984	0.058750
H519	H	1.194956	0.112016	0.308750
H520	H	1.444956	0.362016	0.558750
H521	H	0.816215	-0.473111	-0.312586
H522	H	1.066215	-0.223111	-0.062586
H523	H	1.316215	0.026889	0.187414
H524	H	1.566215	0.276889	0.437414
O525	O	0.858467	-0.835873	-0.354808
O526	O	1.108467	-0.585873	-0.104808
O527	O	1.358467	-0.335873	0.145192
O528	O	1.608467	-0.085873	0.395192
H529	H	0.852861	-0.872440	-0.349186
H530	H	1.102861	-0.622440	-0.099186
H531	H	1.352861	-0.372440	0.150814
H532	H	1.602861	-0.122440	0.400814
H533	H	0.305318	-0.135833	-0.157709
H534	H	0.555318	0.114167	0.092291
H535	H	0.805318	0.364167	0.342291
H536	H	1.055318	0.614167	0.592291
H537	H	0.556517	-0.268508	-0.312698
H538	H	0.806517	-0.018508	-0.062698
H539	H	1.056517	0.231492	0.187302
H540	H	1.306517	0.481492	0.437302
O541	O	0.825093	-0.276350	-0.946014
O542	O	1.075093	-0.026350	-0.696014
O543	O	1.325093	0.223650	-0.446014
O544	O	1.575093	0.473650	-0.196014
H545	H	0.851702	-0.256263	-0.921134
H546	H	1.101702	-0.006263	-0.671134
H547	H	1.351702	0.243737	-0.421134
H548	H	1.601702	0.493737	-0.171134
H549	H	0.816290	-0.268761	-1.052311
H550	H	1.066290	-0.018761	-0.802311
H551	H	1.316290	0.231239	-0.552311
H552	H	1.566290	0.481239	-0.302311
H553	H	0.694852	-0.164299	-0.451078
H554	H	0.944852	0.085701	-0.201078
H555	H	1.194852	0.335701	0.048922
H556	H	1.444852	0.585701	0.298922
H557	H	-0.044909	-0.164527	-0.191243
H558	H	0.205091	0.085473	0.058757
H559	H	0.455091	0.335473	0.308757
H560	H	0.705091	0.585473	0.558757
O561	O	0.686157	-0.954175	-0.182302
O562	O	0.936157	-0.704175	0.067698
O563	O	1.186157	-0.454175	0.317698
O564	O	1.436157	-0.204175	0.567698
H565	H	0.645117	-0.963163	-0.191261
H566	H	0.895117	-0.713163	0.058739
H567	H	1.145117	-0.463163	0.308739
H568	H	1.395117	-0.213163	0.558739
H569	H	0.661550	-0.744552	-0.157747
H570	H	0.911550	-0.494552	0.092253
H571	H	1.161550	-0.244552	0.342253
H572	H	1.411550	0.005448	0.592253
H573	H	0.457467	-0.268530	-0.312701
H574	H	0.707467	-0.018530	-0.062701
H575	H	0.957467	0.231470	0.187299
H576	H	1.207467	0.481470	0.437299
H577	H	0.661489	-0.135594	-0.702298
H578	H	0.911489	0.114406	-0.452298
H579	H	1.161489	0.364406	-0.202298
H580	H	1.411489	0.614406	0.047702
O581	O	0.061359	-0.156934	-0.182387
O582	O	0.311359	0.093066	0.067613
O583	O	0.561359	0.343066	0.317613
O584	O	0.811359	0.593066	0.567613
H585	H	0.033190	-0.136994	-0.159115
H586	H	0.283190	0.113006	0.090885
H587	H	0.533190	0.363006	0.340885
H588	H	0.783190	0.613006	0.590885
H589	H	0.849625	-0.688917	-0.346006
H590	H	1.099625	-0.438917	-0.096006
H591	H	1.349625	-0.188917	0.153994
H592	H	1.599625	0.061083	0.403994
O593	O	0.652689	-0.128004	-0.808578
O594	O	0.902689	0.121996	-0.558578
O595	O	1.152689	0.371996	-0.308578
O596	O	1.402689	0.621996	-0.058578
H597	H	0.626084	-0.148090	-0.833462
H598	H	0.876084	0.101910	-0.583462
H599	H	1.126084	0.351910	-0.333462
H600	H	1.376084	0.601910	-0.083462
H601	H	0.849627	-0.744567	-0.345985
H602	H	1.099627	-0.494567	-0.095985
H603	H	1.349627	-0.244567	0.154015
H604	H	1.599627	0.005433	0.404015
O605	O	0.563706	-0.156877	-0.182344
O606	O	0.813706	0.093123	0.067656
O607	O	1.063706	0.343123	0.317656
O608	O	1.313706	0.593123	0.567656
H609	H	0.553248	-0.164650	-0.141323
H610	H	0.803248	0.085350	0.108677
H611	H	1.053248	0.335350	0.358677
H612	H	1.303248	0.585350	0.608677
H613	H	0.816114	-0.268662	-0.450899
H614	H	1.066114	-0.018662	-0.200899
H615	H	1.316114	0.231338	0.049101
H616	H	1.566114	0.481338	0.299101
O617	O	0.652730	-0.835866	-0.148890
O618	O	0.902730	-0.585866	0.101110
O619	O	1.152730	-0.335866	0.351110
O620	O	1.402730	-0.085866	0.601110
H621	H	0.658349	-0.872431	-0.154507
H622	H	0.908349	-0.622431	0.095493
H623	H	1.158349	-0.372431	0.345493
H624	H	1.408349	-0.122431	0.595493
H625	H	0.816137	-0.268691	-0.549950
H626	H	1.066137	-0.018691	-0.299950
H627	H	1.316137	0.231309	-0.049950
H628	H	1.566137	0.481309	0.200050
H629	H	0.816237	-0.960392	-0.312502
H630	H	1.066237	-0.710392	-0.062502
H631	H	1.316237	-0.460392	0.187498
H632	H	1.566237	-0.210392	0.437498
O633	O	-0.052109	-0.276113	-0.321649
O634	O	0.197891	-0.026113	-0.071649
O635	O	0.447891	0.223887	0.178351
O636	O	0.697891	0.473887	0.428351
H637	H	-0.023951	-0.296031	-0.344957
H638	H	0.226049	-0.046031	-0.094957
H639	H	0.476049	0.203969	0.155043
H640	H	0.726049	0.453969	0.405043
H641	H	0.849618	-0.603808	-0.346018
H642	H	1.099618	-0.353808	-0.096018
H643	H	1.349618	-0.103808	0.153982
H644	H	1.599618	0.146192	0.403982
H645	H	0.816205	-0.387988	-0.312601
H646	H	1.066205	-0.137988	-0.062601
H647	H	1.316205	0.112012	0.187399
H648	H	1.566205	0.362012	0.437399
H649	H	0.694996	-0.164381	-0.953432
H650	H	0.944996	0.085619	-0.703432
H651	H	1.194996	0.335619	-0.453432
H652	H	1.444996	0.585619	-0.203432
O653	O	0.825075	-1.051700	-0.321322
O654	O	1.075075	-0.801700	-0.071322
O655	O	1.325075	-0.551700	0.178678
O656	O	1.575075	-0.301700	0.428678
H657	H	0.866115	-1.042708	-0.312371
H658	H	1.116115	-0.792708	-0.062371
H659	H	1.366115	-0.542708	0.187629
H660	H	1.616115	-0.292708	0.437629
O661	O	0.686047	-0.156716	-0.557379
O662	O	0.936047	0.093284	-0.307379
O663	O	1.186047	0.343284	-0.057379
O664	O	1.436047	0.593284	0.192621
H665	H	0.662800	-0.136714	-0.529255
H666	H	0.912800	0.113286	-0.279255
H667	H	1.162800	0.363286	-0.029255
H668	H	1.412800	0.613286	0.220745
H669	H	0.206268	-0.135836	-0.157721
H670	H	0.456268	0.114164	0.092279
H671	H	0.706268	0.364164	0.342279
H672	H	0.956268	0.614164	0.592279
H673	H	0.457428	-0.164471	-0.191197
H674	H	0.707428	0.085529	0.058803
H675	H	0.957428	0.335529	0.308803
H676	H	1.207428	0.585529	0.558803
O677	O	0.686124	-0.479296	-0.182394
O678	O	0.936124	-0.229296	0.067606
O679	O	1.186124	0.020704	0.317606
O680	O	1.436124	0.270704	0.567606
H681	H	0.662896	-0.455094	-0.159142
H682	H	0.912896	-0.205094	0.090858
H683	H	1.162896	0.044906	0.340858
H684	H	1.412896	0.294906	0.590858
H685	H	0.305347	-0.297220	-0.346198
H686	H	0.555347	-0.047220	-0.096198
H687	H	0.805347	0.202780	0.153802
H688	H	1.055347	0.452780	0.403802
O689	O	0.652718	-0.597601	-0.148930
O690	O	0.902718	-0.347601	0.101070
O691	O	1.152718	-0.097601	0.351070
O692	O	1.402718	0.152399	0.601070
H693	H	0.629486	-0.621800	-0.125676
H694	H	0.879486	-0.371800	0.124324
H695	H	1.129486	-0.121800	0.374324
H696	H	1.379486	0.128200	0.624324
H697	H	0.849602	-0.297471	-0.702024
H698	H	1.099602	-0.047471	-0.452024
H699	H	1.349602	0.202529	-0.202024
H700	H	1.599602	0.452529	0.047976
H701	H	0.661547	-0.688910	-0.157758
H702	H	0.911547	-0.438910	0.092242
H703	H	1.161547	-0.188910	0.342242
H704	H	1.411547	0.061090	0.592242
O705	O	0.686202	-0.156793	-1.059715
O706	O	0.936202	0.093207	-0.809715
O707	O	1.186202	0.343207	-0.559715
O708	O	1.436202	0.593207	-0.309715
H709	H	0.662956	-0.136793	-1.031588
H710	H	0.912956	0.113207	-0.781588
H711	H	1.162956	0.363207	-0.531588
H712	H	1.412956	0.613207	-0.281588
H713	H	0.694995	-1.045501	-0.191129
H714	H	0.944995	-0.795501	0.058871
H715	H	1.194995	-0.545501	0.308871
H716	H	1.444995	-0.295501	0.558871
H717	H	0.054170	-0.268575	-0.312735
H718	H	0.304170	-0.018575	-0.062735
H719	H	0.554170	0.231425	0.187265
H720	H	0.804170	0.481425	0.437265
O721	O	0.199084	-0.304761	-0.355113
O722	O	0.449084	-0.054761	-0.105113
O723	O	0.699084	0.195239	0.144887
O724	O	0.949084	0.445239	0.394887
H725	H	0.227255	-0.324672	-0.378415
H726	H	0.477255	-0.074672	-0.128415
H727	H	0.727255	0.175328	0.121585
H728	H	0.977255	0.425328	0.371585
O729	O	0.858467	-0.305089	-0.808278
O730	O	1.108467	-0.055089	-0.558278
O731	O	1.358467	0.194911	-0.308278
O732	O	1.608467	0.444911	-0.058278
H733	H	0.881695	-0.325078	-0.780077
H734	H	1.131695	-0.075078	-0.530077
H735	H	1.381695	0.174922	-0.280077
H736	H	1.631695	0.424922	-0.030077
