data_functionalizedCrystal
_audit_creation_method	'MofGen! by Chris Wilmer'
_symmetry_space_group_name_H-M	'P1'
_symmetry_Int_Tables_number	1
_symmetry_cell_setting	triclinic
loop_
_symmetry_equiv_pos_as_xyz
  x,y,z
_cell_length_a	10.685976
_cell_length_b	16.625545
_cell_length_c	10.686551
_cell_angle_alpha	85.592661
_cell_angle_beta	89.651515
_cell_angle_gamma	85.662406
loop_
_atom_site_label
_atom_site_type_symbol
_atom_site_fract_x
_atom_site_fract_y
_atom_site_fract_z
Zn1	Zn	1.972091	-0.389889	-0.561864
Zn2	Zn	1.955820	-0.534236	-0.352104
Zn3	Zn	1.746220	-0.388375	-0.368240
Zn4	Zn	1.762265	-0.513629	-0.577932
O5	O	1.859099	-0.456532	-0.465035
O6	O	2.145465	-0.418295	-0.520562
O7	O	1.914492	-0.522878	-0.178702
O8	O	1.776276	-0.275746	-0.393953
O9	O	2.133511	-0.524346	-0.366452
O10	O	1.942223	-0.276859	-0.536209
O11	O	1.760499	-0.415714	-0.190557
O12	O	1.572816	-0.395732	-0.409533
O13	O	1.803623	-0.489224	-0.751343
O14	O	1.584604	-0.487756	-0.563593
O15	O	1.957782	-0.398313	-0.739538
O16	O	1.930050	-0.644332	-0.382031
O17	O	1.787846	-0.629192	-0.547946
C18	C	1.533197	-0.439344	-0.490058
C19	C	1.393777	-0.432009	-0.500793
C20	C	1.858960	-0.666018	-0.465006
C21	C	1.859018	-0.755641	-0.465027
C22	C	1.859069	-0.828424	-0.465048
C23	C	1.859144	-0.919735	-0.465070
C24	C	1.859210	-0.992515	-0.465081
C25	C	1.859284	-1.083831	-0.465101
C26	C	2.186274	-0.473788	-0.439915
C27	C	2.325696	-0.481141	-0.429210
C28	C	1.884307	-0.441639	-0.792229
C29	C	1.895049	-0.435292	-0.931660
C30	C	1.859275	-0.246229	-0.465089
C31	C	1.859350	-0.156611	-0.465112
C32	C	1.834061	-0.471313	-0.139108
C33	C	1.823562	-0.477445	0.000341
H34	H	1.374076	-0.528825	-0.359711
C35	C	2.052751	-0.342296	-0.906623
C36	C	1.988779	-0.380015	-0.997062
H37	H	2.110619	-0.308176	-0.947002
H38	H	1.994232	-0.310873	-0.859727
H39	H	2.096805	-0.382264	-0.851818
H40	H	1.944717	-0.340047	-1.051862
H41	H	2.047307	-0.411440	-1.043980
C42	C	1.259339	-0.405626	-0.680783
C43	C	1.328481	-0.367645	-0.594621
H44	H	1.219018	-0.365889	-0.738704
H45	H	1.314139	-0.441274	-0.724777
H46	H	1.197955	-0.435465	-0.637300
H47	H	1.389872	-0.337811	-0.638104
H48	H	1.273677	-0.331984	-0.550623
C49	C	1.794821	-0.591613	-0.853464
C50	C	1.729844	-0.532721	-0.934252
H51	H	1.736960	-0.625734	-0.813073
H52	H	1.853323	-0.623035	-0.900381
H53	H	1.838228	-0.566007	-0.792135
H54	H	1.686444	-0.558327	-0.995588
H55	H	1.671319	-0.501295	-0.887332
