data_functionalizedCrystal
_audit_creation_method	'MofGen! by Chris Wilmer'
_symmetry_space_group_name_H-M	'P1'
_symmetry_Int_Tables_number	1
_symmetry_cell_setting	triclinic
loop_
_symmetry_equiv_pos_as_xyz
  x,y,z
_cell_length_a	16.959454
_cell_length_b	19.805407
_cell_length_c	19.805399
_cell_angle_alpha	89.980427
_cell_angle_beta	90.017367
_cell_angle_gamma	89.999010
loop_
_atom_site_label
_atom_site_type_symbol
_atom_site_fract_x
_atom_site_fract_y
_atom_site_fract_z
Zn1	Zn	0.314700	1.034855	-0.382768
Zn2	Zn	0.814700	1.534855	0.117232
Zn3	Zn	0.446882	1.034820	-0.269600
Zn4	Zn	0.946882	1.534820	0.230400
Zn5	Zn	0.314722	0.921670	-0.269592
Zn6	Zn	0.814722	1.421670	0.230408
Zn7	Zn	0.446840	0.921684	-0.382746
Zn8	Zn	0.946840	1.421684	0.117254
O9	O	0.380786	0.978257	-0.326177
O10	O	0.880786	1.478257	0.173823
O11	O	0.332243	1.129567	-0.367768
O12	O	0.832243	1.629567	0.132232
O13	O	0.429378	1.019790	-0.174882
O14	O	0.929378	1.519790	0.325118
O15	O	0.204108	0.936693	-0.284611
O16	O	0.704108	1.436693	0.215389
O17	O	0.429356	1.129542	-0.284624
O18	O	0.929356	1.629542	0.215376
O19	O	0.204092	1.019850	-0.367761
O20	O	0.704092	1.519850	0.132239
O21	O	0.332280	0.936659	-0.174877
O22	O	0.832280	1.436659	0.325123
O23	O	0.332239	0.826955	-0.284590
O24	O	0.832239	1.326955	0.215410
O25	O	0.429285	0.936716	-0.477466
O26	O	0.929285	1.436716	0.022534
O27	O	0.429306	0.826965	-0.367724
O28	O	0.929306	1.326965	0.132276
O29	O	0.332202	1.019863	-0.477482
O30	O	0.832202	1.519863	0.022518
O31	O	0.557487	1.019804	-0.284603
O32	O	1.057487	1.519804	0.215397
O33	O	0.557457	0.936683	-0.367731
O34	O	1.057457	1.436683	0.132269
C35	C	0.380771	0.802401	-0.326155
C36	C	0.880771	1.302401	0.173845
C37	C	0.380783	0.727169	-0.326161
C38	C	0.880783	1.227169	0.173839
C39	C	0.174618	0.978274	-0.326187
C40	C	0.674618	1.478274	0.173813
C41	C	0.086761	0.978281	-0.326192
C42	C	0.586761	1.478281	0.173808
C43	C	0.431402	0.691848	-0.369379
C44	C	0.931402	1.191848	0.130621
C45	C	0.431404	0.621160	-0.369389
C46	C	0.931404	1.121160	0.130611
C47	C	0.380790	0.585794	-0.326177
C48	C	0.880790	1.085794	0.173823
C49	C	0.330165	0.621120	-0.282957
C50	C	0.830165	1.121120	0.217043
C51	C	0.330160	0.691807	-0.282951
C52	C	0.830160	1.191807	0.217049
C53	C	0.330183	0.336047	-0.282979
C54	C	0.830183	0.836047	0.217021
C55	C	0.330193	0.265354	-0.282987
C56	C	0.830193	0.765354	0.217013
C57	C	0.431426	0.265399	-0.369417
C58	C	0.931426	0.765399	0.130583
C59	C	0.431421	0.336086	-0.369411
C60	C	0.931421	0.836086	0.130589
C61	C	0.380794	0.371406	-0.326194
C62	C	0.880794	0.871406	0.173806
C63	C	0.380792	0.448055	-0.326185
C64	C	0.880792	0.948055	0.173815
C65	C	0.380795	0.509147	-0.326182
C66	C	0.880795	1.009147	0.173818
C67	C	-0.284725	1.021614	-0.369496
C68	C	0.215275	1.521614	0.130504
C69	C	-0.284704	0.935022	-0.282911
C70	C	0.215296	1.435022	0.217089
C71	C	-0.202158	0.935013	-0.282909
C72	C	0.297842	1.435013	0.217091
C73	C	-0.160892	0.978305	-0.326200
C74	C	0.339108	1.478305	0.173800
C75	C	-0.202172	1.021607	-0.369493
C76	C	0.297828	1.521607	0.130507
C77	C	-0.160872	0.891716	-0.239611
C78	C	0.339128	1.391716	0.260389
C79	C	-0.078321	0.891705	-0.239607
C80	C	0.421679	1.391705	0.260393
C81	C	-0.037053	0.934994	-0.282901
C82	C	0.462947	1.434994	0.217099
C83	C	-0.078338	0.978298	-0.326197
C84	C	0.421662	1.478298	0.173803
C85	C	-0.037072	1.021590	-0.369488
C86	C	0.462928	1.521590	0.130512
C87	C	-0.078356	1.064891	-0.412788
C88	C	0.421644	1.564891	0.087212
C89	C	-0.160904	1.064897	-0.412788
C90	C	0.339096	1.564897	0.087212
C91	C	0.045495	0.934989	-0.282901
C92	C	0.545495	1.434989	0.217099
C93	C	0.045481	1.021583	-0.369485
C94	C	0.545481	1.521583	0.130515
C95	C	0.586152	0.978259	-0.326180
C96	C	1.086152	1.478259	0.173820
C97	C	0.674009	0.978322	-0.326205
C98	C	1.174009	1.478322	0.173795
C99	C	0.380736	0.978295	-0.502719
C100	C	0.880736	1.478295	-0.002719
C101	C	0.380715	0.978311	-0.577951
C102	C	0.880715	1.478311	-0.077951
C103	C	0.380802	1.154800	-0.326199
C104	C	0.880802	1.654800	0.173801
C105	C	0.380808	1.230032	-0.326208
C106	C	0.880808	1.730032	0.173792
C107	C	0.330161	1.021607	-0.613305
C108	C	0.830161	1.521607	-0.113305
C109	C	0.330138	1.021614	-0.683993
C110	C	0.830138	1.521614	-0.183993
C111	C	0.380674	0.978328	-0.719327
C112	C	0.880674	1.478328	-0.219327
C113	C	0.431230	0.935028	-0.683969
C114	C	0.931230	1.435028	-0.183969
C115	C	0.431248	0.935018	-0.613281
C116	C	0.931248	1.435018	-0.113281
C117	C	0.431156	0.935066	-0.969042
C118	C	0.931156	1.435066	-0.469042
C119	C	0.431135	0.935081	-1.039734
C120	C	0.931135	1.435081	-0.539734
C121	C	0.330046	1.021662	-1.039754
C122	C	0.830046	1.521662	-0.539754
C123	C	0.330065	1.021652	-0.969067
C124	C	0.830065	1.521652	-0.469067
C125	C	0.380617	0.978350	-0.933714
C126	C	0.880617	1.478350	-0.433714
C127	C	0.380640	0.978342	-0.857066
C128	C	0.880640	1.478342	-0.357066
C129	C	0.380655	0.978339	-0.795974
C130	C	0.880655	1.478339	-0.295974
C131	C	0.380778	0.978258	-0.150321
C132	C	0.880778	1.478258	0.349679
C133	C	0.380577	0.978373	-0.075089
C134	C	0.880577	1.478373	0.424911
H135	H	0.472621	0.720638	-0.404565
H136	H	0.972621	1.220638	0.095435
F137	F	0.276378	1.067682	-0.575706
F138	F	0.776378	1.567682	-0.075706
F139	F	0.276299	0.373628	-0.236986
F140	F	0.776299	0.873628	0.263014
H141	H	0.472623	0.592404	-0.404580
H142	H	0.972623	1.092404	0.095420
F143	F	0.485052	0.888935	-0.575656
F144	F	0.985052	1.388935	-0.075656
F145	F	-0.328624	0.888954	-0.236837
F146	F	0.171376	1.388954	0.263163
F147	F	0.485308	0.227804	-0.415413
F148	F	0.985308	0.727804	0.084587
H149	H	-0.044746	1.100142	-0.448032
H150	H	0.455254	1.600142	0.051968
F151	F	0.484958	0.888980	-0.931427
F152	F	0.984958	1.388980	-0.431427
H153	H	-0.318340	1.056867	-0.404752
H154	H	0.181660	1.556867	0.095248
F155	F	-0.204793	0.845648	-0.193539
F156	F	0.295207	1.345648	0.306461
F157	F	0.485294	0.373722	-0.415400
F158	F	0.985294	0.873722	0.084600
H159	H	0.472373	0.899782	-0.712743
H160	H	0.972373	1.399782	-0.212743
H161	H	0.288916	1.056902	-0.940301
H162	H	0.788916	1.556902	-0.440301
F163	F	-0.204846	1.110973	-0.458869
F164	F	0.295154	1.610973	0.041131
F165	F	0.276293	0.583479	-0.236971
F166	F	0.776293	1.083479	0.263029
F167	F	0.276319	0.227717	-0.236993
F168	F	0.776319	0.727717	0.263007
F169	F	0.089393	1.067658	-0.415566
F170	F	0.589393	1.567658	0.084434
F171	F	0.484924	0.889007	-1.077338
F172	F	0.984924	1.389007	-0.577338
F173	F	-0.034391	0.845620	-0.193526
F174	F	0.465609	1.345620	0.306474
F175	F	0.276241	1.067746	-1.077384
F176	F	0.776241	1.567746	-0.577384
F177	F	0.276283	0.729398	-0.236954
F178	F	0.776283	1.229398	0.263046
H179	H	0.079105	0.899736	-0.247645
H180	H	0.579105	1.399736	0.252355
F181	F	0.276359	1.067718	-0.721616
F182	F	0.776359	1.567718	-0.221616
