data_functionalizedCrystal
_audit_creation_method	'MofGen! by Chris Wilmer'
_symmetry_space_group_name_H-M	'P1'
_symmetry_Int_Tables_number	1
_symmetry_cell_setting	triclinic
loop_
_symmetry_equiv_pos_as_xyz
  x,y,z
_cell_length_a	11.169417
_cell_length_b	12.759399
_cell_length_c	11.169409
_cell_angle_alpha	90.032637
_cell_angle_beta	90.019513
_cell_angle_gamma	90.016995
loop_
_atom_site_label
_atom_site_type_symbol
_atom_site_fract_x
_atom_site_fract_y
_atom_site_fract_z
Zn1	Zn	1.834917	-0.418146	0.678530
Zn2	Zn	1.834788	-0.593872	0.477846
Zn3	Zn	1.634203	-0.418211	0.477866
Zn4	Zn	1.634192	-0.593788	0.678492
O5	O	1.734525	-0.506004	0.578184
O6	O	2.002850	-0.441465	0.651917
O7	O	1.808130	-0.570633	0.309899
O8	O	1.660887	-0.271182	0.504508
O9	O	2.002755	-0.570570	0.504475
O10	O	1.808351	-0.271134	0.651936
O11	O	1.660762	-0.441576	0.309913
O12	O	1.466252	-0.441494	0.504471
O13	O	1.660868	-0.570426	0.846447
O14	O	1.466244	-0.570489	0.651871
O15	O	1.808340	-0.441383	0.846475
O16	O	1.808119	-0.740882	0.504438
O17	O	1.660742	-0.740820	0.651852
C18	C	1.422700	-0.505990	0.578170
C19	C	1.289300	-0.506009	0.578192
C20	C	1.734448	-0.778972	0.578165
C21	C	1.734525	-0.895748	0.578197
C22	C	1.657774	-0.950616	0.654900
C23	C	1.657849	-1.060340	0.654922
C24	C	1.811436	-1.060319	0.501537
C25	C	1.811354	-0.950597	0.501509
C26	C	1.516396	-1.210378	0.697723
C27	C	1.439656	-1.265250	0.774444
C28	C	1.421144	-1.229573	0.891527
C29	C	1.479389	-1.139027	0.931913
C30	C	1.556139	-1.084161	0.855198
C31	C	1.574628	-1.119836	0.738098
C32	C	1.952809	-0.800557	0.458720
C33	C	2.029565	-0.745689	0.382011
C34	C	2.048089	-0.781363	0.264926
C35	C	1.989864	-0.871913	0.224545
C36	C	1.913108	-0.926781	0.301255
C37	C	1.894582	-0.891099	0.418338
C38	C	2.047567	-0.506019	0.578198
C39	C	2.180967	-0.506026	0.578204
C40	C	1.734617	-0.505888	0.891226
C41	C	1.734656	-0.505838	1.024626
C42	C	1.734635	-0.231971	0.578229
C43	C	1.734682	-0.115194	0.578248
C44	C	1.734502	-0.506045	0.266359
C45	C	1.734695	-0.505798	0.132959
H46	H	1.595213	-0.905961	0.717342
H47	H	1.358660	-1.274258	0.953994
H48	H	2.076977	-0.671959	0.414900
C49	C	1.620200	-0.984561	0.899612
N50	N	1.668444	-0.909536	0.933066
H51	H	1.464321	-1.109993	1.027259
H52	H	1.392232	-1.338973	0.741552
C53	C	1.536736	-1.249622	0.568918
N54	N	1.552057	-1.279184	0.471901
C55	C	2.132530	-0.721005	0.180548
N56	N	2.196126	-0.675544	0.116992
H57	H	1.873989	-1.104990	0.439101
C58	C	1.849053	-1.026386	0.256828
N59	N	1.800806	-1.101406	0.223366
C60	C	2.010239	-0.911158	0.095744
N61	N	2.025590	-0.940715	-0.001271
H62	H	1.937712	-0.771489	0.554054
