data_functionalizedCrystal
_audit_creation_method	'MofGen! by Chris Wilmer'
_symmetry_space_group_name_H-M	'P1'
_symmetry_Int_Tables_number	1
_symmetry_cell_setting	triclinic
loop_
_symmetry_equiv_pos_as_xyz
  x,y,z
_cell_length_a	6.817900
_cell_length_b	17.982959
_cell_length_c	19.453114
_cell_angle_alpha	96.125663
_cell_angle_beta	101.709288
_cell_angle_gamma	102.451857
loop_
_atom_site_label
_atom_site_type_symbol
_atom_site_fract_x
_atom_site_fract_y
_atom_site_fract_z
V1	V	-4.001683	-0.106207	-0.219294
O2	O	-3.994949	0.004287	-0.214818
O3	O	-3.948298	-0.209805	-0.218085
O4	O	-3.944659	-0.104931	-0.314804
O5	O	-3.998613	-0.101313	-0.117430
V6	V	-4.487074	-0.092948	-0.207075
O7	O	-4.258843	-0.135291	-0.246098
O8	O	-4.680111	-0.063864	-0.180272
O9	O	-4.317253	0.010650	-0.208285
O10	O	-4.611205	-0.203442	-0.211552
O11	O	-4.607541	-0.097842	-0.308940
O12	O	-4.320891	-0.094224	-0.111566
C13	C	-3.792365	-0.235049	-0.214700
C14	C	-3.829945	-0.319745	-0.214348
C15	C	-4.029200	-0.363428	-0.217697
C16	C	-4.064502	-0.443009	-0.217370
C17	C	-3.900543	-0.478904	-0.213689
C18	C	-3.701272	-0.435215	-0.210342
C19	C	-3.665976	-0.355636	-0.210674
C20	C	-3.843613	-0.756146	-0.209004
C21	C	-3.878925	-0.835730	-0.208670
C22	C	-4.242139	-0.843518	-0.215700
C23	C	-4.206843	-0.763939	-0.216032
C24	C	-4.007579	-0.720258	-0.212689
C25	C	-3.969304	-0.633968	-0.213045
C26	C	-3.938812	-0.565192	-0.213328
C27	C	-3.787723	-0.101271	-0.338074
C28	C	-3.822350	-0.100914	-0.416156
C29	C	-4.020216	-0.104570	-0.456423
C30	C	-4.052753	-0.104234	-0.529789
C31	C	-3.887420	-0.100258	-0.562886
C32	C	-3.689524	-0.096596	-0.522609
C33	C	-3.656989	-0.096924	-0.449244
N34	N	-3.825741	-0.140493	-0.681788
N35	N	-3.856661	-0.140184	-0.751482
C36	C	-3.985434	-0.099267	-0.783932
N37	N	-4.082155	-0.058682	-0.744056
N38	N	-4.051239	-0.058996	-0.674356
C39	C	-3.922678	-0.099901	-0.642439
C40	C	-4.218592	-0.102559	-0.903751
C41	C	-4.251119	-0.102218	-0.977117
C42	C	-3.887888	-0.094588	-0.969938
C43	C	-3.855363	-0.094921	-0.896572
C44	C	-4.020724	-0.098910	-0.863483
C45	C	-4.136528	0.035890	-0.211668
C46	C	-4.078185	0.120585	-0.212024
C47	C	-4.141170	-0.097886	-0.088292
C48	C	-4.085781	-0.098240	-0.010210
H49	H	-4.404393	-0.879093	-0.218423
H50	H	-4.154868	-0.107815	-0.429487
C51	C	-4.280852	-0.490506	-0.221130
C52	C	-4.343746	-0.546904	-0.281887
C53	C	-4.543045	-0.590669	-0.285372
H54	H	-4.280700	-0.514670	-0.180023
H55	H	-4.373548	-0.457769	-0.223399
H56	H	-4.251074	-0.579636	-0.279611
H57	H	-4.343946	-0.522762	-0.323004
H58	H	-4.635741	-0.557932	-0.287642
H59	H	-4.542873	-0.614827	-0.244262
H60	H	-4.585751	-0.628935	-0.326598
H61	H	-4.162716	-0.334207	-0.220687
C62	C	-3.449517	-0.308218	-0.206888
C63	C	-3.316586	-0.314718	-0.143939
C64	C	-3.117172	-0.271040	-0.140425
H65	H	-3.402061	-0.326723	-0.246506
H66	H	-3.451870	-0.255669	-0.207574
H67	H	-3.314225	-0.367257	-0.143259
H68	H	-3.363975	-0.296208	-0.104310
H69	H	-3.119525	-0.218490	-0.141111
H70	H	-3.069737	-0.289549	-0.180046
H71	H	-3.026958	-0.275438	-0.097712
C72	C	-3.700904	-0.874720	-0.204534
C73	C	-3.678558	-0.909669	-0.143388
C74	C	-3.514582	-0.945586	-0.139548
H75	H	-3.728609	-0.912764	-0.245375
H76	H	-3.577107	-0.837325	-0.202552
H77	H	-3.802327	-0.947061	-0.145375
H78	H	-3.650821	-0.871642	-0.102536
H79	H	-3.390784	-0.908190	-0.137566
H80	H	-3.542303	-0.983626	-0.180391
H81	H	-3.499386	-0.969297	-0.098057
H82	H	-4.353238	-0.105804	-0.876809
H83	H	-4.340357	-0.734717	-0.219026
H84	H	-4.213887	-0.107216	-0.562581
C85	C	-3.442147	-0.092834	-0.405453
C86	C	-3.378923	-0.026918	-0.353472
C87	C	-3.181026	-0.023135	-0.313120
H88	H	-3.444708	-0.137419	-0.383169
H89	H	-3.348216	-0.090381	-0.435630
H90	H	-3.472830	-0.029377	-0.323299
H91	H	-3.376314	0.017678	-0.375736
H92	H	-3.087094	-0.020682	-0.343296
H93	H	-3.183606	-0.067723	-0.290840
H94	H	-3.138095	0.021592	-0.277850
C95	C	-3.510300	-0.092322	-0.558677
C96	C	-3.581153	-0.092840	-0.631550
C97	C	-3.416108	-0.088910	-0.664798
H98	H	-3.407284	-0.046157	-0.538726
H99	H	-3.453317	-0.135484	-0.551758
H100	H	-3.638105	-0.049682	-0.638464
H101	H	-3.684147	-0.139001	-0.651521
H102	H	-3.359124	-0.132072	-0.657879
H103	H	-3.313102	-0.042744	-0.644841
H104	H	-3.464161	-0.089268	-0.714247
H105	H	-3.681363	-0.720589	-0.206278
H106	H	-4.412246	-0.105190	-1.009902
H107	H	-3.567779	-0.464448	-0.207350
H108	H	-3.753266	-0.091343	-0.996884
H109	H	-3.694244	-0.091951	-0.863786
