data_functionalizedCrystal
_audit_creation_method	'MofGen! by Chris Wilmer'
_symmetry_space_group_name_H-M	'P1'
_symmetry_Int_Tables_number	1
_symmetry_cell_setting	triclinic
loop_
_symmetry_equiv_pos_as_xyz
  x,y,z
_cell_length_a	12.759401
_cell_length_b	21.295417
_cell_length_c	12.759393
_cell_angle_alpha	89.961673
_cell_angle_beta	89.982620
_cell_angle_gamma	90.029863
loop_
_atom_site_label
_atom_site_type_symbol
_atom_site_fract_x
_atom_site_fract_y
_atom_site_fract_z
Zn1	Zn	1.606134	-0.250568	-0.593933
Zn2	Zn	2.106134	0.249432	-0.093933
Zn3	Zn	1.605986	-0.355853	-0.418233
Zn4	Zn	2.105986	0.144147	0.081767
Zn5	Zn	1.430440	-0.250601	-0.418273
Zn6	Zn	1.930440	0.249399	0.081727
Zn7	Zn	1.430379	-0.355804	-0.593875
Zn8	Zn	1.930379	0.144196	-0.093875
O9	O	1.518235	-0.303206	-0.506079
O10	O	2.018235	0.196794	-0.006079
O11	O	1.753136	-0.264541	-0.570634
O12	O	2.253136	0.235459	-0.070634
O13	O	1.582663	-0.341925	-0.271218
O14	O	2.082663	0.158075	0.228782
O15	O	1.453833	-0.162508	-0.441616
O16	O	1.953833	0.337492	0.058384
O17	O	1.753027	-0.341893	-0.441548
O18	O	2.253027	0.158107	0.058452
O19	O	1.582915	-0.162483	-0.570673
O20	O	2.082915	0.337517	-0.070673
O21	O	1.453690	-0.264598	-0.271246
O22	O	1.953690	0.235402	0.228754
O23	O	1.283411	-0.264550	-0.441559
O24	O	1.783411	0.235450	0.058441
O25	O	1.453730	-0.341810	-0.740904
O26	O	1.953730	0.158190	-0.240904
O27	O	1.283366	-0.341842	-0.570573
O28	O	1.783366	0.158158	-0.070573
O29	O	1.582857	-0.264493	-0.740947
O30	O	2.082857	0.235507	-0.240947
O31	O	1.582604	-0.443935	-0.441492
O32	O	2.082604	0.056065	0.058508
O33	O	1.453586	-0.443900	-0.570535
O34	O	1.953586	0.056100	-0.070535
C35	C	1.245267	-0.303195	-0.506064
C36	C	1.745267	0.196805	-0.006064
C37	C	1.128491	-0.303205	-0.506083
C38	C	1.628491	0.196795	-0.006083
C39	C	1.518101	-0.466758	-0.506025
C40	C	2.018101	0.033242	-0.006025
C41	C	1.518140	-0.536726	-0.506038
C42	C	2.018140	-0.036726	-0.006038
C43	C	1.073633	-0.343515	-0.573150
C44	C	1.573633	0.156485	-0.073150
C45	C	0.963909	-0.343523	-0.573161
C46	C	1.463909	0.156477	-0.073161
C47	C	0.963910	-0.262909	-0.439031
C48	C	1.463910	0.237091	0.060969
C49	C	1.073632	-0.262898	-0.439025
C50	C	1.573632	0.237102	0.060975
C51	C	1.128492	-0.383822	-0.640208
C52	C	1.628492	0.116178	-0.140208
C53	C	1.073634	-0.424136	-0.707279
C54	C	1.573634	0.075864	-0.207279
C55	C	0.963910	-0.424144	-0.707290
C56	C	1.463910	0.075856	-0.207290
C57	C	0.909043	-0.383838	-0.640231
C58	C	1.409043	0.116162	-0.140231
C59	C	1.585314	-0.569523	-0.573286
C60	C	2.085314	-0.069523	-0.073286
C61	C	1.585351	-0.635265	-0.573312
C62	C	2.085351	-0.135265	-0.073312
C63	C	1.518225	-0.668209	-0.506071
C64	C	2.018225	-0.168209	-0.006071
C65	C	1.451037	-0.635404	-0.438818
C66	C	1.951037	-0.135404	0.061182
C67	C	1.450995	-0.569663	-0.438802
C68	C	1.950995	-0.069663	0.061198
N69	N	1.510288	-0.771478	-0.414125
N70	N	2.010288	-0.271478	0.085875
N71	N	1.510334	-0.833929	-0.414143
N72	N	2.010334	-0.333929	0.085857
C73	C	1.518348	-0.866283	-0.506118
C74	C	2.018348	-0.366283	-0.006118
N75	N	1.526333	-0.833827	-0.598076
N76	N	2.026333	-0.333827	-0.098076
N77	N	1.526292	-0.771369	-0.598056
N78	N	2.026292	-0.271369	-0.098056
C79	C	1.518263	-0.739494	-0.506082
C80	C	2.018263	-0.239494	-0.006082
C81	C	1.585566	-0.970366	-0.573400
C82	C	2.085566	-0.470366	-0.073400
C83	C	1.585596	-1.036109	-0.573428
C84	C	2.085596	-0.536109	-0.073428
C85	C	1.451287	-1.036247	-0.438925
C86	C	1.951287	-0.536247	0.061075
C87	C	1.451252	-0.970504	-0.438907
C88	C	1.951252	-0.470504	0.061093
C89	C	1.518397	-0.937568	-0.506143
C90	C	2.018397	-0.437568	-0.006143
C91	C	1.792268	-0.303219	-0.506094
C92	C	2.292268	0.196781	-0.006094
C93	C	1.909045	-0.303224	-0.506100
C94	C	2.409045	0.196776	-0.006100
C95	C	1.518303	-0.303142	-0.780112
C96	C	2.018303	0.196858	-0.280112
C97	C	1.518332	-0.303115	-0.896889
C98	C	2.018332	0.196885	-0.396889
C99	C	1.518398	-0.139016	-0.506155
C100	C	2.018398	0.360984	-0.006155
C101	C	1.518467	-0.069048	-0.506188
C102	C	2.018467	0.430952	-0.006188
C103	C	1.451204	-0.262843	-0.951772
C104	C	1.951204	0.237157	-0.451772
C105	C	1.451236	-0.262824	-1.061496
C106	C	1.951236	0.237176	-0.561496
C107	C	1.585533	-0.343351	-1.061444
C108	C	2.085533	0.156649	-0.561444
C109	C	1.585495	-0.343373	-0.951722
C110	C	2.085495	0.156627	-0.451722
C111	C	1.384042	-0.222586	-0.896939
C112	C	1.884042	0.277414	-0.396939
C113	C	1.316909	-0.182310	-0.951822
C114	C	1.816909	0.317690	-0.451822
C115	C	1.316941	-0.182291	-1.061546
C116	C	1.816941	0.317709	-0.561546
C117	C	1.384105	-0.222548	-1.116387
C118	C	1.884105	0.277452	-0.616387
C119	C	1.518227	-0.303225	-0.233111
C120	C	2.018227	0.196775	0.266889
C121	C	1.518402	-0.303075	-0.116335
C122	C	2.018402	0.196925	0.383665
H123	H	1.217834	-0.383821	-0.640204
H124	H	1.717834	0.116179	-0.140204
H125	H	1.396556	-0.943799	-0.384142
H126	H	1.896556	-0.443799	0.115858
F127	F	0.905514	-0.220017	-0.367664
F128	F	1.405514	0.279983	0.132336
H129	H	1.640297	-1.062811	-0.628194
H130	H	2.140297	-0.562811	-0.128194
F131	F	1.657023	-0.935310	-0.644961
F132	F	2.157023	-0.435310	-0.144961
F133	F	1.379494	-0.534757	-0.367225
F134	F	1.879494	-0.034757	0.132775
F135	F	1.245477	-0.139438	-1.119954
F136	F	1.745477	0.360562	-0.619954
F137	F	1.379843	-1.071303	-0.367364
F138	F	1.879843	-0.571303	0.132636
F139	F	1.384131	-0.222529	-1.233167
F140	F	1.884131	0.277471	-0.733167
F141	F	1.656771	-0.534473	-0.644850
F142	F	2.156771	-0.034473	-0.144850
F143	F	1.657010	-0.386191	-1.119813
F144	F	2.157010	0.113809	-0.619813
F145	F	1.132019	-0.219996	-0.367645
F146	F	1.632019	0.280004	0.132355
F147	F	1.656936	-0.386237	-0.893308
F148	F	2.156936	0.113763	-0.393308
H149	H	1.118313	-0.456948	-0.761883
H150	H	1.618313	0.043052	-0.261883
F151	F	0.905529	-0.467044	-0.778680
F152	F	1.405529	0.032956	-0.278680
H153	H	1.384010	-0.222595	-0.807596
H154	H	1.884010	0.277405	-0.307596
F155	F	1.245429	-0.139470	-0.893455
F156	F	1.745429	0.360530	-0.393455
H157	H	1.396380	-0.662231	-0.384073
H158	H	1.896380	-0.162231	0.115927
F159	F	0.792264	-0.383844	-0.640254
F160	F	1.292264	0.116156	-0.140254
H161	H	1.640044	-0.661974	-0.628085
H162	H	2.140044	-0.161974	-0.128085
