data_functionalizedCrystal
_audit_creation_method	'MofGen! by Chris Wilmer'
_symmetry_space_group_name_H-M	'P1'
_symmetry_Int_Tables_number	1
_symmetry_cell_setting	triclinic
loop_
_symmetry_equiv_pos_as_xyz
  x,y,z
_cell_length_a	17.699083
_cell_length_b	15.944551
_cell_length_c	16.776229
_cell_angle_alpha	89.992397
_cell_angle_beta	89.998886
_cell_angle_gamma	83.390877
loop_
_atom_site_label
_atom_site_type_symbol
_atom_site_fract_x
_atom_site_fract_y
_atom_site_fract_z
O1	O	1.004260	0.106222	-0.066178
O2	O	0.783905	0.120042	-0.066204
O3	O	0.900100	-0.009156	-0.066183
O4	O	0.888065	0.235419	-0.066199
O5	O	0.900084	-0.009164	0.066393
O6	O	0.783890	0.120034	0.066372
O7	O	1.004244	0.106214	0.066398
Zn8	Zn	0.894065	0.113123	0.087435
Zn9	Zn	0.894085	0.113133	-0.087241
O10	O	0.888050	0.235411	0.066377
C11	C	0.755700	0.119542	0.000080
C12	C	0.671679	0.118057	0.000071
C13	C	0.623187	0.193893	0.000066
C14	C	0.544242	0.192492	0.000076
C15	C	0.513789	0.115254	0.000086
C16	C	0.562287	0.039412	0.000093
C17	C	0.641231	0.040814	0.000088
C18	C	0.243914	0.033758	0.000113
C19	C	0.164964	0.032362	0.000115
C20	C	0.146925	0.185436	0.000101
C21	C	0.225869	0.186837	0.000096
C22	C	0.274360	0.110996	0.000108
C23	C	0.359962	0.112516	0.000098
C24	C	0.428189	0.113733	0.000090
C25	C	0.899593	-0.040453	0.000105
C26	C	0.898095	-0.133696	0.000105
C27	C	0.822492	-0.348393	0.000085
C28	C	0.857592	-0.409488	0.065458
C29	C	0.895385	-0.304416	0.000099
C30	C	0.857624	-0.409464	-0.065252
C31	C	0.892762	-0.469323	0.000089
C32	C	0.930505	-0.364283	0.065525
C33	C	0.930527	-0.364252	-0.065244
C34	C	0.965680	-0.425329	0.000145
C35	C	0.896894	-0.209417	0.000105
C36	C	0.891259	-0.564321	0.000089
C37	C	1.032450	0.106713	0.000112
C38	C	1.116471	0.108199	0.000116
C39	C	0.888557	0.266708	0.000087
C40	C	0.890055	0.359951	0.000082
N41	N	0.894056	0.113115	0.206646
N42	N	0.894099	0.113134	-0.206452
C43	C	0.945523	0.055930	0.248372
C44	C	0.945527	0.055929	0.331824
C45	C	0.894068	0.113118	0.373549
C46	C	0.842595	0.170306	0.331816
C47	C	0.842588	0.170302	0.248366
C48	C	0.842623	0.170323	0.668364
C49	C	0.842636	0.170324	0.751820
C50	C	0.945562	0.055949	0.751822
C51	C	0.945555	0.055945	0.668372
C52	C	0.894080	0.113130	0.626647
C53	C	0.894075	0.113129	0.536158
C54	C	0.894076	0.113124	0.464036
H55	H	0.107434	0.247189	0.000096
H56	H	0.800678	0.216867	0.214393
H57	H	1.026238	-0.458615	0.000189
H58	H	0.826790	-0.429473	-0.120524
H59	H	0.140173	-0.030538	0.000124
H60	H	0.250659	0.249732	0.000085
C61	C	0.741776	-0.303921	0.000035
C62	C	0.703410	-0.327836	-0.067775
C63	C	0.629052	-0.286895	-0.067839
H64	H	0.743179	-0.244548	-0.000481
H65	H	0.715952	-0.319313	0.046503
H66	H	0.729227	-0.312438	-0.114231
H67	H	0.701986	-0.387202	-0.067274
H68	H	0.603228	-0.302288	-0.021371
H69	H	0.630463	-0.227524	-0.068352
H70	H	0.603009	-0.303122	-0.113842
C71	C	0.296428	-0.048673	0.000081
C72	C	0.252859	-0.116611	0.000067
C73	C	0.301212	-0.192562	0.000027
H74	H	0.327616	-0.051432	0.046301
H75	H	0.327589	-0.051356	-0.046170
H76	H	0.221711	-0.113929	0.046313
H77	H	0.221673	-0.113880	-0.046150
H78	H	0.332373	-0.195245	-0.046224
H79	H	0.332398	-0.195312	0.046248
H80	H	0.271658	-0.238667	0.000010
C81	C	0.971713	-0.337795	0.139235
C82	C	1.046425	-0.377739	0.139314
C83	C	1.084408	-0.353348	0.207197
H84	H	0.946081	-0.353634	0.185653
H85	H	0.972441	-0.278310	0.138801
H86	H	1.045694	-0.437211	0.139755
H87	H	1.072078	-0.361905	0.092912
H88	H	1.085136	-0.293863	0.206763
H89	H	1.058770	-0.369189	0.253610
H90	H	1.135106	-0.380440	0.207256
H91	H	0.680713	-0.020940	0.000091
C92	C	0.491634	0.274859	-0.000097
C93	C	0.505379	0.321362	-0.068323
C94	C	0.456926	0.397241	-0.068515
H95	H	0.500826	0.306637	0.046075
H96	H	0.440243	0.263004	-0.000132
H97	H	0.556758	0.333219	-0.068281
H98	H	0.496182	0.289609	-0.114507
H99	H	0.405536	0.385387	-0.068550
H100	H	0.466122	0.429013	-0.022340
H101	H	0.466241	0.428800	-0.114809
H102	H	0.800692	0.216868	0.365793
H103	H	0.647975	0.256789	0.000058
C104	C	0.816335	-0.436158	0.139072
C105	C	0.741404	-0.396850	0.138755
C106	C	0.703368	-0.421402	0.206547
H107	H	0.841644	-0.419937	0.185551
H108	H	0.816042	-0.495704	0.138785
H109	H	0.741700	-0.337317	0.139049
H110	H	0.716075	-0.413066	0.092291
H111	H	0.703076	-0.480948	0.206260
H112	H	0.728683	-0.405180	0.253021
H113	H	0.652522	-0.394741	0.206337
C114	C	0.971482	-0.337510	-0.139024
C115	C	0.933066	-0.360115	-0.207290
C116	C	0.970758	-0.335481	-0.275277
H117	H	1.022066	-0.364893	-0.139599
H118	H	0.972512	-0.278073	-0.138265
H119	H	0.932044	-0.419541	-0.208048
H120	H	0.882484	-0.332735	-0.206741
H121	H	0.971789	-0.276044	-0.274518
H122	H	1.021341	-0.362866	-0.275844
H123	H	0.944695	-0.350808	-0.321603
C124	C	1.001501	-0.006185	0.376983
C125	C	1.046586	-0.056247	0.322582
C126	C	1.098169	-0.113467	0.364152
H127	H	0.974379	-0.041200	0.409553
H128	H	1.033044	0.023979	0.409508
H129	H	1.015046	-0.086408	0.290071
H130	H	1.073725	-0.021255	0.290010
H131	H	1.129712	-0.083303	0.396677
H132	H	1.071040	-0.148476	0.396720
H133	H	1.128769	-0.147435	0.327247
H134	H	0.537486	-0.023476	0.000112
C135	C	0.786635	0.232316	0.797081
C136	C	0.712264	0.218771	0.776815
C137	C	0.660660	0.275851	0.818502
H138	H	0.794742	0.288404	0.783430
H139	H	0.793964	0.224123	0.852765
H140	H	0.704938	0.226971	0.721144
H141	H	0.704133	0.162694	0.790468
H142	H	0.667990	0.267658	0.874186
H143	H	0.668774	0.331935	0.804848
H144	H	0.610194	0.266663	0.804763
H145	H	0.987430	0.009363	0.214406
H146	H	0.987460	0.009380	0.634402
C147	C	1.001321	-0.006243	0.797170
C148	C	0.961011	-0.057622	0.845074
C149	C	1.012349	-0.114926	0.886849
H150	H	1.032847	0.023832	0.829782
H151	H	1.031959	-0.040350	0.760394
H152	H	0.930386	-0.023519	0.881845
H153	H	0.929488	-0.087715	0.812481
H154	H	1.042987	-0.149033	0.850074
H155	H	1.043873	-0.084845	0.919457
H156	H	0.985006	-0.149799	0.919351
C157	C	0.786829	0.232551	0.623116
C158	C	0.799125	0.315073	0.643391
C159	C	0.747747	0.372426	0.601716
H160	H	0.736288	0.223615	0.636772
H161	H	0.794190	0.224423	0.567431
H162	H	0.791759	0.323199	0.699064
H163	H	0.849656	0.324036	0.629734
H164	H	0.755107	0.364297	0.546031
H165	H	0.697210	0.363482	0.615375
H166	H	0.756087	0.428424	0.615461
