data_functionalizedCrystal
_audit_creation_method	'MofGen! by Chris Wilmer'
_symmetry_space_group_name_H-M	'P1'
_symmetry_Int_Tables_number	1
_symmetry_cell_setting	triclinic
loop_
_symmetry_equiv_pos_as_xyz
  x,y,z
_cell_length_a	19.077105
_cell_length_b	13.897448
_cell_length_c	19.077174
_cell_angle_alpha	92.273651
_cell_angle_beta	85.483752
_cell_angle_gamma	87.714101
loop_
_atom_site_label
_atom_site_type_symbol
_atom_site_fract_x
_atom_site_fract_y
_atom_site_fract_z
Zn1	Zn	1.093747	-0.468678	-0.441851
Zn2	Zn	1.088946	-0.623231	-0.323966
Zn3	Zn	0.971131	-0.455194	-0.319249
Zn4	Zn	0.975840	-0.623167	-0.437084
O5	O	1.032416	-0.542567	-0.380538
O6	O	1.191761	-0.494849	-0.430183
O7	O	1.069338	-0.595324	-0.224691
O8	O	0.987435	-0.322004	-0.335533
O9	O	1.188233	-0.608398	-0.343573
O10	O	1.077521	-0.331911	-0.425609
O11	O	0.982780	-0.471868	-0.221225
O12	O	0.873105	-0.471807	-0.330910
O13	O	0.995460	-0.608291	-0.536366
O14	O	0.876565	-0.595216	-0.417484
O15	O	1.082087	-0.494788	-0.539869
O16	O	1.073903	-0.758200	-0.338951
O17	O	0.990805	-0.758154	-0.422058
C18	C	0.849256	-0.532042	-0.373168
C19	C	0.770900	-0.527563	-0.370032
C20	C	0.735905	-0.589801	-0.413562
C21	C	0.662281	-0.585580	-0.410619
C22	C	0.623654	-0.519126	-0.364142
C23	C	0.658654	-0.456882	-0.320610
C24	C	0.732276	-0.461098	-0.323557
C25	C	0.403271	-0.499610	-0.350505
C26	C	0.329643	-0.495400	-0.347559
C27	C	0.333276	-0.624098	-0.437569
C28	C	0.406899	-0.628313	-0.440509
C29	C	0.441893	-0.566065	-0.396980
N30	N	0.548398	-0.514812	-0.361131
N31	N	0.517147	-0.570375	-0.399996
C32	C	1.032364	-0.793178	-0.380515
C33	C	1.032407	-0.900395	-0.380532
C34	C	1.032483	-1.096697	-0.380579
C35	C	1.032439	-0.987460	-0.380555
C36	C	1.216291	-0.553135	-0.387936
C37	C	1.294648	-0.557638	-0.391089
C38	C	1.039834	-0.553036	-0.564412
C39	C	1.042996	-0.557497	-0.642768
C40	C	1.032488	-0.290981	-0.380576
C41	C	1.032519	-0.183769	-0.380593
C42	C	0.999417	-0.495318	-0.677775
C43	C	1.002384	-0.499517	-0.751398
C44	C	1.048935	-0.565893	-0.790014
C45	C	1.092516	-0.628079	-0.755002
C46	C	1.089544	-0.623883	-0.681380
C47	C	1.062652	-0.585338	-1.010396
C48	C	1.065621	-0.589527	-1.084023
C49	C	0.975489	-0.460966	-1.080415
C50	C	0.972524	-0.456772	-1.006791
C51	C	1.016102	-0.518962	-0.971785
N52	N	1.051971	-0.570185	-0.865270
N53	N	1.013062	-0.514673	-0.896531
C54	C	1.025067	-0.532072	-0.197381
C55	C	1.022043	-0.527347	-0.119030
H56	H	0.304776	-0.674775	-0.473009
C57	C	0.616163	-0.383777	-0.269489
C58	C	0.626541	-0.275050	-0.275796
C59	C	0.584051	-0.201944	-0.224674
C60	C	0.531182	-0.237564	-0.167247
C61	C	0.520801	-0.346296	-0.160938
C62	C	0.563292	-0.419402	-0.212059
H63	H	0.665680	-0.248677	-0.318309
H64	H	0.591736	-0.121454	-0.229345
H65	H	0.499728	-0.183447	-0.129404
H66	H	0.481663	-0.372669	-0.118424
H67	H	0.555607	-0.499893	-0.207389
C68	C	0.778392	-0.662902	-0.464689
C69	C	0.827748	-0.739723	-0.436073
C70	C	0.870233	-0.812824	-0.487203
C71	C	0.863362	-0.809103	-0.566948
C72	C	0.814004	-0.732279	-0.595568
C73	C	0.771519	-0.659178	-0.544438
H74	H	0.832836	-0.742481	-0.377036
H75	H	0.906771	-0.869695	-0.466016
H76	H	0.894812	-0.863216	-0.604798
H77	H	0.808916	-0.729521	-0.654605
H78	H	0.734981	-0.602307	-0.565625
H79	H	1.125036	-0.674510	-0.652878
C80	C	0.770775	-0.392636	-0.275675
C81	C	0.760910	-0.282751	-0.281167
C82	C	0.799409	-0.214282	-0.233288
C83	C	0.847774	-0.255699	-0.179916
C84	C	0.857642	-0.365590	-0.174421
C85	C	0.819142	-0.434059	-0.222301
H86	H	0.725105	-0.252087	-0.320678
H87	H	0.792104	-0.132933	-0.237355
H88	H	0.876273	-0.205014	-0.144472
H89	H	0.893446	-0.396254	-0.134910
H90	H	0.826448	-0.515408	-0.218233
C91	C	0.449384	-0.701411	-0.491641
C92	C	0.438999	-0.810137	-0.485345
C93	C	0.481481	-0.883239	-0.536475
C94	C	0.534349	-0.847615	-0.593903
C95	C	0.544736	-0.738883	-0.600201
C96	C	0.502254	-0.665781	-0.549070
H97	H	0.399861	-0.836514	-0.442832
H98	H	0.473792	-0.963730	-0.531813
H99	H	0.565797	-0.901729	-0.631753
H100	H	0.583874	-0.712506	-0.642714
H101	H	0.509943	-0.585290	-0.553733
H102	H	0.298195	-0.441274	-0.309716
C103	C	1.116805	-0.662564	-1.126515
C104	C	1.110577	-0.771306	-1.116149
C105	C	1.161747	-0.844346	-1.158647
C106	C	1.219146	-0.808643	-1.211510
C107	C	1.225377	-0.699896	-1.221878
C108	C	1.174206	-0.626856	-1.179380
H109	H	1.068084	-0.797740	-1.077015
H110	H	1.157135	-0.924848	-1.150971
H111	H	1.257026	-0.862711	-1.242969
H112	H	1.267869	-0.673462	-1.261013
H113	H	1.178819	-0.546354	-1.187056
H114	H	0.431754	-0.448931	-0.315055
H115	H	1.130415	-0.682128	-0.786449
H116	H	1.098128	-0.635987	-0.981903
H117	H	0.966895	-0.448888	-0.779897
C118	C	0.948209	-0.422303	-0.635301
C119	C	0.900270	-0.353911	-0.673811
C120	C	0.849060	-0.280896	-0.631339
C121	C	0.845789	-0.276273	-0.550357
C122	C	0.893729	-0.344667	-0.511842
C123	C	0.944940	-0.417682	-0.554314
H124	H	0.902691	-0.357331	-0.733763
H125	H	0.813571	-0.230266	-0.659851
H126	H	0.807880	-0.222223	-0.518917
H127	H	0.891309	-0.341247	-0.451890
H128	H	0.980428	-0.468312	-0.525802
H129	H	0.633791	-0.636261	-0.446065
H130	H	0.934616	-0.402725	-0.975355
H131	H	0.940009	-0.410335	-1.108924
