data_functionalizedCrystal
_audit_creation_method	'MofGen! by Chris Wilmer'
_symmetry_space_group_name_H-M	'P1'
_symmetry_Int_Tables_number	1
_symmetry_cell_setting	triclinic
loop_
_symmetry_equiv_pos_as_xyz
  x,y,z
_cell_length_a	17.640280
_cell_length_b	18.215407
_cell_length_c	18.215399
_cell_angle_alpha	90.018561
_cell_angle_beta	78.775397
_cell_angle_gamma	101.207578
loop_
_atom_site_label
_atom_site_type_symbol
_atom_site_fract_x
_atom_site_fract_y
_atom_site_fract_z
Zn1	Zn	-0.314854	-1.184402	-0.356900
Zn2	Zn	0.018479	-0.851069	-0.023567
Zn3	Zn	0.351812	-0.517735	0.309767
Zn4	Zn	-0.447036	-1.209218	-0.208984
Zn5	Zn	-0.113702	-0.875885	0.124349
Zn6	Zn	0.219631	-0.542551	0.457682
Zn7	Zn	-0.314860	-1.061336	-0.233849
Zn8	Zn	0.018473	-0.728002	0.099484
Zn9	Zn	0.351807	-0.394669	0.432818
Zn10	Zn	-0.446972	-1.086196	-0.332024
Zn11	Zn	-0.113638	-0.752863	0.001309
Zn12	Zn	0.219695	-0.419529	0.334643
O13	O	-0.380930	-1.135288	-0.282939
O14	O	-0.047597	-0.801955	0.050394
O15	O	0.285736	-0.468621	0.383727
O16	O	-0.332413	-1.290683	-0.337283
O17	O	0.000921	-0.957349	-0.003950
O18	O	0.334254	-0.624016	0.329383
O19	O	-0.429531	-1.189583	-0.109293
O20	O	-0.096198	-0.856249	0.224040
O21	O	0.237135	-0.522916	0.557374
O22	O	-0.204252	-1.056871	-0.270989
O23	O	0.129082	-0.723537	0.062345
O24	O	0.462415	-0.390204	0.395678
O25	O	-0.429526	-1.308915	-0.228610
O26	O	-0.096193	-0.975582	0.104723
O27	O	0.237141	-0.642248	0.438056
O28	O	-0.204248	-1.147287	-0.361394
O29	O	0.129086	-0.813954	-0.028060
O30	O	0.462419	-0.480620	0.305273
O31	O	-0.332423	-1.080934	-0.127561
O32	O	0.000911	-0.747601	0.205773
O33	O	0.334244	-0.414267	0.539106
O34	O	-0.332360	-0.961645	-0.246867
O35	O	0.000973	-0.628311	0.086466
O36	O	0.334306	-0.294978	0.419799
O37	O	-0.429417	-1.099242	-0.438314
O38	O	-0.096083	-0.765909	-0.104980
O39	O	0.237250	-0.432575	0.228353
O40	O	-0.429422	-0.979909	-0.318996
O41	O	-0.096089	-0.646576	0.014337
O42	O	0.237244	-0.313243	0.347670
O43	O	-0.332351	-1.171393	-0.456590
O44	O	0.000983	-0.838060	-0.123257
O45	O	0.334316	-0.504727	0.210077
O46	O	-0.557635	-1.213689	-0.204489
O47	O	-0.224301	-0.880356	0.128844
O48	O	0.109032	-0.547022	0.462177
O49	O	-0.557587	-1.123305	-0.294886
O50	O	-0.224254	-0.789972	0.038447
O51	O	0.109079	-0.456638	0.371781
C52	C	-0.380886	-0.944073	-0.282931
C53	C	-0.047552	-0.610740	0.050402
C54	C	0.285781	-0.277407	0.383736
C55	C	-0.380885	-0.862274	-0.282941
C56	C	-0.047552	-0.528941	0.050392
C57	C	0.285781	-0.195608	0.383726
C58	C	-0.330433	-0.587739	-0.339580
C59	C	0.002900	-0.254406	-0.006247
C60	C	0.336234	0.078928	0.327086
C61	C	-0.330424	-0.664596	-0.339581
C62	C	0.002909	-0.331263	-0.006247
C63	C	0.336243	0.002071	0.327086
C64	C	-0.431401	-0.683573	-0.226306
C65	C	-0.098068	-0.350240	0.107027
C66	C	0.235265	-0.016906	0.440360
C67	C	-0.431413	-0.606718	-0.226310
C68	C	-0.098080	-0.273385	0.107024
C69	C	0.235253	0.059949	0.440357
C70	C	-0.380925	-0.558802	-0.282946
C71	C	-0.047591	-0.225469	0.050387
C72	C	0.285742	0.107865	0.383720
C73	C	-0.380904	-0.712514	-0.282943
C74	C	-0.047571	-0.379181	0.050390
C75	C	0.285763	-0.045848	0.383723
C76	C	-0.380895	-0.795846	-0.282943
C77	C	-0.047561	-0.462513	0.050390
C78	C	0.285772	-0.129180	0.383723
C79	C	-0.380935	-0.475465	-0.282947
C80	C	-0.047601	-0.142132	0.050386
C81	C	0.285732	0.191202	0.383719
C82	C	-0.586290	-1.173908	-0.244306
C83	C	-0.252957	-0.840574	0.089027
C84	C	0.080376	-0.507241	0.422361
C85	C	-0.674144	-1.190496	-0.227803
C86	C	-0.340811	-0.857163	0.105530
C87	C	-0.007478	-0.523830	0.438863
C88	C	-0.963099	-1.009565	-0.408577
C89	C	-0.629766	-0.676232	-0.075244
C90	C	-0.296433	-0.342899	0.258089
C91	C	-1.045651	-1.025155	-0.393047
C92	C	-0.712318	-0.691821	-0.059714
C93	C	-0.378985	-0.358488	0.273620
C94	C	-1.045635	-1.119330	-0.299012
C95	C	-0.712302	-0.785996	0.034321
C96	C	-0.378968	-0.452663	0.367655
C97	C	-0.963081	-1.103751	-0.314537
C98	C	-0.629748	-0.770417	0.018796
C99	C	-0.296415	-0.437084	0.352130
C100	C	-0.921820	-1.048867	-0.369320
C101	C	-0.588487	-0.715534	-0.035987
C102	C	-0.255153	-0.382201	0.297347
C103	C	-0.921802	-1.143053	-0.275280
C104	C	-0.588469	-0.809719	0.058054
C105	C	-0.255135	-0.476386	0.391387
C106	C	-0.839255	-1.127472	-0.290801
C107	C	-0.505922	-0.794139	0.042532
C108	C	-0.172589	-0.460806	0.375866
C109	C	-0.797988	-1.072590	-0.345580
C110	C	-0.464655	-0.739256	-0.012246
C111	C	-0.131322	-0.405923	0.321087
C112	C	-0.839273	-1.033287	-0.384841
C113	C	-0.505940	-0.699953	-0.051508
C114	C	-0.172607	-0.366620	0.281825
C115	C	-0.963065	-1.197932	-0.220493
C116	C	-0.629731	-0.864599	0.112840
C117	C	-0.296398	-0.531266	0.446173
C118	C	-0.921785	-1.237234	-0.181236
C119	C	-0.588452	-0.903901	0.152097
C120	C	-0.255119	-0.570568	0.485431
C121	C	-0.839237	-1.221658	-0.196761
C122	C	-0.505904	-0.888324	0.136573
C123	C	-0.172571	-0.554991	0.469906
C124	C	-0.797970	-1.166775	-0.251539
C125	C	-0.464637	-0.833442	0.081794
C126	C	-0.131303	-0.500108	0.415127
C127	C	-0.797952	-1.260961	-0.157499
C128	C	-0.464619	-0.927627	0.175834
C129	C	-0.131285	-0.594294	0.509168
C130	C	-0.715406	-1.245380	-0.173020
C131	C	-0.382072	-0.912047	0.160313
C132	C	-0.048739	-0.578713	0.493646
C133	C	-0.715424	-1.151195	-0.267061
C134	C	-0.382090	-0.817861	0.066273
C135	C	-0.048757	-0.484528	0.399606
C136	C	-0.174768	-1.096538	-0.321740
C137	C	0.158565	-0.763204	0.011594
C138	C	0.491898	-0.429871	0.344927
C139	C	-0.086915	-1.080024	-0.338274
C140	C	0.246419	-0.746691	-0.004941
C141	C	0.579752	-0.413358	0.328393
C142	C	-0.380876	-1.135323	-0.474903
C143	C	-0.047543	-0.801989	-0.141569
C144	C	0.285791	-0.468656	0.191764
C145	C	-0.380853	-1.135337	-0.556706
C146	C	-0.047519	-0.802004	-0.223373
C147	C	0.285814	-0.468671	0.109961
C148	C	-0.380963	-0.327247	-0.282947
C149	C	-0.047629	0.006086	0.050386
C150	C	0.285704	0.339420	0.383719
C151	C	-0.380943	-0.409042	-0.282949
C152	C	-0.047610	-0.075709	0.050385
C153	C	0.285723	0.257625	0.383718
C154	C	-0.330263	-1.172914	-0.754426
C155	C	0.003070	-0.839581	-0.421093
C156	C	0.336404	-0.506248	-0.087760
C157	C	-0.330240	-1.172919	-0.831290
C158	C	0.003093	-0.839586	-0.497956
C159	C	0.336427	-0.506252	-0.164623
C160	C	-0.431320	-1.097789	-0.812246
C161	C	-0.097987	-0.764456	-0.478913
C162	C	0.235347	-0.431122	-0.145580
C163	C	-0.431338	-1.097781	-0.735385
C164	C	-0.098005	-0.764447	-0.402052
C165	C	0.235328	-0.431114	-0.068719
C166	C	-0.380811	-1.135348	-0.706477
C167	C	-0.047478	-0.802014	-0.373144
C168	C	0.285856	-0.468681	-0.039811
C169	C	-0.380770	-1.135361	-0.860201
C170	C	-0.047436	-0.802027	-0.526868
C171	C	0.285897	-0.468694	-0.193535
C172	C	-0.380745	-1.135365	-0.943540
C173	C	-0.047412	-0.802032	-0.610206
C174	C	0.285922	-0.468698	-0.276873
C175	C	-0.380834	-1.135342	-0.623134
C176	C	-0.047501	-0.802009	-0.289801
C177	C	0.285832	-0.468675	0.043533
C178	C	-0.380928	-1.135285	-0.091734
C179	C	-0.047594	-0.801952	0.241600
C180	C	0.285739	-0.468618	0.574933
C181	C	-0.380728	-1.135371	-0.009973
C182	C	-0.047395	-0.802038	0.323361
C183	C	0.285938	-0.468704	0.656694
H184	H	-0.472506	-0.722595	-0.180194
H185	H	-0.139173	-0.389262	0.153140
H186	H	0.194161	-0.055928	0.486473
H187	H	-0.289309	-0.688152	-0.385698
H188	H	0.044024	-0.354819	-0.052365
H189	H	0.377357	-0.021486	0.280968
H190	H	-0.472534	-0.583159	-0.180190
H191	H	-0.139201	-0.249825	0.153143
H192	H	0.194132	0.083508	0.486477
F193	F	-0.485094	-1.057813	-0.843019
F194	F	-0.151761	-0.724480	-0.509685
F195	F	0.181572	-0.391146	-0.176352
H196	H	-0.289118	-1.203502	-0.730893
H197	H	0.044215	-0.870168	-0.397559
H198	H	0.377548	-0.536835	-0.064226
H199	H	-0.929503	-0.964879	-0.453193
H200	H	-0.596169	-0.631546	-0.119859
H201	H	-0.262836	-0.298212	0.213474
H202	H	-0.472500	-1.067184	-0.696343
H203	H	-0.139167	-0.733850	-0.363010
H204	H	0.194167	-0.400517	-0.029677
F205	F	-0.671506	-1.092787	-0.325373
F206	F	-0.338172	-0.759454	0.007960
F207	F	-0.004839	-0.426121	0.341293
H208	H	-0.289322	-0.548728	-0.385697
H209	H	0.044012	-0.215394	-0.052364
H210	H	0.377345	0.117939	0.280969
F211	F	-0.710134	-1.056140	-0.362232
F212	F	-0.376801	-0.722806	-0.028898
F213	F	-0.043467	-0.389473	0.304435
H214	H	-0.805677	-0.988600	-0.429456
H215	H	-0.472343	-0.655267	-0.096123
H216	H	-0.139010	-0.321934	0.237210
H217	H	-1.079258	-0.993155	-0.425028
H218	H	-0.745925	-0.659822	-0.091695
H219	H	-0.412591	-0.326488	0.241639
F220	F	-0.965707	-1.295644	-0.122935
F221	F	-0.632374	-0.962311	0.210399
F222	F	-0.299040	-0.628978	0.543732
F223	F	-1.089557	-1.177740	-0.240711
F224	F	-0.756223	-0.844406	0.092622
F225	F	-0.422890	-0.511073	0.425956
F226	F	-1.050919	-1.214534	-0.203996
F227	F	-0.717586	-0.881200	0.129338
F228	F	-0.384253	-0.547867	0.462671
F229	F	-0.841876	-1.319365	-0.099193
F230	F	-0.508542	-0.986032	0.234140
F231	F	-0.175209	-0.652698	0.567474
F232	F	-0.671470	-1.287204	-0.131233
F233	F	-0.338137	-0.953871	0.202101
F234	F	-0.004804	-0.620537	0.535434
F235	F	-0.276445	-1.212909	-0.882317
F236	F	0.056888	-0.879575	-0.548984
F237	F	0.390222	-0.546242	-0.215650
