data_functionalizedCrystal
_audit_creation_method	'MofGen! by Chris Wilmer'
_symmetry_space_group_name_H-M	'P1'
_symmetry_Int_Tables_number	1
_symmetry_cell_setting	triclinic
loop_
_symmetry_equiv_pos_as_xyz
  x,y,z
_cell_length_a	17.699083
_cell_length_b	14.971494
_cell_length_c	13.448316
_cell_angle_alpha	89.995115
_cell_angle_beta	89.999267
_cell_angle_gamma	83.450286
loop_
_atom_site_label
_atom_site_type_symbol
_atom_site_fract_x
_atom_site_fract_y
_atom_site_fract_z
O1	O	1.004359	0.113112	-0.082549
O2	O	0.784018	0.127828	-0.082581
O3	O	0.900091	-0.009750	-0.082562
O4	O	0.888286	0.250690	-0.082568
O5	O	0.900076	-0.009758	0.082822
O6	O	0.784003	0.127820	0.082803
O7	O	1.004345	0.113104	0.082835
Cu8	Cu	0.894173	0.120461	0.097920
Cu9	Cu	0.894190	0.120471	-0.097666
O10	O	0.888271	0.250682	0.082816
C11	C	0.755812	0.127297	0.000107
C12	C	0.671790	0.125715	0.000095
C13	C	0.899555	-0.043077	0.000129
C14	C	0.897969	-0.142368	0.000124
C15	C	0.897234	-0.189006	-0.090028
C16	C	0.895739	-0.282299	-0.090030
C17	C	0.894985	-0.328955	0.000122
C18	C	0.895718	-0.282310	0.090281
C19	C	0.897207	-0.189017	0.090281
C20	C	0.892616	-0.476763	0.090274
C21	C	0.891128	-0.570063	0.090274
C22	C	0.891148	-0.570045	-0.090037
C23	C	0.892637	-0.476752	-0.090037
C24	C	0.893372	-0.430114	0.000123
C25	C	0.623370	0.206470	0.000093
C26	C	0.544423	0.204978	0.000106
C27	C	0.513897	0.122730	0.000113
C28	C	0.562324	0.041969	0.000118
C29	C	0.641269	0.043461	0.000112
C30	C	0.243946	0.035947	0.000143
C31	C	0.164994	0.034461	0.000145
C32	C	0.147099	0.197464	0.000136
C33	C	0.226045	0.198957	0.000131
C34	C	0.274464	0.118196	0.000141
C35	C	0.360067	0.119814	0.000128
C36	C	0.428296	0.121111	0.000118
C37	C	1.032550	0.113635	0.000145
C38	C	1.116572	0.115217	0.000151
C39	C	0.888808	0.284009	0.000124
C40	C	0.890393	0.383300	0.000122
N41	N	0.894166	0.120453	0.235484
N42	N	0.894202	0.120471	-0.235230
C43	C	0.945579	0.059559	0.287533
C44	C	0.945584	0.059558	0.391636
C45	C	0.894178	0.120457	0.443689
C46	C	0.842760	0.181354	0.391633
C47	C	0.842752	0.181350	0.287531
C48	C	0.842781	0.181360	0.608613
C49	C	0.842789	0.181366	0.712721
C50	C	0.945613	0.059568	0.712718
C51	C	0.945605	0.059564	0.608616
C52	C	0.894187	0.120463	0.556567
H53	H	0.897852	-0.151026	-0.163440
O54	O	0.890319	-0.620374	0.187516
H55	H	0.941195	-0.670949	0.191841
O56	O	0.094877	0.284577	0.000147
H57	H	0.034852	0.269727	0.000168
H58	H	0.987479	0.009982	0.755102
O59	O	0.296159	-0.051159	0.000152
H60	H	0.332560	-0.054380	-0.067252
O61	O	0.893416	-0.426456	0.187514
H62	H	0.892652	-0.474572	0.250203
O63	O	0.898003	-0.138716	0.187520
H64	H	0.899158	-0.066005	0.172376
H65	H	0.648217	0.273446	0.000086
O66	O	0.894908	-0.332599	-0.187264
H67	H	0.895678	-0.284483	-0.249951
H68	H	0.893257	-0.438768	-0.163446
O69	O	0.787331	0.247029	0.768870
H70	H	0.751564	0.289361	0.715191
O71	O	0.492195	0.292078	0.000105
H72	H	0.526684	0.349520	0.000087
H73	H	0.250894	0.265932	0.000120
O74	O	0.894918	-0.332636	0.187514
H75	H	0.842701	-0.367072	0.191821
O76	O	0.132066	-0.054253	0.000171
H77	H	0.178997	-0.110161	0.000190
O78	O	0.529406	-0.046746	0.000130
H79	H	0.466375	-0.034218	0.000124
H80	H	0.987448	0.009973	0.434014
H81	H	0.890549	-0.608022	-0.163448
O82	O	0.787328	0.247046	0.552468
H83	H	0.751590	0.289402	0.606150
H84	H	0.987467	0.009980	0.566235
O85	O	0.693500	-0.043638	0.000111
H86	H	0.659013	-0.101082	0.000108
O87	O	1.001021	-0.006129	0.231391
H88	H	1.036766	-0.048479	0.285078
O89	O	0.787318	0.247048	0.447768
H90	H	0.750508	0.209459	0.495220
O91	O	0.787303	0.247033	0.231385
H92	H	0.751564	0.289387	0.285067
