data_functionalizedCrystal
_audit_creation_method	'MofGen! by Chris Wilmer'
_symmetry_space_group_name_H-M	'P1'
_symmetry_Int_Tables_number	1
_symmetry_cell_setting	triclinic
loop_
_symmetry_equiv_pos_as_xyz
  x,y,z
_cell_length_a	19.805407
_cell_length_b	13.897448
_cell_length_c	19.805399
_cell_angle_alpha	89.974981
_cell_angle_beta	89.980427
_cell_angle_gamma	90.017692
loop_
_atom_site_label
_atom_site_type_symbol
_atom_site_fract_x
_atom_site_fract_y
_atom_site_fract_z
Zn1	Zn	1.034777	-0.384037	-0.382732
Zn2	Zn	1.034709	-0.545343	-0.269549
Zn3	Zn	0.921591	-0.384064	-0.269556
Zn4	Zn	0.921572	-0.545292	-0.382695
O5	O	0.978162	-0.464684	-0.326133
O6	O	1.129484	-0.405445	-0.367730
O7	O	1.019683	-0.523982	-0.174833
O8	O	0.936642	-0.249079	-0.284588
O9	O	1.129434	-0.523956	-0.284575
O10	O	1.019799	-0.249059	-0.367737
O11	O	0.936576	-0.405490	-0.174839
O12	O	0.826872	-0.405441	-0.284552
O13	O	0.936609	-0.523869	-0.477417
O14	O	0.826858	-0.523894	-0.367675
O15	O	1.019780	-0.405395	-0.477443
O16	O	1.019664	-0.680318	-0.284539
O17	O	0.936543	-0.680280	-0.367668
C18	C	0.802306	-0.464666	-0.326111
C19	C	0.727074	-0.464681	-0.326118
C20	C	0.691740	-0.526453	-0.369330
C21	C	0.621052	-0.526454	-0.369339
C22	C	0.585699	-0.464688	-0.326133
C23	C	0.621037	-0.402910	-0.282919
C24	C	0.691725	-0.402904	-0.282913
C25	C	0.335964	-0.402931	-0.282941
C26	C	0.265272	-0.402944	-0.282949
C27	C	0.265292	-0.526481	-0.369367
C28	C	0.335979	-0.526476	-0.369362
C29	C	0.371311	-0.464694	-0.326151
C30	C	0.447960	-0.464692	-0.326142
C31	C	0.509051	-0.464695	-0.326138
C32	C	0.978113	-0.715298	-0.326113
C33	C	0.978154	-0.822512	-0.326128
C34	C	0.978225	-1.018807	-0.326170
C35	C	0.978183	-0.909575	-0.326149
C36	C	1.154705	-0.464703	-0.326155
C37	C	1.229937	-0.464711	-0.326165
C38	C	0.978200	-0.464623	-0.502676
C39	C	0.978216	-0.464597	-0.577908
C40	C	0.978230	-0.213091	-0.326167
C41	C	0.978259	-0.105877	-0.326182
C42	C	1.021524	-0.402905	-0.613267
C43	C	1.021531	-0.402877	-0.683955
C44	C	0.978233	-0.464547	-0.719283
C45	C	0.934920	-0.526242	-0.683919
C46	C	0.934910	-0.526264	-0.613232
C47	C	0.934958	-0.526152	-0.968993
C48	C	0.934973	-0.526127	-1.039685
C49	C	1.021579	-0.402765	-1.039716
C50	C	1.021570	-0.402787	-0.969029
C51	C	0.978255	-0.464478	-0.933671
C52	C	0.978247	-0.464507	-0.857022
C53	C	0.978244	-0.464524	-0.795931
C54	C	0.978163	-0.464675	-0.150277
C55	C	0.978278	-0.464429	-0.075045
H56	H	0.720492	-0.352598	-0.247729
H57	H	1.056785	-0.352690	-0.584508
H58	H	0.236489	-0.352641	-0.247765
H59	H	0.899638	-0.576490	-0.584444
H60	H	0.720520	-0.576753	-0.404511
H61	H	1.056799	-0.352644	-0.712742
H62	H	1.056830	-0.352573	-0.940268
C63	C	0.582188	-0.594462	-0.416831
H64	H	0.613367	-0.631272	-0.442544
H65	H	0.554612	-0.557678	-0.446386
H66	H	0.554615	-0.636426	-0.390847
C67	C	0.374821	-0.334991	-0.235400
H68	H	0.343640	-0.298220	-0.209662
H69	H	0.402418	-0.293003	-0.261331
H70	H	0.402373	-0.371846	-0.205860
C71	C	0.374867	-0.594431	-0.416877
H72	H	0.422026	-0.585590	-0.410677
H73	H	0.363310	-0.580415	-0.462375
H74	H	0.363262	-0.659222	-0.406878
H75	H	0.592247	-0.352615	-0.247743
C76	C	1.069223	-0.334897	-1.078608
H77	H	1.095013	-0.298182	-1.047443
H78	H	1.043350	-0.292853	-1.106185
H79	H	1.098709	-0.371798	-1.106183
C80	C	0.226424	-0.594431	-0.416906
H81	H	0.179262	-0.585584	-0.410730
H82	H	0.237992	-0.659221	-0.406920
H83	H	0.238034	-0.580393	-0.462401
C84	C	0.887338	-0.593959	-1.078545
H85	H	0.861534	-0.630697	-1.047363
H86	H	0.913219	-0.635984	-1.106119
H87	H	0.857863	-0.557035	-1.106119
C88	C	0.887300	-0.593989	-0.930108
H89	H	0.861516	-0.630711	-0.961274
H90	H	0.857819	-0.557074	-0.902543
H91	H	0.913162	-0.636043	-0.902522
C92	C	0.887294	-0.594078	-0.722778
H93	H	0.893507	-0.585237	-0.769941
H94	H	0.841818	-0.579962	-0.711188
H95	H	0.897186	-0.658895	-0.711184
