data_functionalizedCrystal
_audit_creation_method	'MofGen! by Chris Wilmer'
_symmetry_space_group_name_H-M	'P1'
_symmetry_Int_Tables_number	1
_symmetry_cell_setting	triclinic
loop_
_symmetry_equiv_pos_as_xyz
  x,y,z
_cell_length_a	19.188905
_cell_length_b	17.038278
_cell_length_c	15.500227
_cell_angle_alpha	93.026324
_cell_angle_beta	87.158310
_cell_angle_gamma	87.122528
loop_
_atom_site_label
_atom_site_type_symbol
_atom_site_fract_x
_atom_site_fract_y
_atom_site_fract_z
O1	O	0.935251	0.093849	-0.072101
O2	O	0.732753	0.107008	-0.072074
O3	O	0.832798	-0.013382	-0.072066
O4	O	0.835205	0.214239	-0.072110
O5	O	0.826726	-0.006105	0.071823
O6	O	0.726680	0.114285	0.071814
O7	O	0.929178	0.101126	0.071787
Cu8	Cu	0.827375	0.108370	0.084939
Cu9	Cu	0.834556	0.099764	-0.085226
O10	O	0.829133	0.221516	0.071778
C11	C	0.703679	0.110224	-0.000126
C12	C	0.626094	0.108955	-0.000114
C13	C	0.827573	-0.038864	-0.000117
C14	C	0.821041	-0.125635	-0.000105
C15	C	0.780923	-0.615921	-0.000179
C16	C	0.787064	-0.534390	-0.000171
C17	C	0.853173	-0.503170	-0.000168
C18	C	0.913145	-0.553486	-0.000182
C19	C	0.907003	-0.635016	-0.000196
C20	C	0.874871	-0.257481	-0.000132
C21	C	0.881008	-0.175945	-0.000116
C22	C	0.754927	-0.156855	-0.000107
C23	C	0.748791	-0.238387	-0.000115
C24	C	0.808763	-0.288696	-0.000134
C25	C	0.859452	-0.419832	-0.000158
C26	C	0.802484	-0.372032	-0.000150
C27	C	0.592975	0.104379	-0.078550
C28	C	0.520077	0.103177	-0.078560
C29	C	0.480302	0.106536	-0.000131
C30	C	0.513429	0.111118	0.078315
C31	C	0.586325	0.112327	0.078323
N32	N	0.365937	0.063106	0.058246
N33	N	0.296689	0.061955	0.058232
C34	C	0.260670	0.102894	-0.000151
N35	N	0.296516	0.145016	-0.058534
N36	N	0.365771	0.146164	-0.058523
C37	C	0.401258	0.105225	-0.000131
C38	C	0.148507	0.097015	-0.078604
C39	C	0.075607	0.095818	-0.078611
C40	C	0.068961	0.103751	0.078267
C41	C	0.141859	0.104955	0.078272
C42	C	0.181628	0.101583	-0.000166
C43	C	0.958252	0.097910	-0.000163
C44	C	1.035837	0.099178	-0.000180
C45	C	0.834358	0.246998	-0.000172
C46	C	0.840890	0.333769	-0.000190
N47	N	0.822328	0.114422	0.204623
N48	N	0.839608	0.093706	-0.204910
C49	C	0.864738	0.063428	0.249903
C50	C	0.860929	0.068012	0.340476
C51	C	0.814713	0.123596	0.385767
C52	C	0.772298	0.174593	0.340480
C53	C	0.776105	0.170004	0.249909
C54	C	0.801000	0.140114	0.659232
C55	C	0.797198	0.144700	0.749810
C56	C	0.885828	0.038118	0.749799
C57	C	0.889633	0.033537	0.659226
C58	C	0.847216	0.084532	0.613948
C59	C	0.810819	0.128285	0.478346
C60	C	0.851106	0.079838	0.521370
H61	H	0.727089	-0.641333	-0.000171
C62	C	0.940502	-0.027569	0.609409
H63	H	0.936710	-0.022982	0.548983
H64	H	0.929237	-0.078982	0.624249
H65	H	0.986961	-0.018416	0.624252
H66	H	0.759562	0.189966	0.786681
H67	H	0.955835	-0.675978	-0.000208
H68	H	0.481040	0.113855	0.142173
H69	H	0.625350	0.101633	-0.142420
C70	C	0.483637	0.098150	-0.164843
H71	H	0.517762	0.096314	-0.211555
H72	H	0.452714	0.143088	-0.168111
H73	H	0.457963	0.051935	-0.168097
H74	H	0.036577	0.106491	0.142126
C75	C	0.915580	0.002292	0.200087
H76	H	0.911781	0.006867	0.139661
H77	H	0.904284	-0.049106	0.214949
H78	H	0.962049	0.011410	0.214912
C79	C	0.932475	-0.017977	0.799607
H80	H	0.923586	-0.007291	0.860034
H81	H	0.980191	-0.010379	0.784741
H82	H	0.922413	-0.070878	0.784782
H83	H	0.748658	-0.397455	-0.000157
H84	H	0.888733	0.034579	0.484492
C85	C	0.754349	0.196212	0.609437
H86	H	0.726287	0.229977	0.649385
H87	H	0.725104	0.166390	0.574127
H88	H	0.782881	0.226892	0.574085
H89	H	0.738232	-0.493431	-0.000165
C90	C	0.039172	0.090787	-0.164892
H91	H	-0.009939	0.090560	-0.153665
H92	H	0.055106	0.043780	-0.197108
H93	H	0.049862	0.134932	-0.197128
H94	H	0.913277	-0.394402	-0.000127
H95	H	0.734665	0.219848	0.377361
C96	C	0.729457	0.226098	0.200097
H97	H	0.738338	0.215400	0.139670
H98	H	0.739509	0.278999	0.214917
H99	H	0.681739	0.218488	0.214964
H100	H	0.773190	0.173544	0.515229
C101	C	0.192254	0.093321	-0.164879
H102	H	0.162085	0.090436	-0.211596
H103	H	0.223454	0.048054	-0.168134
H104	H	0.218203	0.139207	-0.168139
H105	H	0.613290	0.116055	0.142197
C106	C	0.985863	-0.519146	-0.000177
H107	H	0.980933	-0.463383	-0.000158
H108	H	1.012881	-0.538951	-0.050357
H109	H	1.008633	-0.533909	0.050004
C110	C	0.688963	-0.101519	-0.000097
H111	H	0.648712	-0.131789	-0.000096
H112	H	0.690860	-0.071840	-0.050268
H113	H	0.686615	-0.066794	0.050092
H114	H	0.168825	0.108677	0.142143
H115	H	0.934845	-0.150529	-0.000113
C116	C	0.676072	-0.272724	-0.000119
H117	H	0.641236	-0.231083	-0.000117
H118	H	0.668936	-0.301608	0.050053
H119	H	0.673176	-0.306654	-0.050307
C120	C	0.940837	-0.312810	-0.000138
H121	H	0.981086	-0.282536	-0.000123
H122	H	0.943190	-0.347536	-0.050319
H123	H	0.938938	-0.342485	0.050041
C124	C	0.907586	0.011925	0.390280
H125	H	0.935663	-0.021827	0.350335
H126	H	0.879066	-0.018758	0.425636
H127	H	0.936828	0.041762	0.425587
