data_functionalizedCrystal
_audit_creation_method	'MofGen! by Chris Wilmer'
_symmetry_space_group_name_H-M	'P1'
_symmetry_Int_Tables_number	1
_symmetry_cell_setting	triclinic
loop_
_symmetry_equiv_pos_as_xyz
  x,y,z
_cell_length_a	17.699083
_cell_length_b	17.699083
_cell_length_c	14.586319
_cell_angle_alpha	90.002525
_cell_angle_beta	89.997335
_cell_angle_gamma	96.716986
loop_
_atom_site_label
_atom_site_type_symbol
_atom_site_fract_x
_atom_site_fract_y
_atom_site_fract_z
O1	O	-0.095710	1.004075	-0.076099
O2	O	-0.108163	0.783696	-0.076127
O3	O	0.008253	0.900112	-0.076121
O4	O	-0.212126	0.887659	-0.076105
O5	O	0.008254	0.900104	0.076360
O6	O	-0.108161	0.783688	0.076354
O7	O	-0.095709	1.004067	0.076382
Cu8	Cu	-0.101935	0.893877	0.090291
Cu9	Cu	-0.101937	0.893886	-0.090036
O10	O	-0.212124	0.887651	0.076376
C11	C	-0.107716	0.755495	0.000109
C12	C	-0.106377	0.671477	0.000098
C13	C	-0.174710	0.622856	0.000103
C14	C	-0.173448	0.543913	0.000115
C15	C	-0.103852	0.513592	0.000115
C16	C	-0.035513	0.562219	0.000112
C17	C	-0.036776	0.641161	0.000107
C18	C	-0.030418	0.243856	0.000135
C19	C	-0.029160	0.164908	0.000137
C20	C	-0.167090	0.146608	0.000143
C21	C	-0.168353	0.225550	0.000137
C22	C	-0.100015	0.274170	0.000140
C23	C	-0.101384	0.359769	0.000129
C24	C	-0.102481	0.427995	0.000119
C25	C	-0.240322	0.888102	0.000138
C26	C	-0.324340	0.889440	0.000145
C27	C	-0.372961	0.821107	0.000136
C28	C	-0.451904	0.822369	0.000125
C29	C	-0.482225	0.891965	0.000130
C30	C	-0.433598	0.960304	0.000136
C31	C	-0.354656	0.959041	0.000140
C32	C	-0.751961	0.965399	0.000119
C33	C	-0.830909	0.966657	0.000117
C34	C	-0.849209	0.828727	0.000104
C35	C	-0.770267	0.827464	0.000108
C36	C	-0.721647	0.895803	0.000109
C37	C	-0.636048	0.894433	0.000119
C38	C	-0.567823	0.893336	0.000127
C39	C	0.036451	0.899662	0.000115
C40	C	0.120469	0.898323	0.000102
C41	C	-0.096156	1.032268	0.000143
C42	C	-0.097494	1.116286	0.000149
N43	N	-0.101933	0.893876	0.217122
N44	N	-0.101933	0.893894	-0.216867
C45	C	-0.050401	0.945441	0.452131
C46	C	-0.050399	0.945444	0.548113
C47	C	-0.153467	0.842322	0.548117
C48	C	-0.153464	0.842317	0.452137
C49	C	-0.101932	0.893881	0.404147
C50	C	-0.101933	0.893888	0.596108
C51	C	-0.101931	0.893890	0.700175
C52	C	-0.101933	0.893878	0.300073
H53	H	-0.222734	0.107012	0.000146
N54	N	0.005197	1.001035	0.400372
H55	H	-0.002616	0.993208	0.332287
H56	H	-0.003464	1.054715	0.417141
N57	N	-0.504344	0.748665	0.000114
H58	H	-0.537514	0.746113	0.056632
H59	H	-0.537446	0.746163	-0.056454
N60	N	-0.699529	1.039105	0.000136
H61	H	-0.644918	1.027750	0.000134
H62	H	-0.709330	1.069446	-0.056386
N63	N	-0.209054	0.786721	0.599881
H64	H	-0.241698	0.754056	0.554916
H65	H	-0.180125	0.753318	0.639708
H66	H	-0.195427	0.800327	0.413066
H67	H	-0.229092	0.504328	0.000118
N68	N	-0.249776	0.655557	0.000093
H69	H	-0.292873	0.612774	0.000099
H70	H	-0.253307	0.687918	0.056615
N71	N	-0.243418	0.258250	0.000147
H72	H	-0.233849	0.315638	0.000144
H73	H	-0.273318	0.240452	-0.056374
H74	H	-0.008437	0.987428	0.587179
H75	H	-0.348280	0.764433	0.000143
N76	N	-0.737574	0.752395	0.000100
H77	H	-0.705224	0.748800	-0.056423
H78	H	-0.705272	0.748836	0.056664
N79	N	0.045908	0.132203	0.000138
H80	H	0.089009	0.174981	0.000141
H81	H	0.049429	0.099849	0.056665
N82	N	-0.863609	1.041728	0.000118
H83	H	-0.895954	1.045323	-0.056405
H84	H	-0.895917	1.045278	0.056682
N85	N	-0.466296	1.035371	0.000150
H86	H	-0.523684	1.025803	0.000155
H87	H	-0.448499	1.065255	0.056685
H88	H	0.025228	0.283434	0.000137
H89	H	0.021154	0.537526	0.000125
H90	H	-0.315069	1.014685	0.000144
N91	N	0.036929	0.693601	0.000106
H92	H	0.067302	0.683863	-0.056418
H93	H	0.025508	0.748190	0.000142
N94	N	-0.901658	0.755022	0.000107
H95	H	-0.934817	0.752467	-0.056418
H96	H	-0.870423	0.710781	0.000147
