data_functionalizedCrystal
_audit_creation_method	'MofGen! by Chris Wilmer'
_symmetry_space_group_name_H-M	'P1'
_symmetry_Int_Tables_number	1
_symmetry_cell_setting	triclinic
loop_
_symmetry_equiv_pos_as_xyz
  x,y,z
_cell_length_a	14.519709
_cell_length_b	15.538191
_cell_length_c	14.750779
_cell_angle_alpha	82.427828
_cell_angle_beta	77.332886
_cell_angle_gamma	114.523881
loop_
_atom_site_label
_atom_site_type_symbol
_atom_site_fract_x
_atom_site_fract_y
_atom_site_fract_z
O1	O	-0.272518	-1.229003	-0.079831
O2	O	-0.166092	-0.954923	-0.079833
O3	O	-0.355991	-1.099232	-0.079824
O4	O	-0.082619	-1.084694	-0.079841
O5	O	-0.409668	-1.140026	0.079829
O6	O	-0.219769	-0.995717	0.079820
O7	O	-0.326196	-1.269797	0.079821
Zn8	Zn	-0.281505	-1.139234	0.105169
Zn9	Zn	-0.210782	-1.085486	-0.105181
O10	O	-0.136297	-1.125488	0.079812
C11	C	-0.416961	-1.118952	0.000003
C12	C	-0.518660	-1.116922	0.000004
C13	C	-0.181796	-0.940243	-0.000007
C14	C	-0.148628	-0.835725	-0.000007
N15	N	-0.329774	-1.175923	0.248727
C16	C	-0.891034	-1.109444	-0.000021
C17	C	-0.787427	-1.111521	-0.000014
C18	C	-0.704851	-1.113183	-0.000008
C19	C	-0.601236	-1.115260	-0.000003
C20	C	-0.075325	-1.105768	-0.000017
C21	C	0.026375	-1.107796	-0.000024
C22	C	-0.310491	-1.284476	-0.000007
C23	C	-0.343656	-1.388993	-0.000013
C24	C	-0.478139	-0.547381	-0.000001
C25	C	-0.446949	-0.449167	-0.000004
C26	C	-0.271514	-0.427017	-0.000015
C27	C	-0.302691	-0.525232	-0.000007
C28	C	-0.406004	-0.585407	-0.000002
C29	C	-0.230557	-0.563258	-0.000008
C30	C	-0.261730	-0.661464	-0.000005
C31	C	-0.365037	-0.721643	-0.000003
C32	C	-0.437177	-0.683612	0.000001
C33	C	-0.127242	-0.503080	-0.000020
C34	C	-0.055108	-0.541106	-0.000021
C35	C	-0.086282	-0.639315	-0.000012
C36	C	-0.189590	-0.699494	-0.000009
C37	C	-0.014142	-0.677346	-0.000015
C38	C	-0.045315	-0.775551	-0.000013
C39	C	-0.220763	-0.797700	-0.000006
N40	N	-0.162523	-1.048805	-0.248739
C41	C	-0.027755	-0.946338	0.600530
C42	C	-0.061575	-0.972054	0.701031
C43	C	-0.229693	-1.099866	0.701002
C44	C	-0.195889	-1.074158	0.600499
C45	C	-0.094918	-0.997394	0.550271
C46	C	-0.263052	-1.125213	0.550240
C47	C	-0.229248	-1.099510	0.449746
C48	C	-0.128281	-1.022751	0.399511
C49	C	-0.061114	-0.971690	0.449777
C50	C	-0.364019	-1.201982	0.600470
C51	C	-0.431183	-1.253037	0.550211
C52	C	-0.397382	-1.227330	0.449715
C53	C	-0.296415	-1.150571	0.399480
C54	C	-0.464549	-1.278390	0.399449
C55	C	-0.430745	-1.252687	0.298955
C56	C	-0.262611	-1.124867	0.298986
H57	H	-0.304892	-0.846699	0.000004
N58	N	-0.573447	-1.361182	0.453632
H59	H	-0.610868	-1.389626	0.406543
H60	H	-0.566084	-1.413520	0.495311
H61	H	-0.006872	-0.930472	0.741947
N62	N	-0.398658	-0.827566	0.000006
H63	H	-0.460508	-0.870687	0.059192
H64	H	-0.420654	-0.840364	-0.059214
N65	N	0.047789	-0.888889	0.395598
H66	H	0.090608	-0.914262	0.353892
H67	H	0.040418	-0.836522	0.353970
N68	N	-0.548612	-0.748529	0.000021
H69	H	-0.589586	-0.709542	0.000026
H70	H	-0.545470	-0.774636	-0.059163
H71	H	-0.485437	-1.294263	0.258034
N72	N	-0.153708	-1.042066	0.244807
H73	H	-0.110889	-1.067439	0.203101
H74	H	-0.161079	-0.989699	0.203179
H75	H	-0.562268	-0.596381	0.000009
N76	N	-0.524754	-0.408151	-0.000009
H77	H	-0.594929	-0.461175	-0.000007
H78	H	-0.535545	-0.383008	0.059174
N79	N	-0.338593	-1.182654	0.755188
H80	H	-0.394504	-1.167227	0.737703
H81	H	-0.344327	-1.244976	0.737662
N82	N	-0.160087	-0.362112	-0.000026
H83	H	-0.151282	-0.294128	-0.000029
H84	H	-0.147132	-0.389563	0.059161
H85	H	-0.391537	-1.222909	0.682299
H86	H	-0.101863	-0.423115	-0.000025
N87	N	-0.540080	-1.335834	0.604388
H88	H	-0.551305	-1.344372	0.675677
H89	H	-0.595926	-1.320356	0.586827
H90	H	0.054461	-0.883822	0.559633
N91	N	0.056320	-0.476201	-0.000032
H92	H	0.065125	-0.408217	-0.000035
H93	H	0.069275	-0.503652	0.059154
N94	N	0.097287	-0.612444	-0.000028
H95	H	0.134030	-0.556088	-0.059216
H96	H	0.094152	-0.586392	0.059190
N97	N	0.032483	-0.816572	-0.000017
H98	H	0.102660	-0.763551	-0.000019
H99	H	0.003468	-0.871959	0.059168
H100	H	-0.100757	-1.001827	0.317682
