data_functionalizedCrystal
_audit_creation_method	'MofGen! by Chris Wilmer'
_symmetry_space_group_name_H-M	'P1'
_symmetry_Int_Tables_number	1
_symmetry_cell_setting	triclinic
loop_
_symmetry_equiv_pos_as_xyz
  x,y,z
_cell_length_a	27.731993
_cell_length_b	14.519709
_cell_length_c	13.596369
_cell_angle_alpha	90.006934
_cell_angle_beta	90.006205
_cell_angle_gamma	96.849731
loop_
_atom_site_label
_atom_site_type_symbol
_atom_site_fract_x
_atom_site_fract_y
_atom_site_fract_z
O1	O	0.641468	-0.109493	-0.081529
O2	O	0.500751	-0.126230	-0.081589
O3	O	0.574841	0.016443	-0.081549
O4	O	0.567379	-0.252166	-0.081570
O5	O	0.574833	0.016450	0.082034
O6	O	0.500744	-0.126223	0.081994
O7	O	0.641461	-0.109486	0.082054
Zn8	Zn	0.571101	-0.117853	0.107996
Zn9	Zn	0.571111	-0.117863	-0.107531
O10	O	0.567371	-0.252159	0.082013
C11	C	0.482738	-0.125883	0.000195
C12	C	0.429077	-0.124849	0.000172
C13	C	0.574489	0.050800	0.000243
C14	C	0.573447	0.153163	0.000243
N15	N	0.571098	-0.117846	0.255088
C16	C	0.045885	-0.117354	-0.088949
C17	C	0.247561	-0.121297	-0.088976
O18	O	0.273640	-0.121773	-0.164813
N19	N	0.272780	-0.121787	0.000191
C20	C	0.247577	-0.121284	0.089371
O21	O	0.273655	-0.121781	0.165213
C22	C	0.045902	-0.117334	0.089397
C23	C	0.020685	-0.116854	0.000224
C24	C	0.020668	-0.116873	-0.178114
C25	C	-0.029748	-0.115892	-0.178107
C26	C	-0.054948	-0.115392	-0.088934
C27	C	-0.029731	-0.115873	0.000232
C28	C	0.020700	-0.116825	0.178576
C29	C	-0.029722	-0.115835	0.178575
C30	C	-0.054938	-0.115355	0.089402
C31	C	-0.105347	-0.114393	0.089413
N32	N	-0.130566	-0.113903	0.000246
C33	C	-0.105366	-0.114403	-0.088927
C34	C	0.353459	-0.123360	0.089351
C35	C	0.403877	-0.124349	0.089345
C36	C	0.403858	-0.124360	-0.089002
C37	C	0.353439	-0.123378	-0.088995
C38	C	0.328240	-0.122870	0.000184
C39	C	-0.211244	-0.112344	-0.088905
C40	C	-0.261665	-0.111367	-0.088889
C41	C	-0.261642	-0.111351	0.089458
C42	C	-0.211225	-0.112333	0.089443
C43	C	-0.186028	-0.112826	0.000254
O44	O	-0.131456	-0.113905	0.165210
O45	O	-0.131452	-0.113885	-0.164757
C46	C	0.096301	-0.118334	-0.088957
C47	C	0.121518	-0.118815	0.000209
C48	C	0.096318	-0.118316	0.089382
C49	C	0.171936	-0.119805	0.000203
C50	C	0.197136	-0.120304	-0.088970
C51	C	0.171918	-0.119815	-0.178137
C52	C	0.121501	-0.118834	-0.178130
C53	C	0.121537	-0.118805	0.178549
C54	C	0.171953	-0.119787	0.178534
C55	C	0.197153	-0.120287	0.089361
C56	C	0.659474	-0.109833	0.000268
C57	C	0.713135	-0.110867	0.000284
C58	C	0.567723	-0.286516	0.000220
C59	C	0.568765	-0.388879	0.000213
C60	C	0.569611	0.527991	0.000216
C61	C	0.570676	0.423702	0.000224
C62	C	0.571529	0.340580	0.000230
C63	C	0.572594	0.236285	0.000236
N64	N	0.571118	-0.117863	-0.254623
C65	C	0.571110	-0.117864	0.656379
C66	C	0.571105	-0.117862	0.544728
C67	C	0.571104	-0.117856	0.455737
C68	C	0.571099	-0.117852	0.344079
H69	H	-0.282195	-0.110979	-0.161507
H70	H	-0.190734	-0.112747	-0.161531
H71	H	-0.190694	-0.112742	0.162055
F72	F	0.094670	-0.118323	-0.273041
H73	H	-0.050275	-0.115497	-0.250721
F74	F	0.047481	-0.117402	-0.273033
F75	F	0.430708	-0.124877	0.184255
F76	F	0.430686	-0.124895	-0.183908
H77	H	0.041223	-0.117213	0.251190
H78	H	0.332911	-0.122987	-0.161608
F79	F	-0.056536	-0.115289	0.273495
F80	F	0.326646	-0.122829	0.184275
F81	F	-0.288470	-0.110823	0.184357
H82	H	0.192444	-0.120227	-0.250745
H83	H	0.192480	-0.120185	0.251155
H84	H	0.101025	-0.118393	0.251166
