data_functionalizedCrystal
_audit_creation_method	'MofGen! by Chris Wilmer'
_symmetry_space_group_name_H-M	'P1'
_symmetry_Int_Tables_number	1
_symmetry_cell_setting	triclinic
loop_
_symmetry_equiv_pos_as_xyz
  x,y,z
_cell_length_a	12.759401
_cell_length_b	12.645330
_cell_length_c	12.759393
_cell_angle_alpha	89.967817
_cell_angle_beta	89.980316
_cell_angle_gamma	90.011760
loop_
_atom_site_label
_atom_site_type_symbol
_atom_site_fract_x
_atom_site_fract_y
_atom_site_fract_z
Zn1	Zn	1.606270	-0.422002	-0.594010
Zn2	Zn	1.606171	-0.599306	-0.418328
Zn3	Zn	1.430572	-0.422054	-0.418346
Zn4	Zn	1.430567	-0.599221	-0.593966
O5	O	1.518395	-0.510646	-0.506163
O6	O	1.753278	-0.445535	-0.570717
O7	O	1.582838	-0.575850	-0.271310
O8	O	1.453923	-0.273700	-0.441674
O9	O	1.753205	-0.575800	-0.441644
O10	O	1.583007	-0.273662	-0.570734
O11	O	1.453826	-0.445624	-0.271322
O12	O	1.283551	-0.445542	-0.441631
O13	O	1.453914	-0.575655	-0.740993
O14	O	1.283547	-0.575706	-0.570659
O15	O	1.583002	-0.445453	-0.741025
O16	O	1.582833	-0.747642	-0.441601
O17	O	1.453818	-0.747580	-0.570642
C18	C	1.245428	-0.510621	-0.506143
C19	C	1.128651	-0.510636	-0.506159
C20	C	1.073760	-0.442771	-0.439098
C21	C	0.964036	-0.442796	-0.439111
C22	C	0.964104	-0.578555	-0.573256
C23	C	1.073826	-0.578534	-0.573237
C24	C	1.128586	-0.374873	-0.372021
C25	C	1.073695	-0.307001	-0.304955
C26	C	0.963971	-0.307026	-0.304968
C27	C	0.909138	-0.374923	-0.372047
C28	C	1.518343	-0.786075	-0.506138
C29	C	1.518416	-0.903905	-0.506162
C30	C	1.599449	-1.071465	-0.424818
C31	C	1.599713	-0.948904	-0.425017
C32	C	1.548444	-0.948278	-0.616907
C33	C	1.549087	-1.070876	-0.616475
C34	C	1.407324	-1.071234	-0.477853
C35	C	1.407856	-0.948630	-0.475369
C36	C	1.792429	-0.510671	-0.506183
C37	C	1.909205	-0.510682	-0.506192
C38	C	1.518469	-0.510539	-0.780196
C39	C	1.518500	-0.510493	-0.896973
C40	C	1.518477	-0.234140	-0.506211
C41	C	1.518511	-0.116310	-0.506231
C42	C	1.585726	-0.442690	-0.951853
C43	C	1.585751	-0.442652	-1.061578
C44	C	1.451322	-0.578228	-1.061531
C45	C	1.451292	-0.578261	-0.951809
C46	C	1.652934	-0.374923	-0.897017
C47	C	1.720166	-0.307116	-0.951898
C48	C	1.720191	-0.307077	-1.061622
C49	C	1.652984	-0.374846	-1.116466
C50	C	1.518382	-0.510676	-0.233195
C51	C	1.518555	-0.510423	-0.116419
H52	H	0.819793	-0.374943	-0.372048
C53	C	1.794084	-0.232569	-0.891568
N54	N	1.849761	-0.176419	-0.846129
C55	C	1.134209	-0.653185	-0.647012
N56	N	1.179690	-0.709415	-0.702581
H57	H	1.774926	-0.251858	-1.106303
H58	H	0.919450	-0.633832	-0.627870
H59	H	1.628799	-0.917489	-0.641346
H60	H	1.396605	-0.633402	-1.106193
C61	C	0.903594	-0.232367	-0.231195
N62	N	0.858120	-0.176126	-0.175632
H63	H	1.396535	-0.633455	-0.907124
H64	H	1.580926	-0.918908	-0.342902
H65	H	1.491287	-0.919126	-0.679191
C66	C	1.574396	-1.111409	-0.313557
N67	N	1.555523	-1.141501	-0.229753
C68	C	1.653010	-0.374795	-1.237166
N69	N	1.653034	-0.374759	-1.328077
H70	H	1.347018	-1.100235	-0.537149
H71	H	1.118347	-0.251728	-0.250336
C72	C	1.249284	-0.374841	-0.371998
N73	N	1.340195	-0.374818	-0.371981
C74	C	1.370439	-1.113125	-0.370651
N75	N	1.342669	-1.144678	-0.289902
H76	H	1.681361	-1.102194	-0.443378
C77	C	1.710971	-0.909170	-0.450367
N78	N	1.794776	-0.879244	-0.469461
C79	C	1.658887	-1.109397	-0.648936
N80	N	1.741592	-1.138405	-0.673382
H81	H	1.492718	-1.100537	-0.679224
C82	C	1.377259	-0.909452	-0.365274
N83	N	1.354213	-0.879934	-0.282352
H84	H	1.344298	-0.918009	-0.530319
H85	H	1.652923	-0.374949	-0.807675
