data_functionalizedCrystal
_audit_creation_method	'MofGen! by Chris Wilmer'
_symmetry_space_group_name_H-M	'P1'
_symmetry_Int_Tables_number	1
_symmetry_cell_setting	triclinic
loop_
_symmetry_equiv_pos_as_xyz
  x,y,z
_cell_length_a	10.967819
_cell_length_b	9.482900
_cell_length_c	16.992695
_cell_angle_alpha	99.973796
_cell_angle_beta	92.377520
_cell_angle_gamma	111.293645
loop_
_atom_site_label
_atom_site_type_symbol
_atom_site_fract_x
_atom_site_fract_y
_atom_site_fract_z
O1	O	1.751102	0.559604	-0.053681
O2	O	1.374623	0.465287	-0.073710
O3	O	1.561351	0.512055	0.050416
O4	O	1.564374	0.512835	-0.177807
O5	O	1.523433	0.260765	0.025105
O6	O	1.336705	0.213997	-0.099021
O7	O	1.713183	0.308314	-0.078992
Cu8	Cu	1.521482	0.238211	-0.091317
Cu9	Cu	1.566325	0.535390	-0.061384
O10	O	1.526455	0.261546	-0.203117
C11	C	1.307269	0.327518	-0.086820
C12	C	1.163065	0.291391	-0.088164
C13	C	0.969386	0.368150	-0.077046
C14	C	1.118428	0.405480	-0.075652
N15	N	1.489951	0.029193	-0.112370
C16	C	1.557015	-0.026209	-0.067590
C17	C	1.530791	-0.200194	-0.085112
C18	C	1.780538	0.446086	-0.065882
C19	C	1.924743	0.482223	-0.064536
C20	C	1.538509	0.385438	0.066895
C21	C	1.526923	0.382536	0.153707
N22	N	1.597865	0.744410	-0.040326
C23	C	1.549298	0.388166	-0.219596
C24	C	1.560885	0.391078	-0.306407
C25	C	1.638710	0.410539	0.206189
C26	C	1.627818	0.407824	0.287758
C27	C	1.505138	0.377095	0.316844
C28	C	1.393344	0.349094	0.264356
C29	C	1.404238	0.351820	0.182789
C30	C	1.459985	0.365803	0.559538
C31	C	1.449099	0.363075	0.641111
C32	C	1.683575	0.421809	0.664508
C33	C	1.694457	0.424523	0.582938
C34	C	1.582664	0.396530	0.530458
N35	N	1.494001	0.374314	0.400220
N36	N	1.593804	0.399321	0.447084
H37	H	1.090951	0.166084	-0.099912
H38	H	1.738608	0.435553	0.182514
H39	H	0.996862	0.607521	-0.052798
O40	O	1.736280	0.434803	0.338799
C41	C	1.840440	0.335605	0.431338
C42	C	1.717510	0.304856	0.373571
H43	H	1.825318	0.230553	0.459454
H44	H	1.857072	0.440899	0.480742
H45	H	1.929989	0.358099	0.396533
H46	H	1.627887	0.282292	0.408307
H47	H	1.700994	0.199600	0.324167
H48	H	1.368955	0.343009	0.516818
O49	O	0.883499	0.218609	-0.090959
C50	C	0.814044	-0.024002	-0.046859
C51	C	0.911410	0.145314	-0.031021
H52	H	0.836558	-0.083302	0.001599
H53	H	0.824240	-0.086582	-0.108354
H54	H	0.709179	-0.027435	-0.045523
H55	H	1.016317	0.148888	-0.032316
H56	H	0.901099	0.207821	0.030463
O57	O	1.813559	0.454109	0.554619
C58	C	1.942258	0.361131	0.462957
C59	C	1.807319	0.327418	0.494972
H60	H	1.937250	0.258738	0.414715
H61	H	2.020335	0.380602	0.514436
H62	H	1.969066	0.469081	0.435979
H63	H	1.780388	0.219455	0.521940
H64	H	1.729321	0.308043	0.443465
H65	H	1.633841	0.055161	-0.016277
O66	O	1.438947	-0.297237	-0.146247
C67	C	1.210976	-0.401185	-0.201812
C68	C	1.314847	-0.291255	-0.132520
H69	H	1.110623	-0.396362	-0.190747
H70	H	1.206041	-0.524257	-0.205041
H71	H	1.239397	-0.364236	-0.260983
H72	H	1.286501	-0.328064	-0.073312
H73	H	1.319763	-0.168209	-0.129363
O74	O	1.204333	0.555037	-0.061530
C75	C	1.289092	0.801474	0.030496
C76	C	1.191724	0.632155	0.014600
H77	H	1.278951	0.863865	0.092053
H78	H	1.266538	0.860965	-0.017859
H79	H	1.393950	0.804909	0.029081
H80	H	1.086831	0.628579	0.016029
H81	H	1.214392	0.572738	0.062956
O82	O	1.689216	-0.158599	0.021060
C83	C	1.731513	0.023467	0.146589
C84	C	1.628038	-0.086165	0.077032
H85	H	1.682085	0.082036	0.191869
H86	H	1.811301	0.114985	0.121914
H87	H	1.777750	-0.045555	0.177505
H88	H	1.581701	-0.017273	0.046088
H89	H	1.548331	-0.177685	0.101754
H90	H	1.293456	0.324083	0.288044
O91	O	1.398111	-0.067853	-0.173501
C92	C	1.170141	-0.171802	-0.229067
C93	C	1.274012	-0.061872	-0.159775
H94	H	1.069788	-0.166979	-0.218001
H95	H	1.165206	-0.294873	-0.232295
H96	H	1.198562	-0.134852	-0.288238
H97	H	1.245666	-0.098681	-0.100566
H98	H	1.278928	0.061174	-0.156617
H99	H	1.774590	0.444602	0.707246
H100	H	1.349189	0.338026	0.664786
O101	O	1.295507	0.324517	0.131908
C102	C	1.061806	0.266076	0.117315
C103	C	1.184833	0.296923	0.175019
H104	H	0.972300	0.243791	0.152150
H105	H	1.045075	0.160674	0.067961
H106	H	1.076992	0.371048	0.089118
H107	H	1.169739	0.192042	0.203274
H108	H	1.201527	0.402382	0.224325
