data_functionalizedCrystal
_audit_creation_method	'MofGen! by Chris Wilmer'
_symmetry_space_group_name_H-M	'P1'
_symmetry_Int_Tables_number	1
_symmetry_cell_setting	triclinic
loop_
_symmetry_equiv_pos_as_xyz
  x,y,z
_cell_length_a	10.489741
_cell_length_b	10.489741
_cell_length_c	8.965430
_cell_angle_alpha	90.001157
_cell_angle_beta	90.000707
_cell_angle_gamma	95.460826
loop_
_atom_site_label
_atom_site_type_symbol
_atom_site_fract_x
_atom_site_fract_y
_atom_site_fract_z
O1	O	0.179958	-1.694053	-0.123946
O2	O	0.196851	-1.322858	-0.123969
O3	O	0.002807	-1.516902	-0.123948
O4	O	0.374003	-1.500009	-0.123967
O5	O	0.002820	-1.516886	0.124130
O6	O	0.196864	-1.322841	0.124110
O7	O	0.179971	-1.694037	0.124133
Cu8	Cu	0.188419	-1.508438	0.146773
Cu9	Cu	0.188404	-1.508457	-0.146609
O10	O	0.374016	-1.499993	0.124112
C11	C	-0.044718	-1.515618	0.000090
C12	C	-0.186348	-1.511801	0.000087
C13	C	0.195582	-1.275318	0.000067
C14	C	0.191765	-1.133688	0.000059
C15	C	0.181241	-1.741577	0.000093
C16	C	0.185058	-1.883206	0.000092
C17	C	-0.254488	-1.388336	0.000069
C18	C	-0.346604	-1.446652	0.122388
C19	C	-0.346591	-1.446697	-0.122198
C20	C	-0.276599	-1.570167	0.122508
C21	C	-0.276576	-1.570195	-0.122189
C22	C	-0.368665	-1.628600	0.000161
C23	C	0.421541	-1.501277	0.000070
C24	C	0.563170	-1.505094	0.000063
N25	N	0.188429	-1.508433	0.353122
C26	C	0.068300	-1.065548	0.000079
C27	C	0.126617	-0.973430	-0.122237
C28	C	0.126659	-0.973447	0.122349
C29	C	0.250133	-1.043435	-0.122358
C30	C	0.250158	-1.043462	0.122338
C31	C	0.308564	-0.951371	-0.000007
N32	N	0.188384	-1.508471	-0.352958
C33	C	0.278138	-1.418666	0.450418
C34	C	0.303949	-1.534163	0.549838
C35	C	0.162629	-1.392986	0.549830
C36	C	0.214298	-1.623988	0.450352
C37	C	0.072927	-1.482735	0.450336
C38	C	0.098690	-1.598314	0.549711
H39	H	-0.377610	-1.394404	0.225794
H40	H	0.074402	-0.942463	0.225758
H41	H	-0.204837	-1.286824	0.000185
C42	C	-0.173564	-1.747573	0.219171
C43	C	-0.234978	-1.640615	0.262272
H44	H	-0.147861	-1.791054	0.305457
H45	H	-0.230815	-1.803663	0.162014
H46	H	-0.100352	-1.720531	0.160829
H47	H	-0.308196	-1.667658	0.320605
H48	H	-0.177724	-1.584515	0.319453
H49	H	-0.245537	-1.622398	-0.225600
H50	H	-0.024699	-1.460937	0.406596
C51	C	-0.330220	-1.250367	-0.261561
C52	C	-0.388415	-1.376166	-0.261807
H53	H	-0.356031	-1.206824	-0.347750
H54	H	-0.355368	-1.207336	-0.174720
H55	H	-0.239791	-1.251630	-0.262071
H56	H	-0.478845	-1.374903	-0.261286
H57	H	-0.363276	-1.419207	-0.348671
H58	H	0.302361	-1.074502	0.225749
H59	H	-0.033196	-1.115238	-0.000069
H60	H	0.410168	-0.901947	-0.000079
H61	H	0.074371	-0.942422	-0.225643
C62	C	0.354816	-1.195641	0.443923
C63	C	0.380639	-1.316285	0.391545
H64	H	0.418103	-1.132444	0.407581
H65	H	0.272833	-1.177174	0.409845
H66	H	0.356022	-1.195483	0.549871
H67	H	0.379424	-1.316446	0.285597
H68	H	0.462645	-1.334757	0.425615
C69	C	0.023553	-1.821683	0.557725
C70	C	-0.003752	-1.700922	0.608217
H71	H	-0.039683	-1.885028	0.593857
H72	H	0.023484	-1.822684	0.451789
H73	H	0.105372	-1.839242	0.593311
H74	H	-0.085567	-1.683358	0.572621
H75	H	-0.003696	-1.699918	0.714175
H76	H	0.140828	-1.295338	0.593530
H77	H	-0.418089	-1.730204	0.000235
H78	H	0.302327	-1.074270	-0.225883
H79	H	0.401606	-1.555925	0.593543
C80	C	0.355360	-1.741696	0.304816
C81	C	0.243975	-1.755833	0.391679
H82	H	0.373710	-1.823087	0.268616
H83	H	0.343025	-1.686655	0.223016
H84	H	0.424891	-1.705775	0.363919
H85	H	0.174442	-1.791745	0.332573
H86	H	0.256303	-1.810894	0.473491
