data_functionalizedCrystal
_audit_creation_method	'MofGen! by Chris Wilmer'
_symmetry_space_group_name_H-M	'P1'
_symmetry_Int_Tables_number	1
_symmetry_cell_setting	triclinic
loop_
_symmetry_equiv_pos_as_xyz
  x,y,z
_cell_length_a	19.805407
_cell_length_b	18.050590
_cell_length_c	19.805398
_cell_angle_alpha	89.971550
_cell_angle_beta	89.986879
_cell_angle_gamma	90.018553
loop_
_atom_site_label
_atom_site_type_symbol
_atom_site_fract_x
_atom_site_fract_y
_atom_site_fract_z
Zn1	Zn	1.034730	-0.295669	-0.382720
Zn2	Zn	1.368063	0.037664	-0.049387
Zn3	Zn	1.701396	0.370998	0.283946
Zn4	Zn	1.034673	-0.419864	-0.269532
Zn5	Zn	1.368006	-0.086530	0.063801
Zn6	Zn	1.701339	0.246803	0.397134
Zn7	Zn	0.921557	-0.295692	-0.269545
Zn8	Zn	1.254890	0.037641	0.063788
Zn9	Zn	1.588224	0.370975	0.397122
Zn10	Zn	0.921523	-0.419822	-0.382679
Zn11	Zn	1.254857	-0.086488	-0.049346
Zn12	Zn	1.588190	0.246845	0.283987
O13	O	0.978121	-0.357762	-0.326119
O14	O	1.311454	-0.024428	0.007214
O15	O	1.644787	0.308905	0.340547
O16	O	1.129439	-0.312152	-0.367718
O17	O	1.462772	0.021182	-0.034384
O18	O	1.796105	0.354515	0.298949
O19	O	1.019658	-0.403419	-0.174817
O20	O	1.352991	-0.070085	0.158516
O21	O	1.686325	0.263248	0.491849
O22	O	0.936607	-0.191764	-0.284580
O23	O	1.269941	0.141569	0.048753
O24	O	1.603274	0.474902	0.382086
O25	O	1.129397	-0.403397	-0.284559
O26	O	1.462730	-0.070063	0.048774
O27	O	1.796063	0.263270	0.382108
O28	O	1.019755	-0.191748	-0.367730
O29	O	1.353088	0.141586	-0.034397
O30	O	1.686422	0.474919	0.298937
O31	O	0.936552	-0.312190	-0.174827
O32	O	1.269886	0.021143	0.158507
O33	O	1.603219	0.354476	0.491840
O34	O	0.826836	-0.312150	-0.284540
O35	O	1.160169	0.021183	0.048793
O36	O	1.493503	0.354517	0.382126
O37	O	0.936550	-0.403326	-0.477401
O38	O	1.269883	-0.069992	-0.144068
O39	O	1.603217	0.263341	0.189265
O40	O	0.826811	-0.403348	-0.367660
O41	O	1.160144	-0.070014	-0.034326
O42	O	1.493478	0.263319	0.299007
O43	O	1.019722	-0.312111	-0.477432
O44	O	1.353056	0.021222	-0.144098
O45	O	1.686389	0.354555	0.189235
O46	O	1.019625	-0.523783	-0.284519
O47	O	1.352959	-0.190449	0.048814
O48	O	1.686292	0.142884	0.382148
O49	O	0.936495	-0.523752	-0.367648
O50	O	1.269828	-0.190419	-0.034314
O51	O	1.603161	0.142915	0.299019
C52	C	0.802265	-0.357747	-0.326097
C53	C	1.135598	-0.024414	0.007236
C54	C	1.468931	0.308919	0.340569
C55	C	0.727033	-0.357759	-0.326104
C56	C	1.060366	-0.024426	0.007229
C57	C	1.393699	0.308907	0.340563
C58	C	0.691693	-0.405317	-0.369314
C59	C	1.025027	-0.071984	-0.035981
C60	C	1.358360	0.261349	0.297352
C61	C	0.621005	-0.405319	-0.369324
C62	C	0.954338	-0.071985	-0.035990
C63	C	1.287671	0.261348	0.297343
C64	C	0.585657	-0.357765	-0.326119
C65	C	0.918990	-0.024432	0.007214
C66	C	1.252324	0.308902	0.340547
C67	C	0.621001	-0.310202	-0.282907
C68	C	0.954335	0.023132	0.050426
C69	C	1.287668	0.356465	0.383759
C70	C	0.691688	-0.310197	-0.282902
C71	C	1.025022	0.023136	0.050432
C72	C	1.358355	0.356470	0.383765
C73	C	0.335928	-0.310218	-0.282930
C74	C	0.669261	0.023115	0.050404
C75	C	1.002595	0.356449	0.383737
C76	C	0.265236	-0.310228	-0.282937
C77	C	0.598569	0.023106	0.050396
C78	C	0.931903	0.356439	0.383730
C79	C	0.265244	-0.405340	-0.369352
C80	C	0.598578	-0.072006	-0.036018
C81	C	0.931911	0.261327	0.297315
C82	C	0.335932	-0.405335	-0.369346
C83	C	0.669265	-0.072002	-0.036013
C84	C	1.002598	0.261332	0.297321
C85	C	0.371270	-0.357769	-0.326137
C86	C	0.704603	-0.024436	0.007196
C87	C	1.037936	0.308897	0.340530
C88	C	0.447918	-0.357767	-0.326128
C89	C	0.781251	-0.024434	0.007205
C90	C	1.114585	0.308899	0.340539
C91	C	0.509010	-0.357770	-0.326124
C92	C	0.842343	-0.024437	0.007209
C93	C	1.175677	0.308897	0.340542
C94	C	0.978069	-0.550714	-0.326092
C95	C	1.311402	-0.217380	0.007241
C96	C	1.644735	0.115953	0.340574
C97	C	0.978108	-0.633259	-0.326103
C98	C	1.311442	-0.299926	0.007230
C99	C	1.644775	0.033407	0.340563
C100	C	1.023409	-0.832700	-0.280961
C101	C	1.356742	-0.499366	0.052372
C102	C	1.690075	-0.166033	0.385705
C103	C	1.039934	-0.882032	-0.342736
C104	C	1.373268	-0.548699	-0.009403
C105	C	1.706601	-0.215366	0.323931
C106	C	0.978147	-0.784390	-0.326130
C107	C	1.311480	-0.451056	0.007203
C108	C	1.644813	-0.117723	0.340536
C109	C	0.961690	-0.882139	-0.264383
C110	C	1.295023	-0.548806	0.068950
C111	C	1.628357	-0.215472	0.402283
C112	C	0.978185	-0.930375	-0.326151
C113	C	1.311518	-0.597042	0.007182
C114	C	1.644852	-0.263708	0.340516
C115	C	0.994704	-0.832635	-0.387938
C116	C	1.328037	-0.499302	-0.054604
C117	C	1.661371	-0.165968	0.278729
C118	C	0.916431	-0.832737	-0.309543
C119	C	1.249764	-0.499404	0.023790
C120	C	1.583098	-0.166071	0.357124
C121	C	0.932933	-0.882048	-0.371361
C122	C	1.266266	-0.548714	-0.038027
C123	C	1.599600	-0.215381	0.295306
C124	C	0.978126	-0.700292	-0.326118
C125	C	1.311460	-0.366958	0.007216
C126	C	1.644793	-0.033625	0.340549
C127	C	0.978205	-1.014471	-0.326171
C128	C	1.311539	-0.681138	0.007163
C129	C	1.644872	-0.347805	0.340496
C130	C	1.154663	-0.357776	-0.326142
C131	C	1.487997	-0.024443	0.007192
C132	C	1.821330	0.308890	0.340525
C133	C	1.229895	-0.357783	-0.326151
C134	C	1.563229	-0.024449	0.007182
C135	C	1.896562	0.308884	0.340516
C136	C	0.978139	-0.357711	-0.502662
C137	C	1.311472	-0.024378	-0.169329
C138	C	1.644805	0.308955	0.164005
C139	C	0.978146	-0.357690	-0.577894
C140	C	1.311480	-0.024357	-0.244561
C141	C	1.644813	0.308977	0.088773
C142	C	0.978191	-0.164056	-0.326161
C143	C	1.311525	0.169277	0.007172
C144	C	1.644858	0.502611	0.340506
C145	C	0.978221	-0.081510	-0.326179
C146	C	1.311555	0.251823	0.007154
C147	C	1.644888	0.585156	0.340488
C148	C	1.021526	-0.405074	-1.039678
C149	C	1.354860	-0.071741	-0.706345
C150	C	1.688193	0.261592	-0.373011
C151	C	1.021507	-0.405095	-0.968990
C152	C	1.354841	-0.071761	-0.635656
C153	C	1.688174	0.261572	-0.302323
C154	C	0.978230	-0.357606	-0.933656
C155	C	1.311564	-0.024273	-0.600323
C156	C	1.644897	0.309060	-0.266989
C157	C	0.934964	-0.310100	-0.969015
C158	C	1.268298	0.023233	-0.635681
C159	C	1.601631	0.356567	-0.302348
C160	C	0.934980	-0.310084	-1.039702
C161	C	1.268314	0.023249	-0.706368
C162	C	1.601647	0.356583	-0.373035
C163	C	0.934899	-0.310163	-0.683941
C164	C	1.268232	0.023170	-0.350608
C165	C	1.601566	0.356503	-0.017274
C166	C	0.934888	-0.310181	-0.613249
C167	C	1.268221	0.023152	-0.279916
C168	C	1.601555	0.356485	0.053418
C169	C	1.021426	-0.405174	-0.613229
C170	C	1.354760	-0.071841	-0.279896
C171	C	1.688093	0.261493	0.053438
C172	C	1.021442	-0.405158	-0.683916
C173	C	1.354775	-0.071825	-0.350583
C174	C	1.688109	0.261508	-0.017249
C175	C	0.978174	-0.357655	-0.719269
C176	C	1.311507	-0.024322	-0.385935
C177	C	1.644841	0.309012	-0.052602
C178	C	0.978194	-0.357635	-0.795917
C179	C	1.311527	-0.024301	-0.462584
C180	C	1.644860	0.309032	-0.129250
C181	C	0.978213	-0.357622	-0.857009
C182	C	1.311547	-0.024289	-0.523675
C183	C	1.644880	0.309044	-0.190342
C184	C	0.978142	-0.357758	-0.150263
C185	C	1.311475	-0.024425	0.183070
C186	C	1.644808	0.308909	0.516403
C187	C	0.978265	-0.357570	-0.075032
C188	C	1.311598	-0.024237	0.258302
C189	C	1.644932	0.309096	0.591635
H190	H	0.236464	-0.444067	-0.404537
H191	H	0.569797	-0.110734	-0.071204
H192	H	0.903130	0.222599	0.262129
H193	H	0.720468	-0.444044	-0.404494
H194	H	1.053802	-0.110710	-0.071161
H195	H	1.387135	0.222623	0.262173
H196	H	1.061698	-0.811031	-0.242803
H197	H	1.395031	-0.477698	0.090531
H198	H	1.728365	-0.144365	0.423864
H199	H	0.894673	-0.903579	-0.409612
H200	H	1.228006	-0.570245	-0.076278
H201	H	1.561340	-0.236912	0.257055
Cl202	Cl	0.220799	-0.250440	-0.228620
Cl203	Cl	0.554133	0.082893	0.104714
Cl204	Cl	0.887466	0.416227	0.438047
Cl205	Cl	0.380344	-0.250419	-0.228611
Cl206	Cl	0.713677	0.082915	0.104722
Cl207	Cl	1.047011	0.416248	0.438056
H208	H	0.592235	-0.444046	-0.404509
H209	H	0.925568	-0.110713	-0.071176
H210	H	1.258901	0.222621	0.262158
Cl211	Cl	0.835845	-0.799281	-0.287836
Cl212	Cl	1.169179	-0.465948	0.045497
Cl213	Cl	1.502512	-0.132615	0.378830
H214	H	1.056771	-0.443742	-1.068442
H215	H	1.390104	-0.110408	-0.735108
H216	H	1.723437	0.222925	-0.401775
H217	H	1.056655	-0.443856	-0.584437
H218	H	1.389989	-0.110523	-0.251103
H219	H	1.723322	0.222811	0.082230
H220	H	0.364708	-0.444061	-0.404525
H221	H	0.698042	-0.110727	-0.071192
H222	H	1.031375	0.222606	0.262141
H223	H	0.592215	-0.271479	-0.247732
H224	H	0.925549	0.061854	0.085601
H225	H	1.258882	0.395187	0.418934
Cl226	Cl	0.940174	-0.915711	-0.183750
Cl227	Cl	1.273508	-0.582378	0.149584
Cl228	Cl	1.606841	-0.249045	0.482917
H229	H	1.056727	-0.443786	-0.940208
H230	H	1.390060	-0.110453	-0.606875
H231	H	1.723394	0.222880	-0.273541
Cl232	Cl	0.880477	-0.250478	-0.568830
Cl233	Cl	1.213811	0.082855	-0.235497
Cl234	Cl	1.547144	0.416189	0.097836
Cl235	Cl	0.736115	-0.250405	-0.228580
Cl236	Cl	1.069449	0.082928	0.104754
Cl237	Cl	1.402782	0.416261	0.438087
Cl238	Cl	0.880474	-0.250478	-0.728375
Cl239	Cl	1.213808	0.082855	-0.395041
Cl240	Cl	1.547141	0.416189	-0.061708
H241	H	1.056685	-0.443826	-0.712681
H242	H	1.390018	-0.110492	-0.379348
H243	H	1.723352	0.222841	-0.046015
H244	H	1.092142	-0.903688	-0.356779
H245	H	1.425476	-0.570354	-0.023446
H246	H	1.758809	-0.237021	0.309888
H247	H	0.899724	-0.271437	-0.940240
H248	H	1.233058	0.061896	-0.606907
H249	H	1.566391	0.395229	-0.273574
Cl250	Cl	1.016323	-0.799211	-0.468594
Cl251	Cl	1.349656	-0.465877	-0.135261
Cl252	Cl	1.682990	-0.132544	0.198072
H253	H	0.899753	-0.271400	-1.068486
H254	H	1.233086	0.061933	-0.735152
H255	H	1.566420	0.395266	-0.401819
