data_functionalizedCrystal
_audit_creation_method	'MofGen! by Chris Wilmer'
_symmetry_space_group_name_H-M	'P1'
_symmetry_Int_Tables_number	1
_symmetry_cell_setting	triclinic
loop_
_symmetry_equiv_pos_as_xyz
  x,y,z
_cell_length_a	16.959455
_cell_length_b	16.625545
_cell_length_c	16.959447
_cell_angle_alpha	89.969947
_cell_angle_beta	90.014322
_cell_angle_gamma	89.979016
loop_
_atom_site_label
_atom_site_type_symbol
_atom_site_fract_x
_atom_site_fract_y
_atom_site_fract_z
Zn1	Zn	1.208362	0.321051	0.446910
Zn2	Zn	1.708362	0.821051	0.946910
Zn3	Zn	1.208275	0.455899	0.314732
Zn4	Zn	1.708275	0.955899	0.814732
Zn5	Zn	1.076190	0.321077	0.314748
Zn6	Zn	1.576190	0.821077	0.814748
Zn7	Zn	1.076146	0.455839	0.446871
Zn8	Zn	1.576146	0.955839	0.946871
O9	O	1.142243	0.388466	0.380815
O10	O	1.642243	0.888466	0.880815
O11	O	1.318961	0.338954	0.429386
O12	O	1.818961	0.838954	0.929386
O13	O	1.190736	0.438050	0.204123
O14	O	1.690736	0.938050	0.704123
O15	O	1.093778	0.208241	0.332302
O16	O	1.593778	0.708241	0.832302
O17	O	1.318898	0.438026	0.332276
O18	O	1.818898	0.938026	0.832276
O19	O	1.190884	0.208222	0.429401
O20	O	1.690884	0.708222	0.929401
O21	O	1.093694	0.338997	0.204135
O22	O	1.593694	0.838997	0.704135
O23	O	0.965574	0.338939	0.332264
O24	O	1.465574	0.838939	0.832264
O25	O	1.093702	0.437923	0.557487
O26	O	1.593702	0.937923	1.057487
O27	O	0.965541	0.437947	0.429334
O28	O	1.465541	0.937947	0.929334
O29	O	1.190841	0.338895	0.557516
O30	O	1.690841	0.838895	1.057516
O31	O	1.190693	0.568723	0.332238
O32	O	1.690693	1.068723	0.832238
O33	O	1.093618	0.568679	0.429319
O34	O	1.593618	1.068679	0.929319
C35	C	0.936877	0.388440	0.380797
C36	C	1.436877	0.888440	0.880797
C37	C	0.849021	0.388448	0.380808
C38	C	1.349021	0.888448	0.880808
C39	C	1.142163	0.597957	0.380790
C40	C	1.642163	1.097957	0.880790
C41	C	1.142201	0.687578	0.380805
C42	C	1.642201	1.187578	0.880805
C43	C	0.477538	0.336870	0.330376
C44	C	0.977538	0.836870	0.830376
C45	C	0.477552	0.440129	0.431299
C46	C	0.977552	0.940129	0.931299
C47	C	0.560098	0.440117	0.431295
C48	C	1.060098	0.940117	0.931295
C49	C	0.601368	0.388482	0.380829
C50	C	1.101368	0.888482	0.880829
C51	C	0.560091	0.336859	0.330368
C52	C	1.060091	0.836859	0.830368
C53	C	0.601381	0.491746	0.481749
C54	C	1.101381	0.991746	0.981749
C55	C	0.683932	0.491737	0.481745
C56	C	1.183932	0.991737	0.981745
C57	C	0.725203	0.440097	0.431283
C58	C	1.225203	0.940097	0.931283
C59	C	0.683921	0.388471	0.380821
C60	C	1.183921	0.888471	0.880821
C61	C	0.725191	0.336836	0.330355
C62	C	1.225191	0.836836	0.830355
C63	C	0.683910	0.285205	0.279897
C64	C	1.183910	0.785205	0.779897
C65	C	0.601362	0.285219	0.279906
C66	C	1.101362	0.785219	0.779906
C67	C	0.807751	0.440083	0.431274
C68	C	1.307751	0.940083	0.931274
C69	C	0.807744	0.336824	0.330347
C70	C	1.307744	0.836824	0.830347
C71	C	1.142330	1.015754	0.380900
C72	C	1.642330	1.515754	0.880900
C73	C	1.142292	0.924445	0.380876
C74	C	1.642292	1.424445	0.880876
C75	C	1.142265	0.851669	0.380852
C76	C	1.642265	1.351669	0.880852
C77	C	1.142228	0.760355	0.380829
C78	C	1.642228	1.260355	0.880829
C79	C	1.348412	0.388494	0.380834
C80	C	1.848412	0.888494	0.880834
C81	C	1.436268	0.388505	0.380842
C82	C	1.936268	0.888505	0.880842
C83	C	1.142276	0.388400	0.586984
C84	C	1.642276	0.888400	1.086984
C85	C	1.142290	0.388371	0.674840
C86	C	1.642290	0.888371	1.174840
C87	C	1.142339	1.178157	0.380867
C88	C	1.642339	1.678157	0.880867
C89	C	1.142362	1.088536	0.380913
C90	C	1.642362	1.588536	0.880913
C91	C	1.142256	0.388475	0.175449
C92	C	1.642256	0.888475	0.675449
C93	C	1.142395	0.388276	0.087593
C94	C	1.642395	0.888276	0.587593
C95	C	1.091809	0.439845	1.046303
C96	C	1.591809	0.939845	1.546303
C97	C	1.192960	0.336727	1.046329
C98	C	1.692960	0.836727	1.546329
C99	C	1.192939	0.336744	0.963783
C100	C	1.692939	0.836744	1.463783
C101	C	1.142353	0.388313	0.922493
C102	C	1.642353	0.888313	1.422493
C103	C	1.091788	0.439866	0.963750
C104	C	1.591788	0.939866	1.463750
C105	C	1.243509	0.285199	0.922520
C106	C	1.743509	0.785199	1.422520
C107	C	1.243491	0.285214	0.839969
C108	C	1.743491	0.785214	1.339969
C109	C	1.192900	0.336780	0.798678
C110	C	1.692900	0.836780	1.298678
C111	C	1.142332	0.388334	0.839940
C112	C	1.642332	0.888334	1.339940
C113	C	1.091746	0.439903	0.798650
C114	C	1.591746	0.939903	1.298650
C115	C	1.041174	0.491453	0.839910
C116	C	1.541174	0.991453	1.339910
C117	C	1.041198	0.491431	0.922459
C118	C	1.541198	0.991431	1.422459
C119	C	1.192876	0.336802	0.716130
C120	C	1.692876	0.836802	1.216130
C121	C	1.091725	0.439923	0.716097
C122	C	1.591725	0.939923	1.216097
H123	H	0.841340	0.294771	0.289256
H124	H	1.341340	0.794771	0.789256
C125	C	1.036177	0.496542	1.091689
C126	C	1.536177	0.996542	1.591689
N127	N	0.994272	0.539245	1.125875
N128	N	1.494272	1.039245	1.625875
H129	H	0.567773	0.533790	0.522829
H130	H	1.067773	1.033790	1.022829
H131	H	1.284669	0.243239	0.806382
H132	H	1.784669	0.743239	1.306382
C133	C	0.555948	0.228433	0.224403
C134	C	1.055948	0.728433	0.724403
N135	N	0.521739	0.185665	0.182597
N136	N	1.021739	0.685665	0.682597
C137	C	1.036074	0.496653	0.670685
C138	C	1.536074	0.996653	1.170685
N139	N	0.994157	0.539383	0.636481
N140	N	1.494157	1.039383	1.136481
C141	C	0.729332	0.548529	0.537253
C142	C	1.229332	1.048529	1.037253
N143	N	0.763529	0.591303	0.579064
N144	N	1.263529	1.091303	1.079064
C145	C	1.248597	0.279999	1.091750
C146	C	1.748597	0.779999	1.591750
N147	N	1.290500	0.237265	1.125964
N148	N	1.790500	0.737265	1.625964
C149	C	0.985531	0.548177	0.794482
C150	C	1.485531	1.048177	1.294482
N151	N	0.943621	0.590900	0.760261
N152	N	1.443621	1.090900	1.260261
H153	H	0.443946	0.482173	0.472381
H154	H	0.943946	0.982173	0.972381
H155	H	1.234054	0.294833	0.682539
H156	H	1.734054	0.794833	1.182539
C157	C	0.853155	0.496873	0.486775
C158	C	1.353155	0.996873	0.986775
N159	N	0.887353	0.539649	0.528583
N160	N	1.387353	1.039649	1.028583
C161	C	0.985569	0.548127	0.967851
C162	C	1.485569	1.048127	1.467851
N163	N	0.943669	0.590829	1.002044
N164	N	1.443669	1.090829	1.502044
H165	H	1.284698	0.243219	0.956144
H166	H	1.784698	0.743219	1.456144
H167	H	0.717523	0.243167	0.238804
H168	H	1.217523	0.743167	0.738804
H169	H	0.443924	0.294831	0.289296
H170	H	0.943924	0.794831	0.789296
