data_functionalizedCrystal
_audit_creation_method	'MofGen! by Chris Wilmer'
_symmetry_space_group_name_H-M	'P1'
_symmetry_Int_Tables_number	1
_symmetry_cell_setting	triclinic
loop_
_symmetry_equiv_pos_as_xyz
  x,y,z
_cell_length_a	15.538191
_cell_length_b	10.489741
_cell_length_c	14.750779
_cell_angle_alpha	77.226586
_cell_angle_beta	97.572172
_cell_angle_gamma	65.905634
loop_
_atom_site_label
_atom_site_type_symbol
_atom_site_fract_x
_atom_site_fract_y
_atom_site_fract_z
O1	O	1.226910	-0.375937	-0.079837
O2	O	0.953648	-0.229122	-0.079837
O3	O	1.096498	-0.491086	-0.079831
O4	O	1.084059	-0.113973	-0.079843
O5	O	1.136881	-0.565134	0.079820
O6	O	0.994030	-0.303170	0.079815
O7	O	1.267292	-0.449985	0.079814
Zn8	Zn	1.137073	-0.388334	0.105163
Zn9	Zn	1.083867	-0.290773	-0.105185
O10	O	1.124442	-0.188021	0.079809
C11	C	0.938847	-0.250786	-0.000011
C12	C	0.834584	-0.205032	-0.000010
C13	C	0.543710	-0.659589	-0.000011
C14	C	0.445735	-0.616562	-0.000013
C15	C	0.424932	-0.374552	-0.000021
C16	C	0.522908	-0.417560	-0.000014
C17	C	0.582289	-0.560080	-0.000010
C18	C	0.561488	-0.318051	-0.000013
C19	C	0.659454	-0.361054	-0.000011
C20	C	0.718840	-0.503566	-0.000011
C21	C	0.680255	-0.603083	-0.000009
C22	C	0.502103	-0.175529	-0.000023
C23	C	0.540683	-0.076020	-0.000022
C24	C	0.638652	-0.119026	-0.000013
C25	C	0.698039	-0.261538	-0.000013
C26	C	0.677237	-0.019509	-0.000015
C27	C	0.775203	-0.062512	-0.000014
C28	C	0.796005	-0.304540	-0.000011
C29	C	1.115750	-0.575195	-0.000006
C30	C	1.112940	-0.715488	-0.000008
C31	C	1.022047	-0.740411	-0.000014
C32	C	1.084893	-0.889457	0.078702
C33	C	1.045101	-0.816436	-0.078702
C34	C	1.175840	-0.862716	0.078774
C35	C	1.136017	-0.789647	-0.078701
C36	C	1.198935	-0.938706	0.000035
C37	C	1.282092	-0.428320	-0.000014
C38	C	1.386354	-0.474071	-0.000020
C39	C	1.105189	-0.103911	-0.000018
C40	C	1.107998	0.036385	-0.000023
N41	N	1.173391	-0.454921	0.248720
N42	N	1.047557	-0.224199	-0.248742
C43	C	0.946125	-0.038287	0.600530
C44	C	0.971581	-0.084942	0.701030
C45	C	1.098102	-0.316860	0.700997
C46	C	1.072654	-0.270227	0.600495
C47	C	0.996665	-0.130939	0.550269
C48	C	1.123193	-0.362879	0.550235
C49	C	1.097750	-0.316246	0.449741
C50	C	1.021766	-0.176962	0.399508
C51	C	0.971221	-0.084307	0.449776
C52	C	1.199186	-0.502162	0.600462
C53	C	1.249726	-0.594814	0.550202
C54	C	1.224278	-0.548186	0.449707
C55	C	1.148295	-0.408902	0.399474
C56	C	1.274823	-0.640842	0.399439
C57	C	1.249379	-0.594209	0.298946
C58	C	1.122851	-0.362270	0.298980
H59	H	0.806617	0.018514	-0.000004
O60	O	0.897502	0.051037	0.400870
C61	C	0.933601	0.133234	0.342745
H62	H	1.002928	0.055627	0.327680
H63	H	0.876658	0.204236	0.272084
H64	H	0.950409	0.206305	0.381468
H65	H	0.376570	-0.258511	-0.000027
O66	O	0.406920	-0.133858	-0.000154
C67	C	0.358977	-0.147491	-0.082848
H68	H	0.414533	-0.230157	-0.110407
H69	H	0.303249	-0.186829	-0.064249
H70	H	0.320380	-0.036514	-0.140753
O71	O	1.058931	-0.941286	0.158024
C72	C	0.965644	-0.838138	0.157760
H73	H	0.924661	-0.764897	0.081158
H74	H	0.923708	-0.898044	0.187495
H75	H	0.973128	-0.768069	0.204413
H76	H	0.798607	-0.538570	-0.000022
O77	O	1.241849	-0.884464	0.158158
C78	C	1.314007	-0.847343	0.130071
H79	H	1.283760	-0.767890	0.054105
H80	H	1.336607	-0.793375	0.181431
H81	H	1.380002	-0.950744	0.131965
H82	H	1.060966	-0.248853	0.258085
O83	O	0.601255	-0.798070	-0.000050
C84	C	0.546208	-0.876702	-0.000022
H85	H	0.465678	-0.796562	-0.030245
H86	H	0.570067	-0.952261	-0.046372
H87	H	0.558366	-0.944867	0.076573
H88	H	0.989797	-0.798241	-0.145257
H89	H	0.884241	0.075129	0.559634
H90	H	1.157609	-0.746004	-0.145254
O91	O	1.224059	-0.547669	0.698082
C92	C	1.301953	-0.690481	0.731635
H93	H	1.343073	-0.711625	0.673706
H94	H	1.353426	-0.701661	0.798856
H95	H	1.272351	-0.773636	0.749475
H96	H	1.311600	-0.708222	0.591107
H97	H	1.273743	-1.023712	0.000078
O98	O	0.932843	-0.638896	-0.000052
C99	C	0.863791	-0.614990	-0.082274
H100	H	0.891327	-0.714554	-0.109428
H101	H	0.791829	-0.597167	-0.063220
H102	H	0.852379	-0.513920	-0.140660
O103	O	0.853843	-0.442953	0.000041
C104	C	0.948574	-0.459548	0.000016
H105	H	0.960652	-0.375430	0.030233
H106	H	1.004178	-0.574669	0.046374
H107	H	0.957497	-0.441968	-0.076576
O108	O	0.997219	-0.131744	0.301889
C109	C	1.078010	-0.131467	0.268288
H110	H	1.147820	-0.209965	0.326181
H111	H	1.079805	-0.168128	0.201048
H112	H	1.071737	-0.016086	0.250462
H113	H	0.930420	-0.009480	0.741947
O114	O	1.171861	-0.452139	0.749939
C115	C	1.183501	-0.473418	0.849415
H116	H	1.112649	-0.397762	0.863162
H117	H	1.202962	-0.592259	0.887606
H118	H	1.244302	-0.447442	0.877918
O119	O	0.482873	0.062340	0.000020
C120	C	0.388125	0.078974	-0.000009
H121	H	0.391326	-0.033172	0.030212
H122	H	0.355974	0.151097	0.046344
H123	H	0.340460	0.132447	-0.076602
H124	H	1.290536	-0.669656	0.258023
O125	O	0.737867	-0.741465	-0.000173
C126	C	0.699335	-0.766247	-0.082843
H127	H	0.651693	-0.656818	-0.140637
H128	H	0.761462	-0.836535	-0.110597
H129	H	0.653693	-0.825427	-0.064145
O130	O	1.348517	-0.776223	0.448281
C131	C	1.312425	-0.858385	0.506448
H132	H	1.230695	-0.812265	0.476182
H133	H	1.350342	-0.977687	0.507588
H134	H	1.327054	-0.851642	0.582608
H135	H	0.414329	-0.697605	-0.000016
H136	H	0.628872	0.096534	-0.000028
