data_functionalizedCrystal
_audit_creation_method	'MofGen! by Chris Wilmer'
_symmetry_space_group_name_H-M	'P1'
_symmetry_Int_Tables_number	1
_symmetry_cell_setting	triclinic
loop_
_symmetry_equiv_pos_as_xyz
  x,y,z
_cell_length_a	12.759400
_cell_length_b	12.759401
_cell_length_c	12.759393
_cell_angle_alpha	90.018894
_cell_angle_beta	89.968231
_cell_angle_gamma	89.989237
loop_
_atom_site_label
_atom_site_type_symbol
_atom_site_fract_x
_atom_site_fract_y
_atom_site_fract_z
Zn1	Zn	-0.418312	-1.606244	-0.594024
Zn2	Zn	-0.594032	-1.606142	-0.418344
Zn3	Zn	-0.418355	-1.430549	-0.418359
Zn4	Zn	-0.593938	-1.430535	-0.593981
O5	O	-0.506159	-1.518367	-0.506177
O6	O	-0.441643	-1.753251	-0.570731
O7	O	-0.570785	-1.582812	-0.271325
O8	O	-0.271328	-1.453905	-0.441685
O9	O	-0.570743	-1.753176	-0.441660
O10	O	-0.271297	-1.582987	-0.570746
O11	O	-0.441716	-1.453805	-0.271335
O12	O	-0.441625	-1.283526	-0.441643
O13	O	-0.570583	-1.453879	-0.741008
O14	O	-0.570625	-1.283516	-0.570672
O15	O	-0.441552	-1.582972	-0.741039
O16	O	-0.741040	-1.582798	-0.441618
O17	O	-0.740971	-1.453780	-0.570658
C18	C	-0.506120	-1.245400	-0.506155
C19	C	-0.506129	-1.128623	-0.506171
C20	C	-0.439031	-1.073794	-0.573481
C21	C	-0.439045	-0.964069	-0.573485
C22	C	-0.573266	-0.964015	-0.438866
C23	C	-0.573245	-1.073737	-0.438857
C24	C	-0.371915	-1.128680	-0.640795
C25	C	-0.304811	-1.073850	-0.708111
C26	C	-0.304826	-0.964126	-0.708115
C27	C	-0.371943	-0.909232	-0.640803
C28	C	-0.779127	-1.518305	-0.506155
C29	C	-0.895903	-1.518374	-0.506181
C30	C	-0.950766	-1.585629	-0.439064
C31	C	-1.060490	-1.585693	-0.439096
C32	C	-1.060478	-1.451240	-0.573365
C33	C	-0.950756	-1.451182	-0.573337
C34	C	-0.895913	-1.652821	-0.371907
C35	C	-0.950776	-1.720080	-0.304784
C36	C	-1.060500	-1.720144	-0.304817
C37	C	-1.115361	-1.652950	-0.371972
C38	C	-0.232126	-1.518459	-0.506222
C39	C	-0.115349	-1.518497	-0.506241
C40	C	-0.506052	-1.518436	-0.780210
C41	C	-0.506007	-1.518465	-0.896987
C42	C	-0.506186	-0.792401	-0.506193
C43	C	-0.506164	-0.909177	-0.506183
C44	C	-0.438788	-1.451319	-0.951861
C45	C	-0.438757	-1.451351	-1.061585
C46	C	-0.573165	-1.585683	-1.061552
C47	C	-0.573201	-1.585645	-0.951830
C48	C	-0.371593	-1.384139	-0.897018
C49	C	-0.304369	-1.316989	-0.951892
C50	C	-0.304337	-1.317021	-1.061616
C51	C	-0.371531	-1.384203	-1.116466
C52	C	-0.506190	-1.518360	-0.233209
C53	C	-0.505940	-1.518534	-0.116433
H54	H	-0.371895	-1.218023	-0.640799
H55	H	-1.105167	-1.774917	-0.250170
H56	H	-1.105155	-1.396533	-0.628039
H57	H	-0.371609	-1.384108	-0.807675
C58	C	-0.890403	-1.377209	-0.647168
H59	H	-0.938784	-1.337192	-0.687160
H60	H	-0.847538	-1.417360	-0.692964
H61	H	-0.847663	-1.331426	-0.606927
C62	C	-0.647050	-1.134059	-0.364820
H63	H	-0.637415	-1.207265	-0.374450
H64	H	-0.717664	-1.116088	-0.380069
H65	H	-0.631584	-1.116049	-0.294255
H66	H	-0.250180	-0.919486	-0.762920
H67	H	-0.249607	-1.262337	-1.106291
H68	H	-0.906103	-1.774793	-0.250115
H69	H	-0.806570	-1.652773	-0.371871
C70	C	-0.230464	-1.243094	-0.891561
H71	H	-0.240102	-1.252696	-0.818355
H72	H	-0.245820	-1.172502	-0.909536
H73	H	-0.159868	-1.258509	-0.909564
C74	C	-0.230984	-1.134223	-0.782148
H75	H	-0.191017	-1.085851	-0.822228
H76	H	-0.271220	-1.177042	-0.827853
H77	H	-0.185148	-1.177012	-0.742030
H78	H	-1.204706	-1.653016	-0.372001
C79	C	-0.371497	-1.384235	-1.237160
H80	H	-0.321838	-1.334626	-1.261988
H81	H	-0.439285	-1.366054	-1.261966
H82	H	-0.353324	-1.452051	-1.261985
H83	H	-0.627869	-1.640381	-1.106220
C84	C	-0.647142	-1.659501	-0.891465
H85	H	-0.687146	-1.699525	-0.939840
H86	H	-0.692922	-1.619274	-0.848654
H87	H	-0.606971	-1.705282	-0.848669
H88	H	-0.627911	-0.919311	-0.384065
C89	C	-0.371961	-0.788538	-0.640810
H90	H	-0.322390	-0.763742	-0.690543
H91	H	-0.353721	-0.763685	-0.573046
H92	H	-0.439790	-0.763728	-0.658872
