data_functionalizedCrystal
_audit_creation_method	'MofGen! by Chris Wilmer'
_symmetry_space_group_name_H-M	'P1'
_symmetry_Int_Tables_number	1
_symmetry_cell_setting	triclinic
loop_
_symmetry_equiv_pos_as_xyz
  x,y,z
_cell_length_a	25.639242
_cell_length_b	25.639240
_cell_length_c	13.033454
_cell_angle_alpha	82.770124
_cell_angle_beta	97.151288
_cell_angle_gamma	90.028283
loop_
_atom_site_label
_atom_site_type_symbol
_atom_site_fract_x
_atom_site_fract_y
_atom_site_fract_z
Zn1	Zn	0.761747	-0.170616	-0.591058
Zn2	Zn	0.772768	-0.269172	-0.416276
Zn3	Zn	0.685411	-0.181744	-0.416297
Zn4	Zn	0.674284	-0.258023	-0.590945
O5	O	0.723553	-0.219889	-0.503644
O6	O	0.836372	-0.183699	-0.567912
O7	O	0.770449	-0.266897	-0.270041
O8	O	0.695581	-0.107099	-0.439536
O9	O	0.844469	-0.256107	-0.439500
O10	O	0.751665	-0.098924	-0.567932
O11	O	0.706268	-0.202664	-0.270056
O12	O	0.610772	-0.191854	-0.439426
O13	O	0.676617	-0.237105	-0.737198
O14	O	0.602598	-0.247895	-0.567739
O15	O	0.740876	-0.172888	-0.737281
O16	O	0.759660	-0.340862	-0.439390
O17	O	0.687305	-0.332671	-0.567718
C18	C	0.587715	-0.219873	-0.503573
C19	C	0.529601	-0.219877	-0.503568
C20	C	0.164989	-0.249130	-0.570393
C21	C	0.110384	-0.249132	-0.570410
O22	O	0.078539	-0.273982	-0.627167
N23	N	0.087309	-0.219899	-0.503712
C24	C	0.118842	-0.190657	-0.437001
O25	O	0.094201	-0.165792	-0.380272
C26	C	0.173446	-0.190653	-0.436991
C27	C	0.196519	-0.219892	-0.503685
C28	C	0.188062	-0.278366	-0.637083
C29	C	0.242664	-0.278364	-0.637065
C30	C	0.274193	-0.249127	-0.570357
C31	C	0.251120	-0.219890	-0.503667
C32	C	0.204978	-0.161409	-0.370286
C33	C	0.259585	-0.161406	-0.370282
C34	C	0.282658	-0.190645	-0.436976
C35	C	0.337251	-0.190651	-0.436941
N36	N	0.360326	-0.219884	-0.503639
C37	C	0.328797	-0.249122	-0.570347
C38	C	0.004170	-0.190669	-0.437030
C39	C	-0.050433	-0.190676	-0.437034
C40	C	-0.058887	-0.249150	-0.570444
C41	C	-0.004283	-0.249145	-0.570434
C42	C	0.027245	-0.219902	-0.503727
C43	C	0.443465	-0.249117	-0.570303
C44	C	0.498072	-0.249114	-0.570276
C45	C	0.506521	-0.190639	-0.436870
C46	C	0.451919	-0.190643	-0.436893
C47	C	0.420392	-0.219883	-0.503618
O48	O	0.369129	-0.165812	-0.380215
O49	O	0.353444	-0.273977	-0.627076
C50	C	0.723484	-0.355736	-0.503562
C51	C	0.723500	-0.413850	-0.503562
C52	C	0.752764	-0.769905	-0.570621
C53	C	0.752778	-0.824508	-0.570642
O54	O	0.777577	-0.849087	-0.627573
N55	N	0.723619	-0.856121	-0.503745
C56	C	0.694439	-0.833128	-0.436830
O57	O	0.669637	-0.865032	-0.379932
C58	C	0.694422	-0.778526	-0.436815
C59	C	0.723588	-0.746916	-0.503709
C60	C	0.781927	-0.738295	-0.637510
C61	C	0.781914	-0.683696	-0.637487
C62	C	0.752738	-0.660707	-0.570575
C63	C	0.723575	-0.692317	-0.503686
C64	C	0.665240	-0.755534	-0.369906
C65	C	0.665225	-0.700927	-0.369897
C66	C	0.694391	-0.669317	-0.436791
C67	C	0.694385	-0.614729	-0.436751
N68	N	0.723544	-0.583115	-0.503648
C69	C	0.752721	-0.606105	-0.570560
C70	C	0.694475	-0.947797	-0.436869
C71	C	0.694495	-1.002398	-0.436878
C72	C	0.752834	-0.993774	-0.570691
C73	C	0.752817	-0.939172	-0.570676
C74	C	0.723635	-0.916183	-0.503765
C75	C	0.752691	-0.491443	-0.570506
C76	C	0.752677	-0.436840	-0.570474
C77	C	0.694336	-0.445468	-0.436665
C78	C	0.694352	-0.500067	-0.436693
C79	C	0.723531	-0.523053	-0.503622
O80	O	0.669597	-0.590113	-0.379852
O81	O	0.777513	-0.574195	-0.627458
C82	C	0.859921	-0.219905	-0.503716
C83	C	0.918033	-0.219912	-0.503746
C84	C	0.706276	-0.202512	-0.776218
C85	C	0.698914	-0.195107	-0.892372
C86	C	0.723634	-0.083509	-0.503749
C87	C	0.723669	-0.025392	-0.503794
C88	C	0.727387	-0.223587	-0.944150
C89	C	0.719778	-0.215934	-1.064202
C90	C	0.740792	-0.237160	-0.232131
C91	C	0.748256	-0.244418	-0.115977
H92	H	0.162396	-0.302175	-0.691411
O93	O	0.666248	-1.033133	-0.371782
C94	C	0.700319	-1.069023	-0.304374
H95	H	0.741901	-1.052948	-0.297998
H96	H	0.686539	-1.074807	-0.223913
H97	H	0.700066	-1.108335	-0.336703
O98	O	0.781139	-1.016044	-0.635843
C99	C	0.763056	-0.996055	-0.739970
H100	H	0.742814	-0.956288	-0.742083
H101	H	0.797793	-0.991157	-0.786914
H102	H	0.733938	-1.024557	-0.775113
H103	H	0.261444	-0.302173	-0.691377
H104	H	0.757399	-0.253633	-0.899601
O105	O	0.683913	-0.180156	-1.117379
C106	C	0.646163	-0.205925	-1.180495
H107	H	0.644985	-0.249192	-1.147503
H108	H	0.605853	-0.186926	-1.181832
H109	H	0.657123	-0.202493	-1.263183
H110	H	0.516854	-0.272926	-0.624587
H111	H	0.186203	-0.137601	-0.315973
H112	H	0.285253	-0.137589	-0.315966
H113	H	0.778270	-0.274466	-1.071433
O114	O	0.537080	-0.162231	-0.371970
C115	C	0.505010	-0.136413	-0.313120
H116	H	0.466309	-0.158059	-0.309423
H117	H	0.525994	-0.136020	-0.230803
H118	H	0.496796	-0.094284	-0.351543
O119	O	0.034721	-0.162257	-0.372115
C120	C	0.002639	-0.136450	-0.313272
H121	H	-0.036059	-0.158104	-0.309594
H122	H	0.023614	-0.136058	-0.230949
H123	H	-0.005581	-0.094320	-0.351690
H124	H	0.670714	-0.929083	-0.382373
O125	O	0.810320	-0.760539	-0.702545
C126	C	0.836041	-0.720919	-0.761589
H127	H	0.840561	-0.684738	-0.718768
H128	H	0.876527	-0.735934	-0.772826
H129	H	0.811835	-0.710048	-0.840916
O130	O	0.781068	-0.908406	-0.635713
C131	C	0.746988	-0.872541	-0.703159
H132	H	0.709720	-0.866755	-0.666215
H133	H	0.767377	-0.833228	-0.717208
H134	H	0.736310	-0.888637	-0.780591
O135	O	0.665916	-0.423183	-0.371729
C136	C	0.612358	-0.435097	-0.394492
H137	H	0.608725	-0.472175	-0.434662
H138	H	0.593721	-0.441807	-0.319031
H139	H	0.591322	-0.400945	-0.448190
H140	H	0.668906	-0.165057	-0.936922
H141	H	0.641490	-0.781262	-0.315434
H142	H	0.417801	-0.272926	-0.624639
O143	O	0.781018	-0.406208	-0.635560
C144	C	0.806780	-0.438214	-0.694605
H145	H	0.785145	-0.476923	-0.698187
H146	H	0.807100	-0.417162	-0.776949
H147	H	0.848927	-0.446436	-0.656426
H148	H	0.433133	-0.166836	-0.382583
H149	H	-0.084569	-0.272955	-0.624765
O150	O	0.018094	-0.277479	-0.635376
C151	C	-0.001846	-0.259499	-0.739572
H152	H	-0.017182	-0.217389	-0.745008
H153	H	0.030796	-0.260750	-0.791185
H154	H	-0.035274	-0.285819	-0.766779
O155	O	-0.072852	-0.162366	-0.372110
C156	C	-0.100183	-0.196395	-0.304521
H157	H	-0.083333	-0.237991	-0.297932
H158	H	-0.095703	-0.182556	-0.224162
H159	H	-0.143611	-0.196156	-0.336814
H160	H	0.805661	-0.657962	-0.691960
O161	O	0.781071	-0.513831	-0.635374
C162	C	0.818652	-0.549183	-0.575969
H163	H	0.805268	-0.562462	-0.496742
H164	H	0.822960	-0.584841	-0.618578
H165	H	0.858117	-0.528834	-0.564552
H166	H	0.670607	-0.525806	-0.382214
O167	O	0.636866	-0.678685	-0.304801
C168	C	0.611118	-0.718296	-0.245791
H169	H	0.632774	-0.757429	-0.242232
H170	H	0.610784	-0.707799	-0.163437
H171	H	0.568977	-0.721690	-0.283986
