data_functionalizedCrystal
_audit_creation_method	'MofGen! by Chris Wilmer'
_symmetry_space_group_name_H-M	'P1'
_symmetry_Int_Tables_number	1
_symmetry_cell_setting	triclinic
loop_
_symmetry_equiv_pos_as_xyz
  x,y,z
_cell_length_a	23.532407
_cell_length_b	14.853567
_cell_length_c	13.330367
_cell_angle_alpha	90.004582
_cell_angle_beta	90.009308
_cell_angle_gamma	83.241804
loop_
_atom_site_label
_atom_site_type_symbol
_atom_site_fract_x
_atom_site_fract_y
_atom_site_fract_z
O1	O	-0.074353	-1.195556	-0.083365
O2	O	0.425647	-0.695556	0.416635
O3	O	-0.083210	-0.932999	-0.083383
O4	O	0.416790	-0.432999	0.416617
O5	O	0.004116	-1.072195	-0.083355
O6	O	0.504116	-0.572195	0.416645
O7	O	-0.161678	-1.056360	-0.083393
O8	O	0.338322	-0.556360	0.416607
O9	O	0.004118	-1.072175	0.083492
O10	O	0.504118	-0.572175	0.583492
O11	O	-0.083208	-0.932979	0.083464
O12	O	0.416792	-0.432979	0.583464
O13	O	-0.074351	-1.195536	0.083482
O14	O	0.425649	-0.695536	0.583482
Cu15	Cu	-0.078779	-1.064255	0.098707
Cu16	Cu	0.421221	-0.564255	0.598707
Cu17	Cu	-0.078782	-1.064279	-0.098609
Cu18	Cu	0.421218	-0.564279	0.401391
O19	O	-0.161677	-1.056340	0.083454
O20	O	0.338323	-0.556340	0.583454
C21	C	0.025335	-1.071782	0.000071
C22	C	0.525335	-0.571782	0.500071
C23	C	0.088557	-1.070569	0.000078
C24	C	0.588557	-0.570569	0.500078
C25	C	-0.082808	-0.899405	0.000038
C26	C	0.417192	-0.399405	0.500038
C27	C	-0.081605	-0.799334	0.000032
C28	C	0.418395	-0.299334	0.500032
C29	C	-0.182895	-1.056753	0.000026
C30	C	0.317105	-0.556753	0.500026
C31	C	-0.246118	-1.057966	0.000011
C32	C	0.253882	-0.557966	0.500011
C33	C	0.487334	-1.145338	0.000029
C34	C	0.987334	-0.645338	0.500029
C35	C	0.546739	-1.144212	0.000021
C36	C	1.046739	-0.644212	0.500021
O37	O	0.583181	-1.213524	-0.000011
O38	O	1.083181	-0.713524	0.499989
N39	N	0.569726	-1.061460	0.000016
N40	N	1.069726	-0.561460	0.500016
C41	C	0.533305	-0.979829	0.000008
C42	C	1.033305	-0.479829	0.500008
O43	O	0.558312	-0.909339	0.000002
O44	O	1.058312	-0.409339	0.500002
C45	C	0.473901	-0.980957	0.000009
C46	C	0.973901	-0.480957	0.500009
C47	C	0.450917	-1.063714	0.000024
C48	C	0.950917	-0.563714	0.500024
C49	C	0.464349	-1.228089	0.000043
C50	C	0.964349	-0.728089	0.500043
C51	C	0.404948	-1.229214	0.000052
C52	C	0.904948	-0.729214	0.500052
C53	C	0.368531	-1.147590	0.000048
C54	C	0.868531	-0.647590	0.500048
C55	C	0.391516	-1.064839	0.000034
C56	C	0.891516	-0.564839	0.500034
C57	C	0.437481	-0.899327	-0.000006
C58	C	0.937481	-0.399327	0.499994
C59	C	0.378073	-0.900461	-0.000006
C60	C	0.878073	-0.400461	0.499994
C61	C	0.355089	-0.983218	0.000009
C62	C	0.855089	-0.483218	0.500009
C63	C	0.295698	-0.984341	0.000039
C64	C	0.795698	-0.484341	0.500039
N65	N	0.272711	-1.067092	0.000044
N66	N	0.772711	-0.567092	0.500044
C67	C	0.309128	-1.148717	0.000048
C68	C	0.809128	-0.648717	0.500048
C69	C	0.658058	-0.977469	0.000005
C70	C	1.158058	-0.477469	0.500005
C71	C	0.717461	-0.976340	0.000012
C72	C	1.217461	-0.476340	0.500012
C73	C	0.730890	-1.140723	0.000023
C74	C	1.230890	-0.640723	0.500023
C75	C	0.671486	-1.141851	0.000023
C76	C	1.171486	-0.641851	0.500023
C77	C	0.635070	-1.060220	0.000011
C78	C	1.135070	-0.560220	0.500011
C79	C	0.184380	-1.151075	0.000069
C80	C	0.684380	-0.651075	0.500069
C81	C	0.124974	-1.152194	0.000083
C82	C	0.624974	-0.652194	0.500083
C83	C	0.111549	-0.987811	0.000067
C84	C	0.611549	-0.487811	0.500067
C85	C	0.170951	-0.986692	0.000058
C86	C	0.670951	-0.486692	0.500058
C87	C	0.207365	-1.068331	0.000056
C88	C	0.707365	-0.568331	0.500056
O89	O	0.259221	-0.915065	0.000067
O90	O	0.759221	-0.415065	0.500067
O91	O	0.284112	-1.219196	0.000041
O92	O	0.784112	-0.719196	0.500041
C93	C	-0.074753	-1.229130	0.000058
C94	C	0.425247	-0.729130	0.500058
C95	C	-0.075956	-1.329200	0.000058
C96	C	0.424044	-0.829200	0.500058
N97	N	-0.078777	-1.064245	0.237489
N98	N	0.421223	-0.564245	0.737489
C99	C	-0.024648	-0.387423	0.000067
C100	C	0.475352	0.112577	0.500067
C101	C	-0.128393	-0.365008	0.000043
C102	C	0.371607	0.134992	0.500043
C103	C	-0.129524	-0.459029	0.000039
C104	C	0.370476	0.040971	0.500039
C105	C	-0.078216	-0.517252	0.000048
C106	C	0.421784	-0.017252	0.500048
C107	C	-0.025777	-0.481454	0.000061
C108	C	0.474223	0.018546	0.500061
C109	C	-0.181961	-0.494835	0.000016
C110	C	0.318039	0.005165	0.500016
C111	C	-0.183094	-0.588861	0.000012
C112	C	0.316906	-0.088861	0.500012
C113	C	-0.131786	-0.647086	0.000028
C114	C	0.368214	-0.147086	0.500028
C115	C	-0.079345	-0.611283	0.000042
C116	C	0.420655	-0.111283	0.500042
C117	C	-0.028037	-0.669506	0.000051
C118	C	0.471963	-0.169506	0.500051
C119	C	0.024404	-0.633704	0.000072
C120	C	0.524404	-0.133704	0.500072
C121	C	0.025531	-0.539679	0.000077
C122	C	0.525531	-0.039679	0.500077
C123	C	-0.132913	-0.741111	0.000023
C124	C	0.367087	-0.241111	0.500023
C125	C	-0.029166	-0.763536	0.000044
C126	C	0.470834	-0.263536	0.500044
N127	N	-0.078779	-1.064296	-0.237390
N128	N	0.421221	-0.564296	0.262610
C129	C	-0.117434	-1.002641	0.710099
C130	C	0.382566	-0.502641	1.210099
C131	C	-0.040124	-1.125942	0.710092
C132	C	0.459876	-0.625942	1.210092
C133	C	-0.040123	-1.125932	0.605074
C134	C	0.459877	-0.625932	1.105074
C135	C	-0.078778	-1.064276	0.552563
C136	C	0.421222	-0.564276	1.052563
C137	C	-0.117435	-1.002631	0.605071
C138	C	0.382565	-0.502631	1.105071
C139	C	-0.001470	-1.187582	0.552558
C140	C	0.498530	-0.687582	1.052558
C141	C	-0.001467	-1.187575	0.447533
C142	C	0.498533	-0.687575	0.947533
C143	C	-0.040120	-1.125914	0.395021
C144	C	0.459880	-0.625914	0.895021
C145	C	-0.078778	-1.064266	0.447535
C146	C	0.421222	-0.564266	0.947535
C147	C	-0.117434	-1.002610	0.395025
C148	C	0.382566	-0.502610	0.895025
C149	C	-0.156089	-0.940957	0.447537
C150	C	0.343911	-0.440957	0.947537
C151	C	-0.156088	-0.940970	0.552559
C152	C	0.343912	-0.440970	1.052559
C153	C	-0.040122	-1.125901	0.289999
C154	C	0.459878	-0.625901	0.789999
C155	C	-0.117434	-1.002600	0.289997
C156	C	0.382566	-0.502600	0.789997
H157	H	0.106264	-1.219587	0.000098
H158	H	0.606264	-0.719587	0.500098
F159	F	0.039673	-1.253189	0.391653
F160	F	0.539673	-0.753189	0.891653
F161	F	0.339319	-0.813576	-0.000022
F162	F	0.839319	-0.313576	0.499978
H163	H	0.736168	-0.908951	0.000017
H164	H	1.236168	-0.408951	0.500017
F165	F	0.647031	-1.229931	0.000040
F166	F	1.147031	-0.729931	0.500040
H167	H	-0.008652	-1.176102	0.247249
H168	H	0.491348	-0.676102	0.747249
H169	H	0.081888	-0.921355	0.000067
H170	H	0.581888	-0.421355	0.500067
F171	F	0.195413	-0.898614	0.000060
F172	F	0.695413	-0.398614	0.500060
F173	F	0.025444	-0.825495	0.000061
F174	F	0.525444	-0.325495	0.500061
F175	F	-0.236563	-0.432866	-0.000008
F176	F	0.263437	0.067134	0.499992
H177	H	-0.148906	-0.952441	0.752857
H178	H	0.351094	-0.452441	1.252857
H179	H	0.029999	-1.237785	0.595316
H180	H	0.529999	-0.737785	1.095316
F181	F	0.619305	-0.890580	0.000001
F182	F	1.119305	-0.390580	0.500001
H183	H	0.066179	-0.681121	0.000072
H184	H	0.566179	-0.181121	0.500072
F185	F	0.081338	-0.501569	0.000095
F186	F	0.581338	-0.001569	0.500095
F187	F	0.461929	-0.811244	-0.000026
F188	F	0.961929	-0.311244	0.499974
F189	F	0.001010	-1.191563	0.765977
F190	F	0.501010	-0.691563	1.265977
H191	H	-0.187565	-0.890760	0.404771
H192	H	0.312435	-0.390760	0.904771
H193	H	0.018049	-0.358269	0.000088
H194	H	0.518049	0.141731	0.500088
F195	F	0.769658	-1.227596	0.000023
F196	F	1.269658	-0.727596	0.500023
F197	F	0.503099	-1.314973	0.000047
F198	F	1.003099	-0.814973	0.500047
H199	H	-0.170165	-0.317597	0.000027
H200	H	0.329835	0.182403	0.500027
H201	H	-0.225795	-0.618003	-0.000005
H202	H	0.274205	-0.118003	0.499995
F203	F	-0.188721	-0.779211	-0.000007
F204	F	0.311279	-0.279211	0.499993
F205	F	-0.158575	-0.936972	0.234119
F206	F	0.341425	-0.436972	0.734119
H207	H	0.214023	-1.217554	0.000064
H208	H	0.714023	-0.717554	0.500064
F209	F	0.380495	-1.317296	0.000047
F210	F	0.880495	-0.817296	0.500047
H211	H	-0.187560	-0.890775	0.595321
H212	H	0.312440	-0.390775	1.095321
