data_functionalizedCrystal
_audit_creation_method	'MofGen! by Chris Wilmer'
_symmetry_space_group_name_H-M	'P1'
_symmetry_Int_Tables_number	1
_symmetry_cell_setting	triclinic
loop_
_symmetry_equiv_pos_as_xyz
  x,y,z
_cell_length_a	18.050591
_cell_length_b	25.639239
_cell_length_c	18.050583
_cell_angle_alpha	89.961658
_cell_angle_beta	89.977979
_cell_angle_gamma	90.034692
loop_
_atom_site_label
_atom_site_type_symbol
_atom_site_fract_x
_atom_site_fract_y
_atom_site_fract_z
Zn1	Zn	1.135247	-0.208169	-0.420021
Zn2	Zn	1.635247	0.291831	0.079979
Zn3	Zn	1.135132	-0.295618	-0.295826
Zn4	Zn	1.635132	0.204382	0.204174
Zn5	Zn	1.011063	-0.208192	-0.295832
Zn6	Zn	1.511063	0.291808	0.204168
Zn7	Zn	1.010991	-0.295569	-0.419962
Zn8	Zn	1.510991	0.204431	0.080038
O9	O	1.073108	-0.251887	-0.357910
O10	O	1.573108	0.248113	0.142090
O11	O	1.239156	-0.219780	-0.403568
O12	O	1.739156	0.280220	0.096432
O13	O	1.118657	-0.284050	-0.191902
O14	O	1.618657	0.215950	0.308098
O15	O	1.027615	-0.135024	-0.312333
O16	O	1.527615	0.364976	0.187667
O17	O	1.239072	-0.284028	-0.312323
O18	O	1.739072	0.215972	0.187677
O19	O	1.118852	-0.135007	-0.403574
O20	O	1.618852	0.364993	0.096426
O21	O	1.027504	-0.219819	-0.191906
O22	O	1.527504	0.280181	0.308094
O23	O	0.907129	-0.219772	-0.312276
O24	O	1.407129	0.280228	0.187724
O25	O	1.027491	-0.283945	-0.523894
O26	O	1.527491	0.216055	-0.023894
O27	O	0.907076	-0.283968	-0.403473
O28	O	1.407076	0.216032	0.096527
O29	O	1.118781	-0.219733	-0.523938
O30	O	1.618781	0.280267	-0.023938
O31	O	1.118587	-0.368776	-0.312266
O32	O	1.618587	0.131224	0.187734
O33	O	1.027381	-0.368741	-0.403468
O34	O	1.527381	0.131259	0.096532
C35	C	0.880156	-0.251867	-0.357869
C36	C	1.380156	0.248133	0.142131
C37	C	0.797610	-0.251872	-0.357869
C38	C	1.297610	0.248128	0.142131
C39	C	0.598167	-0.216922	-0.308390
C40	C	1.098167	0.283078	0.191610
C41	C	0.548735	-0.264612	-0.290112
C42	C	1.048735	0.235388	0.209888
C43	C	0.646480	-0.251888	-0.357903
C44	C	1.146480	0.248112	0.142097
C45	C	0.548831	-0.204213	-0.376179
C46	C	1.048831	0.295787	0.123821
C47	C	0.500495	-0.251899	-0.357934
C48	C	1.000495	0.248101	0.142066
C49	C	0.598135	-0.299603	-0.339589
C50	C	1.098135	0.200397	0.160411
C51	C	0.598235	-0.239172	-0.425688
C52	C	1.098235	0.260828	0.074312
C53	C	0.548825	-0.286896	-0.407435
C54	C	1.048825	0.213104	0.092565
C55	C	0.730578	-0.251880	-0.357883
C56	C	1.230578	0.248120	0.142117
C57	C	0.416398	-0.251911	-0.357954
C58	C	0.916398	0.248089	0.142046
C59	C	1.072983	-0.387730	-0.357876
C60	C	1.572983	0.112270	0.142124
C61	C	1.072998	-0.445844	-0.357886
C62	C	1.572998	0.054156	0.142114
C63	C	1.120723	-0.806213	-0.310502
C64	C	1.620723	-0.306213	0.189498
C65	C	1.120752	-0.860817	-0.310512
C66	C	1.620752	-0.360817	0.189488
O67	O	1.161200	-0.889059	-0.270187
O68	O	1.661200	-0.389059	0.229813
N69	N	1.073239	-0.888126	-0.357959
N70	N	1.573239	-0.388126	0.142041
C71	C	1.025699	-0.860828	-0.405405
C72	C	1.525699	-0.360828	0.094595
O73	O	0.985289	-0.889070	-0.445764
O74	O	1.485289	-0.389070	0.054236
C75	C	1.025675	-0.806225	-0.405398
C76	C	1.525675	-0.306225	0.094602
C77	C	1.073186	-0.778918	-0.357943
C78	C	1.573186	-0.278918	0.142057
C79	C	1.168231	-0.778906	-0.263051
C80	C	1.668231	-0.278906	0.236949
C81	C	1.168201	-0.724306	-0.263040
C82	C	1.668201	-0.224306	0.236960
C83	C	1.120663	-0.697011	-0.310481
C84	C	1.620663	-0.197011	0.189519
C85	C	1.073156	-0.724318	-0.357932
C86	C	1.573156	-0.224318	0.142068
C87	C	0.978139	-0.778928	-0.452847
C88	C	1.478139	-0.278928	0.047153
C89	C	0.978119	-0.724321	-0.452837
C90	C	1.478119	-0.224321	0.047163
C91	C	1.025630	-0.697014	-0.405381
C92	C	1.525630	-0.197014	0.094619
C93	C	1.025588	-0.642423	-0.405362
C94	C	1.525588	-0.142423	0.094638
N95	N	1.073101	-0.615114	-0.357914
N96	N	1.573101	-0.115114	0.142086
C97	C	1.120639	-0.642408	-0.310474
C98	C	1.620639	-0.142408	0.189526
C99	C	1.025755	-0.975499	-0.405416
C100	C	1.525755	-0.475499	0.094584
C101	C	1.025775	-1.030101	-0.405420
C102	C	1.525775	-0.530101	0.094580
C103	C	1.120829	-1.030086	-0.310528
C104	C	1.620829	-0.530086	0.189472
C105	C	1.120805	-0.975483	-0.310521
C106	C	1.620805	-0.475483	0.189479
C107	C	1.073268	-0.948189	-0.357969
C108	C	1.573268	-0.448189	0.142031
C109	C	1.120572	-0.527743	-0.310455
C110	C	1.620572	-0.027743	0.189545
C111	C	1.120536	-0.473138	-0.310446
C112	C	1.620536	0.026862	0.189554
C113	C	1.025485	-0.473157	-0.405340
C114	C	1.525485	0.026843	0.094660
C115	C	1.025518	-0.527758	-0.405347
C116	C	1.525518	-0.027758	0.094653
C117	C	1.073068	-0.555049	-0.357901
C118	C	1.573068	-0.055049	0.142099
O119	O	0.985163	-0.614147	-0.445668
O120	O	1.485163	-0.114147	0.054332
O121	O	1.161049	-0.614159	-0.270129
O122	O	1.661049	-0.114159	0.229871
C123	C	1.266814	-0.251907	-0.357952
C124	C	1.766814	0.248093	0.142048
C125	C	1.349360	-0.251915	-0.357970
C126	C	1.849360	0.248085	0.142030
C127	C	1.073141	-0.251831	-0.551616
C128	C	1.573141	0.248169	-0.051616
C129	C	1.073155	-0.251807	-0.634162
C130	C	1.573155	0.248193	-0.134162
C131	C	1.073254	-0.115514	-0.357961
C132	C	1.573254	0.384486	0.142039
C133	C	1.073316	-0.057400	-0.357982
C134	C	1.573316	0.442600	0.142018
C135	C	1.122848	-0.216872	-0.833636
C136	C	1.622848	0.283128	-0.333636
C137	C	1.055118	-0.204072	-0.883024
C138	C	1.555118	0.295928	-0.383024
C139	C	1.073185	-0.251798	-0.785292
C140	C	1.573185	0.248202	-0.285292
C141	C	1.140943	-0.264565	-0.882986
C142	C	1.640943	0.235435	-0.382986
C143	C	1.073220	-0.251789	-0.931277
C144	C	1.573220	0.248211	-0.431277
C145	C	1.005419	-0.238974	-0.833593
C146	C	1.505419	0.261026	-0.333593
C147	C	1.091289	-0.299489	-0.833550
C148	C	1.591289	0.200511	-0.333550
C149	C	1.023512	-0.286708	-0.882916
C150	C	1.523512	0.213292	-0.382916
C151	C	1.073166	-0.251803	-0.701194
C152	C	1.573166	0.248197	-0.201194
C153	C	1.073231	-0.251785	-1.015374
C154	C	1.573231	0.248215	-0.515374
C155	C	1.073118	-0.251905	-0.164958
C156	C	1.573118	0.248095	0.335042
C157	C	1.073248	-0.251781	-0.082413
C158	C	1.573248	0.248219	0.417587
H159	H	0.527134	-0.163897	-0.391599
H160	H	1.027134	0.336103	0.108401
N161	N	0.929570	-0.696442	-0.501315
N162	N	1.429570	-0.196442	-0.001315
N163	N	0.934462	-0.702500	-0.569848
N164	N	1.434462	-0.202500	-0.069848
H165	H	0.900175	-0.682811	-0.604086
H166	H	1.400175	-0.182811	-0.104086
N167	N	1.175452	-0.179805	-0.806469
N168	N	1.675452	0.320195	-0.306469
N169	N	1.228187	-0.194625	-0.766852
N170	N	1.728187	0.305375	-0.266852
H171	H	1.265335	-0.168446	-0.747662
H172	H	1.765335	0.331554	-0.247662
H173	H	0.948115	-0.228125	-0.811988
H174	H	1.448115	0.271875	-0.311988
N175	N	1.110517	-0.350068	-0.806247
N176	N	1.610517	0.149932	-0.306247
N177	N	1.113035	-0.358246	-0.738020
N178	N	1.613035	0.141754	-0.238020
H179	H	1.126623	-0.393968	-0.718734
H180	H	1.626623	0.106032	-0.218734
N181	N	0.625341	-0.179869	-0.255803
N182	N	1.125341	0.320131	0.244197
N183	N	0.609448	-0.184621	-0.188730
N184	N	1.109448	0.315379	0.311270
H185	H	0.628639	-0.158455	-0.151588
H186	H	1.128639	0.341545	0.348412
N187	N	0.521469	-0.278113	-0.218212
N188	N	1.021469	0.221887	0.281788
N189	N	0.537273	-0.250331	-0.163571
N190	N	1.037273	0.249669	0.336429
H191	H	0.518020	-0.259863	-0.112790
H192	H	1.018020	0.240137	0.387210
H193	H	1.159540	-1.052319	-0.271902
H194	H	1.659540	-0.552319	0.228098
N195	N	0.625172	-0.350206	-0.320130
N196	N	1.125172	0.149794	0.179870
N197	N	0.608848	-0.388820	-0.359095
N198	N	1.108848	0.111180	0.140905
H199	H	0.627943	-0.424558	-0.345351
H200	H	1.127943	0.075442	0.154649
N201	N	0.976973	-0.555656	-0.453802
N202	N	1.476973	-0.055656	0.046198
N203	N	0.908444	-0.549611	-0.448800
N204	N	1.408444	-0.049611	0.051200
H205	H	0.874161	-0.569312	-0.483025
H206	H	1.374161	-0.069312	0.016975
N207	N	0.976927	-0.445263	-0.453786
N208	N	1.476927	0.054737	0.046214
N209	N	0.976913	-0.396511	-0.453764
N210	N	1.476913	0.103489	0.046236
H211	H	0.942621	-0.376808	-0.487981
H212	H	1.442621	0.123192	0.012019
H213	H	0.527297	-0.316504	-0.449320
H214	H	1.027297	0.183496	0.050680
N215	N	1.035925	-0.153470	-0.910279
N216	N	1.535925	0.346530	-0.410279
N217	N	1.075360	-0.114959	-0.894500
N218	N	1.575360	0.385041	-0.394500
H219	H	1.061809	-0.079220	-0.913745
H220	H	1.561809	0.420780	-0.413745
H221	H	1.159224	-0.450907	-0.271799
H222	H	1.659224	0.049093	0.228201
N223	N	0.970786	-0.323749	-0.909911
N224	N	1.470786	0.176251	-0.409911
N225	N	0.962591	-0.329999	-0.978089
N226	N	1.462591	0.170001	-0.478089
H227	H	0.925351	-0.356157	-0.997158
H228	H	1.425351	0.143843	-0.497158
H229	H	1.198229	-0.275366	-0.904684
H230	H	1.698229	0.224634	-0.404684
H231	H	1.159293	-0.549957	-0.271822
H232	H	1.659293	-0.049957	0.228178
N233	N	1.216738	-0.696425	-0.214562
N234	N	1.716738	-0.196425	0.285438
N235	N	1.259177	-0.720811	-0.172213
N236	N	1.759177	-0.220811	0.327787
H237	H	1.293461	-0.701124	-0.137973
H238	H	1.793461	-0.201124	0.362027
N239	N	0.625540	-0.225665	-0.497566
N240	N	1.125540	0.274335	0.002434
N241	N	0.608854	-0.252989	-0.552409
N242	N	1.108854	0.247011	-0.052409
H243	H	0.628140	-0.243446	-0.603174
H244	H	1.128140	0.256554	-0.103174
H245	H	1.206946	-0.801123	-0.224419
H246	H	1.706946	-0.301123	0.275581
N247	N	0.977227	-1.057982	-0.453887
N248	N	1.477227	-0.557982	0.046113
N249	N	0.934786	-1.033599	-0.496236
N250	N	1.434786	-0.533599	0.003764
H251	H	0.900499	-1.053288	-0.530470
H252	H	1.400499	-0.553288	-0.030470
H253	H	1.159493	-0.953253	-0.271879
H254	H	1.659493	-0.453253	0.228121
N255	N	0.977187	-0.947629	-0.453889
N256	N	1.477187	-0.447629	0.046111
N257	N	0.934772	-0.972024	-0.496246
N258	N	1.434772	-0.472024	0.003754
H259	H	0.900472	-0.952344	-0.530482
H260	H	1.400472	-0.452344	-0.030482
N261	N	0.929602	-0.806803	-0.501327
N262	N	1.429602	-0.306803	-0.001327
N263	N	0.887171	-0.782416	-0.543681
N264	N	1.387171	-0.282416	-0.043681
H265	H	0.852889	-0.802102	-0.577924
H266	H	1.352889	-0.302102	-0.077924
