data_functionalizedCrystal
_audit_creation_method	'MofGen! by Chris Wilmer'
_symmetry_space_group_name_H-M	'P1'
_symmetry_Int_Tables_number	1
_symmetry_cell_setting	triclinic
loop_
_symmetry_equiv_pos_as_xyz
  x,y,z
_cell_length_a	14.908979
_cell_length_b	14.908968
_cell_length_c	19.805407
_cell_angle_alpha	86.697368
_cell_angle_beta	86.714368
_cell_angle_gamma	89.788607
loop_
_atom_site_label
_atom_site_type_symbol
_atom_site_fract_x
_atom_site_fract_y
_atom_site_fract_z
Zn1	Zn	1.395190	0.278689	0.310335
Zn2	Zn	1.728523	0.612023	0.643669
Zn3	Zn	2.061856	0.945356	0.977002
Zn4	Zn	1.403799	0.429014	0.190283
Zn5	Zn	1.737132	0.762348	0.523616
Zn6	Zn	2.070466	1.095681	0.856949
Zn7	Zn	1.244858	0.287362	0.203288
Zn8	Zn	1.578191	0.620695	0.536621
Zn9	Zn	1.911525	0.954028	0.869955
Zn10	Zn	1.253478	0.437688	0.309557
Zn11	Zn	1.586811	0.771022	0.642890
Zn12	Zn	1.920145	1.104355	0.976224
O13	O	1.324331	0.358188	0.253366
O14	O	1.657665	0.691522	0.586699
O15	O	1.990998	1.024855	0.920032
O16	O	1.522156	0.291371	0.289293
O17	O	1.855489	0.624704	0.622626
O18	O	2.188823	0.958037	0.955960
O19	O	1.382711	0.410223	0.097292
O20	O	1.716044	0.743556	0.430625
O21	O	2.049378	1.076890	0.763958
O22	O	1.257589	0.160388	0.223256
O23	O	1.590923	0.493721	0.556590
O24	O	1.924256	0.827054	0.889923
O25	O	1.528481	0.401814	0.201091
O26	O	1.861815	0.735147	0.534424
O27	O	2.195148	1.068480	0.867758
O28	O	1.368037	0.154016	0.301904
O29	O	1.701371	0.487349	0.635237
O30	O	2.034704	0.820683	0.968570
O31	O	1.265938	0.306152	0.106846
O32	O	1.599271	0.639485	0.440180
O33	O	1.932604	0.972818	0.773513
O34	O	1.120177	0.314563	0.222502
O35	O	1.453511	0.647896	0.555835
O36	O	1.786844	0.981229	0.889168
O37	O	1.272281	0.416598	0.404377
O38	O	1.605614	0.749931	0.737710
O39	O	1.938947	1.083264	1.071043
O40	O	1.126510	0.425007	0.300577
O41	O	1.459844	0.758340	0.633911
O42	O	1.793177	1.091674	0.967244
O43	O	1.376396	0.299782	0.404948
O44	O	1.709729	0.633115	0.738282
O45	O	2.043062	0.966448	1.071615
O46	O	1.391069	0.555989	0.200336
O47	O	1.724403	0.889322	0.533670
O48	O	2.057736	1.222655	0.867003
O49	O	1.280629	0.562361	0.287967
O50	O	1.613962	0.895695	0.621300
O51	O	1.947296	1.229028	0.954633
C52	C	1.090719	0.371668	0.262867
C53	C	1.424052	0.705001	0.596200
C54	C	1.757386	1.038334	0.929533
C55	C	0.990780	0.377456	0.266946
C56	C	1.324113	0.710789	0.600280
C57	C	1.657447	1.044123	0.933613
C58	C	0.853246	0.443204	0.313264
C59	C	1.186580	0.776537	0.646597
C60	C	1.519913	1.109870	0.979931
C61	C	0.947148	0.437766	0.309437
C62	C	1.280481	0.771099	0.642770
C63	C	1.613815	1.104432	0.976103
C64	C	0.940503	0.322582	0.228279
C65	C	1.273836	0.655915	0.561612
C66	C	1.607170	0.989249	0.894945
C67	C	0.846601	0.328020	0.232106
C68	C	1.179935	0.661353	0.565439
C69	C	1.513268	0.994687	0.898773
C70	C	0.802976	0.388332	0.274601
C71	C	1.136310	0.721665	0.607934
C72	C	1.469643	1.054999	0.941267
C73	C	0.709073	0.393765	0.278431
C74	C	1.042406	0.727098	0.611765
C75	C	1.375739	1.060432	0.945098
C76	C	0.702430	0.278586	0.197270
C77	C	1.035763	0.611920	0.530603
C78	C	1.369096	0.945253	0.863937
C79	C	0.796331	0.273148	0.193443
C80	C	1.129665	0.606482	0.526776
C81	C	1.462998	0.939815	0.860110
C82	C	1.337743	0.591798	0.242670
C83	C	1.671076	0.925132	0.576003
C84	C	2.004410	1.258465	0.909336
C85	C	1.343563	0.691733	0.238113
C86	C	1.676896	1.025066	0.571446
C87	C	2.010230	1.358399	0.904780
C88	C	1.409303	0.829236	0.186105
C89	C	1.742636	1.162569	0.519438
C90	C	2.075970	1.495902	0.852772
C91	C	1.403840	0.735338	0.190384
C92	C	1.737173	1.068671	0.523717
C93	C	2.070506	1.402005	0.857050
C94	C	1.288744	0.742032	0.281566
C95	C	1.622078	1.075365	0.614899
C96	C	1.955411	1.408699	0.948232
C97	C	1.294208	0.835930	0.277287
C98	C	1.627541	1.169263	0.610620
C99	C	1.960874	1.502596	0.943954
C100	C	1.354490	0.879528	0.229556
C101	C	1.687824	1.212861	0.562889
C102	C	2.021157	1.546195	0.896223
C103	C	1.359958	0.973427	0.225281
C104	C	1.693291	1.306760	0.558614
C105	C	2.026624	1.640094	0.891948
C106	C	1.244859	0.980120	0.316459
C107	C	1.578192	1.313453	0.649793
C108	C	1.911525	1.646787	0.983126
C109	C	1.239395	0.886222	0.320738
C110	C	1.572728	1.219556	0.654071
C111	C	1.906062	1.552889	0.987404
C112	C	1.558856	0.344657	0.243828
C113	C	1.892189	0.677990	0.577161
C114	C	2.225522	1.011324	0.910495
C115	C	1.658796	0.338891	0.239764
C116	C	1.992129	0.672224	0.573097
C117	C	2.325463	1.005558	0.906430
C118	C	1.324339	0.358190	0.429908
C119	C	1.657673	0.691523	0.763241
C120	C	1.991006	1.024856	1.096575
C121	C	1.324343	0.358190	0.505140
C122	C	1.657676	0.691524	0.838473
C123	C	1.991009	1.024857	1.171807
C124	C	1.310885	1.123665	0.264126
C125	C	1.644218	1.456999	0.597460
C126	C	1.977552	1.790332	0.930793
C127	C	1.305139	1.023727	0.268734
C128	C	1.638472	1.357060	0.602067
C129	C	1.971806	1.690393	0.935400
C130	C	1.378549	0.297374	0.540783
C131	C	1.711882	0.630707	0.874116
C132	C	2.045215	0.964040	1.207449
C133	C	1.378541	0.297371	0.611472
C134	C	1.711874	0.630705	0.944805
C135	C	2.045208	0.964038	1.278138
C136	C	1.324331	0.358191	0.646516
C137	C	1.657664	0.691524	0.979849
C138	C	1.990998	1.024857	1.313183
C139	C	1.270119	0.419010	0.610868
C140	C	1.603452	0.752344	0.944202
C141	C	1.936786	1.085677	1.277535
C142	C	1.270123	0.419008	0.540181
C143	C	1.603456	0.752341	0.873514
C144	C	1.936789	1.085674	1.206848
C145	C	1.270102	0.419022	0.895942
C146	C	1.603435	0.752355	1.229275
C147	C	1.936769	1.085689	1.562608
C148	C	1.270104	0.419022	0.966634
C149	C	1.603438	0.752355	1.299967
C150	C	1.936771	1.085688	1.633300
C151	C	1.378520	0.297385	0.967232
C152	C	1.711853	0.630719	1.300566
C153	C	2.045187	0.964052	1.633899
C154	C	1.378524	0.297383	0.896545
C155	C	1.711857	0.630716	1.229878
C156	C	2.045190	0.964049	1.563212
C157	C	1.324308	0.358199	0.860904
C158	C	1.657642	0.691532	1.194237
C159	C	1.990975	1.024866	1.527571
C160	C	1.324316	0.358199	0.784255
C161	C	1.657650	0.691533	1.117588
C162	C	1.990983	1.024866	1.450922
C163	C	1.324327	0.358195	0.723163
C164	C	1.657661	0.691528	1.056496
C165	C	1.990994	1.024862	1.389830
C166	C	1.324316	0.358206	1.077510
C167	C	1.657649	0.691539	1.410843
C168	C	1.990982	1.024873	1.744176
C169	C	1.324306	0.358200	1.002278
C170	C	1.657639	0.691533	1.335612
C171	C	1.990973	1.024867	1.668945
H172	H	1.409046	1.008923	0.186418
H173	H	1.742379	1.342256	0.519751
H174	H	2.075713	1.675590	0.853085
H175	H	1.422683	0.247850	0.640489
H176	H	1.756016	0.581183	0.973822
H177	H	2.089350	0.914517	1.307155
O178	O	0.843392	0.208106	0.147609
O179	O	1.176726	0.541440	0.480942
O180	O	1.510059	0.874773	0.814275
H181	H	0.792658	0.170869	0.121363
H182	H	1.125991	0.504202	0.454696
H183	H	1.459325	0.837536	0.788029
O184	O	1.223728	0.694995	0.333039
O185	O	1.557061	1.028328	0.666373
O186	O	1.890394	1.361662	0.999706
H187	H	1.186523	0.745740	0.362534
H188	H	1.519856	1.079073	0.695868
H189	H	1.853190	1.412407	1.029201
H190	H	0.817726	0.492304	0.347871
H191	H	1.151059	0.825638	0.681204
H192	H	1.484393	1.158971	1.014538
H193	H	1.458395	0.864733	0.147246
H194	H	1.791728	1.198067	0.480579
H195	H	2.125062	1.531400	0.813913
H196	H	0.661490	0.233902	0.165790
H197	H	0.994823	0.567235	0.499124
H198	H	1.328156	0.900569	0.832457
O199	O	1.462968	0.681087	0.143528
O200	O	1.796301	1.014420	0.476862
O201	O	2.129634	1.347754	0.810195
H202	H	1.448665	0.700036	0.090196
H203	H	1.781998	1.033370	0.423529
H204	H	2.115332	1.366703	0.756863
H205	H	1.422661	0.247863	0.996260
H206	H	1.755995	0.581196	1.329594
H207	H	2.089328	0.914530	1.662927
H208	H	1.422670	0.247860	0.868015
H209	H	1.756003	0.581193	1.201349
H210	H	2.089337	0.914527	1.534682
O211	O	1.437022	0.231779	0.502984
O212	O	1.770355	0.565112	0.836318
O213	O	2.103689	0.898446	1.169651
H214	H	1.417552	0.162100	0.520408
H215	H	1.750885	0.495433	0.853742
H216	H	2.084219	0.828767	1.187075
H217	H	0.976039	0.273486	0.193676
H218	H	1.309373	0.606819	0.527009
H219	H	1.642706	0.940153	0.860343
H220	H	0.673555	0.442871	0.313035
H221	H	1.006888	0.776204	0.646369
H222	H	1.340221	1.109537	0.979702
O223	O	1.174376	0.839201	0.372218
O224	O	1.507709	1.172534	0.705551
O225	O	1.841043	1.505867	1.038884
H226	H	1.212091	0.794051	0.406999
H227	H	1.545424	1.127384	0.740332
H228	H	1.878758	1.460718	1.073665
H229	H	1.225973	0.468523	0.511162
H230	H	1.559306	0.801856	0.844496
H231	H	1.892640	1.135189	1.177829
O232	O	1.211640	0.484603	0.648664
O233	O	1.544973	0.817937	0.981997
O234	O	1.878307	1.151270	1.315330
H235	H	1.254499	0.528037	0.677133
H236	H	1.587833	0.861370	1.010467
H237	H	1.921166	1.194704	1.343800
H238	H	1.200229	1.021078	0.351842
H239	H	1.533562	1.354411	0.685176
H240	H	1.866895	1.687745	1.018509
O241	O	1.211622	0.484613	1.004437
O242	O	1.544956	0.817946	1.337770
O243	O	1.878289	1.151280	1.671104
H244	H	1.173914	0.526895	0.967779
H245	H	1.507248	0.860228	1.301113
H246	H	1.840581	1.193561	1.634446
O247	O	1.211582	0.484570	0.857507
O248	O	1.544915	0.817903	1.190841
O249	O	1.878248	1.151236	1.524174
H250	H	1.173876	0.526849	0.893755
H251	H	1.507209	0.860182	1.227088
H252	H	1.840543	1.193515	1.560421
O253	O	1.001372	0.496941	0.351142
O254	O	1.334705	0.830274	0.684475
O255	O	1.668039	1.163608	1.017808
H256	H	0.955257	0.539785	0.381337
H257	H	1.288591	0.873118	0.714670
H258	H	1.621924	1.206452	1.048003
