data_functionalizedCrystal
_audit_creation_method	'MofGen! by Chris Wilmer'
_symmetry_space_group_name_H-M	'P1'
_symmetry_Int_Tables_number	1
_symmetry_cell_setting	triclinic
loop_
_symmetry_equiv_pos_as_xyz
  x,y,z
_cell_length_a	16.992695
_cell_length_b	19.288867
_cell_length_c	18.366186
_cell_angle_alpha	89.992441
_cell_angle_beta	89.993794
_cell_angle_gamma	86.902646
loop_
_atom_site_label
_atom_site_type_symbol
_atom_site_fract_x
_atom_site_fract_y
_atom_site_fract_z
O1	O	0.097803	0.927052	-0.060525
O2	O	0.597803	1.427052	0.439475
O3	O	0.110993	0.725560	-0.060532
O4	O	0.610993	1.225560	0.439468
O5	O	-0.009742	0.825498	-0.060523
O6	O	0.490258	1.325498	0.439477
O7	O	0.218538	0.827114	-0.060534
O8	O	0.718538	1.327114	0.439466
O9	O	-0.009748	0.825480	0.060577
O10	O	0.490252	1.325480	0.560577
O11	O	0.110988	0.725542	0.060567
O12	O	0.610988	1.225542	0.560567
O13	O	0.097797	0.927033	0.060575
O14	O	0.597797	1.427033	0.560575
Zn15	Zn	0.104391	0.826285	0.079798
Zn16	Zn	0.604391	1.326285	0.579798
Zn17	Zn	0.104399	0.826309	-0.079756
Zn18	Zn	0.604399	1.326309	0.420244
O19	O	0.218532	0.827095	0.060565
O20	O	0.718532	1.327095	0.560565
C21	C	0.110566	0.699650	0.000017
C22	C	0.610566	1.199650	0.500017
C23	C	0.109291	0.622472	0.000014
C24	C	0.609291	1.122472	0.500014
C25	C	-0.038950	0.823411	0.000027
C26	C	0.461050	1.323411	0.500027
C27	C	-0.125972	0.817210	0.000026
C28	C	0.374028	1.317210	0.500026
C29	C	0.100111	0.066381	-0.065988
C30	C	0.600111	0.566381	0.434012
C31	C	0.101304	0.138898	-0.065991
C32	C	0.601304	0.638898	0.434009
C33	C	0.101901	0.175152	0.000020
C34	C	0.601901	0.675152	0.500020
C35	C	0.101285	0.138884	0.066039
C36	C	0.601285	0.638884	0.566039
C37	C	0.100084	0.066368	0.066040
C38	C	0.600084	0.566368	0.566040
C39	C	0.149717	0.287258	0.050591
C40	C	0.649717	0.787258	0.550591
C41	C	0.150923	0.359772	0.050587
C42	C	0.650923	0.859772	0.550587
C43	C	0.105602	0.398813	0.000020
C44	C	0.605602	0.898813	0.500020
C45	C	0.059086	0.365331	-0.050555
C46	C	0.559086	0.865331	0.449445
C47	C	0.057885	0.292816	-0.050555
C48	C	0.557885	0.792816	0.449445
C49	C	0.103203	0.253783	0.000027
C50	C	0.603203	0.753783	0.500027
C51	C	0.107507	0.513705	-0.065997
C52	C	0.607507	1.013705	0.434003
C53	C	0.108695	0.586223	-0.065997
C54	C	0.608695	1.086223	0.434003
C55	C	0.108684	0.586207	0.066034
C56	C	0.608684	1.086207	0.566034
C57	C	0.107488	0.513690	0.066032
C58	C	0.607488	1.013690	0.566032
C59	C	0.106903	0.477443	0.000015
C60	C	0.606903	0.977443	0.500015
C61	C	-0.176423	0.877038	0.000029
C62	C	0.323577	1.377038	0.500029
C63	C	-0.258190	0.871208	0.000022
C64	C	0.241810	1.371208	0.500022
C65	C	-0.289503	0.805549	0.000017
C66	C	0.210497	1.305549	0.500017
C67	C	-0.239045	0.745716	0.000012
C68	C	0.260955	1.245716	0.500012
C69	C	-0.157280	0.751547	0.000014
C70	C	0.342720	1.251547	0.500014
C71	C	-0.533015	0.781382	0.000007
C72	C	-0.033015	1.281382	0.500007
C73	C	-0.614786	0.775555	0.000007
C74	C	-0.114786	1.275555	0.500007
C75	C	-0.633925	0.901048	0.000015
C76	C	-0.133925	1.401048	0.500015
C77	C	-0.552158	0.906873	0.000022
C78	C	-0.052158	1.406873	0.500022
C79	C	-0.501708	0.847040	0.000013
C80	C	-0.001708	1.347040	0.500013
N81	N	-0.373081	0.799588	0.000012
N82	N	0.126919	1.299588	0.500012
N83	N	-0.418131	0.853002	0.000012
N84	N	0.081869	1.353002	0.500012
C85	C	0.247740	0.829183	0.000014
C86	C	0.747740	1.329183	0.500014
C87	C	0.334763	0.835383	0.000010
C88	C	0.834763	1.335383	0.500010
C89	C	0.098224	0.952944	0.000024
C90	C	0.598224	1.452944	0.500024
C91	C	0.099499	1.030122	0.000022
C92	C	0.599499	1.530122	0.500022
N93	N	0.104385	0.826273	0.188689
N94	N	0.604385	1.326273	0.688689
N95	N	0.104399	0.826326	-0.188647
N96	N	0.604399	1.326326	0.311353
C97	C	0.050950	0.870543	0.226794
C98	C	0.550950	1.370543	0.726794
C99	C	0.050947	0.870547	0.303022
C100	C	0.550947	1.370547	0.803022
C101	C	0.104392	0.826289	0.341142
C102	C	0.604392	1.326289	0.841142
C103	C	0.157831	0.782011	0.303028
C104	C	0.657831	1.282011	0.803028
C105	C	0.157828	0.782003	0.226802
C106	C	0.657828	1.282003	0.726802
C107	C	0.175821	0.821154	0.461899
C108	C	0.675821	1.321154	0.961899
C109	C	0.175825	0.821166	0.538123
C110	C	0.675825	1.321166	1.038123
C111	C	0.104402	0.826309	0.576250
C112	C	0.604402	1.326309	1.076250
C113	C	0.032971	0.831454	0.538141
C114	C	0.532971	1.331454	1.038141
C115	C	0.032967	0.831446	0.461915
C116	C	0.532967	1.331446	0.961915
C117	C	0.104401	0.826292	0.423797
C118	C	0.604401	1.326292	0.923797
C119	C	0.050958	0.870586	0.697009
C120	C	0.550958	1.370586	1.197009
C121	C	0.050954	0.870585	0.773238
C122	C	0.550954	1.370585	1.273238
C123	C	0.157845	0.782052	0.773243
C124	C	0.657845	1.282052	1.273243
C125	C	0.157843	0.782049	0.697016
C126	C	0.657843	1.282049	1.197016
C127	C	0.104400	0.826320	0.658903
C128	C	0.604400	1.326320	1.158903
H129	H	0.099632	0.036874	-0.119745
H130	H	0.599632	0.536874	0.380255
H131	H	-0.025194	0.835633	0.430890
H132	H	0.474806	1.335633	0.930890
C133	C	-0.007813	0.919255	0.184870
C134	C	0.492187	1.419255	0.684870
H135	H	-0.000153	0.912922	0.134014
H136	H	0.499847	1.412922	0.634014
H137	H	-0.060123	0.908837	0.197362
H138	H	0.439877	1.408837	0.697362
H139	H	0.000602	0.966069	0.197362
H140	H	0.500602	1.466069	0.697362
C141	C	-0.313683	0.937019	0.000033
C142	C	0.186317	1.437019	0.500033
H143	H	-0.283323	0.976958	0.000047
H144	H	0.216677	1.476958	0.500047
H145	H	-0.345973	0.937367	-0.042197
H146	H	0.154027	1.437367	0.457803
H147	H	-0.345980	0.937341	0.042268
H148	H	0.154020	1.437341	0.542268
H149	H	0.233989	0.816982	0.569145
H150	H	0.733989	1.316982	1.069145
C151	C	0.109369	0.626109	-0.138612
C152	C	0.609369	1.126109	0.361388
H153	H	0.108856	0.594133	-0.177927
H154	H	0.608856	1.094133	0.322073
H155	H	0.064132	0.657158	-0.141362
H156	H	0.564132	1.157158	0.358638
H157	H	0.155548	0.651637	-0.141352
H158	H	0.655548	1.151637	0.358648
H159	H	-0.150935	0.930505	0.000038
H160	H	0.349065	1.430505	0.500038
C161	C	-0.649233	0.703329	0.000002
C162	C	-0.149233	1.203329	0.500002
H163	H	-0.705155	0.708428	0.000011
H164	H	-0.205155	1.208428	0.500011
H165	H	-0.631901	0.678508	-0.042230
H166	H	-0.131901	1.178508	0.457770
H167	H	-0.631904	0.678497	0.042235
H168	H	-0.131904	1.178497	0.542235
C169	C	-0.477530	0.715568	0.000010
C170	C	0.022470	1.215568	0.500010
H171	H	-0.507892	0.675631	0.000017
H172	H	-0.007892	1.175631	0.500017
H173	H	-0.445228	0.715234	-0.042218
H174	H	0.054772	1.215234	0.457782
H175	H	-0.445245	0.715230	0.042247
H176	H	0.054755	1.215230	0.542247
C177	C	0.199566	0.244317	0.106221
C178	C	0.699566	0.744317	0.606221
H179	H	0.192182	0.196335	0.098984
H180	H	0.692182	0.696335	0.598984
H181	H	0.253647	0.252944	0.099858
H182	H	0.753647	0.752944	0.599858
H183	H	0.183606	0.257174	0.154144
H184	H	0.683606	0.757174	0.654144
C185	C	0.106855	0.473827	-0.138610
C186	C	0.606855	0.973827	0.361390
H187	H	0.106063	0.425446	-0.129156
H188	H	0.606063	0.925446	0.370844
H189	H	0.061348	0.488473	-0.165734
H190	H	0.561348	0.988473	0.334266
H191	H	0.152764	0.482956	-0.165734
H192	H	0.652764	0.982956	0.334266
H193	H	0.101807	0.168427	-0.119746
H194	H	0.601807	0.668427	0.380254
C195	C	-0.517719	0.979098	0.000017
C196	C	-0.017719	1.479098	0.500017
H197	H	-0.559478	1.013895	0.000011
H198	H	-0.059478	1.513895	0.500011
H199	H	-0.486224	0.983977	0.042246
H200	H	0.013776	1.483977	0.542246
H201	H	-0.486218	0.983982	-0.042219
H202	H	0.013782	1.483982	0.457781
C203	C	0.107094	0.473782	0.138642
C204	C	0.607094	0.973782	0.638642
H205	H	0.106370	0.425398	0.129189
H206	H	0.606370	0.925398	0.629189
H207	H	0.153076	0.482986	0.165605
H208	H	0.653076	0.982986	0.665605
H209	H	0.061658	0.488331	0.165926
H210	H	0.561658	0.988331	0.665926
C211	C	0.006719	0.255985	-0.106177
C212	C	0.506719	0.755985	0.393823
H213	H	0.012501	0.207207	-0.098935
H214	H	0.512501	0.707207	0.401065
H215	H	-0.046968	0.271122	-0.099812
H216	H	0.453032	0.771122	0.400188
H217	H	0.023069	0.266897	-0.154104
H218	H	0.523069	0.766897	0.345896
H219	H	0.201346	0.745974	0.334070
H220	H	0.701346	1.245974	0.834070
H221	H	0.109167	0.615724	0.119782
H222	H	0.609167	1.115724	0.619782
H223	H	-0.025189	0.835641	0.569182
H224	H	0.474811	1.335641	1.069182
H225	H	0.188818	0.387026	0.091754
H226	H	0.688818	0.887026	0.591754
C227	C	0.101945	0.178759	0.138649
C228	C	0.601945	0.678759	0.638649
H229	H	0.102757	0.227140	0.129195
H230	H	0.602757	0.727140	0.629195
H231	H	0.056041	0.169635	0.165775
H232	H	0.556041	0.669635	0.665775
H233	H	0.147457	0.164109	0.165770
H234	H	0.647457	0.664109	0.665770
H235	H	0.099589	0.036846	0.119795
H236	H	0.599589	0.536846	0.619795
C237	C	-0.689421	0.966857	0.000015
C238	C	-0.189421	1.466857	0.500015
H239	H	-0.742602	0.953983	0.000006
H240	H	-0.242602	1.453983	0.500006
H241	H	-0.679961	0.993590	0.042244
H242	H	-0.179961	1.493590	0.542244
H243	H	-0.679945	0.993595	-0.042222
H244	H	-0.179945	1.493595	0.457778
C245	C	-0.273487	0.673493	0.000009
C246	C	0.226513	1.173493	0.500009
H247	H	-0.329409	0.678587	0.000017
H248	H	0.170591	1.178587	0.500017
H249	H	-0.256151	0.648672	-0.042221
H250	H	0.243849	1.148672	0.457779
H251	H	-0.256158	0.648664	0.042245
H252	H	0.243842	1.148664	0.542245
H253	H	0.233987	0.816954	0.430863
H254	H	0.733987	1.316954	0.930863
C255	C	-0.101784	0.685736	0.000013
C256	C	0.398216	1.185736	0.500013
H257	H	-0.132142	0.645797	0.000016
H258	H	0.367858	1.145797	0.500016
H259	H	-0.069485	0.685410	-0.042217
H260	H	0.430515	1.185410	0.457783
H261	H	-0.069496	0.685395	0.042249
H262	H	0.430504	1.185395	0.542249
H263	H	0.007431	0.906597	0.334052
H264	H	0.507431	1.406597	0.834052
C265	C	-0.007833	0.919272	0.655082
C266	C	0.492167	1.419272	1.155082
H267	H	-0.039667	0.945631	0.688696
H268	H	0.460333	1.445631	1.188696
H269	H	0.020282	0.949742	0.625335
H270	H	0.520282	1.449742	1.125335
H271	H	-0.040397	0.892473	0.625357
H272	H	0.459603	1.392473	1.125357
H273	H	0.007436	0.906632	0.804263
H274	H	0.507436	1.406632	1.304263
H275	H	0.022184	0.397117	-0.091734
H276	H	0.522184	0.897117	0.408266
C277	C	0.216634	0.733369	0.815167
C278	C	0.716634	1.233369	1.315167
H279	H	0.208986	0.739716	0.866022
H280	H	0.708986	1.239716	1.366022
H281	H	0.208254	0.686549	0.802686
H282	H	0.708254	1.186549	1.302686
H283	H	0.268936	0.743817	0.802665
H284	H	0.768936	1.243817	1.302665
H285	H	0.201358	0.746004	0.665989
H286	H	0.701358	1.246004	1.165989
H287	H	0.201342	0.745952	0.195777
H288	H	0.701342	1.245952	0.695777
