data_functionalizedCrystal
_audit_creation_method	'MofGen! by Chris Wilmer'
_symmetry_space_group_name_H-M	'P1'
_symmetry_Int_Tables_number	1
_symmetry_cell_setting	triclinic
loop_
_symmetry_equiv_pos_as_xyz
  x,y,z
_cell_length_a	17.639617
_cell_length_b	18.101397
_cell_length_c	17.640968
_cell_angle_alpha	101.235310
_cell_angle_beta	109.666032
_cell_angle_gamma	101.204936
loop_
_atom_site_label
_atom_site_type_symbol
_atom_site_fract_x
_atom_site_fract_y
_atom_site_fract_z
Zn1	Zn	1.354385	0.097957	0.721254
Zn2	Zn	1.326418	-0.057296	0.583395
Zn3	Zn	1.188675	0.035195	0.555518
Zn4	Zn	1.216507	-0.057224	0.693278
O5	O	1.271496	0.004658	0.638361
O6	O	1.466023	0.103598	0.726341
O7	O	1.284794	-0.071323	0.464350
O8	O	1.210713	0.147172	0.577545
O9	O	1.445476	-0.010465	0.625057
O10	O	1.332459	0.193283	0.699310
O11	O	1.183595	-0.003371	0.443869
O12	O	1.077019	-0.003301	0.550418
O13	O	1.258149	-0.010342	0.812336
O14	O	1.097467	-0.071200	0.651629
O15	O	1.359447	0.103668	0.832890
O16	O	1.311782	-0.160938	0.597930
O17	O	1.231031	-0.160885	0.678661
C18	C	1.057335	-0.044054	0.594963
C19	C	0.965719	-0.064906	0.576417
C20	C	0.717944	0.163134	0.779460
C21	C	0.631854	0.143517	0.762016
C22	C	0.610449	0.024865	0.656397
C23	C	0.696540	0.044470	0.673835
C24	C	0.750281	0.113606	0.735366
C25	C	0.728876	-0.005058	0.629741
C26	C	0.814959	0.014547	0.647175
C27	C	0.868704	0.083681	0.708702
C28	C	0.836363	0.133211	0.752800
C29	C	0.675133	-0.074191	0.568206
C30	C	0.707470	-0.123719	0.524113
C31	C	0.793555	-0.104117	0.541550
C32	C	0.847300	-0.034983	0.603077
C33	C	0.825896	-0.153647	0.497452
C34	C	0.911978	-0.134042	0.514886
C35	C	0.933383	-0.015378	0.620511
C36	C	1.271418	-0.187778	0.638307
C37	C	1.271465	-0.270079	0.638327
C38	C	1.271585	-0.569129	0.638423
C39	C	1.322179	-0.537886	0.587423
C40	C	1.322433	-0.452179	0.587633
C41	C	1.271526	-0.420767	0.638375
C42	C	1.312643	-0.426635	0.730024
C43	C	1.313064	-0.512247	0.729776
C44	C	1.179856	-0.562552	0.598491
C45	C	1.179895	-0.477246	0.596639
C46	C	1.271491	-0.336918	0.638352
C47	C	1.271623	-0.652976	0.638452
C48	C	1.486494	0.053559	0.681929
C49	C	1.578114	0.074398	0.700495
C50	C	1.315023	0.053672	0.853357
C51	C	1.333571	0.074559	0.944976
C52	C	1.271601	0.197854	0.638438
C53	C	1.271646	0.280183	0.638471
C54	C	1.228187	-0.044101	0.424211
C55	C	1.209798	-0.064743	0.332626
C56	C	1.130903	-0.153542	1.192798
C57	C	1.148349	-0.133903	1.278891
C58	C	1.253822	-0.015194	1.300281
C59	C	1.236382	-0.034821	1.214188
C60	C	1.174922	-0.103997	1.160453
C61	C	1.280401	0.014724	1.181842
C62	C	1.262964	-0.004905	1.095757
C63	C	1.201509	-0.074079	1.042017
C64	C	1.157486	-0.123626	1.074367
C65	C	1.341864	0.083896	1.235580
C66	C	1.385883	0.133442	1.203234
C67	C	1.368443	0.113816	1.117147
C68	C	1.306988	0.044642	1.063407
C69	C	1.412467	0.163363	1.084796
C70	C	1.395031	0.143735	0.998711
C71	C	1.289552	0.025014	0.977321
H72	H	1.294673	-0.449238	0.520229
H73	H	1.145844	-0.603261	0.531898
N74	N	0.894330	0.207768	0.819187
H75	H	0.937756	0.194428	0.864551
H76	H	0.860713	0.236123	0.844413
H77	H	1.149209	-0.475585	0.529106
N78	N	0.775918	0.237695	0.845835
H79	H	0.742374	0.266098	0.871129
H80	H	0.804855	0.272515	0.819586
H81	H	1.379566	-0.386418	0.761972
H82	H	1.462513	0.219682	1.128561
H83	H	1.390024	-0.413582	0.615451
N84	N	1.442508	0.197167	0.963817
H85	H	1.484086	0.243968	1.010920
H86	H	1.401738	0.215666	0.921314
H87	H	1.080837	-0.209859	1.149039
H88	H	0.977143	0.040917	0.670619
N89	N	1.223261	-0.049598	0.919359
H90	H	1.249508	-0.084446	0.890415
H91	H	1.177868	-0.036259	0.875966
N92	N	0.961552	0.104795	0.727515
H93	H	0.993718	0.108701	0.788233
H94	H	0.979205	0.156897	0.716627
H95	H	1.107419	-0.179943	1.030608
H96	H	1.380637	-0.513367	0.761550
H97	H	1.277682	-0.405351	0.769804
N98	N	0.596975	0.196941	0.809577
H99	H	0.644085	0.243710	0.851201
H100	H	0.568973	0.167291	0.840430
H101	H	0.566682	-0.031423	0.606296
N102	N	1.182683	-0.095266	0.949163
H103	H	1.235012	-0.100754	0.939861
H104	H	1.163330	-0.052616	0.925431
N105	N	1.125378	-0.450937	0.640342
H106	H	1.159458	-0.401818	0.688031
H107	H	1.103682	-0.493804	0.663136
N108	N	1.100872	-0.187346	1.313780
H109	H	1.059294	-0.234146	1.266674
H110	H	1.069975	-0.157731	1.341783
N111	N	0.582287	-0.095334	0.549400
H112	H	0.572998	-0.100867	0.601717
H113	H	0.553206	-0.146629	0.503703
N114	N	0.767921	-0.228207	0.431088
H115	H	0.785461	-0.274837	0.446813
H116	H	0.771000	-0.226563	0.375276
N117	N	1.129631	-0.589626	0.647403
H118	H	1.166072	-0.606080	0.695190
H119	H	1.079746	-0.635636	0.609124
H120	H	1.356060	0.099874	1.305676
H121	H	1.303865	0.041128	1.344044
H122	H	0.663702	-0.180007	0.474011
H123	H	0.938307	-0.174373	0.478980
N124	N	1.285592	-0.589092	0.497925
H125	H	1.235868	-0.633045	0.489568
H126	H	1.329576	-0.611912	0.485811
N127	N	1.411199	-0.542566	0.623942
H128	H	1.418897	-0.564836	0.673379
H129	H	1.451316	-0.488286	0.643031
H130	H	1.435926	0.189763	1.246997
H131	H	1.278788	-0.531828	0.770040
