data_functionalizedCrystal
_audit_creation_method	'MofGen! by Chris Wilmer'
_symmetry_space_group_name_H-M	'P1'
_symmetry_Int_Tables_number	1
_symmetry_cell_setting	triclinic
loop_
_symmetry_equiv_pos_as_xyz
  x,y,z
_cell_length_a	26.210047
_cell_length_b	19.288864
_cell_length_c	19.288857
_cell_angle_alpha	96.865323
_cell_angle_beta	89.997665
_cell_angle_gamma	89.977148
loop_
_atom_site_label
_atom_site_type_symbol
_atom_site_fract_x
_atom_site_fract_y
_atom_site_fract_z
O1	O	0.042595	-0.921352	0.086638
O2	O	0.542595	-0.421352	0.586638
O3	O	0.042560	-0.719091	0.098327
O4	O	0.542560	-0.219091	0.598327
O5	O	0.042573	-0.826068	-0.008648
O6	O	0.542573	-0.326068	0.491352
O7	O	0.042583	-0.814374	0.193613
O8	O	0.542583	-0.314374	0.693613
O9	O	-0.042285	-0.826048	-0.008632
O10	O	0.457715	-0.326048	0.491368
O11	O	-0.042298	-0.719070	0.098343
O12	O	0.457702	-0.219070	0.598343
O13	O	-0.042263	-0.921331	0.086655
O14	O	0.457737	-0.421331	0.586655
Cu15	Cu	-0.050029	-0.820199	0.092501
Cu16	Cu	0.449971	-0.320199	0.592501
Cu17	Cu	0.050326	-0.820223	0.092481
Cu18	Cu	0.550326	-0.320223	0.592481
O19	O	-0.042275	-0.814353	0.193630
O20	O	0.457725	-0.314353	0.693630
C21	C	0.000127	-0.693204	0.097959
C22	C	0.500127	-0.193204	0.597959
C23	C	0.000113	-0.616100	0.096830
C24	C	0.500113	-0.116100	0.596830
N25	N	-0.120613	-0.820187	0.092514
N26	N	0.379387	-0.320187	0.592514
C27	C	0.000143	-0.825683	-0.034517
C28	C	0.500143	-0.325683	0.465483
C29	C	0.000141	-0.824556	-0.111620
C30	C	0.500141	-0.324556	0.388380
C31	C	-0.473121	-0.867588	0.045123
C32	C	0.026879	-0.367588	0.545123
C33	C	-0.686780	-0.867603	0.045113
C34	C	-0.186780	-0.367603	0.545113
O35	O	-0.714397	-0.907879	0.004823
O36	O	-0.214397	-0.407879	0.504823
N37	N	-0.713506	-0.820227	0.092466
N38	N	-0.213506	-0.320227	0.592466
C39	C	-0.686815	-0.772840	0.139821
C40	C	-0.186815	-0.272840	0.639821
O41	O	-0.714450	-0.732539	0.180092
O42	O	-0.214450	-0.232539	0.680092
C43	C	-0.473158	-0.772822	0.139826
C44	C	0.026842	-0.272822	0.639826
C45	C	-0.446434	-0.820206	0.092476
C46	C	0.053566	-0.320206	0.592476
C47	C	-0.446397	-0.914968	-0.002224
C48	C	0.053603	-0.414968	0.497776
C49	C	-0.392986	-0.914966	-0.002219
C50	C	0.107014	-0.414966	0.497781
C51	C	-0.366298	-0.867584	0.045134
C52	C	0.133702	-0.367584	0.545134
C53	C	-0.393022	-0.820204	0.092481
C54	C	0.106978	-0.320204	0.592481
C55	C	-0.446467	-0.725433	0.187178
C56	C	0.053533	-0.225433	0.687178
C57	C	-0.393049	-0.725431	0.187174
C58	C	0.106951	-0.225431	0.687174
C59	C	-0.366326	-0.772815	0.139823
C60	C	0.133674	-0.272815	0.639823
C61	C	-0.312923	-0.772821	0.139839
C62	C	0.187077	-0.272821	0.639839
N63	N	-0.286197	-0.820198	0.092487
N64	N	0.213803	-0.320198	0.592487
C65	C	-0.312884	-0.867579	0.045134
C66	C	0.187116	-0.367579	0.545134
C67	C	-0.798988	-0.772854	0.139815
C68	C	-0.298988	-0.272854	0.639815
C69	C	-0.852403	-0.772859	0.139815
C70	C	-0.352403	-0.272859	0.639815
C71	C	-0.852364	-0.867622	0.045106
C72	C	-0.352364	-0.367622	0.545106
C73	C	-0.798948	-0.867619	0.045111
C74	C	-0.298948	-0.367619	0.545111
C75	C	-0.772262	-0.820230	0.092463
C76	C	-0.272262	-0.320230	0.592463
C77	C	-0.200716	-0.867572	0.045150
C78	C	0.299284	-0.367572	0.545150
C79	C	-0.147300	-0.867568	0.045161
C80	C	0.352700	-0.367568	0.545161
C81	C	-0.147344	-0.772804	0.139867
C82	C	0.352656	-0.272804	0.639867
C83	C	-0.200755	-0.772810	0.139858
C84	C	0.299245	-0.272810	0.639858
C85	C	-0.227440	-0.820197	0.092494
C86	C	0.272560	-0.320197	0.592494
O87	O	-0.285273	-0.732561	0.180104
O88	O	0.214727	-0.232561	0.680104
O89	O	-0.285240	-0.907864	0.004859
O90	O	0.214760	-0.407864	0.504859
C91	C	-0.526533	-0.867590	0.045118
C92	C	-0.026533	-0.367590	0.545118
C93	C	-0.553257	-0.820210	0.092465
C94	C	-0.053257	-0.320210	0.592465
C95	C	-0.526569	-0.772828	0.139818
C96	C	-0.026569	-0.272828	0.639818
C97	C	-0.606671	-0.820215	0.092464
C98	C	-0.106671	-0.320215	0.592464
C99	C	-0.633358	-0.867597	0.045112
C100	C	-0.133358	-0.367597	0.545112
C101	C	-0.606632	-0.914973	-0.002241
C102	C	-0.106632	-0.414973	0.497759
C103	C	-0.553220	-0.914971	-0.002235
C104	C	-0.053220	-0.414971	0.497765
C105	C	-0.553296	-0.725452	0.187170
C106	C	-0.053296	-0.225452	0.687170
C107	C	-0.606707	-0.725458	0.187161
C108	C	-0.106707	-0.225458	0.687161
C109	C	-0.633395	-0.772840	0.139808
C110	C	-0.133395	-0.272840	0.639808
N111	N	0.120910	-0.820241	0.092462
N112	N	0.620910	-0.320241	0.592462
C113	C	0.000172	-0.947218	0.087022
C114	C	0.500172	-0.447218	0.587022
C115	C	0.000188	-1.024321	0.088151
C116	C	0.500188	-0.524321	0.588151
C117	C	0.000125	-0.571402	0.159598
C118	C	0.500125	-0.071402	0.659598
C119	C	0.000130	-0.498955	0.158537
C120	C	0.500130	0.001045	0.658537
C121	C	0.000135	-0.471210	0.094705
C122	C	0.500135	0.028790	0.594705
C123	C	0.000121	-0.515917	0.031929
C124	C	0.500121	-0.015917	0.531929
C125	C	0.000110	-0.588363	0.032991
C126	C	0.500110	-0.088363	0.532991
C127	C	0.029879	-0.362956	0.044520
C128	C	0.529879	0.137044	0.544520
C129	C	0.029893	-0.290512	0.043460
C130	C	0.529893	0.209488	0.543460
C131	C	0.000166	-0.247764	0.091425
C132	C	0.500166	0.252236	0.591425
C133	C	-0.029569	-0.277468	0.140462
C134	C	0.470431	0.222532	0.640462
C135	C	-0.029580	-0.349914	0.141525
C136	C	0.470420	0.150086	0.641525
C137	C	0.000146	-0.392656	0.093546
C138	C	0.500146	0.107344	0.593546
C139	C	0.000182	-0.124510	0.153048
C140	C	0.500182	0.375490	0.653048
C141	C	0.000185	-0.052062	0.151984
C142	C	0.500185	0.447938	0.651984
C143	C	0.000180	-0.069026	0.025374
C144	C	0.500180	0.430974	0.525374
C145	C	0.000173	-0.141472	0.026439
C146	C	0.500173	0.358528	0.526439
C147	C	0.000176	-0.169210	0.090278
C148	C	0.500176	0.330790	0.590278
C149	C	0.046397	-0.824041	-0.147840
C150	C	0.546397	-0.324041	0.352160
C151	C	0.046401	-0.822972	-0.220286
C152	C	0.546401	-0.322972	0.279714
C153	C	0.000146	-0.822432	-0.256512
C154	C	0.500146	-0.322432	0.243488
C155	C	-0.046116	-0.822943	-0.220283
C156	C	0.453884	-0.322943	0.279717
C157	C	-0.046119	-0.824005	-0.147837
C158	C	0.453881	-0.324005	0.352163
C159	C	-0.035282	-0.861425	-0.376736
C160	C	0.464718	-0.361425	0.123264
C161	C	-0.035277	-0.860368	-0.449181
C162	C	0.464723	-0.360368	0.050819
C163	C	0.000151	-0.819155	-0.479957
C164	C	0.500151	-0.319155	0.020043
C165	C	0.035584	-0.779008	-0.438281
C166	C	0.535584	-0.279008	0.061719
C167	C	0.035582	-0.780069	-0.365836
C168	C	0.535582	-0.280069	0.134164
C169	C	0.000143	-0.821281	-0.335067
C170	C	0.500143	-0.321281	0.164933
C171	C	0.046414	-0.817480	-0.594731
C172	C	0.546414	-0.317480	-0.094731
C173	C	0.046416	-0.816407	-0.667178
C174	C	0.546416	-0.316407	-0.167178
C175	C	-0.046103	-0.816385	-0.667174
C176	C	0.453897	-0.316385	-0.167174
C177	C	-0.046103	-0.817451	-0.594728
C178	C	0.453897	-0.317451	-0.094728
C179	C	0.000157	-0.818002	-0.558511
C180	C	0.500157	-0.318002	-0.058511
C181	C	0.000155	-0.814739	0.219498
C182	C	0.500155	-0.314739	0.719498
C183	C	0.000160	-0.815866	0.296602
C184	C	0.500160	-0.315866	0.796602
H185	H	-0.125543	-0.906157	0.006603
H186	H	0.374457	-0.406157	0.506603
C187	C	-0.117983	-0.720686	0.191952
C188	C	0.382017	-0.220686	0.691952
H189	H	-0.141546	-0.692468	0.220157
H190	H	0.358454	-0.192468	0.720157
H191	H	-0.097154	-0.691858	0.167034
H192	H	0.402846	-0.191858	0.667034
H193	H	-0.097140	-0.745581	0.220806
H194	H	0.402860	-0.245581	0.720806
C195	C	0.062586	-0.409971	-0.008240
C196	C	0.562586	0.090029	0.491760
H197	H	0.080302	-0.381906	-0.037587
H198	H	0.580302	0.118094	0.462413
H199	H	0.041153	-0.441976	-0.035871
H200	H	0.541153	0.058024	0.464129
H201	H	0.086489	-0.435029	0.016194
H202	H	0.586489	0.064971	0.516194
C203	C	0.097281	-0.824635	-0.108004
C204	C	0.597281	-0.324635	0.391996
H205	H	0.124830	-0.824168	-0.139954
H206	H	0.624830	-0.324168	0.360046
H207	H	0.099213	-0.865543	-0.085164
H208	H	0.599213	-0.365543	0.414836
H209	H	0.099195	-0.784545	-0.074322
H210	H	0.599195	-0.284545	0.425678
H211	H	-0.531571	-0.686867	0.225730
H212	H	-0.031571	-0.186867	0.725730
H213	H	-0.083770	-0.817876	-0.565238
H214	H	0.416230	-0.317876	-0.065238
C215	C	-0.881726	-0.919735	-0.006986
C216	C	-0.381726	-0.419735	0.493014
H217	H	-0.917364	-0.912943	-0.000205
H218	H	-0.417364	-0.412943	0.499795
H219	H	-0.872962	-0.966069	0.000428
H220	H	-0.372962	-0.466069	0.500428
H221	H	-0.872974	-0.912327	-0.053325
H222	H	-0.372974	-0.412327	0.446675
C223	C	-0.096983	-0.815785	-0.707012
C224	C	0.403017	-0.315785	-0.207012
H225	H	-0.090357	-0.815081	-0.755347
H226	H	0.409643	-0.315081	-0.255347
H227	H	-0.115994	-0.775458	-0.689711
H228	H	0.384006	-0.275458	-0.189711
H229	H	-0.115984	-0.856455	-0.700567
H230	H	0.384016	-0.356455	-0.200567
C231	C	-0.363594	-0.967103	-0.054289
C232	C	0.136406	-0.467103	0.445711
H233	H	-0.327959	-0.960331	-0.047503
H234	H	0.172041	-0.460331	0.452497
H235	H	-0.372344	-0.959727	-0.100634
H236	H	0.127656	-0.459727	0.399366
H237	H	-0.372344	-1.013426	-0.046839
H238	H	0.127656	-0.513426	0.453161
C239	C	-0.881793	-0.720737	0.191901
C240	C	-0.381793	-0.220737	0.691901
H241	H	-0.858244	-0.692514	0.220094
H242	H	-0.358244	-0.192514	0.720094
H243	H	-0.902626	-0.745621	0.220756
H244	H	-0.402626	-0.245621	0.720756
H245	H	-0.902635	-0.691904	0.166979
H246	H	-0.402635	-0.191904	0.666979
H247	H	-0.777264	-0.734263	0.178377
H248	H	-0.277264	-0.234263	0.678377
H249	H	-0.064127	-0.893061	-0.483108
H250	H	0.435873	-0.393061	0.016892
C251	C	-0.475745	-0.967096	-0.054313
C252	C	0.024255	-0.467096	0.445687
H253	H	-0.452172	-0.995311	-0.082503
H254	H	0.047828	-0.495311	0.417497
H255	H	-0.496592	-0.942217	-0.083172
H256	H	0.003408	-0.442217	0.416828
H257	H	-0.496569	-0.995935	-0.029395
H258	H	0.003431	-0.495935	0.470605
H259	H	-0.468218	-0.686848	0.225734
H260	H	0.031782	-0.186848	0.725734
H261	H	-0.053776	-0.242664	0.179520
H262	H	0.446224	0.257336	0.679520
H263	H	0.000177	-0.147095	0.205029
H264	H	0.500177	0.352905	0.705029
C265	C	-0.097002	-0.824578	-0.107995
C266	C	0.402998	-0.324578	0.392005
H267	H	-0.124551	-0.824106	-0.139943
H268	H	0.375449	-0.324106	0.360057
H269	H	-0.098933	-0.784498	-0.074305
H270	H	0.401067	-0.284498	0.425695
H271	H	-0.098918	-0.865495	-0.085164
H272	H	0.401082	-0.365495	0.414836
H273	H	0.084085	-0.815985	-0.696666
H274	H	0.584085	-0.315985	-0.196666
H275	H	0.084070	-0.822549	-0.249781
H276	H	0.584070	-0.322549	0.250219
C277	C	0.000129	-0.485400	-0.038285
C278	C	0.500129	0.014600	0.461715
H279	H	0.000143	-0.435852	-0.029928
H280	H	0.500143	0.064148	0.470072
H281	H	-0.029465	-0.500730	-0.064117
H282	H	0.470535	-0.000730	0.435883
H283	H	0.029722	-0.500784	-0.064124
H284	H	0.529722	-0.000784	0.435876
H285	H	-0.777193	-0.906203	0.006553
H286	H	-0.277193	-0.406203	0.506553
C287	C	-0.363697	-0.673305	0.239266
C288	C	0.136303	-0.173305	0.739266
H289	H	-0.387266	-0.645093	0.267466
H290	H	0.112734	-0.145093	0.767466
H291	H	-0.342866	-0.644472	0.214357
H292	H	0.157134	-0.144472	0.714357
H293	H	-0.342857	-0.698200	0.268124
H294	H	0.157143	-0.198200	0.768124
C295	C	-0.074256	-0.906762	-0.342889
C296	C	0.425744	-0.406762	0.157111
H297	H	-0.095352	-0.930527	-0.378084
H298	H	0.404648	-0.430527	0.121916
H299	H	-0.094756	-0.877841	-0.310698
H300	H	0.405244	-0.377841	0.189302
H301	H	-0.056700	-0.939898	-0.319012
H302	H	0.443300	-0.439898	0.180988
H303	H	0.000191	-0.015669	0.203100
H304	H	0.500191	0.484331	0.703100
H305	H	0.000216	-0.046436	-0.026600
H306	H	0.500216	0.453564	0.473400
C307	C	-0.230153	-0.720663	0.191916
C308	C	0.269847	-0.220663	0.691916
H309	H	-0.206606	-0.692434	0.220107
H310	H	0.293394	-0.192434	0.720107
H311	H	-0.251000	-0.745520	0.220777
H312	H	0.249000	-0.245520	0.720777
H313	H	-0.250980	-0.691839	0.166963
H314	H	0.249020	-0.191839	0.666963
H315	H	-0.628462	-0.686873	0.225726
H316	H	-0.128462	-0.186873	0.725726
C317	C	0.000104	-0.637533	-0.036057
C318	C	0.500104	-0.137533	0.463943
H319	H	0.000110	-0.610635	-0.074227
H320	H	0.500110	-0.110635	0.425773
H321	H	-0.029490	-0.666126	-0.038270
H322	H	0.470510	-0.166126	0.461730
H323	H	0.029698	-0.666165	-0.038276
H324	H	0.529698	-0.166165	0.461724
H325	H	0.000166	-0.177867	-0.024674
H326	H	0.500166	0.322133	0.475326
C327	C	-0.635995	-0.967089	-0.054330
C328	C	-0.135995	-0.467089	0.445670
H329	H	-0.671633	-0.960295	-0.047550
H330	H	-0.171633	-0.460295	0.452450
H331	H	-0.627231	-1.013422	-0.046911
H332	H	-0.127231	-0.513422	0.453089
H333	H	-0.627242	-0.959686	-0.100670
H334	H	-0.127242	-0.459686	0.399330
H335	H	-0.083778	-0.822501	-0.249782
H336	H	0.416222	-0.322501	0.250218
C337	C	0.062597	-0.257844	-0.010480
C338	C	0.562597	0.242156	0.489520
H339	H	0.080292	-0.293678	-0.038903
H340	H	0.580292	0.206322	0.461097
H341	H	0.086510	-0.226386	0.013108
H342	H	0.586510	0.273614	0.513108
H343	H	0.041159	-0.233323	-0.038934
H344	H	0.541159	0.266677	0.461066
C345	C	0.000119	-0.601910	0.229818
C346	C	0.500119	-0.101910	0.729818
H347	H	0.000121	-0.564909	0.267049
H348	H	0.500121	-0.064909	0.767049
H349	H	0.029705	-0.629847	0.232863
H350	H	0.529705	-0.129847	0.732863
H351	H	-0.029483	-0.629790	0.232867
H352	H	0.470517	-0.129790	0.732867
H353	H	-0.222437	-0.906158	0.006580
H354	H	0.277563	-0.406158	0.506580
C355	C	0.000150	-0.449779	0.227585
C356	C	0.500150	0.050221	0.727585
H357	H	0.000155	-0.476674	0.265756
H358	H	0.500155	0.023326	0.765756
H359	H	-0.029434	-0.421134	0.229815
H360	H	0.470566	0.078866	0.729815
H361	H	0.029753	-0.421197	0.229784
H362	H	0.529753	0.078803	0.729784
C363	C	-0.062287	-0.382590	0.195455
C364	C	0.437713	0.117410	0.695455
H365	H	-0.058032	-0.431857	0.189218
H366	H	0.441968	0.068143	0.689218
H367	H	-0.097172	-0.371508	0.189183
H368	H	0.402828	0.128492	0.689183
H369	H	-0.051829	-0.364573	0.241237
H370	H	0.448171	0.135427	0.741237
H371	H	0.064431	-0.747379	-0.331906
H372	H	0.564431	-0.247379	0.168094
H373	H	0.064433	-0.745448	-0.463337
H374	H	0.564433	-0.245448	0.036663
C375	C	0.097296	-0.818077	-0.554886
C376	C	0.597296	-0.318077	-0.054886
H377	H	0.090670	-0.818793	-0.506553
H378	H	0.590670	-0.318793	-0.006553
H379	H	0.116296	-0.777411	-0.561331
H380	H	0.616296	-0.277411	-0.061331
H381	H	0.116309	-0.858408	-0.572187
H382	H	0.616309	-0.358408	-0.072187
H383	H	-0.531465	-0.953556	-0.040793
H384	H	-0.031465	-0.453556	0.459207
