data_functionalizedCrystal
_audit_creation_method	'MofGen! by Chris Wilmer'
_symmetry_space_group_name_H-M	'P1'
_symmetry_Int_Tables_number	1
_symmetry_cell_setting	triclinic
loop_
_symmetry_equiv_pos_as_xyz
  x,y,z
_cell_length_a	10.654562
_cell_length_b	17.699083
_cell_length_c	9.730223
_cell_angle_alpha	89.997786
_cell_angle_beta	89.996961
_cell_angle_gamma	83.886559
loop_
_atom_site_label
_atom_site_type_symbol
_atom_site_fract_x
_atom_site_fract_y
_atom_site_fract_z
O1	O	1.665963	0.106345	-0.114383
O2	O	1.300310	0.116463	-0.114366
O3	O	1.493467	0.001281	-0.114363
O4	O	1.472806	0.221527	-0.114387
O5	O	1.493465	0.001284	0.114217
O6	O	1.300307	0.116466	0.114213
O7	O	1.665961	0.106348	0.114197
Zn8	Zn	1.483134	0.111407	0.150497
Zn9	Zn	1.483137	0.111403	-0.150667
O10	O	1.472804	0.221530	0.114193
C11	C	1.253524	0.115719	-0.000074
C12	C	1.114120	0.113491	-0.000067
C13	C	1.048607	0.112453	0.124521
C14	C	0.917621	0.110365	0.124498
C15	C	0.917674	0.110356	-0.124712
C16	C	1.048658	0.112438	-0.124688
C17	C	1.048575	0.112461	0.268401
C18	C	0.917589	0.110373	0.268378
C19	C	1.492726	-0.026920	-0.000073
C20	C	1.490505	-0.110952	-0.000072
C21	C	1.603884	-0.158849	-0.000076
C22	C	1.601790	-0.237806	-0.000088
C23	C	1.486315	-0.268864	-0.000087
C24	C	1.372927	-0.220961	-0.000088
C25	C	1.375022	-0.142005	-0.000085
C26	C	1.364472	-0.539378	-0.000098
C27	C	1.362385	-0.618339	-0.000096
C28	C	1.591240	-0.635178	-0.000101
C29	C	1.593335	-0.556223	-0.000098
C30	C	1.479948	-0.508326	-0.000107
C31	C	1.482220	-0.422713	-0.000096
C32	C	1.484041	-0.354476	-0.000087
C33	C	1.712747	0.107091	-0.000099
C34	C	1.852150	0.109320	-0.000114
C35	C	1.473545	0.249730	-0.000100
C36	C	1.475766	0.333763	-0.000109
N37	N	1.483141	0.111409	0.356033
N38	N	1.483140	0.111395	-0.356203
C39	C	1.568693	0.060424	0.427961
C40	C	1.568690	0.060415	0.571844
C41	C	1.397579	0.162383	0.571859
C42	C	1.397577	0.162388	0.427979
C43	C	1.667486	0.001556	0.427953
C44	C	1.667483	0.001547	0.571836
H45	H	0.864358	0.109499	-0.226174
H46	H	1.683565	-0.674185	-0.000101
C47	C	1.304747	0.217852	0.649797
C48	C	1.324847	0.292344	0.614779
C49	C	1.239341	0.343462	0.686529
H50	H	1.316903	0.210653	0.745810
H51	H	1.220943	0.209203	0.626184
H52	H	1.408631	0.300989	0.638401
H53	H	1.312681	0.299567	0.518778
H54	H	1.155537	0.334814	0.662917
H55	H	1.251504	0.336256	0.782539
H56	H	1.252960	0.394011	0.662771
C57	C	1.247423	-0.254532	-0.000162
C58	C	1.148578	-0.195683	-0.000198
C59	C	1.032944	-0.226578	-0.000283
H60	H	1.241663	-0.284974	0.079527
H61	H	1.241785	-0.284959	-0.079905
H62	H	1.154213	-0.165269	0.079537
H63	H	1.154295	-0.165237	-0.079881
H64	H	1.027306	-0.257005	-0.080027
H65	H	1.027197	-0.257020	0.079407
H66	H	0.965864	-0.186655	-0.000321
H67	H	1.268346	-0.643623	-0.000093
H68	H	1.647061	-0.056618	0.388907
H69	H	1.282697	-0.103008	-0.000083
C70	C	1.795981	0.018729	0.623727
C71	C	1.888885	-0.036865	0.575543
C72	C	2.007268	-0.021058	0.623304
H73	H	1.796160	0.018703	0.721349
H74	H	1.813095	0.067190	0.591162
H75	H	1.871776	-0.085313	0.608115
H76	H	1.888747	-0.036847	0.477926
H77	H	2.024382	0.027403	0.590739
H78	H	2.007434	-0.021084	0.720925
H79	H	2.070319	-0.058771	0.590608
H80	H	1.697917	-0.133568	-0.000068
H81	H	1.694115	-0.276801	-0.000087
H82	H	1.327903	0.203897	0.369417
H83	H	1.637932	-0.053427	0.616459
C84	C	1.086485	0.186092	0.328037
C85	C	0.978080	0.232751	0.367507
C86	C	1.012955	0.300582	0.422461
H87	H	1.131095	0.211460	0.260692
H88	H	1.139055	0.175084	0.405909
H89	H	0.925530	0.243761	0.289644
H90	H	0.933457	0.207407	0.434864
H91	H	1.065526	0.289574	0.500333
H92	H	1.057566	0.325944	0.355109
H93	H	0.939410	0.332246	0.449259
H94	H	1.101997	0.113272	-0.226140
C95	C	1.111439	0.042628	0.341838
C96	C	1.081926	-0.022889	0.273737
C97	C	1.139828	-0.087231	0.341332
H98	H	1.081849	0.042049	0.433883
H99	H	1.200337	0.043997	0.341818
H100	H	0.993047	-0.024258	0.273771
H101	H	1.111518	-0.022335	0.181696
H102	H	1.228726	-0.085862	0.341312
H103	H	1.110234	-0.087802	0.433375
H104	H	1.119822	-0.131691	0.295128
C105	C	1.718838	-0.522649	-0.000172
C106	C	1.817686	-0.581496	-0.000216
C107	C	1.933318	-0.550599	-0.000307
H108	H	1.724593	-0.492211	0.079517
H109	H	1.724477	-0.492219	-0.079915
H110	H	1.812050	-0.611914	0.079520
H111	H	1.811973	-0.611939	-0.079898
H112	H	1.938956	-0.520168	-0.080051
H113	H	1.939059	-0.520161	0.079382
H114	H	2.000400	-0.590521	-0.000350
C115	C	1.241270	-0.487476	-0.000303
C116	C	1.171709	-0.501617	-0.117877
C117	C	1.058194	-0.453824	-0.118099
H118	H	1.258863	-0.435978	-0.000375
H119	H	1.193847	-0.496973	0.079372
H120	H	1.219122	-0.492114	-0.197531
H121	H	1.154083	-0.553106	-0.117829
H122	H	1.010772	-0.463322	-0.038424
H123	H	1.075799	-0.402330	-0.118168
H124	H	1.010978	-0.463418	-0.197864
H125	H	1.758347	0.019992	0.383321
H126	H	0.888966	0.055177	0.313030
H127	H	0.870387	0.162680	0.323608
