data_functionalizedCrystal
_audit_creation_method	'MofGen! by Chris Wilmer'
_symmetry_space_group_name_H-M	'P1'
_symmetry_Int_Tables_number	1
_symmetry_cell_setting	triclinic
loop_
_symmetry_equiv_pos_as_xyz
  x,y,z
_cell_length_a	14.971486
_cell_length_b	17.699083
_cell_length_c	13.448316
_cell_angle_alpha	89.992503
_cell_angle_beta	89.998199
_cell_angle_gamma	83.448572
loop_
_atom_site_label
_atom_site_type_symbol
_atom_site_fract_x
_atom_site_fract_y
_atom_site_fract_z
O1	O	1.186608	0.098633	-0.082580
O2	O	1.686608	0.598633	0.417420
O3	O	0.926168	0.110445	-0.082607
O4	O	1.426168	0.610445	0.417393
O5	O	1.063746	-0.005632	-0.082584
O6	O	1.563746	0.494368	0.417416
O7	O	1.049030	0.214710	-0.082603
O8	O	1.549030	0.714710	0.417397
O9	O	1.063729	-0.005639	0.082800
O10	O	1.563729	0.494361	0.582800
O11	O	0.926150	0.110438	0.082777
O12	O	1.426150	0.610438	0.582777
O13	O	1.186591	0.098626	0.082804
O14	O	1.686591	0.598626	0.582804
Cu15	Cu	1.056369	0.104531	0.097891
Cu16	Cu	1.556369	0.604531	0.597891
Cu17	Cu	1.056390	0.104540	-0.097694
Cu18	Cu	1.556390	0.604540	0.402306
O19	O	1.049013	0.214703	0.082781
O20	O	1.549013	0.714703	0.582781
C21	C	0.892836	0.109913	0.000082
C22	C	1.392836	0.609913	0.500082
C23	C	0.793544	0.108330	0.000071
C24	C	1.293544	0.608330	0.500071
C25	C	0.736085	0.176522	0.000067
C26	C	1.236085	0.676522	0.500067
C27	C	0.642790	0.175030	0.000082
C28	C	1.142790	0.675030	0.500082
C29	C	0.606958	0.105346	0.000094
C30	C	1.106958	0.605346	0.500094
C31	C	0.664425	0.037148	0.000102
C32	C	1.164425	0.537148	0.500102
C33	C	0.757717	0.038641	0.000094
C34	C	1.257717	0.538641	0.500094
C35	C	0.469973	0.034042	0.000116
C36	C	0.969973	0.534042	0.500116
C37	C	0.376674	0.032549	0.000122
C38	C	0.876674	0.532549	0.500122
C39	C	0.355046	0.170431	0.000104
C40	C	0.855046	0.670431	0.500104
C41	C	0.448339	0.171924	0.000096
C42	C	0.948339	0.671924	0.500096
C43	C	0.505799	0.103726	0.000102
C44	C	1.005799	0.603726	0.500102
C45	C	1.063210	-0.033834	0.000108
C46	C	1.563210	0.466166	0.500108
C47	C	1.061628	-0.117856	0.000109
C48	C	1.561628	0.382144	0.500109
C49	C	1.142384	-0.166278	0.000118
C50	C	1.642384	0.333722	0.500118
C51	C	1.140892	-0.245225	0.000110
C52	C	1.640892	0.254775	0.500110
C53	C	1.058644	-0.275748	0.000098
C54	C	1.558644	0.224252	0.500098
C55	C	0.977882	-0.227320	0.000085
C56	C	1.477882	0.272680	0.500085
C57	C	0.979375	-0.148374	0.000087
C58	C	1.479375	0.351626	0.500087
C59	C	0.971860	-0.545698	0.000076
C60	C	1.471860	-0.045698	0.500076
C61	C	0.970374	-0.624649	0.000077
C62	C	1.470374	-0.124649	0.500077
C63	C	1.133378	-0.642548	0.000099
C64	C	1.633378	-0.142548	0.500099
C65	C	1.134871	-0.563603	0.000101
C66	C	1.634871	-0.063603	0.500101
C67	C	1.054109	-0.515181	0.000083
C68	C	1.554109	-0.015181	0.500083
C69	C	1.055728	-0.429578	0.000090
C70	C	1.555728	0.070422	0.500090
C71	C	1.057024	-0.361350	0.000097
C72	C	1.557024	0.138650	0.500097
C73	C	1.219923	0.099158	0.000114
C74	C	1.719923	0.599158	0.500114
C75	C	1.319214	0.100741	0.000117
C76	C	1.819214	0.600741	0.500117
C77	C	1.049549	0.242905	0.000087
C78	C	1.549549	0.742905	0.500087
C79	C	1.051131	0.326927	0.000080
C80	C	1.551131	0.826927	0.500080
N81	N	1.056361	0.104525	0.235456
N82	N	1.556361	0.604525	0.735456
N83	N	1.056404	0.104540	-0.235258
N84	N	1.556404	0.604540	0.264742
C85	C	1.117300	0.053147	0.287506
C86	C	1.617300	0.553147	0.787506
C87	C	1.117306	0.053147	0.391610
C88	C	1.617306	0.553147	0.891610
C89	C	1.056376	0.104528	0.443660
C90	C	1.556376	0.604528	0.943660
C91	C	0.995431	0.155908	0.391602
C92	C	1.495431	0.655908	0.891602
C93	C	0.995422	0.155904	0.287501
C94	C	1.495422	0.655904	0.787501
C95	C	0.995456	0.155913	0.608582
C96	C	1.495456	0.655913	1.108582
C97	C	0.995466	0.155918	0.712691
C98	C	1.495466	0.655918	1.212691
C99	C	1.117339	0.053155	0.712691
C100	C	1.617339	0.553155	1.212691
C101	C	1.117330	0.053152	0.608590
C102	C	1.617330	0.553152	1.108590
C103	C	1.056386	0.104533	0.556539
C104	C	1.556386	0.604533	1.056539
H105	H	0.308257	0.225960	0.000104
H106	H	0.808257	0.725960	0.500104
H107	H	1.166926	0.011311	0.433989
H108	H	1.666926	0.511311	0.933989
H109	H	0.945817	0.197741	0.433988
H110	H	1.445817	0.697741	0.933988
H111	H	0.906099	-0.506282	0.000062
H112	H	1.406099	-0.006282	0.500062
C113	C	1.184370	-0.003369	0.769942
C114	C	1.684370	0.496631	1.269942
H115	H	1.175643	0.003983	0.839396
H116	H	1.675643	0.503983	1.339396
H117	H	1.244043	0.004933	0.752875
H118	H	1.744043	0.504933	1.252875
H119	H	1.174762	-0.053898	0.752889
H120	H	1.674762	0.446102	1.252889
C121	C	0.337259	-0.044102	0.000141
C122	C	0.837259	0.455898	0.500141
H123	H	0.384840	-0.084504	0.000157
H124	H	0.884840	0.415496	0.500157
H125	H	0.301314	-0.047550	-0.057529
H126	H	0.801314	0.452450	0.442471
H127	H	0.301316	-0.047545	0.057824
H128	H	0.801316	0.452455	0.557824
H129	H	0.516756	-0.021492	0.000122
H130	H	1.016756	0.478508	0.500122
H131	H	0.635242	-0.019590	0.000126
H132	H	1.135242	0.480410	0.500126
C133	C	0.487754	0.248575	0.000085
C134	C	0.987754	0.748575	0.500085
H135	H	0.440172	0.288977	0.000093
H136	H	0.940172	0.788977	0.500093
H137	H	0.523698	0.252025	-0.057590
H138	H	1.023698	0.752025	0.442410
H139	H	0.523698	0.252016	0.057764
H140	H	1.023698	0.752016	0.557764
C141	C	0.775493	0.253176	0.000053
C142	C	1.275493	0.753176	0.500053
H143	H	0.727906	0.293575	0.000061
H144	H	1.227906	0.793575	0.500061
H145	H	0.811434	0.256629	-0.057623
H146	H	1.311434	0.756629	0.442377
H147	H	0.811437	0.256622	0.057730
H148	H	1.311437	0.756622	0.557730
C149	C	0.820923	-0.036370	0.000089
C150	C	1.320923	0.463630	0.500089
H151	H	0.786222	-0.078086	0.000087
H152	H	1.286222	0.421914	0.500087
H153	H	0.857771	-0.038659	0.057757
H154	H	1.357771	0.461341	0.557757
H155	H	0.857760	-0.038648	-0.057596
H156	H	1.357760	0.461352	0.442404
H157	H	1.166919	0.011310	0.245134
H158	H	1.666919	0.511310	0.745134
H159	H	1.166948	0.011317	0.566210
H160	H	1.666948	0.511317	1.066210
H161	H	1.209360	-0.141433	0.000134
H162	H	1.709360	0.358567	0.500134
C163	C	0.928393	0.212423	0.230245
C164	C	1.428393	0.712423	0.730245
H165	H	0.892113	0.243029	0.276153
H166	H	1.392113	0.743029	0.776153
H167	H	0.891219	0.185143	0.189647
H168	H	1.391219	0.685143	0.689647
H169	H	0.960499	0.243976	0.189624
H170	H	1.460499	0.743976	0.689624
C171	C	1.229723	-0.298486	0.000131
C172	C	1.729723	0.201514	0.500131
H173	H	1.278921	-0.269001	0.000152
H174	H	1.778921	0.230999	0.500152
H175	H	1.232545	-0.329651	-0.057542
H176	H	1.732545	0.170349	0.442458
H177	H	1.232516	-0.329659	0.057812
H178	H	1.732516	0.170341	0.557812
H179	H	0.903394	-0.649498	0.000070
H180	H	1.403394	-0.149498	0.500070
H181	H	0.596010	0.230559	0.000077
H182	H	1.096010	0.730559	0.500077
C183	C	1.225343	-0.530031	0.000109
C184	C	1.725343	-0.030031	0.500109
H185	H	1.273226	-0.570178	0.000104
H186	H	1.773226	-0.070178	0.500104
H187	H	1.229311	-0.499610	0.057781
H188	H	1.729311	0.000390	0.557781
H189	H	1.229314	-0.499603	-0.057572
H190	H	1.729314	0.000397	0.442428
C191	C	1.222215	-0.695814	0.000103
C192	C	1.722215	-0.195814	0.500103
H193	H	1.209551	-0.747203	0.000088
H194	H	1.709551	-0.247203	0.500088
H195	H	1.255943	-0.686562	0.057780
H196	H	1.755943	-0.186562	0.557780
H197	H	1.255951	-0.686544	-0.057573
H198	H	1.755951	-0.186544	0.442427
H199	H	0.910914	-0.252178	0.000069
H200	H	1.410914	0.247822	0.500069
C201	C	0.890546	-0.095107	0.000076
C202	C	1.390546	0.404893	0.500076
H203	H	0.903214	-0.043719	0.000068
H204	H	1.403214	0.456281	0.500068
H205	H	0.856802	-0.104369	0.057742
H206	H	1.356802	0.395631	0.557742
H207	H	0.856825	-0.104363	-0.057611
H208	H	1.356825	0.395637	0.442389
H209	H	0.945850	0.197757	0.755065
H210	H	1.445850	0.697757	1.255065
H211	H	0.945826	0.197751	0.566206
H212	H	1.445826	0.697751	1.066206
