data_functionalizedCrystal
_audit_creation_method	'MofGen! by Chris Wilmer'
_symmetry_space_group_name_H-M	'P1'
_symmetry_Int_Tables_number	1
_symmetry_cell_setting	triclinic
loop_
_symmetry_equiv_pos_as_xyz
  x,y,z
_cell_length_a	10.723023
_cell_length_b	10.723024
_cell_length_c	9.798715
_cell_angle_alpha	90.001978
_cell_angle_beta	90.003551
_cell_angle_gamma	84.467709
loop_
_atom_site_label
_atom_site_type_symbol
_atom_site_fract_x
_atom_site_fract_y
_atom_site_fract_z
O1	O	1.657188	0.175020	0.113483
O2	O	1.294035	0.191774	0.113487
O3	O	1.483988	0.001821	0.113480
O4	O	1.467235	0.364973	0.113490
O5	O	1.483974	0.001820	-0.113502
O6	O	1.294021	0.191774	-0.113495
O7	O	1.657174	0.175019	-0.113499
Zn8	Zn	1.475595	0.183396	-0.149535
Zn9	Zn	1.475614	0.183397	0.149523
O10	O	1.467221	0.364973	-0.113492
C11	C	1.247529	0.190555	-0.000004
C12	C	1.108974	0.186908	-0.000003
C13	C	1.047210	0.185282	0.117581
C14	C	0.904007	0.181512	0.117585
C15	C	1.482762	-0.044679	-0.000009
C16	C	1.479114	-0.183233	-0.000005
C17	C	1.585402	-0.258216	-0.000004
C18	C	1.581634	-0.401420	0.000001
C19	C	1.703680	0.176239	-0.000005
C20	C	1.842235	0.179886	0.000003
C21	C	1.468447	0.411473	0.000001
C22	C	1.472095	0.550027	0.000005
N23	N	1.475591	0.183395	-0.353635
C24	C	1.555347	0.103288	-0.421415
C25	C	1.555367	0.103283	-0.578578
N26	N	1.475627	0.183388	0.353623
H27	H	1.055835	0.185516	-0.100668
H28	H	1.100348	0.186687	0.218246
O29	O	0.912576	0.181758	-0.133355
H30	H	0.845535	0.179993	-0.219485
O31	O	1.709641	-0.202833	0.000006
H32	H	1.763472	-0.234430	-0.092501
O33	O	0.833674	0.179634	0.250947
H34	H	0.848208	0.265185	0.310334
O35	O	1.702174	-0.486753	-0.000001
H36	H	1.680299	-0.585839	0.000011
H37	H	1.381099	-0.385548	-0.000005
H38	H	1.385328	-0.225055	0.000005
H39	H	1.623611	0.034702	-0.363095
O40	O	1.645821	0.012427	-0.655770
H41	H	1.631636	0.026674	-0.767097
H42	H	1.407346	0.251980	-0.588098
H43	H	1.407319	0.251971	-0.411957
