data_functionalizedCrystal
_audit_creation_method	'MofGen! by Chris Wilmer'
_symmetry_space_group_name_H-M	'P1'
_symmetry_Int_Tables_number	1
_symmetry_cell_setting	triclinic
loop_
_symmetry_equiv_pos_as_xyz
  x,y,z
_cell_length_a	19.805407
_cell_length_b	14.908520
_cell_length_c	19.805399
_cell_angle_alpha	93.269050
_cell_angle_beta	89.983114
_cell_angle_gamma	93.320773
loop_
_atom_site_label
_atom_site_type_symbol
_atom_site_fract_x
_atom_site_fract_y
_atom_site_fract_z
Zn1	Zn	1.019185	-0.359168	-0.398269
Zn2	Zn	1.519185	0.140832	0.101731
Zn3	Zn	1.012581	-0.510037	-0.291612
Zn4	Zn	1.512581	-0.010037	0.208388
Zn5	Zn	0.906004	-0.359197	-0.285095
Zn6	Zn	1.406004	0.140803	0.214905
Zn7	Zn	0.899441	-0.509986	-0.404757
Zn8	Zn	1.399441	-0.009986	0.095243
O9	O	0.959303	-0.434597	-0.344933
O10	O	1.459303	0.065403	0.155067
O11	O	1.113026	-0.379191	-0.384133
O12	O	1.613026	0.120809	0.115867
O13	O	0.998426	-0.490062	-0.196032
O14	O	1.498426	0.009938	0.303968
O15	O	0.926528	-0.232948	-0.294665
O16	O	1.426528	0.267052	0.205335
O17	O	1.108173	-0.490034	-0.305773
O18	O	1.608173	0.009966	0.194227
O19	O	1.009682	-0.232927	-0.377813
O20	O	1.509682	0.267073	0.122187
O21	O	0.920124	-0.379240	-0.191244
O22	O	1.420124	0.120760	0.308756
O23	O	0.810417	-0.379190	-0.300956
O24	O	1.310417	0.120810	0.199044
O25	O	0.915343	-0.489946	-0.498611
O26	O	1.415343	0.010054	0.001389
O27	O	0.805596	-0.489974	-0.388871
O28	O	1.305596	0.010026	0.111129
O29	O	1.003319	-0.379141	-0.493845
O30	O	1.503319	0.120859	0.006155
O31	O	0.992063	-0.636275	-0.312064
O32	O	1.492063	-0.136275	0.187936
O33	O	0.908939	-0.636238	-0.395190
O34	O	1.408939	-0.136238	0.104810
C35	C	0.783448	-0.434580	-0.344910
C36	C	1.283448	0.065420	0.155090
C37	C	0.708215	-0.434594	-0.344918
C38	C	1.208215	0.065406	0.155082
C39	C	0.670374	-0.492366	-0.390629
C40	C	1.170374	0.007634	0.109371
C41	C	0.599686	-0.492368	-0.390638
C42	C	1.099686	0.007632	0.109362
C43	C	0.566839	-0.434601	-0.344933
C44	C	1.066839	0.065399	0.155067
C45	C	0.604685	-0.376823	-0.299220
C46	C	1.104685	0.123177	0.200780
C47	C	0.675373	-0.376817	-0.299214
C48	C	1.175373	0.123183	0.200786
C49	C	0.319611	-0.376843	-0.299243
C50	C	0.819611	0.123157	0.200757
C51	C	0.248919	-0.376854	-0.299251
C52	C	0.748919	0.123146	0.200749
C53	C	0.243924	-0.492393	-0.390667
C54	C	0.743924	0.007607	0.109333
C55	C	0.314612	-0.492388	-0.390662
C56	C	0.814612	0.007612	0.109338
C57	C	0.352452	-0.434606	-0.344951
C58	C	0.852452	0.065394	0.155049
C59	C	0.429100	-0.434604	-0.344942
C60	C	0.929100	0.065396	0.155058
C61	C	0.490192	-0.434607	-0.344938
C62	C	0.990192	0.065393	0.155062
C63	C	0.949091	-0.668990	-0.355053
C64	C	1.449091	-0.168990	0.144947
C65	C	0.944783	-0.769265	-0.359405
C66	C	1.444783	-0.269265	0.140595
C67	C	1.023335	-0.957670	-0.281093
C68	C	1.523335	-0.457670	0.218907
C69	C	1.019291	-1.051887	-0.285180
C70	C	1.519291	-0.551887	0.214820
C71	C	0.932654	-1.051917	-0.371669
C72	C	1.432654	-0.551917	0.128331
C73	C	0.936698	-0.957700	-0.367582
C74	C	1.436698	-0.457700	0.132418
C75	C	0.982040	-0.910580	-0.322292
C76	C	1.482040	-0.410580	0.177708
C77	C	0.986081	-0.816361	-0.318202
C78	C	1.486081	-0.316361	0.181798
C79	C	0.899447	-0.816394	-0.404694
C80	C	1.399447	-0.316394	0.095306
C81	C	0.895403	-0.910610	-0.408781
C82	C	1.395403	-0.410610	0.091219
C83	C	1.135845	-0.434615	-0.344956
C84	C	1.635845	0.065385	0.155044
C85	C	1.211077	-0.434623	-0.344966
C86	C	1.711077	0.065377	0.155034
C87	C	0.959335	-0.434534	-0.521473
C88	C	1.459335	0.065466	-0.021473
C89	C	0.959349	-0.434508	-0.596704
C90	C	1.459349	0.065492	-0.096704
C91	C	0.969574	-0.199288	-0.334788
C92	C	1.469574	0.300712	0.165212
C93	C	0.973951	-0.099014	-0.330465
C94	C	1.473951	0.400986	0.169535
C95	C	0.918590	-0.376797	-0.629554
C96	C	1.418590	0.123203	-0.129554
C97	C	0.918600	-0.376780	-0.700242
C98	C	1.418600	0.123220	-0.200242
C99	C	0.959374	-0.434469	-0.738078
C100	C	1.459374	0.065531	-0.238078
C101	C	1.000134	-0.492185	-0.705223
C102	C	1.500134	0.007815	-0.205223
C103	C	1.000120	-0.492207	-0.634537
C104	C	1.500120	0.007793	-0.134537
C105	C	1.000192	-0.492101	-0.990293
C106	C	1.500192	0.007899	-0.490293
C107	C	1.000204	-0.492073	-1.060984
C108	C	1.500204	0.007927	-0.560984
C109	C	0.918672	-0.376674	-1.055998
C110	C	1.418672	0.123326	-0.555998
C111	C	0.918658	-0.376695	-0.985312
C112	C	1.418658	0.123305	-0.485312
C113	C	0.959415	-0.434415	-0.952463
C114	C	1.459415	0.065585	-0.452463
C115	C	0.959403	-0.434435	-0.875816
C116	C	1.459403	0.065565	-0.375816
C117	C	0.959390	-0.434445	-0.814724
C118	C	1.459390	0.065555	-0.314724
C119	C	0.959313	-0.434594	-0.169077
C120	C	1.459313	0.065406	0.330923
C121	C	0.959441	-0.434367	-0.093835
C122	C	1.459441	0.065633	0.406165
H123	H	0.341352	-0.539430	-0.427877
H124	H	0.841352	-0.039430	0.072123
O125	O	0.851270	-0.956286	-0.452735
O126	O	1.351270	-0.456286	0.047265
C127	C	0.734867	-0.985263	-0.486702
C128	C	1.234867	-0.485263	0.013298
C129	C	0.784776	-0.933468	-0.436889
C130	C	1.284776	-0.433468	0.063111
H131	H	0.681094	-0.966848	-0.473900
H132	H	1.181094	-0.466848	0.026100
H133	H	0.747455	-0.966658	-0.540496
H134	H	1.247455	-0.466658	-0.040496
H135	H	0.739104	-1.060687	-0.482561
H136	H	1.239104	-0.560687	0.017439
H137	H	0.780566	-0.858031	-0.440970
H138	H	1.280566	-0.358031	0.059030
H139	H	0.772173	-0.952147	-0.383117
H140	H	1.272173	-0.452147	0.116883
H141	H	1.033408	-0.539054	-1.091789
H142	H	1.533408	-0.039054	-0.591789
O143	O	0.356325	-0.320812	-0.254746
O144	O	0.856325	0.179188	0.245254
C145	C	0.379784	-0.276770	-0.137766
C146	C	0.879784	0.223230	0.362234
C147	C	0.338171	-0.340300	-0.188086
C148	C	0.838171	0.159700	0.311914
H149	H	0.365112	-0.292491	-0.083861
H150	H	0.865112	0.207509	0.416139
H151	H	0.435958	-0.286678	-0.145549
H152	H	0.935958	0.213322	0.354451
H153	H	0.369056	-0.204057	-0.146642
H154	H	0.869056	0.295943	0.353358
H155	H	0.348841	-0.413038	-0.179241
H156	H	0.848841	0.086962	0.320759
H157	H	0.282010	-0.330314	-0.180291
H158	H	0.782010	0.169686	0.319709
O159	O	1.039818	-0.548097	-0.742001
O160	O	1.539818	-0.048097	-0.242001
C161	C	1.130659	-0.560222	-0.822372
C162	C	1.630659	-0.060222	-0.322372
C163	C	1.085773	-0.496800	-0.780749
C164	C	1.585773	0.003200	-0.280749
H165	H	1.167815	-0.518775	-0.853721
H166	H	1.667815	-0.018775	-0.353721
H167	H	1.159838	-0.601460	-0.786779
H168	H	1.659838	-0.101460	-0.286779
H169	H	1.097516	-0.607397	-0.857466
H170	H	1.597516	-0.107397	-0.357466
H171	H	1.118866	-0.449571	-0.745652
H172	H	1.618866	0.050429	-0.245652
H173	H	1.056589	-0.455626	-0.816381
H174	H	1.556589	0.044374	-0.316381
H175	H	0.577936	-0.329784	-0.262009
H176	H	1.077936	0.170216	0.237991
O177	O	0.878919	-0.320730	-0.592906
O178	O	1.378919	0.179270	-0.092906
C179	C	0.798072	-0.206233	-0.595429
C180	C	1.298072	0.293767	-0.095429
C181	C	0.842960	-0.269696	-0.637012
C182	C	1.342960	0.230304	-0.137012
H183	H	0.768998	-0.164942	-0.631069
H184	H	1.268998	0.335058	-0.131069
H185	H	0.760823	-0.247617	-0.564133
H186	H	1.260823	0.252383	-0.064133
H187	H	0.831206	-0.159110	-0.560289
H188	H	1.331206	0.340890	-0.060289
H189	H	0.809880	-0.316831	-0.672189
H190	H	1.309880	0.183169	-0.172189
H191	H	0.880213	-0.228255	-0.668262
H192	H	1.380213	0.271745	-0.168262
O193	O	0.878921	-0.320853	-0.732182
O194	O	1.378921	0.179147	-0.232182
C195	C	0.788090	-0.308695	-0.811464
C196	C	1.288090	0.191305	-0.311464
C197	C	0.832979	-0.372132	-0.775331
C198	C	1.332979	0.127868	-0.275331
H199	H	0.750944	-0.350128	-0.846369
H200	H	1.250944	0.149872	-0.346369
H201	H	0.758899	-0.267489	-0.772304
H202	H	1.258899	0.232511	-0.272304
H203	H	0.821233	-0.261492	-0.842505
H204	H	1.321233	0.238508	-0.342505
H205	H	0.799886	-0.419390	-0.744292
H206	H	1.299886	0.080610	-0.244292
H207	H	0.862174	-0.413275	-0.814525
H208	H	1.362174	0.086725	-0.314525
H209	H	0.568879	-0.539412	-0.427860
H210	H	1.068879	-0.039412	0.072140
O211	O	0.712030	-0.320674	-0.254741
O212	O	1.212030	0.179326	0.245259
C213	C	0.709529	-0.206040	-0.164088
C214	C	1.209529	0.293960	0.335912
C215	C	0.667934	-0.269594	-0.214407
C216	C	1.167934	0.230406	0.285593
H217	H	0.673896	-0.164712	-0.131474
H218	H	1.173896	0.335288	0.368526
H219	H	0.740792	-0.247355	-0.130383
H220	H	1.240792	0.252645	0.369617
H221	H	0.744705	-0.158956	-0.193195
H222	H	1.244705	0.341044	0.306805
H223	H	0.632721	-0.316691	-0.185355
H224	H	1.132721	0.183309	0.314645
H225	H	0.636717	-0.228223	-0.248111
H226	H	1.136717	0.271777	0.251889
O227	O	0.879150	-0.320482	-1.087873
O228	O	1.379150	0.179518	-0.587873
C229	C	0.852971	-0.167015	-1.102853
C230	C	1.352971	0.332985	-0.602853
C231	C	0.897783	-0.230548	-1.066723
C232	C	1.397783	0.269452	-0.566723
H233	H	0.868010	-0.094292	-1.085756
H234	H	1.368010	0.405708	-0.585756
H235	H	0.859986	-0.176831	-1.159878
H236	H	1.359986	0.323169	-0.659878
H237	H	0.797703	-0.182901	-1.089638
H238	H	1.297703	0.317099	-0.589638
H239	H	0.953068	-0.214702	-1.079883
H240	H	1.453068	0.285298	-0.579883
H241	H	0.890710	-0.220721	-1.009706
H242	H	1.390710	0.279279	-0.509706
O243	O	1.030181	-0.770726	-0.274193
O244	O	1.530181	-0.270726	0.225807
C245	C	1.115658	-0.780644	-0.188812
C246	C	1.615658	-0.280644	0.311188
C247	C	1.065754	-0.832435	-0.238633
C248	C	1.565754	-0.332435	0.261367
H249	H	1.144422	-0.830513	-0.160038
H250	H	1.644422	-0.330513	0.339962
H251	H	1.152968	-0.736490	-0.217974
H252	H	1.652968	-0.236490	0.282026
H253	H	1.086489	-0.736577	-0.151505
H254	H	1.586489	-0.236577	0.348495
H255	H	1.094866	-0.876550	-0.275951
H256	H	1.594866	-0.376550	0.224049
H257	H	1.028444	-0.876532	-0.209427
H258	H	1.528444	-0.376532	0.290573
H259	H	1.060250	-0.919304	-0.244211
H260	H	1.560250	-0.419304	0.255789
H261	H	0.213107	-0.539438	-0.427890
H262	H	0.713107	-0.039438	0.072110
H263	H	1.033316	-0.539194	-0.607791
H264	H	1.533316	-0.039194	-0.107791
O265	O	0.216979	-0.320866	-0.254779
O266	O	0.716979	0.179134	0.245221
C267	C	0.137650	-0.308591	-0.162906
C268	C	0.637650	0.191409	0.337094
C269	C	0.173785	-0.372091	-0.213222
C270	C	0.673785	0.127909	0.286778
H271	H	0.102709	-0.349980	-0.129303
H272	H	0.602709	0.150020	0.370697
H273	H	0.176811	-0.267313	-0.130187
H274	H	0.676811	0.232687	0.369813
H275	H	0.106644	-0.261458	-0.192015
H276	H	0.606644	0.238542	0.307985
H277	H	0.204789	-0.419279	-0.184168
H278	H	0.704789	0.080721	0.315832
H279	H	0.134591	-0.413306	-0.245941
H280	H	0.634591	0.086694	0.254059
H281	H	1.033371	-0.539110	-0.963557
H282	H	1.533371	-0.039110	-0.463557
O283	O	0.878948	-0.320753	-0.948593
O284	O	1.378948	0.179247	-0.448593
C285	C	0.765725	-0.276926	-0.925095
C286	C	1.265725	0.223074	-0.425095
C287	C	0.810618	-0.340347	-0.966709
C288	C	1.310618	0.159653	-0.466709
H289	H	0.710472	-0.292732	-0.939736
H290	H	1.210472	0.207268	-0.439736
H291	H	0.772657	-0.286857	-0.868923
H292	H	1.272657	0.213143	-0.368923
H293	H	0.780821	-0.204183	-0.935851
H294	H	1.280821	0.295817	-0.435851
H295	H	0.795550	-0.413115	-0.956011
H296	H	1.295550	0.086885	-0.456011
H297	H	0.803680	-0.330338	-1.022869
H298	H	1.303680	0.169662	-0.522869
H299	H	0.697113	-0.539409	-0.427845
H300	H	1.197113	-0.039409	0.072155
O301	O	1.059431	-1.097491	-0.245088
O302	O	1.559431	-0.597491	0.254912
C303	C	1.145819	-1.087514	-0.158901
C304	C	1.645819	-0.587514	0.341099
C305	C	1.100386	-1.035756	-0.204255
C306	C	1.600386	-0.535756	0.295745
H307	H	1.178953	-1.037624	-0.125886
H308	H	1.678953	-0.537624	0.374114
H309	H	1.112907	-1.131664	-0.125347
H310	H	1.612907	-0.631664	0.374653
H311	H	1.179268	-1.131582	-0.191933
H312	H	1.679268	-0.631582	0.308067
H313	H	1.066930	-0.991639	-0.171274
H314	H	1.566930	-0.491639	0.328726
H315	H	1.133338	-0.991662	-0.237813
H316	H	1.633338	-0.491662	0.262187
H317	H	0.865820	-0.778042	-0.438239
H318	H	1.365820	-0.278042	0.061761
O319	O	0.888629	-1.097837	-0.415603
O320	O	1.388629	-0.597837	0.084397
C321	C	0.844041	-1.243003	-0.460257
C322	C	1.344041	-0.743003	0.039743
C323	C	0.893917	-1.191111	-0.410462
C324	C	1.393917	-0.691111	0.089538
H325	H	0.848309	-1.318424	-0.456127
H326	H	1.348309	-0.818424	0.043873
H327	H	0.790244	-1.224627	-0.447517
H328	H	1.290244	-0.724627	0.052483
H329	H	0.856678	-1.224365	-0.514031
H330	H	1.356678	-0.724365	-0.014031
H331	H	0.881342	-1.209721	-0.356671
H332	H	1.381342	-0.709721	0.143329
H333	H	0.947699	-1.209491	-0.423259
H334	H	1.447699	-0.709491	0.076741
