data_functionalizedCrystal
_audit_creation_method	'MofGen! by Chris Wilmer'
_symmetry_space_group_name_H-M	'P1'
_symmetry_Int_Tables_number	1
_symmetry_cell_setting	triclinic
loop_
_symmetry_equiv_pos_as_xyz
  x,y,z
_cell_length_a	19.077105
_cell_length_b	16.120484
_cell_length_c	19.077174
_cell_angle_alpha	95.281307
_cell_angle_beta	85.483752
_cell_angle_gamma	90.738523
loop_
_atom_site_label
_atom_site_type_symbol
_atom_site_fract_x
_atom_site_fract_y
_atom_site_fract_z
Zn1	Zn	1.077028	-0.405078	-0.458497
Zn2	Zn	1.577028	0.094922	0.041503
Zn3	Zn	1.066713	-0.538658	-0.346101
Zn4	Zn	1.566713	-0.038658	0.153899
Zn5	Zn	0.954893	-0.393424	-0.335415
Zn6	Zn	1.454893	0.106576	0.164585
Zn7	Zn	0.953609	-0.538603	-0.459216
Zn8	Zn	1.453609	-0.038603	0.040784
O9	O	1.013061	-0.468941	-0.399807
O10	O	1.513061	0.031059	0.100193
O11	O	1.174108	-0.427698	-0.447758
O12	O	1.674108	0.072302	0.052242
O13	O	1.048100	-0.514538	-0.245834
O14	O	1.548100	-0.014538	0.254166
O15	O	0.975948	-0.278308	-0.346969
O16	O	1.475948	0.221692	0.153031
O17	O	1.166530	-0.525838	-0.365181
O18	O	1.666530	-0.025838	0.134819
O19	O	1.065680	-0.286870	-0.437397
O20	O	1.565680	0.213130	0.062603
O21	O	0.965946	-0.407835	-0.237983
O22	O	1.465946	0.092165	0.262017
O23	O	0.856274	-0.407782	-0.347667
O24	O	1.356274	0.092218	0.152333
O25	O	0.973761	-0.525745	-0.557970
O26	O	1.473761	-0.025745	-0.057970
O27	O	0.855331	-0.514445	-0.438623
O28	O	1.355331	-0.014445	0.061377
O29	O	1.064436	-0.427645	-0.557441
O30	O	1.564436	0.072355	-0.057441
O31	O	1.046856	-0.655312	-0.365879
O32	O	1.546856	-0.155312	0.134121
O33	O	0.963759	-0.655272	-0.448984
O34	O	1.463759	-0.155272	0.051016
C35	C	0.830276	-0.459844	-0.392064
C36	C	1.330276	0.040156	0.107936
C37	C	0.752080	-0.455973	-0.388769
C38	C	1.252080	0.044027	0.111231
C39	C	1.004068	-0.685543	-0.408685
C40	C	1.504068	-0.185543	0.091315
C41	C	1.000287	-0.778211	-0.412510
C42	C	1.500287	-0.278211	0.087490
C43	C	0.714864	-0.509765	-0.434509
C44	C	1.214864	-0.009765	0.065491
C45	C	0.641391	-0.506117	-0.431416
C46	C	1.141391	-0.006117	0.068584
C47	C	0.605135	-0.448680	-0.382579
C48	C	1.105135	0.051320	0.117421
C49	C	0.642355	-0.394883	-0.336836
C50	C	1.142355	0.105117	0.163164
C51	C	0.715827	-0.398527	-0.339933
C52	C	1.215827	0.101473	0.160067
C53	C	0.385448	-0.431813	-0.368249
C54	C	0.885448	0.068187	0.131751
C55	C	0.311971	-0.428174	-0.365154
C56	C	0.811971	0.071826	0.134846
C57	C	0.311012	-0.539408	-0.459734
C58	C	0.811012	-0.039408	0.040266
C59	C	0.384485	-0.543051	-0.462824
C60	C	0.884485	-0.043051	0.037176
C61	C	0.421700	-0.489250	-0.417085
C62	C	0.921700	0.010750	0.082915
N63	N	0.530033	-0.444952	-0.379414
N64	N	1.030033	0.055048	0.120586
N65	N	0.496800	-0.492975	-0.420253
N66	N	0.996800	0.007025	0.079747
C67	C	0.993387	-0.947877	-0.419507
C68	C	1.493387	-0.447877	0.080493
C69	C	1.032861	-0.989171	-0.380125
C70	C	1.532861	-0.489171	0.119875
C71	C	1.029022	-1.083579	-0.384018
C72	C	1.529022	-0.583579	0.115982
C73	C	0.997225	-0.853460	-0.415614
C74	C	1.497225	-0.353460	0.084386
C75	C	1.196559	-0.478074	-0.407581
C76	C	1.696559	0.021926	0.092419
C77	C	1.274755	-0.481966	-0.410894
C78	C	1.774755	0.018034	0.089106
C79	C	1.020106	-0.477989	-0.584053
C80	C	1.520106	0.022011	-0.084053
C81	C	1.023108	-0.481845	-0.662568
C82	C	1.523108	0.018155	-0.162568
C83	C	1.022108	-0.251494	-0.390911
C84	C	1.522108	0.248506	0.109089
C85	C	1.025963	-0.158832	-0.387120
C86	C	1.525963	0.341168	0.112880
C87	C	0.981747	-0.428103	-0.695366
C88	C	1.481747	0.071897	-0.195366
C89	C	0.984565	-0.431733	-0.769139
C90	C	1.484565	0.068267	-0.269139
C91	C	1.028748	-0.489101	-0.810112
C92	C	1.528748	0.010899	-0.310112
C93	C	1.070110	-0.542848	-0.777309
C94	C	1.570110	-0.042848	-0.277309
C95	C	1.067288	-0.539222	-0.703537
C96	C	1.567288	-0.039222	-0.203537
C97	C	1.041771	-0.505907	-1.031184
C98	C	1.541771	-0.005907	-0.531184
C99	C	1.044591	-0.509528	-1.104961
C100	C	1.544591	-0.009528	-0.604961
C101	C	0.959044	-0.398413	-1.096786
C102	C	1.459044	0.101587	-0.596786
C103	C	0.956230	-0.394788	-1.023013
C104	C	1.456230	0.105212	-0.523013
C105	C	0.997589	-0.448538	-0.990216
C106	C	1.497589	0.051462	-0.490216
N107	N	1.031631	-0.492811	-0.885520
N108	N	1.531631	0.007189	-0.385520
N109	N	0.994702	-0.444832	-0.914810
N110	N	1.494702	0.055168	-0.414810
C111	C	1.006086	-0.459870	-0.216277
C112	C	1.506086	0.040130	0.283723
C113	C	1.003230	-0.455786	-0.137759
C114	C	1.503230	0.044214	0.362241
H115	H	0.744379	-0.556538	-0.474275
H116	H	1.244379	-0.056538	0.025725
H117	H	1.069539	-0.953621	-0.343484
H118	H	1.569539	-0.453621	0.156516
F119	F	0.945448	-0.994340	-0.467394
F120	F	1.445448	-0.494340	0.032606
H121	H	0.611094	-0.549920	-0.468662
H122	H	1.111094	-0.049920	0.031338
H123	H	1.080573	-0.556245	-1.138320
H124	H	1.580573	-0.056245	-0.638320
F125	F	0.423067	-0.604184	-0.514802
F126	F	0.923067	-0.104184	-0.014802
H127	H	1.075440	-0.549683	-1.004490
H128	H	1.575440	-0.049683	-0.504490
H129	H	0.925371	-0.354653	-1.123497
H130	H	1.425371	0.145347	-0.623497
F131	F	0.271400	-0.596663	-0.508409
F132	F	0.771400	-0.096663	-0.008409
F133	F	0.940515	-0.374562	-0.804042
F134	F	1.440515	0.125438	-0.304042
H135	H	0.612829	-0.348113	-0.297075
H136	H	1.112829	0.151887	0.202925
F137	F	1.111307	-0.596424	-0.668631
F138	F	1.611307	-0.096424	-0.168631
H139	H	0.282453	-0.381393	-0.325388
H140	H	0.782453	0.118607	0.174612
F141	F	0.425045	-0.374551	-0.319570
F142	F	0.925045	0.125449	0.180430
F143	F	0.934725	-0.367039	-0.651766
F144	F	1.434725	0.132961	-0.151766
H145	H	0.746127	-0.354720	-0.302690
H146	H	1.246127	0.145280	0.197310
H147	H	0.920249	-0.348075	-0.989657
H148	H	1.420249	0.151925	-0.489657
F149	F	1.117128	-0.603909	-0.820917
F150	F	1.617128	-0.103909	-0.320917
