data_functionalizedCrystal
_audit_creation_method	'MofGen! by Chris Wilmer'
_symmetry_space_group_name_H-M	'P1'
_symmetry_Int_Tables_number	1
_symmetry_cell_setting	triclinic
loop_
_symmetry_equiv_pos_as_xyz
  x,y,z
_cell_length_a	10.723024
_cell_length_b	11.892095
_cell_length_c	10.723024
_cell_angle_alpha	86.072546
_cell_angle_beta	84.467869
_cell_angle_gamma	93.935834
loop_
_atom_site_label
_atom_site_type_symbol
_atom_site_fract_x
_atom_site_fract_y
_atom_site_fract_z
O1	O	1.665098	0.093993	0.167118
O2	O	1.301946	0.093997	0.183871
O3	O	1.491899	0.093991	-0.006081
O4	O	1.475146	0.093999	0.357071
O5	O	1.476061	-0.094016	0.009732
O6	O	1.286108	-0.094010	0.199685
O7	O	1.649260	-0.094014	0.182932
Zn8	Zn	1.465170	-0.123862	0.193819
Zn9	Zn	1.486037	0.123845	0.172984
O10	O	1.459308	-0.094008	0.372884
C11	C	1.247528	-0.000006	0.190559
C12	C	1.108974	-0.000005	0.186911
N13	N	1.450937	-0.292916	0.208037
C14	C	1.033991	-0.000002	0.293198
C15	C	0.890788	-0.000000	0.289431
C16	C	1.599313	-0.529569	0.059746
C17	C	1.589374	-0.647910	0.069694
C18	C	1.421115	-0.647943	0.237874
C19	C	1.431054	-0.529601	0.227926
C20	C	1.520157	-0.470418	0.138861
C21	C	1.530102	-0.352075	0.128920
C22	C	1.361837	-0.352109	0.297093
C23	C	1.351898	-0.470451	0.307040
C24	C	1.703679	-0.000008	0.176244
C25	C	1.842234	-0.000002	0.179891
C26	C	1.482761	-0.000012	-0.044674
C27	C	1.479113	-0.000008	-0.183229
N28	N	1.500279	0.292899	0.158756
C29	C	1.585401	-0.000007	-0.258211
C30	C	1.581634	-0.000003	-0.401415
C31	C	1.468446	-0.000003	0.411477
C32	C	1.472094	0.000000	0.550031
H33	H	1.075813	-0.000006	0.386985
H34	H	1.385328	0.000001	-0.225051
H35	H	1.067154	0.000022	0.093123
H36	H	1.297386	-0.303936	0.361516
H37	H	1.279348	-0.518651	0.379553
H38	H	1.672624	-0.000008	-0.465847
N39	N	0.805454	0.000013	0.409966
H40	H	0.715251	0.000015	0.390189
H41	H	0.816199	-0.069682	0.466044
N42	N	0.927554	-0.000006	0.059345
H43	H	0.988057	0.069688	0.049909
H44	H	0.976229	-0.069747	0.061711
H45	H	1.653829	-0.696067	0.005270
N46	N	1.709637	-0.000024	-0.202827
H47	H	1.721929	0.069664	-0.155270
H48	H	1.710084	-0.069771	-0.143623
N49	N	1.626205	-0.288236	0.032867
H50	H	1.674839	-0.343670	-0.015744
H51	H	1.582083	-0.239144	-0.026862
H52	H	1.671873	-0.481381	-0.012766
N53	N	1.325014	-0.711801	0.333914
H54	H	1.369052	-0.760897	0.393720
H55	H	1.276392	-0.656313	0.382444
H56	H	1.381098	-0.000008	-0.385543
