data_functionalizedCrystal
_audit_creation_method	'MofGen! by Chris Wilmer'
_symmetry_space_group_name_H-M	'P1'
_symmetry_Int_Tables_number	1
_symmetry_cell_setting	triclinic
loop_
_symmetry_equiv_pos_as_xyz
  x,y,z
_cell_length_a	11.792241
_cell_length_b	8.559649
_cell_length_c	7.088929
_cell_angle_alpha	84.675669
_cell_angle_beta	83.733449
_cell_angle_gamma	103.013960
loop_
_atom_site_label
_atom_site_type_symbol
_atom_site_fract_x
_atom_site_fract_y
_atom_site_fract_z
O1	O	-0.025387	-2.103505	-0.158987
O2	O	0.033183	-1.638808	-0.158992
O3	O	-0.162306	-1.882435	-0.158976
O4	O	0.170102	-1.859879	-0.159003
O5	O	-0.188484	-1.914993	0.159001
O6	O	0.007006	-1.671366	0.158986
O7	O	-0.051565	-2.136063	0.158990
Cu8	Cu	-0.024670	-1.906687	0.188022
Cu9	Cu	0.006288	-1.868184	-0.188023
O10	O	0.143924	-1.892436	0.158974
C11	C	0.024533	-1.595596	-0.000003
C12	C	0.037745	-1.418330	-0.000005
C13	C	-0.217556	-1.897297	0.000012
C14	C	-0.343181	-1.893057	0.000010
C15	C	-0.573177	-1.885256	-0.000022
C16	C	-0.445190	-1.889590	-0.000004
C17	C	0.199175	-1.877574	-0.000018
C18	C	0.324801	-1.881813	-0.000029
C19	C	-0.042915	-1.179276	0.000001
C20	C	-0.056127	-1.356541	0.000001
N21	N	-0.046446	-1.933780	0.452511
N22	N	0.028054	-1.841104	-0.452513
H23	H	0.128228	-1.335606	-0.000021
H24	H	0.105259	-1.745055	0.465835
O25	O	-0.138688	-2.048289	0.549711
C26	C	-0.349077	-2.145974	0.611420
C27	C	-0.244722	-2.016219	0.501189
H28	H	-0.434831	-2.120072	0.572262
H29	H	-0.342417	-2.270061	0.572111
H30	H	-0.347232	-2.143787	0.771619
H31	H	-0.246501	-2.018258	0.340966
H32	H	-0.251420	-1.892191	0.540657
H33	H	-0.146602	-1.439254	-0.000002
