data_functionalizedCrystal
_audit_creation_method	'MofGen! by Chris Wilmer'
_symmetry_space_group_name_H-M	'P1'
_symmetry_Int_Tables_number	1
_symmetry_cell_setting	triclinic
loop_
_symmetry_equiv_pos_as_xyz
  x,y,z
_cell_length_a	12.759395
_cell_length_b	21.395361
_cell_length_c	21.395355
_cell_angle_alpha	90.019049
_cell_angle_beta	89.977841
_cell_angle_gamma	89.967930
loop_
_atom_site_label
_atom_site_type_symbol
_atom_site_fract_x
_atom_site_fract_y
_atom_site_fract_z
Zn1	Zn	1.606170	0.249485	-0.354219
Zn2	Zn	2.106170	0.749485	0.145781
Zn3	Zn	1.606007	0.354245	-0.249441
Zn4	Zn	2.106007	0.854245	0.250559
Zn5	Zn	1.430463	0.249488	-0.249460
Zn6	Zn	1.930463	0.749488	0.250540
Zn7	Zn	1.430412	0.354232	-0.354185
Zn8	Zn	1.930412	0.854232	0.145815
O9	O	1.518263	0.301863	-0.301826
O10	O	2.018263	0.801863	0.198174
O11	O	1.753170	0.263386	-0.340326
O12	O	2.253170	0.763386	0.159674
O13	O	1.582674	0.340356	-0.161765
O14	O	2.082674	0.840356	0.338235
O15	O	1.453861	0.161810	-0.263379
O16	O	1.953861	0.661810	0.236621
O17	O	1.753050	0.340353	-0.263346
O18	O	2.253050	0.840353	0.236654
O19	O	1.582952	0.161808	-0.340345
O20	O	2.082952	0.661808	0.159655
O21	O	1.453703	0.263391	-0.161780
O22	O	1.953703	0.763391	0.338220
O23	O	1.283435	0.263378	-0.263346
O24	O	1.783435	0.763378	0.236654
O25	O	1.453774	0.340330	-0.441868
O26	O	1.953774	0.840330	0.058132
O27	O	1.283398	0.340333	-0.340287
O28	O	1.783398	0.840333	0.159713
O29	O	1.582902	0.263373	-0.441892
O30	O	2.082902	0.763373	0.058108
O31	O	1.582624	0.441921	-0.263313
O32	O	2.082624	0.941921	0.236687
O33	O	1.453616	0.441912	-0.340268
O34	O	1.953616	0.941912	0.159732
C35	C	1.518125	0.464650	-0.301798
C36	C	2.018125	0.964650	0.198202
C37	C	1.518162	0.534292	-0.301807
C38	C	2.018162	1.034292	0.198193
C39	C	1.245296	0.301855	-0.301815
C40	C	1.745296	0.801855	0.198185
C41	C	1.128519	0.301867	-0.301826
C42	C	1.628519	0.801867	0.198174
C43	C	1.585397	0.566989	-0.261779
C44	C	2.085397	1.066989	0.238221
C45	C	1.585446	0.632424	-0.261796
C46	C	2.085446	1.132424	0.238204
C47	C	1.518242	0.665160	-0.301835
C48	C	2.018242	1.165160	0.198165
C49	C	1.451003	0.632455	-0.341871
C50	C	1.951003	1.132455	0.158129
C51	C	1.450963	0.567020	-0.341857
C52	C	1.950963	1.067020	0.158143
C53	C	1.423645	0.768877	-0.306751
C54	C	1.923645	1.268877	0.193249
C55	C	1.423683	0.834310	-0.306760
C56	C	1.923683	1.334310	0.193240
C57	C	1.518366	0.866981	-0.301880
C58	C	2.018366	1.366981	0.198120
C59	C	1.613013	0.834211	-0.296977
C60	C	2.113013	1.334211	0.203023
C61	C	1.612973	0.768777	-0.296964
C62	C	2.112973	1.268777	0.203036
C63	C	1.518278	0.736112	-0.301854
C64	C	2.018278	1.236112	0.198146
C65	C	1.585659	0.970631	-0.261868
C66	C	2.085659	1.470631	0.238132
C67	C	1.585710	1.036067	-0.261889
C68	C	2.085710	1.536067	0.238111
C69	C	1.451257	1.036096	-0.341960
C70	C	1.951257	1.536096	0.158040
C71	C	1.451216	0.970661	-0.341942
C72	C	1.951216	1.470661	0.158058
C73	C	1.518415	0.937932	-0.301893
C74	C	2.018415	1.437932	0.198107
C75	C	1.128518	0.382129	-0.381815
C76	C	1.628518	0.882129	0.118185
C77	C	1.073657	0.422266	-0.421811
C78	C	1.573657	0.922266	0.078189
C79	C	0.963936	0.422273	-0.421819
C80	C	1.463936	0.922273	0.078181
C81	C	0.909073	0.382139	-0.381827
C82	C	1.409073	0.882139	0.118173
C83	C	0.963934	0.342003	-0.341831
C84	C	1.463934	0.842003	0.158169
C85	C	1.073658	0.342001	-0.341826
C86	C	1.573658	0.842001	0.158174
C87	C	0.963934	0.261738	-0.261846
C88	C	1.463934	0.761738	0.238154
C89	C	1.073656	0.261733	-0.261834
C90	C	1.573656	0.761733	0.238166
C91	C	0.909071	0.221604	-0.221854
C92	C	1.409071	0.721604	0.278146
C93	C	0.963932	0.181470	-0.181854
C94	C	1.463932	0.681470	0.318146
C95	C	1.073661	0.181465	-0.181847
C96	C	1.573661	0.681465	0.318153
C97	C	1.128517	0.221597	-0.221838
C98	C	1.628517	0.721597	0.278162
C99	C	1.792297	0.301871	-0.301837
C100	C	2.292297	0.801871	0.198163
C101	C	1.909073	0.301874	-0.301842
C102	C	2.409073	0.801874	0.198158
C103	C	1.518350	0.301850	-0.465250
C104	C	2.018350	0.801850	0.034750
C105	C	1.518388	0.301845	-0.534891
C106	C	2.018388	0.801845	-0.034891
C107	C	1.518431	1.138439	-0.301879
C108	C	2.018431	1.638439	0.198121
C109	C	1.518506	1.068798	-0.301929
C110	C	2.018506	1.568798	0.198071
C111	C	1.585622	0.261772	-0.567618
C112	C	2.085622	0.761772	-0.067618
C113	C	1.585621	0.261745	-0.633053
C114	C	2.085621	0.761745	-0.133053
C115	C	1.518396	0.301802	-0.665759
C116	C	2.018396	0.801802	-0.165759
C117	C	1.451148	0.341878	-0.633024
C118	C	1.951148	0.841878	-0.133024
C119	C	1.451144	0.341899	-0.567590
C120	C	1.951144	0.841899	-0.067590
C121	C	1.510052	0.358217	-0.769424
C122	C	2.010052	0.858217	-0.269424
C123	C	1.510064	0.358197	-0.834857
C124	C	2.010064	0.858197	-0.334857
C125	C	1.518402	0.301736	-0.867580
C126	C	2.018402	0.801736	-0.367580
C127	C	1.526751	0.245293	-0.834862
C128	C	2.026751	0.745293	-0.334862
C129	C	1.526747	0.245314	-0.769428
C130	C	2.026747	0.745314	-0.269428
C131	C	1.518392	0.301783	-0.736712
C132	C	2.018392	0.801783	-0.236712
C133	C	1.585639	0.261630	-0.971260
C134	C	2.085639	0.761630	-0.471260
C135	C	1.585630	0.261602	-1.036696
C136	C	2.085630	0.761602	-0.536696
C137	C	1.451163	0.341741	-1.036666
C138	C	1.951163	0.841741	-0.536666
C139	C	1.451166	0.341763	-0.971231
C140	C	1.951166	0.841763	-0.471231
C141	C	1.518410	0.301709	-0.938531
C142	C	2.018410	0.801709	-0.438531
C143	C	1.518237	0.301830	-0.139039
C144	C	2.018237	0.801830	0.360961
C145	C	1.518403	0.301659	-0.069398
C146	C	2.018403	0.801659	0.430602
H147	H	1.640117	0.540343	-0.229170
H148	H	2.140117	1.040343	0.270830
F149	F	1.657009	0.667231	-0.219190
F150	F	2.157009	1.167231	0.280810
F151	F	1.132040	0.138742	-0.139280
F152	F	1.632040	0.638742	0.360720
H153	H	1.396211	0.540398	-0.374454
H154	H	1.896211	1.040398	0.125546
F155	F	1.322952	0.869180	-0.311977
F156	F	1.822952	1.369180	0.188023
H157	H	1.217858	0.221598	-0.221835
H158	H	1.717858	0.721598	0.278165
F159	F	1.245294	0.382132	-0.381802
F160	F	1.745294	0.882132	0.118198
F161	F	1.379609	0.384369	-1.071470
F162	F	1.879609	0.884369	-0.571470
F163	F	0.792297	0.382142	-0.381845
F164	F	1.292297	0.882142	0.118155
F165	F	1.132053	0.464980	-0.464368
F166	F	1.632053	0.964980	0.035632
F167	F	1.657184	0.219139	-0.532821
F168	F	2.157184	0.719139	-0.032821
H169	H	1.396543	1.062749	-0.374563
H170	H	1.896543	1.562749	0.125437
F171	F	1.657166	0.219081	-0.667891
F172	F	2.157166	0.719081	-0.167891
H173	H	1.640381	0.943982	-0.229259
H174	H	2.140381	1.443982	0.270741
F175	F	0.905547	0.464987	-0.464390
F176	F	1.405547	0.964987	0.035610
H177	H	1.533543	0.199357	-0.742791
H178	H	2.033543	0.699357	-0.242791
H179	H	0.819730	0.221610	-0.221866
H180	H	1.319730	0.721610	0.278134
F181	F	1.535630	0.185198	-0.869682
F182	F	2.035630	0.685198	-0.369682
F183	F	1.713701	0.733903	-0.291750
F184	F	2.213701	1.233903	0.208250
F185	F	0.905538	0.138757	-0.139301
F186	F	1.405538	0.638757	0.360699
F187	F	1.657200	0.218999	-0.936457
F188	F	2.157200	0.718999	-0.436457
H189	H	1.396423	0.374399	-0.944584
H190	H	1.896423	0.874399	-0.444584
F191	F	1.501187	0.418268	-0.869673
F192	F	2.001187	0.918268	-0.369673
F193	F	1.657206	0.218956	-1.071527
F194	F	2.157206	0.718956	-0.571527
H195	H	1.346536	0.742282	-0.310728
H196	H	1.846536	1.242282	0.189272
F197	F	1.379650	0.935860	-0.384544
F198	F	1.879650	1.435860	0.115456
F199	F	1.379483	0.667295	-0.384485
F200	F	1.879483	1.167295	0.115515
F201	F	1.501201	0.418317	-0.734605
F202	F	2.001201	0.918317	-0.234605
H203	H	1.396410	0.374491	-0.659658
H204	H	1.896410	0.874491	-0.159658
F205	F	1.657281	1.070866	-0.219287
F206	F	2.157281	1.570866	0.280713
F207	F	1.713789	0.868976	-0.291777
F208	F	2.213789	1.368976	0.208223
H209	H	1.396389	0.374531	-0.540944
H210	H	1.896389	0.874531	-0.040944
