data_functionalizedCrystal
_audit_creation_method	'MofGen! by Chris Wilmer'
_symmetry_space_group_name_H-M	'P1'
_symmetry_Int_Tables_number	1
_symmetry_cell_setting	triclinic
loop_
_symmetry_equiv_pos_as_xyz
  x,y,z
_cell_length_a	14.908571
_cell_length_b	15.299816
_cell_length_c	14.908308
_cell_angle_alpha	103.454544
_cell_angle_beta	90.175053
_cell_angle_gamma	77.679493
loop_
_atom_site_label
_atom_site_type_symbol
_atom_site_fract_x
_atom_site_fract_y
_atom_site_fract_z
Zn1	Zn	1.423314	-0.480234	-0.675272
Zn2	Zn	1.923314	0.019766	-0.175272
Zn3	Zn	1.455541	-0.625789	-0.551491
Zn4	Zn	1.955541	-0.125789	-0.051491
Zn5	Zn	1.278757	-0.462558	-0.513043
Zn6	Zn	1.778757	0.037442	-0.013043
Zn7	Zn	1.296391	-0.624695	-0.692943
Zn8	Zn	1.796391	-0.124695	-0.192943
O9	O	1.363501	-0.548319	-0.608187
O10	O	1.863501	-0.048319	-0.108187
O11	O	1.554691	-0.507396	-0.667548
O12	O	2.054691	-0.007396	-0.167548
O13	O	1.438197	-0.597196	-0.419299
O14	O	1.938197	-0.097196	0.080701
O15	O	1.277066	-0.336133	-0.511077
O16	O	1.777066	0.163867	-0.011077
O17	O	1.578368	-0.614335	-0.576606
O18	O	2.078368	-0.114335	-0.076606
O19	O	1.383271	-0.349119	-0.630266
O20	O	1.883271	0.150881	-0.130266
O21	O	1.308316	-0.477271	-0.391051
O22	O	1.808316	0.022729	0.108949
O23	O	1.153994	-0.476211	-0.528211
O24	O	1.653994	0.023789	-0.028211
O25	O	1.307120	-0.612472	-0.817691
O26	O	1.807120	-0.112472	-0.317691
O27	O	1.166950	-0.595333	-0.660383
O28	O	1.666950	-0.095333	-0.160383
O29	O	1.400370	-0.506336	-0.804708
O30	O	1.900370	-0.006336	-0.304708
O31	O	1.455296	-0.754414	-0.593741
O32	O	1.955296	-0.254414	-0.093741
O33	O	1.338369	-0.753610	-0.697665
O34	O	1.838369	-0.253610	-0.197665
C35	C	1.127516	-0.533736	-0.592043
C36	C	1.627516	-0.033736	-0.092043
C37	C	1.026563	-0.527521	-0.585163
C38	C	1.526563	-0.027521	-0.085163
C39	C	0.850438	-0.640057	-0.709741
C40	C	1.350438	-0.140057	-0.209741
C41	C	0.755584	-0.634220	-0.703279
C42	C	1.255584	-0.134220	-0.203279
C43	C	0.741999	-0.510007	-0.565783
C44	C	1.241999	-0.010007	-0.065783
C45	C	0.836853	-0.515844	-0.572244
C46	C	1.336853	-0.015844	-0.072244
C47	C	0.891070	-0.580872	-0.644225
C48	C	1.391070	-0.080872	-0.144225
C49	C	0.985926	-0.586712	-0.650682
C50	C	1.485926	-0.086712	-0.150682
C51	C	0.972338	-0.462495	-0.513190
C52	C	1.472338	0.037505	-0.013190
C53	C	0.877485	-0.456658	-0.506728
C54	C	1.377485	0.043342	-0.006728
C55	C	1.402267	-0.787403	-0.651814
C56	C	1.902267	-0.287403	-0.151814
C57	C	1.418933	-0.889692	-0.670514
C58	C	1.918933	-0.389692	-0.170514
C59	C	1.244967	-1.151286	-0.474886
C60	C	1.744967	-0.651286	0.025114
C61	C	1.229304	-1.055181	-0.457319
C62	C	1.729304	-0.555181	0.042681
C63	C	1.276710	-1.013804	-0.510616
C64	C	1.776710	-0.513804	-0.010616
C65	C	1.339782	-1.068541	-0.581484
C66	C	1.839782	-0.568541	-0.081484
C67	C	1.355441	-1.164656	-0.599058
C68	C	1.855441	-0.664656	-0.099058
C69	C	1.387184	-1.027173	-0.634787
C70	C	1.887184	-0.527173	-0.134787
C71	C	1.450255	-1.081911	-0.705655
C72	C	1.950255	-0.581911	-0.205655
C73	C	1.465912	-1.178016	-0.723226
C74	C	1.965912	-0.678016	-0.223226
C75	C	1.418506	-1.219393	-0.669929
C76	C	1.918506	-0.719393	-0.169929
C77	C	1.371524	-0.931059	-0.617213
C78	C	1.871524	-0.431059	-0.117213
C79	C	1.481998	-0.944429	-0.741385
C80	C	1.981998	-0.444429	-0.241385
C81	C	1.497661	-1.040534	-0.758952
C82	C	1.997661	-0.540534	-0.258952
C83	C	1.600407	-0.562959	-0.624395
C84	C	2.100407	-0.062959	-0.124395
C85	C	1.701362	-0.569198	-0.631302
C86	C	2.201362	-0.069198	-0.131302
C87	C	1.352117	-0.561254	-0.845075
C88	C	1.852117	-0.061254	-0.345075
C89	C	1.347266	-0.566766	-0.946022
C90	C	1.847266	-0.066766	-0.446022
C91	C	1.324607	-0.308303	-0.564412
C92	C	1.824607	0.191697	-0.064412
C93	C	1.308033	-0.206023	-0.545757
C94	C	1.808033	0.293977	-0.045757
C95	C	1.435245	-0.466583	-1.122191
C96	C	1.935245	0.033417	-0.622191
C97	C	1.430689	-0.471759	-1.217040
C98	C	1.930689	0.028241	-0.717040
C99	C	1.333594	-0.582288	-1.230568
C100	C	1.833594	-0.082288	-0.730568
C101	C	1.338150	-0.577112	-1.135719
C102	C	1.838150	-0.077112	-0.635719
C103	C	1.388978	-0.519259	-1.081534
C104	C	1.888978	-0.019259	-0.581534
C105	C	1.393538	-0.514088	-0.986685
C106	C	1.893538	-0.014088	-0.486685
C107	C	1.296438	-0.624612	-1.000214
C108	C	1.796438	-0.124612	-0.500214
C109	C	1.291883	-0.629788	-1.095062
C110	C	1.791883	-0.129788	-0.595062
C111	C	1.374882	-0.535371	-0.372213
C112	C	1.874882	-0.035371	0.127787
C113	C	1.379866	-0.529611	-0.271231
C114	C	1.879866	-0.029611	0.228769
H115	H	1.030068	-0.639663	-0.709291
H116	H	1.530068	-0.139663	-0.209291
F117	F	0.819773	-0.387451	-0.430129
F118	F	1.319773	0.112549	0.069871
F119	F	0.684281	-0.440794	-0.489192
F120	F	1.184281	0.059206	0.010808
H121	H	1.468362	-0.428862	-1.250138
H122	H	1.968362	0.071138	-0.750138
F123	F	1.279496	-0.643849	-1.288248
F124	F	1.779496	-0.143849	-0.788248
H125	H	1.250498	-0.676889	-1.139192
H126	H	1.750498	-0.176889	-0.639192
F127	F	1.532453	-0.900397	-0.798113
F128	F	2.032453	-0.400397	-0.298113
H129	H	1.476637	-0.419481	-1.078074
H130	H	1.976637	0.080519	-0.578074
F131	F	1.162173	-0.996933	-0.381907
F132	F	1.662173	-0.496933	0.118093
H133	H	1.258767	-0.667507	-0.967102
H134	H	1.758767	-0.167507	-0.467102
H135	H	1.005430	-0.414304	-0.459840
H136	H	1.505430	0.085696	0.040160
F137	F	1.447637	-0.452519	-0.929019
F138	F	1.947637	0.047481	-0.429019
F139	F	1.435331	-1.321680	-0.688483
F140	F	1.935331	-0.821680	-0.188483
F141	F	0.908143	-0.709271	-0.786340
F142	F	1.408143	-0.209271	-0.286340
F143	F	0.712345	-0.697211	-0.773012
F144	F	1.212345	-0.197211	-0.273012
F145	F	1.304401	-0.872814	-0.541792
F146	F	1.804401	-0.372814	-0.041792
F147	F	1.259776	-0.911519	-0.492150
F148	F	1.759776	-0.411519	0.007850
F149	F	1.194510	-1.195328	-0.418183
F150	F	1.694510	-0.695328	0.081817
F151	F	1.533023	-1.236269	-0.798664
F152	F	2.033023	-0.736269	-0.298664
H153	H	1.549014	-1.085114	-0.816654
H154	H	2.049014	-0.585114	-0.316654
