data_functionalizedCrystal
_audit_creation_method	'MofGen! by Chris Wilmer'
_symmetry_space_group_name_H-M	'P1'
_symmetry_Int_Tables_number	1
_symmetry_cell_setting	triclinic
loop_
_symmetry_equiv_pos_as_xyz
  x,y,z
_cell_length_a	6.817900
_cell_length_b	9.582889
_cell_length_c	14.125465
_cell_angle_alpha	93.994381
_cell_angle_beta	100.398878
_cell_angle_gamma	111.207298
loop_
_atom_site_label
_atom_site_type_symbol
_atom_site_fract_x
_atom_site_fract_y
_atom_site_fract_z
V1	V	-4.031036	-0.205771	-0.299801
O2	O	-3.977344	0.011211	-0.294276
O3	O	-4.022075	-0.409281	-0.297577
O4	O	-3.966455	-0.202025	-0.430635
O5	O	-4.033349	-0.197480	-0.160296
V6	V	-4.511650	-0.179886	-0.283137
O7	O	-4.298675	-0.262552	-0.336357
O8	O	-4.694209	-0.123105	-0.246581
O9	O	-4.297405	0.023625	-0.285361
O10	O	-4.682739	-0.396868	-0.288662
O11	O	-4.626734	-0.188177	-0.422641
O12	O	-4.353025	-0.183632	-0.152303
C13	C	-3.877194	-0.458911	-0.292802
C14	C	-3.951047	-0.625280	-0.291855
C15	C	-3.806244	-0.194533	-0.462530
C16	C	-3.834986	-0.192817	-0.569485
C17	C	-3.887669	-0.189671	-0.765311
C18	C	-4.074385	-0.195983	-0.817627
C19	C	-4.103701	-0.194232	-0.926591
C20	C	-3.858346	-0.191422	-0.656337
C21	C	-4.105630	0.073246	-0.290133
C22	C	-4.011015	0.239614	-0.291086
C23	C	-4.176580	-0.191128	-0.120403
C24	C	-4.127074	-0.192837	-0.013447
H25	H	-3.749846	-0.182954	-0.802355
H26	H	-4.212229	-0.202717	-0.780583
