data_functionalizedCrystal
_audit_creation_method	'MofGen! by Chris Wilmer'
_symmetry_space_group_name_H-M	'P1'
_symmetry_Int_Tables_number	1
_symmetry_cell_setting	triclinic
loop_
_symmetry_equiv_pos_as_xyz
  x,y,z
_cell_length_a	21.606444
_cell_length_b	23.196402
_cell_length_c	23.196401
_cell_angle_alpha	60.008822
_cell_angle_beta	90.012419
_cell_angle_gamma	60.001587
loop_
_atom_site_label
_atom_site_type_symbol
_atom_site_fract_x
_atom_site_fract_y
_atom_site_fract_z
Zr1	Zr	0.596220	0.631023	-0.075647
O2	O	0.497378	0.751286	-0.167691
O3	O	0.626518	0.510758	-0.047435
O4	O	0.626491	0.631025	-0.167700
O5	O	0.497429	0.631017	0.047446
O6	O	0.728341	0.631030	-0.167704
O7	O	0.497405	0.631018	-0.047425
O8	O	0.728390	0.415894	0.047429
O9	O	0.497380	0.846153	-0.167687
O10	O	0.715452	0.560229	-0.035401
O11	O	0.639461	0.560224	0.035403
O12	O	0.639429	0.701823	-0.106194
O13	O	0.563438	0.701819	-0.035390
Zr14	Zr	0.758698	0.631027	0.075656
Zr15	Zr	0.758659	0.631029	-0.075653
Zr16	Zr	0.596259	0.631020	0.075661
Zr17	Zr	0.596225	0.782325	-0.075641
Zr18	Zr	0.758693	0.479725	0.075649
O19	O	0.728400	0.751291	0.047443
O20	O	0.728344	0.751295	-0.167698
O21	O	0.497433	0.751282	0.047451
O22	O	0.857540	0.510764	0.167699
O23	O	0.857485	0.510768	-0.047443
O24	O	0.626574	0.510755	0.167707
O25	O	0.857489	0.631033	-0.047438
O26	O	0.728427	0.631024	0.167709
O27	O	0.626577	0.631020	0.167712
O28	O	0.857513	0.631031	0.047434
O29	O	0.626497	0.846158	-0.167691
O30	O	0.728421	0.415892	0.167699
O31	O	0.857538	0.415897	0.167695
O32	O	0.857507	0.415899	0.047425
O33	O	0.497411	0.846151	-0.047416
O34	O	0.626528	0.846156	-0.047421
O35	O	0.715489	0.560226	0.106202
O36	O	0.791480	0.560231	0.035398
O37	O	0.715457	0.701825	-0.035395
O38	O	0.639466	0.701821	0.035409
C39	C	0.677453	0.441769	-0.000004
C40	C	0.677452	0.377537	-0.000007
C41	C	0.717113	0.347369	-0.036968
C42	C	0.717120	0.287008	-0.036963
C43	C	0.677451	0.256829	-0.000005
C44	C	0.637788	0.287001	0.036965
C45	C	0.637788	0.347355	0.036964
C46	C	0.610992	0.194797	-0.005277
C47	C	0.610989	0.134447	-0.005281
C48	C	0.677452	0.070674	0.000002
C49	C	0.743917	0.067265	0.005276
C50	C	0.743917	0.127619	0.005275
C51	C	0.677447	0.191384	0.000001
C52	C	0.717125	-0.024946	-0.036955
C53	C	0.717135	-0.085311	-0.036944
C54	C	0.637795	-0.085311	0.036979
C55	C	0.637793	-0.024952	0.036973
C56	C	0.677456	0.005230	0.000002
C57	C	0.474273	0.631017	0.000011
C58	C	0.405314	0.631014	0.000013
C59	C	0.412598	0.557104	0.036964
C60	C	0.347801	0.557106	0.036965
C61	C	0.275720	0.631019	0.000010
C62	C	0.268437	0.704936	-0.036942
C63	C	0.333234	0.704932	-0.036938
C64	C	0.007119	0.704950	-0.036957
C65	C	-0.057679	0.704947	-0.036960
C66	C	0.021686	0.557123	0.036945
C67	C	0.086482	0.557120	0.036949
C68	C	0.079194	0.631036	0.000000
C69	C	0.149455	0.631032	0.000001
C70	C	0.205459	0.631024	0.000005
C71	C	0.880645	0.631033	-0.000003
C72	C	0.949604	0.631036	-0.000005
C73	C	0.677410	0.631028	-0.189260
C74	C	0.677394	0.631029	-0.253495
C75	C	0.677465	0.820281	0.000012
C76	C	0.677466	0.884513	0.000015
C77	C	0.637714	0.704938	-0.320621
C78	C	0.637733	0.704939	-0.380976
C79	C	0.677422	0.631027	-0.374201
C80	C	0.717110	0.557108	-0.307063
C81	C	0.717096	0.557109	-0.246710
C82	C	0.671784	0.574399	-0.441520
C83	C	0.671793	0.574401	-0.501874
C84	C	0.677470	0.631021	-0.560349
C85	C	0.683123	0.687652	-0.558469
C86	C	0.683109	0.687653	-0.498116
C87	C	0.677442	0.631017	-0.439640
C88	C	0.637809	0.704936	-0.692922
C89	C	0.637834	0.704934	-0.753276
C90	C	0.717206	0.557101	-0.679361
C91	C	0.717186	0.557105	-0.619008
C92	C	0.677484	0.631025	-0.625793
C93	C	0.677508	0.631022	0.189269
C94	C	0.677524	0.631021	0.253503
C95	C	0.880639	0.441777	-0.000011
C96	C	0.949597	0.377548	-0.000016
C97	C	0.677502	0.441766	0.189261
C98	C	0.677517	0.377533	0.253492
C99	C	0.880688	0.441774	0.189254
C100	C	0.949662	0.377544	0.253483
C101	C	0.474230	0.820276	-0.189245
C102	C	0.405256	0.884506	-0.253475
C103	C	0.474279	0.820273	0.000019
C104	C	0.405321	0.884502	0.000024
C105	C	0.677416	0.820284	-0.189252
C106	C	0.677401	0.884517	-0.253484
C107	C	0.942294	0.347384	-0.036981
C108	C	1.007081	0.287042	-0.037000
C109	C	1.079170	0.256861	-0.000049
C110	C	1.086470	0.287031	0.036917
C111	C	1.021684	0.347376	0.036931
C112	C	0.717209	0.347370	0.320619
C113	C	0.717220	0.287024	0.380977
C114	C	0.677542	0.256840	0.374208
C115	C	0.637845	0.287009	0.307074
C116	C	0.637830	0.347357	0.246717
C117	C	1.021726	0.347383	0.246687
C118	C	1.086541	0.287040	0.307032
C119	C	1.079290	0.256856	0.374172
C120	C	1.007218	0.287023	0.380967
C121	C	0.942405	0.347368	0.320623
C122	C	0.333192	0.914674	-0.246679
C123	C	0.268377	0.975036	-0.307023
C124	C	0.275628	1.005223	-0.374163
C125	C	0.347700	0.975053	-0.380958
C126	C	0.412513	0.914697	-0.320614
C127	C	0.412624	0.914672	0.036983
C128	C	0.347837	0.975030	0.036985
C129	C	0.275748	1.005214	0.000032
C130	C	0.268448	0.975041	-0.036931
C131	C	0.333234	0.914688	-0.036937
C132	C	0.717087	0.914683	-0.246692
C133	C	0.717088	0.975028	-0.307038
C134	C	0.677399	1.005211	-0.374177
C135	C	0.637712	0.975039	-0.380968
C136	C	0.637716	0.914691	-0.320622
H137	H	0.749424	-0.000373	-0.067056
H138	H	0.327277	0.890125	-0.067031
H139	H	1.027641	0.371927	0.067037
H140	H	0.353596	0.999639	-0.435631
N141	N	1.149200	0.191753	0.439252
H142	H	1.133677	0.177200	0.482820
H143	H	1.180361	0.212803	0.439214
H144	H	0.749520	0.371939	0.326145
N145	N	0.594932	0.784660	-0.453385
H146	H	0.539421	0.816966	-0.459050
H147	H	0.601023	0.773376	-0.490545
N148	N	0.490241	0.882143	-0.327944
H149	H	0.518916	0.892634	-0.304554
H150	H	0.484933	0.910437	-0.379647
H151	H	0.353796	0.999587	0.067088
N152	N	0.205877	1.070296	0.000057
H153	H	0.159097	1.084841	-0.028957
H154	H	0.205917	1.120329	-0.020953
H155	H	1.131916	0.207724	-0.000066
N156	N	0.190693	1.007586	-0.076772
H157	H	0.150766	1.050389	-0.071148
H158	H	0.184702	0.961487	-0.057353
H159	H	0.471286	0.496914	0.067060
H160	H	-0.116372	0.765140	-0.067054
N161	N	0.759896	0.882137	-0.174283
H162	H	0.785036	0.910408	-0.179148
H163	H	0.799786	0.821553	-0.147636
N164	N	0.759896	1.007561	-0.299705
H165	H	0.785031	0.979285	-0.248015
H166	H	0.723467	1.068145	-0.323134
H167	H	0.605398	0.999624	-0.435640
H168	H	0.605396	0.890137	-0.326162
H169	H	0.677401	1.054351	-0.423309
N170	N	0.594992	0.784658	-0.700231
H171	H	0.569862	0.831481	-0.751918
H172	H	0.631415	0.787879	-0.676783
H173	H	0.209699	0.999590	-0.301477
H174	H	0.677560	0.207700	0.423360
H175	H	0.749549	0.262468	0.435634
H176	H	0.749411	0.371939	-0.067070
N177	N	0.164226	0.477400	0.076799
H178	H	0.159009	0.430576	0.100208
H179	H	0.192849	0.474176	0.113956
N180	N	0.490371	0.882125	0.076842
H181	H	0.485155	0.910407	0.100249
H182	H	0.518972	0.892629	0.042904
N183	N	1.029552	0.379942	0.174274
H184	H	1.004436	0.369436	0.147585
H185	H	1.085056	0.351664	0.179190
N186	N	0.689230	0.748747	-0.621529
H187	H	0.736067	0.718988	-0.631679
H188	H	0.692770	0.784595	-0.611117
H189	H	0.798040	0.015333	0.009587
H190	H	0.749419	0.262440	-0.067062
H191	H	1.145173	0.262449	0.067001
N192	N	0.760023	0.477379	-0.672042
H193	H	0.723647	0.474072	-0.695447
H194	H	0.785155	0.430606	-0.620342
N195	N	0.205723	1.070317	-0.439249
H196	H	0.174541	1.120392	-0.439266
H197	H	0.174598	1.049236	-0.439230
N198	N	0.815597	0.123946	0.010963
H199	H	0.857704	0.074391	0.014309
H200	H	0.830388	0.120299	0.054576
H201	H	0.749436	-0.109878	-0.067040
N202	N	0.595059	0.254444	0.299775
H203	H	0.555141	0.264939	0.323174
H204	H	0.631517	0.193871	0.323165
H205	H	0.605496	-0.109882	0.067071
H206	H	0.556862	0.246731	-0.009594
H207	H	0.605494	-0.000386	0.067068
H208	H	0.605510	0.371908	0.192062
H209	H	1.145219	0.262484	0.301487
N210	N	0.759889	0.477389	-0.174305
H211	H	0.753855	0.488605	-0.137100
H212	H	0.815381	0.445114	-0.168700
H213	H	0.327273	0.890099	-0.192015
H214	H	1.001325	0.262437	0.435640
H215	H	1.001122	0.262486	-0.067102
N216	N	0.665706	0.513314	-0.503892
H217	H	0.618881	0.543083	-0.543828
H218	H	0.662152	0.477457	-0.457657
H219	H	0.327298	0.765118	-0.067018
N220	N	0.864676	0.379892	0.327952
H221	H	0.858612	0.404928	0.354617
H222	H	0.858676	0.333798	0.354597
N223	N	0.539318	0.138101	-0.010931
H224	H	0.497220	0.187643	-0.014255
H225	H	0.548361	0.087282	0.032239
H226	H	0.605489	0.371918	0.067063
N227	N	0.595007	0.254448	0.076829
H228	H	0.555070	0.264948	0.042937
H229	H	0.569930	0.282732	0.100245
N230	N	0.355656	0.477388	0.076818
H231	H	0.411151	0.430565	0.100225
H232	H	0.330490	0.474174	0.042880
H233	H	0.027614	0.496937	0.067032
H234	H	0.001175	0.765136	-0.067056
H235	H	0.605389	0.765129	-0.326152
N236	N	0.190696	0.784659	-0.076793
H237	H	0.150751	0.773447	-0.071190
H238	H	0.184684	0.816940	-0.128475
H239	H	0.687714	0.733763	-0.496589
N240	N	0.595065	0.784654	-0.825682
H241	H	0.569921	0.831478	-0.820818
H242	H	0.555183	0.787891	-0.852369
H243	H	0.749494	0.496920	-0.564350
N244	N	0.665666	0.513322	-0.378451
H245	H	0.616612	0.520874	-0.392746
H246	H	0.666552	0.521946	-0.339959
N247	N	0.759921	0.477390	-0.299755
H248	H	0.723539	0.474089	-0.323159
H249	H	0.785057	0.430613	-0.248056
N250	N	0.864547	0.379927	-0.076836
H251	H	0.869763	0.351658	-0.100255
H252	H	0.835928	0.440511	-0.113985
