data_functionalizedCrystal
_audit_creation_method	'MofGen! by Chris Wilmer'
_symmetry_space_group_name_H-M	'P1'
_symmetry_Int_Tables_number	1
_symmetry_cell_setting	triclinic
loop_
_symmetry_equiv_pos_as_xyz
  x,y,z
_cell_length_a	10.723024
_cell_length_b	8.965430
_cell_length_c	10.723023
_cell_angle_alpha	89.998566
_cell_angle_beta	84.467709
_cell_angle_gamma	90.003544
loop_
_atom_site_label
_atom_site_type_symbol
_atom_site_fract_x
_atom_site_fract_y
_atom_site_fract_z
O1	O	1.657188	0.124026	0.175018
O2	O	1.294035	0.124031	0.191771
O3	O	1.483989	0.124022	0.001818
O4	O	1.467234	0.124035	0.364971
O5	O	1.483973	-0.124057	0.001831
O6	O	1.294019	-0.124048	0.191784
O7	O	1.657172	-0.124053	0.175031
Cu8	Cu	1.475594	-0.146702	0.183408
Cu9	Cu	1.475613	0.146680	0.183393
O10	O	1.467218	-0.124044	0.364983
C11	C	1.247528	-0.000008	0.190558
C12	C	1.108973	-0.000006	0.186911
N13	N	1.475590	-0.353051	0.183418
C14	C	1.033991	-0.000001	0.293198
C15	C	0.890787	0.000000	0.289431
C16	C	1.387715	-0.450353	0.271236
C17	C	1.500690	-0.549767	0.296416
C18	C	1.362663	-0.549764	0.158249
C19	C	1.588622	-0.450276	0.208655
C20	C	1.450520	-0.450265	0.070438
C21	C	1.563576	-0.549634	0.095571
C22	C	1.703679	-0.000011	0.176243
C23	C	1.842234	-0.000003	0.179891
C24	C	1.482762	-0.000015	-0.044675
C25	C	1.479114	-0.000011	-0.183229
N26	N	1.475627	0.353029	0.183374
C27	C	1.477497	0.128504	-0.245002
C28	C	1.473727	0.128512	-0.388205
C29	C	1.468445	-0.000003	0.411477
C30	C	1.472093	0.000002	0.550031
H31	H	1.075812	-0.000007	0.386984
H32	H	1.473490	-0.110030	-0.396855
H33	H	1.429255	-0.406524	-0.025057
H34	H	0.906659	0.000003	0.088896
H35	H	1.477701	-0.110030	-0.236360
H36	H	1.521920	-0.593473	0.391941
H37	H	0.826354	0.000010	0.380421
H38	H	1.684160	-0.406759	0.230038
H39	H	1.478897	0.238523	-0.191869
H40	H	1.637986	-0.592953	0.021284
H41	H	1.067152	0.000029	0.093125
H42	H	1.313472	-0.406761	0.345569
H43	H	1.267147	-0.593469	0.136980
H44	H	1.472342	0.238537	-0.441328
