data_functionalizedCrystal
_audit_creation_method	'MofGen! by Chris Wilmer'
_symmetry_space_group_name_H-M	'P1'
_symmetry_Int_Tables_number	1
_symmetry_cell_setting	triclinic
loop_
_symmetry_equiv_pos_as_xyz
  x,y,z
_cell_length_a	12.759401
_cell_length_b	19.076808
_cell_length_c	12.759393
_cell_angle_alpha	92.334138
_cell_angle_beta	90.020938
_cell_angle_gamma	92.325019
loop_
_atom_site_label
_atom_site_type_symbol
_atom_site_fract_x
_atom_site_fract_y
_atom_site_fract_z
Zn1	Zn	1.589386	-0.280155	0.577177
Zn2	Zn	1.582184	-0.397876	0.394420
Zn3	Zn	1.413683	-0.280193	0.401510
Zn4	Zn	1.406587	-0.397827	0.570060
O5	O	1.497960	-0.339013	0.485792
O6	O	1.735451	-0.295776	0.552945
O7	O	1.559788	-0.382302	0.248337
O8	O	1.442974	-0.181691	0.430759
O9	O	1.730160	-0.382265	0.418675
O10	O	1.572062	-0.181663	0.559820
O11	O	1.435990	-0.295840	0.253546
O12	O	1.265721	-0.295792	0.423858
O13	O	1.430880	-0.382182	0.718028
O14	O	1.260507	-0.382218	0.547691
O15	O	1.565182	-0.295729	0.723257
O16	O	1.552907	-0.496367	0.411773
O17	O	1.423896	-0.496331	0.540816
C18	C	1.224993	-0.339004	0.485772
C19	C	1.108216	-0.339018	0.485787
C20	C	1.050662	-0.384088	0.550157
C21	C	0.940938	-0.384091	0.550178
C22	C	0.946330	-0.293951	0.421449
C23	C	1.056052	-0.293945	0.421435
C24	C	1.486879	-0.521888	0.474776
C25	C	1.482234	-0.600123	0.470098
C26	C	1.547211	-0.636803	0.535150
C27	C	1.542843	-0.710312	0.530757
C28	C	1.473502	-0.747141	0.461305
C29	C	1.408518	-0.710456	0.396250
C30	C	1.412881	-0.636947	0.400650
C31	C	1.453245	-0.966996	0.440941
C32	C	1.448889	-1.040509	0.436545
C33	C	1.583213	-1.040361	0.571053
C34	C	1.587575	-0.966851	0.575442
C35	C	1.522587	-0.930172	0.510391
N36	N	1.469038	-0.822280	0.456811
N37	N	1.527047	-0.855035	0.514892
C38	C	1.771992	-0.339022	0.485813
C39	C	1.888769	-0.339026	0.485822
C40	C	1.498042	-0.338945	0.759830
C41	C	1.498078	-0.338917	0.876608
C42	C	1.509113	-0.155424	0.496874
C43	C	1.513866	-0.077189	0.501597
C44	C	1.497941	-0.339030	0.212824
C45	C	1.498121	-0.338860	0.096058
C46	C	1.568014	-0.293893	0.934195
C47	C	1.568034	-0.293863	1.043921
C48	C	1.428177	-0.383885	1.038463
C49	C	1.428153	-0.383912	0.928739
H50	H	1.603681	-0.606822	0.591701
C51	C	1.108038	-0.433664	0.620954
N52	N	1.151251	-0.471003	0.674284
C53	C	0.877634	-0.433678	0.620980
N54	N	0.829954	-0.471031	0.674308
C55	C	1.644972	-0.244336	1.107261
N56	N	1.702925	-0.207029	1.154969
H57	H	1.371249	-0.420520	1.080922
H58	H	1.371195	-0.420574	0.881851
H59	H	0.903845	-0.257256	0.369055
H60	H	1.636121	-1.070233	0.624015
H61	H	1.359969	-0.607083	0.347679
C62	C	1.119365	-0.244362	0.350619
N63	N	1.167052	-0.207017	0.297284
H64	H	1.392418	-1.070493	0.379988
H65	H	1.595763	-0.740174	0.583722
C66	C	1.663875	-0.926345	0.651825
N67	N	1.721354	-0.895836	0.709349
H68	H	1.352055	-0.740447	0.339705
C69	C	1.644924	-0.244392	0.876855
N70	N	1.702851	-0.207103	0.833669
C71	C	1.381732	-0.926659	0.369406
N72	N	1.327855	-0.896274	0.315532
