data_functionalizedCrystal
_audit_creation_method	'MofGen! by Chris Wilmer'
_symmetry_space_group_name_H-M	'P1'
_symmetry_Int_Tables_number	1
_symmetry_cell_setting	triclinic
loop_
_symmetry_equiv_pos_as_xyz
  x,y,z
_cell_length_a	12.594516
_cell_length_b	11.169417
_cell_length_c	12.594509
_cell_angle_alpha	90.017667
_cell_angle_beta	89.972932
_cell_angle_gamma	89.980949
loop_
_atom_site_label
_atom_site_type_symbol
_atom_site_fract_x
_atom_site_fract_y
_atom_site_fract_z
Zn1	Zn	-0.423685	-1.834871	-0.601765
Zn2	Zn	0.076315	-1.334871	-0.101765
Zn3	Zn	-0.601695	-1.834741	-0.423790
Zn4	Zn	-0.101695	-1.334741	0.076210
Zn5	Zn	-0.423734	-1.634165	-0.423805
Zn6	Zn	0.076266	-1.134165	0.076195
Zn7	Zn	-0.601625	-1.634137	-0.601731
Zn8	Zn	-0.101625	-1.134137	-0.101731
O9	O	-0.512685	-1.734479	-0.512773
O10	O	-0.012685	-1.234479	-0.012773
O11	O	-0.447308	-2.002804	-0.578164
O12	O	0.052692	-1.502804	-0.078164
O13	O	-0.578138	-1.808091	-0.274846
O14	O	-0.078138	-1.308091	0.225154
O15	O	-0.274782	-1.660855	-0.447432
O16	O	0.225218	-1.160855	0.052568
O17	O	-0.578091	-2.002708	-0.447406
O18	O	-0.078091	-1.502708	0.052594
O19	O	-0.274746	-1.808313	-0.578178
O20	O	0.225254	-1.308313	-0.078178
O21	O	-0.447391	-1.660729	-0.274857
O22	O	0.052609	-1.160729	0.225143
O23	O	-0.447322	-1.466212	-0.447400
O24	O	0.052678	-0.966212	0.052600
O25	O	-0.577971	-1.660808	-0.750682
O26	O	-0.077971	-1.160808	-0.250682
O27	O	-0.578018	-1.466191	-0.578121
O28	O	-0.078018	-0.966191	-0.078121
O29	O	-0.447239	-1.808287	-0.750706
O30	O	0.052761	-1.308287	-0.250706
O31	O	-0.750632	-1.808064	-0.447374
O32	O	-0.250632	-1.308064	0.052626
O33	O	-0.750580	-1.660682	-0.578107
O34	O	-0.250580	-1.160682	-0.078107
C35	C	-0.789226	-1.734388	-0.512758
C36	C	-0.289226	-1.234388	-0.012758
C37	C	-0.907531	-1.734460	-0.512787
C38	C	-0.407531	-1.234460	-0.012787
C39	C	-0.512669	-1.422654	-0.512759
C40	C	-0.012669	-0.922654	-0.012759
C41	C	-0.512687	-1.289254	-0.512778
C42	C	-0.012687	-0.789254	-0.012778
C43	C	-1.047558	-1.654364	-0.583857
C44	C	-0.547558	-1.154364	-0.083857
C45	C	-0.976646	-1.763779	-0.609965
C46	C	-0.476646	-1.263779	-0.109965
C47	C	-0.976872	-1.625055	-0.486727
C48	C	-0.476872	-1.125055	0.013273
C49	C	-1.047404	-1.844129	-0.538986
C50	C	-0.547404	-1.344129	-0.038986
C51	C	-1.047637	-1.705331	-0.415702
C52	C	-0.547637	-1.205331	0.084298
C53	C	-0.976756	-1.814822	-0.441773
C54	C	-0.476756	-1.314822	0.058227
C55	C	-0.512592	-1.734559	-0.790394
C56	C	-0.012592	-1.234559	-0.290394
C57	C	-0.512552	-1.734593	-0.908699
C58	C	-0.012552	-1.234593	-0.408699
C59	C	-0.235064	-1.734602	-0.512811
C60	C	0.264936	-1.234602	-0.012811
C61	C	-0.116758	-1.734654	-0.512827
C62	C	0.383242	-1.234654	-0.012827
C63	C	-0.512702	-2.047521	-0.512787
C64	C	-0.012702	-1.547521	-0.012787
C65	C	-0.512709	-2.180921	-0.512793
C66	C	-0.012709	-1.680921	-0.012793
C67	C	-0.583616	-1.654405	-0.977939
C68	C	-0.083616	-1.154405	-0.477939
C69	C	-0.609621	-1.763916	-1.048724
C70	C	-0.109621	-1.263916	-0.548724
C71	C	-0.486483	-1.625168	-1.048714
C72	C	0.013517	-1.125168	-0.548714
C73	C	-0.538608	-1.844162	-0.977926
C74	C	-0.038608	-1.344162	-0.477926
C75	C	-0.415424	-1.705339	-0.977909
C76	C	0.084576	-1.205339	-0.477909
C77	C	-0.441392	-1.814926	-1.048662
C78	C	0.058608	-1.314926	-0.548662
C79	C	-0.512701	-1.734468	-0.236232
C80	C	-0.012701	-1.234468	0.263768
C81	C	-0.512441	-1.734666	-0.117927
C82	C	-0.012441	-1.234666	0.382073
H83	H	-0.945466	-1.788506	-0.692085
H84	H	-0.445466	-1.288506	-0.192085
O85	O	-0.306732	-1.672447	-0.936647
O86	O	0.193268	-1.172447	-0.436647
H87	H	-0.252698	-1.655223	-1.004589
H88	H	0.247302	-1.155223	-0.504589
H89	H	-1.078259	-1.936761	-0.561139
H90	H	-0.578259	-1.436761	-0.061139
H91	H	-0.945866	-1.882717	-0.381688
H92	H	-0.445866	-1.382717	0.118312
O93	O	-1.088978	-1.672536	-0.306958
O94	O	-0.588978	-1.172536	0.193042
H95	H	-1.059374	-1.738209	-0.247834
H96	H	-0.559374	-1.238209	0.252166
H97	H	-0.691712	-1.788699	-1.079829
H98	H	-0.191712	-1.288699	-0.579829
O99	O	-1.088749	-1.564642	-0.663495
O100	O	-0.588749	-1.064642	-0.163495
H101	H	-1.060312	-1.589195	-0.744041
H102	H	-0.560312	-1.089195	-0.244041
O103	O	-0.935889	-1.502380	-0.457450
O104	O	-0.435889	-1.002380	0.042550
H105	H	-0.964282	-1.435981	-0.516529
H106	H	-0.464282	-0.935981	-0.016529
O107	O	-0.663337	-1.564660	-0.936775
O108	O	-0.163337	-1.064660	-0.436775
H109	H	-0.743856	-1.589271	-0.965132
H110	H	-0.243856	-1.089271	-0.465132
O111	O	-0.567343	-1.966982	-0.936927
O112	O	-0.067343	-1.466982	-0.436927
H113	H	-0.567002	-1.966035	-0.848802
H114	H	-0.067002	-1.466035	-0.348802
H115	H	-0.381248	-1.882848	-1.079519
H116	H	0.118752	-1.382848	-0.579519
H117	H	-0.464480	-1.532598	-1.079808
H118	H	0.035520	-1.032598	-0.579808
