data_functionalizedCrystal
_audit_creation_method	'MofGen! by Chris Wilmer'
_symmetry_space_group_name_H-M	'P1'
_symmetry_Int_Tables_number	1
_symmetry_cell_setting	triclinic
loop_
_symmetry_equiv_pos_as_xyz
  x,y,z
_cell_length_a	17.038272
_cell_length_b	14.586319
_cell_length_c	16.109301
_cell_angle_alpha	90.003802
_cell_angle_beta	92.713430
_cell_angle_gamma	90.002130
loop_
_atom_site_label
_atom_site_type_symbol
_atom_site_fract_x
_atom_site_fract_y
_atom_site_fract_z
O1	O	1.037364	-0.076126	-0.180538
O2	O	0.809734	-0.076153	-0.177672
O3	O	0.929802	-0.076133	-0.058518
O4	O	0.917296	-0.076146	-0.299692
O5	O	0.929794	0.076348	-0.058516
O6	O	0.809725	0.076328	-0.177669
O7	O	1.037356	0.076355	-0.180536
Cu8	Cu	0.923540	0.090264	-0.179102
Cu9	Cu	0.923550	-0.090062	-0.179105
O10	O	0.917288	0.076335	-0.299689
C11	C	0.780601	0.000084	-0.175063
C12	C	0.693808	0.000074	-0.167284
N13	N	0.923539	0.217096	-0.179100
N14	N	0.923557	-0.216894	-0.179101
C15	C	0.643694	0.000071	-0.238705
C16	C	0.562143	0.000084	-0.231391
C17	C	0.530709	0.000093	-0.152655
C18	C	0.580830	0.000100	-0.081229
C19	C	0.662379	0.000093	-0.088544
C20	C	0.284951	0.000119	-0.126813
C21	C	0.203396	0.000123	-0.119503
C22	C	0.184715	0.000109	-0.269665
C23	C	0.266266	0.000097	-0.276973
C24	C	0.316380	0.000108	-0.205547
C25	C	0.447352	0.000104	-0.145177
C26	C	0.399736	0.000104	-0.213026
C27	C	1.066488	0.000116	-0.183145
C28	C	1.153281	0.000120	-0.190924
C29	C	0.929291	0.000107	-0.027506
C30	C	0.927773	0.000106	0.064897
C31	C	0.976723	0.452111	-0.126359
C32	C	0.976725	0.548092	-0.126357
C33	C	0.870368	0.548084	-0.231845
C34	C	0.870362	0.452104	-0.231842
C35	C	0.923544	0.404121	-0.179100
C36	C	0.923552	0.596081	-0.179101
C37	C	0.923554	0.700148	-0.179100
C38	C	0.923541	0.300047	-0.179100
C39	C	0.917798	0.000093	-0.330702
C40	C	0.919317	0.000088	-0.423105
C41	C	0.994054	0.000098	0.369188
C42	C	0.995488	0.000103	0.282366
C43	C	0.853031	0.000099	0.272610
C44	C	0.851597	0.000100	0.359430
C45	C	0.922111	0.000095	0.407717
C46	C	0.924979	0.000099	0.234075
C47	C	0.926534	0.000105	0.139938
C48	C	0.920556	0.000091	0.501860
H49	H	0.669281	0.000062	-0.302820
H50	H	0.827069	0.587162	-0.274787
H51	H	0.521343	0.000080	-0.289549
H52	H	0.555230	0.000121	-0.017121
C53	C	0.811863	0.399306	-0.289861
C54	C	0.753393	0.452081	-0.347908
C55	C	0.694895	0.399281	-0.405922
C56	C	0.694866	0.293708	-0.405887
C57	C	0.753338	0.240927	-0.347838
C58	C	0.811837	0.293727	-0.289825
H59	H	0.753413	0.530238	-0.347935
H60	H	0.651611	0.438353	-0.448894
H61	H	0.651563	0.254622	-0.448832
H62	H	0.753319	0.162770	-0.347811
H63	H	0.855121	0.254654	-0.246853
H64	H	1.054071	0.000107	0.251000
H65	H	0.325745	0.000129	-0.068652
C66	C	0.775470	0.000092	0.219491
C67	C	0.716513	-0.079092	0.227403
C68	C	0.638950	-0.079104	0.174285
C69	C	0.620344	0.000068	0.113255
C70	C	0.679303	0.079258	0.105339
C71	C	0.756865	0.079269	0.158457
H72	H	0.730284	-0.137705	0.272584
H73	H	0.595305	-0.137725	0.180145
H74	H	0.562927	0.000059	0.073933
H75	H	0.665531	0.137871	0.060158
H76	H	0.800510	0.137891	0.152598
H77	H	0.177806	0.000130	-0.055384
H78	H	0.703182	0.000095	-0.030385
H79	H	0.291853	0.000078	-0.341088
C80	C	0.772455	0.000095	0.401819
C81	C	0.694892	0.000089	0.348709
C82	C	0.615754	0.000088	0.391099
C83	C	0.614179	0.000093	0.486598
C84	C	0.691744	0.000100	0.539714
C85	C	0.770882	0.000100	0.497324
H86	H	0.696056	0.000085	0.278010
H87	H	0.558335	0.000083	0.351779
H88	H	0.555596	0.000093	0.517977
H89	H	0.690581	0.000104	0.610413
H90	H	0.828301	0.000105	0.536644
H91	H	1.051471	0.000094	0.408501
H92	H	1.020025	0.413045	-0.083413
H93	H	1.020027	0.587164	-0.083410
H94	H	0.425333	0.000101	-0.277132
C95	C	0.129588	0.000107	-0.348230
C96	C	0.070946	-0.079066	-0.363854
C97	C	0.015820	-0.079063	-0.442422
C98	C	0.019334	0.000112	-0.505366
C99	C	0.077978	0.079291	-0.489743
C100	C	0.133105	0.079289	-0.411175
H101	H	0.068342	-0.137682	-0.317258
H102	H	-0.027593	-0.137677	-0.453987
H103	H	-0.021474	0.000114	-0.563526
H104	H	0.080583	0.137907	-0.536339
H105	H	0.176518	0.137903	-0.399611
H106	H	0.421749	0.000138	-0.081070
