data_functionalizedCrystal
_audit_creation_method	'MofGen! by Chris Wilmer'
_symmetry_space_group_name_H-M	'P1'
_symmetry_Int_Tables_number	1
_symmetry_cell_setting	triclinic
loop_
_symmetry_equiv_pos_as_xyz
  x,y,z
_cell_length_a	14.044220
_cell_length_b	14.853567
_cell_length_c	13.330367
_cell_angle_alpha	89.993362
_cell_angle_beta	90.002608
_cell_angle_gamma	91.588096
loop_
_atom_site_label
_atom_site_type_symbol
_atom_site_fract_x
_atom_site_fract_y
_atom_site_fract_z
O1	O	-1.257997	0.217372	-0.083326
O2	O	-0.982018	0.209528	-0.083351
O3	O	-1.127379	0.082805	-0.083326
O4	O	-1.112636	0.344096	-0.083350
O5	O	-1.127358	0.082800	0.083521
O6	O	-0.981996	0.209524	0.083497
O7	O	-1.257976	0.217368	0.083522
Cu8	Cu	-1.119984	0.213445	0.098744
Cu9	Cu	-1.120009	0.213451	-0.098573
O10	O	-1.112614	0.344091	0.083497
C11	C	-0.946688	0.206092	0.000070
C12	C	-0.841449	0.195851	0.000061
C13	C	-1.126701	0.049161	0.000099
C14	C	-1.124699	-0.051082	0.000101
C15	C	-1.293306	0.220803	0.000099
C16	C	-1.398545	0.231045	0.000101
C17	C	-0.648763	0.177127	0.000082
C18	C	-0.591225	0.249765	0.000080
C19	C	-0.484008	0.239347	0.000092
C20	C	-0.755990	0.187544	0.000070
C21	C	-1.113293	0.377735	0.000070
C22	C	-1.115295	0.477978	0.000061
N23	N	-1.119974	0.213441	0.237525
C24	C	-1.210105	0.898023	0.000106
C25	C	-1.037412	0.905622	0.000089
C26	C	-1.035530	0.811439	0.000080
C27	C	-1.120937	0.760544	0.000085
C28	C	-1.208226	0.803831	0.000099
C29	C	-0.948243	0.768144	0.000075
C30	C	-0.946357	0.673956	0.000066
C31	C	-1.031765	0.623059	0.000064
C32	C	-1.119057	0.666352	0.000078
C33	C	-1.204464	0.615457	0.000083
C34	C	-1.291757	0.658748	0.000089
C35	C	-1.293633	0.752934	0.000097
C36	C	-1.029888	0.528873	0.000056
C37	C	-1.202584	0.521265	0.000076
N38	N	-1.120027	0.213448	-0.237354
C39	C	-1.055640	0.269540	0.710137
C40	C	-1.184404	0.157357	0.710127
C41	C	-1.184393	0.157353	0.605109
C42	C	-1.120006	0.213445	0.552600
C43	C	-1.055630	0.269540	0.605109
C44	C	-1.248775	0.101266	0.552591
C45	C	-1.248767	0.101261	0.447567
C46	C	-1.184375	0.157348	0.395056
C47	C	-1.119995	0.213445	0.447571
C48	C	-1.055608	0.269536	0.395062
C49	C	-0.991223	0.325629	0.447576
C50	C	-0.991237	0.325627	0.552598
C51	C	-1.184361	0.157350	0.290034
C52	C	-1.055597	0.269536	0.290034
H53	H	-0.622488	0.319778	0.000068
H54	H	-0.617501	0.107120	0.000095
H55	H	-1.272133	0.479832	0.000073
O56	O	-1.374631	0.609169	0.000051
C57	C	-1.448252	0.460692	0.000120
C58	C	-1.354332	0.516735	0.000139
H59	H	-1.431873	0.385948	0.000212
H60	H	-1.491223	0.477268	-0.069719
H61	H	-1.491198	0.477379	0.069931
H62	H	-1.311310	0.500078	-0.069625
H63	H	-1.311433	0.500150	0.070024
O64	O	-0.993144	0.324158	0.239076
C65	C	-0.937750	0.476436	0.206988
C66	C	-1.008545	0.414683	0.264740
H67	H	-0.950164	0.549637	0.227732
H68	H	-0.948800	0.466886	0.122892
H69	H	-0.861822	0.458489	0.227637
H70	H	-1.084501	0.432591	0.244175
H71	H	-0.997413	0.424243	0.348822
H72	H	-1.364703	0.788191	0.000129
O73	O	-0.928645	0.380200	0.396720
C74	C	-0.800886	0.491431	0.407787
C75	C	-0.871715	0.429691	0.465511
H76	H	-0.754827	0.531446	0.463380
H77	H	-0.841821	0.539846	0.358639
H78	H	-0.753529	0.448652	0.358597
H79	H	-0.919091	0.472397	0.514756
H80	H	-0.830721	0.381271	0.514596
O81	O	-1.294816	0.940213	0.000158
C82	C	-1.374258	1.081939	0.000105
C83	C	-1.278257	1.034274	0.000070
H84	H	-1.360903	1.157994	0.000013
H85	H	-1.416473	1.061603	0.069950
H86	H	-1.416474	1.061497	-0.069700
H87	H	-1.235964	1.054691	0.069828
H88	H	-1.236114	1.054611	-0.069822
H89	H	-1.236830	0.111693	0.752883
O90	O	-0.954480	0.955099	-0.000091
C91	C	-0.856425	1.065914	-0.086497
C92	C	-0.950374	1.009916	-0.086427
H93	H	-0.853083	1.110262	-0.156281
H94	H	-0.793676	1.018840	-0.086574
H95	H	-0.852993	1.110146	-0.016634
H96	H	-0.953899	0.965679	-0.156278
H97	H	-1.013079	1.057041	-0.086297
O98	O	-0.865312	0.817624	-0.000104
C99	C	-0.767258	0.928438	-0.086514
C100	C	-0.861203	0.872434	-0.086446
H101	H	-0.763914	0.972779	-0.156303
H102	H	-0.704506	0.881367	-0.086581
H103	H	-0.763834	0.972675	-0.016656
H104	H	-0.864720	0.828191	-0.156292
H105	H	-0.923911	0.919555	-0.086327
O106	O	-0.928796	0.380091	0.603765
C107	C	-0.871724	0.429775	0.765564
C108	C	-0.942498	0.368065	0.707739
H109	H	-0.882764	0.420061	0.849638
H110	H	-0.884167	0.503012	0.744976
H111	H	-0.795789	0.411892	0.744877
H112	H	-1.018460	0.385868	0.728395
H113	H	-0.929972	0.294845	0.728333
H114	H	-0.875277	0.638716	0.000058
O115	O	-0.945021	0.486963	0.000004
C116	C	-0.773929	0.504444	0.000056
C117	C	-0.869980	0.552021	0.000096
H118	H	-0.713234	0.557023	0.000152
H119	H	-0.768673	0.460582	-0.069792
H120	H	-0.768777	0.460497	0.069859
H121	H	-0.875197	0.596015	-0.069659
H122	H	-0.875195	0.595829	0.069990
H123	H	-1.003216	0.315207	0.752896
O124	O	-1.311226	0.046811	0.603752
C125	C	-1.368339	-0.002864	0.765547
C126	C	-1.297545	0.058838	0.707728
H127	H	-1.357317	0.006852	0.849621
H128	H	-1.355900	-0.076103	0.744984
H129	H	-1.444267	0.015027	0.744829
H130	H	-1.221591	0.041027	0.728415
H131	H	-1.310068	0.132060	0.728295
O132	O	-1.311337	0.046686	0.396715
C133	C	-1.439090	-0.064550	0.407798
C134	C	-1.368270	-0.002802	0.465513
H135	H	-1.485152	-0.104563	0.463396
H136	H	-1.398148	-0.112968	0.358675
H137	H	-1.486446	-0.021778	0.358583
H138	H	-1.320896	-0.045502	0.514783
H139	H	-1.409271	0.045620	0.514573
H140	H	-1.236786	0.111684	0.247282
