data_functionalizedCrystal
_audit_creation_method	'MofGen! by Chris Wilmer'
_symmetry_space_group_name_H-M	'P1'
_symmetry_Int_Tables_number	1
_symmetry_cell_setting	triclinic
loop_
_symmetry_equiv_pos_as_xyz
  x,y,z
_cell_length_a	14.519710
_cell_length_b	10.654550
_cell_length_c	13.596369
_cell_angle_alpha	89.994113
_cell_angle_beta	90.000021
_cell_angle_gamma	95.917462
loop_
_atom_site_label
_atom_site_type_symbol
_atom_site_fract_x
_atom_site_fract_y
_atom_site_fract_z
O1	O	1.224716	-0.164626	0.081770
O2	O	1.724716	0.335374	0.581770
O3	O	0.956340	-0.184013	0.081776
O4	O	1.456340	0.315987	0.581776
O5	O	1.096698	0.008479	0.081767
O6	O	1.596698	0.508479	0.581767
O7	O	1.084357	-0.357118	0.081779
O8	O	1.584357	0.142882	0.581779
O9	O	1.096696	0.008491	-0.081816
O10	O	1.596696	0.508491	0.418184
O11	O	0.956337	-0.184001	-0.081807
O12	O	1.456337	0.315999	0.418193
O13	O	1.224714	-0.164614	-0.081813
O14	O	1.724714	0.335386	0.418187
Zn15	Zn	1.090525	-0.174305	-0.107782
Zn16	Zn	1.590525	0.325695	0.392218
Zn17	Zn	1.090528	-0.174321	0.107745
Zn18	Zn	1.590528	0.325679	0.607745
O19	O	1.084355	-0.357106	-0.081804
O20	O	1.584355	0.142894	0.418196
C21	C	0.921974	-0.183103	-0.000014
C22	C	1.421974	0.316897	0.499986
C23	C	0.819579	-0.180396	-0.000012
C24	C	1.319579	0.319604	0.499988
C25	C	1.259079	-0.165524	-0.000020
C26	C	1.759079	0.334476	0.499980
C27	C	1.361475	-0.168231	-0.000016
C28	C	1.861475	0.331769	0.499984
C29	C	1.095791	0.055275	-0.000024
C30	C	1.595791	0.555275	0.499976
C31	C	1.093080	0.194692	-0.000023
C32	C	1.593080	0.694692	0.499977
C33	C	1.736422	-0.178198	-0.000016
C34	C	2.236422	0.321802	0.499984
C35	C	1.632100	-0.175430	-0.000016
C36	C	2.132100	0.324570	0.499984
C37	C	1.548952	-0.173215	-0.000015
C38	C	2.048952	0.326785	0.499985
C39	C	1.444623	-0.170446	-0.000017
C40	C	1.944623	0.329554	0.499983
C41	C	1.085262	-0.403901	-0.000011
C42	C	1.585262	0.096099	0.499989
C43	C	1.087973	-0.543318	-0.000006
C44	C	1.587973	-0.043318	0.499994
N45	N	1.090530	-0.174294	-0.254874
N46	N	1.590530	0.325706	0.245126
C47	C	1.175721	0.274972	-0.000024
C48	C	1.675721	0.774972	0.499976
C49	C	1.173168	0.405968	-0.000012
C50	C	1.673168	0.905968	0.499988
C51	C	1.005326	0.376391	-0.000001
C52	C	1.505326	0.876391	0.499999
C53	C	1.007880	0.245397	-0.000006
C54	C	1.507880	0.745397	0.499994
N55	N	1.090531	-0.174323	0.254837
N56	N	1.590531	0.325677	0.754837
C57	C	1.090526	-0.174309	0.656128
C58	C	1.590526	0.325691	1.156128
C59	C	1.090524	-0.174317	0.544477
C60	C	1.590524	0.325683	1.044477
C61	C	1.090528	-0.174316	0.455486
C62	C	1.590528	0.325684	0.955486
C63	C	1.090527	-0.174324	0.343828
C64	C	1.590527	0.325676	0.843828
H65	H	1.240463	0.471328	-0.000012
H66	H	1.740463	0.971328	0.499988
C67	C	0.913384	0.080915	0.084092
C68	C	1.413384	0.580915	0.584092
C69	C	0.917033	0.157144	-0.000001
C70	C	1.417033	0.657144	0.499999
H71	H	0.857298	0.026439	0.084099
H72	H	1.357298	0.526439	0.584099
H73	H	0.964483	0.031975	0.084079
H74	H	1.464483	0.531975	0.584079
H75	H	0.915880	0.132639	0.141130
H76	H	1.415880	0.632639	0.641130
H77	H	0.914543	0.105421	-0.057039
H78	H	1.414543	0.605421	0.442961
H79	H	0.865919	0.206089	0.000003
H80	H	1.365919	0.706089	0.500003
C81	C	1.275971	0.144843	-0.084128
C82	C	1.775971	0.644843	0.415872
C83	C	1.269373	0.219238	-0.000032
C84	C	1.769373	0.719238	0.499968
H85	H	1.333793	0.110447	-0.084131
H86	H	1.833793	0.610447	0.415869
H87	H	1.227128	0.078284	-0.084123
H88	H	1.727128	0.578284	0.415877
H89	H	1.271484	0.195355	-0.141164
H90	H	1.771484	0.695355	0.358836
H91	H	1.273853	0.168724	0.057004
H92	H	1.773853	0.668724	0.557004
H93	H	1.318230	0.285806	-0.000029
H94	H	1.818230	0.785806	0.499971
C95	C	0.926885	0.564064	-0.000001
C96	C	1.426885	1.064064	0.499999
C97	C	0.911677	0.432132	0.000003
C98	C	1.411677	0.932132	0.500003
H99	H	0.869068	0.598470	-0.000007
H100	H	1.369068	1.098470	0.499993
H101	H	0.960941	0.591592	0.057041
H102	H	1.460941	1.091592	0.557041
H103	H	0.960949	0.591602	-0.057050
H104	H	1.460949	1.091602	0.442950
H105	H	0.877619	0.404593	0.057056
H106	H	1.377619	0.904593	0.557056
H107	H	0.877607	0.404593	-0.057044
H108	H	1.377607	0.904593	0.442956
