data_functionalizedCrystal
_audit_creation_method	'MofGen! by Chris Wilmer'
_symmetry_space_group_name_H-M	'P1'
_symmetry_Int_Tables_number	1
_symmetry_cell_setting	triclinic
loop_
_symmetry_equiv_pos_as_xyz
  x,y,z
_cell_length_a	12.759401
_cell_length_b	18.050590
_cell_length_c	12.759393
_cell_angle_alpha	89.965321
_cell_angle_beta	89.980324
_cell_angle_gamma	90.018979
loop_
_atom_site_label
_atom_site_type_symbol
_atom_site_fract_x
_atom_site_fract_y
_atom_site_fract_z
Zn1	Zn	1.606238	-0.295615	-0.593954
Zn2	Zn	2.106238	0.204385	-0.093954
Zn3	Zn	1.606117	-0.419823	-0.418261
Zn4	Zn	2.106117	0.080177	0.081739
Zn5	Zn	1.430537	-0.295652	-0.418293
Zn6	Zn	1.930537	0.204348	0.081707
Zn7	Zn	1.430517	-0.419769	-0.593903
Zn8	Zn	1.930517	0.080231	-0.093903
O9	O	1.518352	-0.357715	-0.506103
O10	O	2.018352	0.142285	-0.006103
O11	O	1.753243	-0.312099	-0.570656
O12	O	2.253243	0.187901	-0.070656
O13	O	1.582784	-0.403390	-0.271245
O14	O	2.082784	0.096610	0.228755
O15	O	1.453903	-0.191723	-0.441630
O16	O	1.953903	0.308277	0.058370
O17	O	1.753155	-0.403354	-0.441576
O18	O	2.253155	0.096646	0.058424
O19	O	1.582990	-0.191695	-0.570687
O20	O	2.082990	0.308305	-0.070687
O21	O	1.453786	-0.312162	-0.271268
O22	O	1.953786	0.187838	0.228732
O23	O	1.283513	-0.312109	-0.441580
O24	O	1.783513	0.187891	0.058420
O25	O	1.453869	-0.403261	-0.740931
O26	O	1.953869	0.096739	-0.240931
O27	O	1.283499	-0.403297	-0.570599
O28	O	1.783499	0.096703	-0.070599
O29	O	1.582971	-0.312046	-0.740968
O30	O	2.082971	0.187954	-0.240968
O31	O	1.582765	-0.523740	-0.441526
O32	O	2.082765	-0.023740	0.058474
O33	O	1.453752	-0.523700	-0.570568
O34	O	1.953752	-0.023700	-0.070568
C35	C	1.245385	-0.357702	-0.506088
C36	C	1.745385	0.142298	-0.006088
C37	C	1.128608	-0.357714	-0.506107
C38	C	1.628608	0.142286	-0.006107
C39	C	1.073793	-0.310284	-0.573423
C40	C	1.573793	0.189716	-0.073423
C41	C	0.964069	-0.310291	-0.573429
C42	C	1.464069	0.189709	-0.073429
C43	C	0.963985	-0.405166	-0.438802
C44	C	1.463985	0.094834	0.061198
C45	C	1.073707	-0.405155	-0.438790
C46	C	1.573707	0.094845	0.061210
C47	C	1.518272	-0.550667	-0.506061
C48	C	2.018272	-0.050667	-0.006061
C49	C	1.518333	-0.633213	-0.506078
C50	C	2.018333	-0.133213	-0.006078
C51	C	1.588636	-0.832658	-0.436003
C52	C	2.088636	-0.332658	0.063997
C53	C	1.614306	-0.881983	-0.531889
C54	C	2.114306	-0.381983	-0.031889
C55	C	1.518393	-0.784343	-0.506120
C56	C	2.018393	-0.284343	-0.006120
C57	C	1.492831	-0.882100	-0.410277
C58	C	1.992831	-0.382100	0.089723
C59	C	1.518452	-0.930328	-0.506152
C60	C	2.018452	-0.430328	-0.006152
C61	C	1.544111	-0.832581	-0.602057
C62	C	2.044111	-0.332581	-0.102057
C63	C	1.422592	-0.832693	-0.480380
C64	C	1.922592	-0.332693	0.019620
C65	C	1.448224	-0.881996	-0.576332
C66	C	1.948224	-0.381996	-0.076332
C67	C	1.518361	-0.700245	-0.506100
C68	C	2.018361	-0.200245	-0.006100
C69	C	1.518484	-1.014425	-0.506183
C70	C	2.018484	-0.514425	-0.006183
C71	C	1.792386	-0.357728	-0.506118
C72	C	2.292386	0.142272	-0.006118
C73	C	1.909162	-0.357734	-0.506125
C74	C	2.409162	0.142266	-0.006125
C75	C	1.518431	-0.357643	-0.780136
C76	C	2.018431	0.142357	-0.280136
C77	C	1.518465	-0.357613	-0.896913
C78	C	2.018465	0.142387	-0.396913
C79	C	1.518462	-0.164009	-0.506168
C80	C	2.018462	0.335991	-0.006168
C81	C	1.518509	-0.081463	-0.506196
C82	C	2.018509	0.418537	-0.006196
C83	C	1.585693	-0.310110	-0.951796
C84	C	2.085693	0.189890	-0.451796
C85	C	1.585711	-0.310078	-1.061521
C86	C	2.085711	0.189922	-0.561521
C87	C	1.451269	-0.405059	-1.061468
C88	C	1.951269	0.094941	-0.561468
C89	C	1.451247	-0.405086	-0.951746
C90	C	1.951247	0.094914	-0.451746
C91	C	1.518335	-0.357732	-0.233135
C92	C	2.018335	0.142268	0.266865
C93	C	1.518505	-0.357553	-0.116359
C94	C	2.018505	0.142447	0.383641
H95	H	1.118339	-0.443779	-0.383968
H96	H	1.618339	0.056221	0.116032
O97	O	1.378773	-0.456262	-1.120608
O98	O	1.878773	0.043738	-0.620608
H99	H	1.390087	-0.448268	-1.206126
H100	H	1.890087	0.051732	-0.706126
H101	H	1.640453	-0.271395	-1.106202
H102	H	2.140453	0.228605	-0.606202
H103	H	1.388847	-0.903523	-0.635711
H104	H	1.888847	-0.403523	-0.135711
H105	H	1.471186	-0.903850	-0.329210
H106	H	1.971186	-0.403850	0.170790
O107	O	1.315278	-0.803975	-0.451481
O108	O	1.815278	-0.303975	0.048519
H109	H	1.294210	-0.823771	-0.371835
H110	H	1.794210	-0.323771	0.128165
O111	O	1.658180	-0.258904	-0.892650
O112	O	2.158180	0.241096	-0.392650
H113	H	1.704923	-0.225862	-0.949252
H114	H	2.204923	0.274138	-0.449252
H115	H	1.648059	-0.810994	-0.376768
H116	H	2.148059	-0.310994	0.123232
O117	O	1.378703	-0.456303	-0.892538
O118	O	1.878703	0.043697	-0.392538
H119	H	1.331965	-0.489309	-0.949098
H120	H	1.831965	0.010691	-0.449098
O121	O	1.721650	-0.910668	-0.560768
O122	O	2.221650	-0.410668	-0.060768
H123	H	1.779798	-0.890912	-0.502442
H124	H	2.279798	-0.390912	-0.002442
O125	O	1.572905	-0.803916	-0.709483
O126	O	2.072905	-0.303916	-0.209483
H127	H	1.644947	-0.769671	-0.703823
H128	H	2.144947	-0.269671	-0.203823
O129	O	1.133014	-0.259109	-0.646009
O130	O	1.633014	0.240891	-0.146009
H131	H	1.076459	-0.226122	-0.692809
H132	H	1.576459	0.273878	-0.192809
O133	O	0.904943	-0.259133	-0.646031
O134	O	1.404943	0.240867	-0.146031
H135	H	0.926024	-0.271943	-0.728455
H136	H	1.426024	0.228057	-0.228455
O137	O	0.904772	-0.456337	-0.366202
O138	O	1.404772	0.043663	0.133798
H139	H	0.819266	-0.448382	-0.377524
H140	H	1.319266	0.051618	0.122476
