data_functionalizedCrystal
_audit_creation_method	'MofGen! by Chris Wilmer'
_symmetry_space_group_name_H-M	'P1'
_symmetry_Int_Tables_number	1
_symmetry_cell_setting	triclinic
loop_
_symmetry_equiv_pos_as_xyz
  x,y,z
_cell_length_a	8.497374
_cell_length_b	12.759401
_cell_length_c	12.759400
_cell_angle_alpha	89.985155
_cell_angle_beta	89.991978
_cell_angle_gamma	90.000368
loop_
_atom_site_label
_atom_site_type_symbol
_atom_site_fract_x
_atom_site_fract_y
_atom_site_fract_z
Zn1	Zn	0.891904	1.606068	0.418444
Zn2	Zn	0.628108	1.606017	0.594091
Zn3	Zn	0.628137	1.430425	0.418427
Zn4	Zn	0.891846	1.430358	0.594082
O5	O	0.759999	1.518217	0.506261
O6	O	0.856923	1.753082	0.441755
O7	O	0.407350	1.582732	0.570785
O8	O	0.663163	1.453773	0.271408
O9	O	0.663113	1.753045	0.570802
O10	O	0.856951	1.582817	0.271421
O11	O	0.407371	1.453725	0.441725
O12	O	0.663107	1.283395	0.441717
O13	O	1.112616	1.453659	0.570787
O14	O	0.856853	1.283346	0.570770
O15	O	1.112658	1.582752	0.441746
O16	O	0.663058	1.582667	0.741110
O17	O	0.856824	1.453611	0.741104
C18	C	0.759978	1.245250	0.506241
C19	C	0.760006	1.128473	0.506258
C20	C	0.860722	1.073613	0.573564
C21	C	0.860739	0.963889	0.573577
C22	C	0.659310	0.963895	0.438977
C23	C	0.659302	1.073617	0.438959
C24	C	0.977011	1.073609	0.651278
C25	C	0.977028	0.963885	0.651291
C26	C	0.759966	1.518155	0.779228
C27	C	0.760005	1.518224	0.896005
C28	C	1.171479	1.518209	0.506262
C29	C	1.350123	1.518212	0.506274
C30	C	0.760021	1.792250	0.506281
C31	C	0.760031	1.909027	0.506290
C32	C	0.760066	1.518308	0.232228
C33	C	0.760095	1.518347	0.115451
C34	C	0.659222	1.585498	0.950835
C35	C	0.659270	1.585563	1.060559
C36	C	0.860889	1.451070	1.060613
C37	C	0.860847	1.451012	0.950891
C38	C	0.542814	1.663143	0.950805
C39	C	0.542862	1.663208	1.060529
H40	H	0.944096	0.934096	0.732632
O41	O	0.958689	1.385814	1.114093
C42	C	1.048189	1.326349	1.283149
C43	C	0.937324	1.400290	1.222717
H44	H	1.030978	1.338043	1.370982
H45	H	1.020369	1.241613	1.261733
H46	H	1.175392	1.344706	1.261460
H47	H	0.810084	1.382028	1.244373
H48	H	0.965280	1.485004	1.244138
H49	H	0.933039	1.107632	0.728518
H50	H	0.942927	1.396242	0.906249
H51	H	0.586726	1.740503	1.094486
H52	H	0.575625	1.744480	0.920956
O53	O	0.404172	1.628454	0.910432
C54	C	0.143772	1.563182	0.946966
C55	C	0.300686	1.602471	0.992829
H56	H	0.060072	1.542143	1.013561
H57	H	0.088920	1.627380	0.896681
H58	H	0.166207	1.490861	0.896690
H59	H	0.278385	1.674773	1.043152
H60	H	0.355489	1.538209	1.043054
H61	H	0.577299	1.118280	0.384145
H62	H	1.099249	1.103391	0.629612
H63	H	0.420664	1.641496	1.090358
H64	H	0.577322	0.919217	0.384183
H65	H	1.093178	0.929862	0.622279
