data_functionalizedCrystal
_audit_creation_method	'MofGen! by Chris Wilmer'
_symmetry_space_group_name_H-M	'P1'
_symmetry_Int_Tables_number	1
_symmetry_cell_setting	triclinic
loop_
_symmetry_equiv_pos_as_xyz
  x,y,z
_cell_length_a	11.026607
_cell_length_b	10.066323
_cell_length_c	10.967953
_cell_angle_alpha	86.903886
_cell_angle_beta	83.620047
_cell_angle_gamma	100.707942
loop_
_atom_site_label
_atom_site_type_symbol
_atom_site_fract_x
_atom_site_fract_y
_atom_site_fract_z
O1	O	1.615963	0.009352	-0.522312
O2	O	1.260042	-0.004265	-0.464421
O3	O	1.439774	-0.038520	-0.318742
O4	O	1.436232	0.043607	-0.667992
O5	O	1.474084	0.181907	-0.290898
O6	O	1.294352	0.216162	-0.436578
O7	O	1.650273	0.229779	-0.494469
Zn8	Zn	1.477760	0.257968	-0.461103
Zn9	Zn	1.432555	-0.032454	-0.497787
O10	O	1.470541	0.264033	-0.640149
C11	C	1.231504	0.103437	-0.439820
C12	C	1.095352	0.095948	-0.407983
N13	N	1.508620	0.456173	-0.436068
N14	N	1.401705	-0.230661	-0.522815
C15	C	1.025516	0.116619	-0.495891
C16	C	0.884795	0.108880	-0.462988
C17	C	1.678811	0.122074	-0.519070
C18	C	1.814962	0.129554	-0.550909
C19	C	1.467048	0.689068	-0.469808
C20	C	1.443267	0.536443	-0.489082
C21	C	1.454079	0.061014	-0.259414
C22	C	1.445574	0.029189	-0.124114
C23	C	1.456236	0.164497	-0.699477
C24	C	1.464740	0.196313	-0.834777
C25	C	1.450761	0.096314	0.090473
C26	C	1.459555	0.129202	-0.049366
H27	H	1.069908	0.140052	-0.595510
H28	H	0.859347	0.152990	-0.650534
H29	H	0.840405	0.085419	-0.363366
C30	C	1.035395	0.064295	-0.273404
H31	H	0.948678	0.063234	-0.268946
H32	H	1.072216	0.131919	-0.224405
H33	H	1.048287	-0.021822	-0.243840
H34	H	1.540603	0.733335	-0.410163
H35	H	1.369717	0.492182	-0.548741
C36	C	1.425834	-0.052237	0.143855
H37	H	1.418224	-0.110710	0.078823
H38	H	1.350956	-0.070316	0.199040
H39	H	1.492977	-0.067338	0.186618
C40	C	1.607981	0.515953	-0.355475
H41	H	1.610926	0.610689	-0.353083
H42	H	1.686859	0.500519	-0.389202
H43	H	1.587438	0.473542	-0.274405
H44	H	1.328160	0.725072	-0.582470
C45	C	1.484514	0.277759	-0.102751
H46	H	1.487141	0.280376	-0.189735
H47	H	1.561895	0.323738	-0.081930
H48	H	1.419882	0.320806	-0.069537
C49	C	1.420607	-0.119371	-0.070738
H50	H	1.412984	-0.177842	-0.135771
H51	H	1.345721	-0.137421	-0.015564
H52	H	1.487732	-0.134505	-0.027963
H53	H	1.483226	0.306273	0.125691
