data_functionalizedCrystal
_audit_creation_method	'MofGen! by Chris Wilmer'
_symmetry_space_group_name_H-M	'P1'
_symmetry_Int_Tables_number	1
_symmetry_cell_setting	triclinic
loop_
_symmetry_equiv_pos_as_xyz
  x,y,z
_cell_length_a	23.532407
_cell_length_b	23.532407
_cell_length_c	10.868271
_cell_angle_alpha	89.990218
_cell_angle_beta	90.001021
_cell_angle_gamma	82.848678
loop_
_atom_site_label
_atom_site_type_symbol
_atom_site_fract_x
_atom_site_fract_y
_atom_site_fract_z
O1	O	0.755259	0.069135	-0.102181
O2	O	1.255259	0.569135	0.397819
O3	O	0.589396	0.079138	-0.102219
O4	O	1.089396	0.579138	0.397781
O5	O	0.677329	-0.008795	-0.102176
O6	O	1.177329	0.491205	0.397824
O7	O	0.667326	0.157068	-0.102224
O8	O	1.167326	0.657068	0.397776
O9	O	0.677322	-0.008798	0.102468
O10	O	1.177322	0.491202	0.602468
O11	O	0.589389	0.079135	0.102426
O12	O	1.089389	0.579135	0.602426
O13	O	0.755252	0.069132	0.102464
O14	O	1.255252	0.569132	0.602464
Zn15	Zn	0.672319	0.074133	0.134936
Zn16	Zn	1.172319	0.574133	0.634936
Zn17	Zn	0.672329	0.074137	-0.134692
Zn18	Zn	1.172329	0.574137	0.365308
O19	O	0.667319	0.157065	0.102421
O20	O	1.167319	0.657065	0.602421
C21	C	0.568176	0.078882	0.000099
C22	C	1.068176	0.578882	0.500099
C23	C	0.504959	0.078116	0.000085
C24	C	1.004959	0.578116	0.500085
C25	C	0.105856	0.125350	0.000128
C26	C	0.605856	0.625350	0.500128
C27	C	0.046456	0.124638	0.000135
C28	C	0.546456	0.624638	0.500135
O29	O	0.009711	0.168424	0.000168
O30	O	0.509711	0.668424	0.500168
N31	N	0.023830	0.072362	0.000148
N32	N	0.523830	0.572362	0.500148
C33	C	0.060607	0.020794	0.000166
C34	C	0.560607	0.520794	0.500166
O35	O	0.035908	-0.023737	0.000179
O36	O	0.535908	0.476263	0.500179
C37	C	0.120006	0.021506	0.000167
C38	C	0.620006	0.521506	0.500167
C39	C	0.142629	0.073785	0.000142
C40	C	0.642629	0.573785	0.500142
C41	C	0.128479	0.177625	0.000104
C42	C	0.628479	0.677625	0.500104
C43	C	0.187876	0.178336	0.000094
C44	C	0.687876	0.678336	0.500094
C45	C	0.224649	0.126772	0.000108
C46	C	0.724649	0.626772	0.500108
C47	C	0.202025	0.074496	0.000132
C48	C	0.702025	0.574496	0.500132
C49	C	0.156783	-0.030062	0.000193
C50	C	0.656783	0.469938	0.500193
C51	C	0.216185	-0.029345	0.000195
C52	C	0.716185	0.470655	0.500195
C53	C	0.238808	0.022934	0.000170
C54	C	0.738808	0.522934	0.500170
C55	C	0.298194	0.023643	0.000136
C56	C	0.798194	0.523643	0.500136
N57	N	0.320820	0.075920	0.000123
N58	N	0.820820	0.575920	0.500123
C59	C	0.284048	0.127484	0.000109
C60	C	0.784048	0.627484	0.500109
C61	C	-0.064135	0.019302	0.000166
C62	C	0.435865	0.519302	0.500166
C63	C	-0.123533	0.018589	0.000156
C64	C	0.376467	0.518589	0.500156
C65	C	-0.137680	0.122434	0.000128
C66	C	0.362320	0.622434	0.500128
C67	C	-0.078281	0.123146	0.000129
C68	C	0.421719	0.623146	0.500129
C69	C	-0.041509	0.071578	0.000153
C70	C	0.458491	0.571578	0.500153
C71	C	0.408784	0.128974	0.000087
C72	C	0.908784	0.628974	0.500087
C73	C	0.468186	0.129680	0.000071
C74	C	0.968186	0.629680	0.500071
C75	C	0.482329	0.025836	0.000106
C76	C	0.982329	0.525836	0.500106
C77	C	0.422932	0.025129	0.000115
C78	C	0.922932	0.525129	0.500115
C79	C	0.386160	0.076702	0.000109
C80	C	0.886160	0.576702	0.500109
O81	O	0.334974	-0.020119	0.000108
O82	O	0.834974	0.479881	0.500108
O83	O	0.308755	0.172007	0.000112
O84	O	0.808755	0.672007	0.500112
C85	C	0.677071	-0.030013	0.000149
C86	C	1.177071	0.469987	0.500149
C87	C	0.676305	-0.093230	0.000158
C88	C	1.176305	0.406770	0.500158
C89	C	0.723539	-0.492333	0.000102
C90	C	1.223539	0.007667	0.500102
C91	C	0.722827	-0.551733	0.000092
C92	C	1.222827	-0.051733	0.500092
O93	O	0.766613	-0.588478	0.000057
O94	O	1.266613	-0.088478	0.500057
N95	N	0.670551	-0.574359	0.000081
N96	N	1.170551	-0.074359	0.500081
C97	C	0.618983	-0.537582	0.000067
C98	C	1.118983	-0.037582	0.500067
O99	O	0.574452	-0.562281	0.000056
O100	O	1.074452	-0.062281	0.500056
C101	C	0.619695	-0.478182	0.000068
C102	C	1.119695	0.021818	0.500068
C103	C	0.671974	-0.455560	0.000091
C104	C	1.171974	0.044440	0.500091
C105	C	0.775814	-0.469710	0.000124
C106	C	1.275814	0.030290	0.500124
C107	C	0.776525	-0.410313	0.000136
C108	C	1.276525	0.089687	0.500136
C109	C	0.724961	-0.373540	0.000125
C110	C	1.224961	0.126460	0.500125
C111	C	0.672685	-0.396164	0.000103
C112	C	1.172685	0.103836	0.500103
C113	C	0.568127	-0.441406	0.000045
C114	C	1.068127	0.058594	0.500045
C115	C	0.568844	-0.382004	0.000045
C116	C	1.068844	0.117996	0.500045
C117	C	0.621123	-0.359381	0.000068
C118	C	1.121123	0.140619	0.500068
C119	C	0.621832	-0.299995	0.000105
C120	C	1.121832	0.200005	0.500105
N121	N	0.674109	-0.277368	0.000116
N122	N	1.174109	0.222632	0.500116
C123	C	0.725673	-0.314141	0.000126
C124	C	1.225673	0.185859	0.500126
C125	C	0.617491	-0.662324	0.000063
C126	C	1.117491	-0.162324	0.500063
C127	C	0.616778	-0.721722	0.000072
C128	C	1.116778	-0.221722	0.500072
C129	C	0.720623	-0.735869	0.000094
C130	C	1.220623	-0.235869	0.500094
C131	C	0.721335	-0.676470	0.000095
C132	C	1.221335	-0.176470	0.500095
C133	C	0.669767	-0.639698	0.000075
C134	C	1.169767	-0.139698	0.500075
C135	C	0.727163	-0.189405	0.000152
C136	C	1.227163	0.310595	0.500152
C137	C	0.727869	-0.130003	0.000169
C138	C	1.227869	0.369997	0.500169
C139	C	0.624025	-0.115860	0.000139
C140	C	1.124025	0.384140	0.500139
C141	C	0.623318	-0.175257	0.000129
C142	C	1.123318	0.324743	0.500129
C143	C	0.674891	-0.212029	0.000131
C144	C	1.174891	0.287971	0.500131
O145	O	0.578070	-0.263215	0.000135
O146	O	1.078070	0.236785	0.500135
O147	O	0.770196	-0.289433	0.000121
O148	O	1.270196	0.210567	0.500121
C149	C	0.776472	0.069388	0.000143
C150	C	1.276472	0.569388	0.500143
C151	C	0.839689	0.070154	0.000148
C152	C	1.339689	0.570154	0.500148
C153	C	0.667577	0.178283	0.000093
C154	C	1.167577	0.678283	0.500093
C155	C	0.668343	0.241500	0.000075
C156	C	1.168343	0.741500	0.500075
N157	N	0.672317	0.074129	0.318950
N158	N	1.172317	0.574129	0.818950
N159	N	0.672336	0.074136	-0.318706
N160	N	1.172336	0.574136	0.181294
C161	C	0.672326	0.074136	0.569956
C162	C	1.172326	0.574136	1.069956
C163	C	0.672319	0.074134	0.430279
C164	C	1.172319	0.574134	0.930279
H165	H	0.378851	0.170970	0.000086
H166	H	0.878851	0.670970	0.500086
H167	H	0.525555	-0.459814	0.000018
H168	H	1.025555	0.040186	0.500018
H169	H	-0.034198	-0.022693	0.000175
H170	H	0.465802	0.477307	0.500175
C171	C	0.131911	-0.087573	0.000226
C172	C	0.631911	0.412427	0.500226
C173	C	0.145928	-0.130303	0.106516
C174	C	0.645928	0.369697	0.606516
C175	C	0.121059	-0.187819	0.106550
C176	C	0.621059	0.312181	0.606550
C177	C	0.082173	-0.202604	0.000294
C178	C	0.582173	0.297396	0.500294
C179	C	0.068154	-0.159872	-0.106003
C180	C	0.568154	0.340128	0.393997
C181	C	0.093023	-0.102357	-0.106037
C182	C	0.593023	0.397643	0.393963
H183	H	0.174716	-0.119360	0.185180
H184	H	0.674716	0.380640	0.685180
H185	H	0.131438	-0.219451	0.185239
H186	H	0.631438	0.280549	0.685239
H187	H	0.063764	-0.245180	0.000319
H188	H	0.563764	0.254820	0.500319
H189	H	0.039367	-0.170816	-0.184667
H190	H	0.539367	0.329184	0.315333
H191	H	0.082645	-0.070724	-0.184726
H192	H	0.582645	0.429276	0.315274
H193	H	0.575496	-0.632386	0.000057
H194	H	1.075496	-0.132386	0.500057
C195	C	0.834033	-0.385432	0.000143
C196	C	1.334033	0.114568	0.500143
C197	C	0.848806	-0.346536	-0.106123
C198	C	1.348806	0.153464	0.393877
C199	C	0.906317	-0.321658	-0.106122
C200	C	1.406317	0.178342	0.393878
C201	C	0.949055	-0.335676	0.000145
C202	C	1.449055	0.164324	0.500145
C203	C	0.934283	-0.374574	0.106418
C204	C	1.434283	0.125426	0.606418
C205	C	0.876772	-0.399452	0.106417
C206	C	1.376772	0.100548	0.606417
H207	H	0.817168	-0.336157	-0.184794
H208	H	1.317168	0.163843	0.315206
H209	H	0.917252	-0.292863	-0.184793
H210	H	1.417252	0.207137	0.315207
H211	H	0.991627	-0.317260	0.000145
H212	H	1.491627	0.182740	0.500145
H213	H	0.965921	-0.384953	0.185090
H214	H	1.465921	0.115047	0.685090
H215	H	0.865837	-0.428247	0.185089
H216	H	1.365837	0.071753	0.685089
H217	H	0.574207	-0.740136	0.000074
H218	H	1.074207	-0.240136	0.500074
C219	C	0.512117	-0.341554	0.000026
C220	C	1.012117	0.158446	0.500026
C221	C	0.469190	-0.343877	-0.106256
C222	C	0.969190	0.156123	0.393744
C223	C	0.412464	-0.303428	-0.106272
C224	C	0.912464	0.196572	0.393728
C225	C	0.398665	-0.260658	-0.000006
C226	C	0.898665	0.239342	0.499994
C227	C	0.441592	-0.258334	0.106284
C228	C	0.941592	0.241666	0.606284
C229	C	0.498318	-0.298782	0.106300
C230	C	0.998318	0.201218	0.606300
H231	H	0.479405	-0.375539	-0.184928
H232	H	0.979405	0.124461	0.315072
H233	H	0.380687	-0.305149	-0.184955
H234	H	0.880687	0.194851	0.315045
H235	H	0.356673	-0.230715	-0.000017
H236	H	0.856673	0.269285	0.499983
H237	H	0.431377	-0.226671	0.184956
H238	H	0.931377	0.273329	0.684956
H239	H	0.530095	-0.297061	0.184984
H240	H	1.030095	0.202939	0.684984
C241	C	0.212751	0.235847	0.000098
C242	C	0.712751	0.735847	0.500098
C243	C	0.251634	0.250615	0.106374
C244	C	0.751634	0.750615	0.606374
C245	C	0.276503	0.308130	0.106392
C246	C	0.776503	0.808130	0.606392
C247	C	0.262489	0.350878	0.000133
C248	C	0.762489	0.850878	0.500133
C249	C	0.223604	0.336112	-0.106151
C250	C	0.723604	0.836112	0.393849
C251	C	0.198735	0.278596	-0.106169
C252	C	0.698735	0.778596	0.393831
H253	H	0.262010	0.218969	0.185040
H254	H	0.762010	0.718969	0.685040
H255	H	0.305289	0.319061	0.185071
H256	H	0.805289	0.819061	0.685071
H257	H	0.280899	0.393454	0.000146
H258	H	0.780899	0.893454	0.500146
H259	H	0.213229	0.367757	-0.184818
H260	H	0.713229	0.867757	0.315182
H261	H	0.169950	0.267666	-0.184848
H262	H	0.669950	0.767666	0.315152
C263	C	0.832541	-0.510153	0.000142
C264	C	1.332541	-0.010153	0.500142
C265	C	0.875463	-0.507819	0.106429
C266	C	1.375463	-0.007819	0.606429
C267	C	0.932195	-0.548258	0.106458
C268	C	1.432195	-0.048258	0.606458
C269	C	0.946005	-0.591031	0.000201
C270	C	1.446005	-0.091031	0.500201
C271	C	0.903082	-0.593368	-0.106094
C272	C	1.403082	-0.093368	0.393906
C273	C	0.846351	-0.552929	-0.106123
C274	C	1.346351	-0.052929	0.393877
H275	H	0.865241	-0.476154	0.185094
H276	H	1.365241	0.023846	0.685094
H277	H	0.963969	-0.546528	0.185145
H278	H	1.463969	-0.046528	0.685145
H279	H	0.988001	-0.620967	0.000223
H280	H	1.488001	-0.120967	0.500223
H281	H	0.913305	-0.625033	-0.184759
H282	H	1.413305	-0.125033	0.315241
H283	H	0.814576	-0.554658	-0.184810
H284	H	1.314576	-0.054658	0.315190
C285	C	0.398041	-0.032377	0.000139
C286	C	0.898041	0.467623	0.500139
C287	C	0.412053	-0.075111	0.106424
C288	C	0.912053	0.424889	0.606424
C289	C	0.387165	-0.132617	0.106465
C290	C	0.887165	0.367383	0.606465
C291	C	0.348266	-0.147388	0.000222
C292	C	0.848266	0.352612	0.500222
C293	C	0.334252	-0.104653	-0.106071
C294	C	0.834252	0.395347	0.393929
C295	C	0.359139	-0.047147	-0.106112
C296	C	0.859139	0.452853	0.393888
H297	H	0.440850	-0.064177	0.185078
H298	H	0.940850	0.435823	0.685078
H299	H	0.397540	-0.164252	0.185150
H300	H	0.897540	0.335748	0.685150
H301	H	0.329843	-0.189957	0.000252
H302	H	0.829843	0.310043	0.500252
H303	H	0.305455	-0.115586	-0.184725
H304	H	0.805455	0.384414	0.315275
H305	H	0.348765	-0.015512	-0.184797
H306	H	0.848765	0.484488	0.315203
H307	H	0.580748	-0.193677	0.000144
H308	H	1.080748	0.306323	0.500144
H309	H	0.486602	0.172255	0.000050
H310	H	0.986602	0.672255	0.500050
H311	H	0.098544	0.219617	0.000097
H312	H	0.598544	0.719617	0.500097
C313	C	-0.053399	0.180654	0.000112
C314	C	0.446601	0.680654	0.500112
C315	C	-0.067408	0.223388	0.106366
C316	C	0.432592	0.723388	0.606366
C317	C	-0.042529	0.280898	0.106352
C318	C	0.457471	0.780898	0.606352
C319	C	-0.003642	0.295675	0.000085
C320	C	0.496358	0.795675	0.500085
C321	C	0.010369	0.252940	-0.106177
C322	C	0.510369	0.752940	0.393823
C323	C	-0.014509	0.195429	-0.106164
C324	C	0.485491	0.695429	0.393836
H325	H	-0.096197	0.212450	0.185038
H326	H	0.403803	0.712450	0.685038
H327	H	-0.052902	0.312533	0.185015
H328	H	0.447098	0.812533	0.685015
H329	H	0.014775	0.338247	0.000074
H330	H	0.514775	0.838247	0.500074
H331	H	0.039158	0.263877	-0.184850
H332	H	0.539158	0.763877	0.315150
H333	H	-0.004137	0.163794	-0.184826
H334	H	0.495863	0.663794	0.315174
H335	H	-0.167632	0.164421	0.000122
H336	H	0.332368	0.664421	0.500122
H337	H	-0.141947	-0.023982	0.000157
H338	H	0.358053	0.476018	0.500157
H339	H	0.246123	-0.071339	0.000216
H340	H	0.746123	0.428661	0.500216
H341	H	0.582043	-0.085909	0.000135
H342	H	1.082043	0.414091	0.500135
H343	H	0.770443	-0.111587	0.000191
H344	H	1.270443	0.388413	0.500191
H345	H	0.769159	-0.219337	0.000149
H346	H	1.269159	0.280663	0.500149
H347	H	0.512280	-0.016146	0.000113
H348	H	1.012280	0.483854	0.500113
H349	H	0.763906	-0.658056	0.000113
H350	H	1.263906	-0.158056	0.500113
H351	H	0.762610	-0.765821	0.000098
H352	H	1.262610	-0.265821	0.500098
