data_functionalizedCrystal
_audit_creation_method	'MofGen! by Chris Wilmer'
_symmetry_space_group_name_H-M	'P1'
_symmetry_Int_Tables_number	1
_symmetry_cell_setting	triclinic
loop_
_symmetry_equiv_pos_as_xyz
  x,y,z
_cell_length_a	26.374263
_cell_length_b	26.373608
_cell_length_c	26.370205
_cell_angle_alpha	60.005297
_cell_angle_beta	60.010839
_cell_angle_gamma	59.993700
loop_
_atom_site_label
_atom_site_type_symbol
_atom_site_fract_x
_atom_site_fract_y
_atom_site_fract_z
O1	O	0.070152	-0.740800	0.619517
O2	O	0.026377	-0.576764	0.499159
O3	O	0.130245	-0.680560	0.499088
O4	O	-0.033715	-0.637003	0.619589
O5	O	0.164701	-0.646107	0.533470
O6	O	0.060833	-0.542310	0.533541
O7	O	0.104608	-0.706346	0.653899
Cu8	Cu	0.085867	-0.621182	0.596859
Cu9	Cu	0.045119	-0.661927	0.556199
O10	O	0.000741	-0.602549	0.653971
N11	N	0.114528	-0.592529	0.625461
N12	N	0.016463	-0.690587	0.527598
C13	C	0.181428	-0.355400	0.692330
C14	C	0.181530	-0.525690	0.862573
C15	C	0.181440	-0.525667	0.692313
C16	C	0.351736	-0.525673	0.692271
C17	C	0.200174	-0.411588	0.711047
C18	C	0.200232	-0.506954	0.806384
C19	C	0.295546	-0.506943	0.711016
C20	C	0.200182	-0.506940	0.711037
C21	C	0.157567	-0.283881	0.668507
C22	C	0.157587	-0.549500	0.668479
C23	C	0.224035	-0.483107	0.734871
C24	C	0.455739	-0.507754	0.637520
C25	C	0.520749	-0.529425	0.615835
C26	C	0.520768	-0.634611	0.655947
C27	C	0.455759	-0.612939	0.677633
C28	C	0.173240	-0.251367	0.604595
C29	C	0.151546	-0.186351	0.582941
C30	C	0.098512	-0.186369	0.689113
C31	C	0.120206	-0.251385	0.710768
C32	C	0.093669	-0.533798	0.684205
C33	C	0.071992	-0.555464	0.662532
C34	C	0.178144	-0.608536	0.609422
C35	C	0.199825	-0.586869	0.631088
C36	C	0.093821	-0.533842	0.966616
C37	C	0.072187	-0.555526	1.031630
C38	C	0.178370	-0.608608	1.031591
C39	C	0.200004	-0.586926	0.966576
C40	C	0.157728	-0.549541	0.934090
C41	C	0.423247	-0.549509	0.668416
C42	C	-0.097522	-0.709158	0.508557
C43	C	-0.002050	-0.709295	0.413344
C44	C	-0.002241	-0.804604	0.508735
C45	C	-0.002225	-0.709288	0.508793
C46	C	-0.026009	-0.733087	0.484858
N47	N	0.552340	-0.592538	0.625346
O48	O	0.750867	-0.598274	0.477076
O49	O	0.751048	-0.718989	0.640960
O50	O	0.750981	-0.718715	0.537020
O51	O	0.750934	-0.598547	0.581017
O52	O	0.647701	-0.684348	0.571512
O53	O	0.647768	-0.684622	0.675452
O54	O	0.647587	-0.563907	0.511569
Cu55	Cu	0.638247	-0.621127	0.596660
Cu56	Cu	0.760388	-0.661769	0.555869
O57	O	0.647654	-0.564181	0.615509
N58	N	0.846295	-0.690358	0.527176
N59	N	0.114503	-0.154778	0.625499
O60	O	-0.033701	0.043855	0.619632
O61	O	0.130190	0.043858	0.498933
O62	O	0.026233	0.043841	0.499224
O63	O	0.070257	0.043872	0.619341
O64	O	0.060690	-0.059448	0.533654
O65	O	0.164647	-0.059431	0.533363
O66	O	0.000756	-0.059434	0.654062
Cu67	Cu	0.085848	-0.068863	0.596857
Cu68	Cu	0.045099	0.053287	0.556138
O69	O	0.104714	-0.059417	0.653771
N70	N	0.016435	0.139202	0.527497
N71	N	0.114760	-0.592585	1.063190
O72	O	0.108896	-0.740779	1.261808
O73	O	-0.011787	-0.576838	1.261822
O74	O	-0.011509	-0.680779	1.261780
O75	O	0.108618	-0.636838	1.261850
O76	O	0.022916	-0.646341	1.158496
O77	O	0.022638	-0.542399	1.158538
O78	O	0.143321	-0.706341	1.158524
Cu79	Cu	0.086123	-0.621225	1.149100
Cu80	Cu	0.045411	-0.661953	1.271246
O81	O	0.143044	-0.602399	1.158566
N82	N	0.016774	-0.690600	1.357156
C83	C	0.039504	-0.538867	0.499769
C84	C	0.168130	-0.667407	0.499680
C85	C	0.091482	-0.744243	0.653289
C86	C	-0.037145	-0.615703	0.653378
C87	C	0.699429	-0.718429	0.678853
C88	C	0.699348	-0.718091	0.550135
C89	C	0.699202	-0.564465	0.473677
C90	C	0.699287	-0.564805	0.602393
C91	C	0.168023	-0.007659	0.499484
C92	C	0.039327	-0.007807	0.499887
C93	C	-0.037119	-0.007789	0.653468
C94	C	0.091620	-0.007770	0.653109
C95	C	-0.011194	-0.538964	1.210181
C96	C	-0.010843	-0.667676	1.210109
C97	C	0.142729	-0.744214	1.210165
C98	C	0.142386	-0.615494	1.210214
H99	H	0.059391	-0.503396	0.940172
H100	H	-0.048566	-0.677061	1.210046
H101	H	0.215222	-0.676694	0.461838
H102	H	0.699474	-0.756325	0.725922
O103	O	0.102924	-0.007879	0.698151
C104	C	0.165997	-0.061374	0.763415
C105	C	0.153254	-0.061331	0.712411
H106	H	0.206697	-0.104578	0.774950
H107	H	0.122963	-0.061417	0.806823
H108	H	0.177790	-0.018128	0.746199
H109	H	0.141477	-0.104569	0.729568
H110	H	0.196299	-0.061255	0.669014
O111	O	-0.056339	-0.482769	1.210211
C112	C	-0.085195	-0.380450	1.210200
C113	C	-0.034019	-0.444067	1.210181
H114	H	-0.067164	-0.349138	1.210162
H115	H	-0.127551	-0.386930	1.253426
H116	H	-0.098745	-0.358172	1.166977
H117	H	-0.020417	-0.466380	1.253374
H118	H	0.008303	-0.437547	1.166926
O119	O	-0.093226	-0.007815	0.698754
C120	C	-0.156837	-0.007762	0.803435
C121	C	-0.093264	-0.007748	0.752209
H122	H	-0.156894	-0.007695	0.846661
H123	H	-0.165942	-0.051003	0.815222
H124	H	-0.194758	0.035449	0.786323
H125	H	-0.055303	-0.050930	0.769278
H126	H	-0.084213	0.035521	0.740429
O127	O	0.187856	-0.800426	1.210186
C128	C	0.216741	-0.902716	1.210111
C129	C	0.165575	-0.839091	1.210104
H130	H	0.198750	-0.933990	1.210031
H131	H	0.230280	-0.925071	1.253353
H132	H	0.259096	-0.896173	1.166905
H133	H	0.123187	-0.845579	1.253280
H134	H	0.152089	-0.816757	1.166833
O135	O	0.028001	-0.007862	0.454950
C136	C	-0.045796	-0.007882	0.426563
C137	C	-0.033052	-0.007822	0.477509
H138	H	-0.095161	-0.007836	0.444778
H139	H	-0.011449	-0.051129	0.413012
H140	H	-0.040222	0.035323	0.384159
H141	H	-0.038634	-0.050998	0.519946
H142	H	-0.067397	0.035454	0.491007
H143	H	0.180125	-0.606093	1.210228
O144	O	0.699024	-0.519191	0.417578
C145	C	0.645431	-0.415612	0.362182
C146	C	0.645549	-0.466837	0.425752
H147	H	0.602207	-0.373266	0.368771
H148	H	0.645381	-0.433563	0.330849
H149	H	0.688651	-0.402070	0.339866
H150	H	0.602337	-0.480401	0.448122
H151	H	0.645631	-0.448858	0.457041
O152	O	0.010091	-0.540290	1.063152
C153	C	-0.087280	-0.545261	1.083092
C154	C	-0.016967	-0.562539	1.047345
H155	H	-0.109175	-0.563253	1.070336
H156	H	-0.109239	-0.492617	1.070310
H157	H	-0.095470	-0.567160	1.135136
H158	H	-0.008721	-0.540681	0.995293
H159	H	0.004957	-0.615188	1.060179
O160	O	0.219522	-0.644937	1.063051
C161	C	0.327125	-0.695276	1.056151
C162	C	0.280591	-0.654133	1.020445
H163	H	0.376509	-0.702712	1.021720
H164	H	0.319697	-0.742068	1.086561
H165	H	0.319612	-0.671466	1.086613
H166	H	0.288075	-0.677887	0.989949
H167	H	0.288030	-0.607342	0.990074
H168	H	0.699366	-0.755841	0.540718
O169	O	0.102528	-0.800460	0.698409
C170	C	0.072563	-0.891768	0.766214
C171	C	0.059977	-0.828109	0.715129
H172	H	0.038176	-0.914147	0.779738
H173	H	0.066959	-0.885341	0.808610
H174	H	0.121908	-0.922965	0.748080
H175	H	0.010634	-0.796879	0.733205
H176	H	0.065622	-0.834584	0.672743
H177	H	0.252044	-0.599714	0.940097
H178	H	-0.084239	-0.606419	0.691217
H179	H	0.214995	-0.007372	0.461496
O180	O	0.052556	-0.497478	0.720493
C181	C	-0.055024	-0.447147	0.770908
C182	C	-0.008531	-0.488273	0.729795
H183	H	-0.104423	-0.439703	0.778453
H184	H	-0.047592	-0.400357	0.747100
H185	H	-0.047473	-0.470975	0.817650
H186	H	-0.016055	-0.464499	0.683046
H187	H	-0.015975	-0.535060	0.753652
H188	H	0.019945	-0.542665	0.675322
O189	O	0.028421	-0.482629	0.454685
C190	C	0.058432	-0.391353	0.386818
C191	C	0.071041	-0.455023	0.437883
H192	H	0.092891	-0.369021	0.373209
H193	H	0.009116	-0.360093	0.404930
H194	H	0.063978	-0.397829	0.344477
H195	H	0.065528	-0.448605	0.480241
H196	H	0.120352	-0.486260	0.419721
O197	O	0.219206	-0.644746	0.573013
C198	C	0.303309	-0.653048	0.477326
C199	C	0.256833	-0.611974	0.518493
H200	H	0.333750	-0.626572	0.433244
H201	H	0.276873	-0.665827	0.464481
H202	H	0.333739	-0.697177	0.503805
H203	H	0.226390	-0.567819	0.492052
H204	H	0.283306	-0.599245	0.531341
O205	O	0.261895	-0.602041	0.615852
C206	C	0.342341	-0.592216	0.625730
C207	C	0.272033	-0.574973	0.643018
H208	H	0.350560	-0.570350	0.647696
H209	H	0.364256	-0.574243	0.573091
H210	H	0.364260	-0.644864	0.643639
H211	H	0.250060	-0.522331	0.625150
H212	H	0.250163	-0.592989	0.695659
O213	O	0.424295	-0.653583	0.707610
C214	C	0.431185	-0.760209	0.745135
C215	C	0.466895	-0.714242	0.711164
H216	H	0.465611	-0.809263	0.748031
H217	H	0.400747	-0.747205	0.718564
H218	H	0.400751	-0.758188	0.794004
H219	H	0.497362	-0.716239	0.662295
H220	H	0.497293	-0.727261	0.737783
O221	O	0.552221	-0.488776	0.585807
C222	C	0.545348	-0.382163	0.548332
C223	C	0.509629	-0.428127	0.582340
H224	H	0.510928	-0.333120	0.545530
H225	H	0.575745	-0.384106	0.499432
H226	H	0.575822	-0.395249	0.574899
H227	H	0.479121	-0.415073	0.555825
H228	H	0.479271	-0.426177	0.631243
O229	O	0.699353	-0.519845	0.613667
C230	C	0.752885	-0.490170	0.640943
C231	C	0.752880	-0.541144	0.628205
H232	H	0.796164	-0.507367	0.652687
H233	H	0.709713	-0.478601	0.681641
H234	H	0.752801	-0.446781	0.597883
H235	H	0.752986	-0.584565	0.671229
H236	H	0.796049	-0.552660	0.587484
O237	O	0.424058	-0.446153	0.628599
C238	C	0.323900	-0.366149	0.644257
C239	C	0.359697	-0.435923	0.654391
H240	H	0.271858	-0.357857	0.665116
H241	H	0.336614	-0.338918	0.592378
H242	H	0.336733	-0.350020	0.667811
H243	H	0.346883	-0.452108	0.630874
H244	H	0.346979	-0.463112	0.706279
O245	O	0.209502	-0.282835	0.563458
C246	C	0.259837	-0.275955	0.455861
C247	C	0.218754	-0.240237	0.502379
H248	H	0.267342	-0.241530	0.406469
H249	H	0.236029	-0.306379	0.463312
H250	H	0.306598	-0.306408	0.463371
H251	H	0.171987	-0.209750	0.494897
H252	H	0.242612	-0.209852	0.494916
H253	H	0.164306	-0.159876	0.530897
O254	O	0.062208	-0.154895	0.730248
C255	C	0.011940	-0.161776	0.837845
C256	C	0.053047	-0.197495	0.791327
H257	H	0.004532	-0.196202	0.887238
H258	H	-0.034863	-0.131358	0.830422
H259	H	0.035758	-0.131318	0.830307
H260	H	0.029284	-0.227987	0.798837
H261	H	0.099848	-0.227873	0.798762
H262	H	0.107441	-0.277854	0.762810
H263	H	0.547237	-0.686258	0.663446
