data_functionalizedCrystal
_audit_creation_method	'MofGen! by Chris Wilmer'
_symmetry_space_group_name_H-M	'P1'
_symmetry_Int_Tables_number	1
_symmetry_cell_setting	triclinic
loop_
_symmetry_equiv_pos_as_xyz
  x,y,z
_cell_length_a	19.288867
_cell_length_b	12.811415
_cell_length_c	17.766277
_cell_angle_alpha	84.562803
_cell_angle_beta	89.992126
_cell_angle_gamma	83.592416
loop_
_atom_site_label
_atom_site_type_symbol
_atom_site_fract_x
_atom_site_fract_y
_atom_site_fract_z
O1	O	0.922003	0.130944	-0.071505
O2	O	1.255336	0.464277	0.261829
O3	O	1.588669	0.797611	0.595162
O4	O	0.719830	0.148605	-0.072717
O5	O	1.053163	0.481938	0.260616
O6	O	1.386497	0.815271	0.593949
O7	O	0.826001	-0.013043	-0.061676
O8	O	1.159335	0.320291	0.271657
O9	O	1.492668	0.653624	0.604990
O10	O	0.815831	0.292591	-0.082546
O11	O	1.149164	0.625925	0.250788
O12	O	1.482498	0.959258	0.584121
O13	O	0.825983	-0.013051	0.063513
O14	O	1.159316	0.320283	0.396846
O15	O	1.492649	0.653616	0.730180
O16	O	0.719811	0.148596	0.052472
O17	O	1.053145	0.481930	0.385805
O18	O	1.386478	0.815263	0.719138
O19	O	0.921984	0.130936	0.053684
O20	O	1.255317	0.464269	0.387018
O21	O	1.588651	0.797603	0.720351
Cu22	Cu	0.820896	0.139765	0.064509
Cu23	Cu	1.154229	0.473099	0.397842
Cu24	Cu	1.487562	0.806432	0.731176
Cu25	Cu	0.820918	0.139775	-0.083542
Cu26	Cu	1.154251	0.473108	0.249792
Cu27	Cu	1.487585	0.806442	0.583125
O28	O	0.815812	0.292583	0.042643
O29	O	1.149146	0.625916	0.375977
O30	O	1.482479	0.959250	0.709310
C31	C	0.693941	0.148032	-0.010085
C32	C	1.027275	0.481365	0.323248
C33	C	1.360608	0.814699	0.656582
C34	C	0.616829	0.146325	-0.009971
C35	C	0.950163	0.479658	0.323362
C36	C	1.283496	0.812992	0.656696
C37	C	0.825422	-0.052148	0.003587
C38	C	1.158755	0.281185	0.336920
C39	C	1.492088	0.614518	0.670253
C40	C	0.823714	-0.168659	0.011537
C41	C	1.157047	0.164675	0.344871
C42	C	1.490381	0.498008	0.678204
C43	C	0.061213	0.134035	-0.077363
C44	C	0.394546	0.467368	0.255970
C45	C	0.727880	0.800701	0.589303
C46	C	0.133669	0.135632	-0.077475
C47	C	0.467002	0.468966	0.255858
C48	C	0.800335	0.802299	0.589191
C49	C	0.169891	0.136432	-0.009290
C50	C	0.503224	0.469765	0.324044
C51	C	0.836558	0.803098	0.657377
C52	C	0.133654	0.135606	0.059015
C53	C	0.466987	0.468939	0.392348
C54	C	0.800321	0.802273	0.725681
C55	C	0.061201	0.133998	0.059125
C56	C	0.394534	0.467331	0.392459
C57	C	0.727868	0.800665	0.725792
C58	C	0.279528	0.200449	0.038620
C59	C	0.612862	0.533783	0.371953
C60	C	0.946195	0.867116	0.705286
C61	C	0.351980	0.202064	0.038506
C62	C	0.685313	0.535397	0.371839
C63	C	1.018647	0.868731	0.705172
C64	C	0.393361	0.141387	-0.009628
C65	C	0.726695	0.474720	0.323705
C66	C	1.060028	0.808053	0.657039
C67	C	0.362281	0.079108	-0.057661
C68	C	0.695615	0.412441	0.275672
C69	C	1.028948	0.745775	0.609005
C70	C	0.289828	0.077500	-0.057551
C71	C	0.623161	0.410833	0.275783
C72	C	0.956495	0.744167	0.609116
C73	C	0.248454	0.138175	-0.009402
C74	C	0.581788	0.471508	0.323931
C75	C	0.915121	0.804841	0.657265
C76	C	0.508154	0.143937	-0.078049
C77	C	0.841488	0.477270	0.255285
C78	C	1.174821	0.810603	0.588618
C79	C	0.580612	0.145528	-0.078157
C80	C	0.913945	0.478861	0.255176
C81	C	1.247279	0.812194	0.588509
C82	C	0.580595	0.145512	0.058334
C83	C	0.913928	0.478845	0.391667
C84	C	1.247262	0.812179	0.725000
C85	C	0.508140	0.143910	0.058441
C86	C	0.841473	0.477244	0.391774
C87	C	1.174807	0.810577	0.725108
C88	C	0.471924	0.143128	-0.009753
C89	C	0.805257	0.476461	0.323581
C90	C	1.138590	0.809795	0.656914
C91	C	0.820513	-0.387574	-0.110019
C92	C	1.153846	-0.054240	0.223314
C93	C	1.487179	0.279093	0.556647
C94	C	0.818908	-0.497046	-0.102553
C95	C	1.152241	-0.163712	0.230781
C96	C	1.485575	0.169621	0.564114
C97	C	0.818895	-0.497076	0.033937
C98	C	1.152228	-0.163742	0.367270
C99	C	1.485561	0.169591	0.700604
C100	C	0.820499	-0.387604	0.026470
C101	C	1.153833	-0.054270	0.359803
C102	C	1.487166	0.279063	0.693137
C103	C	0.821309	-0.332857	-0.045510
C104	C	1.154643	0.000477	0.287823
C105	C	1.487976	0.333810	0.621156
C106	C	0.822919	-0.223384	-0.052976
C107	C	1.156252	0.109949	0.280357
C108	C	1.489586	0.443283	0.613690
C109	C	0.822901	-0.223415	0.083512
C110	C	1.156234	0.109919	0.416846
C111	C	1.489568	0.443252	0.750179
C112	C	0.821296	-0.332887	0.090979
C113	C	1.154630	0.000447	0.424312
C114	C	1.487963	0.333780	0.757646
C115	C	0.947873	0.131509	-0.008950
C116	C	1.281206	0.464842	0.324384
C117	C	1.614539	0.798175	0.657717
C118	C	1.024985	0.133215	-0.009068
C119	C	1.358318	0.466549	0.324265
C120	C	1.691651	0.799882	0.657598
C121	C	0.816392	0.331689	-0.022621
C122	C	1.149725	0.665022	0.310712
C123	C	1.483059	0.998356	0.644045
C124	C	0.818100	0.448199	-0.030577
C125	C	1.151433	0.781533	0.302757
C126	C	1.484767	1.114866	0.636090
N127	N	0.820885	0.139758	0.168640
N128	N	1.154219	0.473091	0.501973
N129	N	1.487552	0.806425	0.835306
N130	N	0.820934	0.139774	-0.187672
N131	N	1.154267	0.473108	0.145661
N132	N	1.487601	0.806441	0.478995
C133	C	0.867913	0.068216	0.212913
C134	C	1.201247	0.401549	0.546247
C135	C	1.534580	0.734882	0.879580
C136	C	0.867917	0.068211	0.291715
C137	C	1.201251	0.401544	0.625049
C138	C	1.534584	0.734877	0.958382
C139	C	0.820900	0.139766	0.326240
C140	C	1.154233	0.473100	0.659573
C141	C	1.487567	0.806433	0.992906
C142	C	0.773863	0.211314	0.281956
C143	C	1.107196	0.544648	0.615290
C144	C	1.440530	0.877981	0.948623
C145	C	0.773856	0.211310	0.203156
C146	C	1.107189	0.544643	0.536490
C147	C	1.440522	0.877977	0.869823
C148	C	0.812076	0.235400	0.444547
C149	C	1.145410	0.568733	0.777881
C150	C	1.478743	0.902066	1.111214
C151	C	0.812088	0.235405	0.523346
C152	C	1.145422	0.568738	0.856679
C153	C	1.478755	0.902072	1.190012
C154	C	0.820919	0.139779	0.569285
C155	C	1.154252	0.473112	0.902619
C156	C	1.487585	0.806446	1.235952
C157	C	0.829751	0.044143	0.536417
C158	C	1.163085	0.377476	0.869750
C159	C	1.496418	0.710810	1.203083
C160	C	0.829744	0.044139	0.457617
C161	C	1.163077	0.377472	0.790950
C162	C	1.496411	0.710806	1.124283
C163	C	0.820902	0.139778	0.411685
C164	C	1.154236	0.473112	0.745018
C165	C	1.487569	0.806445	1.078351
C166	C	0.867954	0.068225	0.699005
C167	C	1.201287	0.401559	1.032339
C168	C	1.534620	0.734892	1.365672
C169	C	0.867953	0.068219	0.777809
C170	C	1.201286	0.401552	1.111142
C171	C	1.534619	0.734886	1.444476
C172	C	0.773902	0.211332	0.768048
C173	C	1.107235	0.544665	1.101381
C174	C	1.440568	0.877998	1.434715
C175	C	0.773899	0.211329	0.689246
C176	C	1.107232	0.544662	1.022580
C177	C	1.440566	0.877995	1.355913
C178	C	0.820929	0.139777	0.654730
C179	C	1.154262	0.473110	0.988063
C180	C	1.487595	0.806443	1.321396
H181	H	0.031731	0.133393	-0.132892
H182	H	0.365064	0.466727	0.200442
H183	H	0.698397	0.800060	0.533775
H184	H	0.735616	0.269590	0.796157
H185	H	1.068950	0.602923	1.129491
H186	H	1.402283	0.936256	1.462824
H187	H	0.610109	0.146187	-0.133773
H188	H	0.943442	0.479520	0.199560
H189	H	1.276775	0.812853	0.532894
F190	F	0.619142	0.146349	0.130904
F191	F	0.952475	0.479682	0.464237
F192	F	1.285809	0.813015	0.797570
F193	F	0.385050	0.268354	0.089621
F194	F	0.718383	0.601687	0.422954
F195	F	1.051717	0.935020	0.756287
F196	F	0.821384	-0.329308	-0.186625
F197	F	1.154717	0.004026	0.146709
F198	F	1.488050	0.337359	0.480042
F199	F	0.172206	0.136453	0.131583
F200	F	0.505539	0.469786	0.464916
F201	F	0.838872	0.803120	0.798249
H202	H	0.823552	-0.178853	0.136040
H203	H	1.156886	0.154480	0.469374
H204	H	1.490219	0.487814	0.802707
H205	H	0.823581	-0.178811	-0.111587
H206	H	1.156914	0.154522	0.221747
H207	H	1.490247	0.487856	0.555080
H208	H	0.818230	-0.541668	0.092540
H209	H	1.151563	-0.208335	0.425873
H210	H	1.484896	0.124998	0.759207
F211	F	0.839138	-0.057641	0.422638
F212	F	1.172472	0.275693	0.755972
F213	F	1.505805	0.609026	1.089305
H214	H	0.906215	0.009950	0.327769
H215	H	1.239548	0.343283	0.661103
H216	H	1.572881	0.676617	0.994436
F217	F	0.918005	-0.007935	0.824931
F218	F	1.251338	0.325398	1.158264
F219	F	1.584672	0.658732	1.491597
H220	H	0.820634	-0.377476	0.149583
H221	H	1.153967	-0.044143	0.482917
H222	H	1.487301	0.289191	0.816250
F223	F	0.172234	0.136506	-0.150167
F224	F	0.505567	0.469839	0.183166
F225	F	0.838900	0.803173	0.516500
H226	H	0.906206	0.009951	0.184813
H227	H	1.239539	0.343285	0.518146
H228	H	1.572873	0.676618	0.851479
H229	H	0.818256	-0.541592	-0.155083
H230	H	1.151590	-0.208258	0.178251
H231	H	1.484923	0.125075	0.511584
F232	F	0.839154	-0.057638	0.585303
F233	F	1.172487	0.275696	0.918636
F234	F	1.505821	0.609029	1.251969
F235	F	0.723800	0.287459	0.156035
F236	F	1.057133	0.620792	0.489368
F237	F	1.390467	0.954125	0.822701
F238	F	0.918004	-0.007931	0.662270
F239	F	1.251337	0.325403	0.995603
F240	F	1.584670	0.658736	1.328936
F241	F	0.469580	0.143052	0.131130
F242	F	0.802913	0.476386	0.464463
F243	F	1.136247	0.809719	0.797797
F244	F	0.723848	0.287479	0.642123
F245	F	1.057182	0.620812	0.975457
F246	F	1.390515	0.954145	1.308790
F247	F	0.256753	0.011218	-0.108667
F248	F	0.590086	0.344551	0.224666
F249	F	0.923420	0.677885	0.557999
F250	F	0.802693	0.337188	0.558320
F251	F	1.136026	0.670521	0.891653
F252	F	1.469360	1.003855	1.224986
F253	F	0.235495	0.265025	0.089861
F254	F	0.568828	0.598358	0.423194
F255	F	0.902161	0.931691	0.756527
F256	F	0.723821	0.287466	0.318700
F257	F	1.057154	0.620799	0.652033
F258	F	1.390488	0.954132	0.985367
F259	F	0.406316	0.014529	-0.108895
F260	F	0.739650	0.347863	0.224438
F261	F	1.072983	0.681196	0.557771
F262	F	0.469608	0.143098	-0.150625
F263	F	0.802942	0.476431	0.182709
F264	F	1.136275	0.809764	0.516042
H265	H	0.804874	0.313275	0.407149
H266	H	1.138207	0.646608	0.740482
H267	H	1.471540	0.979942	1.073816
H268	H	0.031704	0.133335	0.114741
H269	H	0.365037	0.466668	0.448074
H270	H	0.698370	0.800001	0.781407
