data_functionalizedCrystal
_audit_creation_method	'MofGen! by Chris Wilmer'
_symmetry_space_group_name_H-M	'P1'
_symmetry_Int_Tables_number	1
_symmetry_cell_setting	triclinic
loop_
_symmetry_equiv_pos_as_xyz
  x,y,z
_cell_length_a	14.908571
_cell_length_b	16.959454
_cell_length_c	14.908308
_cell_angle_alpha	86.729532
_cell_angle_beta	90.175053
_cell_angle_gamma	93.280669
loop_
_atom_site_label
_atom_site_type_symbol
_atom_site_fract_x
_atom_site_fract_y
_atom_site_fract_z
Zn1	Zn	1.345273	0.412496	-0.587609
Zn2	Zn	1.845273	0.912496	-0.087609
Zn3	Zn	1.353847	0.537520	-0.437258
Zn4	Zn	1.853847	1.037520	0.062742
Zn5	Zn	1.203589	0.397313	-0.428606
Zn6	Zn	1.703589	0.897313	0.071394
Zn7	Zn	1.194875	0.536581	-0.578909
Zn8	Zn	1.694875	1.036581	-0.078909
O9	O	1.274396	0.470977	-0.508095
O10	O	1.774396	0.970977	-0.008095
O11	O	1.472236	0.435827	-0.574926
O12	O	1.972236	0.935827	-0.074926
O13	O	1.341150	0.512960	-0.310285
O14	O	1.841150	1.012960	0.189715
O15	O	1.222443	0.288720	-0.449718
O16	O	1.722443	0.788720	0.050282
O17	O	1.478535	0.527682	-0.464464
O18	O	1.978535	1.027682	0.035536
O19	O	1.326538	0.299875	-0.566537
O20	O	1.826538	0.799875	-0.066537
O21	O	1.230757	0.409951	-0.303929
O22	O	1.730757	0.909951	0.196071
O23	O	1.076608	0.409041	-0.441282
O24	O	1.576608	0.909041	0.058718
O25	O	1.207590	0.526081	-0.705888
O26	O	1.707590	1.026081	-0.205888
O27	O	1.070205	0.511360	-0.551709
O28	O	1.570205	1.011360	-0.051709
O29	O	1.318087	0.434916	-0.712280
O30	O	1.818087	0.934916	-0.212280
O31	O	1.332700	0.648002	-0.456028
O32	O	1.832700	1.148002	0.043972
O33	O	1.215904	0.647312	-0.560099
O34	O	1.715904	1.147312	-0.060099
C35	C	1.040781	0.458451	-0.494614
C36	C	1.540781	0.958451	0.005386
C37	C	0.940839	0.453113	-0.488867
C38	C	1.440839	0.953113	0.011133
C39	C	0.746426	0.549775	-0.592903
C40	C	1.246426	1.049775	-0.092903
C41	C	0.652521	0.544762	-0.587507
C42	C	1.152521	1.044762	-0.087507
C43	C	0.659121	0.438069	-0.472684
C44	C	1.159121	0.938069	0.027316
C45	C	0.753026	0.443083	-0.478080
C46	C	1.253026	0.943083	0.021920
C47	C	0.796675	0.498938	-0.538191
C48	C	1.296675	0.998938	-0.038191
C49	C	0.890582	0.503955	-0.543581
C50	C	1.390582	1.003955	-0.043581
C51	C	0.897181	0.397259	-0.428764
C52	C	1.397181	0.897259	0.071236
C53	C	0.803275	0.392246	-0.423368
C54	C	1.303275	0.892246	0.076632
C55	C	1.274310	0.676338	-0.508079
C56	C	1.774310	1.176338	-0.008079
C57	C	1.274353	0.764199	-0.508107
C58	C	1.774353	1.264199	-0.008107
C59	C	1.213626	1.135349	-0.562294
C60	C	1.713626	1.635349	-0.062294
C61	C	1.335335	1.136017	-0.454024
C62	C	1.835335	1.636017	0.045976
C63	C	1.335309	1.053469	-0.454012
C64	C	1.835309	1.553469	0.045988
C65	C	1.274439	1.011858	-0.508142
C66	C	1.774439	1.511858	-0.008142
C67	C	1.213596	1.052794	-0.562282
C68	C	1.713596	1.552794	-0.062282
C69	C	1.396145	1.012527	-0.399866
C70	C	1.896145	1.512527	0.100134
C71	C	1.396120	0.929974	-0.399851
C72	C	1.896120	1.429974	0.100149
C73	C	1.335254	0.888361	-0.453986
C74	C	1.835254	1.388361	0.046014
C75	C	1.274409	0.929302	-0.508130
C76	C	1.774409	1.429302	-0.008130
C77	C	1.213540	0.887690	-0.562259
C78	C	1.713540	1.387690	-0.062259
C79	C	1.152698	0.928630	-0.616409
C80	C	1.652698	1.428630	-0.116409
C81	C	1.152730	1.011181	-0.616417
C82	C	1.652730	1.511181	-0.116417
C83	C	1.335223	0.805810	-0.453977
C84	C	1.835223	1.305810	0.046023
C85	C	1.213510	0.805135	-0.562248
C86	C	1.713510	1.305135	-0.062248
C87	C	1.508923	0.483553	-0.521631
C88	C	2.008923	0.983553	-0.021631
C89	C	1.608865	0.488912	-0.527398
C90	C	2.108865	0.988912	-0.027398
C91	C	1.260910	0.482088	-0.742621
C92	C	1.760910	0.982088	-0.242621
C93	C	1.255164	0.486822	-0.842563
C94	C	1.755164	0.986822	-0.342563
C95	C	1.274492	1.264816	-0.508137
C96	C	1.774492	1.764816	-0.008137
C97	C	1.274495	1.176961	-0.508165
C98	C	1.774495	1.676961	-0.008165
C99	C	1.359423	0.400770	-1.037020
C100	C	1.859423	0.900770	-0.537020
C101	C	1.354026	0.405216	-1.130923
C102	C	1.854026	0.905216	-0.630923
C103	C	1.238969	0.500155	-1.124275
C104	C	1.738969	1.000155	-0.624275
C105	C	1.244366	0.495709	-1.030371
C106	C	1.744366	0.995709	-0.530371
C107	C	1.304596	0.446016	-0.986747
C108	C	1.804596	0.946016	-0.486747
C109	C	1.309997	0.441575	-0.892842
C110	C	1.809997	0.941575	-0.392842
C111	C	1.194936	0.536509	-0.886195
C112	C	1.694936	1.036509	-0.386195
C113	C	1.189539	0.540955	-0.980099
C114	C	1.689539	1.040955	-0.480099
C115	C	1.287881	0.459856	-0.274485
C116	C	1.787881	0.959856	0.225515
C117	C	1.293802	0.454908	-0.174554
C118	C	1.793802	0.954908	0.325446
H119	H	0.611611	0.586157	-0.632061
H120	H	1.111611	1.086157	-0.132061
H121	H	1.384887	1.169902	-0.409948
H122	H	1.884887	1.669902	0.090052
H123	H	0.767723	0.346768	-0.374431
H124	H	1.267723	0.846768	0.125569
C125	C	0.952456	0.341334	-0.368581
C126	C	1.452456	0.841334	0.131419
H127	H	1.014635	0.352315	-0.380406
H128	H	1.514635	0.852315	0.119594
H129	H	0.940522	0.349135	-0.307261
H130	H	1.440522	0.849135	0.192739
H131	H	0.936323	0.288048	-0.380963
H132	H	1.436323	0.788048	0.119037
H133	H	1.163946	0.771259	-0.606330
H134	H	1.663946	1.271259	-0.106330
C135	C	1.172720	0.554810	-1.172268
C136	C	1.672720	1.054810	-0.672268
H137	H	1.140833	0.581118	-1.128880
H138	H	1.640833	1.081118	-0.628880
H139	H	1.204992	0.592822	-1.210884
H140	H	1.704992	1.092822	-0.710884
H141	H	1.131449	0.524200	-1.206638
H142	H	1.631449	1.024200	-0.706638
C143	C	0.611097	0.376643	-0.406561
C144	C	1.111097	0.876643	0.093439
H145	H	0.547974	0.380946	-0.411181
H146	H	1.047974	0.880946	0.088819
H147	H	0.625736	0.324998	-0.420689
H148	H	1.125736	0.824998	0.079311
H149	H	0.629943	0.386104	-0.347009
H150	H	1.129943	0.886104	0.152991
H151	H	0.781966	0.595259	-0.641842
H152	H	1.281966	1.095259	-0.141842
H153	H	1.140500	0.581412	-1.015630
H154	H	1.640500	1.081412	-0.515630
C155	C	1.085747	0.882852	-0.675948
C156	C	1.585747	1.382852	-0.175948
H157	H	1.094449	0.827826	-0.668184
H158	H	1.594449	1.327826	-0.168184
H159	H	1.026106	0.892561	-0.659263
H160	H	1.526106	1.392561	-0.159263
H161	H	1.095396	0.899918	-0.737136
H162	H	1.595396	1.399918	-0.237136
C163	C	1.463050	0.884948	-0.340300
C164	C	1.963050	1.384948	0.159700
H165	H	1.499309	0.921555	-0.308070
H166	H	1.999309	1.421555	0.191930
H167	H	1.430936	0.849072	-0.299107
H168	H	1.930936	1.349072	0.200893
H169	H	1.500211	0.856447	-0.376993
H170	H	2.000211	1.356447	0.123007
H171	H	1.103195	1.044521	-0.660502
H172	H	1.603195	1.544521	-0.160502
H173	H	1.164092	1.168686	-0.606384
H174	H	1.664092	1.668686	-0.106384
H175	H	1.445695	1.046412	-0.355789
H176	H	1.945695	1.546412	0.144211
C177	C	1.402140	0.760780	-0.394422
C178	C	1.902140	1.260780	0.105578
H179	H	1.438396	0.797386	-0.362188
H180	H	1.938396	1.297386	0.137812
H181	H	1.370019	0.724906	-0.353233
H182	H	1.870019	1.224906	0.146767
H183	H	1.439305	0.732277	-0.431109
H184	H	1.939305	1.232277	0.068891
H185	H	1.359040	0.401113	-0.857325
H186	H	1.859040	0.901113	-0.357325
C187	C	1.134614	0.586276	-0.830897
C188	C	1.634614	1.086276	-0.330897
H189	H	1.097976	0.616509	-0.870331
H190	H	1.597976	1.116509	-0.370331
H191	H	1.097559	0.552205	-0.792010
H192	H	1.597559	1.052205	-0.292010
H193	H	1.171101	0.620830	-0.796246
H194	H	1.671101	1.120830	-0.296246
C195	C	0.938596	0.565390	-0.609702
C196	C	1.438596	1.065390	-0.109702
H197	H	0.895216	0.594942	-0.641520
H198	H	1.395216	1.094942	-0.141520
H199	H	0.977193	0.600110	-0.577352
H200	H	1.477193	1.100110	-0.077352
H201	H	0.972987	0.539013	-0.651043
H202	H	1.472987	1.039013	-0.151043
H203	H	1.398670	0.368370	-1.171852
H204	H	1.898670	0.868370	-0.671852
C205	C	1.425669	0.346111	-0.989030
C206	C	1.925669	0.846111	-0.489030
H207	H	1.457547	0.319797	-1.032420
H208	H	1.957547	0.819797	-0.532420
H209	H	1.466935	0.376708	-0.954650
H210	H	1.966935	0.876708	-0.454650
H211	H	1.393386	0.308091	-0.950423
H212	H	1.893386	0.808091	-0.450423
