data_functionalizedCrystal
_audit_creation_method	'MofGen! by Chris Wilmer'
_symmetry_space_group_name_H-M	'P1'
_symmetry_Int_Tables_number	1
_symmetry_cell_setting	triclinic
loop_
_symmetry_equiv_pos_as_xyz
  x,y,z
_cell_length_a	25.639239
_cell_length_b	19.077312
_cell_length_c	19.076919
_cell_angle_alpha	94.668947
_cell_angle_beta	92.268407
_cell_angle_gamma	87.744840
loop_
_atom_site_label
_atom_site_type_symbol
_atom_site_fract_x
_atom_site_fract_y
_atom_site_fract_z
Zn1	Zn	-0.250395	1.061567	-0.355259
Zn2	Zn	0.082939	1.394901	-0.021925
Zn3	Zn	0.416272	1.728234	0.311408
Zn4	Zn	-0.334449	1.066194	-0.237374
Zn5	Zn	-0.001115	1.399528	0.095959
Zn6	Zn	0.332218	1.732861	0.429293
Zn7	Zn	-0.243662	0.948427	-0.242127
Zn8	Zn	0.089671	1.281761	0.091207
Zn9	Zn	0.423005	1.615094	0.424540
Zn10	Zn	-0.334427	0.943626	-0.359957
Zn11	Zn	-0.001094	1.276959	-0.026624
Zn12	Zn	0.332240	1.610292	0.306710
O13	O	-0.290733	1.004954	-0.298679
O14	O	0.042600	1.338287	0.034654
O15	O	0.375934	1.671620	0.367988
O16	O	-0.264371	1.160826	-0.335666
O17	O	0.068962	1.494159	-0.002332
O18	O	0.402295	1.827493	0.331001
O19	O	-0.319597	1.054518	-0.139357
O20	O	0.013736	1.387851	0.193976
O21	O	0.347070	1.721185	0.527310
O22	O	-0.171393	0.963509	-0.257156
O23	O	0.161941	1.296842	0.076177
O24	O	0.495274	1.630175	0.409510
O25	O	-0.326125	1.164225	-0.249057
O26	O	0.007208	1.497559	0.084277
O27	O	0.340541	1.830892	0.417610
O28	O	-0.176339	1.046632	-0.340274
O29	O	0.156994	1.379966	-0.006941
O30	O	0.490327	1.713299	0.326393
O31	O	-0.252896	0.967995	-0.142849
O32	O	0.080437	1.301328	0.190485
O33	O	0.413770	1.634662	0.523818
O34	O	-0.252875	0.849145	-0.261712
O35	O	0.080458	1.182479	0.071621
O36	O	0.413791	1.515812	0.404955
O37	O	-0.326089	0.955325	-0.457981
O38	O	0.007245	1.288658	-0.124648
O39	O	0.340578	1.621992	0.208686
O40	O	-0.319560	0.845618	-0.348282
O41	O	0.013773	1.178951	-0.014948
O42	O	0.347107	1.512284	0.318385
O43	O	-0.264350	1.041976	-0.454529
O44	O	0.068983	1.375310	-0.121196
O45	O	0.402316	1.708643	0.212137
O46	O	-0.407608	1.049862	-0.253612
O47	O	-0.074275	1.383195	0.079721
O48	O	0.259059	1.716529	0.413054
O49	O	-0.407592	0.959812	-0.343673
O50	O	-0.074259	1.293145	-0.010340
O51	O	0.259074	1.626478	0.322993
C52	C	-0.285485	0.821804	-0.306023
C53	C	0.047848	1.155137	0.027311
C54	C	0.381181	1.488471	0.360644
C55	C	-0.283253	0.743451	-0.309181
C56	C	0.050080	1.076784	0.024152
C57	C	0.383413	1.410118	0.357485
C58	C	-0.267203	0.302216	-0.331841
C59	C	0.066130	0.635550	0.001492
C60	C	0.399464	0.968883	0.334825
C61	C	-0.269310	0.375837	-0.328870
C62	C	0.064023	0.709171	0.004463
C63	C	0.397357	1.042504	0.337797
C64	C	-0.302458	0.414411	-0.282218
C65	C	0.030875	0.747745	0.051115
C66	C	0.364208	1.081078	0.384448
C67	C	-0.333506	0.379361	-0.238540
C68	C	-0.000172	0.712694	0.094793
C69	C	0.333161	1.046027	0.428126
C70	C	-0.331401	0.305741	-0.241516
C71	C	0.001932	0.639074	0.091817
C72	C	0.335265	0.972408	0.425151
C73	C	-0.312196	0.634781	-0.268479
C74	C	0.021137	0.968114	0.064854
C75	C	0.354470	1.301447	0.398188
C76	C	-0.314297	0.708405	-0.265505
C77	C	0.019036	1.041739	0.067828
C78	C	0.352370	1.375072	0.401162
C79	C	-0.250102	0.704877	-0.355836
C80	C	0.083231	1.038210	-0.022503
C81	C	0.416565	1.371543	0.310831
C82	C	-0.247998	0.631256	-0.358804
C83	C	0.085335	0.964589	-0.025471
C84	C	0.418669	1.297922	0.307862
C85	C	-0.279047	0.596211	-0.315129
C86	C	0.054286	0.929545	0.018204
C87	C	0.387619	1.262878	0.351537
N88	N	-0.304611	0.489664	-0.279178
N89	N	0.028722	0.822997	0.054155
N90	N	0.362055	1.156331	0.387489
N91	N	-0.276897	0.520960	-0.318174
N92	N	0.056437	0.854293	0.015160
N93	N	0.389770	1.187627	0.348493
C94	C	-0.426571	1.004836	-0.298651
C95	C	-0.093238	1.338170	0.034682
C96	C	0.240095	1.671503	0.368015
C97	C	-0.484686	1.004850	-0.298661
C98	C	-0.151353	1.338183	0.034673
C99	C	0.181981	1.671516	0.368006
C100	C	-0.845054	1.051957	-0.251856
C101	C	-0.511721	1.385291	0.081477
C102	C	-0.178387	1.718624	0.414810
C103	C	-0.899659	1.051984	-0.251865
C104	C	-0.566326	1.385318	0.081469
C105	C	-0.232993	1.718651	0.414802
O106	O	-0.927896	1.091916	-0.212039
O107	O	-0.594562	1.425249	0.121294
O108	O	-0.261229	1.758582	0.454627
N109	N	-0.926977	1.005076	-0.298721
N110	N	-0.593644	1.338409	0.034613
N111	N	-0.260310	1.671742	0.367946
C112	C	-0.899687	0.958142	-0.345576
C113	C	-0.566353	1.291475	-0.012243
C114	C	-0.233020	1.624808	0.321090
O115	O	-0.927937	0.918245	-0.385432
O116	O	-0.594603	1.251578	-0.052099
O117	O	-0.261270	1.584912	0.281234
C118	C	-0.845083	0.958119	-0.345571
C119	C	-0.511749	1.291452	-0.012238
C120	C	-0.178416	1.624785	0.321096
C121	C	-0.817767	1.005026	-0.298707
C122	C	-0.484434	1.338359	0.034626
C123	C	-0.151101	1.671692	0.367960
C124	C	-0.817739	1.098861	-0.204997
C125	C	-0.484405	1.432195	0.128337
C126	C	-0.151072	1.765528	0.461670
C127	C	-0.763137	1.098833	-0.204988
C128	C	-0.429804	1.432167	0.128346
C129	C	-0.096470	1.765500	0.461679
C130	C	-0.735851	1.051901	-0.251838
C131	C	-0.402517	1.385235	0.081495
C132	C	-0.069184	1.718568	0.414828
C133	C	-0.763166	1.004998	-0.298698
C134	C	-0.429832	1.338331	0.034635
C135	C	-0.096499	1.671664	0.367969
C136	C	-0.817794	0.911189	-0.392430
C137	C	-0.484460	1.244522	-0.059096
C138	C	-0.151127	1.577855	0.274237
C139	C	-0.763186	0.911170	-0.392420
C140	C	-0.429852	1.244503	-0.059087
C141	C	-0.096519	1.577837	0.274246
C142	C	-0.735871	0.958077	-0.345556
C143	C	-0.402537	1.291410	-0.012223
C144	C	-0.069204	1.624744	0.321110
C145	C	-0.681278	0.958038	-0.345539
C146	C	-0.347944	1.291371	-0.012206
C147	C	-0.014611	1.624705	0.321127
N148	N	-0.653960	1.004947	-0.298683
N149	N	-0.320627	1.338280	0.034650
N150	N	0.012707	1.671613	0.367983
C151	C	-0.681247	1.051878	-0.251833
C152	C	-0.347913	1.385212	0.081501
C153	C	-0.014580	1.718545	0.414834
C154	C	-1.014359	0.958194	-0.345585
C155	C	-0.681026	1.291528	-0.012252
C156	C	-0.347693	1.624861	0.321082
C157	C	-1.068962	0.958213	-0.345588
C158	C	-0.735629	1.291547	-0.012254
C159	C	-0.402295	1.624880	0.321079
C160	C	-1.068931	1.052057	-0.251877
C161	C	-0.735598	1.385391	0.081457
C162	C	-0.402264	1.718724	0.414790
C163	C	-1.014327	1.052034	-0.251871
C164	C	-0.680993	1.385368	0.081462
C165	C	-0.347660	1.718701	0.414795
C166	C	-0.987042	1.005103	-0.298729
C167	C	-0.653708	1.338436	0.034604
C168	C	-0.320375	1.671770	0.367938
C169	C	-0.566579	1.051816	-0.251817
C170	C	-0.233246	1.385149	0.081516
C171	C	0.100088	1.718482	0.414850
C172	C	-0.511973	1.051781	-0.251810
C173	C	-0.178639	1.385115	0.081523
C174	C	0.154694	1.718448	0.414857
C175	C	-0.512009	0.957941	-0.345523
C176	C	-0.178675	1.291274	-0.012190
C177	C	0.154658	1.624607	0.321143
C178	C	-0.566610	0.957972	-0.345528
C179	C	-0.233277	1.291305	-0.012195
C180	C	0.100056	1.624638	0.321139
C181	C	-0.593894	1.004915	-0.298672
C182	C	-0.260561	1.338249	0.034661
C183	C	0.072772	1.671582	0.367994
O184	O	-0.653007	0.918129	-0.385346
O185	O	-0.319673	1.251462	-0.052013
O186	O	0.013660	1.584796	0.281320
O187	O	-0.652990	1.091775	-0.211990
O188	O	-0.319657	1.425108	0.121344
O189	O	0.013676	1.758441	0.454677
C190	C	-0.154365	1.005090	-0.298721
C191	C	0.178968	1.338423	0.034612
C192	C	0.512301	1.671757	0.367945
C193	C	-0.096254	1.005148	-0.298739
C194	C	0.237080	1.338481	0.034594
C195	C	0.570413	1.671815	0.367927
C196	C	-0.295968	0.997599	-0.482549
C197	C	0.037365	1.330932	-0.149215
C198	C	0.370698	1.664266	0.184118
C199	C	-0.298199	0.994465	-0.560903
C200	C	0.035134	1.327798	-0.227570
C201	C	0.368468	1.661132	0.105764
C202	C	-0.296002	1.188818	-0.291307
C203	C	0.037332	1.522152	0.042026
C204	C	0.370665	1.855485	0.375360
C205	C	-0.298247	1.267171	-0.288165
C206	C	0.035086	1.600504	0.045168
C207	C	0.368420	1.933837	0.378501
C208	C	-0.267105	1.038105	-0.595918
C209	C	0.066228	1.371438	-0.262585
C210	C	0.399562	1.704772	0.070749
C211	C	-0.269199	1.035151	-0.669540
C212	C	0.064135	1.368485	-0.336207
C213	C	0.397468	1.701818	-0.002874
C214	C	-0.302390	0.988561	-0.708146
C215	C	0.030943	1.321895	-0.374813
C216	C	0.364277	1.655228	-0.041480
C217	C	-0.333485	0.944916	-0.673126
C218	C	-0.000152	1.278250	-0.339793
C219	C	0.333181	1.611583	-0.006460
C220	C	-0.331388	0.947867	-0.599505
C221	C	0.001945	1.281200	-0.266172
C222	C	0.335278	1.614533	0.067161
C223	C	-0.312106	0.974896	-0.928523
C224	C	0.021227	1.308230	-0.595189
C225	C	0.354561	1.641563	-0.261856
C226	C	-0.314202	0.971951	-1.002149
C227	C	0.019132	1.305284	-0.668815
C228	C	0.352465	1.638618	-0.335482
C229	C	-0.249914	1.062185	-0.998558
C230	C	0.083419	1.395519	-0.665224
C231	C	0.416753	1.728852	-0.331891
C232	C	-0.247822	1.065135	-0.924935
C233	C	0.085511	1.398468	-0.591602
C234	C	0.418844	1.731801	-0.258269
C235	C	-0.278916	1.021487	-0.889922
C236	C	0.054418	1.354821	-0.556588
C237	C	0.387751	1.688154	-0.223255
N238	N	-0.304532	0.985543	-0.783400
N239	N	0.028801	1.318876	-0.450067
N240	N	0.362134	1.652209	-0.116734
N241	N	-0.276770	1.024503	-0.814669
N242	N	0.056563	1.357836	-0.481336
N243	N	0.389896	1.691169	-0.148003
C244	C	-0.285482	1.012320	-0.115523
C245	C	0.047852	1.345653	0.217810
C246	C	0.381185	1.678987	0.551144
C247	C	-0.283107	1.015591	-0.037164
C248	C	0.050226	1.348924	0.296170
C249	C	0.383559	1.682258	0.629503
H250	H	-0.221007	0.599853	-0.396796
H251	H	0.112326	0.933187	-0.063462
H252	H	0.445660	1.266520	0.269871
O253	O	-0.364918	0.900789	-0.561734
O254	O	-0.031585	1.234123	-0.228400
O255	O	0.301749	1.567456	0.104933
H256	H	-0.388351	0.867897	-0.600946
H257	H	-0.055018	1.201230	-0.267612
H258	H	0.278316	1.534563	0.065721
H259	H	-0.243880	1.070689	-0.698046
H260	H	0.089453	1.404023	-0.364713
H261	H	0.422787	1.737356	-0.031380
H262	H	-0.240207	0.270814	-0.369826
H263	H	0.093127	0.604148	-0.036493
H264	H	0.426460	0.937481	0.296841
H265	H	-0.224824	0.733418	-0.391394
H266	H	0.108510	1.066751	-0.058061
H267	H	0.441843	1.400084	0.275272
O268	O	-0.984929	0.907566	-0.396120
O269	O	-0.651595	1.240900	-0.062787
O270	O	-0.318262	1.574233	0.270547
H271	H	-0.958160	0.872985	-0.365970
H272	H	-0.624827	1.206318	-0.032637
H273	H	-0.291494	1.539652	0.300696
O274	O	-0.847158	1.149490	-0.154458
O275	O	-0.513825	1.482823	0.178876
O276	O	-0.180491	1.816156	0.512209
H277	H	-0.873921	1.184088	-0.184597
H278	H	-0.540587	1.517421	0.148737
H279	H	-0.207254	1.850755	0.482070
H280	H	-1.091197	0.920011	-0.383743
H281	H	-0.757864	1.253344	-0.050409
H282	H	-0.424531	1.586677	0.282924
H283	H	-0.244032	0.404368	-0.364438
H284	H	0.089301	0.737701	-0.031105
H285	H	0.422634	1.071034	0.302229
H286	H	-0.240079	1.076046	-0.564490
H287	H	0.093255	1.409379	-0.231157
H288	H	0.426588	1.742713	0.102177
O289	O	-0.984872	1.102639	-0.201333
O290	O	-0.651539	1.435972	0.132001
O291	O	-0.318206	1.769306	0.465334
H292	H	-0.961887	1.137203	-0.231479
H293	H	-0.628554	1.470536	0.101854
H294	H	-0.295220	1.803869	0.435188
H295	H	-0.220796	1.103075	-0.893507
H296	H	0.112537	1.436409	-0.560174
H297	H	0.445871	1.769742	-0.226840
H298	H	-0.840024	0.872989	-0.430588
H299	H	-0.506691	1.206322	-0.097255
H300	H	-0.173357	1.539655	0.236079
O301	O	-0.733755	0.860542	-0.442952
O302	O	-0.400422	1.193876	-0.109619
O303	O	-0.067088	1.527209	0.223714
H304	H	-0.761926	0.827927	-0.475531
H305	H	-0.428593	1.161261	-0.142198
H306	H	-0.095259	1.494594	0.191136
H307	H	-0.224599	1.097720	-1.027074
H308	H	0.108734	1.431053	-0.693740
H309	H	0.442068	1.764386	-0.360407
H310	H	-0.341231	0.934009	-1.033580
H311	H	-0.007898	1.267343	-0.700247
H312	H	0.325435	1.600676	-0.366913
O313	O	-0.345677	0.596993	-0.221360
O314	O	-0.012343	0.930327	0.111973
O315	O	0.320990	1.263660	0.445306
H316	H	-0.387470	0.610619	-0.232768
H317	H	-0.054137	0.943953	0.100565
H318	H	0.279197	1.277286	0.433898
H319	H	-0.360498	0.410774	-0.200558
H320	H	-0.027165	0.744107	0.132775
H321	H	0.306169	1.077440	0.466108
H322	H	-0.341292	0.739811	-0.227514
H323	H	-0.007959	1.073144	0.105819
H324	H	0.325374	1.406478	0.439152
O325	O	-0.345613	0.927786	-0.890763
O326	O	-0.012279	1.261120	-0.557429
O327	O	0.321054	1.594453	-0.224096
H328	H	-0.369037	0.894887	-0.929979
H329	H	-0.035704	1.228220	-0.596646
H330	H	0.297630	1.561553	-0.263312
H331	H	-0.360508	0.906979	-0.704565
H332	H	-0.027175	1.240312	-0.371232
H333	H	0.306158	1.573646	-0.037899
H334	H	-0.356682	0.277208	-0.205952
H335	H	-0.023348	0.610541	0.127382
H336	H	0.309985	0.943875	0.460715
H337	H	-0.489734	1.089979	-0.213645
H338	H	-0.156401	1.423312	0.119688
H339	H	0.176933	1.756645	0.453021
H340	H	-0.588787	1.090043	-0.213664
H341	H	-0.255454	1.423376	0.119669
H342	H	0.077879	1.756710	0.453003
H343	H	-0.740900	1.137031	-0.166829
H344	H	-0.407567	1.470364	0.166504
H345	H	-0.074234	1.803697	0.499838
O346	O	-0.596077	0.907380	-0.396070
O347	O	-0.262744	1.240713	-0.062737
O348	O	0.070590	1.574047	0.270596
H349	H	-0.567927	0.874743	-0.428649
H350	H	-0.234594	1.208077	-0.095315
H351	H	0.098740	1.541410	0.238018
O352	O	-1.098366	1.102692	-0.201354
O353	O	-0.765033	1.436025	0.131979
O354	O	-0.431700	1.769359	0.465313
H355	H	-1.140925	1.094832	-0.209244
H356	H	-0.807591	1.428165	0.124090
H357	H	-0.474258	1.761498	0.457423
O358	O	-0.482574	0.907325	-0.396058
O359	O	-0.149241	1.240658	-0.062724
O360	O	0.184093	1.573992	0.270609
H361	H	-0.440017	0.915197	-0.388180
H362	H	-0.106683	1.248531	-0.054847
H363	H	0.226650	1.581864	0.278487
