data_functionalizedCrystal
_audit_creation_method	'MofGen! by Chris Wilmer'
_symmetry_space_group_name_H-M	'P1'
_symmetry_Int_Tables_number	1
_symmetry_cell_setting	triclinic
loop_
_symmetry_equiv_pos_as_xyz
  x,y,z
_cell_length_a	14.853566
_cell_length_b	23.532357
_cell_length_c	13.330367
_cell_angle_alpha	89.989812
_cell_angle_beta	89.995295
_cell_angle_gamma	83.231353
loop_
_atom_site_label
_atom_site_type_symbol
_atom_site_fract_x
_atom_site_fract_y
_atom_site_fract_z
O1	O	1.195535	0.074351	-0.083370
O2	O	0.932976	0.083209	-0.083388
O3	O	1.072197	-0.004119	-0.083358
O4	O	1.056315	0.161679	-0.083400
O5	O	1.072177	-0.004121	0.083489
O6	O	0.932956	0.083207	0.083459
O7	O	1.195515	0.074349	0.083477
Cu8	Cu	1.064234	0.078778	0.098703
Cu9	Cu	1.064258	0.078780	-0.098613
O10	O	1.056295	0.161677	0.083447
C11	C	0.899382	0.082807	0.000034
C12	C	0.799312	0.081605	0.000028
C13	C	0.376195	0.076520	-0.090902
C14	C	0.376194	0.076518	0.091001
C15	C	0.470216	0.077647	0.090998
C16	C	0.517231	0.078214	0.000043
C17	C	0.470225	0.077651	-0.090908
C18	C	0.517228	0.078216	0.181948
C19	C	0.611255	0.079346	0.181948
C20	C	0.658272	0.079908	0.090992
C21	C	0.611261	0.079345	0.000037
C22	C	0.658276	0.079911	-0.090918
C23	C	0.611266	0.079343	-0.181874
C24	C	0.517242	0.078213	-0.181864
C25	C	0.752297	0.081038	0.090982
C26	C	0.752305	0.081042	-0.090924
C27	C	1.071789	-0.025338	0.000069
C28	C	1.070595	-0.088562	0.000078
C29	C	1.063108	-0.480605	-0.090925
C30	C	1.061972	-0.540009	-0.090931
O31	O	1.061364	-0.570727	-0.168279
N32	N	1.061398	-0.569724	0.000017
C33	C	1.061951	-0.540031	0.090975
O34	O	1.061357	-0.570760	0.168332
C35	C	1.063080	-0.480627	0.090980
C36	C	1.063663	-0.450916	0.000027
C37	C	1.063690	-0.450894	-0.181870
C38	C	1.064827	-0.391494	-0.181864
C39	C	1.065382	-0.361805	-0.090912
C40	C	1.064800	-0.391516	0.000033
C41	C	1.063625	-0.450934	0.181938
C42	C	1.064754	-0.391526	0.181935
C43	C	1.065337	-0.361815	0.090982
C44	C	1.066492	-0.302426	0.090991
N45	N	1.067066	-0.272712	0.000044
C46	C	1.066511	-0.302401	-0.090908
C47	C	1.059578	-0.664782	0.090958
C48	C	1.058456	-0.724186	0.090955
C49	C	1.058476	-0.724160	-0.090952
C50	C	1.059605	-0.664756	-0.090947
C51	C	1.060152	-0.635068	0.000011
C52	C	1.068899	-0.177656	-0.090888
C53	C	1.070040	-0.118251	-0.090874
C54	C	1.070015	-0.118281	0.091032
C55	C	1.068879	-0.177682	0.091018
C56	C	1.068318	-0.207367	0.000050
O57	O	1.067097	-0.271670	0.168300
O58	O	1.067092	-0.271663	-0.168252
C59	C	1.229109	0.074751	0.000053
C60	C	1.329180	0.075954	0.000053
C61	C	1.056702	0.182897	0.000018
C62	C	1.057896	0.246120	0.000002
N63	N	1.064224	0.078776	0.237484
N64	N	1.064275	0.078778	-0.237395
C65	C	1.002608	0.117434	0.710094
C66	C	1.125931	0.040122	0.710088
C67	C	1.125921	0.040120	0.605070
C68	C	1.064254	0.078777	0.552559
C69	C	1.002598	0.117435	0.605066
C70	C	1.187582	0.001467	0.552555
C71	C	1.187575	0.001464	0.447531
C72	C	1.125904	0.040118	0.395017
C73	C	1.064244	0.078777	0.447531
C74	C	1.002577	0.117433	0.395019
C75	C	0.940913	0.156090	0.447531
C76	C	0.940926	0.156089	0.552552
C77	C	1.125890	0.040120	0.289996
C78	C	1.002567	0.117434	0.289991
H79	H	0.337916	0.076056	-0.164956
H80	H	1.063235	-0.475060	-0.255938
Cl81	Cl	1.203458	-0.008469	0.776100
Cl82	Cl	0.925034	0.166030	0.223985
H83	H	1.065298	-0.367308	-0.255928
Cl84	Cl	0.863398	0.204689	0.381505
H85	H	0.478959	0.077750	-0.255915
Cl86	Cl	0.863414	0.204684	0.618569
H87	H	1.063152	-0.475114	0.256002
H88	H	1.070517	-0.094063	-0.164942
H89	H	1.237785	-0.030013	0.404782
H90	H	1.060027	-0.640614	0.165032
H91	H	0.478940	0.077759	0.255998
H92	H	1.060078	-0.640570	-0.165009
Cl93	Cl	0.925087	0.166027	0.776102
H94	H	1.057995	-0.748372	0.165018
Cl95	Cl	0.317087	0.075813	0.205338
H96	H	0.790579	0.081501	-0.164991
Cl97	Cl	0.670344	0.080057	0.296290
Cl98	Cl	1.065443	-0.354207	0.296290
H99	H	1.070471	-0.094098	0.165083
Cl100	Cl	0.670381	0.080059	-0.296212
Cl101	Cl	1.068196	-0.214966	-0.205249
Cl102	Cl	0.811389	0.081756	0.205317
Cl103	Cl	1.057771	-0.761494	-0.205292
Cl104	Cl	1.068163	-0.215035	0.205361
H105	H	1.237794	-0.030003	0.595313
Cl106	Cl	1.203411	-0.008470	0.223988
