data_functionalizedCrystal
_audit_creation_method	'MofGen! by Chris Wilmer'
_symmetry_space_group_name_H-M	'P1'
_symmetry_Int_Tables_number	1
_symmetry_cell_setting	triclinic
loop_
_symmetry_equiv_pos_as_xyz
  x,y,z
_cell_length_a	6.817900
_cell_length_b	14.125469
_cell_length_c	16.305550
_cell_angle_alpha	95.884114
_cell_angle_beta	103.455250
_cell_angle_gamma	100.398878
loop_
_atom_site_label
_atom_site_type_symbol
_atom_site_fract_x
_atom_site_fract_y
_atom_site_fract_z
V1	V	-4.010572	-0.133925	-0.262704
O2	O	-4.014497	0.005600	-0.258038
O3	O	-3.946712	-0.264747	-0.260584
O4	O	-3.962176	-0.132231	-0.377425
O5	O	-3.998925	-0.127833	-0.140389
V6	V	-4.496202	-0.117193	-0.248113
O7	O	-4.267207	-0.170628	-0.294709
O8	O	-4.689764	-0.080489	-0.216107
O9	O	-4.336856	0.013629	-0.250232
O10	O	-4.609674	-0.256718	-0.252778
O11	O	-4.625245	-0.123285	-0.370428
O12	O	-4.321392	-0.118886	-0.133392
C13	C	-3.787951	-0.296627	-0.256357
C14	C	-3.817025	-0.403578	-0.255389
C15	C	-3.870323	-0.599398	-0.253629
C16	C	-4.055817	-0.651731	-0.257190
C17	C	-4.085475	-0.760692	-0.256211
C18	C	-3.840658	-0.490427	-0.254608
C19	C	-3.807677	-0.127589	-0.405397
C20	C	-3.849289	-0.127070	-0.499180
C21	C	-4.000611	-0.125059	-0.839931
C22	C	-3.765262	-0.119090	-0.799017
C23	C	-3.721959	-0.120028	-0.701520
C24	C	-3.925537	-0.126056	-0.670880
C25	C	-4.081450	-0.221074	-0.721274
C26	C	-4.123376	-0.220536	-0.818825
C27	C	-4.065699	-0.036771	-0.794304
C28	C	-4.017858	-0.036019	-0.696463
C29	C	-3.883121	-0.126623	-0.575341
C30	C	-4.043036	-0.124499	-0.935471
C31	C	-4.158957	0.045504	-0.254457
C32	C	-4.109122	0.152455	-0.255431
C33	C	-4.139232	-0.123532	-0.105415
C34	C	-4.076859	-0.124046	-0.011631
H35	H	-3.603457	-0.051711	-0.666663
H36	H	-3.733802	-0.636425	-0.249844
Br37	Br	-3.598741	-0.226976	-0.674094
H38	H	-3.667157	-0.050450	-0.811548
Br39	Br	-4.050103	-0.331935	-0.869195
Br40	Br	-3.677721	-0.224813	-0.851274
H41	H	-4.018192	-0.287928	-0.704298
H42	H	-4.192349	-0.614702	-0.260973
Br43	Br	-4.411477	-0.234401	-0.865448
H44	H	-4.233687	-0.228922	-0.702342
Br45	Br	-3.927412	0.083225	-0.816881
Br46	Br	-3.829811	0.081124	-0.639459
Br47	Br	-4.263571	-0.034037	-0.660879
H48	H	-4.237352	-0.040300	-0.821111
