data_functionalizedCrystal
_audit_creation_method	'MofGen! by Chris Wilmer'
_symmetry_space_group_name_H-M	'P1'
_symmetry_Int_Tables_number	1
_symmetry_cell_setting	triclinic
loop_
_symmetry_equiv_pos_as_xyz
  x,y,z
_cell_length_a	15.995300
_cell_length_b	14.971506
_cell_length_c	13.448316
_cell_angle_alpha	89.994977
_cell_angle_beta	89.991653
_cell_angle_gamma	83.547098
loop_
_atom_site_label
_atom_site_type_symbol
_atom_site_fract_x
_atom_site_fract_y
_atom_site_fract_z
O1	O	1.111137	0.115080	-0.082725
O2	O	0.867372	0.129364	-0.082718
O3	O	0.995779	-0.007985	-0.082719
O4	O	0.982730	0.252430	-0.082724
O5	O	0.995763	-0.007994	0.082665
O6	O	0.867355	0.129356	0.082665
O7	O	1.111121	0.115072	0.082659
Cu8	Cu	0.989237	0.122213	0.097763
Cu9	Cu	0.989256	0.122223	-0.097822
O10	O	0.982714	0.252421	0.082660
C11	C	0.836167	0.128777	-0.000026
C12	C	0.743213	0.127031	-0.000023
C13	C	0.573026	0.123805	-0.000031
C14	C	0.525665	0.221601	-0.000030
C15	C	0.428975	0.219817	-0.000408
C16	C	0.405466	0.120631	-0.000037
C17	C	0.446556	0.072115	-0.094292
C18	C	0.543192	0.074590	-0.094369
C19	C	0.543452	0.073133	0.093710
C20	C	0.446507	0.073142	0.094946
C21	C	0.310769	0.118831	-0.000044
C22	C	0.667724	0.125602	-0.000031
C23	C	0.995185	-0.041313	-0.000029
C24	C	0.993427	-0.140607	-0.000033
C25	C	1.142325	0.115658	-0.000036
C26	C	1.235280	0.117405	-0.000045
C27	C	1.062155	-0.578981	-0.000034
C28	C	1.063800	-0.485683	-0.000028
C29	C	0.988356	-0.428363	-0.000029
C30	C	0.911261	-0.464344	-0.000027
C31	C	0.909617	-0.557641	-0.000026
C32	C	0.914694	-0.269886	-0.000031
C33	C	0.916338	-0.176583	-0.000034
C34	C	1.068877	-0.197928	-0.000033
C35	C	1.067233	-0.291225	-0.000032
C36	C	0.990138	-0.327200	-0.000032
C37	C	0.983308	0.285749	-0.000033
C38	C	0.985066	0.385043	-0.000035
N39	N	0.989230	0.122205	0.235327
N40	N	0.989270	0.122223	-0.235387
C41	C	1.046106	0.061412	0.287367
C42	C	1.046111	0.061411	0.391471
C43	C	0.989243	0.122209	0.443532
C44	C	0.932361	0.183005	0.391485
C45	C	0.932352	0.183001	0.287383
C46	C	0.932384	0.183011	0.608465
C47	C	0.932393	0.183017	0.712573
C48	C	1.046143	0.061421	0.712552
C49	C	1.046135	0.061417	0.608451
C50	C	0.989253	0.122215	0.556411
H51	H	0.561556	0.109562	-0.165094
H52	H	0.886085	0.232524	0.754956
C53	C	0.828271	-0.401288	-0.000031
N54	N	0.765762	-0.353795	-0.000040
H55	H	1.126573	-0.456397	-0.000026
H56	H	0.419199	0.108570	0.164678
H57	H	0.846843	-0.586930	-0.000019
H58	H	1.123591	-0.625646	-0.000041
C59	C	1.108692	-0.005463	0.551185
N60	N	1.155809	-0.055841	0.508053
H61	H	0.854904	-0.129914	-0.000029
C62	C	1.150225	-0.354276	-0.000025
N63	N	1.212737	-0.401767	-0.000013
C64	C	1.108711	-0.005460	0.769798
N65	N	1.155836	-0.055832	0.812920
C66	C	0.869802	0.249883	0.551223
N67	N	0.822666	0.300250	0.508109
H68	H	0.886053	0.232505	0.433879
C69	C	0.425674	-0.024551	0.103022
N70	N	0.409982	-0.098136	0.109098
H71	H	1.092424	0.011908	0.433841
H72	H	1.092418	0.011907	0.244986
C73	C	0.869790	0.249886	0.230140
N74	N	0.822667	0.300266	0.187025
C75	C	0.586285	-0.024274	0.094940
N76	N	0.618550	-0.097639	0.095858
H77	H	0.544192	0.260899	0.067550
C78	C	0.390563	0.271350	0.090827
N79	N	0.361633	0.310182	0.159539
H80	H	0.545322	0.260321	-0.067521
H81	H	1.131651	-0.168633	-0.000124
H82	H	0.575389	0.002778	-0.098395
H83	H	0.851915	-0.299173	-0.000017
H84	H	0.401175	0.257781	-0.068369
H85	H	0.432379	-0.000764	-0.097531
H86	H	0.563979	0.105326	0.165173
H87	H	0.418213	0.105383	-0.164702
