data_functionalizedCrystal
_audit_creation_method	'MofGen! by Chris Wilmer'
_symmetry_space_group_name_H-M	'P1'
_symmetry_Int_Tables_number	1
_symmetry_cell_setting	triclinic
loop_
_symmetry_equiv_pos_as_xyz
  x,y,z
_cell_length_a	27.732048
_cell_length_b	27.732048
_cell_length_c	26.210047
_cell_angle_alpha	90.024823
_cell_angle_beta	89.996010
_cell_angle_gamma	82.642655
loop_
_atom_site_label
_atom_site_type_symbol
_atom_site_fract_x
_atom_site_fract_y
_atom_site_fract_z
O1	O	0.640924	0.057528	0.042369
O2	O	0.500130	0.066273	0.042385
O3	O	0.574900	-0.008496	0.042367
O4	O	0.566154	0.132297	0.042387
O5	O	0.574900	-0.008520	-0.042491
O6	O	0.500131	0.066249	-0.042473
O7	O	0.640924	0.057504	-0.042489
Cu8	Cu	0.570528	0.061874	-0.050229
Cu9	Cu	0.570527	0.061903	0.050125
O10	O	0.566155	0.132273	-0.042471
C11	C	0.482124	0.066078	-0.000042
C12	C	0.428469	0.065525	-0.000036
C13	C	0.089654	0.106229	-0.000053
C14	C	-0.112006	0.104178	-0.000057
O15	O	-0.143262	0.141398	-0.000074
N16	N	-0.131130	0.059843	-0.000063
C17	C	-0.099835	0.016017	-0.000071
O18	O	-0.120728	-0.021740	-0.000081
C19	C	0.101824	0.018068	-0.000069
C20	C	0.120944	0.062407	-0.000059
C21	C	0.108775	0.150563	-0.000043
C22	C	0.159187	0.151075	-0.000039
C23	C	0.190477	0.107253	-0.000045
C24	C	0.171356	0.062919	-0.000055
C25	C	0.133117	-0.025757	-0.000081
C26	C	0.183535	-0.025240	-0.000082
C27	C	0.202655	0.019098	-0.000071
C28	C	0.253059	0.019609	-0.000057
N29	N	0.272183	0.063944	-0.000051
C30	C	0.240892	0.107766	-0.000045
C31	C	-0.205709	0.014943	-0.000070
C32	C	-0.256124	0.014430	-0.000070
C33	C	-0.268291	0.102591	-0.000057
C34	C	-0.217876	0.103103	-0.000054
C35	C	-0.186585	0.059278	-0.000065
C36	C	0.346761	0.108839	-0.000036
C37	C	0.397178	0.109347	-0.000030
C38	C	0.409341	0.021186	-0.000045
C39	C	0.358929	0.020678	-0.000049
C40	C	0.327639	0.064508	-0.000046
O41	O	0.284343	-0.017592	-0.000046
O42	O	0.261794	0.145518	-0.000047
C43	C	0.039242	0.105716	-0.000057
C44	C	0.020120	0.061382	-0.000067
C45	C	0.051411	0.017560	-0.000073
C46	C	-0.030294	0.060869	-0.000066
C47	C	-0.061585	0.104691	-0.000060
C48	C	-0.042461	0.149026	-0.000054
C49	C	0.007951	0.149539	-0.000050
C50	C	0.032287	-0.026775	-0.000078
C51	C	-0.018125	-0.027284	-0.000082
C52	C	-0.049416	0.016538	-0.000076
C53	C	0.574716	-0.026515	-0.000064
C54	C	0.574164	-0.080170	-0.000068
C55	C	0.614867	-0.418985	-0.000046
C56	C	0.612816	-0.620645	-0.000039
O57	O	0.650037	-0.651900	-0.000021
N58	N	0.568481	-0.639768	-0.000034
C59	C	0.524656	-0.608474	-0.000028
O60	O	0.486899	-0.629367	-0.000019
C61	C	0.526707	-0.406815	-0.000032
C62	C	0.571045	-0.387694	-0.000042
C63	C	0.659202	-0.399864	-0.000056
C64	C	0.659714	-0.349452	-0.000060
C65	C	0.615892	-0.318161	-0.000056
C66	C	0.571557	-0.337282	-0.000046
C67	C	0.482882	-0.375521	-0.000022
C68	C	0.483399	-0.325104	-0.000022
C69	C	0.527737	-0.305983	-0.000032
C70	C	0.528248	-0.255580	-0.000046
N71	N	0.572583	-0.236456	-0.000051
C72	C	0.616405	-0.267747	-0.000056
C73	C	0.523582	-0.714348	-0.000027
C74	C	0.523069	-0.764762	-0.000027
C75	C	0.611230	-0.776930	-0.000037
C76	C	0.611742	-0.726514	-0.000041
C77	C	0.567917	-0.695224	-0.000032
C78	C	0.617477	-0.161878	-0.000066
C79	C	0.617986	-0.111461	-0.000073
C80	C	0.529825	-0.099298	-0.000060
C81	C	0.529316	-0.149710	-0.000056
C82	C	0.573147	-0.180999	-0.000057
O83	O	0.491047	-0.224296	-0.000059
O84	O	0.654156	-0.246844	-0.000054
C85	C	0.614355	-0.469397	-0.000042
C86	C	0.570021	-0.488518	-0.000033
C87	C	0.526198	-0.457228	-0.000028
C88	C	0.569508	-0.538933	-0.000033
C89	C	0.613330	-0.570223	-0.000037
C90	C	0.657665	-0.551100	-0.000042
C91	C	0.658177	-0.500688	-0.000046
C92	C	0.481863	-0.476351	-0.000023
C93	C	0.481355	-0.526764	-0.000019
C94	C	0.525177	-0.558054	-0.000024
C95	C	0.658931	0.057699	-0.000061
C96	C	0.712586	0.058252	-0.000064
C97	C	0.566338	0.150292	-0.000040
C98	C	0.566891	0.203947	-0.000032
N99	N	0.570527	0.061920	0.120709
N100	N	0.570532	0.061854	-0.120813
C101	C	0.541500	0.032699	0.473222
C102	C	0.541501	0.032684	0.686880
O103	O	0.516826	0.007852	0.714501
N104	N	0.570533	0.061862	0.713603
C105	C	0.599569	0.091044	0.686907
O106	O	0.624266	0.115858	0.714539
C107	C	0.599570	0.091056	0.473250
C108	C	0.570533	0.061880	0.446530
C109	C	0.512465	0.003525	0.446502
C110	C	0.512463	0.003531	0.393091
C111	C	0.541496	0.032712	0.366399
C112	C	0.570531	0.061886	0.393119
C113	C	0.628608	0.120235	0.446555
C114	C	0.628607	0.120234	0.393137
C115	C	0.599570	0.091058	0.366418
C116	C	0.599561	0.091072	0.313015
N117	N	0.570530	0.061894	0.286293
C118	C	0.541497	0.032714	0.312985
C119	C	0.599565	0.091036	0.799081
C120	C	0.599564	0.091034	0.852495
C121	C	0.541497	0.032674	0.852464
C122	C	0.541496	0.032679	0.799049
C123	C	0.570533	0.061858	0.772358
C124	C	0.541495	0.032729	0.200817
C125	C	0.541494	0.032739	0.147401
C126	C	0.599563	0.091098	0.147436
C127	C	0.599562	0.091090	0.200847
C128	C	0.570527	0.061901	0.227537
O129	O	0.624227	0.115887	0.285361
O130	O	0.516812	0.007896	0.285344
C131	C	0.541502	0.032693	0.526633
C132	C	0.570537	0.061868	0.553353
C133	C	0.599569	0.091048	0.526661
C134	C	0.570536	0.061865	0.606767
C135	C	0.541503	0.032685	0.633459
C136	C	0.512471	0.003507	0.606737
C137	C	0.512469	0.003513	0.553325
C138	C	0.628601	0.120226	0.553384
C139	C	0.628600	0.120218	0.606795
C140	C	0.599567	0.091038	0.633487
H141	H	0.434827	-0.014492	-0.000048
H142	H	0.623212	0.114799	0.777354
H143	H	0.412743	0.145454	-0.000021
H144	H	0.652255	0.143992	0.468301
O145	O	0.177695	0.194179	0.000036
C146	C	0.182710	0.269692	0.044024
C147	C	0.161717	0.220896	0.043998
H148	H	0.169809	0.291302	0.079569
H149	H	0.169780	0.291348	0.008538
H150	H	0.224118	0.262534	0.044000
H151	H	0.120309	0.228010	0.044041
H152	H	0.174685	0.199256	0.079481
O153	O	0.654799	-0.707920	-0.000136
C154	C	0.706540	-0.658064	-0.044084
C155	C	0.657763	-0.679094	-0.044048
H156	H	0.708947	-0.634746	-0.079578
H157	H	0.737789	-0.689074	-0.044122
H158	H	0.708979	-0.634774	-0.008554
H159	H	0.655276	-0.702379	-0.079573
H160	H	0.626537	-0.648061	-0.043985
O161	O	0.513275	0.004350	0.121524
C162	C	0.455637	-0.053492	0.127138
C163	C	0.487578	-0.021375	0.156504
H164	H	0.434845	-0.074292	0.155407
H165	H	0.479635	-0.080359	0.102145
H166	H	0.428757	-0.029573	0.102115
H167	H	0.514462	-0.045256	0.181555
H168	H	0.463549	0.005496	0.181465
H169	H	0.493213	-0.165279	-0.000062
H170	H	0.694889	-0.425336	-0.000058
O171	O	0.656872	0.148548	0.527517
C172	C	0.738028	0.167017	0.511166
C173	C	0.706067	0.134911	0.540497
H174	H	0.777810	0.155996	0.521642
H175	H	0.726916	0.206775	0.521708
H176	H	0.733019	0.162025	0.468401
H177	H	0.711060	0.139860	0.583269
H178	H	0.717188	0.095165	0.529913
H179	H	0.654093	-0.095896	-0.000082
H180	H	0.694282	-0.485125	-0.000054
O181	O	0.656827	0.148626	0.367290
C182	C	0.714450	0.206482	0.372962
C183	C	0.682506	0.174361	0.402296
H184	H	0.735227	0.227291	0.401252
H185	H	0.690454	0.233342	0.347986
H186	H	0.741342	0.182564	0.347926
H187	H	0.655609	0.198241	0.427361
H188	H	0.706532	0.147499	0.427240
H189	H	0.343360	-0.015426	-0.000050
O190	O	-0.036638	-0.070388	-0.000023
C191	C	-0.041683	-0.145877	0.043932
C192	C	-0.020679	-0.097086	0.043930
H193	H	-0.028798	-0.167472	0.079470
H194	H	-0.028746	-0.167552	0.008439
H195	H	-0.083090	-0.138711	0.043904
H196	H	0.020728	-0.104208	0.043976
H197	H	-0.033655	-0.075427	0.079420
H198	H	0.653168	-0.187348	-0.000065
H199	H	0.321291	0.144529	-0.000036
O200	O	0.438238	-0.545254	0.000012
C201	C	0.350850	-0.527850	0.000002
C202	C	0.399642	-0.506848	-0.000028
H203	H	0.319632	-0.496810	-0.000042
H204	H	0.348373	-0.551111	0.035527
H205	H	0.348426	-0.551184	-0.035499
H206	H	0.402099	-0.483493	0.035448
H207	H	0.402098	-0.483615	-0.035577
H208	H	-0.293777	0.138273	-0.000053
O209	O	0.487214	-0.068966	-0.000074
C210	C	0.399716	-0.062203	-0.000016
C211	C	0.447937	-0.096611	-0.000018
H212	H	0.367948	-0.084541	0.000040
H213	H	0.397715	-0.038318	-0.035536
H214	H	0.397788	-0.038274	0.035490
H215	H	0.449897	-0.120571	-0.035500
H216	H	0.449917	-0.120463	0.035525
O217	O	0.439304	-0.445940	0.000070
C218	C	0.388717	-0.381923	0.044013
C219	C	0.436931	-0.416340	0.043980
H220	H	0.386787	-0.357976	0.079505
H221	H	0.356927	-0.404233	0.044050
H222	H	0.386757	-0.358057	0.008481
H223	H	0.438939	-0.440214	0.079506
H224	H	0.468698	-0.394001	0.043916
H225	H	0.517851	0.008961	0.222541
H226	H	0.623200	0.114854	0.222604
O227	O	0.513279	0.004290	0.773174
C228	C	0.455648	-0.053558	0.778795
C229	C	0.487588	-0.021437	0.808158
H230	H	0.434860	-0.074359	0.807066
H231	H	0.479646	-0.080424	0.753801
H232	H	0.428764	-0.029640	0.753774
H233	H	0.514476	-0.045316	0.833207
H234	H	0.463559	0.005432	0.833120
H235	H	0.623199	0.114857	0.125694
H236	H	0.693347	-0.576585	-0.000048
H237	H	0.488830	-0.020251	0.628478
O238	O	0.440794	-0.294758	0.000054
C239	C	0.365615	-0.268895	0.044045
C240	C	0.413840	-0.303295	0.044018
H241	H	0.343814	-0.275778	0.079592
H242	H	0.343742	-0.275829	0.008562
H243	H	0.373606	-0.229580	0.044017
H244	H	0.405894	-0.342622	0.044065
H245	H	0.435699	-0.296319	0.079499
H246	H	0.695819	-0.333889	-0.000066
H247	H	-0.271687	-0.021674	-0.000070
H248	H	0.646911	-0.802415	-0.000041
O249	O	0.627812	0.119393	0.878368
C250	C	0.685386	0.177298	0.872746
C251	C	0.653424	0.145198	0.843384
H252	H	0.706094	0.198178	0.844474
H253	H	0.712333	0.153406	0.897725
H254	H	0.661363	0.204101	0.897782
H255	H	0.677408	0.118390	0.818320
H256	H	0.626474	0.169120	0.818438
O257	O	0.484252	-0.024876	0.527451
C258	C	0.426617	-0.082720	0.533075
C259	C	0.458558	-0.050599	0.562436
H260	H	0.405827	-0.103517	0.561348
H261	H	0.450615	-0.109588	0.508084
H262	H	0.399735	-0.058803	0.508052
H263	H	0.485444	-0.074477	0.587488
H264	H	0.434530	-0.023726	0.587395
H265	H	-0.180236	-0.020747	-0.000079
H266	H	0.652245	0.143982	0.628546
H267	H	0.083302	0.186251	-0.000039
H268	H	-0.202311	0.139207	-0.000049
H269	H	0.517856	0.008915	0.874206
H270	H	0.209009	-0.060929	-0.000091
H271	H	0.117558	-0.061861	-0.000090
H272	H	0.023514	0.185643	-0.000042
H273	H	-0.067947	0.184708	-0.000047
H274	H	0.446777	-0.391080	-0.000011
O275	O	0.479956	-0.783252	-0.000001
C276	C	0.392567	-0.765849	-0.000018
C277	C	0.441359	-0.744847	-0.000040
H278	H	0.361349	-0.734809	-0.000061
H279	H	0.390088	-0.789114	0.035504
H280	H	0.390146	-0.789179	-0.035522
H281	H	0.443813	-0.721496	0.035439
H282	H	0.443818	-0.721610	-0.035586
H283	H	0.487892	-0.688875	-0.000020
O284	O	0.062700	-0.069334	-0.000171
C285	C	0.126707	-0.119932	-0.044111
C286	C	0.092287	-0.071719	-0.044081
H287	H	0.150644	-0.121872	-0.079603
H288	H	0.104399	-0.151723	-0.044148
H289	H	0.150583	-0.121879	-0.008578
H290	H	0.068404	-0.069725	-0.079607
H291	H	0.114624	-0.039951	-0.044017
O292	O	0.484249	-0.024859	0.367216
C293	C	0.426619	-0.082709	0.372837
C294	C	0.458556	-0.050585	0.402199
H295	H	0.405830	-0.103509	0.401108
H296	H	0.450620	-0.109576	0.347845
H297	H	0.399736	-0.058794	0.347813
H298	H	0.485444	-0.074462	0.427251
H299	H	0.434525	-0.023716	0.427159
H300	H	0.488823	-0.020240	0.468229
