data_functionalizedCrystal
_audit_creation_method	'MofGen! by Chris Wilmer'
_symmetry_space_group_name_H-M	'P1'
_symmetry_Int_Tables_number	1
_symmetry_cell_setting	triclinic
loop_
_symmetry_equiv_pos_as_xyz
  x,y,z
_cell_length_a	10.686220
_cell_length_b	16.959453
_cell_length_c	10.685880
_cell_angle_alpha	94.336133
_cell_angle_beta	89.641569
_cell_angle_gamma	94.401879
loop_
_atom_site_label
_atom_site_type_symbol
_atom_site_fract_x
_atom_site_fract_y
_atom_site_fract_z
Zn1	Zn	1.972219	-0.246740	-0.562349
Zn2	Zn	1.955984	-0.369653	-0.352585
Zn3	Zn	1.746349	-0.248351	-0.368672
Zn4	Zn	1.762398	-0.389744	-0.578355
O5	O	1.859238	-0.313622	-0.465490
O6	O	2.145610	-0.253962	-0.521093
O7	O	1.914664	-0.345828	-0.179179
O8	O	1.776389	-0.137524	-0.394397
O9	O	2.133682	-0.344266	-0.366980
O10	O	1.942335	-0.136341	-0.536692
O11	O	1.760646	-0.256708	-0.190998
O12	O	1.572934	-0.276189	-0.409918
O13	O	1.803743	-0.378508	-0.751772
O14	O	1.584725	-0.380070	-0.563971
O15	O	1.957898	-0.273444	-0.740013
O16	O	1.930227	-0.482931	-0.382500
O17	O	1.788000	-0.497692	-0.548373
C18	C	1.533313	-0.330485	-0.490428
C19	C	1.393883	-0.337720	-0.501125
C20	C	1.859129	-0.518992	-0.465453
C21	C	1.859201	-0.606846	-0.465469
C22	C	1.945760	-0.977647	-0.539727
C23	C	1.773080	-0.978984	-0.391414
C24	C	1.773031	-0.896439	-0.391389
C25	C	1.859347	-0.854495	-0.465535
C26	C	1.945712	-0.895095	-0.539707
C27	C	1.686660	-0.855834	-0.317228
C28	C	1.686606	-0.773284	-0.317201
C29	C	1.772929	-0.731337	-0.391341
C30	C	1.859298	-0.771942	-0.465515
C31	C	1.945614	-0.729998	-0.539661
C32	C	2.031990	-0.770601	-0.613829
C33	C	2.032035	-0.853148	-0.613847
C34	C	1.772885	-0.648790	-0.391323
C35	C	1.945566	-0.647446	-0.539641
C36	C	2.186435	-0.296693	-0.440457
C37	C	2.325867	-0.289479	-0.429789
C38	C	1.884422	-0.328037	-0.792681
C39	C	1.895154	-0.334181	-0.932110
C40	C	1.859382	-0.107450	-0.465553
C41	C	1.859444	-0.019592	-0.465580
C42	C	1.834224	-0.299202	-0.139567
C43	C	1.823735	-0.292824	-0.000120
H44	H	1.374303	-0.242644	-0.360529
H45	H	1.345441	-0.384563	-0.570382
H46	H	2.015860	-0.613299	-0.600015
C47	C	2.040763	-1.022305	-0.621309
H48	H	2.028431	-1.077476	-0.610711
H49	H	2.123647	-1.003570	-0.596570
H50	H	2.028801	-1.013432	-0.706989
C51	C	2.126932	-0.724457	-0.695384
H52	H	2.114529	-0.669480	-0.684742
H53	H	2.115009	-0.742638	-0.781067
H54	H	2.209839	-0.732773	-0.670635
C55	C	2.127036	-0.897809	-0.695427
H56	H	2.178447	-0.861007	-0.739574
H57	H	2.083228	-0.934912	-0.753727
H58	H	2.178062	-0.925053	-0.643298
C59	C	1.678132	-1.025117	-0.309865
H60	H	1.626685	-0.989114	-0.265695
H61	H	1.721974	-1.052423	-0.251584
H62	H	1.627140	-1.062271	-0.362013
C63	C	1.591610	-0.728626	-0.235609
H64	H	1.540218	-0.765430	-0.191447
H65	H	1.540584	-0.701375	-0.287716
H66	H	1.635434	-0.691529	-0.177302
C67	C	1.730022	-0.238645	-0.934696
H68	H	1.686648	-0.213528	-0.996058
H69	H	1.774131	-0.199495	-0.879912
H70	H	1.671449	-0.269495	-0.887765
H71	H	1.616383	-0.889991	-0.256866
H72	H	1.702554	-0.615735	-0.330943
C73	C	1.988864	-0.388364	-0.997546
H74	H	1.984042	-0.385521	-1.085816
H75	H	1.968844	-0.441492	-0.977520
H76	H	2.071531	-0.371494	-0.969682
