data_functionalizedCrystal
_audit_creation_method	'MofGen! by Chris Wilmer'
_symmetry_space_group_name_H-M	'P1'
_symmetry_Int_Tables_number	1
_symmetry_cell_setting	triclinic
loop_
_symmetry_equiv_pos_as_xyz
  x,y,z
_cell_length_a	15.995355
_cell_length_b	14.472311
_cell_length_c	15.995350
_cell_angle_alpha	90.007338
_cell_angle_beta	96.506710
_cell_angle_gamma	89.997149
loop_
_atom_site_label
_atom_site_type_symbol
_atom_site_fract_x
_atom_site_fract_y
_atom_site_fract_z
O1	O	-1.110986	0.076747	0.107950
O2	O	-0.610986	0.576747	0.607950
O3	O	-0.867211	0.076768	0.121274
O4	O	-0.367211	0.576768	0.621274
O5	O	-0.995762	0.076756	-0.007276
O6	O	-0.495762	0.576756	0.492724
O7	O	-0.982435	0.076759	0.236499
O8	O	-0.482435	0.576759	0.736499
O9	O	-0.995746	-0.076926	-0.007291
O10	O	-0.495746	0.423074	0.492709
O11	O	-0.867195	-0.076914	0.121258
O12	O	-0.367195	0.423086	0.621258
O13	O	-1.110970	-0.076935	0.107935
O14	O	-0.610970	0.423065	0.607935
Cu15	Cu	-0.989081	-0.090957	0.114595
Cu16	Cu	-0.489081	0.409043	0.614595
Cu17	Cu	-0.989100	0.090790	0.114613
Cu18	Cu	-0.489100	0.590790	0.614613
O19	O	-0.982419	-0.076923	0.236484
O20	O	-0.482419	0.423077	0.736484
C21	C	-0.836008	-0.000071	0.120715
C22	C	-0.336008	0.499929	0.620715
C23	C	-0.743058	-0.000062	0.119061
C24	C	-0.243058	0.499938	0.619061
C25	C	-0.572873	-0.000075	0.116060
C26	C	-0.072873	0.499925	0.616060
C27	C	-0.549527	-0.000076	0.023262
C28	C	-0.049527	0.499924	0.523262
C29	C	-0.452850	-0.000431	0.021512
C30	C	0.047150	0.499569	0.521512
C31	C	-0.405314	-0.000087	0.113104
C32	C	0.094686	0.499913	0.613104
C33	C	-0.434396	-0.087672	0.159757
C34	C	0.065604	0.412328	0.659757
C35	C	-0.531188	-0.087740	0.160862
C36	C	-0.031188	0.412260	0.660862
C37	C	-0.531117	0.087032	0.162238
C38	C	-0.031117	0.587032	0.662238
C39	C	-0.434622	0.088177	0.158808
C40	C	0.065378	0.588177	0.658808
C41	C	-0.310616	-0.000097	0.111439
C42	C	0.189384	0.499903	0.611439
C43	C	-0.667570	-0.000072	0.117729
C44	C	-0.167570	0.499928	0.617729
N45	N	-0.989074	-0.218788	0.114582
N46	N	-0.489074	0.281212	0.614582
C47	C	-0.995203	-0.000083	-0.038478
C48	C	-0.495203	0.499917	0.461522
C49	C	-0.993551	-0.000078	-0.131428
C50	C	-0.493551	0.499922	0.368572
C51	C	-0.142174	-0.000096	0.108483
C52	C	0.357826	0.499904	0.608483
C53	C	-0.235128	-0.000100	0.110103
C54	C	0.264872	0.499900	0.610103
N55	N	-0.989114	0.218620	0.114620
N56	N	-0.489114	0.718620	0.614620
C57	C	-0.989100	0.407121	0.114607
C58	C	-0.489100	0.907121	0.614607
C59	C	-1.058015	0.446316	0.045961
C60	C	-0.558015	0.946316	0.545961
C61	C	-1.057831	0.553404	0.045709
C62	C	-0.557831	1.053404	0.545709
C63	C	-0.989088	0.592712	0.114595
C64	C	-0.489088	1.092712	0.614595
C65	C	-0.901689	0.553820	0.095647
C66	C	-0.401689	1.053820	0.595647
C67	C	-0.902100	0.446698	0.095161
C68	C	-0.402100	0.946698	0.595161
C69	C	-1.006794	0.446616	0.202405
C70	C	-0.506794	0.946616	0.702405
C71	C	-1.008773	0.553745	0.201814
C72	C	-0.508773	1.053745	0.701814
C73	C	-0.989075	0.697600	0.114589
C74	C	-0.489075	1.197600	0.614589
C75	C	-0.989106	0.302233	0.114611
C76	C	-0.489106	0.802233	0.614611
C77	C	-0.987619	-0.000081	-0.469176
C78	C	-0.487619	0.499919	0.030824
C79	C	-0.896067	0.000272	-0.421743
C80	C	-0.396067	0.500272	0.078257
C81	C	-0.897719	-0.000075	-0.325053
C82	C	-0.397719	0.499925	0.174947
C83	C	-0.990562	-0.000079	-0.301615
C84	C	-0.490562	0.499921	0.198385
C85	C	-1.035709	-0.087841	-0.342701
C86	C	-0.535709	0.412159	0.157299
C87	C	-1.033409	-0.087914	-0.439337
C88	C	-0.533409	0.412086	0.060663
C89	C	-1.035319	0.086851	-0.439677
C90	C	-0.535319	0.586851	0.060323
C91	C	-1.035297	0.088011	-0.342732
C92	C	-0.535297	0.588011	0.157268
C93	C	-0.992229	-0.000081	-0.206918
C94	C	-0.492229	0.499919	0.293082
C95	C	-0.985954	-0.000085	-0.563874
C96	C	-0.485954	0.499915	-0.063874
C97	C	-0.982978	-0.000082	0.267687
C98	C	-0.482978	0.499918	0.767687
C99	C	-0.984629	-0.000081	0.360637
C100	C	-0.484629	0.499919	0.860637
H101	H	-0.577541	0.062722	-0.012699
H102	H	-0.077541	0.562722	0.487301
H103	H	-0.961839	0.580504	0.255280
H104	H	-0.461839	1.080504	0.755280
Cl105	Cl	-1.108034	0.593000	0.224027
Cl106	Cl	-0.608034	1.093000	0.724027
H107	H	-0.859481	0.063208	-0.440270
H108	H	-0.359481	0.563208	0.059730
Cl109	Cl	-0.820535	0.406661	0.169424
Cl110	Cl	-0.320535	0.906661	0.669424
H111	H	-0.956541	0.421264	0.253488
H112	H	-0.456541	0.921264	0.753488
H113	H	-1.102819	0.087437	-0.471437
H114	H	-0.602819	0.587437	0.028563
Cl115	Cl	-1.040793	0.404746	-0.054071
Cl116	Cl	-0.540793	0.904746	0.445929
Cl117	Cl	-0.820588	0.593126	0.170790
Cl118	Cl	-0.320588	1.093126	0.670790
H119	H	-0.433837	0.062341	-0.015008
H120	H	0.066163	0.562341	0.484992
Cl121	Cl	-0.594262	-0.096904	-0.031378
Cl122	Cl	-0.094262	0.403096	0.468622
H123	H	-0.416072	0.152974	0.124834
H124	H	0.083928	0.652974	0.624834
Cl125	Cl	-0.842535	-0.097360	-0.282036
Cl126	Cl	-0.342535	0.402640	0.217964
H127	H	-1.103002	0.093306	-0.327368
H128	H	-0.603002	0.593306	0.172632
Cl129	Cl	-0.877050	0.595220	-0.002079
Cl130	Cl	-0.377050	1.095220	0.497921
H131	H	-0.434406	-0.063583	-0.014849
H132	H	0.065594	0.436417	0.485151
Cl133	Cl	-1.103107	0.404930	0.230566
Cl134	Cl	-0.603107	0.904930	0.730566
H135	H	-0.545130	0.087877	0.230542
H136	H	-0.045130	0.587877	0.730542
H137	H	-1.046510	0.579021	-0.019449
H138	H	-0.546510	1.079021	0.480551
Cl139	Cl	-1.158126	0.594008	0.063112
Cl140	Cl	-0.658126	1.094008	0.563112
Cl141	Cl	-0.989107	0.189551	-0.471366
Cl142	Cl	-0.489107	0.689551	0.028634
H143	H	-0.557967	-0.153460	0.128920
H144	H	-0.057967	0.346540	0.628920
Cl145	Cl	-0.383750	0.096759	0.261997
Cl146	Cl	0.116250	0.596759	0.761997
H147	H	-1.004339	-0.153148	-0.314326
H148	H	-0.504339	0.346852	0.185674
H149	H	-0.862230	0.062837	-0.296626
H150	H	-0.362230	0.562837	0.203374
H151	H	-0.545761	-0.091484	0.228912
H152	H	-0.045761	0.408516	0.728912
H153	H	-0.886524	0.421703	0.031135
H154	H	-0.386524	0.921703	0.531135
H155	H	-0.402550	-0.090682	0.227166
H156	H	0.097450	0.409318	0.727166
Cl157	Cl	-0.403371	-0.188692	0.110318
Cl158	Cl	0.096629	0.311308	0.610318
H159	H	-0.859631	-0.062308	-0.441344
H160	H	-0.359631	0.437692	0.058656
Cl161	Cl	-1.158658	0.406562	0.063068
Cl162	Cl	-0.658658	0.906562	0.563068
Cl163	Cl	-0.984753	0.188265	-0.300164
Cl164	Cl	-0.484753	0.688265	0.199836
H165	H	-1.000474	-0.153515	-0.457645
H166	H	-0.500474	0.346485	0.042355
H167	H	-1.100625	-0.091899	-0.471584
H168	H	-0.600625	0.408101	0.028416
Cl169	Cl	-0.574770	0.189561	0.117046
Cl170	Cl	-0.074770	0.689561	0.617046
Cl171	Cl	-1.141018	-0.092891	-0.320893
Cl172	Cl	-0.641018	0.407109	0.179107
