data_functionalizedCrystal
_audit_creation_method	'MofGen! by Chris Wilmer'
_symmetry_space_group_name_H-M	'P1'
_symmetry_Int_Tables_number	1
_symmetry_cell_setting	triclinic
loop_
_symmetry_equiv_pos_as_xyz
  x,y,z
_cell_length_a	21.395364
_cell_length_b	29.839132
_cell_length_c	21.395355
_cell_angle_alpha	90.022386
_cell_angle_beta	89.975448
_cell_angle_gamma	89.939785
loop_
_atom_site_label
_atom_site_type_symbol
_atom_site_fract_x
_atom_site_fract_y
_atom_site_fract_z
Zn1	Zn	0.957796	0.178726	-0.354245
Zn2	Zn	1.457796	0.678726	0.145755
Zn3	Zn	0.957672	0.253841	-0.249460
Zn4	Zn	1.457672	0.753841	0.250540
Zn5	Zn	0.853011	0.178746	-0.249481
Zn6	Zn	1.353011	0.678746	0.250519
Zn7	Zn	0.852953	0.253849	-0.354200
Zn8	Zn	1.352953	0.753849	0.145800
O9	O	0.905358	0.216291	-0.301847
O10	O	1.405358	0.716291	0.198153
O11	O	1.045457	0.188679	-0.340354
O12	O	1.545457	0.688679	0.159646
O13	O	0.943760	0.243885	-0.161785
O14	O	1.443760	0.743885	0.338215
O15	O	0.866987	0.115876	-0.263406
O16	O	1.366987	0.615876	0.236594
O17	O	1.045366	0.243866	-0.263370
O18	O	1.545366	0.743866	0.236630
O19	O	0.943972	0.115862	-0.340375
O20	O	1.443972	0.615862	0.159625
O21	O	0.866866	0.188712	-0.161801
O22	O	1.366866	0.688712	0.338199
O23	O	0.765325	0.188720	-0.263363
O24	O	1.265325	0.688720	0.236637
O25	O	0.866889	0.243879	-0.441884
O26	O	1.366889	0.743879	0.058116
O27	O	0.765283	0.243898	-0.340299
O28	O	1.265283	0.743898	0.159701
O29	O	0.943916	0.188687	-0.441917
O30	O	1.443916	0.688687	0.058083
O31	O	0.943705	0.316710	-0.263327
O32	O	1.443705	0.816710	0.236673
O33	O	0.866769	0.316716	-0.340279
O34	O	1.366769	0.816716	0.159721
C35	C	0.742570	0.216313	-0.301829
C36	C	1.242570	0.716313	0.198171
C37	C	0.672929	0.216333	-0.301836
C38	C	1.172929	0.716333	0.198164
C39	C	0.640286	0.187644	-0.341984
C40	C	1.140286	0.687644	0.158016
C41	C	0.574850	0.187632	-0.341987
C42	C	1.074850	0.687632	0.158013
C43	C	0.542061	0.216317	-0.301848
C44	C	1.042061	0.716317	0.198152
C45	C	0.574712	0.245008	-0.261692
C46	C	1.074712	0.745008	0.238308
C47	C	0.640146	0.245016	-0.261686
C48	C	1.140146	0.745016	0.238314
C49	C	0.438322	0.256775	-0.296806
C50	C	0.938322	0.756775	0.203194
C51	C	0.372889	0.256768	-0.296816
C52	C	0.872889	0.756768	0.203184
C53	C	0.340240	0.216292	-0.301862
C54	C	0.840240	0.716292	0.198138
C55	C	0.373032	0.175823	-0.306910
C56	C	0.873032	0.675823	0.193090
C57	C	0.438466	0.175831	-0.306904
C58	C	0.938466	0.675831	0.193096
C59	C	0.471108	0.216311	-0.301849
C60	C	0.971108	0.716311	0.198151
C61	C	0.236644	0.187588	-0.342014
C62	C	0.736644	0.687588	0.157986
C63	C	0.171208	0.187575	-0.342012
C64	C	0.671208	0.687575	0.157988
C65	C	0.171070	0.244955	-0.261721
C66	C	0.671070	0.744955	0.238279
C67	C	0.236506	0.244964	-0.261720
C68	C	0.736506	0.744964	0.238280
C69	C	0.269289	0.216281	-0.301870
C70	C	0.769289	0.716281	0.198130
C71	C	0.905234	0.333013	-0.301809
C72	C	1.405234	0.833013	0.198191
C73	C	0.905238	0.382948	-0.301814
C74	C	1.405238	0.882948	0.198186
C75	C	0.945447	0.692575	-0.261810
C76	C	1.445447	1.192575	0.238190
C77	C	0.945507	0.880248	-0.261825
C78	C	1.445507	1.380248	0.238175
O79	O	0.979626	0.904500	-0.227801
O80	O	1.479626	1.404500	0.272199
N81	N	0.905424	0.903733	-0.301857
N82	N	1.405424	1.403733	0.198143
C83	C	0.865326	0.880296	-0.341891
C84	C	1.365326	1.380296	0.158109
O85	O	0.831238	0.904577	-0.375946
O86	O	1.331238	1.404577	0.124054
C87	C	0.865269	0.692624	-0.341880
C88	C	1.365269	1.192624	0.158120
C89	C	0.905351	0.669142	-0.301840
C90	C	1.405351	1.169142	0.198160
C91	C	0.985525	0.669093	-0.221775
C92	C	1.485525	1.169093	0.278225
C93	C	0.985508	0.622178	-0.221769
C94	C	1.485508	1.122178	0.278231
C95	C	0.945411	0.598745	-0.261799
C96	C	1.445411	1.098745	0.238201
C97	C	0.905333	0.622226	-0.301835
C98	C	1.405333	1.122226	0.198165
C99	C	0.825175	0.669188	-0.381917
C100	C	1.325175	1.169188	0.118083
C101	C	0.825166	0.622267	-0.381911
C102	C	1.325166	1.122267	0.118089
C103	C	0.865247	0.598785	-0.341872
C104	C	1.365247	1.098785	0.158128
C105	C	0.865219	0.551878	-0.341859
C106	C	1.365219	1.051878	0.158141
N107	N	0.905302	0.528393	-0.301827
N108	N	1.405302	1.028393	0.198173
C109	C	0.945398	0.551827	-0.261797
C110	C	1.445398	1.051827	0.238203
C111	C	0.865357	0.978827	-0.341893
C112	C	1.365357	1.478827	0.158107
C113	C	0.865370	1.025744	-0.341896
C114	C	1.365370	1.525744	0.158104
C115	C	0.945552	1.025694	-0.261830
C116	C	1.445552	1.525694	0.238170
C117	C	0.945535	0.978775	-0.261825
C118	C	1.445535	1.478775	0.238175
C119	C	0.905440	0.955342	-0.301861
C120	C	1.405440	1.455342	0.198139
C121	C	0.945358	0.453301	-0.261788
C122	C	1.445358	0.953301	0.238212
C123	C	0.945334	0.406381	-0.261784
C124	C	1.445334	0.906381	0.238216
C125	C	0.865155	0.406436	-0.341852
C126	C	1.365155	0.906436	0.158148
C127	C	0.865175	0.453352	-0.341854
C128	C	1.365175	0.953352	0.158146
C129	C	0.905282	0.476783	-0.301820
C130	C	1.405282	0.976783	0.198180
O131	O	0.831122	0.527597	-0.375870
O132	O	1.331122	1.027597	0.124130
O133	O	0.979490	0.527537	-0.227757
O134	O	1.479490	1.027537	0.272243
C135	C	0.945465	0.739491	-0.261816
C136	C	1.445465	1.239491	0.238184
C137	C	0.905386	0.762973	-0.301851
C138	C	1.405386	1.262973	0.198149
C139	C	0.865290	0.739539	-0.341881
C140	C	1.365290	1.239539	0.158119
C141	C	0.905399	0.809891	-0.301854
C142	C	1.405399	1.309891	0.198146
C143	C	0.945496	0.833324	-0.261824
C144	C	1.445496	1.333324	0.238176
C145	C	0.985579	0.809840	-0.221792
C146	C	1.485579	1.309840	0.278208
C147	C	0.985561	0.762924	-0.221786
C148	C	1.485561	1.262924	0.278214
C149	C	0.825207	0.763024	-0.381913
C150	C	1.325207	1.263024	0.118087
C151	C	0.825227	0.809939	-0.381915
C152	C	1.325227	1.309939	0.118085
C153	C	0.865324	0.833373	-0.341885
C154	C	1.365324	1.333373	0.158115
C155	C	1.068781	0.216269	-0.301865
C156	C	1.568781	0.716269	0.198135
C157	C	1.138423	0.216260	-0.301872
C158	C	1.638423	0.716260	0.198128
C159	C	0.905476	1.099112	-0.301884
C160	C	1.405476	1.599112	0.198116
C161	C	0.905466	1.049178	-0.301866
C162	C	1.405466	1.549178	0.198134
C163	C	0.905410	0.216282	-0.465270
C164	C	1.405410	0.716282	0.034730
C165	C	0.905432	0.216278	-0.534911
C166	C	1.405432	0.716278	-0.034911
C167	C	0.945539	0.187538	-0.567642
C168	C	1.445539	0.687538	-0.067642
C169	C	0.945538	0.187518	-0.633078
C170	C	1.445538	0.687518	-0.133078
C171	C	0.905437	0.216247	-0.665780
C172	C	1.405437	0.716247	-0.165780
C173	C	0.865323	0.244989	-0.633041
C174	C	1.365323	0.744989	-0.133041
C175	C	0.865320	0.245005	-0.567606
C176	C	1.365320	0.745005	-0.067606
C177	C	0.900447	0.256699	-0.769441
C178	C	1.400447	0.756699	-0.269441
C179	C	0.900454	0.256685	-0.834874
C180	C	1.400454	0.756685	-0.334874
C181	C	0.905441	0.216200	-0.867600
C182	C	1.405441	0.716200	-0.367600
C183	C	0.910435	0.175728	-0.834886
C184	C	1.410435	0.675728	-0.334886
C185	C	0.910432	0.175743	-0.769451
C186	C	1.410432	0.675743	-0.269451
C187	C	0.905435	0.216234	-0.736732
C188	C	1.405435	0.716234	-0.236732
C189	C	0.945549	0.187436	-0.971284
C190	C	1.445549	0.687436	-0.471284
C191	C	0.945543	0.187416	-1.036721
C192	C	1.445543	0.687416	-0.536721
C193	C	0.865332	0.244891	-1.036682
C194	C	1.365332	0.744891	-0.536682
C195	C	0.865334	0.244907	-0.971247
C196	C	1.365334	0.744907	-0.471247
C197	C	0.905445	0.216180	-0.938552
C198	C	1.405445	0.716180	-0.438552
C199	C	0.905342	0.216267	-0.139059
C200	C	1.405342	0.716267	0.360941
C201	C	0.905442	0.216145	-0.069418
C202	C	1.405442	0.716145	0.430582
H203	H	0.464900	0.289737	-0.292697
H204	H	0.964900	0.789737	0.207303
Cl205	Cl	0.533492	0.281067	-0.211229
Cl206	Cl	1.033492	0.781067	0.288771
Cl207	Cl	0.814774	0.482873	-0.392176
Cl208	Cl	1.314774	0.982873	0.107824
H209	H	0.263338	0.164230	-0.374703
H210	H	0.763338	0.664230	0.125297
Cl211	Cl	0.814897	0.281138	-0.526456
Cl212	Cl	1.314897	0.781138	-0.026456
H213	H	0.465163	0.142879	-0.311013
H214	H	0.965163	0.642879	0.188987
H215	H	0.548267	0.164268	-0.374679
H216	H	1.048267	0.664268	0.125321
Cl217	Cl	0.916707	0.124829	-0.876019
Cl218	Cl	1.416707	0.624829	-0.376019
H219	H	0.792534	0.688299	-0.414518
H220	H	1.292534	1.188299	0.085482
H221	H	0.978173	0.959659	-0.229222
H222	H	1.478173	1.459659	0.270778
H223	H	1.018147	0.603062	-0.189168
H224	H	1.518147	1.103062	0.310832
Cl225	Cl	0.814973	1.055259	-0.392225
Cl226	Cl	1.314973	1.555259	0.107775
Cl227	Cl	1.035939	0.698544	-0.171445
Cl228	Cl	1.535939	1.198544	0.328555
H229	H	0.346195	0.289720	-0.292709
H230	H	0.846195	0.789720	0.207291
Cl231	Cl	0.995958	1.055161	-0.211506
Cl232	Cl	1.495958	1.555161	0.288494
H233	H	0.832705	0.959751	-0.374497
H234	H	1.332705	1.459751	0.125503
Cl235	Cl	0.995970	0.151321	-0.930179
Cl236	Cl	1.495970	0.651321	-0.430179
Cl237	Cl	0.130170	0.151504	-0.392486
Cl238	Cl	0.630170	0.651504	0.107514
Cl239	Cl	0.916705	0.124867	-0.728326
Cl240	Cl	1.416705	0.624867	-0.228326
Cl241	Cl	0.129855	0.281013	-0.211255
Cl242	Cl	0.629855	0.781013	0.288745
Cl243	Cl	0.277545	0.281030	-0.211242
Cl244	Cl	0.777545	0.781030	0.288758
Cl245	Cl	0.894195	0.307601	-0.728307
Cl246	Cl	1.394195	0.807601	-0.228307
H247	H	0.666724	0.268378	-0.228992
H248	H	1.166724	0.768378	0.271008
Cl249	Cl	0.774758	0.592812	-0.432247
Cl250	Cl	1.274758	1.092812	0.067753
H251	H	0.832507	0.387349	-0.374442
H252	H	1.332507	0.887349	0.125558
Cl253	Cl	0.995726	0.376864	-0.211446
Cl254	Cl	1.495726	0.876864	0.288554
Cl255	Cl	0.331995	0.124936	-0.313252
Cl256	Cl	0.831995	0.624936	0.186748
Cl257	Cl	0.774795	0.733572	-0.432242
Cl258	Cl	1.274795	1.233572	0.067758
Cl259	Cl	0.995777	0.482750	-0.211458
Cl260	Cl	1.495777	0.982750	0.288542
Cl261	Cl	1.035954	0.733411	-0.171451
Cl262	Cl	1.535954	1.233411	0.328549
H263	H	0.978200	0.164146	-0.541026
H264	H	1.478200	0.664146	-0.041026
H265	H	0.832675	0.268278	-1.063308
H266	H	1.332675	0.768278	-0.563308
Cl267	Cl	1.035984	0.839308	-0.171468
Cl268	Cl	1.535984	1.339308	0.328532
H269	H	0.832678	0.268313	-0.944597
H270	H	1.332678	0.768313	-0.444597
Cl271	Cl	0.814908	0.281104	-0.674150
Cl272	Cl	1.314908	0.781104	-0.174150
H273	H	0.666974	0.164288	-0.374677
H274	H	1.166974	0.664288	0.125323
H275	H	0.792583	0.829054	-0.414519
H276	H	1.292583	1.329054	0.085481
H277	H	0.978196	0.164112	-0.659733
H278	H	1.478196	0.664112	-0.159733
Cl279	Cl	0.894182	0.307563	-0.875995
Cl280	Cl	1.394182	0.807563	-0.375995
Cl281	Cl	0.995978	0.151289	-1.077869
Cl282	Cl	1.495978	0.651289	-0.577869
