data_functionalizedCrystal
_audit_creation_method	'MofGen! by Chris Wilmer'
_symmetry_space_group_name_H-M	'P1'
_symmetry_Int_Tables_number	1
_symmetry_cell_setting	triclinic
loop_
_symmetry_equiv_pos_as_xyz
  x,y,z
_cell_length_a	13.635800
_cell_length_b	9.109307
_cell_length_c	9.514088
_cell_angle_alpha	86.835667
_cell_angle_beta	118.843545
_cell_angle_gamma	68.235001
loop_
_atom_site_label
_atom_site_type_symbol
_atom_site_fract_x
_atom_site_fract_y
_atom_site_fract_z
V1	V	2.142880	-0.228427	0.532230
O2	O	2.099485	0.008003	0.490108
O3	O	2.151113	-0.450072	0.559357
O4	O	2.159939	-0.226218	0.750317
O5	O	2.090598	-0.217400	0.297826
V6	V	2.375145	-0.199993	0.500456
O7	O	2.294340	-0.290799	0.601929
O8	O	2.448784	-0.137621	0.430757
O9	O	2.255309	0.021652	0.473328
O10	O	2.477239	-0.436422	0.542578
O11	O	2.486126	-0.211019	0.734859
O12	O	2.246483	-0.202202	0.282369
V13	V	2.642880	-0.228427	0.532230
O14	O	2.599485	0.008003	0.490108
O15	O	2.651113	-0.450072	0.559357
O16	O	2.659939	-0.226218	0.750317
O17	O	2.590598	-0.217400	0.297826
V18	V	2.875145	-0.199993	0.500456
O19	O	2.794340	-0.290799	0.601929
O20	O	2.948784	-0.137621	0.430757
O21	O	2.755309	0.021652	0.473328
O22	O	2.977239	-0.436422	0.542578
O23	O	2.986126	-0.211019	0.734859
O24	O	2.746483	-0.202202	0.282369
C25	C	2.080169	-0.504063	0.558900
C26	C	2.127819	-0.685269	0.582534
C27	C	2.091425	-0.218513	0.802486
C28	C	2.146229	-0.218174	0.980975
C29	C	2.157925	0.075635	0.473782
C30	C	2.099896	0.256839	0.450159
C31	C	2.146667	-0.209911	0.230192
C32	C	2.081481	-0.210242	0.051700
C33	C	2.580169	-0.504063	0.558900
C34	C	2.627819	-0.685269	0.582534
C35	C	2.591425	-0.218513	0.802486
C36	C	2.646229	-0.218174	0.980975
C37	C	2.657925	0.075635	0.473782
C38	C	2.599896	0.256839	0.450159
C39	C	2.646667	-0.209911	0.230192
C40	C	2.581481	-0.210242	0.051700
C41	C	2.744039	-0.778723	0.602809
C42	C	2.788835	-0.948991	0.625040
C43	C	2.717403	-1.025799	0.626984
C44	C	2.601174	-0.932333	0.606712
C45	C	2.556385	-0.762070	0.584493
C46	C	2.656170	0.350293	0.429889
C47	C	2.601649	0.520559	0.407666
C48	C	2.490858	0.597367	0.405725
C49	C	2.434579	0.503902	0.425993
C50	C	2.489095	0.333641	0.448204
H51	H	2.039551	-0.654092	0.318713
F52	F	2.206713	-0.801694	0.754358
F53	F	2.316661	0.585672	0.423914
H54	H	1.984125	-0.203727	0.975706
F55	F	2.454228	-0.201726	0.952374
F56	F	2.773497	-0.226714	1.080316
H57	H	2.746383	0.287779	0.431467
H58	H	2.446479	0.736006	0.387637
H59	H	2.883474	-1.025067	0.641539
H60	H	2.243598	-0.224708	1.056983
H61	H	2.443266	0.257560	0.464722
H62	H	2.647492	0.596635	0.391168
F63	F	2.820087	-0.697012	0.600755
H64	H	2.543025	-0.994896	0.608299
F65	F	2.432683	-0.662624	0.562904
H66	H	2.753888	-1.164439	0.645078
