data_functionalizedCrystal
_audit_creation_method	'MofGen! by Chris Wilmer'
_symmetry_space_group_name_H-M	'P1'
_symmetry_Int_Tables_number	1
_symmetry_cell_setting	triclinic
loop_
_symmetry_equiv_pos_as_xyz
  x,y,z
_cell_length_a	19.805407
_cell_length_b	25.639239
_cell_length_c	19.805399
_cell_angle_alpha	89.971274
_cell_angle_beta	89.980427
_cell_angle_gamma	90.038686
loop_
_atom_site_label
_atom_site_type_symbol
_atom_site_fract_x
_atom_site_fract_y
_atom_site_fract_z
Zn1	Zn	1.034678	-0.208163	-0.382714
Zn2	Zn	1.534678	0.291837	0.117286
Zn3	Zn	1.034569	-0.295597	-0.269524
Zn4	Zn	1.534569	0.204403	0.230476
Zn5	Zn	0.921493	-0.208177	-0.269539
Zn6	Zn	1.421493	0.291823	0.230461
Zn7	Zn	0.921432	-0.295569	-0.382670
Zn8	Zn	1.421432	0.204431	0.117330
O9	O	0.978043	-0.251877	-0.326112
O10	O	1.478043	0.248123	0.173888
O11	O	1.129380	-0.219767	-0.367711
O12	O	1.629380	0.280233	0.132289
O13	O	1.019548	-0.284018	-0.174809
O14	O	1.519548	0.215982	0.325191
O15	O	0.936578	-0.135010	-0.284576
O16	O	1.436578	0.364990	0.215424
O17	O	1.129300	-0.284004	-0.284551
O18	O	1.629300	0.215996	0.215449
O19	O	1.019735	-0.135000	-0.367726
O20	O	1.519735	0.365000	0.132274
O21	O	0.936472	-0.219791	-0.174820
O22	O	1.436472	0.280209	0.325180
O23	O	0.826768	-0.219764	-0.284534
O24	O	1.326768	0.280236	0.215466
O25	O	0.936475	-0.283957	-0.477393
O26	O	1.436475	0.216043	0.022607
O27	O	0.826723	-0.283971	-0.367651
O28	O	1.326723	0.216029	0.132349
O29	O	1.019676	-0.219740	-0.477425
O30	O	1.519676	0.280260	0.022575
O31	O	1.019489	-0.368758	-0.284508
O32	O	1.519489	0.131242	0.215492
O33	O	0.936368	-0.368738	-0.367637
O34	O	1.436368	0.131262	0.132363
C35	C	0.802187	-0.251867	-0.326090
C36	C	1.302187	0.248133	0.173910
C37	C	0.726955	-0.251875	-0.326097
C38	C	1.226955	0.248125	0.173903
C39	C	0.691605	-0.285357	-0.369306
C40	C	1.191605	0.214643	0.130694
C41	C	0.620917	-0.285358	-0.369315
C42	C	1.120917	0.214642	0.130685
C43	C	0.585579	-0.251879	-0.326112
C44	C	1.085579	0.248121	0.173888
C45	C	0.620934	-0.218393	-0.282901
C46	C	1.120934	0.281607	0.217099
C47	C	0.691621	-0.218390	-0.282895
C48	C	1.191621	0.281610	0.217105
C49	C	0.335860	-0.218404	-0.282923
C50	C	0.835860	0.281596	0.217077
C51	C	0.265168	-0.218411	-0.282931
C52	C	0.765168	0.281589	0.217069
C53	C	0.265156	-0.285373	-0.369343
C54	C	0.765156	0.214627	0.130657
C55	C	0.335843	-0.285370	-0.369338
C56	C	0.835843	0.214630	0.130662
C57	C	0.371192	-0.251882	-0.326129
C58	C	0.871192	0.248118	0.173871
C59	C	0.447840	-0.251881	-0.326121
C60	C	0.947840	0.248119	0.173879
C61	C	0.508932	-0.251883	-0.326117
C62	C	1.008932	0.248117	0.173883
C63	C	0.977929	-0.387719	-0.326081
C64	C	1.477929	0.112281	0.173919
C65	C	0.977942	-0.445833	-0.326090
C66	C	1.477942	0.054167	0.173910
C67	C	1.021437	-0.806194	-0.282901
C68	C	1.521437	-0.306194	0.217099
C69	C	1.021463	-0.860799	-0.282910
C70	C	1.521463	-0.360799	0.217090
O71	O	1.058326	-0.889034	-0.246154
O72	O	1.558326	-0.389034	0.253846
N73	N	0.978162	-0.888116	-0.326157
N74	N	1.478162	-0.388116	0.173843
C75	C	0.934836	-0.860825	-0.369402
C76	C	1.434836	-0.360825	0.130598
O77	O	0.898008	-0.889075	-0.406189
O78	O	1.398008	-0.389075	0.093811
C79	C	0.934814	-0.806222	-0.369396
C80	C	1.434814	-0.306222	0.130604
C81	C	0.978113	-0.778908	-0.326141
C82	C	1.478113	-0.278908	0.173859
C83	C	1.064733	-0.778880	-0.239650
C84	C	1.564733	-0.278880	0.260350
C85	C	1.064706	-0.724279	-0.239640
C86	C	1.564706	-0.224279	0.260360
C87	C	1.021382	-0.696993	-0.282881
C88	C	1.521382	-0.196993	0.217119
C89	C	0.978086	-0.724307	-0.326132
C90	C	1.478086	-0.224307	0.173868
C91	C	0.891492	-0.778933	-0.412645
C92	C	1.391492	-0.278933	0.087355
C93	C	0.891474	-0.724326	-0.412635
C94	C	1.391474	-0.224326	0.087365
C95	C	0.934773	-0.697012	-0.369381
C96	C	1.434773	-0.197012	0.130619
C97	C	0.934735	-0.642421	-0.369363
C98	C	1.434735	-0.142421	0.130637
N99	N	0.978036	-0.615104	-0.326116
N100	N	1.478036	-0.115104	0.173884
C101	C	1.021360	-0.642390	-0.282875
C102	C	1.521360	-0.142390	0.217125
C103	C	0.934887	-0.975496	-0.369413
C104	C	1.434887	-0.475496	0.130587
C105	C	0.934906	-1.030098	-0.369416
C106	C	1.434906	-0.530098	0.130584
C107	C	1.021533	-1.030068	-0.282924
C108	C	1.521533	-0.530068	0.217076
C109	C	1.021511	-0.975464	-0.282918
C110	C	1.521511	-0.475464	0.217082
C111	C	0.978188	-0.948179	-0.326166
C112	C	1.478188	-0.448179	0.173834
C113	C	1.021299	-0.527725	-0.282857
C114	C	1.521299	-0.027725	0.217143
C115	C	1.021266	-0.473119	-0.282849
C116	C	1.521266	0.026881	0.217151
C117	C	0.934641	-0.473155	-0.369343
C118	C	1.434641	0.026845	0.130657
C119	C	0.934671	-0.527756	-0.369349
C120	C	1.434671	-0.027756	0.130651
C121	C	0.978006	-0.555039	-0.326104
C122	C	1.478006	-0.055039	0.173896
O123	O	0.897893	-0.614151	-0.406101
O124	O	1.397893	-0.114151	0.093899
O125	O	1.058188	-0.614134	-0.246101
O126	O	1.558188	-0.114134	0.253899
C127	C	1.154585	-0.251887	-0.326134
C128	C	1.654585	0.248113	0.173866
C129	C	1.229817	-0.251891	-0.326144
C130	C	1.729817	0.248109	0.173856
C131	C	0.978081	-0.251844	-0.502655
C132	C	1.478081	0.248156	-0.002655
C133	C	0.978097	-0.251830	-0.577887
C134	C	1.478097	0.248170	-0.077887
C135	C	0.978175	-0.115504	-0.326158
C136	C	1.478175	0.384496	0.173842
C137	C	0.978232	-0.057389	-0.326177
C138	C	1.478232	0.442611	0.173823
C139	C	1.021421	-0.218390	-0.613249
C140	C	1.521421	0.281610	-0.113249
C141	C	1.021428	-0.218375	-0.683937
C142	C	1.521428	0.281625	-0.183937
C143	C	0.978114	-0.251802	-0.719262
C144	C	1.478114	0.248198	-0.219262
C145	C	0.934785	-0.285243	-0.683895
C146	C	1.434785	0.214757	-0.183895
C147	C	0.934775	-0.285255	-0.613208
C148	C	1.434775	0.214745	-0.113208
C149	C	0.934823	-0.285194	-0.968969
C150	C	1.434823	0.214806	-0.468969
C151	C	0.934838	-0.285181	-1.039661
C152	C	1.434838	0.214819	-0.539661
C153	C	1.021476	-0.218314	-1.039698
C154	C	1.521476	0.281686	-0.539698
C155	C	1.021466	-0.218326	-0.969011
C156	C	1.521466	0.281674	-0.469011
C157	C	0.978135	-0.251765	-0.933650
C158	C	1.478135	0.248235	-0.433650
C159	C	0.978127	-0.251780	-0.857001
C160	C	1.478127	0.248220	-0.357001
C161	C	0.978125	-0.251790	-0.795909
C162	C	1.478125	0.248210	-0.295909
C163	C	0.978044	-0.251872	-0.150256
C164	C	1.478044	0.248128	0.349744
C165	C	0.978159	-0.251738	-0.075024
C166	C	1.478159	0.248262	0.424976
H167	H	1.056525	-0.450882	-0.247624
H168	H	1.556525	0.049118	0.252376
C169	C	0.582448	-0.182097	-0.236022
C170	C	1.082448	0.317903	0.263978
C171	C	0.512976	-0.189274	-0.245262
C172	C	1.012976	0.310726	0.254738
C173	C	0.477504	-0.155852	-0.202082
C174	C	0.977504	0.344148	0.297918
H175	H	0.593983	-0.146956	-0.245970
H176	H	1.093983	0.353044	0.254030
H177	H	0.593967	-0.189704	-0.190511
H178	H	1.093967	0.310296	0.309489
H179	H	0.501461	-0.181663	-0.290763
H180	H	1.001461	0.318337	0.209237
H181	H	0.501420	-0.224408	-0.235309
H182	H	1.001420	0.275592	0.264691
H183	H	0.489023	-0.163460	-0.156571
H184	H	0.989023	0.336540	0.343429
H185	H	0.489045	-0.120713	-0.212034
H186	H	0.989045	0.379287	0.287966
H187	H	0.430364	-0.160721	-0.208341
H188	H	0.930364	0.339279	0.291659
H189	H	1.056708	-0.191146	-0.712726
H190	H	1.556708	0.308854	-0.212726
H191	H	0.720402	-0.191122	-0.247713
H192	H	1.220402	0.308878	0.252287
C193	C	1.068370	-0.557247	-0.235828
C194	C	1.568370	-0.057247	0.264172
C195	C	1.106263	-0.521631	-0.197941
C196	C	1.606263	-0.021631	0.302059
C197	C	1.149620	-0.548807	-0.154601
C198	C	1.649620	-0.048807	0.345399
H199	H	1.097921	-0.578514	-0.261669
H200	H	1.597921	-0.078514	0.238331
H201	H	1.042521	-0.578571	-0.206278
H202	H	1.542521	-0.078571	0.293722
H203	H	1.132110	-0.500316	-0.227487
H204	H	1.632110	-0.000316	0.272513
H205	H	1.076730	-0.500363	-0.172086
H206	H	1.576730	-0.000363	0.327914
H207	H	1.123772	-0.570131	-0.125051
H208	H	1.623772	-0.070131	0.374949
H209	H	1.179167	-0.570073	-0.180448
H210	H	1.679167	-0.070073	0.319552
H211	H	1.175331	-0.524646	-0.128885
H212	H	1.675331	-0.024646	0.371115
C213	C	0.887831	-0.321653	-0.574843
C214	C	1.387831	0.178347	-0.074843
C215	C	0.902539	-0.373382	-0.592008
C216	C	1.402539	0.126618	-0.092008
C217	C	0.859314	-0.406927	-0.556672
C218	C	1.359314	0.093073	-0.056672
H219	H	0.842335	-0.314071	-0.586387
H220	H	1.342335	0.185929	-0.086387
H221	H	0.894038	-0.316907	-0.527680
H222	H	1.394038	0.183093	-0.027680
H223	H	0.896326	-0.378126	-0.639161
H224	H	1.396326	0.121874	-0.139161
H225	H	0.948026	-0.380980	-0.580463
H226	H	1.448026	0.119020	-0.080463
H227	H	0.865521	-0.402180	-0.509509
H228	H	1.365521	0.097820	-0.009509
H229	H	0.813821	-0.399340	-0.568218
H230	H	1.313821	0.100660	-0.068218
H231	H	0.869292	-0.442028	-0.568309
H232	H	1.369292	0.057972	-0.068309
C233	C	1.111800	-0.694723	-0.192660
C234	C	1.611800	-0.194723	0.307340
C235	C	1.149757	-0.730315	-0.154814
C236	C	1.649757	-0.230315	0.345186
C237	C	1.193159	-0.703111	-0.111536
C238	C	1.693159	-0.203111	0.388464
H239	H	1.086002	-0.673452	-0.163076
H240	H	1.586002	-0.173452	0.336924
H241	H	1.141304	-0.673401	-0.218564
H242	H	1.641304	-0.173401	0.281436
H243	H	1.120256	-0.751628	-0.128911
H244	H	1.620256	-0.251628	0.371089
H245	H	1.175569	-0.751587	-0.184380
H246	H	1.675569	-0.251587	0.315620
H247	H	1.222663	-0.681789	-0.137440
H248	H	1.722663	-0.181789	0.362560
H249	H	1.167355	-0.681841	-0.081956
H250	H	1.667355	-0.181841	0.418044
H251	H	1.218922	-0.727256	-0.085856
H252	H	1.718922	-0.227256	0.414144
C253	C	0.887830	-0.321516	-0.722368
C254	C	1.387830	0.178484	-0.222368
C255	C	0.897123	-0.314359	-0.791842
C256	C	1.397123	0.185641	-0.291842
C257	C	0.853886	-0.347771	-0.827303
C258	C	1.353886	0.152229	-0.327303
H259	H	0.842331	-0.313895	-0.710860
H260	H	1.342331	0.186105	-0.210860
H261	H	0.897705	-0.356659	-0.710811
H262	H	1.397705	0.143341	-0.210811
H263	H	0.887243	-0.279224	-0.803395
H264	H	1.387243	0.220776	-0.303395
H265	H	0.942613	-0.321983	-0.803371
H266	H	1.442613	0.178017	-0.303371
H267	H	0.863762	-0.382914	-0.815745
H268	H	1.363762	0.117086	-0.315745
H269	H	0.808390	-0.340148	-0.815788
H270	H	1.308390	0.159852	-0.315788
H271	H	0.860190	-0.342923	-0.874444
H272	H	1.360190	0.157077	-0.374444
C273	C	1.111904	-0.808506	-0.192834
C274	C	1.611904	-0.308506	0.307166
C275	C	1.155294	-0.839771	-0.231227
C276	C	1.655294	-0.339771	0.268773
C277	C	1.198783	-0.867051	-0.188128
C278	C	1.698783	-0.367051	0.311872
H279	H	1.086165	-0.829895	-0.163281
H280	H	1.586165	-0.329895	0.336719
H281	H	1.137720	-0.784411	-0.167116
H282	H	1.637720	-0.284411	0.332884
H283	H	1.129481	-0.863863	-0.256934
H284	H	1.629481	-0.363863	0.243066
H285	H	1.181048	-0.818395	-0.260778
H286	H	1.681048	-0.318395	0.239222
H287	H	1.224600	-0.842956	-0.162410
H288	H	1.724600	-0.342956	0.337590
H289	H	1.173039	-0.888437	-0.158577
H290	H	1.673039	-0.388437	0.341423
H291	H	1.228233	-0.888263	-0.214171
H292	H	1.728233	-0.388263	0.285829
C293	C	1.068408	-0.181941	-0.930700
C294	C	1.568408	0.318059	-0.430700
C295	C	1.053704	-0.130209	-0.947904
C296	C	1.553704	0.369791	-0.447904
C297	C	1.096925	-0.096673	-0.912622
C298	C	1.596925	0.403327	-0.412622
H299	H	1.113905	-0.189522	-0.942262
H300	H	1.613905	0.310478	-0.442262
H301	H	1.062195	-0.186699	-0.883529
H302	H	1.562195	0.313301	-0.383529
H303	H	1.059922	-0.125454	-0.995064
H304	H	1.559922	0.374546	-0.495064
H305	H	1.008215	-0.122612	-0.936340
H306	H	1.508215	0.377388	-0.436340
H307	H	1.090712	-0.101430	-0.865451
H308	H	1.590712	0.398570	-0.365451
H309	H	1.142419	-0.104258	-0.924187
H310	H	1.642419	0.395742	-0.424187
H311	H	1.086950	-0.061568	-0.924285
H312	H	1.586950	0.438432	-0.424285
H313	H	1.056756	-0.191085	-1.068497
H314	H	1.556756	0.308915	-0.568497
C315	C	0.729846	-0.321727	-0.416289
C316	C	1.229846	0.178273	0.083711
C317	C	0.683755	-0.351039	-0.454145
C318	C	1.183755	0.148961	0.045855
C319	C	0.718955	-0.384542	-0.497442
C320	C	1.218955	0.115458	0.002558
H321	H	0.757395	-0.344528	-0.390419
H322	H	1.257395	0.155472	0.109581
H323	H	0.757434	-0.301766	-0.445861
H324	H	1.257434	0.198234	0.054139
H325	H	0.656178	-0.370999	-0.424577
H326	H	1.156178	0.129001	0.075423
H327	H	0.656204	-0.328252	-0.480028
H328	H	1.156204	0.171748	0.019972
H329	H	0.746544	-0.364581	-0.527014
H330	H	1.246544	0.135419	-0.027014
H331	H	0.746503	-0.407340	-0.471567
H332	H	1.246503	0.092660	0.028433
H333	H	0.687688	-0.404431	-0.523137
H334	H	1.187688	0.095569	-0.023137
H335	H	0.236399	-0.191145	-0.247749
H336	H	0.736399	0.308855	0.252251
H337	H	0.856230	-0.801163	-0.447864
H338	H	1.356230	-0.301163	0.052136
C339	C	1.068712	-1.059705	-0.236121
C340	C	1.568712	-0.559705	0.263879
C341	C	1.112089	-1.090963	-0.274538
C342	C	1.612089	-0.590963	0.225462
C343	C	1.155585	-1.118257	-0.231463
C344	C	1.655585	-0.618257	0.268537
H345	H	1.042978	-1.081099	-0.206571
H346	H	1.542978	-0.581099	0.293429
H347	H	1.094538	-1.035618	-0.210398
H348	H	1.594538	-0.535618	0.289602
H349	H	1.086266	-1.115046	-0.300249
H350	H	1.586266	-0.615046	0.199751
H351	H	1.137838	-1.069581	-0.304087
H352	H	1.637838	-0.569581	0.195913
H353	H	1.181411	-1.094171	-0.205740
H354	H	1.681411	-0.594171	0.294260
H355	H	1.129846	-1.139649	-0.201914
H356	H	1.629846	-0.639649	0.298086
H357	H	1.185026	-1.139465	-0.257523
H358	H	1.685026	-0.639465	0.242477
H359	H	0.899415	-0.549996	-0.404573
H360	H	1.399415	-0.049996	0.095427
C361	C	1.068475	-0.182039	-0.575021
C362	C	1.568475	0.317961	-0.075021
C363	C	1.106404	-0.152741	-0.621123
C364	C	1.606404	0.347259	-0.121123
C365	C	1.149749	-0.119242	-0.585935
C366	C	1.649749	0.380758	-0.085935
H367	H	1.098004	-0.201987	-0.547442
H368	H	1.598004	0.298013	-0.047442
H369	H	1.042616	-0.159233	-0.547464
H370	H	1.542616	0.340767	-0.047464
H371	H	1.132261	-0.175544	-0.648669
H372	H	1.632261	0.324456	-0.148669
H373	H	1.076892	-0.132783	-0.648703
H374	H	1.576892	0.367217	-0.148703
H375	H	1.123890	-0.096436	-0.558377
H376	H	1.623890	0.403564	-0.058377
H377	H	1.179274	-0.139194	-0.558357
H378	H	1.679274	0.360806	-0.058357
H379	H	1.175485	-0.099356	-0.617209
H380	H	1.675485	0.400644	-0.117209
C381	C	0.582415	-0.321656	-0.416202
C382	C	1.082415	0.178344	0.083798
C383	C	0.512947	-0.314483	-0.406977
C384	C	1.012947	0.185517	0.093023
C385	C	0.477459	-0.347907	-0.450166
C386	C	0.977459	0.152093	0.049834
H387	H	0.593884	-0.356796	-0.406253
H388	H	1.093884	0.143204	0.093747
H389	H	0.593988	-0.314046	-0.461710
H390	H	1.093988	0.185954	0.038290
H391	H	0.501378	-0.322096	-0.361479
H392	H	1.001378	0.177904	0.138521
H393	H	0.501457	-0.279350	-0.416931
H394	H	1.001457	0.220650	0.083069
H395	H	0.489032	-0.340297	-0.495675
H396	H	0.989032	0.159703	0.004325
H397	H	0.488933	-0.383045	-0.440214
H398	H	0.988933	0.116955	0.059786
H399	H	0.430321	-0.343041	-0.443918
H400	H	0.930321	0.156959	0.056082
C401	C	0.887730	-0.321493	-1.077894
C402	C	1.387730	0.178507	-0.577894
C403	C	0.849766	-0.350769	-1.031798
C404	C	1.349766	0.149231	-0.531798
C405	C	0.806361	-0.384218	-1.066993
C406	C	1.306361	0.115782	-0.566993
H407	H	0.913527	-0.344318	-1.105467
H408	H	1.413527	0.155682	-0.605467
H409	H	0.858231	-0.301494	-1.105457
H410	H	1.358231	0.198506	-0.605457
H411	H	0.879262	-0.370767	-1.004246
H412	H	1.379262	0.129233	-0.504246
H413	H	0.823956	-0.327958	-1.004223
H414	H	1.323956	0.172042	-0.504223
H415	H	0.776862	-0.364219	-1.094556
H416	H	1.276862	0.135781	-0.594556
H417	H	0.832163	-0.407040	-1.094565
H418	H	1.332163	0.092960	-0.594565
H419	H	0.780593	-0.404083	-1.035722
H420	H	1.280593	0.095917	-0.535722
H421	H	0.364612	-0.312634	-0.404516
H422	H	0.864612	0.187366	0.095484
H423	H	1.056769	-0.953228	-0.247697
H424	H	1.556769	-0.453228	0.252303
H425	H	0.899365	-0.450930	-0.404548
H426	H	1.399365	0.049070	0.095452
H427	H	0.899550	-0.312430	-0.940187
H428	H	1.399550	0.187570	-0.440187
H429	H	0.236367	-0.312639	-0.404528
H430	H	0.736367	0.187361	0.095472
H431	H	0.899641	-1.052333	-0.404632
H432	H	1.399641	-0.552333	0.095368
H433	H	0.856196	-0.702113	-0.447855
H434	H	1.356196	-0.202113	0.052145
C435	C	0.374111	-0.182027	-0.235939
C436	C	0.874111	0.317973	0.264061
C437	C	0.328032	-0.152719	-0.198094
C438	C	0.828032	0.347281	0.301906
C439	C	0.363246	-0.119205	-0.154799
C440	C	0.863246	0.380795	0.345201
H441	H	0.401714	-0.159224	-0.261810
H442	H	0.901714	0.340776	0.238190
H443	H	0.401646	-0.201980	-0.206360
H444	H	0.901646	0.298020	0.293640
H445	H	0.300508	-0.132767	-0.227669
H446	H	0.800508	0.367233	0.272331
H447	H	0.300427	-0.175508	-0.172210
H448	H	0.800427	0.324492	0.327790
H449	H	0.390781	-0.139158	-0.125220
H450	H	0.890781	0.360842	0.374780
H451	H	0.390848	-0.096405	-0.180675
H452	H	0.890848	0.403595	0.319325
H453	H	0.331987	-0.099319	-0.129111
H454	H	0.831987	0.400681	0.370889
H455	H	0.899603	-0.953283	-0.404628
H456	H	1.399603	-0.453283	0.095372
