data_functionalizedCrystal
_audit_creation_method	'MofGen! by Chris Wilmer'
_symmetry_space_group_name_H-M	'P1'
_symmetry_Int_Tables_number	1
_symmetry_cell_setting	triclinic
loop_
_symmetry_equiv_pos_as_xyz
  x,y,z
_cell_length_a	21.395364
_cell_length_b	12.594516
_cell_length_c	21.395355
_cell_angle_alpha	90.013083
_cell_angle_beta	90.024727
_cell_angle_gamma	90.010149
loop_
_atom_site_label
_atom_site_type_symbol
_atom_site_fract_x
_atom_site_fract_y
_atom_site_fract_z
Zn1	Zn	0.957941	-0.423913	0.354288
Zn2	Zn	1.457941	0.076087	0.854288
Zn3	Zn	0.957878	-0.601877	0.249520
Zn4	Zn	1.457878	-0.101877	0.749520
Zn5	Zn	0.853156	-0.423908	0.249524
Zn6	Zn	1.353156	0.076092	0.749524
Zn7	Zn	0.853160	-0.601844	0.354260
Zn8	Zn	1.353160	-0.101844	0.854260
O9	O	0.905534	-0.512885	0.301898
O10	O	1.405534	-0.012885	0.801898
O11	O	1.045611	-0.447536	0.340400
O12	O	1.545611	0.052464	0.840400
O13	O	0.943959	-0.578281	0.161843
O14	O	1.443959	-0.078281	0.661843
O15	O	0.867081	-0.274963	0.263435
O16	O	1.367081	0.225037	0.763435
O17	O	1.045565	-0.578285	0.263428
O18	O	1.545565	-0.078285	0.763428
O19	O	0.944066	-0.274966	0.340404
O20	O	1.444066	0.225034	0.840404
O21	O	0.867020	-0.447527	0.161846
O22	O	1.367020	0.052473	0.661846
O23	O	0.765479	-0.447496	0.263408
O24	O	1.265479	0.052504	0.763408
O25	O	0.867087	-0.578230	0.441942
O26	O	1.367087	-0.078230	0.941942
O27	O	0.765482	-0.578225	0.340357
O28	O	1.265482	-0.078225	0.840357
O29	O	0.944070	-0.447504	0.441962
O30	O	1.444070	0.052496	0.941962
O31	O	0.943962	-0.750818	0.263401
O32	O	1.443962	-0.250818	0.763401
O33	O	0.867026	-0.750795	0.340353
O34	O	1.367026	-0.250795	0.840353
C35	C	0.742746	-0.512857	0.301880
C36	C	1.242746	-0.012857	0.801880
C37	C	0.673105	-0.512871	0.301887
C38	C	1.173105	-0.012871	0.801887
C39	C	0.171327	-0.581081	0.341927
C40	C	0.671327	-0.081081	0.841927
C41	C	0.236762	-0.581081	0.341920
C42	C	0.736762	-0.081081	0.841920
C43	C	0.269467	-0.512909	0.301918
C44	C	0.769467	-0.012909	0.801918
C45	C	0.236731	-0.444750	0.261908
C46	C	0.736731	0.055250	0.761908
C47	C	0.171296	-0.444760	0.261911
C48	C	0.671296	0.055240	0.761911
C49	C	0.373137	-0.416987	0.297062
C50	C	0.873137	0.083013	0.797062
C51	C	0.438570	-0.416976	0.297063
C52	C	0.938570	0.083024	0.797063
C53	C	0.471288	-0.512881	0.301904
C54	C	0.971288	-0.012881	0.801904
C55	C	0.438564	-0.608800	0.306758
C56	C	0.938564	-0.108800	0.806758
C57	C	0.373130	-0.608809	0.306762
C58	C	0.873130	-0.108809	0.806762
C59	C	0.340419	-0.512892	0.301910
C60	C	0.840419	-0.012892	0.801910
C61	C	0.574968	-0.581040	0.341902
C62	C	1.074968	-0.081040	0.841902
C63	C	0.640405	-0.581042	0.341891
C64	C	1.140405	-0.081042	0.841891
C65	C	0.640372	-0.444702	0.261882
C66	C	1.140372	0.055298	0.761882
C67	C	0.574937	-0.444710	0.261889
C68	C	1.074937	0.055290	0.761889
C69	C	0.542239	-0.512877	0.301903
C70	C	1.042239	-0.012877	0.801903
C71	C	0.905505	-0.789426	0.301887
C72	C	1.405505	-0.289426	0.801887
C73	C	0.905550	-0.907732	0.301904
C74	C	1.405550	-0.407732	0.801904
C75	C	0.947444	-0.976959	0.260094
C76	C	1.447444	-0.476959	0.760094
C77	C	0.962759	-1.047682	0.317282
C78	C	1.462759	-0.547682	0.817282
C79	C	0.890313	-1.047808	0.244753
C80	C	1.390313	-0.547808	0.744753
C81	C	0.920894	-0.976896	0.359121
C82	C	1.420894	-0.476896	0.859121
C83	C	0.848422	-0.977016	0.286553
C84	C	1.348422	-0.477016	0.786553
C85	C	0.863715	-1.047707	0.343780
C86	C	1.363715	-0.547707	0.843780
C87	C	1.068957	-0.512915	0.301917
C88	C	1.568957	-0.012915	0.801917
C89	C	1.138599	-0.512927	0.301925
C90	C	1.638599	-0.012927	0.801925
C91	C	0.905586	-0.512864	0.465322
C92	C	1.405586	-0.012864	0.965322
C93	C	0.905608	-0.512855	0.534963
C94	C	1.405608	-0.012855	1.034963
C95	C	0.905580	-0.235265	0.301923
C96	C	1.405580	0.264735	0.801923
C97	C	0.905600	-0.116959	0.301933
C98	C	1.405600	0.383041	0.801933
C99	C	0.905518	-0.512830	0.139111
C100	C	1.405518	-0.012830	0.639111
C101	C	0.905617	-0.512539	0.069470
C102	C	1.405617	-0.012539	0.569470
C103	C	0.945691	-0.444783	0.567688
C104	C	1.445691	0.055217	1.067688
C105	C	0.945690	-0.444737	0.633123
C106	C	1.445690	0.055263	1.133123
C107	C	0.905613	-0.512782	0.665831
C108	C	1.405613	-0.012782	1.165831
C109	C	0.865522	-0.580859	0.633099
C110	C	1.365522	-0.080859	1.133099
C111	C	0.865520	-0.580895	0.567665
C112	C	1.365520	-0.080895	1.067665
C113	C	0.900656	-0.608619	0.769502
C114	C	1.400656	-0.108619	1.269502
C115	C	0.900663	-0.608585	0.834935
C116	C	1.400663	-0.108585	1.334935
C117	C	0.905617	-0.512670	0.867652
C118	C	1.405617	-0.012670	1.367652
C119	C	0.910578	-0.416786	0.834928
C120	C	1.410578	0.083214	1.334928
C121	C	0.910575	-0.416822	0.769494
C122	C	1.410575	0.083178	1.269494
C123	C	0.905611	-0.512750	0.736784
C124	C	1.405611	-0.012750	1.236784
C125	C	0.945701	-0.444543	0.971329
C126	C	1.445701	0.055457	1.471329
C127	C	0.945696	-0.444495	1.036766
C128	C	1.445696	0.055505	1.536766
C129	C	0.865531	-0.580626	1.036740
C130	C	1.365531	-0.080626	1.536740
C131	C	0.865533	-0.580664	0.971305
C132	C	1.365533	-0.080664	1.471305
C133	C	0.905621	-0.512624	0.938604
C134	C	1.405621	-0.012624	1.438604
H135	H	0.465208	-0.338872	0.293118
H136	H	0.965208	0.161128	0.793118
H137	H	0.667051	-0.636549	0.374464
H138	H	1.167051	-0.136549	0.874464
H139	H	0.896454	-0.686705	0.742870
H140	H	1.396454	-0.186705	1.242870
H141	H	0.933754	-0.945879	0.407507
H142	H	1.433754	-0.445879	0.907507
H143	H	0.263415	-0.636580	0.374497
H144	H	0.763415	-0.136580	0.874497
C145	C	0.337154	-0.311476	0.291735
C146	C	0.837154	0.188524	0.791735
N147	N	0.310053	-0.232008	0.287723
N148	N	0.810053	0.267992	0.787723
H149	H	0.832897	-0.636102	0.944660
H150	H	1.332897	-0.136102	1.444660
C151	C	0.989790	-0.369857	0.669128
C152	C	1.489790	0.130143	1.169128
N153	N	1.023008	-0.313459	0.696244
N154	N	1.523008	0.186541	1.196244
C155	C	0.916023	-0.311352	0.733500
C156	C	1.416023	0.188648	1.233500
N157	N	0.920123	-0.231909	0.706389
N158	N	1.420123	0.268091	1.206389
H159	H	0.828308	-1.078575	0.379191
H160	H	1.328308	-0.578575	0.879191
C161	C	1.028054	-1.089627	0.334843
C162	C	1.528054	-0.589627	0.834843
N163	N	1.077235	-1.121218	0.348065
N164	N	1.577235	-0.621218	0.848065
C165	C	0.337137	-0.714320	0.312089
C166	C	0.837137	-0.214320	0.812089
N167	N	0.310027	-0.793792	0.316096
N168	N	0.810027	-0.293792	0.816096
H169	H	0.144649	-0.389258	0.229337
H170	H	0.644649	0.110742	0.729337
C171	C	0.872872	-1.089882	0.179441
C172	C	1.372872	-0.589882	0.679441
N173	N	0.859740	-1.121567	0.130247
N174	N	1.359740	-0.621567	0.630247
C175	C	0.989781	-0.369922	0.531720
C176	C	1.489781	0.130078	1.031720
N177	N	1.022988	-0.313532	0.504628
N178	N	1.522988	0.186468	1.004628
H179	H	0.982878	-0.945895	0.224769
H180	H	1.482878	-0.445895	0.724769
C181	C	0.916026	-0.311270	0.870912
C182	C	1.416026	0.188730	1.370912
N183	N	0.920131	-0.231799	0.898018
N184	N	1.420131	0.268201	1.398018
C185	C	0.989793	-0.369688	0.935356
C186	C	1.489793	0.130312	1.435356
N187	N	1.023003	-0.313306	0.908262
N188	N	1.523003	0.186694	1.408262
H189	H	0.548344	-0.636548	0.374482
H190	H	1.048344	-0.136548	0.874482
C191	C	0.676343	-0.369714	0.217877
C192	C	1.176343	0.130286	0.717877
N193	N	0.703440	-0.313233	0.184730
N194	N	1.203440	0.186767	0.684730
H195	H	0.978335	-0.389057	1.063409
H196	H	1.478335	0.110943	1.563409
C197	C	0.538934	-0.369720	0.217891
C198	C	1.038934	0.130280	0.717891
N199	N	0.511817	-0.313234	0.184750
N200	N	1.011817	0.186766	0.684750
H201	H	0.465201	-0.686895	0.310705
H202	H	0.965201	-0.186895	0.810705
C203	C	0.821446	-0.655478	1.072716
C204	C	1.321446	-0.155478	1.572716
N205	N	0.788239	-0.711857	1.099816
N206	N	1.288239	-0.211857	1.599816
C207	C	0.783147	-0.935033	0.268964
C208	C	1.283147	-0.435033	0.768964
N209	N	0.733983	-0.903407	0.255708
N210	N	1.233983	-0.403407	0.755708
H211	H	0.896627	-0.686659	0.861574
H212	H	1.396627	-0.186659	1.361574
H213	H	0.832889	-0.636258	0.659734
H214	H	1.332889	-0.136258	1.159734
C215	C	0.821425	-0.655785	0.531666
C216	C	1.321425	-0.155785	1.031666
N217	N	0.788213	-0.712195	0.504551
N218	N	1.288213	-0.212195	1.004551
H219	H	0.263363	-0.389246	0.229337
H220	H	0.763363	0.110754	0.729337
C221	C	0.135363	-0.656091	0.385929
C222	C	0.635363	-0.156091	0.885929
N223	N	0.108274	-0.712596	0.419068
N224	N	0.608274	-0.212596	0.919068
