data_functionalizedCrystal
_audit_creation_method	'MofGen! by Chris Wilmer'
_symmetry_space_group_name_H-M	'P1'
_symmetry_Int_Tables_number	1
_symmetry_cell_setting	triclinic
loop_
_symmetry_equiv_pos_as_xyz
  x,y,z
_cell_length_a	19.288864
_cell_length_b	18.366186
_cell_length_c	19.288865
_cell_angle_alpha	90.011479
_cell_angle_beta	83.136245
_cell_angle_gamma	90.022894
loop_
_atom_site_label
_atom_site_type_symbol
_atom_site_fract_x
_atom_site_fract_y
_atom_site_fract_z
O1	O	0.921353	0.060791	0.086649
O2	O	0.719092	0.060743	0.098337
O3	O	0.826067	0.060754	-0.008637
O4	O	0.814378	0.060780	0.193623
O5	O	0.826049	-0.060345	-0.008643
O6	O	0.719074	-0.060357	0.098332
O7	O	0.921335	-0.060308	0.086643
Zn8	Zn	0.820201	-0.079559	0.092487
Zn9	Zn	0.820225	0.079994	0.092494
O10	O	0.814360	-0.060319	0.193618
C11	C	0.693207	0.000187	0.097959
C12	C	0.616103	0.000167	0.096830
N13	N	0.820190	-0.188451	0.092482
C14	C	0.571407	0.000187	0.159598
C15	C	0.498960	0.000195	0.158537
C16	C	0.471212	0.000198	0.094705
C17	C	0.515918	0.000174	0.031929
C18	C	0.588364	0.000159	0.032991
C19	C	0.362956	0.042642	0.044527
C20	C	0.290512	0.042662	0.043468
C21	C	0.247767	0.000241	0.091425
C22	C	0.277473	-0.042189	0.140454
C23	C	0.349918	-0.042205	0.141517
C24	C	0.392658	0.000214	0.093546
C25	C	0.124514	0.000269	0.153047
C26	C	0.052066	0.000272	0.151984
C27	C	0.069026	0.000259	0.025374
C28	C	0.141473	0.000248	0.026439
C29	C	0.169212	0.000256	0.090278
C30	C	0.867574	-0.226546	0.045137
C31	C	0.867578	-0.302774	0.045134
C32	C	0.820206	-0.340903	0.092488
C33	C	0.772813	-0.302799	0.139836
C34	C	0.772805	-0.226572	0.139834
C35	C	0.810907	-0.461657	0.155775
C36	C	0.810920	-0.537882	0.155779
C37	C	0.820225	-0.576011	0.092496
C38	C	0.829533	-0.537905	0.029207
C39	C	0.829525	-0.461679	0.029204
C40	C	0.820208	-0.423558	0.092496
C41	C	0.867617	-0.696761	0.045144
C42	C	0.867616	-0.772990	0.045140
C43	C	0.772854	-0.773014	0.139849
C44	C	0.772851	-0.696786	0.139847
C45	C	0.820236	-0.658664	0.092495
C46	C	0.947220	0.000250	0.087022
C47	C	1.024324	0.000274	0.088151
C48	C	0.825682	0.000202	-0.034516
C49	C	0.824553	0.000195	-0.111620
N50	N	0.820242	0.188885	0.092493
C51	C	0.887321	0.000207	-0.156316
C52	C	0.886260	0.000218	-0.228763
C53	C	0.822428	0.000203	-0.256511
C54	C	0.759652	0.000196	-0.211805
C55	C	0.760714	0.000192	-0.139359
C56	C	0.772242	-0.042227	-0.364800
C57	C	0.771182	-0.042228	-0.437245
C58	C	0.819148	0.000219	-0.479956
C59	C	0.868186	0.042657	-0.450216
C60	C	0.869248	0.042653	-0.377771
C61	C	0.821269	0.000208	-0.335065
C62	C	0.880770	0.000244	-0.603209
C63	C	0.879707	0.000259	-0.675657
C64	C	0.753097	0.000230	-0.658697
C65	C	0.754162	0.000221	-0.586250
C66	C	0.818001	0.000225	-0.558511
C67	C	0.814745	0.000234	0.219497
C68	C	0.815874	0.000246	0.296601
H69	H	0.593987	0.000195	0.211580
Cl70	Cl	0.799273	-0.413731	0.235341
Cl71	Cl	0.711937	-0.095596	-0.311112
Cl72	Cl	0.672850	0.000215	-0.693572
Cl73	Cl	0.442760	0.000218	0.237451
Cl74	Cl	0.927139	-0.178622	-0.014393
H75	H	0.803346	-0.568901	0.207313
H76	H	0.493322	0.000187	-0.020044
H77	H	0.734240	-0.333848	0.178392
H78	H	0.703049	0.000208	-0.549857
H79	H	0.734219	-0.195554	0.178388
Cl80	Cl	0.197666	0.000228	-0.052474
Cl81	Cl	0.681799	0.000177	-0.083166
Cl82	Cl	0.967575	0.000232	-0.121448
Cl83	Cl	0.416687	0.095976	-0.015768
Cl84	Cl	0.965174	0.000233	-0.284963
Cl85	Cl	0.927153	-0.350673	-0.014391
Cl86	Cl	0.159390	0.000272	0.233300
H87	H	0.624756	0.000144	-0.018124
H88	H	0.734279	-0.804058	0.178402
H89	H	0.707679	0.000185	-0.234401
Cl90	Cl	0.928490	0.096023	-0.503903
Cl91	Cl	0.841218	-0.413778	-0.050356
Cl92	Cl	0.930888	0.096005	-0.340385
Cl93	Cl	0.961023	0.000244	-0.568333
Cl94	Cl	0.958623	0.000279	-0.731848
H95	H	0.242671	-0.076733	0.179506
Cl96	Cl	0.709538	-0.095580	-0.474625
H97	H	0.906198	-0.665721	0.006585
Cl98	Cl	0.034151	0.000254	-0.054873
H99	H	0.837110	-0.568948	-0.022324
Cl100	Cl	0.387262	-0.095547	0.203147
Cl101	Cl	0.927185	-0.820885	-0.014389
Cl102	Cl	0.713284	-0.648890	0.199373
H103	H	0.015674	0.000284	0.203099
H104	H	0.266331	0.077215	0.003548
