data_functionalizedCrystal
_audit_creation_method	'MofGen! by Chris Wilmer'
_symmetry_space_group_name_H-M	'P1'
_symmetry_Int_Tables_number	1
_symmetry_cell_setting	triclinic
loop_
_symmetry_equiv_pos_as_xyz
  x,y,z
_cell_length_a	17.640112
_cell_length_b	16.120484
_cell_length_c	17.640968
_cell_angle_alpha	82.192558
_cell_angle_beta	92.139080
_cell_angle_gamma	103.499326
loop_
_atom_site_label
_atom_site_type_symbol
_atom_site_fract_x
_atom_site_fract_y
_atom_site_fract_z
Zn1	Zn	1.246898	-0.023860	-0.196404
Zn2	Zn	1.746898	0.476140	0.303596
Zn3	Zn	1.214806	-0.195187	-0.078925
Zn4	Zn	1.714806	0.304813	0.421075
Zn5	Zn	1.092236	-0.077878	-0.098046
Zn6	Zn	1.592236	0.422122	0.401954
Zn7	Zn	1.113950	-0.184256	-0.230901
Zn8	Zn	1.613950	0.315744	0.269099
O9	O	1.166972	-0.120295	-0.151069
O10	O	1.666972	0.379705	0.348931
O11	O	1.349575	-0.028555	-0.158380
O12	O	1.849575	0.471445	0.341620
O13	O	1.176029	-0.206807	0.023304
O14	O	1.676029	0.293193	0.523304
O15	O	1.117096	0.045508	-0.104658
O16	O	1.617096	0.545508	0.395342
O17	O	1.325997	-0.154428	-0.072070
O18	O	1.825997	0.345572	0.427930
O19	O	1.230725	0.085195	-0.176921
O20	O	1.730725	0.585195	0.323079
O21	O	1.085978	-0.120621	0.009256
O22	O	1.585978	0.379379	0.509256
O23	O	0.988182	-0.110021	-0.138109
O24	O	1.488182	0.389979	0.361891
O25	O	1.154104	-0.135798	-0.331090
O26	O	1.654104	0.364202	0.168910
O27	O	1.004135	-0.188177	-0.235717
O28	O	1.504135	0.311823	0.264283
O29	O	1.251780	-0.017955	-0.305745
O30	O	1.751780	0.482045	0.194255
O31	O	1.197083	-0.309958	-0.105520
O32	O	1.697083	0.190042	0.394480
O33	O	1.122985	-0.301927	-0.217176
O34	O	1.622985	0.198073	0.282824
C35	C	0.968432	-0.153775	-0.192732
C36	C	1.468432	0.346225	0.307268
C37	C	0.883498	-0.168113	-0.210574
C38	C	1.383498	0.331887	0.289426
C39	C	0.562620	-0.011353	-0.015528
C40	C	1.062620	0.488647	0.484472
C41	C	0.482814	-0.024840	-0.032305
C42	C	0.982814	0.475160	0.467695
C43	C	0.499439	-0.106413	-0.133786
C44	C	0.999439	0.393587	0.366214
C45	C	0.579249	-0.092929	-0.117021
C46	C	1.079249	0.407071	0.382979
C47	C	0.610833	-0.045399	-0.057890
C48	C	1.110833	0.454601	0.442110
C49	C	0.627462	-0.126975	-0.159383
C50	C	1.127462	0.373025	0.340617
C51	C	0.707264	-0.113496	-0.142616
C52	C	1.207264	0.386504	0.357384
C53	C	0.738854	-0.065971	-0.083486
C54	C	1.238854	0.434029	0.416514
C55	C	0.690635	-0.031920	-0.041123
C56	C	1.190635	0.468080	0.458877
C57	C	0.595875	-0.174510	-0.218510
C58	C	1.095875	0.325490	0.281490
C59	C	0.644088	-0.208556	-0.260872
C60	C	1.144088	0.291444	0.239128
C61	C	0.723893	-0.195072	-0.244108
C62	C	1.223893	0.304928	0.255892
C63	C	0.755483	-0.147546	-0.184979
C64	C	1.255483	0.352454	0.315021
C65	C	0.772112	-0.229122	-0.286472
C66	C	1.272112	0.270878	0.213528
C67	C	0.851914	-0.215643	-0.269705
C68	C	1.351914	0.284357	0.230295
C69	C	0.835285	-0.134067	-0.168212
C70	C	1.335285	0.365933	0.331788
C71	C	1.158932	-0.336069	-0.163028
C72	C	1.658932	0.163931	0.336972
C73	C	1.155568	-0.428360	-0.168155
C74	C	1.655568	0.071640	0.331845
C75	C	1.149433	-0.597332	-0.177530
C76	C	1.649433	-0.097332	0.322470
C77	C	1.184651	-0.642392	-0.124592
C78	C	1.684651	-0.142392	0.375408
C79	C	1.181238	-0.736414	-0.129808
C80	C	1.681238	-0.236414	0.370192
C81	C	1.152846	-0.503302	-0.172315
C82	C	1.652846	-0.003302	0.327685
C83	C	1.366289	-0.086685	-0.109244
C84	C	1.866289	0.413315	0.390756
C85	C	1.451225	-0.072363	-0.091421
C86	C	1.951225	0.427637	0.408579
C87	C	1.208944	-0.069632	-0.346341
C88	C	1.708944	0.430368	0.153659
C89	C	1.226829	-0.048042	-0.429555
C90	C	1.726829	0.451958	0.070445
C91	C	1.175068	0.096329	-0.139075
C92	C	1.675068	0.596329	0.360925
C93	C	1.178518	0.188641	-0.133963
C94	C	1.678518	0.688641	0.366037
C95	C	1.031408	-0.283809	-0.769207
C96	C	1.531408	0.216191	-0.269207
C97	C	1.048230	-0.263509	-0.847394
C98	C	1.548230	0.236491	-0.347394
C99	C	1.149932	-0.140810	-0.820995
C100	C	1.649932	0.359190	-0.320995
C101	C	1.133115	-0.161098	-0.742803
C102	C	1.633115	0.338902	-0.242803
C103	C	1.073853	-0.232599	-0.716916
C104	C	1.573853	0.267401	-0.216916
C105	C	1.175560	-0.109887	-0.690513
C106	C	1.675560	0.390113	-0.190513
C107	C	1.158747	-0.130176	-0.612328
C108	C	1.658747	0.369824	-0.112328
C109	C	1.099489	-0.201675	-0.586434
C110	C	1.599489	0.298325	-0.086434
C111	C	1.057040	-0.252888	-0.638731
C112	C	1.557040	0.247112	-0.138731
C113	C	1.234826	-0.038390	-0.716401
C114	C	1.734826	0.461610	-0.216401
C115	C	1.277271	0.012820	-0.664110
C116	C	1.777271	0.512820	-0.164110
C117	C	1.260455	-0.007464	-0.585924
C118	C	1.760455	0.492536	-0.085924
C119	C	1.201197	-0.078964	-0.560030
C120	C	1.701197	0.421036	-0.060030
C121	C	1.302904	0.043748	-0.533627
C122	C	1.802904	0.543748	-0.033627
C123	C	1.286092	0.023459	-0.455442
C124	C	1.786092	0.523459	0.044558
C125	C	1.184384	-0.099252	-0.481846
C126	C	1.684384	0.400748	0.018154
C127	C	1.125211	-0.170694	0.043456
C128	C	1.625211	0.329306	0.543456
C129	C	1.107482	-0.192025	0.126714
C130	C	1.607482	0.307975	0.626714
H131	H	0.618361	-0.247257	-0.309014
H132	H	1.118361	0.252743	0.190986
N133	N	1.108401	-0.637526	-0.239293
N134	N	1.608401	-0.137526	0.260707
N135	N	1.105654	-0.714955	-0.243491
N136	N	1.605654	-0.214955	0.256509
H137	H	1.076674	-0.743352	-0.287110
H138	H	1.576674	-0.243352	0.212890
H139	H	0.716355	0.006798	0.007017
H140	H	1.216355	0.506798	0.507017
H141	H	1.136109	-0.157459	-0.460770
H142	H	1.636109	0.342541	0.039230
N143	N	0.739829	-0.277680	-0.346859
N144	N	1.239829	0.222320	0.153141
N145	N	0.668575	-0.289717	-0.361816
N146	N	1.168575	0.210283	0.138184
H147	H	0.645775	-0.324013	-0.404464
H148	H	1.145775	0.175987	0.095536
H149	H	1.013662	-0.305217	-0.889969
H150	H	1.513662	0.194783	-0.389969
H151	H	1.008765	-0.311094	-0.617656
H152	H	1.508765	0.188906	-0.117656
H153	H	1.085804	-0.218196	-0.522770
H154	H	1.585804	0.281804	-0.022770
H155	H	0.588340	0.027365	0.032612
H156	H	1.088340	0.527365	0.532612
H157	H	0.443562	0.002895	0.002191
H158	H	0.943562	0.502895	0.502191
H159	H	1.217365	-0.610356	-0.075352
H160	H	1.717365	-0.110356	0.424648
H161	H	0.473711	-0.145114	-0.181929
H162	H	0.973711	0.354886	0.318071
H163	H	0.983133	-0.342016	-0.748131
H164	H	1.483133	0.157984	-0.248131
N165	N	1.210454	-0.067774	-0.847458
N166	N	1.710454	0.432226	-0.347458
N167	N	1.194921	-0.008070	-0.893803
N168	N	1.694921	0.491930	-0.393803
H169	H	1.237663	0.043515	-0.912494
H170	H	1.737663	0.543515	-0.412494
N171	N	0.901155	-0.250431	-0.312977
N172	N	1.401155	0.249569	0.187023
N173	N	0.872946	-0.292867	-0.365768
N174	N	1.372946	0.207133	0.134232
H175	H	0.907722	-0.317442	-0.396329
H176	H	1.407722	0.182558	0.103671
N177	N	1.329431	0.075765	-0.402015
N178	N	1.829431	0.575765	0.097985
N179	N	1.314410	0.057639	-0.332210
N180	N	1.814410	0.557639	0.167790
H181	H	1.345021	0.094579	-0.294474
H182	H	1.845021	0.594579	0.205526
N183	N	0.514361	-0.188257	-0.235646
N184	N	1.014361	0.311743	0.264354
N185	N	0.484542	-0.125427	-0.255295
N186	N	0.984542	0.374573	0.244705
H187	H	0.426974	-0.135132	-0.267401
H188	H	0.926974	0.364868	0.232599
H189	H	1.248515	-0.021875	-0.780065
H190	H	1.748515	0.478125	-0.280065
N191	N	1.337806	0.085846	-0.690569
N192	N	1.837806	0.585846	-0.190569
N193	N	1.352814	0.103951	-0.760378
N194	N	1.852814	0.603951	-0.260378
H195	H	1.395567	0.155528	-0.779064
H196	H	1.895567	0.655528	-0.279064
N197	N	1.363431	0.116780	-0.560091
N198	N	1.863431	0.616780	-0.060091
N199	N	1.347905	0.176485	-0.606440
N200	N	1.847905	0.676485	-0.106440
H201	H	1.390652	0.228065	-0.625131
H202	H	1.890652	0.728065	-0.125131
N203	N	0.867564	-0.085492	-0.107829
N204	N	1.367564	0.414508	0.392171
N205	N	0.862593	-0.009054	-0.110547
N206	N	1.362593	0.490946	0.389453
H207	H	0.885393	0.025254	-0.067906
H208	H	1.385393	0.525254	0.432094
N209	N	0.820370	-0.052184	-0.066351
N210	N	1.320370	0.447816	0.433649
N211	N	0.848559	-0.009745	-0.013556
N212	N	1.348559	0.490255	0.486444
H213	H	0.906130	-0.000006	-0.001453
H214	H	1.406130	0.499994	0.498547
