data_functionalizedCrystal
_audit_creation_method	'MofGen! by Chris Wilmer'
_symmetry_space_group_name_H-M	'P1'
_symmetry_Int_Tables_number	1
_symmetry_cell_setting	triclinic
loop_
_symmetry_equiv_pos_as_xyz
  x,y,z
_cell_length_a	23.532407
_cell_length_b	23.532357
_cell_length_c	10.868271
_cell_angle_alpha	89.989339
_cell_angle_beta	89.998361
_cell_angle_gamma	82.838519
loop_
_atom_site_label
_atom_site_type_symbol
_atom_site_fract_x
_atom_site_fract_y
_atom_site_fract_z
O1	O	0.755247	0.069137	-0.102259
O2	O	0.589382	0.079141	-0.102281
O3	O	0.677331	-0.008795	-0.102244
O4	O	0.667298	0.157073	-0.102296
O5	O	0.677324	-0.008798	0.102401
O6	O	0.589375	0.079137	0.102364
O7	O	0.755240	0.069134	0.102385
Zn8	Zn	0.672306	0.074135	0.134866
Zn9	Zn	0.672315	0.074139	-0.134762
O10	O	0.667291	0.157069	0.102349
C11	C	0.568162	0.078884	0.000039
C12	C	0.504945	0.078118	0.000032
C13	C	0.677076	-0.030013	0.000082
C14	C	0.676322	-0.093232	0.000093
C15	C	0.238788	0.022922	0.000083
C16	C	0.298188	0.023633	0.000082
O17	O	0.334940	-0.020154	0.000139
N18	N	0.320805	0.075911	0.000057
C19	C	0.284018	0.127480	0.000046
O20	O	0.308710	0.172012	0.000026
C21	C	0.224619	0.126768	0.000055
C22	C	0.202006	0.074487	0.000067
C23	C	0.216174	-0.029355	0.000096
C24	C	0.156778	-0.030066	0.000095
C25	C	0.119996	0.021499	0.000079
C26	C	0.142610	0.073776	0.000066
C27	C	0.187833	0.178337	0.000052
C28	C	0.128431	0.177620	0.000063
C29	C	0.105818	0.125339	0.000075
C30	C	0.046431	0.124630	0.000049
N31	N	0.023815	0.072353	0.000073
C32	C	0.060597	0.020787	0.000089
C33	C	0.408760	0.128971	0.000028
C34	C	0.468158	0.129684	0.000010
C35	C	0.482324	0.025837	0.000049
C36	C	0.422925	0.025125	0.000058
C37	C	0.386143	0.076694	0.000053
C38	C	-0.064140	0.019297	0.000084
C39	C	-0.123542	0.018591	0.000077
C40	C	-0.137702	0.122438	0.000045
C41	C	-0.078306	0.123145	0.000045
C42	C	-0.041525	0.071570	0.000069
O43	O	0.009644	0.168394	-0.000003
O44	O	0.035897	-0.023737	0.000125
C45	C	0.671589	-0.485241	-0.111525
C46	C	0.670872	-0.544640	-0.111532
O47	O	0.670485	-0.575355	-0.206403
N48	N	0.670512	-0.574354	0.000018
C49	C	0.670864	-0.544663	0.111582
O50	O	0.670492	-0.575391	0.206464
C51	C	0.671577	-0.485264	0.111588
C52	C	0.671942	-0.455555	0.000031
C53	C	0.671954	-0.455532	-0.223074
C54	C	0.672672	-0.396137	-0.223066
C55	C	0.673025	-0.366451	-0.111510
C56	C	0.672661	-0.396160	0.000038
C57	C	0.671925	-0.455575	0.223152
C58	C	0.672638	-0.396171	0.223148
C59	C	0.673003	-0.366462	0.111590
C60	C	0.673733	-0.307079	0.111602
N61	N	0.674092	-0.277366	0.000052
C62	C	0.673739	-0.307052	-0.111504
C63	C	0.669365	-0.669405	0.111562
C64	C	0.668656	-0.728803	0.111557
C65	C	0.668663	-0.728776	-0.111558
C66	C	0.669376	-0.669377	-0.111552
C67	C	0.669725	-0.639692	0.000011
C68	C	0.675247	-0.182318	-0.111480
C69	C	0.675968	-0.122917	-0.111463
C70	C	0.675958	-0.122949	0.111652
C71	C	0.675241	-0.182345	0.111635
C72	C	0.674883	-0.212027	0.000059
O73	O	0.674118	-0.276326	0.206424
O74	O	0.674103	-0.276316	-0.206370
C75	C	0.776459	0.069390	0.000063
C76	C	0.839676	0.070156	0.000062
C77	C	0.667545	0.178288	0.000020
C78	C	0.668300	0.241506	0.000000
N79	N	0.672304	0.074132	0.318880
N80	N	0.672322	0.074138	-0.318776
C81	C	0.672312	0.074138	0.569886
C82	C	0.672306	0.074136	0.430209
H83	H	-0.034199	-0.022700	0.000103
O84	O	0.671571	-0.487548	-0.343402
H85	H	0.632421	-0.509306	-0.348757
H86	H	0.676249	-0.098769	0.202478
H87	H	0.669651	-0.645239	0.202416
H88	H	0.672913	-0.372003	0.313999
H89	H	0.206234	0.220910	0.000037
O90	O	0.674858	-0.214386	0.231965
H91	H	0.713356	-0.246746	0.237308
O92	O	-0.147933	-0.037800	0.000107
H93	H	-0.112373	-0.073535	0.000135
O94	O	0.668276	-0.760842	0.231884
H95	H	0.667724	-0.807135	0.213153
H96	H	-0.059893	0.165716	0.000034
H97	H	0.669673	-0.645192	-0.202392
O98	O	-0.177379	0.178054	0.000048
H99	H	-0.222480	0.168771	0.000070
H100	H	0.672967	-0.371952	-0.313908
H101	H	0.668373	-0.752957	-0.202393
O102	O	0.671525	-0.487609	0.343475
H103	H	0.671882	-0.456977	0.421035
O104	O	0.088759	0.233243	0.000066
H105	H	0.061353	0.235408	-0.083336
O106	O	0.676354	-0.090871	-0.231789
H107	H	0.675979	-0.121496	-0.309359
O108	O	0.132390	-0.086455	0.000139
H109	H	0.167954	-0.122187	0.000169
H110	H	0.378815	0.170968	0.000015
H111	H	0.404518	-0.017447	0.000069
O112	O	0.255842	-0.084977	0.000111
H113	H	0.230128	-0.121442	0.000115
O114	O	0.522001	-0.029784	0.000085
H115	H	0.567102	-0.020501	0.000094
O116	O	0.492546	0.186072	-0.000002
H117	H	0.456985	0.221806	-0.000000
O118	O	0.674857	-0.214328	-0.231818
H119	H	0.675233	-0.183683	-0.309374
