data_functionalizedCrystal
_audit_creation_method	'MofGen! by Chris Wilmer'
_symmetry_space_group_name_H-M	'P1'
_symmetry_Int_Tables_number	1
_symmetry_cell_setting	triclinic
loop_
_symmetry_equiv_pos_as_xyz
  x,y,z
_cell_length_a	17.699077
_cell_length_b	15.995292
_cell_length_c	14.472311
_cell_angle_alpha	90.006466
_cell_angle_beta	90.003581
_cell_angle_gamma	83.374596
loop_
_atom_site_label
_atom_site_type_symbol
_atom_site_fract_x
_atom_site_fract_y
_atom_site_fract_z
O1	O	1.004234	0.105868	0.076822
O2	O	0.783875	0.119650	0.076826
O3	O	0.900101	-0.009144	0.076825
O4	O	0.888008	0.234663	0.076823
O5	O	0.900093	-0.009160	-0.076857
O6	O	0.783867	0.119634	-0.076856
O7	O	1.004226	0.105852	-0.076860
Cu8	Cu	0.894046	0.112742	-0.090890
Cu9	Cu	0.894055	0.112761	0.090856
O10	O	0.888000	0.234646	-0.076859
C11	C	0.755673	0.119149	-0.000015
C12	C	0.671653	0.117670	-0.000013
C13	C	0.632180	0.116964	-0.083786
C14	C	0.553235	0.115561	-0.083787
C15	C	0.513764	0.114870	-0.000014
C16	C	0.553243	0.115573	0.083766
C17	C	0.632187	0.116970	0.083766
C18	C	0.234871	0.109938	0.083767
C19	C	0.155921	0.108544	0.083761
C20	C	0.155920	0.108530	-0.083785
C21	C	0.234864	0.109927	-0.083785
C22	C	0.274336	0.110625	-0.000006
C23	C	0.359937	0.112145	-0.000006
C24	C	0.428164	0.113356	-0.000013
C25	C	0.899605	-0.040347	-0.000013
C26	C	0.898129	-0.133297	-0.000006
C27	C	0.892704	-0.471024	-0.000015
C28	C	0.976593	-0.447884	-0.000359
C29	C	0.978188	-0.351212	-0.000010
C30	C	0.895396	-0.303474	-0.000011
C31	C	0.853460	-0.332479	0.087747
C32	C	0.852450	-0.429268	0.087817
C33	C	0.850728	-0.429140	-0.086948
C34	C	0.853837	-0.332654	-0.088105
C35	C	0.896913	-0.208781	-0.000006
C36	C	0.891185	-0.565717	-0.000014
C37	C	1.032427	0.106353	-0.000017
C38	C	1.116448	0.107832	-0.000013
C39	C	0.888496	0.265849	-0.000019
C40	C	0.889972	0.358799	-0.000019
N41	N	0.894044	0.112728	-0.218721
C42	C	0.894056	0.112754	-0.592813
C43	C	0.956448	0.044069	-0.553618
C44	C	0.956285	0.043816	-0.446530
C45	C	0.894051	0.112741	-0.407221
C46	C	0.815090	0.093822	-0.446111
C47	C	0.815459	0.093337	-0.553232
C48	C	0.909914	0.200563	-0.553319
C49	C	0.911706	0.199971	-0.446190
C50	C	0.894043	0.112735	-0.302333
C51	C	0.894058	0.112759	-0.697701
N52	N	0.894062	0.112768	0.218687
H53	H	0.267000	0.110505	0.151985
H54	H	0.869207	0.253465	-0.419430
Br55	Br	0.102347	0.107580	-0.197488
H56	H	0.767544	0.142525	-0.420650
Br57	Br	0.685739	0.117911	-0.197484
Br58	Br	0.753113	-0.277499	-0.096944
H59	H	0.881500	-0.456137	0.153418
H60	H	0.877143	-0.457289	-0.153468
H61	H	0.521100	0.115004	0.151975
H62	H	0.864416	0.251675	-0.578670
Br63	Br	1.030487	-0.494667	-0.105258
H64	H	0.123786	0.107980	0.151983
Br65	Br	1.008518	0.223915	-0.403819
Br66	Br	1.054112	0.062569	-0.402699
H67	H	0.946466	-0.020729	-0.580548
H68	H	0.946155	-0.021350	-0.420912
Br69	Br	0.792159	-0.013388	-0.594896
Br70	Br	1.033261	-0.320631	0.105025
Br71	Br	0.904725	-0.301820	-0.196318
H72	H	0.664324	0.117546	0.151982
Br73	Br	0.499666	0.114618	-0.197484
H74	H	0.767637	0.141470	-0.579161
Br75	Br	1.032906	-0.319618	-0.104876
Br76	Br	0.791213	-0.011686	-0.401413
Br77	Br	1.003834	0.230932	-0.598326
H78	H	1.008751	-0.476962	0.062221
Br79	Br	0.749938	-0.453313	0.094459
Br80	Br	0.288427	0.110872	-0.197481
H81	H	1.015340	0.055126	-0.579374
H82	H	0.792537	-0.300486	0.091008
H83	H	0.788980	-0.443003	-0.087540
Br84	Br	0.902007	-0.299138	0.196604
