data_functionalizedCrystal
_audit_creation_method	'MofGen! by Chris Wilmer'
_symmetry_space_group_name_H-M	'P1'
_symmetry_Int_Tables_number	1
_symmetry_cell_setting	triclinic
loop_
_symmetry_equiv_pos_as_xyz
  x,y,z
_cell_length_a	10.654541
_cell_length_b	23.532407
_cell_length_c	9.130307
_cell_angle_alpha	89.992076
_cell_angle_beta	89.999822
_cell_angle_gamma	83.666303
loop_
_atom_site_label
_atom_site_type_symbol
_atom_site_fract_x
_atom_site_fract_y
_atom_site_fract_z
O1	O	1.665305	0.079977	-0.121771
O2	O	1.299584	0.087599	-0.121786
O3	O	1.493473	0.000928	-0.121751
O4	O	1.471416	0.166648	-0.121806
O5	O	1.493467	0.000928	0.121848
O6	O	1.299578	0.087598	0.121813
O7	O	1.665299	0.079977	0.121828
Cu8	Cu	1.482438	0.083787	0.144063
Cu9	Cu	1.482445	0.083788	-0.144021
O10	O	1.471410	0.166647	0.121793
C11	C	1.252801	0.087039	0.000012
C12	C	1.113410	0.085366	0.000008
C13	C	1.082156	0.189004	-0.000044
C14	C	1.001045	0.240035	-0.000076
C15	C	0.870077	0.238459	-0.000077
C16	C	0.820218	0.185847	-0.000042
C17	C	0.901329	0.134816	-0.000010
C18	C	1.032299	0.136398	-0.000013
C19	C	0.932583	0.031179	0.000053
C20	C	1.063552	0.032754	0.000043
C21	C	0.882725	-0.021433	0.000088
C22	C	0.963837	-0.072465	0.000110
C23	C	1.094812	-0.070887	0.000109
C24	C	1.144663	-0.018277	0.000075
C25	C	1.492908	-0.020292	0.000052
C26	C	1.491219	-0.083520	0.000063
C27	C	1.595367	-0.481945	-0.000013
C28	C	1.593798	-0.541355	-0.000024
O29	O	1.690344	-0.577471	-0.000074
N30	N	1.478531	-0.564732	-0.000028
C31	C	1.364826	-0.528695	-0.000035
O32	O	1.266639	-0.554034	-0.000040
C33	C	1.366396	-0.469285	-0.000034
C34	C	1.481670	-0.445912	-0.000016
C35	C	1.710632	-0.458571	0.000004
C36	C	1.712200	-0.399164	0.000018
C37	C	1.598503	-0.363132	0.000015
C38	C	1.483238	-0.386506	-0.000002
C39	C	1.252692	-0.433249	-0.000052
C40	C	1.254272	-0.373836	-0.000052
C41	C	1.369546	-0.350463	-0.000034
C42	C	1.371110	-0.291067	0.000009
N43	N	1.486377	-0.267690	0.000013
C44	C	1.600073	-0.303723	0.000016
C45	C	1.361537	-0.653459	-0.000039
C46	C	1.359966	-0.712867	-0.000029
C47	C	1.588939	-0.725523	-0.000021
C48	C	1.590509	-0.666114	-0.000020
C49	C	1.476804	-0.630082	-0.000035
C50	C	1.603358	-0.178964	0.000046
C51	C	1.604916	-0.119552	0.000066
C52	C	1.375944	-0.106901	0.000050
C53	C	1.374385	-0.166308	0.000038
C54	C	1.488102	-0.202339	0.000031
O55	O	1.274615	-0.254916	0.000054
O56	O	1.698244	-0.278375	0.000002
C57	C	1.712082	0.080536	0.000026
C58	C	1.851472	0.082210	0.000021
C59	C	1.471975	0.187867	-0.000013
C60	C	1.473663	0.251096	-0.000034
N61	N	1.482442	0.083786	0.346686
N62	N	1.482451	0.083785	-0.346644
C63	C	1.654199	0.007062	0.346706
C64	C	1.740086	-0.031299	0.423383
C65	C	1.740098	-0.031299	0.576717
C66	C	1.654212	0.007064	0.653377
C67	C	1.568325	0.045425	0.576700
C68	C	1.568325	0.045422	0.423363
C69	C	1.396564	0.122146	0.576679
C70	C	1.396555	0.122150	0.423346
C71	C	1.310678	0.160509	0.653339
C72	C	1.224795	0.198873	0.576662
C73	C	1.224787	0.198872	0.423320
C74	C	1.310669	0.160510	0.346669
H75	H	0.713576	0.184568	-0.000025
H76	H	0.776083	-0.022713	0.000096
H77	H	1.251302	-0.016987	0.000058
N78	N	1.654202	0.007048	0.810002
N79	N	1.633988	-0.037043	0.878435
H80	H	1.633978	-0.037057	0.989054
N81	N	1.827845	-0.070475	0.655047
N82	N	1.905559	-0.052070	0.740591
H83	H	1.967532	-0.079737	0.795913
N84	N	1.051955	0.293779	-0.000097
N85	N	1.026860	0.328303	0.102567
H86	H	1.062811	0.366260	0.102559
H87	H	1.280520	-0.185339	0.000064
N88	N	1.138110	-0.337040	-0.000085
N89	N	1.035205	-0.357922	-0.000110
H90	H	0.953165	-0.331935	-0.000134
N91	N	1.137086	0.238062	0.654963
N92	N	1.138133	0.290708	0.637833
H93	H	1.076186	0.318387	0.693137
H94	H	1.160847	-0.112443	0.000140
H95	H	1.283375	-0.077553	0.000053
N96	N	1.705079	-0.762337	-0.000062
N97	N	1.781905	-0.759938	-0.102751
H98	H	1.863924	-0.785939	-0.102782
H99	H	0.923230	-0.115298	0.000137
N100	N	1.137072	0.238059	0.344978
N101	N	1.137076	0.238058	0.208074
H102	H	1.075127	0.265735	0.152747
H103	H	1.188795	0.190293	-0.000076
N104	N	1.829952	-0.375295	0.000048
N105	N	1.906431	-0.386181	0.102731
H106	H	1.989600	-0.369327	0.102750
H107	H	1.310674	0.160508	0.221817
N108	N	1.722671	-0.095678	0.000111
N109	N	1.799144	-0.106562	0.102801
H110	H	1.882306	-0.089703	0.102835
N111	N	0.787235	0.290590	-0.000092
N112	N	0.831758	0.337560	-0.000112
H113	H	0.773252	0.374377	-0.000121
H114	H	1.803222	-0.487903	0.000001
N115	N	1.719527	-0.215755	0.000034
N116	N	1.822425	-0.194868	0.000050
H117	H	1.904471	-0.220851	0.000050
H118	H	1.654208	0.007063	0.221854
H119	H	1.684375	-0.647088	-0.000007
H120	H	1.158824	-0.452269	-0.000076
N121	N	1.242228	-0.736748	-0.000016
N122	N	1.215801	-0.768494	0.102661
H123	H	1.132645	-0.785359	0.102665
N124	N	1.245371	-0.616663	-0.000049
N125	N	1.142470	-0.637548	-0.000054
H126	H	1.060427	-0.611564	-0.000065
H127	H	1.810012	-0.062535	0.360953
N128	N	1.310695	0.160498	0.809965
N129	N	1.387384	0.126246	0.878412
H130	H	1.387396	0.126239	0.989031
