data_functionalizedCrystal
_audit_creation_method	'MofGen! by Chris Wilmer'
_symmetry_space_group_name_H-M	'P1'
_symmetry_Int_Tables_number	1
_symmetry_cell_setting	triclinic
loop_
_symmetry_equiv_pos_as_xyz
  x,y,z
_cell_length_a	19.805407
_cell_length_b	19.805405
_cell_length_c	19.805398
_cell_angle_alpha	90.030326
_cell_angle_beta	90.013121
_cell_angle_gamma	90.026410
loop_
_atom_site_label
_atom_site_type_symbol
_atom_site_fract_x
_atom_site_fract_y
_atom_site_fract_z
Zn1	Zn	1.034693	-0.269472	0.382712
Zn2	Zn	1.534693	0.230528	0.882712
Zn3	Zn	1.034620	-0.382662	0.269520
Zn4	Zn	1.534620	0.117338	0.769520
Zn5	Zn	0.921520	-0.269493	0.269536
Zn6	Zn	1.421520	0.230507	0.769536
Zn7	Zn	0.921471	-0.382624	0.382667
Zn8	Zn	1.421471	0.117376	0.882667
O9	O	0.978076	-0.326063	0.326109
O10	O	1.478076	0.173937	0.826109
O11	O	1.129400	-0.284494	0.367708
O12	O	1.629400	0.215506	0.867708
O13	O	1.019607	-0.367675	0.174805
O14	O	1.519607	0.132325	0.674805
O15	O	0.936583	-0.174773	0.284575
O16	O	1.436583	0.325227	0.784575
O17	O	1.129346	-0.367655	0.284547
O18	O	1.629346	0.132345	0.784547
O19	O	1.019731	-0.174758	0.367724
O20	O	1.519731	0.325242	0.867724
O21	O	0.936513	-0.284529	0.174817
O22	O	1.436513	0.215471	0.674817
O23	O	0.826797	-0.284493	0.284531
O24	O	1.326797	0.215507	0.784531
O25	O	0.936500	-0.367590	0.477389
O26	O	1.436500	0.132410	0.977389
O27	O	0.826761	-0.367610	0.367648
O28	O	1.326761	0.132390	0.867648
O29	O	1.019683	-0.284457	0.477422
O30	O	1.519683	0.215543	0.977422
O31	O	1.019560	-0.477374	0.284503
O32	O	1.519560	0.022626	0.784503
O33	O	0.936429	-0.477346	0.367632
O34	O	1.436429	0.022654	0.867632
C35	C	0.802220	-0.326050	0.326087
C36	C	1.302220	0.173950	0.826087
C37	C	0.726988	-0.326061	0.326093
C38	C	1.226988	0.173939	0.826093
C39	C	0.978000	-0.501919	0.326076
C40	C	1.478000	-0.001919	0.826076
C41	C	0.978029	-0.577151	0.326084
C42	C	1.478029	-0.077151	0.826084
C43	C	0.691643	-0.369405	0.369302
C44	C	1.191643	0.130595	0.869302
C45	C	0.620954	-0.369406	0.369312
C46	C	1.120954	0.130594	0.869312
C47	C	0.585612	-0.326066	0.326109
C48	C	1.085612	0.173934	0.826109
C49	C	0.620962	-0.282717	0.282898
C50	C	1.120962	0.217283	0.782898
C51	C	0.691650	-0.282713	0.282892
C52	C	1.191650	0.217287	0.782892
C53	C	0.335889	-0.282732	0.282920
C54	C	0.835889	0.217268	0.782920
C55	C	0.265197	-0.282741	0.282928
C56	C	0.765197	0.217259	0.782928
C57	C	0.265194	-0.369425	0.369340
C58	C	0.765194	0.130575	0.869340
C59	C	0.335881	-0.369421	0.369334
C60	C	0.835881	0.130579	0.869334
C61	C	0.371225	-0.326070	0.326126
C62	C	0.871225	0.173930	0.826126
C63	C	0.447873	-0.326068	0.326117
C64	C	0.947873	0.173932	0.826117
C65	C	0.508965	-0.326071	0.326114
C66	C	1.008965	0.173929	0.826114
C67	C	1.021357	-0.612487	0.282845
C68	C	1.521357	-0.112487	0.782845
C69	C	1.021386	-0.683176	0.282860
C70	C	1.521386	-0.183176	0.782860
C71	C	0.978083	-0.718526	0.326111
C72	C	1.478083	-0.218526	0.826111
C73	C	0.934753	-0.683185	0.369356
C74	C	1.434753	-0.183185	0.869356
C75	C	0.934728	-0.612498	0.369344
C76	C	1.434728	-0.112498	0.869344
C77	C	0.934853	-0.968259	0.369406
C78	C	1.434853	-0.468259	0.869406
C79	C	0.934879	-1.038951	0.369413
C80	C	1.434879	-0.538951	0.869413
C81	C	1.021510	-1.038936	0.282922
C82	C	1.521510	-0.538936	0.782922
C83	C	1.021486	-0.968249	0.282910
C84	C	1.521486	-0.468249	0.782910
C85	C	0.978159	-0.932914	0.326157
C86	C	1.478159	-0.432914	0.826157
C87	C	0.978129	-0.856265	0.326141
C88	C	1.478129	-0.356265	0.826141
C89	C	0.978108	-0.795174	0.326124
C90	C	1.478108	-0.295174	0.826124
C91	C	1.154619	-0.326076	0.326131
C92	C	1.654619	0.173924	0.826131
C93	C	1.229851	-0.326082	0.326140
C94	C	1.729851	0.173918	0.826140
C95	C	0.978094	-0.326017	0.502651
C96	C	1.478094	0.173983	1.002651
C97	C	0.978102	-0.325998	0.577883
C98	C	1.478102	0.174002	1.077883
C99	C	0.978171	-0.149520	0.326156
C100	C	1.478171	0.350480	0.826156
C101	C	0.978211	-0.074288	0.326177
C102	C	1.478211	0.425712	0.826177
C103	C	0.978097	-0.326060	0.150253
C104	C	1.478097	0.173940	0.650253
C105	C	0.978220	-0.325889	0.075021
C106	C	1.478220	0.174111	0.575021
C107	C	1.021476	-0.369184	1.039666
C108	C	1.521476	0.130816	1.539666
C109	C	1.021457	-0.369202	0.968978
C110	C	1.521457	0.130798	1.468978
C111	C	0.978186	-0.325921	0.933645
C112	C	1.478186	0.174079	1.433645
C113	C	0.934926	-0.282624	0.969005
C114	C	1.434926	0.217376	1.469005
C115	C	0.934941	-0.282610	1.039692
C116	C	1.434941	0.217390	1.539692
C117	C	0.934860	-0.282682	0.683932
C118	C	1.434860	0.217318	1.183932
C119	C	0.934849	-0.282698	0.613240
C120	C	1.434849	0.217302	1.113240
C121	C	1.021376	-0.369275	0.613217
C122	C	1.521376	0.130725	1.113217
C123	C	1.021391	-0.369260	0.683904
C124	C	1.521391	0.130740	1.183904
C125	C	0.978129	-0.325966	0.719258
C126	C	1.478129	0.174034	1.219258
C127	C	0.978149	-0.325947	0.795906
C128	C	1.478149	0.174053	1.295906
C129	C	0.978169	-0.325936	0.856998
C130	C	1.478169	0.174064	1.356998
H131	H	0.720413	-0.404700	0.404481
H132	H	1.220413	0.095300	0.904481
H133	H	0.899632	-0.247430	0.712708
H134	H	1.399632	0.252570	1.212708
H135	H	0.899690	-0.247387	0.940232
H136	H	1.399690	0.252613	1.440232
Br137	Br	0.739619	-0.223882	0.224253
Br138	Br	1.239619	0.276118	0.724253
Br139	Br	1.080123	-0.564518	0.224136
Br140	Br	1.580123	-0.064518	0.724136
Br141	Br	0.876238	-0.223847	1.087675
Br142	Br	1.376238	0.276153	1.587675
H143	H	1.056667	-0.711943	0.247649
H144	H	1.556667	-0.211943	0.747649
Br145	Br	0.876052	-0.920313	0.428098
Br146	Br	1.376052	-0.420313	0.928098
Br147	Br	0.572999	-0.223891	0.224271
Br148	Br	1.072999	0.276109	0.724271
Br149	Br	0.572988	-0.428232	0.427956
Br150	Br	1.072988	0.071768	0.927956
Br151	Br	1.080210	-0.427920	1.087610
Br152	Br	1.580210	0.072080	1.587610
Br153	Br	0.383841	-0.428246	0.427965
Br154	Br	0.883841	0.071754	0.927965
H155	H	0.236408	-0.404722	0.404524
H156	H	0.736408	0.095278	0.904524
H157	H	1.056600	-0.404529	0.584423
H158	H	1.556600	0.095471	1.084423
Br159	Br	0.217233	-0.223918	0.224291
Br160	Br	0.717233	0.276082	0.724291
H161	H	0.899610	-0.247452	0.584474
H162	H	1.399610	0.252548	1.084474
Br163	Br	1.080255	-0.920276	0.224208
Br164	Br	1.580255	-0.420276	0.724208
Br165	Br	1.080315	-1.086894	0.224231
Br166	Br	1.580315	-0.586894	0.724231
H167	H	0.899617	-1.067731	0.404639
H168	H	1.399617	-0.567731	0.904639
H169	H	0.899497	-0.711974	0.404575
H170	H	1.399497	-0.211974	0.904575
Br171	Br	0.383847	-0.223894	0.224285
Br172	Br	0.883847	0.276106	0.724285
Br173	Br	0.875928	-0.564541	0.428033
Br174	Br	1.375928	-0.064541	0.928033
H175	H	1.056671	-0.404466	0.940195
H176	H	1.556671	0.095534	1.440195
Br177	Br	1.080121	-0.427998	0.731852
Br178	Br	1.580121	0.072002	1.231852
