data_functionalizedCrystal
_audit_creation_method	'MofGen! by Chris Wilmer'
_symmetry_space_group_name_H-M	'P1'
_symmetry_Int_Tables_number	1
_symmetry_cell_setting	triclinic
loop_
_symmetry_equiv_pos_as_xyz
  x,y,z
_cell_length_a	8.559649
_cell_length_b	14.971486
_cell_length_c	14.048226
_cell_angle_alpha	90.002889
_cell_angle_beta	90.004209
_cell_angle_gamma	76.696396
loop_
_atom_site_label
_atom_site_type_symbol
_atom_site_fract_x
_atom_site_fract_y
_atom_site_fract_z
O1	O	-2.120071	0.030343	-0.079144
O2	O	-1.654955	-0.015845	-0.079150
O3	O	-1.899980	0.138313	-0.079140
O4	O	-1.875047	-0.123815	-0.079154
O5	O	-1.899956	0.138310	0.079181
O6	O	-1.654932	-0.015847	0.079171
O7	O	-2.120048	0.030340	0.079177
Zn8	Zn	-1.887486	0.007246	0.104311
Zn9	Zn	-1.887517	0.007250	-0.104284
O10	O	-1.875024	-0.123818	0.079167
C11	C	-1.595421	-0.019346	0.000010
C12	C	-1.418060	-0.029765	0.000008
C13	C	-1.898853	0.171559	0.000020
C14	C	-1.895512	0.270625	0.000019
C15	C	-2.179583	0.033842	0.000015
C16	C	-2.356943	0.044260	0.000011
C17	C	-1.876150	-0.157064	0.000005
C18	C	-1.879492	-0.256129	-0.000001
N19	N	-1.887477	0.007245	0.246672
C20	C	-2.039457	0.337824	0.000022
C21	C	-2.036307	0.430905	0.000012
C22	C	-1.889211	0.456785	0.000007
C23	C	-1.745255	0.389578	0.000002
C24	C	-1.748406	0.296498	0.000004
C25	C	-1.738698	0.583586	-0.000002
C26	C	-1.735547	0.676671	-0.000003
C27	C	-2.026599	0.717993	0.000006
C28	C	-2.029750	0.624913	0.000008
C29	C	-1.885793	0.557712	0.000005
N30	N	-1.887539	0.007259	-0.246645
C31	C	-1.790546	0.054878	0.703541
C32	C	-1.790540	0.054881	0.603883
C33	C	-1.887519	0.007257	0.554042
C34	C	-1.984523	-0.040364	0.603863
C35	C	-1.984536	-0.040360	0.703519
C36	C	-1.984485	-0.040370	0.396149
C37	C	-1.984470	-0.040375	0.296486
C38	C	-1.790489	0.054871	0.296513
C39	C	-1.790502	0.054875	0.396169
C40	C	-1.887504	0.007252	0.445983
H41	H	-1.440303	0.115607	0.000010
O42	O	-1.576886	0.704577	-0.000014
H43	H	-1.568464	0.745987	0.064521
H44	H	-1.631191	0.241784	0.000002
H45	H	-1.625487	0.410656	-0.000009
O46	O	-1.307637	-0.124280	0.000001
H47	H	-1.380303	-0.176863	-0.000006
H48	H	-1.621473	0.528871	-0.000007
H49	H	-2.159239	0.316762	0.000032
O50	O	-2.191561	0.503388	0.000030
H51	H	-2.294374	0.469755	0.000052
H52	H	-1.711525	0.093649	0.436747
O53	O	-1.685978	0.106264	0.757298
H54	H	-1.618556	0.139391	0.705912
H55	H	-1.711563	0.093660	0.563329
H56	H	-1.711503	0.093645	0.255950
H57	H	-2.149529	0.603846	0.000020
H58	H	-2.063433	-0.079158	0.255908
O59	O	-2.089098	-0.091738	0.449883
H60	H	-2.156517	-0.124864	0.398485
H61	H	-2.143814	0.772713	0.000006
H62	H	-2.063493	-0.079135	0.563274
O63	O	-2.089141	-0.091725	0.757255
H64	H	-2.156564	-0.124849	0.705857
