data_functionalizedCrystal
_audit_creation_method	'MofGen! by Chris Wilmer'
_symmetry_space_group_name_H-M	'P1'
_symmetry_Int_Tables_number	1
_symmetry_cell_setting	triclinic
loop_
_symmetry_equiv_pos_as_xyz
  x,y,z
_cell_length_a	27.731994
_cell_length_b	27.732048
_cell_length_c	26.809956
_cell_angle_alpha	89.999364
_cell_angle_beta	89.997334
_cell_angle_gamma	82.631595
loop_
_atom_site_label
_atom_site_type_symbol
_atom_site_fract_x
_atom_site_fract_y
_atom_site_fract_z
O1	O	0.640948	0.057385	-0.041414
O2	O	0.974282	0.390719	0.291920
O3	O	1.307615	0.724052	0.625253
O4	O	0.500151	0.066158	-0.041431
O5	O	0.833484	0.399492	0.291902
O6	O	1.166818	0.732825	0.625236
O7	O	0.574922	-0.008626	-0.041412
O8	O	0.908256	0.324708	0.291921
O9	O	1.241589	0.658041	0.625254
O10	O	0.566177	0.132169	-0.041432
O11	O	0.899510	0.465503	0.291901
O12	O	1.232843	0.798836	0.625234
O13	O	0.574908	-0.008614	0.041547
O14	O	0.908242	0.324719	0.374880
O15	O	1.241575	0.658052	0.708213
O16	O	0.500137	0.066170	0.041528
O17	O	0.833470	0.399503	0.374861
O18	O	1.166804	0.732836	0.708195
O19	O	0.640934	0.057397	0.041545
O20	O	0.974267	0.390730	0.374879
O21	O	1.307601	0.724063	0.708212
Zn22	Zn	0.570533	0.061785	0.054708
Zn23	Zn	0.903867	0.395118	0.388042
Zn24	Zn	1.237200	0.728452	0.721375
Zn25	Zn	0.570552	0.061770	-0.054594
Zn26	Zn	0.903885	0.395103	0.278739
Zn27	Zn	1.237218	0.728437	0.612073
O28	O	0.566163	0.132181	0.041527
O29	O	0.899496	0.465514	0.374860
O30	O	1.232829	0.798848	0.708193
C31	C	0.574732	-0.026627	0.000069
C32	C	0.908065	0.306706	0.333402
C33	C	1.241398	0.640040	0.666735
C34	C	0.574179	-0.080282	0.000073
C35	C	0.907512	0.253052	0.333406
C36	C	1.240846	0.586385	0.666739
C37	C	0.482137	0.065984	0.000046
C38	C	0.815470	0.399317	0.333380
C39	C	1.148803	0.732651	0.666713
C40	C	0.428480	0.065442	0.000040
C41	C	0.761814	0.398775	0.333374
C42	C	1.095147	0.732108	0.666707
C43	C	0.614884	-0.419105	0.000052
C44	C	0.948217	-0.085771	0.333385
C45	C	1.281551	0.247562	0.666719
C46	C	0.612833	-0.620764	0.000045
C47	C	0.946166	-0.287431	0.333378
C48	C	1.279499	0.045903	0.666711
O49	O	0.650055	-0.652027	0.000028
O50	O	0.983388	-0.318693	0.333361
O51	O	1.316721	0.014640	0.666694
N52	N	0.568496	-0.639879	0.000040
N53	N	0.901830	-0.306546	0.333373
N54	N	1.235163	0.026788	0.666706
C55	C	0.524670	-0.608576	0.000033
C56	C	0.858003	-0.275242	0.333367
C57	C	1.191336	0.058091	0.666700
O58	O	0.486912	-0.629462	0.000024
O59	O	0.820245	-0.296128	0.333357
O60	O	1.153578	0.037205	0.666690
C61	C	0.526721	-0.406918	0.000037
C62	C	0.860055	-0.073584	0.333370
C63	C	1.193388	0.259749	0.666704
C64	C	0.571061	-0.387805	0.000047
C65	C	0.904394	-0.054472	0.333380
C66	C	1.237727	0.278861	0.666714
C67	C	0.659220	-0.399992	0.000061
C68	C	0.992553	-0.066659	0.333395
C69	C	1.325886	0.266675	0.666728
C70	C	0.659732	-0.349580	0.000066
C71	C	0.993065	-0.016247	0.333399
C72	C	1.326399	0.317086	0.666733
C73	C	0.615908	-0.318281	0.000061
C74	C	0.949242	0.015052	0.333394
C75	C	1.282575	0.348386	0.666728
C76	C	0.571573	-0.337394	0.000052
C77	C	0.904906	-0.004060	0.333385
C78	C	1.238239	0.329273	0.666718
C79	C	0.482895	-0.375615	0.000027
C80	C	0.816228	-0.042282	0.333360
C81	C	1.149562	0.291051	0.666694
C82	C	0.483412	-0.325198	0.000027
C83	C	0.816745	0.008135	0.333360
C84	C	1.150079	0.341468	0.666693
C85	C	0.527751	-0.306086	0.000037
C86	C	0.861084	0.027247	0.333370
C87	C	1.194418	0.360581	0.666703
C88	C	0.528262	-0.255683	0.000051
C89	C	0.861595	0.077651	0.333384
C90	C	1.194928	0.410984	0.666718
N91	N	0.572598	-0.236567	0.000056
N92	N	0.905931	0.096766	0.333389
N93	N	1.239265	0.430099	0.666723
C94	C	0.616421	-0.267867	0.000061
C95	C	0.949755	0.065467	0.333394
C96	C	1.283088	0.398800	0.666728
C97	C	0.523596	-0.714450	0.000032
C98	C	0.856929	-0.381116	0.333366
C99	C	1.190262	-0.047783	0.666699
C100	C	0.523083	-0.764864	0.000032
C101	C	0.856416	-0.431531	0.333366
C102	C	1.189749	-0.098197	0.666699
C103	C	0.611246	-0.777049	0.000043
C104	C	0.944579	-0.443715	0.333376
C105	C	1.277913	-0.110382	0.666710
C106	C	0.611759	-0.726633	0.000047
C107	C	0.945092	-0.393300	0.333380
C108	C	1.278425	-0.059967	0.666713
C109	C	0.567932	-0.695335	0.000037
C110	C	0.901265	-0.362001	0.333371
C111	C	1.234599	-0.028668	0.666704
C112	C	0.617494	-0.161998	0.000071
C113	C	0.950827	0.171336	0.333404
C114	C	1.284161	0.504669	0.666738
C115	C	0.618002	-0.111581	0.000078
C116	C	0.951336	0.221752	0.333411
C117	C	1.284669	0.555086	0.666744
C118	C	0.529839	-0.099401	0.000064
C119	C	0.863173	0.233933	0.333398
C120	C	1.196506	0.567266	0.666731
C121	C	0.529331	-0.149813	0.000060
C122	C	0.862664	0.183520	0.333394
C123	C	1.195997	0.516854	0.666727
C124	C	0.573162	-0.181111	0.000062
C125	C	0.906495	0.152222	0.333395
C126	C	1.239829	0.485556	0.666729
O127	O	0.491060	-0.224391	0.000063
O128	O	0.824393	0.108942	0.333396
O129	O	1.157727	0.442275	0.666729
O130	O	0.654174	-0.246971	0.000060
O131	O	0.987507	0.086362	0.333393
O132	O	1.320841	0.419695	0.666726
C133	C	0.614372	-0.469517	0.000047
C134	C	0.947705	-0.136183	0.333381
C135	C	1.281038	0.197150	0.666714
C136	C	0.570036	-0.488629	0.000038
C137	C	0.903369	-0.155296	0.333371
C138	C	1.236703	0.178037	0.666705
C139	C	0.526213	-0.457330	0.000033
C140	C	0.859546	-0.123997	0.333366
C141	C	1.192879	0.209337	0.666700
C142	C	0.569523	-0.539043	0.000038
C143	C	0.902856	-0.205710	0.333371
C144	C	1.236190	0.127623	0.666705
C145	C	0.613346	-0.570343	0.000043
C146	C	0.946680	-0.237009	0.333376
C147	C	1.280013	0.096324	0.666710
C148	C	0.657683	-0.551228	0.000048
C149	C	0.991016	-0.217894	0.333381
C150	C	1.324349	0.115439	0.666715
C151	C	0.658195	-0.500816	0.000052
C152	C	0.991528	-0.167482	0.333386
C153	C	1.324862	0.165851	0.666719
C154	C	0.481876	-0.476445	0.000028
C155	C	0.815209	-0.143112	0.333361
C156	C	1.148543	0.190222	0.666695
C157	C	0.481367	-0.526857	0.000024
C158	C	0.814701	-0.193524	0.333357
C159	C	1.148034	0.139809	0.666691
C160	C	0.525191	-0.558157	0.000029
C161	C	0.858524	-0.224823	0.333362
C162	C	1.191858	0.108510	0.666696
C163	C	0.095754	0.062032	0.045281
C164	C	0.429087	0.395365	0.378614
C165	C	0.762421	0.728699	0.711948
C166	C	-0.105904	0.059970	0.045287
C167	C	0.227429	0.393304	0.378620
C168	C	0.560763	0.726637	0.711954
O169	O	-0.131983	0.059688	0.083746
O170	O	0.201350	0.393022	0.417079
O171	O	0.534683	0.726355	0.750412
N172	N	-0.131111	0.059708	0.000066
N173	N	0.202222	0.393042	0.333399
N174	N	0.535555	0.726375	0.666733
C175	C	-0.105900	0.059958	-0.045160
C176	C	0.227433	0.393292	0.288174
C177	C	0.560766	0.726625	0.621507
O178	O	-0.131967	0.059683	-0.083623
O179	O	0.201366	0.393016	0.249710
O180	O	0.534700	0.726349	0.583044
C181	C	0.095757	0.062016	-0.045165
C182	C	0.429091	0.395350	0.288168
C183	C	0.762424	0.728683	0.621501
C184	C	0.120961	0.062283	0.000059
C185	C	0.454295	0.395617	0.333392
C186	C	0.787628	0.728950	0.666725
C187	C	0.120958	0.062299	0.090501
C188	C	0.454291	0.395632	0.423835
C189	C	0.787625	0.728965	0.757168
C190	C	0.171369	0.062817	0.090499
C191	C	0.504703	0.396150	0.423833
C192	C	0.838036	0.729483	0.757166
C193	C	0.196576	0.063068	0.045277
C194	C	0.529910	0.396401	0.378610
C195	C	0.863243	0.729735	0.711944
C196	C	0.171372	0.062802	0.000057
C197	C	0.504706	0.396135	0.333390
C198	C	0.838039	0.729468	0.666724
C199	C	0.120968	0.062263	-0.090390
C200	C	0.454301	0.395596	0.242943
C201	C	0.787635	0.728929	0.576276
C202	C	0.171386	0.062776	-0.090388
C203	C	0.504719	0.396109	0.242946
C204	C	0.838052	0.729443	0.576279
C205	C	0.196590	0.063043	-0.045164
C206	C	0.529923	0.396377	0.288170
C207	C	0.863256	0.729710	0.621503
C208	C	0.246991	0.063571	-0.045167
C209	C	0.580324	0.396904	0.288166
C210	C	0.913657	0.730238	0.621499
N211	N	0.272198	0.063833	0.000054
N212	N	0.605531	0.397167	0.333387
N213	N	0.938865	0.730500	0.666720
C214	C	0.246991	0.063582	0.045276
C215	C	0.580324	0.396915	0.378609
C216	C	0.913657	0.730248	0.711943
C217	C	-0.211774	0.058879	-0.045154
C218	C	0.121560	0.392212	0.288180
C219	C	0.454893	0.725545	0.621513
C220	C	-0.262188	0.058365	-0.045152
C221	C	0.071145	0.391698	0.288181
C222	C	0.404479	0.725032	0.621514
C223	C	-0.262188	0.058376	0.045294
C224	C	0.071145	0.391710	0.378628
C225	C	0.404479	0.725043	0.711961
C226	C	-0.211773	0.058893	0.045293
C227	C	0.121560	0.392227	0.378626
C228	C	0.454893	0.725560	0.711959
C229	C	-0.186566	0.059141	0.000067
C230	C	0.146767	0.392474	0.333401
C231	C	0.480100	0.725808	0.666734
C232	C	0.352858	0.064670	0.045268
C233	C	0.686191	0.398003	0.378602
C234	C	1.019524	0.731337	0.711935
C235	C	0.403273	0.065190	0.045262
C236	C	0.736606	0.398524	0.378596
C237	C	1.069940	0.731857	0.711929
C238	C	0.403269	0.065176	-0.045184
C239	C	0.736602	0.398510	0.288149
C240	C	1.069936	0.731843	0.621483
C241	C	0.352858	0.064659	-0.045179
C242	C	0.686191	0.397992	0.288155
C243	C	1.019525	0.731325	0.621488
C244	C	0.327654	0.064404	0.000052
C245	C	0.660987	0.397737	0.333385
C246	C	0.994320	0.731071	0.666718
O247	O	0.273102	0.063848	-0.083606
O248	O	0.606435	0.397181	0.249727
O249	O	0.939768	0.730515	0.583061
O250	O	0.273068	0.063846	0.083733
O251	O	0.606401	0.397180	0.417067
O252	O	0.939734	0.730513	0.750400
C253	C	0.045343	0.061514	0.045283
C254	C	0.378676	0.394847	0.378616
C255	C	0.712010	0.728181	0.711950
C256	C	0.020139	0.061247	0.000063
C257	C	0.353472	0.394581	0.333396
C258	C	0.686806	0.727914	0.666729
C259	C	0.045346	0.061499	-0.045160
C260	C	0.378679	0.394832	0.288174
C261	C	0.712013	0.728166	0.621507
C262	C	-0.030275	0.060734	0.000064
C263	C	0.303058	0.394067	0.333397
C264	C	0.636391	0.727400	0.666731
C265	C	-0.055483	0.060482	0.045286
C266	C	0.277851	0.393816	0.378619
C267	C	0.611184	0.727149	0.711953
C268	C	-0.030275	0.060745	0.090507
C269	C	0.303058	0.394078	0.423840
C270	C	0.636391	0.727411	0.757174
C271	C	0.020136	0.061263	0.090505
C272	C	0.353469	0.394596	0.423839
C273	C	0.686802	0.727929	0.757172
C274	C	0.020139	0.061237	-0.090381
C275	C	0.353472	0.394570	0.242953
C276	C	0.686806	0.727903	0.576286
C277	C	-0.030272	0.060719	-0.090375
C278	C	0.303061	0.394052	0.242958
C279	C	0.636394	0.727386	0.576292
C280	C	-0.055479	0.060468	-0.045153
C281	C	0.277854	0.393801	0.288181
C282	C	0.611187	0.727134	0.621514
C283	C	0.658949	0.057571	0.000067
C284	C	0.992282	0.390905	0.333400
C285	C	1.325615	0.724238	0.666734
C286	C	0.712605	0.058114	0.000070
C287	C	1.045938	0.391447	0.333403
C288	C	1.379272	0.724780	0.666736
C289	C	0.566353	0.150182	0.000045
C290	C	0.899687	0.483515	0.333378
C291	C	1.233020	0.816849	0.666711
C292	C	0.566906	0.203837	0.000037
C293	C	0.900239	0.537170	0.333371
C294	C	1.233573	0.870503	0.666704
N295	N	0.570524	0.061795	0.129304
N296	N	0.903857	0.395128	0.462638
N297	N	1.237191	0.728462	0.795971
N298	N	0.570565	0.061756	-0.129190
N299	N	0.903898	0.395090	0.204143
N300	N	1.237232	0.728423	0.537477
C301	C	0.603656	0.028664	0.473939
C302	C	0.936990	0.361997	0.807272
C303	C	1.270323	0.695330	1.140605
C304	C	0.603668	0.028656	0.682816
C305	C	0.937001	0.361990	1.016150
C306	C	1.270335	0.695323	1.349483
O307	O	0.631818	0.000490	0.709827
O308	O	0.965152	0.333823	1.043161
O309	O	1.298485	0.667157	1.376494
N310	N	0.570555	0.061759	0.708931
N311	N	0.903888	0.395093	1.042265
N312	N	1.237221	0.728426	1.375598
C313	C	0.537434	0.094864	0.682824
C314	C	0.870767	0.428198	1.016157
C315	C	1.204100	0.761531	1.349491
O316	O	0.509266	0.123017	0.709829
O317	O	0.842599	0.456350	1.043162
O318	O	1.175933	0.789684	1.376496
C319	C	0.537420	0.094869	0.473947
C320	C	0.870754	0.428203	0.807280
C321	C	1.204087	0.761536	1.140614
C322	C	0.570539	0.061767	0.447835
C323	C	0.903873	0.395101	0.781168
C324	C	1.237206	0.728434	1.114501
C325	C	0.636772	-0.004436	0.447826
C326	C	0.970105	0.328898	0.781160
C327	C	1.303439	0.662231	1.114493
C328	C	0.636771	-0.004432	0.395610
C329	C	0.970104	0.328902	0.728943
C330	C	1.303437	0.662235	1.062277
C331	C	0.603653	0.028672	0.369506
C332	C	0.936987	0.362005	0.702839
C333	C	1.270320	0.695338	1.036173
C334	C	0.570538	0.061771	0.395618
C335	C	0.903871	0.395105	0.728952
C336	C	1.237204	0.728438	1.062285
C337	C	0.504298	0.127972	0.447841
C338	C	0.837631	0.461305	0.781174
C339	C	1.170964	0.794638	1.114507
C340	C	0.504297	0.127969	0.395618
C341	C	0.837630	0.461302	0.728951
C342	C	1.170963	0.794636	1.062285
C343	C	0.537415	0.094867	0.369506
C344	C	0.870749	0.428201	0.702839
C345	C	1.204082	0.761534	1.036172
C346	C	0.537419	0.094879	0.317298
C347	C	0.870752	0.428212	0.650632
C348	C	1.204086	0.761545	0.983965
N349	N	0.570532	0.061776	0.291183
N350	N	0.903866	0.395109	0.624517
N351	N	1.237199	0.728442	0.957850
C352	C	0.603650	0.028672	0.317287
C353	C	0.936983	0.362006	0.650620
C354	C	1.270316	0.695339	0.983954
C355	C	0.537444	0.094860	0.792487
C356	C	0.870777	0.428194	1.125821
C357	C	1.204111	0.761527	1.459154
C358	C	0.537448	0.094860	0.844706
C359	C	0.870781	0.428193	1.178039
C360	C	1.204114	0.761526	1.511373
C361	C	0.603681	0.028651	0.844695
C362	C	0.937015	0.361984	1.178028
C363	C	1.270348	0.695318	1.511362
C364	C	0.603679	0.028654	0.792475
C365	C	0.937013	0.361987	1.125808
C366	C	1.270346	0.695321	1.459142
C367	C	0.570557	0.061757	0.766372
C368	C	0.903891	0.395091	1.099705
C369	C	1.237224	0.728424	1.433039
C370	C	0.603644	0.028683	0.207629
C371	C	0.936978	0.362017	0.540962
C372	C	1.270311	0.695350	0.874296
C373	C	0.603641	0.028692	0.155408
C374	C	0.936975	0.362025	0.488742
C375	C	1.270308	0.695358	0.822075
C376	C	0.537406	0.094898	0.155424
C377	C	0.870740	0.428232	0.488757
C378	C	1.204073	0.761565	0.822091
C379	C	0.537411	0.094892	0.207640
C380	C	0.870744	0.428225	0.540974
C381	C	1.204077	0.761559	0.874307
C382	C	0.570532	0.061781	0.233742
C383	C	0.903865	0.395114	0.567075
C384	C	1.237198	0.728447	0.900408
O385	O	0.509280	0.123027	0.290255
O386	O	0.842613	0.456360	0.623589
O387	O	1.175946	0.789693	0.956922
O388	O	0.631806	0.000517	0.290273
O389	O	0.965140	0.333850	0.623606
O390	O	1.298473	0.667183	0.956940
C391	C	0.603658	0.028660	0.526155
C392	C	0.936991	0.361993	0.859488
C393	C	1.270324	0.695327	1.192822
C394	C	0.570542	0.061759	0.552267
C395	C	0.903875	0.395093	0.885601
C396	C	1.237209	0.728426	1.218934
C397	C	0.537425	0.094863	0.526163
C398	C	0.870758	0.428196	0.859497
C399	C	1.204092	0.761530	1.192830
C400	C	0.570546	0.061759	0.604486
C401	C	0.903879	0.395092	0.937820
C402	C	1.237213	0.728426	1.271153
C403	C	0.603663	0.028655	0.630590
C404	C	0.936996	0.361989	0.963924
C405	C	1.270330	0.695322	1.297257
C406	C	0.636776	-0.004448	0.604475
C407	C	0.970110	0.328886	0.937808
C408	C	1.303443	0.662219	1.271142
C409	C	0.636775	-0.004444	0.552259
C410	C	0.970108	0.328890	0.885592
C411	C	1.303442	0.662223	1.218926
C412	C	0.504312	0.127966	0.552279
C413	C	0.837645	0.461299	0.885612
C414	C	1.170978	0.794633	1.218945
C415	C	0.504316	0.127960	0.604495
C416	C	0.837649	0.461293	0.937828
C417	C	1.170983	0.794626	1.271162
C418	C	0.537433	0.094856	0.630599
C419	C	0.870767	0.428189	0.963932
C420	C	1.204100	0.761523	1.297265
H421	H	0.654110	-0.096023	0.000087
H422	H	0.987444	0.237310	0.333420
H423	H	1.320777	0.570644	0.666754
H424	H	0.694301	-0.485260	0.000060
H425	H	1.027634	-0.151926	0.333394
H426	H	1.360967	0.181407	0.666727
O427	O	0.701761	-0.430441	0.000133
O428	O	1.035095	-0.097108	0.333467
O429	O	1.368428	0.236225	0.666800
C430	C	0.704104	-0.459957	0.043106
C431	C	1.037438	-0.126624	0.376440
C432	C	1.370771	0.206709	0.709773
H433	H	0.665753	-0.462226	0.057423
H434	H	0.999086	-0.128893	0.390757
H435	H	1.332420	0.204440	0.724090
H436	H	0.722409	-0.497986	0.033448
H437	H	1.055743	-0.164652	0.366781
H438	H	1.389076	0.168681	0.700115
H439	H	0.726044	-0.443529	0.073196
H440	H	1.059378	-0.110196	0.406529
H441	H	1.392711	0.223138	0.739863
H442	H	0.693365	-0.576720	0.000054
H443	H	1.026699	-0.243387	0.333388
H444	H	1.360032	0.089946	0.666721
H445	H	0.653186	-0.187475	0.000070
H446	H	0.986519	0.145858	0.333404
H447	H	1.319852	0.479192	0.666737
H448	H	-0.050808	0.060542	0.127329
H449	H	0.282525	0.393876	0.460662
H450	H	0.615858	0.727209	0.793995
O451	O	0.668880	-0.036642	0.473201
O452	O	1.002213	0.296692	0.806534
O453	O	1.335547	0.630025	1.139868
C454	C	0.643230	-0.066280	0.503421
C455	C	0.976563	0.267053	0.836754
C456	C	1.309896	0.600386	1.170088
H457	H	0.605111	-0.066829	0.487697
H458	H	0.938445	0.266505	0.821030
H459	H	1.271778	0.599838	1.154364
H460	H	0.663244	-0.104841	0.504003
H461	H	0.996578	0.228492	0.837336
H462	H	1.329911	0.561826	1.170670
H463	H	0.640592	-0.051140	0.542999
H464	H	0.973925	0.282194	0.876333
H465	H	1.307259	0.615527	1.209666
O466	O	0.702816	-0.331043	-0.000018
O467	O	1.036150	0.002291	0.333316
O468	O	1.369483	0.335624	0.666649
C469	C	0.729515	-0.347085	-0.042975
C470	C	1.062848	-0.013751	0.290358
C471	C	1.396181	0.319582	0.623692
H472	H	0.703582	-0.357372	-0.073007
H473	H	1.036915	-0.024039	0.260326
H474	H	1.370248	0.309295	0.593660
H475	H	0.749856	-0.316700	-0.057395
H476	H	1.083189	0.016634	0.275938
H477	H	1.416523	0.349967	0.609271
H478	H	0.756695	-0.380153	-0.033259
H479	H	1.090028	-0.046819	0.300074
H480	H	1.423362	0.286514	0.633407
H481	H	0.493226	-0.165375	0.000066
H482	H	0.826559	0.167959	0.333399
H483	H	1.159893	0.501292	0.666733
H484	H	0.630647	0.001700	0.771217
H485	H	0.963980	0.335033	1.104551
H486	H	1.297314	0.668366	1.437884
O487	O	0.472123	0.160173	0.527003
O488	O	0.805456	0.493506	0.860336
O489	O	1.138790	0.826839	1.193669
C490	C	0.442892	0.189377	0.561256
C491	C	0.776225	0.522710	0.894589
C492	C	1.109559	0.856044	1.227922
H493	H	0.462710	0.189773	0.598476
H494	H	0.796044	0.523107	0.931810
H495	H	1.129377	0.856440	1.265143
H496	H	0.435228	0.228037	0.546177
H497	H	0.768562	0.561371	0.879510
H498	H	1.101895	0.894704	1.212844
H499	H	0.407101	0.173937	0.566812
H500	H	0.740434	0.507270	0.900145
H501	H	1.073768	0.840604	1.233478
H502	H	0.447722	-0.299716	0.000018
H503	H	0.781055	0.033617	0.333352
H504	H	1.114389	0.366950	0.666685
O505	O	0.654872	-0.708150	0.000029
O506	O	0.988205	-0.374817	0.333362
O507	O	1.321539	-0.041484	0.666696
C508	C	0.693438	-0.746592	0.000048
C509	C	1.026771	-0.413259	0.333381
C510	C	1.360105	-0.079926	0.666714
H511	H	0.680147	-0.780742	-0.015657
H512	H	1.013481	-0.447409	0.317676
H513	H	1.346814	-0.114075	0.651009
H514	H	0.724421	-0.736294	-0.024036
H515	H	1.057754	-0.402960	0.309298
H516	H	1.391088	-0.069627	0.642631
H517	H	0.706931	-0.753827	0.039849
H518	H	1.040264	-0.420493	0.373182
H519	H	1.373598	-0.087160	0.706516
H520	H	0.646929	-0.802541	0.000047
H521	H	0.980262	-0.469208	0.333381
H522	H	1.313595	-0.135875	0.666714
H523	H	0.423802	0.065383	-0.082003
H524	H	0.757135	0.398716	0.251330
H525	H	1.090468	0.732050	0.584664
H526	H	0.040658	0.061440	-0.127207
H527	H	0.373991	0.394773	0.206127
H528	H	0.707324	0.728107	0.539460
H529	H	0.663744	-0.031400	0.625737
H530	H	0.997077	0.301933	0.959071
H531	H	1.330410	0.635266	1.292404
H532	H	0.332342	0.064467	0.082099
H533	H	0.665675	0.397800	0.415433
H534	H	0.999008	0.731134	0.748766
O535	O	-0.054675	0.060440	-0.134354
O536	O	0.278659	0.393773	0.198980
O537	O	0.611992	0.727106	0.532313
C538	C	-0.021611	0.060784	-0.174265
C539	C	0.311722	0.394117	0.159069
C540	C	0.645056	0.727451	0.492402
H541	H	0.016442	0.045849	-0.161000
H542	H	0.349775	0.379183	0.172334
H543	H	0.683109	0.712516	0.505667
H544	H	-0.032922	0.037149	-0.205888
H545	H	0.300411	0.370482	0.127445
H546	H	0.633744	0.703815	0.460778
H547	H	-0.021616	0.099631	-0.188179
H548	H	0.311717	0.432964	0.145154
H549	H	0.645050	0.766297	0.478487
O550	O	0.487316	-0.068923	0.000037
O551	O	0.820649	0.264410	0.333370
O552	O	1.153982	0.597743	0.666703
C553	C	0.497281	-0.020330	0.000053
C554	C	0.830614	0.313004	0.333386
C555	C	1.163948	0.646337	0.666719
H556	H	0.535240	-0.018687	-0.015644
H557	H	0.868573	0.314647	0.317689
H558	H	1.201907	0.647980	0.651023
H559	H	0.469333	0.002725	-0.024039
H560	H	0.802666	0.336059	0.309295
H561	H	1.136000	0.669392	0.642628
H562	H	0.495328	-0.005734	0.039852
H563	H	0.828662	0.327599	0.373186
H564	H	1.161995	0.660932	0.706519
H565	H	0.487905	-0.688970	0.000025
H566	H	0.821238	-0.355637	0.333358
H567	H	1.154571	-0.022303	0.666692
O568	O	0.438250	-0.545339	-0.000007
O569	O	0.771583	-0.212005	0.333326
O570	O	1.104917	0.121328	0.666660
C571	C	0.399684	-0.506897	0.000001
C572	C	0.733017	-0.173563	0.333334
C573	C	1.066351	0.159770	0.666667
H574	H	0.412981	-0.472746	-0.015696
H575	H	0.746314	-0.139413	0.317637
H576	H	1.079648	0.193920	0.650970
H577	H	0.368711	-0.517194	-0.024094
H578	H	0.702044	-0.183861	0.309239
H579	H	1.035378	0.149472	0.642572
H580	H	0.386174	-0.499665	0.039798
H581	H	0.719508	-0.166331	0.373131
H582	H	1.052841	0.167002	0.706465
O583	O	0.328329	0.064339	-0.089077
O584	O	0.661662	0.397672	0.244256
O585	O	0.994996	0.731005	0.577589
C586	C	0.304975	0.022150	-0.091785
C587	C	0.638309	0.355484	0.241548
C588	C	0.971642	0.688817	0.574882
H589	H	0.299350	0.008115	-0.052520
H590	H	0.632684	0.341448	0.280813
H591	H	0.966017	0.674781	0.614147
H592	H	0.268223	0.031200	-0.110929
H593	H	0.601557	0.364533	0.222404
H594	H	0.934890	0.697866	0.555738
H595	H	0.328467	-0.006978	-0.114096
H596	H	0.661800	0.326355	0.219237
H597	H	0.995133	0.659689	0.552571
H598	H	0.630612	0.001736	0.134149
H599	H	0.963946	0.335069	0.467482
H600	H	1.297279	0.668403	0.800816
O601	O	0.479969	-0.783346	0.000006
O602	O	0.813302	-0.450013	0.333339
O603	O	1.146636	-0.116679	0.666673
C604	C	0.441403	-0.744904	0.000013
C605	C	0.774736	-0.411571	0.333346
C606	C	1.108069	-0.078237	0.666680
H607	H	0.454699	-0.710755	-0.015690
H608	H	0.788032	-0.377422	0.317644
H609	H	1.121365	-0.044089	0.650977
H610	H	0.410428	-0.755204	-0.024078
H611	H	0.743761	-0.421871	0.309256
H612	H	1.077094	-0.088537	0.642589
H613	H	0.427896	-0.737667	0.039811
H614	H	0.761230	-0.404334	0.373144
H615	H	1.094563	-0.071001	0.706477
O616	O	0.195838	0.063105	-0.134334
O617	O	0.529171	0.396439	0.199000
O618	O	0.862504	0.729772	0.532333
C619	C	0.177716	0.104849	-0.161856
C620	C	0.511049	0.438182	0.171477
C621	C	0.844382	0.771516	0.504811
H622	H	0.159807	0.133982	-0.135399
H623	H	0.493141	0.467316	0.197934
H624	H	0.826474	0.800649	0.531267
H625	H	0.208924	0.119245	-0.182374
H626	H	0.542258	0.452578	0.150959
H627	H	0.875591	0.785911	0.484293
H628	H	0.149762	0.095075	-0.190050
H629	H	0.483096	0.428408	0.143284
H630	H	0.816429	0.761742	0.476617
H631	H	0.100456	0.062045	-0.127217
H632	H	0.433789	0.395378	0.206117
H633	H	0.767122	0.728711	0.539450
O634	O	0.439836	-0.394197	0.000100
O635	O	0.773170	-0.060864	0.333433
O636	O	1.106503	0.272469	0.666767
C637	C	0.436886	-0.423007	0.043054
C638	C	0.770219	-0.089673	0.376388
C639	C	1.103552	0.243660	0.709721
H640	H	0.462046	-0.411279	0.073095
H641	H	0.795380	-0.077945	0.406429
H642	H	1.128713	0.255388	0.739762
H643	H	0.397887	-0.418184	0.057463
H644	H	0.731221	-0.084850	0.390796
H645	H	1.064554	0.248483	0.724129
H646	H	0.448337	-0.462852	0.033340
H647	H	0.781671	-0.129519	0.366673
H648	H	1.115004	0.203815	0.700006
H649	H	0.477348	0.154919	0.625752
H650	H	0.810681	0.488253	0.959085
H651	H	1.144014	0.821586	1.292419
O652	O	-0.286702	0.058197	-0.089070
O653	O	0.046631	0.391530	0.244263
O654	O	0.379965	0.724864	0.577596
C655	C	-0.321663	0.099773	-0.091781
C656	C	0.011671	0.433106	0.241552
C657	C	0.345004	0.766440	0.574885
H658	H	-0.310522	0.129204	-0.066122
H659	H	0.022812	0.462538	0.267211
H660	H	0.356145	0.795871	0.600544
H661	H	-0.324172	0.113819	-0.131781
H662	H	0.009161	0.447152	0.201553
H663	H	0.342494	0.780485	0.534886
H664	H	-0.358563	0.089916	-0.079634
H665	H	-0.025230	0.423250	0.253699
H666	H	0.308103	0.756583	0.587033
O667	O	0.427684	0.065426	0.089240
O668	O	0.761017	0.398759	0.422573
O669	O	1.094351	0.732092	0.755907
C670	C	0.394619	0.065103	0.129153
C671	C	0.727953	0.398436	0.462486
C672	C	1.061286	0.731770	0.795819
H673	H	0.360802	0.049423	0.115896
H674	H	0.694135	0.382756	0.449229
H675	H	1.027468	0.716090	0.782562
H676	H	0.412430	0.041779	0.160785
H677	H	0.745763	0.375113	0.494118
H678	H	1.079097	0.708446	0.827451
H679	H	0.383890	0.103844	0.143052
H680	H	0.717223	0.437178	0.476386
H681	H	1.050556	0.770511	0.809719
O682	O	0.439316	-0.446026	-0.000063
O683	O	0.772649	-0.112692	0.333270
O684	O	1.105983	0.220641	0.666603
C685	C	0.436979	-0.416486	-0.043019
C686	C	0.770312	-0.083153	0.290314
C687	C	1.103645	0.250180	0.623648
H688	H	0.461845	-0.435129	-0.073050
H689	H	0.795178	-0.101796	0.260284
H690	H	1.128512	0.231537	0.593617
H691	H	0.397999	-0.410531	-0.057443
H692	H	0.731332	-0.077197	0.275890
H693	H	1.064666	0.256136	0.609223
H694	H	0.449202	-0.379913	-0.033300
H695	H	0.782535	-0.046580	0.300033
H696	H	1.115868	0.286754	0.633367
O697	O	0.195778	0.063049	0.134475
O698	O	0.529111	0.396382	0.467808
O699	O	0.862444	0.729716	0.801142
C700	C	0.162709	0.062727	0.174384
C701	C	0.496042	0.396061	0.507717
C702	C	0.829375	0.729394	0.841051
H703	H	0.128891	0.047051	0.161122
H704	H	0.462224	0.380384	0.494455
H705	H	0.795557	0.713717	0.827789
H706	H	0.180514	0.039401	0.206017
H707	H	0.513848	0.372734	0.539350
H708	H	0.847181	0.706068	0.872683
H709	H	0.151980	0.101468	0.188285
H710	H	0.485314	0.434802	0.521618
H711	H	0.818647	0.768135	0.854951
O712	O	0.044626	0.061604	0.134423
O713	O	0.377959	0.394937	0.467756
O714	O	0.711293	0.728270	0.801090
C715	C	0.068007	0.103776	0.137124
C716	C	0.401340	0.437109	0.470458
C717	C	0.734673	0.770442	0.803791
H718	H	0.048771	0.132891	0.111457
H719	H	0.382105	0.466224	0.444791
H720	H	0.715438	0.799558	0.778124
H721	H	0.066627	0.117842	0.177120
H722	H	0.399961	0.451176	0.510454
H723	H	0.733294	0.784509	0.843787
H724	H	0.107526	0.094696	0.124981
H725	H	0.440859	0.428029	0.458314
H726	H	0.774193	0.761362	0.791648
H727	H	-0.282721	0.058173	0.082116
H728	H	0.050613	0.391506	0.415450
H729	H	0.383946	0.724839	0.748783
O730	O	0.096468	0.061968	0.134422
O731	O	0.429802	0.395301	0.467755
O732	O	0.763135	0.728634	0.801089
C733	C	0.073087	0.019797	0.137140
C734	C	0.406420	0.353130	0.470473
C735	C	0.739753	0.686464	0.803807
H736	H	0.092320	-0.009325	0.111478
H737	H	0.425654	0.324008	0.444812
H738	H	0.758987	0.657342	0.778145
H739	H	0.074467	0.005741	0.177140
H740	H	0.407800	0.339074	0.510473
H741	H	0.741134	0.672407	0.843806
H742	H	0.033567	0.028875	0.125001
H743	H	0.366900	0.362208	0.458334
H744	H	0.700234	0.695542	0.791667
H745	H	0.663737	-0.031387	0.374352
H746	H	0.997071	0.301946	0.707686
H747	H	1.330404	0.635279	1.041019
O748	O	-0.187363	0.059126	0.089267
O749	O	0.145970	0.392460	0.422601
O750	O	0.479303	0.725793	0.755934
C751	C	-0.220431	0.058808	0.129178
C752	C	0.112902	0.392142	0.462512
C753	C	0.446236	0.725475	0.795845
H754	H	-0.254251	0.043133	0.115919
H755	H	0.079083	0.376466	0.449253
H756	H	0.412416	0.709800	0.782586
H757	H	-0.202625	0.035483	0.160811
H758	H	0.130709	0.368816	0.494145
H759	H	0.464042	0.702149	0.827478
H760	H	-0.231156	0.097550	0.143078
H761	H	0.102177	0.430884	0.476411
H762	H	0.435510	0.764217	0.809744
H763	H	0.630614	0.001720	0.228875
H764	H	0.963947	0.335054	0.562208
H765	H	1.297281	0.668387	0.895542
O766	O	0.635803	-0.003490	0.870134
O767	O	0.969137	0.329843	1.203468
O768	O	1.302470	0.663177	1.536801
C769	C	0.628708	0.003620	0.921822
C770	C	0.962042	0.336953	1.255156
C771	C	1.295375	0.670287	1.588489
H772	H	0.590144	0.021966	0.928952
H773	H	0.923477	0.355299	1.262286
H774	H	1.256811	0.688632	1.595619
H775	H	0.634354	-0.033025	0.941671
H776	H	0.967688	0.300309	1.275004
H777	H	1.301021	0.633642	1.608338
H778	H	0.655889	0.027668	0.936640
H779	H	0.989222	0.361001	1.269973
H780	H	1.322556	0.694334	1.603306
O781	O	0.505213	0.126971	0.870046
O782	O	0.838546	0.460304	1.203380
O783	O	1.171880	0.793637	1.536713
C784	C	0.457423	0.119457	0.857278
C785	C	0.790757	0.452790	1.190611
C786	C	1.124090	0.786123	1.523945
H787	H	0.457480	0.080755	0.842926
H788	H	0.790813	0.414088	1.176259
H789	H	1.124147	0.747422	1.509592
H790	H	0.433121	0.125190	0.891619
H791	H	0.766454	0.458523	1.224953
H792	H	1.099788	0.791856	1.558286
H793	H	0.443024	0.146349	0.826966
H794	H	0.776358	0.479682	1.160299
H795	H	1.109691	0.813015	1.493632
O796	O	-0.187369	0.059142	-0.089133
O797	O	0.145964	0.392476	0.244200
O798	O	0.479297	0.725809	0.577533
C799	C	-0.220433	0.058789	-0.129041
C800	C	0.112901	0.392123	0.204293
C801	C	0.446234	0.725456	0.537626
H802	H	-0.258485	0.073734	-0.115777
H803	H	0.074849	0.407067	0.217556
H804	H	0.408182	0.740400	0.550890
H805	H	-0.209117	0.082412	-0.160675
H806	H	0.124217	0.415745	0.172659
H807	H	0.457550	0.749079	0.505992
H808	H	-0.220432	0.019939	-0.142940
H809	H	0.112901	0.353272	0.190393
H810	H	0.446234	0.686605	0.523727
H811	H	0.510471	0.121818	0.771238
H812	H	0.843804	0.455151	1.104571
H813	H	1.177138	0.788485	1.437904
O814	O	0.472078	0.160145	0.473121
O815	O	0.805411	0.493478	0.806454
O816	O	1.138745	0.826812	1.139787
C817	C	0.442858	0.189364	0.438873
C818	C	0.776192	0.522698	0.772206
C819	C	1.109525	0.856031	1.105539
H820	H	0.442468	0.169545	0.401651
H821	H	0.775801	0.502878	0.734985
H822	H	1.109134	0.836212	1.068318
H823	H	0.404198	0.197010	0.453957
H824	H	0.737531	0.530343	0.787290
H825	H	1.070865	0.863677	1.120624
H826	H	0.458280	0.225165	0.433316
H827	H	0.791613	0.558498	0.766650
H828	H	1.124947	0.891831	1.099983
O829	O	0.472188	0.160148	0.370207
O830	O	0.805521	0.493481	0.703541
O831	O	1.138855	0.826814	1.036874
C832	C	0.497847	0.189800	0.340012
C833	C	0.831180	0.523133	0.673345
C834	C	1.164513	0.856466	1.006678
H835	H	0.535816	0.170282	0.332182
H836	H	0.869149	0.503615	0.665515
H837	H	1.202483	0.836948	0.998849
H838	H	0.477610	0.197594	0.303294
H839	H	0.810943	0.530927	0.636628
H840	H	1.144277	0.864260	0.969961
H841	H	0.500862	0.225501	0.360140
H842	H	0.834195	0.558834	0.693473
H843	H	1.167529	0.892168	1.026807
O844	O	0.505193	0.127065	0.232932
O845	O	0.838526	0.460398	0.566265
O846	O	1.171860	0.793731	0.899598
C847	C	0.475972	0.156292	0.198691
C848	C	0.809305	0.489625	0.532024
C849	C	1.142639	0.822958	0.865358
H850	H	0.475582	0.136482	0.161464
H851	H	0.808915	0.469815	0.494798
H852	H	1.142248	0.803148	0.828131
H853	H	0.437312	0.163932	0.213777
H854	H	0.770645	0.497265	0.547110
H855	H	1.103978	0.830599	0.880443
H856	H	0.491392	0.192095	0.193145
H857	H	0.824725	0.525428	0.526478
H858	H	1.158059	0.858761	0.859811
O859	O	0.505255	0.127005	0.129984
O860	O	0.838588	0.460339	0.463317
O861	O	1.171921	0.793672	0.796651
C862	C	0.512365	0.119912	0.078296
C863	C	0.845699	0.453246	0.411629
C864	C	1.179032	0.786579	0.744963
H865	H	0.530726	0.081354	0.071167
H866	H	0.864060	0.414687	0.404501
H867	H	1.197393	0.748020	0.737834
H868	H	0.475719	0.125542	0.058451
H869	H	0.809052	0.458875	0.391784
H870	H	1.142386	0.792209	0.725117
H871	H	0.536399	0.147105	0.063474
H872	H	0.869732	0.480438	0.396807
H873	H	1.203065	0.813771	0.730140
O874	O	0.668963	-0.036648	0.526974
O875	O	1.002297	0.296685	0.860308
O876	O	1.335630	0.630019	1.193641
C877	C	0.698197	-0.065855	0.561221
C878	C	1.031531	0.267479	0.894554
C879	C	1.364864	0.600812	1.227887
H880	H	0.678381	-0.066256	0.598444
H881	H	1.011714	0.267077	0.931777
H882	H	1.345047	0.600410	1.265111
H883	H	0.705862	-0.104513	0.546137
H884	H	1.039196	0.228820	0.879471
H885	H	1.372529	0.562153	1.212804
H886	H	0.733987	-0.050413	0.566773
H887	H	1.067321	0.282920	0.900106
H888	H	1.400654	0.616254	1.233440
