data_functionalizedCrystal
_audit_creation_method	'MofGen! by Chris Wilmer'
_symmetry_space_group_name_H-M	'P1'
_symmetry_Int_Tables_number	1
_symmetry_cell_setting	triclinic
loop_
_symmetry_equiv_pos_as_xyz
  x,y,z
_cell_length_a	6.817900
_cell_length_b	19.590947
_cell_length_c	19.551823
_cell_angle_alpha	83.785591
_cell_angle_beta	78.336624
_cell_angle_gamma	102.205388
loop_
_atom_site_label
_atom_site_type_symbol
_atom_site_fract_x
_atom_site_fract_y
_atom_site_fract_z
V1	V	4.003317	0.218187	-0.097408
O2	O	4.000539	0.213698	0.003928
O3	O	3.946086	0.217018	-0.192419
O4	O	3.948756	0.313199	-0.096240
O5	O	3.997851	0.116851	-0.092917
V6	V	4.488888	0.206027	-0.085248
O7	O	4.260084	0.244861	-0.124081
O8	O	4.682318	0.179354	-0.058574
O9	O	4.322912	0.207196	0.009764
O10	O	4.609062	0.210517	-0.186583
O11	O	4.611750	0.307363	-0.089738
O12	O	4.320242	0.111016	-0.086416
C13	C	3.789137	0.213660	-0.215570
C14	C	3.823590	0.213337	-0.293245
C15	C	3.792542	0.336346	-0.092883
C16	C	3.829158	0.414021	-0.092557
C17	C	4.021314	0.216680	-0.333302
C18	C	4.053690	0.216384	-0.406287
C19	C	3.888322	0.212731	-0.439210
C20	C	3.690572	0.209392	-0.399145
C21	C	3.658205	0.209695	-0.326162
C22	C	3.777967	0.168423	-0.545549
C23	C	3.810338	0.168116	-0.618530
C24	C	3.988145	0.211800	-0.664313
C25	C	4.133606	0.255782	-0.637106
C26	C	4.101239	0.256085	-0.564123
C27	C	3.923398	0.212403	-0.518347
C28	C	4.220988	0.214823	-0.783509
C29	C	4.253359	0.214531	-0.856496
C30	C	3.890231	0.207532	-0.849351
C31	C	3.857870	0.207831	-0.776367
C32	C	4.023254	0.211473	-0.743450
C33	C	4.027907	0.454079	-0.095911
C34	C	4.062312	0.527063	-0.095604
C35	C	3.897962	0.559987	-0.091958
C36	C	3.699182	0.519918	-0.088599
C37	C	3.664780	0.446935	-0.088899
C38	C	3.834955	0.679427	-0.129950
C39	C	3.869367	0.752410	-0.129655
C40	C	4.004061	0.785091	-0.091031
C41	C	4.104378	0.744782	-0.052711
C42	C	4.069976	0.671799	-0.053011
C43	C	3.935245	0.639124	-0.091632
C44	C	4.240128	0.904286	-0.094052
C45	C	4.274523	0.977270	-0.093740
C46	C	3.911391	0.970125	-0.086742
C47	C	3.876998	0.897142	-0.087046
C48	C	4.041376	0.864227	-0.090704
C49	C	4.146769	1.087864	-0.089773
C50	C	4.110168	1.010189	-0.090093
C51	C	4.143202	0.210553	0.032911
C52	C	4.087988	0.210880	0.110586
H53	H	4.155989	0.219650	-0.306507
H54	H	4.161759	0.427285	-0.098887
H55	H	3.502929	0.414318	-0.086162
Cl56	Cl	4.273726	0.785858	-0.004156
H57	H	3.696860	0.205105	-0.743751
Cl58	Cl	4.428901	0.219418	-0.742127
H59	H	3.691901	0.132298	-0.640675
Cl60	Cl	3.482682	0.204804	-0.440533
Cl61	Cl	3.554414	0.113504	-0.488000
Cl62	Cl	4.446764	0.862904	-0.098644
Cl63	Cl	4.501953	0.218739	-0.906856
H64	H	3.755587	0.204563	-0.876157
Cl65	Cl	3.409616	0.205491	-0.275802
Cl66	Cl	4.524402	1.027631	-0.097956
Cl67	Cl	4.302280	0.220587	-0.456655
Cl68	Cl	4.312189	0.577432	-0.099817
H69	H	4.151655	0.638982	-0.021808
H70	H	3.777571	0.996930	-0.083767
Cl71	Cl	3.743268	0.803077	-0.177833
Cl72	Cl	3.627132	0.846781	-0.082841
Cl73	Cl	3.665585	0.638349	-0.178501
Cl74	Cl	3.492569	0.561307	-0.084013
H75	H	4.219678	0.291898	-0.541974
H76	H	4.278206	0.291450	-0.674393
