data_functionalizedCrystal
_audit_creation_method	'MofGen! by Chris Wilmer'
_symmetry_space_group_name_H-M	'P1'
_symmetry_Int_Tables_number	1
_symmetry_cell_setting	triclinic
loop_
_symmetry_equiv_pos_as_xyz
  x,y,z
_cell_length_a	14.971486
_cell_length_b	16.109301
_cell_length_c	14.048226
_cell_angle_alpha	89.992144
_cell_angle_beta	89.998499
_cell_angle_gamma	83.537805
loop_
_atom_site_label
_atom_site_type_symbol
_atom_site_fract_x
_atom_site_fract_y
_atom_site_fract_z
O1	O	1.186791	0.108348	-0.079054
O2	O	0.926372	0.121323	-0.079081
O3	O	1.063735	-0.006187	-0.079057
O4	O	1.049427	0.235857	-0.079078
O5	O	1.063719	-0.006194	0.079264
O6	O	0.926355	0.121315	0.079241
O7	O	1.186774	0.108340	0.079267
Zn8	Zn	1.056562	0.114826	0.104391
Zn9	Zn	1.056584	0.114836	-0.104204
O10	O	1.049411	0.235850	0.079244
C11	C	0.893040	0.120739	0.000077
C12	C	0.793745	0.119000	0.000067
C13	C	1.063147	-0.037166	0.000104
C14	C	1.061410	-0.129464	0.000105
C15	C	0.736412	0.193908	0.000062
C16	C	0.643115	0.192269	0.000076
C17	C	0.607153	0.115721	0.000089
C18	C	0.664494	0.040807	0.000097
C19	C	0.757789	0.042447	0.000089
C20	C	0.470036	0.037395	0.000110
C21	C	0.376734	0.035755	0.000116
C22	C	0.355362	0.187217	0.000097
C23	C	0.448657	0.188857	0.000090
C24	C	0.505991	0.113942	0.000096
C25	C	1.138878	-0.351640	0.000098
C26	C	1.137239	-0.438362	0.000090
C27	C	0.974262	-0.418691	0.000077
C28	C	0.975902	-0.331970	0.000078
C29	C	1.058213	-0.298447	0.000094
C30	C	1.054933	-0.471890	0.000085
C31	C	1.053155	-0.565918	0.000076
C32	C	1.059992	-0.204413	0.000101
C33	C	1.220106	0.108924	0.000108
C34	C	1.319401	0.110663	0.000111
C35	C	1.049999	0.266829	0.000080
C36	C	1.051736	0.359127	0.000073
N37	N	1.056554	0.114819	0.246752
N38	N	1.056599	0.114837	-0.246565
C39	C	1.117397	0.058381	0.296580
C40	C	1.117403	0.058381	0.396238
C41	C	1.056570	0.114823	0.446065
C42	C	0.995719	0.171263	0.396230
C43	C	0.995710	0.171259	0.296574
C44	C	0.995745	0.171269	0.603944
C45	C	0.995756	0.171275	0.703607
C46	C	1.117439	0.058391	0.703608
C47	C	1.117429	0.058387	0.603952
C48	C	1.056580	0.114829	0.554123
H49	H	0.596437	0.253267	0.000071
N50	N	0.885489	-0.454852	0.000080
H51	H	0.834637	-0.407992	0.000077
H52	H	0.881259	-0.490399	-0.058610
H53	H	0.910211	-0.288658	0.000072
N54	N	0.819634	-0.038345	0.000089
H55	H	0.858819	-0.041041	0.058778
H56	H	0.782637	-0.087042	0.000060
H57	H	1.202924	-0.481669	0.000092
H58	H	0.308675	0.248215	0.000097
H59	H	1.166969	0.012432	0.563383
N60	N	1.183017	-0.002491	0.242841
H61	H	1.221561	-0.038245	0.289533
H62	H	1.148786	-0.039302	0.201505
H63	H	1.166946	0.012424	0.436808
N64	N	1.183073	-0.002485	0.757344
H65	H	1.173848	0.006077	0.828036
H66	H	1.172766	-0.061484	0.739936
H67	H	0.946218	0.217235	0.744171
H68	H	0.946192	0.217228	0.563377
N69	N	0.930103	0.232135	0.449974
H70	H	0.964272	0.269003	0.491306
H71	H	0.891569	0.267831	0.403227
H72	H	0.946164	0.217216	0.256004
H73	H	0.765684	0.256242	0.000051
H74	H	0.347458	-0.026577	0.000128
N75	N	0.487449	0.271417	0.000058
H76	H	0.436973	0.318626	0.000054
H77	H	0.525698	0.275397	0.058743
H78	H	0.516716	-0.023609	0.000117
N79	N	1.227654	-0.315483	0.000107
H80	H	1.216456	-0.252474	0.000112
H81	H	1.262943	-0.334948	0.058802
H82	H	0.635206	-0.021520	0.000121
