data_functionalizedCrystal
_audit_creation_method	'MofGen! by Chris Wilmer'
_symmetry_space_group_name_H-M	'P1'
_symmetry_Int_Tables_number	1
_symmetry_cell_setting	triclinic
loop_
_symmetry_equiv_pos_as_xyz
  x,y,z
_cell_length_a	11.026607
_cell_length_b	12.837942
_cell_length_c	9.482900
_cell_angle_alpha	100.328050
_cell_angle_beta	78.636152
_cell_angle_gamma	101.707478
loop_
_atom_site_label
_atom_site_type_symbol
_atom_site_fract_x
_atom_site_fract_y
_atom_site_fract_z
O1	O	1.678880	0.430677	-0.120903
O2	O	1.319732	0.380157	-0.120904
O3	O	1.491341	0.253029	-0.120894
O4	O	1.507271	0.557805	-0.120912
O5	O	1.456499	0.278984	0.120896
O6	O	1.284890	0.406113	0.120887
O7	O	1.644038	0.456632	0.120888
Cu8	Cu	1.461282	0.433742	0.142965
Cu9	Cu	1.502487	0.403047	-0.142981
O10	O	1.472429	0.583760	0.120878
C11	C	1.256022	0.383815	-0.000009
C12	C	1.118096	0.356032	-0.000009
C13	C	1.053162	0.432745	-0.000014
C14	C	0.910607	0.404032	-0.000015
C15	C	1.468539	0.226382	0.000000
C16	C	1.452492	0.108310	-0.000002
C17	C	1.645414	-0.096652	-0.000032
C18	C	1.630343	-0.207590	-0.000035
C19	C	1.407280	-0.224509	-0.000020
C20	C	1.422352	-0.113570	-0.000018
C21	C	1.541422	-0.049645	-0.000021
C22	C	1.556492	0.061297	-0.000009
C23	C	1.333431	0.044375	-0.000005
C24	C	1.318360	-0.066563	-0.000007
C25	C	1.707748	0.452974	-0.000011
C26	C	1.845676	0.480756	-0.000020
C27	C	1.495231	0.610407	-0.000019
C28	C	1.511279	0.728478	-0.000026
N29	N	1.432310	0.455332	0.344083
N30	N	1.531469	0.381450	-0.344099
C31	C	1.493932	0.409408	0.416286
C32	C	1.469837	0.427381	0.583702
H33	H	1.653444	0.113344	-0.000006
H34	H	0.860673	0.317088	-0.000047
C35	C	0.913128	0.598204	-0.000035
H36	H	1.000094	0.602096	-0.000046
H37	H	0.878311	0.641541	0.084275
H38	H	0.902611	0.623423	-0.084371
H39	H	1.103105	0.519680	-0.000011
H40	H	1.742364	-0.044601	-0.000021
C41	C	1.050642	0.238588	-0.000002
H42	H	1.109866	0.194184	0.000012
H43	H	1.012377	0.215508	-0.084316
H44	H	0.988082	0.233615	0.084330
H45	H	1.715025	-0.245859	-0.000048
H46	H	1.564524	0.356779	0.354162
C47	C	1.276317	-0.294837	-0.000017
H48	H	1.282240	-0.367639	-0.000014
H49	H	1.245102	-0.289180	-0.084327
H50	H	1.220815	-0.271089	0.084319
H51	H	1.399231	0.480004	0.645822
H52	H	1.602065	0.328818	0.593780
C53	C	1.187392	-0.136885	0.000006
H54	H	1.193306	-0.209688	0.000013
H55	H	1.156173	-0.131227	-0.084302
H56	H	1.131897	-0.113129	0.084344
H57	H	1.248752	0.082660	0.000016
C58	C	1.336941	0.526425	0.427998
H59	H	1.333264	0.529185	0.529512
H60	H	1.256353	0.496972	0.403145
H61	H	1.362388	0.596992	0.403119
