data_functionalizedCrystal
_audit_creation_method	'MofGen! by Chris Wilmer'
_symmetry_space_group_name_H-M	'P1'
_symmetry_Int_Tables_number	1
_symmetry_cell_setting	triclinic
loop_
_symmetry_equiv_pos_as_xyz
  x,y,z
_cell_length_a	12.759401
_cell_length_b	16.120484
_cell_length_c	16.120297
_cell_angle_alpha	95.614431
_cell_angle_beta	92.881441
_cell_angle_gamma	92.925560
loop_
_atom_site_label
_atom_site_type_symbol
_atom_site_fract_x
_atom_site_fract_y
_atom_site_fract_z
Zn1	Zn	1.552087	-0.356741	-0.489387
Zn2	Zn	1.551955	-0.489431	-0.356697
Zn3	Zn	1.385777	-0.349678	-0.349640
Zn4	Zn	1.366966	-0.496473	-0.496428
O5	O	1.464196	-0.423081	-0.423038
O6	O	1.699089	-0.374352	-0.471792
O7	O	1.537728	-0.464989	-0.238799
O8	O	1.415766	-0.233650	-0.362278
O9	O	1.698992	-0.471838	-0.374306
O10	O	1.537953	-0.238839	-0.464949
O11	O	1.415638	-0.362313	-0.233614
O12	O	1.236261	-0.369142	-0.369105
O13	O	1.383705	-0.483840	-0.612456
O14	O	1.222441	-0.476991	-0.476949
O15	O	1.519713	-0.381180	-0.607283
O16	O	1.519488	-0.607330	-0.381133
O17	O	1.383577	-0.612504	-0.483792
C18	C	1.191230	-0.423065	-0.423026
C19	C	1.074452	-0.423079	-0.423042
C20	C	1.012421	-0.479317	-0.479112
C21	C	0.902696	-0.479328	-0.479122
C22	C	0.917042	-0.366860	-0.366983
C23	C	1.026765	-0.366846	-0.366978
C24	C	1.060108	-0.535551	-0.535175
C25	C	0.998077	-0.591794	-0.591250
C26	C	0.888351	-0.591805	-0.591259
C27	C	0.840657	-0.535573	-0.535195
C28	C	1.449504	-0.640246	-0.434011
C29	C	1.443313	-0.733151	-0.438733
C30	C	1.432015	-0.903252	-0.447371
C31	C	1.496565	-0.942070	-0.398718
C32	C	1.490278	-1.036720	-0.403525
C33	C	1.438300	-0.808594	-0.442566
C34	C	1.738227	-0.423097	-0.423051
C35	C	1.855003	-0.423104	-0.423056
C36	C	1.449626	-0.434084	-0.641044
C37	C	1.443417	-0.438772	-0.733946
C38	C	1.478973	-0.205069	-0.412041
C39	C	1.485270	-0.112165	-0.407354
C40	C	1.432044	-0.447314	-0.904036
C41	C	1.496572	-0.398597	-0.942879
C42	C	1.490244	-0.403350	-1.037523
C43	C	1.438370	-0.442563	-0.809384
C44	C	1.478774	-0.412060	-0.205877
C45	C	1.485202	-0.407136	-0.112964
H46	H	1.036917	-0.637572	-0.636901
C47	C	0.865460	-0.305724	-0.306074
C48	C	0.943270	-0.256454	-0.256981
C49	C	0.895795	-0.200121	-0.200867
H50	H	0.822944	-0.335711	-0.271141
H51	H	0.823000	-0.270932	-0.336250
H52	H	0.985713	-0.291242	-0.226807
H53	H	0.985791	-0.226449	-0.291891
H54	H	0.853335	-0.165329	-0.231043
H55	H	0.853280	-0.230115	-0.165939
H56	H	0.948581	-0.166680	-0.167556
H57	H	0.837848	-0.637596	-0.636923
C58	C	1.352189	-0.953823	-0.507770
C59	C	1.404773	-1.006600	-0.563862
C60	C	1.331271	-1.053218	-0.619502
H61	H	1.312473	-0.917124	-0.537750
H62	H	1.306384	-0.986359	-0.477480
H63	H	1.450561	-0.974067	-0.594149
H64	H	1.444485	-1.043316	-0.533906
H65	H	1.285466	-1.085753	-0.589212
H66	H	1.291559	-1.016513	-0.649476
H67	H	1.366938	-1.089038	-0.657562
C68	C	1.576525	-0.338295	-0.892302
C69	C	1.567002	-0.345522	-0.807124
C70	C	1.640637	-0.289990	-0.760505
H71	H	1.564085	-0.282800	-0.903618
H72	H	1.645383	-0.351230	-0.907133
H73	H	1.498161	-0.332581	-0.792299
H74	H	1.579452	-0.401004	-0.795782
H75	H	1.709494	-0.302926	-0.775336
H76	H	1.628190	-0.234500	-0.771828
H77	H	1.634192	-0.294892	-0.702707
C78	C	0.721509	-0.535713	-0.535334
C79	C	0.677389	-0.596998	-0.596440
C80	C	0.567635	-0.597150	-0.596595
H81	H	0.699260	-0.482576	-0.547194
H82	H	0.699234	-0.547396	-0.482126
H83	H	0.699654	-0.585310	-0.649636
H84	H	0.699607	-0.650144	-0.584594
H85	H	0.545360	-0.608833	-0.543387
H86	H	0.545398	-0.544011	-0.608454
H87	H	0.537686	-0.638736	-0.638049
C88	C	1.352160	-0.507665	-0.954615
C89	C	1.361721	-0.500458	-1.039793
C90	C	1.288164	-0.556049	-1.086422
H91	H	1.283277	-0.494792	-0.939838
H92	H	1.364676	-0.563144	-0.943253
H93	H	1.349197	-0.444992	-1.051150
H94	H	1.430588	-0.513339	-1.054595
H95	H	1.300680	-0.611529	-1.075060
H96	H	1.219285	-0.543171	-1.071638
H97	H	1.294647	-0.551173	-1.144220
C98	C	1.094302	-0.305826	-0.306193
C99	C	1.200599	-0.317834	-0.318207
C100	C	1.262845	-0.261627	-0.262236
H101	H	1.079385	-0.315080	-0.250591
H102	H	1.079349	-0.250292	-0.315691
H103	H	1.215546	-0.373355	-0.308702
H104	H	1.215549	-0.308573	-0.373797
H105	H	1.247892	-0.206093	-0.271734
H106	H	1.247918	-0.270886	-0.206638
H107	H	1.334973	-0.269761	-0.270385
C108	C	1.179221	-0.535640	-0.535324
C109	C	1.207710	-0.596908	-0.596434
C110	C	1.317427	-0.597008	-0.596599
H111	H	1.206793	-0.547312	-0.482136
H112	H	1.206750	-0.482474	-0.547186
H113	H	1.180193	-0.650063	-0.584566
H114	H	1.180165	-0.585251	-0.649630
H115	H	1.344955	-0.543841	-0.608462
H116	H	1.344989	-0.608677	-0.543409
H117	H	1.336771	-0.638572	-0.638067
H118	H	1.556548	-0.904219	-0.353455
