data_functionalizedCrystal
_audit_creation_method	'MofGen! by Chris Wilmer'
_symmetry_space_group_name_H-M	'P1'
_symmetry_Int_Tables_number	1
_symmetry_cell_setting	triclinic
loop_
_symmetry_equiv_pos_as_xyz
  x,y,z
_cell_length_a	12.759401
_cell_length_b	16.625546
_cell_length_c	16.625548
_cell_angle_alpha	90.013404
_cell_angle_beta	90.005065
_cell_angle_gamma	90.022629
loop_
_atom_site_label
_atom_site_type_symbol
_atom_site_fract_x
_atom_site_fract_y
_atom_site_fract_z
Zn1	Zn	1.606059	-0.321132	0.455829
Zn2	Zn	2.106059	0.178868	0.955829
Zn3	Zn	1.605971	-0.455935	0.320991
Zn4	Zn	2.105971	0.044065	0.820991
Zn5	Zn	1.430403	-0.321121	0.321017
Zn6	Zn	1.930403	0.178879	0.821017
Zn7	Zn	1.430326	-0.455927	0.455789
Zn8	Zn	1.930326	0.044073	0.955789
O9	O	1.518190	-0.388529	0.388407
O10	O	2.018190	0.111471	0.888407
O11	O	1.753069	-0.339022	0.437949
O12	O	2.253069	0.160978	0.937949
O13	O	1.582677	-0.438050	0.208163
O14	O	2.082677	0.061950	0.708163
O15	O	1.453773	-0.208290	0.338928
O16	O	1.953773	0.291710	0.838928
O17	O	1.753004	-0.438061	0.338884
O18	O	2.253004	0.061939	0.838884
O19	O	1.582827	-0.208298	0.437974
O20	O	2.082827	0.291702	0.937974
O21	O	1.453687	-0.339003	0.208181
O22	O	1.953687	0.160997	0.708181
O23	O	1.283371	-0.338995	0.338889
O24	O	1.783371	0.161005	0.838889
O25	O	1.453643	-0.438047	0.568626
O26	O	1.953643	0.061953	1.068626
O27	O	1.283315	-0.438036	0.437905
O28	O	1.783315	0.061964	0.937905
O29	O	1.582753	-0.339014	0.568656
O30	O	2.082753	0.160986	1.068656
O31	O	1.582602	-0.568766	0.338845
O32	O	2.082602	-0.068766	0.838845
O33	O	1.453557	-0.568760	0.437880
O34	O	1.953557	-0.068760	0.937880
C35	C	1.245222	-0.388514	0.388396
C36	C	1.745222	0.111486	0.888396
C37	C	1.128446	-0.388527	0.388410
C38	C	1.628446	0.111473	0.888410
C39	C	1.073582	-0.440180	0.439882
C40	C	1.573582	0.059820	0.939882
C41	C	0.963858	-0.440190	0.439891
C42	C	1.463858	0.059810	0.939891
C43	C	0.963871	-0.336892	0.336948
C44	C	1.463871	0.163108	0.836948
C45	C	1.073593	-0.336878	0.336944
C46	C	1.573593	0.163122	0.836944
C47	C	1.073574	-0.499821	0.499313
C48	C	1.573574	0.000179	0.999313
C49	C	0.963850	-0.499832	0.499322
C50	C	1.463850	0.000168	0.999322
C51	C	1.518090	-0.598019	0.388373
C52	C	2.018090	-0.098019	0.888373
C53	C	1.518144	-0.687641	0.388385
C54	C	2.018144	-0.187641	0.888385
C55	C	1.518327	-1.015816	0.388469
C56	C	2.018327	-0.515816	0.888469
C57	C	1.518273	-0.924508	0.388448
C58	C	2.018273	-0.424508	0.888448
C59	C	1.518235	-0.851731	0.388427
C60	C	2.018235	-0.351731	0.888427
C61	C	1.518182	-0.760417	0.388407
C62	C	2.018182	-0.260417	0.888407
C63	C	1.792223	-0.388544	0.388418
C64	C	2.292223	0.111456	0.888418
C65	C	1.909000	-0.388551	0.388423
C66	C	2.409000	0.111449	0.888423
C67	C	1.518199	-0.388531	0.598715
C68	C	2.018199	0.111469	1.098715
C69	C	1.518203	-0.388532	0.688337
C70	C	2.018203	0.111468	1.188337
C71	C	1.518318	-0.178220	0.388458
C72	C	2.018318	0.321780	0.888458
C73	C	1.518373	-0.088599	0.388480
C74	C	2.018373	0.411401	0.888480
C75	C	1.518159	-0.388539	1.016512
C76	C	2.018159	0.111461	1.516512
C77	C	1.518169	-0.388540	0.925204
C78	C	2.018169	0.111460	1.425204
C79	C	1.518182	-0.388536	0.852427
C80	C	2.018182	0.111464	1.352427
C81	C	1.518190	-0.388535	0.761113
C82	C	2.018190	0.111465	1.261113
C83	C	1.518170	-0.388543	1.178916
C84	C	2.018170	0.111457	1.678916
C85	C	1.518160	-0.388537	1.089295
C86	C	2.018160	0.111463	1.589295
H87	H	1.107584	-0.559100	0.476834
H88	H	1.607584	-0.059100	0.976834
O89	O	0.923090	-0.473260	0.570079
O90	O	1.423090	0.026740	1.070079
C91	C	0.812741	-0.474863	0.565905
C92	C	1.312741	0.025137	1.065905
H93	H	0.787071	-0.472437	0.500271
H94	H	1.287071	0.027563	1.000271
H95	H	0.779458	-0.420800	0.599464
H96	H	1.279458	0.079200	1.099464
H97	H	0.782461	-0.532644	0.594603
H98	H	1.282461	-0.032644	1.094603
H99	H	0.934048	-0.562257	0.482485
H100	H	1.434048	-0.062257	0.982485
H101	H	0.919197	-0.294840	0.295047
H102	H	1.419197	0.205160	0.795047
O103	O	1.126839	-0.286780	0.286835
O104	O	1.626839	0.213220	0.786835
C105	C	1.099988	-0.304252	0.206440
C106	C	1.599988	0.195748	0.706440
H107	H	1.069811	-0.368664	0.202243
H108	H	1.569811	0.131336	0.702243
H109	H	1.172140	-0.297224	0.166616
H110	H	1.672140	0.202776	0.666616
H111	H	1.036305	-0.260997	0.185453
H112	H	1.536305	0.239003	0.685453
H113	H	1.103366	-0.483193	0.561791
H114	H	1.603366	0.016807	1.061791
