data_functionalizedCrystal
_audit_creation_method	'MofGen! by Chris Wilmer'
_symmetry_space_group_name_H-M	'P1'
_symmetry_Int_Tables_number	1
_symmetry_cell_setting	triclinic
loop_
_symmetry_equiv_pos_as_xyz
  x,y,z
_cell_length_a	17.699083
_cell_length_b	8.559649
_cell_length_c	16.176319
_cell_angle_alpha	89.994559
_cell_angle_beta	89.998611
_cell_angle_gamma	76.530840
loop_
_atom_site_label
_atom_site_type_symbol
_atom_site_fract_x
_atom_site_fract_y
_atom_site_fract_z
O1	O	0.992507	0.202110	-0.068628
O2	O	0.770623	0.228405	-0.068655
O3	O	0.901113	-0.017421	-0.068638
O4	O	0.862017	0.447935	-0.068645
O5	O	0.901098	-0.017436	0.068855
O6	O	0.770608	0.228389	0.068838
O7	O	0.992492	0.202094	0.068865
Cu8	Cu	0.881549	0.215240	0.081406
Cu9	Cu	0.881566	0.215259	-0.081196
O10	O	0.862002	0.447920	0.068849
C11	C	0.742473	0.227455	0.000088
C12	C	0.658616	0.224628	0.000078
C13	C	0.601734	0.368922	0.000076
C14	C	0.522943	0.366257	0.000087
C15	C	0.501037	0.219296	0.000094
C16	C	0.557926	0.074990	0.000098
C17	C	0.636715	0.077657	0.000093
C18	C	0.240179	0.064231	0.000118
C19	C	0.161383	0.061575	0.000121
C20	C	0.126407	0.352831	0.000112
C21	C	0.205196	0.355498	0.000108
C22	C	0.262078	0.211193	0.000116
C23	C	0.347512	0.214085	0.000106
C24	C	0.415605	0.216402	0.000098
C25	C	0.904069	-0.076970	0.000107
C26	C	0.912888	-0.254384	0.000104
C27	C	1.020643	0.203044	0.000120
C28	C	1.104499	0.205871	0.000125
C29	C	0.859047	0.507469	0.000101
C30	C	0.850227	0.684883	0.000099
N31	N	0.881542	0.215226	0.195771
N32	N	0.881580	0.215260	-0.195561
C33	C	0.939336	0.106419	0.239043
C34	C	0.939340	0.106417	0.325590
C35	C	0.881552	0.215232	0.368864
C36	C	0.823752	0.324044	0.325586
C37	C	0.823746	0.324037	0.239041
C38	C	0.823776	0.324074	0.674614
C39	C	0.823789	0.324076	0.761166
C40	C	0.939370	0.106455	0.761164
C41	C	0.939364	0.106447	0.674618
C42	C	0.881562	0.215253	0.631348
C43	C	0.881558	0.215252	0.537504
C44	C	0.881559	0.215242	0.462706
H45	H	0.286484	-0.053271	0.000126
O46	O	0.995494	0.000522	0.803108
C47	C	0.992375	-0.157657	0.781984
H48	H	0.963184	-0.157379	0.719148
H49	H	1.053848	-0.236517	0.779022
H50	H	0.957573	-0.206981	0.830698
H51	H	0.540084	-0.044668	0.000115
H52	H	0.789834	-0.231386	0.000095
O53	O	0.984887	-0.354499	0.000078
C54	C	0.977964	-0.515295	0.000106
H55	H	0.918856	-0.521305	-0.025928
H56	H	1.025837	-0.591091	-0.039804
H57	H	0.983603	-0.563514	0.066072
O58	O	0.691874	-0.062658	0.000053
C59	C	0.655646	-0.192944	0.000079
H60	H	0.594353	-0.152149	-0.025949
H61	H	0.690642	-0.294022	-0.039838
H62	H	0.652647	-0.238013	0.066043
H63	H	0.776714	0.412670	0.639391
O64	O	0.467787	0.506572	0.000048
C65	C	0.504018	0.636854	0.000057
H66	H	0.565307	0.596060	-0.025979
H67	H	0.469017	0.737940	-0.039862
H68	H	0.507025	0.681914	0.066016
H69	H	0.619562	0.488595	0.000070
H70	H	0.223027	0.475168	0.000099
H71	H	0.080083	0.470330	0.000110
H72	H	0.143552	-0.058106	0.000127
H73	H	0.986422	0.017846	0.639387
O74	O	0.995509	0.000561	0.197138
C75	C	1.046530	-0.095449	0.253894
H76	H	1.015604	-0.097164	0.315590
H77	H	1.065498	-0.223119	0.228898
H78	H	1.099743	-0.043703	0.263088
O79	O	0.995391	0.000568	0.367656
C80	C	0.960601	-0.097916	0.417744
H81	H	0.901060	-0.100469	0.391675
H82	H	0.998877	-0.225026	0.418723
H83	H	0.953733	-0.047894	0.483335
H84	H	0.776728	0.412689	0.796398
O85	O	0.767693	0.429687	0.367748
C86	C	0.780081	0.406341	0.453415
H87	H	0.843735	0.346450	0.465232
H88	H	0.764624	0.527403	0.486297
H89	H	0.741901	0.326297	0.477988
O90	O	0.767569	0.429891	0.197132
C91	C	0.716554	0.525911	0.253883
H92	H	0.747488	0.527643	0.315571
H93	H	0.697581	0.653575	0.228868
H94	H	0.663344	0.474162	0.263099
