data_functionalizedCrystal
_audit_creation_method	'MofGen! by Chris Wilmer'
_symmetry_space_group_name_H-M	'P1'
_symmetry_Int_Tables_number	1
_symmetry_cell_setting	triclinic
loop_
_symmetry_equiv_pos_as_xyz
  x,y,z
_cell_length_a	16.959455
_cell_length_b	17.640280
_cell_length_c	16.959447
_cell_angle_alpha	101.226742
_cell_angle_beta	90.014322
_cell_angle_gamma	78.797529
loop_
_atom_site_label
_atom_site_type_symbol
_atom_site_fract_x
_atom_site_fract_y
_atom_site_fract_z
Zn1	Zn	1.272058	-0.314718	0.383358
Zn2	Zn	1.772058	0.185282	0.883358
Zn3	Zn	1.298725	-0.446906	0.224487
Zn4	Zn	1.798725	0.053094	0.724487
Zn5	Zn	1.139892	-0.314743	0.251191
Zn6	Zn	1.639892	0.185257	0.751191
Zn7	Zn	1.166584	-0.446847	0.356638
Zn8	Zn	1.666584	0.053153	0.856638
O9	O	1.219315	-0.380803	0.303918
O10	O	1.719315	0.119197	0.803918
O11	O	1.386210	-0.332268	0.362291
O12	O	1.886210	0.167732	0.862291
O13	O	1.277645	-0.429409	0.117412
O14	O	1.777645	0.070591	0.617412
O15	O	1.135093	-0.204133	0.291081
O16	O	1.635093	0.295867	0.791081
O17	O	1.405802	-0.429385	0.245569
O18	O	1.905802	0.070615	0.745569
O19	O	1.232195	-0.204115	0.388184
O20	O	1.732195	0.295885	0.888184
O21	O	1.160951	-0.332310	0.137030
O22	O	1.660951	0.167690	0.637030
O23	O	1.032819	-0.332252	0.265171
O24	O	1.532819	0.167748	0.765171
O25	O	1.180586	-0.429284	0.470800
O26	O	1.680586	0.070716	0.970800
O27	O	1.052429	-0.429308	0.342643
O28	O	1.552429	0.070692	0.842643
O29	O	1.258077	-0.332210	0.490432
O30	O	1.758077	0.167790	0.990432
O31	O	1.303527	-0.557504	0.219659
O32	O	1.803527	-0.057504	0.719659
O33	O	1.206444	-0.557461	0.316750
O34	O	1.706444	-0.057461	0.816750
C35	C	1.013943	-0.380777	0.303906
C36	C	1.513943	0.119223	0.803906
C37	C	0.926088	-0.380785	0.303915
C38	C	1.426088	0.119215	0.803915
C39	C	1.260797	-0.586162	0.262425
C40	C	1.760797	-0.086162	0.762425
C41	C	1.278616	-0.674015	0.244700
C42	C	1.778616	-0.174015	0.744700
C43	C	0.544372	-0.330225	0.263693
C44	C	1.044372	0.169775	0.763693
C45	C	0.564874	-0.431447	0.344176
C46	C	1.064874	0.068553	0.844176
C47	C	0.647417	-0.431435	0.344174
C48	C	1.147417	0.068565	0.844174
C49	C	0.678442	-0.380819	0.303929
C50	C	1.178442	0.119181	0.803929
C51	C	0.626924	-0.330214	0.263687
C52	C	1.126924	0.169786	0.763687
C53	C	0.698943	-0.482045	0.384408
C54	C	1.198943	0.017955	0.884408
C55	C	0.781492	-0.482037	0.384406
C56	C	1.281492	0.017963	0.884406
C57	C	0.812518	-0.431416	0.344166
C58	C	1.312518	0.068584	0.844166
C59	C	0.760993	-0.380808	0.303923
C60	C	1.260993	0.119192	0.803923
C61	C	0.792018	-0.330191	0.263679
C62	C	1.292018	0.169809	0.763679
C63	C	0.740495	-0.279579	0.223440
C64	C	1.240495	0.220421	0.723440
C65	C	0.657949	-0.279593	0.223447
C66	C	1.157949	0.220407	0.723447
C67	C	0.895063	-0.431402	0.344159
C68	C	1.395063	0.068598	0.844159
C69	C	0.874570	-0.330180	0.263673
C70	C	1.374570	0.169820	0.763673
C71	C	1.084273	-0.962977	0.438860
C72	C	1.584273	-0.462977	0.938860
C73	C	1.101018	-1.045529	0.422179
C74	C	1.601018	-0.545529	0.922179
C75	C	1.202174	-1.045509	0.321181
C76	C	1.702174	-0.545509	0.821181
C77	C	1.185440	-0.962956	0.337856
C78	C	1.685440	-0.462956	0.837856
C79	C	1.126488	-0.921696	0.396695
C80	C	1.626488	-0.421696	0.896695
C81	C	1.227655	-0.921675	0.295692
C82	C	1.727655	-0.421675	0.795692
C83	C	1.210920	-0.839129	0.312362
C84	C	1.710920	-0.339129	0.812362
C85	C	1.151969	-0.797864	0.371197
C86	C	1.651969	-0.297864	0.871197
C87	C	1.109753	-0.839151	0.413366
C88	C	1.609753	-0.339151	0.913366
C89	C	1.286603	-0.962935	0.236849
C90	C	1.786603	-0.462935	0.736849
C91	C	1.328818	-0.921654	0.194684
C92	C	1.828818	-0.421654	0.694684
C93	C	1.312087	-0.839107	0.211358
C94	C	1.812087	-0.339107	0.711358
C95	C	1.253136	-0.797842	0.270193
C96	C	1.753136	-0.297842	0.770193
C97	C	1.354303	-0.797820	0.169190
C98	C	1.854303	-0.297820	0.669190
C99	C	1.337568	-0.715274	0.185860
C100	C	1.837568	-0.215274	0.685860
C101	C	1.236401	-0.715296	0.286864
C102	C	1.736401	-0.215296	0.786864
C103	C	1.425488	-0.380830	0.303932
C104	C	1.925488	0.119170	0.803932
C105	C	1.513347	-0.380841	0.303937
C106	C	2.013347	0.119159	0.803937
C107	C	1.219334	-0.380738	0.510100
C108	C	1.719334	0.119262	1.010100
C109	C	1.219343	-0.380710	0.597962
C110	C	1.719343	0.119290	1.097962
C111	C	1.177692	-0.174643	0.345592
C112	C	1.677692	0.325357	0.845592
C113	C	1.159955	-0.086790	0.363350
C114	C	1.659955	0.413210	0.863350
C115	C	1.219329	-0.380811	0.098551
C116	C	1.719329	0.119189	0.598551
C117	C	1.219429	-0.380617	0.010734
C118	C	1.719429	0.119383	0.510734
C119	C	1.179074	-0.431169	0.959236
C120	C	1.679074	0.068831	1.459236
C121	C	1.259767	-0.330085	0.979674
C122	C	1.759767	0.169915	1.479674
C123	C	1.259749	-0.330101	0.897124
C124	C	1.759749	0.169899	1.397124
C125	C	1.219394	-0.380653	0.845627
C126	C	1.719394	0.119347	1.345627
C127	C	1.179057	-0.431189	0.876679
C128	C	1.679057	0.068811	1.376679
C129	C	1.300092	-0.279573	0.866065
C130	C	1.800092	0.220427	1.366065
C131	C	1.300077	-0.279588	0.783511
C132	C	1.800077	0.220412	1.283511
C133	C	1.259717	-0.330137	0.732013
C134	C	1.759717	0.169863	1.232013
C135	C	1.219377	-0.380673	0.763069
C136	C	1.719377	0.119327	1.263069
C137	C	1.179023	-0.431225	0.711572
C138	C	1.679023	0.068775	1.211572
C139	C	1.138678	-0.481759	0.742628
C140	C	1.638678	0.018241	1.242628
C141	C	1.138697	-0.481737	0.825180
C142	C	1.638697	0.018263	1.325180
C143	C	1.259698	-0.330158	0.649460
C144	C	1.759698	0.169842	1.149460
C145	C	1.179006	-0.431245	0.629014
C146	C	1.679006	0.068755	1.129014
H147	H	0.899822	-0.288956	0.230907
H148	H	1.399822	0.211044	0.730907
C149	C	1.054576	-1.090935	0.468573
C150	C	1.554576	-0.590935	0.968573
N151	N	1.019598	-1.125135	0.503516
N152	N	1.519598	-0.625135	1.003516
C153	C	0.664810	-0.537722	0.428671
C154	C	1.164810	-0.037722	0.928671
N155	N	0.639098	-0.579658	0.462013
N156	N	1.139098	-0.079658	0.962013
H157	H	1.376814	-0.955259	0.146775
H158	H	1.876814	-0.455259	0.646775
C159	C	1.384013	-0.669862	0.139484
C160	C	1.884013	-0.169862	0.639484
N161	N	1.418998	-0.635658	0.104552
N162	N	1.918998	-0.135658	0.604552
C163	C	0.530743	-0.487124	0.388440
C164	C	1.030743	0.012876	0.888440
N165	N	0.505033	-0.529060	0.421784
N166	N	1.005033	-0.029060	0.921784
H167	H	0.765767	-0.238370	0.190669
H168	H	1.265767	0.261630	0.690669
H169	H	0.937010	-0.472612	0.376918
H170	H	1.437010	0.027388	0.876918
H171	H	1.250170	-1.079113	0.273272
H172	H	1.750170	-0.579113	0.773272
C173	C	1.019412	-0.917588	0.503576
C174	C	1.519412	-0.417588	1.003576
N175	N	0.970555	-0.883400	0.552312
N176	N	1.470555	-0.383400	1.052312
C177	C	1.419140	-0.843216	0.104460
C178	C	1.919140	-0.343216	0.604460
N179	N	1.467975	-0.877409	0.055704
N180	N	1.967975	-0.377409	0.555704
H181	H	1.146135	-0.472404	0.587091
H182	H	1.646135	0.027596	1.087091
H183	H	1.105825	-0.522921	0.700687
H184	H	1.605825	-0.022921	1.200687
C185	C	1.134690	-0.486747	0.993399
C186	C	1.634690	0.013253	1.493399
N187	N	1.101258	-0.528608	1.019132
N188	N	1.601258	-0.028608	1.519132
C189	C	1.305014	-1.053739	0.218515
C190	C	1.805014	-0.553739	0.718515
N191	N	1.318882	-1.122132	0.204708
N192	N	1.818882	-0.622132	0.704708
H193	H	1.292627	-0.288932	1.021606
H194	H	1.792627	0.211068	1.521606
C195	C	1.344469	-0.223961	0.922718
C196	C	1.844469	0.276039	1.422718
N197	N	1.377890	-0.182067	0.965394
N198	N	1.877890	0.317933	1.465394
C199	C	1.171540	-0.669906	0.351580
C200	C	1.671540	-0.169906	0.851580
N201	N	1.122682	-0.635719	0.400316
N202	N	1.622682	-0.135719	0.900316
H203	H	1.105854	-0.522881	0.850473
H204	H	1.605854	-0.022881	1.350473
C205	C	1.044892	-0.793761	0.478082
C206	C	1.544892	-0.293761	0.978082
N207	N	0.996034	-0.759573	0.526818
N208	N	1.496034	-0.259573	1.026818
C209	C	1.344447	-0.223993	0.749359
C210	C	1.844447	0.276007	1.249359
N211	N	1.377862	-0.182114	0.723636
N212	N	1.877862	0.317886	1.223636
H213	H	1.292548	-0.289017	0.624177
H214	H	1.792548	0.210983	1.124177
H215	H	1.138338	-0.730650	0.384764
H216	H	1.638338	-0.230650	0.884764
C217	C	0.601269	-0.223927	0.179185
C218	C	1.101269	0.276073	0.679185
N219	N	0.558574	-0.182002	0.145845
N220	N	1.058574	0.317998	0.645845
C221	C	0.487697	-0.274553	0.219433
C222	C	0.987697	0.225447	0.719433
N223	N	0.445008	-0.232621	0.186096
N224	N	0.945008	0.267379	0.686096
H225	H	0.823436	-0.523248	0.417171
H226	H	1.323436	-0.023248	0.917171
