data_functionalizedCrystal
_audit_creation_method	'MofGen! by Chris Wilmer'
_symmetry_space_group_name_H-M	'P1'
_symmetry_Int_Tables_number	1
_symmetry_cell_setting	triclinic
loop_
_symmetry_equiv_pos_as_xyz
  x,y,z
_cell_length_a	19.188905
_cell_length_b	11.792241
_cell_length_c	10.868271
_cell_angle_alpha	90.005281
_cell_angle_beta	89.988558
_cell_angle_gamma	96.336014
loop_
_atom_site_label
_atom_site_type_symbol
_atom_site_fract_x
_atom_site_fract_y
_atom_site_fract_z
O1	O	0.926958	-0.141559	-0.102526
O2	O	0.723752	-0.160663	-0.102484
O3	O	0.830286	0.014134	-0.102497
O4	O	0.820424	-0.316356	-0.102512
O5	O	0.830277	0.014141	0.102148
O6	O	0.723743	-0.160656	0.102161
O7	O	0.926949	-0.141552	0.102119
Zn8	Zn	0.825345	-0.151103	0.134632
Zn9	Zn	0.825356	-0.151112	-0.134996
O10	O	0.820415	-0.316349	0.102132
C11	C	0.697733	-0.160046	-0.000156
C12	C	0.620217	-0.158203	-0.000140
C13	C	0.583825	-0.157321	-0.111695
C14	C	0.510991	-0.155577	-0.111710
C15	C	0.474554	-0.154691	-0.000164
C16	C	0.510955	-0.155580	0.111406
C17	C	0.583786	-0.157335	0.111418
N18	N	0.365149	-0.087345	0.082852
N19	N	0.295963	-0.085675	0.082833
C20	C	0.255118	-0.149404	-0.000193
N21	N	0.286074	-0.214852	-0.083219
N22	N	0.355267	-0.216518	-0.083203
C23	C	0.395581	-0.152788	-0.000164
C24	C	0.139751	-0.146633	-0.111772
C25	C	0.066916	-0.144896	-0.111783
C26	C	0.066881	-0.144887	0.111336
C27	C	0.139715	-0.146636	0.111343
C28	C	0.176146	-0.147503	-0.000214
C29	C	0.829662	0.056419	-0.000175
C30	C	0.827808	0.182405	-0.000176
C31	C	0.952968	-0.142169	-0.000211
C32	C	1.030484	-0.144012	-0.000236
C33	C	0.821039	-0.358634	-0.000192
C34	C	0.822893	-0.484620	-0.000200
N35	N	0.825342	-0.151096	0.318646
C36	C	0.824398	0.413065	-0.000196
C37	C	0.826293	0.284709	-0.000185
N38	N	0.825364	-0.151110	-0.319010
C39	C	0.825352	-0.151110	0.569652
C40	C	0.825344	-0.151106	0.429974
H41	H	0.481283	-0.154861	0.202228
H42	H	0.613416	-0.158054	0.202262
H43	H	0.169414	-0.147351	-0.202609
C44	C	0.074273	-0.145047	-0.332322
C45	C	0.026911	-0.143922	-0.234415
H46	H	0.049574	-0.144438	-0.408029
H47	H	0.097597	-0.211896	-0.327690
H48	H	0.107761	-0.079557	-0.327655
H49	H	-0.006574	-0.209418	-0.239077
H50	H	0.003575	-0.077066	-0.239049
C51	C	-0.044773	-0.142169	0.210387
C52	C	0.026839	-0.143901	0.233952
H53	H	-0.069493	-0.141553	0.286089
H54	H	-0.061781	-0.208053	0.164564
H55	H	-0.051611	-0.075714	0.164541
H56	H	0.033678	-0.210361	0.279790
H57	H	0.043852	-0.078010	0.279794
C58	C	0.399358	-0.152876	-0.210787
C59	C	0.470977	-0.154601	-0.234339
H60	H	0.374658	-0.152279	-0.286494
H61	H	0.392503	-0.086426	-0.164948
H62	H	0.382340	-0.218766	-0.164962
H63	H	0.487997	-0.088707	-0.280156
H64	H	0.477836	-0.221058	-0.280197
C65	C	0.214108	-0.246138	0.240791
C66	C	0.179723	-0.147588	0.233970
H67	H	0.238804	-0.246728	0.316502
H68	H	0.246227	-0.246907	0.174366
H69	H	0.180609	-0.311617	0.236150
H70	H	0.213223	-0.082109	0.238601
H71	H	0.147602	-0.146808	0.300413
C72	C	0.576538	-0.157147	-0.332237
C73	C	0.623868	-0.158286	-0.234318
H74	H	0.601261	-0.157751	-0.407938
H75	H	0.553215	-0.090296	-0.327595
H76	H	0.543046	-0.222636	-0.327596
H77	H	0.657357	-0.092793	-0.238954
H78	H	0.647203	-0.225144	-0.238962
