data_functionalizedCrystal
_audit_creation_method	'MofGen! by Chris Wilmer'
_symmetry_space_group_name_H-M	'P1'
_symmetry_Int_Tables_number	1
_symmetry_cell_setting	triclinic
loop_
_symmetry_equiv_pos_as_xyz
  x,y,z
_cell_length_a	13.897448
_cell_length_b	13.897449
_cell_length_c	13.897449
_cell_angle_alpha	90.008641
_cell_angle_beta	90.010270
_cell_angle_gamma	90.018519
loop_
_atom_site_label
_atom_site_type_symbol
_atom_site_fract_x
_atom_site_fract_y
_atom_site_fract_z
Zn1	Zn	-0.384156	1.474562	0.545449
Zn2	Zn	-0.134156	1.724562	0.795449
Zn3	Zn	0.115844	1.974562	1.045449
Zn4	Zn	0.365844	2.224562	1.295449
Zn5	Zn	-0.545421	1.474498	0.384151
Zn6	Zn	-0.295421	1.724498	0.634151
Zn7	Zn	-0.045421	1.974498	0.884151
Zn8	Zn	0.204579	2.224498	1.134151
Zn9	Zn	-0.384144	1.313293	0.384160
Zn10	Zn	-0.134144	1.563293	0.634160
Zn11	Zn	0.115856	1.813293	0.884160
Zn12	Zn	0.365856	2.063293	1.134160
Zn13	Zn	-0.545413	1.313233	0.545396
Zn14	Zn	-0.295413	1.563233	0.795396
Zn15	Zn	-0.045413	1.813233	1.045396
Zn16	Zn	0.204587	2.063233	1.295396
O17	O	-0.464784	1.393896	0.464789
O18	O	-0.214784	1.643896	0.714789
O19	O	0.035216	1.893896	0.964789
O20	O	0.285216	2.143896	1.214789
O21	O	-0.405557	1.609535	0.524071
O22	O	-0.155557	1.859535	0.774071
O23	O	0.094443	2.109535	1.024071
O24	O	0.344443	2.359535	1.274071
O25	O	-0.524025	1.453112	0.249170
O26	O	-0.274025	1.703112	0.499170
O27	O	-0.024025	1.953112	0.749170
O28	O	0.225975	2.203112	0.999170
O29	O	-0.249164	1.334738	0.405582
O30	O	0.000836	1.584738	0.655582
O31	O	0.250836	1.834738	0.905582
O32	O	0.500836	2.084738	1.155582
O33	O	-0.524037	1.609488	0.405566
O34	O	-0.274037	1.859488	0.655566
O35	O	-0.024037	2.109488	0.905566
O36	O	0.225963	2.359488	1.155566
O37	O	-0.249173	1.453221	0.524080
O38	O	0.000827	1.703221	0.774080
O39	O	0.250827	1.953221	1.024080
O40	O	0.500827	2.203221	1.274080
O41	O	-0.405535	1.334675	0.249177
O42	O	-0.155535	1.584675	0.499177
O43	O	0.094465	1.834675	0.749177
O44	O	0.344465	2.084675	0.999177
O45	O	-0.405528	1.178303	0.405530
O46	O	-0.155528	1.428303	0.655530
O47	O	0.094472	1.678303	0.905530
O48	O	0.344472	1.928303	1.155530
O49	O	-0.524025	1.334636	0.680384
O50	O	-0.274025	1.584636	0.930384
O51	O	-0.024025	1.834636	1.180384
O52	O	0.225975	2.084636	1.430384
O53	O	-0.524012	1.178259	0.523989
O54	O	-0.274012	1.428259	0.773989
O55	O	-0.024012	1.678259	1.023989
O56	O	0.225988	1.928259	1.273989
O57	O	-0.405550	1.453163	0.680424
O58	O	-0.155550	1.703163	0.930424
O59	O	0.094450	1.953163	1.180424
O60	O	0.344450	2.203163	1.430424
O61	O	-0.680401	1.453054	0.405514
O62	O	-0.430401	1.703054	0.655514
O63	O	-0.180401	1.953054	0.905514
O64	O	0.069599	2.203054	1.155514
O65	O	-0.680396	1.334573	0.523980
O66	O	-0.430396	1.584573	0.773980
O67	O	-0.180396	1.834573	1.023980
O68	O	0.069604	2.084573	1.273980
C69	C	-0.464769	1.143282	0.464755
C70	C	-0.214769	1.393282	0.714755
C71	C	0.035231	1.643282	0.964755
C72	C	0.285231	1.893282	1.214755
C73	C	-0.464786	1.036068	0.464764
C74	C	-0.214786	1.286068	0.714764
C75	C	0.035214	1.536068	0.964764
C76	C	0.285214	1.786068	1.214764
C77	C	-0.464789	0.948998	0.464780
C78	C	-0.214789	1.198998	0.714780
C79	C	0.035211	1.448998	0.964780
C80	C	0.285211	1.698998	1.214780
C81	C	-0.464796	0.839766	0.464809
C82	C	-0.214796	1.089766	0.714809
C83	C	0.035204	1.339766	0.964809
C84	C	0.285204	1.589766	1.214809
C85	C	-0.715398	1.393826	0.464761
C86	C	-0.465398	1.643826	0.714761
C87	C	-0.215398	1.893826	0.964761
C88	C	0.034602	2.143826	1.214761
C89	C	-0.822612	1.393884	0.464781
C90	C	-0.572612	1.643884	0.714781
C91	C	-0.322612	1.893884	0.964781
C92	C	-0.072612	2.143884	1.214781
C93	C	-1.018907	1.393985	0.464842
C94	C	-0.768907	1.643985	0.714842
C95	C	-0.518907	1.893985	0.964842
C96	C	-0.268907	2.143985	1.214842
C97	C	-0.909674	1.393926	0.464811
C98	C	-0.659674	1.643926	0.714811
C99	C	-0.409674	1.893926	0.964811
C100	C	-0.159674	2.143926	1.214811
C101	C	-0.213191	1.393993	0.464838
C102	C	0.036809	1.643993	0.714838
C103	C	0.286809	1.893993	0.964838
C104	C	0.536809	2.143993	1.214838
C105	C	-0.105977	1.394035	0.464859
C106	C	0.144023	1.644035	0.714859
C107	C	0.394023	1.894035	0.964859
C108	C	0.644023	2.144035	1.214859
C109	C	-0.464788	1.393900	0.716382
C110	C	-0.214788	1.643900	0.966382
C111	C	0.035212	1.893900	1.216382
C112	C	0.285212	2.143900	1.466382
C113	C	-0.464789	1.393902	0.823596
C114	C	-0.214789	1.643902	1.073596
C115	C	0.035211	1.893902	1.323596
C116	C	0.285211	2.143902	1.573596
C117	C	-0.464799	1.645489	0.464823
C118	C	-0.214799	1.895489	0.714823
C119	C	0.035201	2.145489	0.964823
C120	C	0.285201	2.395489	1.214823
C121	C	-0.464806	1.752703	0.464838
C122	C	-0.214806	2.002703	0.714838
C123	C	0.035194	2.252703	0.964838
C124	C	0.285194	2.502703	1.214838
C125	C	-0.464794	1.393877	1.019891
C126	C	-0.214794	1.643877	1.269891
C127	C	0.035206	1.893877	1.519891
C128	C	0.285206	2.143877	1.769891
C129	C	-0.464794	1.393888	0.910658
C130	C	-0.214794	1.643888	1.160658
C131	C	0.035206	1.893888	1.410658
C132	C	0.285206	2.143888	1.660658
C133	C	-0.464799	1.393884	1.214175
C134	C	-0.214799	1.643884	1.464175
C135	C	0.035201	1.893884	1.714175
C136	C	0.285201	2.143884	1.964175
C137	C	-0.464791	1.393876	1.106961
C138	C	-0.214791	1.643876	1.356961
C139	C	0.035209	1.893876	1.606961
C140	C	0.285209	2.143876	1.856961
