data_functionalizedCrystal
_audit_creation_method	'MofGen! by Chris Wilmer'
_symmetry_space_group_name_H-M	'P1'
_symmetry_Int_Tables_number	1
_symmetry_cell_setting	triclinic
loop_
_symmetry_equiv_pos_as_xyz
  x,y,z
_cell_length_a	14.519709
_cell_length_b	16.109301
_cell_length_c	15.186229
_cell_angle_alpha	90.000638
_cell_angle_beta	89.995307
_cell_angle_gamma	96.429187
loop_
_atom_site_label
_atom_site_type_symbol
_atom_site_fract_x
_atom_site_fract_y
_atom_site_fract_z
O1	O	0.118540	-1.103336	-0.073175
O2	O	0.133292	-0.861299	-0.073189
O3	O	-0.008336	-0.988735	-0.073174
O4	O	0.260168	-0.975900	-0.073190
O5	O	-0.008338	-0.988726	0.073284
O6	O	0.133290	-0.861291	0.073268
O7	O	0.118538	-1.103327	0.073282
Zn8	Zn	0.125914	-0.982308	0.096529
Zn9	Zn	0.125916	-0.982319	-0.096435
O10	O	0.260166	-0.975892	0.073267
C11	C	0.132693	-0.830319	0.000038
C12	C	0.130902	-0.738021	0.000033
C13	C	-0.042696	-0.988132	0.000055
C14	C	-0.145073	-0.986340	0.000056
N15	N	0.125911	-0.982306	0.228221
C16	C	-0.519955	-0.979741	0.000032
C17	C	-0.415651	-0.981574	0.000039
C18	C	-0.332517	-0.983041	0.000045
C19	C	-0.228207	-0.984873	0.000050
C20	C	0.294526	-0.976494	0.000036
C21	C	0.396903	-0.978287	0.000030
C22	C	0.119136	-1.134307	0.000054
C23	C	0.120928	-1.226606	0.000053
C24	C	0.210775	-0.515887	0.000038
C25	C	0.209085	-0.429163	0.000044
C26	C	0.041048	-0.448747	0.000050
C27	C	0.042739	-0.535468	0.000051
C28	C	0.127606	-0.569036	0.000040
C29	C	0.124224	-0.395591	0.000045
C30	C	0.122390	-0.301562	0.000052
C31	C	0.129440	-0.663071	0.000036
N32	N	0.125911	-0.982327	-0.228128
C33	C	0.063219	-1.038754	0.453951
C34	C	0.063217	-1.038756	0.546141
C35	C	0.188606	-0.925873	0.546136
C36	C	0.188603	-0.925867	0.453948
C37	C	0.125911	-0.982312	0.407858
C38	C	0.125912	-0.982321	0.592236
C39	C	0.125910	-0.982323	0.692192
C40	C	0.125911	-0.982309	0.307895
H41	H	0.276810	-0.385892	0.000044
N42	N	0.252645	-0.868199	0.406873
N43	N	0.308618	-0.817810	0.448032
H44	H	0.353843	-0.777081	0.414786
H45	H	0.239650	-0.879918	0.583672
N46	N	0.297469	-0.550162	0.000046
N47	N	0.353527	-0.533916	0.061784
H48	H	0.414757	-0.558120	0.061794
N49	N	-0.045629	-0.414443	0.000061
N50	N	-0.047129	-0.337012	0.000060
H51	H	-0.108346	-0.312785	0.000066
N52	N	-0.000864	-1.096353	0.406855
N53	N	-0.086098	-1.095026	0.417165
H54	H	-0.131372	-1.135686	0.383895
N55	N	-0.000840	-1.096400	0.593215
N56	N	-0.086080	-1.095127	0.582913
H57	H	-0.131329	-1.135839	0.616155
H58	H	-0.024991	-0.578745	0.000055
