data_functionalizedCrystal
_audit_creation_method	'MofGen! by Chris Wilmer'
_symmetry_space_group_name_H-M	'P1'
_symmetry_Int_Tables_number	1
_symmetry_cell_setting	triclinic
loop_
_symmetry_equiv_pos_as_xyz
  x,y,z
_cell_length_a	10.654541
_cell_length_b	15.944551
_cell_length_c	9.730217
_cell_angle_alpha	89.995798
_cell_angle_beta	89.999932
_cell_angle_gamma	83.991333
loop_
_atom_site_label
_atom_site_type_symbol
_atom_site_fract_x
_atom_site_fract_y
_atom_site_fract_z
O1	O	1.666312	0.117965	-0.114251
O2	O	1.300688	0.129208	-0.114263
O3	O	1.493484	0.001369	-0.114245
O4	O	1.473516	0.245804	-0.114270
O5	O	1.493478	0.001368	0.114335
O6	O	1.300682	0.129206	0.114317
O7	O	1.666306	0.117964	0.114329
Zn8	Zn	1.483493	0.123585	0.150615
Zn9	Zn	1.483501	0.123587	-0.150549
O10	O	1.473510	0.245802	0.114310
C11	C	1.253897	0.128382	0.000025
C12	C	1.114486	0.125914	0.000021
C13	C	1.084537	0.278779	-0.000012
C14	C	1.004069	0.354048	-0.000034
C15	C	0.873081	0.351724	-0.000035
C16	C	0.822560	0.274122	-0.000010
C17	C	0.903028	0.198852	0.000012
C18	C	1.034017	0.201185	0.000009
C19	C	0.932976	0.045989	0.000055
C20	C	1.063965	0.048311	0.000046
C21	C	0.882455	-0.031613	0.000080
C22	C	0.962924	-0.106885	0.000092
C23	C	1.093919	-0.104557	0.000091
C24	C	1.144433	-0.026958	0.000068
C25	C	1.492652	-0.029930	0.000046
C26	C	1.490167	-0.123190	0.000046
C27	C	1.364722	-0.338772	0.000023
C28	C	1.422972	-0.399453	0.112729
C29	C	1.485671	-0.293942	0.000036
C30	C	1.423006	-0.399436	-0.112633
C31	C	1.481319	-0.458880	0.000019
C32	C	1.543954	-0.353395	0.112834
C33	C	1.543971	-0.353371	-0.112629
C34	C	1.602309	-0.414034	0.000104
C35	C	1.488175	-0.198925	0.000046
C36	C	1.478825	-0.553896	0.000019
C37	C	1.713097	0.118790	0.000037
C38	C	1.852508	0.121258	0.000033
C39	C	1.474342	0.277102	0.000017
C40	C	1.476827	0.370362	0.000007
N41	N	1.483497	0.123584	0.356151
N42	N	1.483507	0.123582	-0.356086
C43	C	1.654288	0.010416	0.356159
C44	C	1.739691	-0.046165	0.428102
C45	C	1.739704	-0.046166	0.571982
C46	C	1.654302	0.010420	0.643921
C47	C	1.568898	0.067001	0.571978
C48	C	1.568897	0.066997	0.428095
C49	C	1.398103	0.180163	0.571971
C50	C	1.398094	0.180169	0.428091
C51	C	1.312700	0.236748	0.643910
C52	C	1.227301	0.293335	0.571967
C53	C	1.227292	0.293334	0.428078
C54	C	1.312691	0.236750	0.356147
H55	H	0.775797	-0.033501	0.000086
H56	H	1.595065	-0.333109	0.208223
H57	H	1.371836	-0.419808	-0.207924
C58	C	1.229102	-0.294564	0.000148
H59	H	1.216107	-0.260712	-0.079973
H60	H	1.216698	-0.259949	0.079456
H61	H	1.170830	-0.335766	0.001013
H62	H	1.312696	0.236747	0.238993
H63	H	1.312709	0.236742	0.761065
C64	C	1.737993	-0.458132	0.000267
H65	H	1.751041	-0.492018	-0.079802
H66	H	1.750422	-0.492705	0.079628
H67	H	1.796212	-0.416897	0.001078
C68	C	0.784564	0.434517	-0.000068
H69	H	0.833407	0.481067	-0.000092
H70	H	0.732835	0.436792	0.079637
H71	H	0.732852	0.436775	-0.079795
C72	C	1.353866	-0.427024	0.241440
H73	H	1.269467	-0.401012	0.241302
H74	H	1.396017	-0.410498	0.321473
H75	H	1.353456	-0.486576	0.240930
C76	C	0.678477	0.271566	-0.000001
H77	H	0.637789	0.327507	-0.000021
H78	H	0.654376	0.242812	0.079716
H79	H	0.654373	0.242810	-0.079716
C80	C	1.833643	-0.108404	0.651123
H81	H	1.884507	-0.142102	0.587678
H82	H	1.788476	-0.143650	0.707262
H83	H	1.885918	-0.077852	0.707239
C84	C	1.654282	0.010424	0.197895
H85	H	1.591195	0.052230	0.165352
H86	H	1.637111	-0.043370	0.165345
H87	H	1.734544	0.022434	0.165350
H88	H	1.809224	-0.092238	0.369517
C89	C	1.654295	0.010411	0.802185
H90	H	1.591198	0.052208	0.834725
H91	H	1.734551	0.022405	0.834745
H92	H	1.637103	-0.043389	0.834724
C93	C	0.907349	-0.192235	0.000117
H94	H	0.817813	-0.182839	0.000111
H95	H	0.934971	-0.223259	0.079830
H96	H	0.934960	-0.223259	-0.079602
H97	H	1.595086	-0.332944	-0.207914
H98	H	1.045218	0.417231	-0.000051
C99	C	1.133372	0.355570	0.651099
H100	H	1.145613	0.347466	0.747092
H101	H	1.049563	0.345927	0.627524
H102	H	1.147014	0.411720	0.627519
C103	C	1.133348	0.355576	0.348951
H104	H	1.082500	0.389275	0.412406
H105	H	1.081077	0.325034	0.292826
H106	H	1.178520	0.390832	0.292822
H107	H	1.191193	0.280679	-0.000042
H108	H	1.159430	-0.165851	0.000114
H109	H	1.251088	-0.025055	0.000051
