data_functionalizedCrystal
_audit_creation_method	'MofGen! by Chris Wilmer'
_symmetry_space_group_name_H-M	'P1'
_symmetry_Int_Tables_number	1
_symmetry_cell_setting	triclinic
loop_
_symmetry_equiv_pos_as_xyz
  x,y,z
_cell_length_a	13.033855
_cell_length_b	13.033304
_cell_length_c	18.050582
_cell_angle_alpha	82.793347
_cell_angle_beta	97.195636
_cell_angle_gamma	90.900605
loop_
_atom_site_label
_atom_site_type_symbol
_atom_site_fract_x
_atom_site_fract_y
_atom_site_fract_z
Zn1	Zn	-0.210061	-1.624402	0.547871
Zn2	Zn	0.123273	-1.291069	0.881205
Zn3	Zn	0.456606	-0.957736	1.214538
Zn4	Zn	-0.382035	-1.646178	0.410149
Zn5	Zn	-0.048701	-1.312844	0.743482
Zn6	Zn	0.284632	-0.979511	1.076815
Zn7	Zn	-0.231889	-1.452428	0.406176
Zn8	Zn	0.101445	-1.119094	0.739510
Zn9	Zn	0.434778	-0.785761	1.072843
Zn10	Zn	-0.403797	-1.474247	0.516788
Zn11	Zn	-0.070464	-1.140914	0.850121
Zn12	Zn	0.262869	-0.807581	1.183454
O13	O	-0.306945	-1.549314	0.470246
O14	O	0.026388	-1.215980	0.803579
O15	O	0.359721	-0.882647	1.136913
O16	O	-0.214631	-1.771217	0.544273
O17	O	0.118703	-1.437883	0.877607
O18	O	0.452036	-1.104550	1.210940
O19	O	-0.362145	-1.620458	0.305693
O20	O	-0.028811	-1.287125	0.639026
O21	O	0.304522	-0.953791	0.972360
O22	O	-0.085077	-1.456996	0.436319
O23	O	0.248256	-1.123662	0.769652
O24	O	0.581590	-0.790329	1.102985
O25	O	-0.340979	-1.787215	0.443089
O26	O	-0.007646	-1.453881	0.776422
O27	O	0.325688	-1.120548	1.109756
O28	O	-0.069040	-1.583345	0.540422
O29	O	0.264293	-1.250012	0.873755
O30	O	0.597627	-0.916678	1.207088
O31	O	-0.251833	-1.478111	0.302775
O32	O	0.081500	-1.144777	0.636108
O33	O	0.414834	-0.811444	0.969441
O34	O	-0.272935	-1.311396	0.406178
O35	O	0.060398	-0.978063	0.739511
O36	O	0.393731	-0.644730	1.072845
O37	O	-0.378071	-1.494184	0.624840
O38	O	-0.044737	-1.160851	0.958173
O39	O	0.288596	-0.827517	1.291506
O40	O	-0.399236	-1.327427	0.487444
O41	O	-0.065903	-0.994094	0.820777
O42	O	0.267431	-0.660761	1.154111
O43	O	-0.235733	-1.604502	0.647677
O44	O	0.097600	-1.271169	0.981010
O45	O	0.430934	-0.937836	1.314344
O46	O	-0.528838	-1.641615	0.412948
O47	O	-0.195504	-1.308282	0.746282
O48	O	0.137829	-0.974949	1.079615
O49	O	-0.544827	-1.515299	0.491296
O50	O	-0.211493	-1.181966	0.824629
O51	O	0.121840	-0.848632	1.157962
C52	C	-0.340817	-1.282094	0.443007
C53	C	-0.007483	-0.948760	0.776341
C54	C	0.325850	-0.615427	1.109674
C55	C	-0.355332	-1.167779	0.431370
C56	C	-0.021998	-0.834446	0.764703
C57	C	0.311335	-0.501112	1.098037
C58	C	-0.299385	-1.108910	0.476308
C59	C	0.033948	-0.775577	0.809642
C60	C	0.367281	-0.442244	1.142975
C61	C	-0.314386	-0.990760	0.464282
C62	C	0.018948	-0.657426	0.797615
C63	C	0.352281	-0.324093	1.130948
C64	C	-0.574144	-1.583216	0.449199
C65	C	-0.240811	-1.249882	0.782532
C66	C	0.092522	-0.916549	1.115866
C67	C	-0.688441	-1.597813	0.440229
C68	C	-0.355108	-1.264480	0.773563
C69	C	-0.021775	-0.931147	1.106896
C70	C	-0.747350	-1.541776	0.474950
C71	C	-0.414017	-1.208442	0.808284
C72	C	-0.080683	-0.875109	1.141617
C73	C	-0.865482	-1.556861	0.465681
C74	C	-0.532149	-1.223528	0.799014
C75	C	-0.198815	-0.890195	1.132347
C76	C	-0.038699	-1.515307	0.491394
C77	C	0.294634	-1.181974	0.824728
C78	C	0.627967	-0.848641	1.158061
C79	C	0.075611	-1.500816	0.500407
C80	C	0.408944	-1.167483	0.833740
C81	C	0.742278	-0.834149	1.167073
C82	C	-0.306895	-1.549348	0.663959
C83	C	0.026439	-1.216015	0.997293
C84	C	0.359772	-0.882682	1.330626
C85	C	-0.306873	-1.549363	0.746508
C86	C	0.026460	-1.216030	1.079842
C87	C	0.359794	-0.882696	1.413175
C88	C	-0.272937	-0.817577	0.497587
C89	C	0.060396	-0.484243	0.830920
C90	C	0.393729	-0.150910	1.164254
C91	C	-0.258432	-0.931893	0.509226
C92	C	0.074902	-0.598559	0.842559
C93	C	0.408235	-0.265226	1.175893
C94	C	-0.306914	-1.549329	0.277298
C95	C	0.026419	-1.215996	0.610631
C96	C	0.359753	-0.882663	0.943965
C97	C	-0.306621	-1.549477	0.194793
C98	C	0.026713	-1.216144	0.528126
C99	C	0.360046	-0.882810	0.861459
C100	C	-0.384176	-1.489412	0.933553
C101	C	-0.050842	-1.156079	1.266887
C102	C	0.282491	-0.822746	1.600220
C103	C	-0.397412	-1.586447	0.990526
C104	C	-0.064079	-1.253114	1.323860
C105	C	0.269255	-0.919781	1.657193
C106	C	-0.306788	-1.549404	0.897650
C107	C	0.026545	-1.216070	1.230984
C108	C	0.359879	-0.882737	1.564317
C109	C	-0.293516	-1.452417	0.987767
C110	C	0.039817	-1.119083	1.321100
C111	C	0.373150	-0.785750	1.654433
C112	C	-0.306709	-1.549435	1.043645
C113	C	0.026624	-1.216102	1.376979
C114	C	0.359958	-0.882768	1.710312
C115	C	-0.320067	-1.646494	0.953537
C116	C	0.013266	-1.313161	1.286871
C117	C	0.346599	-0.979827	1.620204
C118	C	-0.216136	-1.512395	0.950770
C119	C	0.117197	-1.179061	1.284104
C120	C	0.450530	-0.845728	1.617437
C121	C	-0.229329	-1.609490	1.007730
C122	C	0.104004	-1.276156	1.341064
C123	C	0.437338	-0.942823	1.674397
C124	C	-0.306836	-1.549385	0.813546
C125	C	0.026497	-1.216051	1.146879
C126	C	0.359830	-0.882718	1.480213
C127	C	-0.306659	-1.549465	1.127749
C128	C	0.026674	-1.216131	1.461083
C129	C	0.360007	-0.882798	1.794416
H130	H	-0.373391	-0.953693	0.416900
H131	H	-0.040058	-0.620360	0.750234
H132	H	0.293276	-0.287027	1.083567
Br133	Br	-0.088460	-1.460150	0.921358
Br134	Br	0.244874	-1.126817	1.254692
Br135	Br	0.578207	-0.793484	1.588025
Br136	Br	-0.160068	-0.993659	0.588190
Br137	Br	0.173265	-0.660325	0.921524
Br138	Br	0.506599	-0.326992	1.254857
H139	H	-0.240378	-1.145980	0.523682
H140	H	0.092955	-0.812647	0.857016
H141	H	0.426288	-0.479314	1.190349
H142	H	-0.414333	-1.130708	0.383992
H143	H	-0.080999	-0.797375	0.717325
H144	H	0.252334	-0.464041	1.050659
Br145	Br	-0.493362	-1.404959	0.879948
Br146	Br	-0.160029	-1.071625	1.213281
Br147	Br	0.173305	-0.738292	1.546615
Br148	Br	-0.750138	-1.696387	0.379236
Br149	Br	-0.416804	-1.363053	0.712569
Br150	Br	-0.083471	-1.029720	1.045903
H151	H	-0.710330	-1.482627	0.511536
H152	H	-0.376997	-1.149293	0.844869
H153	H	-0.043664	-0.815960	1.178203
H154	H	-0.887372	-1.441663	0.536995
H155	H	-0.554039	-1.108330	0.870328
H156	H	-0.220706	-0.774997	1.203661
Br157	Br	-0.525127	-1.638656	1.019902
Br158	Br	-0.191793	-1.305323	1.353235
Br159	Br	0.141540	-0.971990	1.686569
Br160	Br	-0.274858	-1.315691	1.013245
Br161	Br	0.058475	-0.982357	1.346578
Br162	Br	0.391808	-0.649024	1.679912
Br163	Br	-0.927174	-1.655439	0.404685
Br164	Br	-0.593840	-1.322106	0.738018
Br165	Br	-0.260507	-0.988772	1.071352
Br166	Br	-0.338880	-1.783281	0.928212
Br167	Br	-0.005547	-1.449948	1.261545
Br168	Br	0.327787	-1.116615	1.594878
H169	H	-0.163842	-1.660303	1.039765
H170	H	0.169491	-1.326969	1.373098
H171	H	0.502824	-0.993636	1.706431
