data_functionalizedCrystal
_audit_creation_method	'MofGen! by Chris Wilmer'
_symmetry_space_group_name_H-M	'P1'
_symmetry_Int_Tables_number	1
_symmetry_cell_setting	triclinic
loop_
_symmetry_equiv_pos_as_xyz
  x,y,z
_cell_length_a	10.723024
_cell_length_b	10.723024
_cell_length_c	9.198806
_cell_angle_alpha	89.997988
_cell_angle_beta	90.004274
_cell_angle_gamma	95.532131
loop_
_atom_site_label
_atom_site_type_symbol
_atom_site_fract_x
_atom_site_fract_y
_atom_site_fract_z
O1	O	-1.657188	0.175024	-0.120900
O2	O	-1.294035	0.191778	-0.120900
O3	O	-1.483988	0.001825	-0.120895
O4	O	-1.467235	0.364977	-0.120906
O5	O	-1.483973	0.001824	0.120890
O6	O	-1.294020	0.191777	0.120885
O7	O	-1.657173	0.175024	0.120885
Cu8	Cu	-1.475595	0.183401	0.142962
Cu9	Cu	-1.475613	0.183401	-0.142977
O10	O	-1.467220	0.364977	0.120880
C11	C	-1.247528	0.190558	-0.000008
C12	C	-1.108974	0.186911	-0.000008
C13	C	-1.482762	-0.044675	-0.000004
C14	C	-1.479114	-0.183229	-0.000009
C15	C	-1.033991	0.293198	-0.000011
C16	C	-0.890788	0.289431	-0.000011
C17	C	-1.365807	-0.374986	-0.000017
C18	C	-1.369574	-0.231783	-0.000012
C19	C	-0.703680	0.176243	-0.000008
C20	C	-0.842234	0.179891	-0.000008
C21	C	-1.468447	0.411477	-0.000014
C22	C	-1.472094	0.550031	-0.000019
N23	N	-1.475592	0.183399	0.344076
N24	N	-1.475626	0.183393	-0.344091
C25	C	-1.555347	0.103292	0.416275
C26	C	-1.555367	0.103288	0.583687
H27	H	-1.075814	0.386984	-0.000006
H28	H	-1.623611	0.034707	0.354151
H29	H	-0.826355	0.380421	-0.000019
H30	H	-1.278584	-0.167350	-0.000000
H31	H	-1.623653	0.034709	0.645776
C32	C	-1.598799	-0.393490	-0.000017
H33	H	-1.664994	-0.459103	-0.000028
H34	H	-1.604786	-0.343270	0.084298
H35	H	-1.604794	-0.343269	-0.084344
C36	C	-1.383376	0.276054	0.572059
H37	H	-1.333357	0.326316	0.639088
H38	H	-1.330951	0.230803	0.512690
H39	H	-1.428917	0.328230	0.512676
C40	C	-0.929255	0.056957	-0.000011
H41	H	-0.880215	-0.012255	-0.000021
H42	H	-0.980616	0.053633	0.084300
H43	H	-0.980614	0.053643	-0.084343
C44	C	-1.239105	-0.431472	-0.000016
H45	H	-1.253195	-0.520311	-0.000008
H46	H	-1.192979	-0.404477	-0.084327
H47	H	-1.192980	-0.404487	0.084315
H48	H	-1.067152	0.093125	-0.000041
H49	H	-1.570109	-0.247654	-0.000004
H50	H	-1.407319	0.251975	0.406202
