data_functionalizedCrystal
_audit_creation_method	'MofGen! by Chris Wilmer'
_symmetry_space_group_name_H-M	'P1'
_symmetry_Int_Tables_number	1
_symmetry_cell_setting	triclinic
loop_
_symmetry_equiv_pos_as_xyz
  x,y,z
_cell_length_a	12.759394
_cell_length_b	13.032831
_cell_length_c	13.033109
_cell_angle_alpha	76.665514
_cell_angle_beta	97.153824
_cell_angle_gamma	82.819699
loop_
_atom_site_label
_atom_site_type_symbol
_atom_site_fract_x
_atom_site_fract_y
_atom_site_fract_z
Zn1	Zn	-0.738596	1.700152	-0.806419
Zn2	Zn	-0.888729	1.677492	-0.628805
Zn3	Zn	-0.687494	1.499974	-0.606312
Zn4	Zn	-0.888636	1.522507	-0.783849
O5	O	-0.800864	1.600031	-0.706346
O6	O	-0.779936	1.845783	-0.801718
O7	O	-0.840687	1.635030	-0.477189
O8	O	-0.547263	1.526581	-0.632889
O9	O	-0.890238	1.829135	-0.671225
O10	O	-0.584807	1.673651	-0.779907
O11	O	-0.692841	1.504608	-0.460663
O12	O	-0.692751	1.354325	-0.611003
O13	O	-0.890081	1.564985	-0.935475
O14	O	-0.840530	1.370880	-0.741439
O15	O	-0.779846	1.695501	-0.952057
O16	O	-1.035727	1.656879	-0.649339
O17	O	-1.035659	1.543013	-0.763249
C18	C	-0.761086	1.324063	-0.671332
C19	C	-0.744098	1.206006	-0.656377
C20	C	-0.809730	1.161579	-0.714151
C21	C	-0.792174	1.039561	-0.698696
C22	C	-1.073818	1.599964	-0.706312
C23	C	-1.190609	1.600037	-0.706346
C24	C	-1.190655	1.718721	-0.587846
C25	C	-1.245545	1.778093	-0.528612
C26	C	-1.355280	1.778159	-0.528649
C27	C	-1.410128	1.718849	-0.587928
C28	C	-1.355238	1.659478	-0.647162
C29	C	-1.245500	1.659416	-0.647116
C30	C	-1.355193	1.540801	-0.765667
C31	C	-1.245457	1.540728	-0.765625
C32	C	-1.410041	1.481492	-0.824946
C33	C	-1.355149	1.422113	-0.884176
C34	C	-1.245408	1.422048	-0.884136
C35	C	-1.190567	1.481356	-0.824859
C36	C	-0.526851	1.600130	-0.706407
C37	C	-0.410083	1.600172	-0.706433
C38	C	-0.840653	1.635284	-0.983382
C39	C	-0.857609	1.650307	-1.101439
C40	C	-0.840798	1.877077	-0.741498
C41	C	-0.857815	1.995137	-0.756478
C42	C	-0.792017	1.592474	-1.145895
C43	C	-0.809541	1.608000	-1.267913
C44	C	-0.761162	1.564976	-0.430395
C45	C	-0.743940	1.550159	-0.312366
H46	H	-0.674906	1.153709	-0.595479
O47	O	-0.940390	1.057361	-0.829221
C48	C	-0.998022	0.992357	-0.879915
H49	H	-0.944232	0.913742	-0.873719
H50	H	-1.070464	0.975614	-0.839397
C51	C	-1.101843	1.146718	-1.006003
C52	C	-1.035775	1.050165	-0.998401
H53	H	-1.125136	1.182378	-1.079089
H54	H	-1.063019	1.190514	-0.971847
H55	H	-1.162204	1.132752	-0.972231
H56	H	-0.975409	1.064133	-1.032160
H57	H	-1.074590	1.006373	-1.032565
H58	H	-0.926739	1.711312	-1.153710
O59	O	-0.709645	1.519544	-1.083571
C60	C	-0.721186	1.417092	-1.097182
H61	H	-0.808697	1.415564	-1.127051
H62	H	-0.670026	1.397470	-1.157970
C63	C	-0.577208	1.335626	-0.952902
C64	C	-0.684692	1.333746	-0.989579
H65	H	-0.554693	1.284213	-0.886530
H66	H	-0.569429	1.404649	-0.943734
H67	H	-0.534588	1.319277	-1.003568
H68	H	-0.727311	1.350108	-0.938920
H69	H	-0.692478	1.264723	-0.998737
H70	H	-0.674808	1.489146	-1.260099
H71	H	-0.878915	1.213877	-0.775058
O72	O	-1.192094	1.835606	-0.471050
C73	C	-1.083473	1.822842	-0.483734
H74	H	-1.061709	1.745257	-0.508053
H75	H	-1.069457	1.892990	-0.548317
C76	C	-1.039888	1.914234	-0.347628
C77	C	-1.013154	1.818938	-0.377489
H78	H	-0.996510	1.911831	-0.282093
H79	H	-1.113068	1.922838	-0.339085
H80	H	-1.028207	1.972681	-0.401456
H81	H	-1.024847	1.760495	-0.323668
H82	H	-0.939974	1.810325	-0.386021
O83	O	-1.408434	1.835852	-0.471015
C84	C	-1.336507	1.888212	-0.418710
H85	H	-1.251517	1.844196	-0.409450
H86	H	-1.341971	1.973804	-0.467892
C87	C	-1.469750	1.943302	-0.319022
C88	C	-1.365364	1.889236	-0.307641
H89	H	-1.487552	1.943939	-0.250511
H90	H	-1.518210	1.908030	-0.354264
H91	H	-1.474291	2.014624	-0.360011
H92	H	-1.360828	1.817913	-0.266665
H93	H	-1.316903	1.924496	-0.272390
H94	H	-1.101300	1.718658	-0.587794
O95	O	-1.516716	1.719000	-0.587818
C96	C	-1.553409	1.784149	-0.522855
H97	H	-1.483428	1.791135	-0.462676
H98	H	-1.590003	1.866947	-0.574861
C99	C	-1.724543	1.725452	-0.536847
C100	C	-1.638593	1.734024	-0.462928
H101	H	-1.777092	1.694537	-0.499884
H102	H	-1.699825	1.681563	-0.580617
H103	H	-1.755025	1.794455	-0.580179
H104	H	-1.608105	1.665022	-0.419607
H105	H	-1.663309	1.777901	-0.419149
H106	H	-0.722977	0.987267	-0.637793
O107	O	-1.408282	1.364354	-0.941685
C108	C	-1.362998	1.255522	-0.904938
H109	H	-1.277166	1.248097	-0.863797
H110	H	-1.411825	1.212877	-0.845798
C111	C	-1.468938	1.213394	-1.050793
C112	C	-1.363515	1.204275	-1.000270
H113	H	-1.469261	1.181780	-1.109596
H114	H	-1.499451	1.286715	-1.075548
H115	H	-1.509616	1.177857	-1.001498
H116	H	-1.322843	1.239822	-1.049560
H117	H	-1.332996	1.130958	-0.975525
H118	H	-1.200723	1.373705	-0.932376
H119	H	-1.499394	1.481555	-0.824977
H120	H	-0.878675	1.669009	-1.320181
H121	H	-1.101213	1.481302	-0.824813
