data_functionalizedCrystal
_audit_creation_method	'MofGen! by Chris Wilmer'
_symmetry_space_group_name_H-M	'P1'
_symmetry_Int_Tables_number	1
_symmetry_cell_setting	triclinic
loop_
_symmetry_equiv_pos_as_xyz
  x,y,z
_cell_length_a	14.853567
_cell_length_b	10.489741
_cell_length_c	8.965430
_cell_angle_alpha	89.992413
_cell_angle_beta	89.999769
_cell_angle_gamma	84.087052
loop_
_atom_site_label
_atom_site_type_symbol
_atom_site_fract_x
_atom_site_fract_y
_atom_site_fract_z
O1	O	1.197296	0.166535	-0.123936
O2	O	0.934948	0.186372	-0.123961
O3	O	1.072092	-0.009211	-0.123939
O4	O	1.060153	0.362119	-0.123958
O5	O	1.072084	-0.009229	0.124140
O6	O	0.934940	0.186354	0.124118
O7	O	1.197289	0.166517	0.124143
Cu8	Cu	1.066114	0.176434	0.146782
Cu9	Cu	1.066123	0.176455	-0.146600
O10	O	1.060145	0.362100	0.124121
C11	C	0.901351	0.185464	0.000075
C12	C	0.801252	0.182771	0.000066
C13	C	0.388003	0.055204	0.000106
C14	C	0.368025	0.287562	0.000092
C15	C	0.462072	0.290094	0.000087
C16	C	0.519090	0.175180	0.000089
C17	C	0.482060	0.057733	0.000096
C18	C	0.499110	0.407539	0.000065
C19	C	0.593163	0.410077	0.000059
C20	C	0.650183	0.295161	0.000071
C21	C	0.613147	0.177709	0.000080
C22	C	0.670164	0.062795	0.000082
C23	C	0.633130	-0.054658	0.000101
C24	C	0.539079	-0.057183	0.000109
C25	C	0.744234	0.297685	0.000064
C26	C	0.764221	0.065324	0.000073
C27	C	1.071186	-0.056742	0.000100
C28	C	1.068488	-0.198341	0.000097
C29	C	0.981228	-0.265502	0.000077
C30	C	1.022445	-0.358096	0.122397
C31	C	1.022473	-0.358053	-0.122189
C32	C	1.109742	-0.289070	0.122517
C33	C	1.109758	-0.289017	-0.122179
C34	C	1.151038	-0.381585	0.000171
C35	C	1.230886	0.167425	0.000104
C36	C	1.330985	0.170118	0.000104
C37	C	1.061051	0.409631	0.000079
C38	C	1.063748	0.551230	0.000073
N39	N	1.066114	0.176418	0.353131
N40	N	1.066130	0.176461	-0.352949
C41	C	1.129042	0.085265	0.549812
C42	C	1.148007	0.200200	0.450331
C43	C	1.047189	0.061492	0.450404
C44	C	1.085136	0.291454	0.549759
C45	C	0.984282	0.152671	0.549841
C46	C	1.003214	0.267689	0.450405
H47	H	0.452680	0.501096	0.000048
H48	H	1.101224	0.388687	0.593220
C49	C	0.784974	0.426863	0.000038
H50	H	0.849153	0.411913	0.000025
H51	H	0.765456	0.474187	0.086539
H52	H	0.765454	0.474179	-0.086493
H53	H	1.031175	-0.035717	0.406759
H54	H	0.508917	-0.152807	0.000160
H55	H	0.357845	-0.040424	0.000127
C56	C	0.633893	0.539266	0.000058
H57	H	0.586465	0.607341	0.000070
H58	H	0.670170	0.545097	-0.086448
H59	H	0.670164	0.545070	0.086584
H60	H	1.217216	0.220312	0.406621
H61	H	0.321596	0.381119	0.000078
C62	C	1.200966	-0.018771	0.608791
H63	H	1.259082	-0.001666	0.574717
H64	H	1.188088	-0.100270	0.573315
H65	H	1.200112	-0.018538	0.714745
C66	C	0.972566	-0.399450	0.262084
H67	H	0.912236	-0.359310	0.261933
H68	H	1.002985	-0.374679	0.348946
H69	H	0.971689	-0.489877	0.261528
C70	C	1.159564	-0.247998	0.262382
H71	H	1.160946	-0.157655	0.261565
H72	H	1.219707	-0.288788	0.262748
H73	H	1.128759	-0.272192	0.349129
H74	H	1.222848	-0.431815	0.000246
H75	H	0.985544	-0.388594	-0.225611
H76	H	0.909483	-0.215045	0.000194
H77	H	0.950002	0.344876	0.407034
C78	C	1.159595	-0.247613	-0.261873
H79	H	1.128509	-0.270957	-0.348705
H80	H	1.219578	-0.288959	-0.262748
H81	H	1.161423	-0.157360	-0.260365
C82	C	0.890816	0.125461	0.608947
H83	H	0.865743	0.196012	0.667211
H84	H	0.897191	0.050328	0.668779
H85	H	0.851844	0.113269	0.527305
C86	C	0.826934	-0.061085	0.000067
H87	H	0.791405	-0.131390	0.000067
H88	H	0.864048	-0.064938	0.086567
H89	H	0.864028	-0.064919	-0.086465
C90	C	0.695851	-0.181059	0.000090
H91	H	0.660330	-0.251373	0.000091
H92	H	0.732968	-0.184907	0.086588
H93	H	0.732943	-0.184884	-0.086444
