data_functionalizedCrystal
_audit_creation_method	'MofGen! by Chris Wilmer'
_symmetry_space_group_name_H-M	'P1'
_symmetry_Int_Tables_number	1
_symmetry_cell_setting	triclinic
loop_
_symmetry_equiv_pos_as_xyz
  x,y,z
_cell_length_a	20.919309
_cell_length_b	20.875641
_cell_length_c	20.875641
_cell_angle_alpha	60.089808
_cell_angle_beta	90.163804
_cell_angle_gamma	59.943851
loop_
_atom_site_label
_atom_site_type_symbol
_atom_site_fract_x
_atom_site_fract_y
_atom_site_fract_z
Zr1	Zr	0.669315	0.644057	-0.078792
O2	O	0.572116	0.777601	-0.185974
O3	O	0.695475	0.510837	-0.042806
O4	O	0.705243	0.634126	-0.175885
O5	O	0.558780	0.662033	0.048519
O6	O	0.814392	0.625925	-0.171485
O7	O	0.562348	0.654311	-0.052896
O8	O	0.796919	0.405383	0.066568
O9	O	0.576253	0.882575	-0.189534
O10	O	0.792483	0.559392	-0.027956
O11	O	0.708363	0.571275	0.044446
O12	O	0.719863	0.716433	-0.112237
O13	O	0.635743	0.728315	-0.039835
Zr14	Zr	0.837705	0.643292	0.089970
Zr15	Zr	0.843396	0.630978	-0.071776
Zr16	Zr	0.663624	0.656372	0.082953
Zr17	Zr	0.675913	0.811479	-0.084469
Zr18	Zr	0.831107	0.475871	0.095647
O19	O	0.811545	0.776513	0.053984
O20	O	0.819637	0.759003	-0.175997
O21	O	0.564025	0.795111	0.044007
O22	O	0.934904	0.509749	0.197152
O23	O	0.942995	0.492239	-0.032830
O24	O	0.687384	0.528347	0.187175
O25	O	0.948240	0.625317	-0.037342
O26	O	0.801777	0.653224	0.187063
O27	O	0.692628	0.661425	0.182663
O28	O	0.944672	0.633038	0.064074
O29	O	0.714624	0.872178	-0.183956
O30	O	0.792396	0.415171	0.195134
O31	O	0.930767	0.404775	0.200711
O32	O	0.935290	0.394986	0.072145
O33	O	0.571730	0.892364	-0.060967
O34	O	0.710101	0.881967	-0.055390
O35	O	0.787157	0.570917	0.123414
O36	O	0.871277	0.559034	0.051013
O37	O	0.798657	0.716075	-0.033268
O38	O	0.714537	0.727957	0.039134
C39	C	0.745257	0.434256	0.012689
C40	C	0.742456	0.363181	0.015099
C41	C	0.785048	0.323587	-0.021562
C42	C	0.782418	0.256800	-0.019290
C43	C	0.737191	0.229613	0.019638
C44	C	0.694598	0.269210	0.056304
C45	C	0.697233	0.335991	0.054037
C46	C	0.724606	0.030547	0.030477
C47	C	0.721972	-0.036237	0.032739
C48	C	0.809793	-0.048643	-0.042854
C49	C	0.812421	0.018143	-0.045122
C50	C	0.769831	0.057731	-0.008452
N51	N	0.734500	0.161348	0.021959
N52	N	0.772527	0.125990	-0.010769
C53	C	0.535761	0.660036	-0.003188
C54	C	0.461860	0.665588	-0.006167
C55	C	0.465045	0.586226	0.036424
C56	C	0.395604	0.591448	0.033623
C57	C	0.322978	0.676034	-0.011773
C58	C	0.319795	0.755403	-0.054365
C59	C	0.389235	0.750180	-0.051559
C60	C	0.111417	0.695907	-0.022441
C61	C	0.041975	0.701124	-0.025246
C62	C	0.117789	0.537169	0.062743
C63	C	0.187227	0.531952	0.065541
C64	C	0.184038	0.611321	0.022953
C65	C	0.251997	0.681375	-0.014639
C66	C	0.255018	0.605981	0.025824
C67	C	0.971259	0.627314	0.014366
C68	C	1.045160	0.621761	0.017345
C69	C	0.760628	0.628271	-0.196730
C70	C	0.763044	0.623043	-0.265396
C71	C	0.761763	0.853094	-0.001512
C72	C	0.764564	0.924169	-0.003921
C73	C	0.726273	0.702558	-0.341648
C74	C	0.728554	0.697640	-0.406164
C75	C	0.767600	0.613206	-0.394424
C76	C	0.804375	0.533685	-0.318164
C77	C	0.802099	0.538603	-0.253650
C78	C	0.778476	0.589705	-0.582652
C79	C	0.780747	0.584792	-0.647174
C80	C	0.704926	0.748748	-0.735169
C81	C	0.702650	0.753659	-0.670650
C82	C	0.739428	0.674138	-0.594395
N83	N	0.769929	0.608177	-0.460368
N84	N	0.737103	0.679167	-0.528453
C85	C	0.746392	0.659079	0.207908
C86	C	0.743976	0.664307	0.276574
C87	C	0.963006	0.417895	0.021466
C88	C	1.034107	0.341267	0.026855
C89	C	0.738139	0.449660	0.215009
C90	C	0.732922	0.383813	0.286084
C91	C	0.955888	0.433299	0.223786
C92	C	1.024573	0.361899	0.297840
C93	C	0.551132	0.854051	-0.212608
C94	C	0.482447	0.925451	-0.286662
C95	C	0.544014	0.869455	-0.010288
C96	C	0.472913	0.946083	-0.015677
C97	C	0.768881	0.837690	-0.203831
C98	C	0.774098	0.903537	-0.274906
C99	C	1.026367	0.305468	-0.011842
C100	C	1.093168	0.233477	-0.006794
C101	C	1.167708	0.197282	0.036955
C102	C	1.175446	0.233087	0.075653
C103	C	1.108646	0.305082	0.070600
C104	C	0.771602	0.352704	0.360689
C105	C	0.766697	0.290844	0.427477
C106	C	0.723117	0.260089	0.419659
C107	C	0.684433	0.291204	0.345046
C108	C	0.689333	0.353068	0.278259
C109	C	1.100745	0.322166	0.294823
C110	C	1.165289	0.255087	0.364399
C111	C	1.153659	0.227737	0.436990
C112	C	1.077479	0.267478	0.440004
C113	C	1.012937	0.334560	0.370429
C114	C	0.406275	0.965192	-0.283646
C115	C	0.341732	1.032292	-0.353222
C116	C	0.353362	1.059645	-0.425813
C117	C	0.429542	1.019900	-0.428827
C118	C	0.494084	0.952806	-0.359252
C119	C	0.480654	0.981888	0.023013
C120	C	0.413854	1.053896	0.017947
C121	C	0.339314	1.090094	-0.025805
C122	C	0.331576	1.054285	-0.064500
C123	C	0.398375	0.982282	-0.059438
C124	C	0.817685	0.934272	-0.267063
C125	C	0.822602	0.996133	-0.333838
C126	C	0.783927	1.027262	-0.408457
C127	C	0.740338	0.996520	-0.416298
C128	C	0.735427	0.934656	-0.349523
H129	H	0.849248	0.040277	-0.076820
F130	F	1.222359	0.156340	0.511032
H131	H	0.719133	0.209715	0.474048
F132	F	0.648166	0.386165	0.198861
H133	H	0.807089	0.377738	0.367070
F134	F	0.260663	1.074577	-0.349997
F135	F	0.841243	0.453972	-0.172494
F136	F	0.393880	0.936092	-0.206396
H137	H	0.698613	0.762389	-0.468250
F138	F	1.065114	0.238361	0.517267
F139	F	1.246358	0.212800	0.361174
F140	F	0.108013	0.780379	-0.067770
F141	F	0.673832	-0.065168	0.074172
F142	F	0.858852	0.901153	-0.187654
H143	H	0.398204	0.526823	0.068306
H144	H	0.950916	0.366903	0.372896
F145	F	0.284663	1.131054	-0.499855
H146	H	0.439002	1.042179	-0.487939
F147	F	0.422106	1.091991	0.059137
H148	H	0.821872	0.345722	-0.053265
F149	F	0.638054	0.258462	0.336738
F150	F	1.113140	0.351264	0.217574
F151	F	1.254783	0.194554	0.122214
F152	F	0.868991	1.028844	-0.325476
F153	F	0.575151	0.910511	-0.362473
F154	F	0.268227	1.166726	-0.031184
H155	H	0.808424	0.524953	-0.520570
F156	F	0.827736	0.214678	-0.058324
F157	F	0.559979	0.943379	0.069579
H158	H	0.270877	1.083768	-0.100122
F159	F	0.689027	0.901959	-0.357883
F160	F	0.684713	0.792425	-0.354151
H161	H	0.787933	1.077636	-0.462823
H162	H	0.965679	0.334937	-0.047477
H163	H	0.392062	0.953132	-0.090942
F164	F	0.822308	0.494922	-0.634674
H165	H	0.844469	-0.080883	-0.072707
F166	F	1.116895	0.343169	0.111795
H167	H	0.836172	0.464936	-0.308610
F168	F	0.807875	0.257738	0.506879
F169	F	0.264519	0.441924	0.113858
H170	H	0.662548	0.368230	0.083888
H171	H	0.708851	1.021875	-0.477062
F172	F	-0.035322	0.791156	-0.073571
F173	F	0.121176	0.452705	0.108068
F174	F	0.646475	0.240262	0.097746
F175	F	0.679281	0.072668	0.069507
H176	H	0.260656	0.824276	-0.091323
F177	F	0.542336	0.496196	0.084736
H178	H	0.314152	0.537111	0.062788
F179	F	0.385842	0.834649	-0.096887
F180	F	0.661062	0.843527	-0.683153
F181	F	0.174699	0.771395	-0.062952
F182	F	0.665787	0.833374	-0.816327
H183	H	1.086852	0.204333	-0.038308
F184	F	1.238796	0.120657	0.042326
