data_functionalizedCrystal
_audit_creation_method	'MofGen! by Chris Wilmer'
_symmetry_space_group_name_H-M	'P1'
_symmetry_Int_Tables_number	1
_symmetry_cell_setting	triclinic
loop_
_symmetry_equiv_pos_as_xyz
  x,y,z
_cell_length_a	14.971506
_cell_length_b	15.995292
_cell_length_c	13.448316
_cell_angle_alpha	89.996588
_cell_angle_beta	89.992937
_cell_angle_gamma	83.545502
loop_
_atom_site_label
_atom_site_type_symbol
_atom_site_fract_x
_atom_site_fract_y
_atom_site_fract_z
O1	O	1.186787	0.109200	-0.082692
O2	O	1.686787	0.609200	0.417308
O3	O	0.926372	0.122250	-0.082691
O4	O	1.426372	0.622250	0.417309
O5	O	1.063725	-0.006159	-0.082693
O6	O	1.563725	0.493841	0.417307
O7	O	1.049434	0.237608	-0.082690
O8	O	1.549434	0.737608	0.417310
O9	O	1.063708	-0.006166	0.082691
O10	O	1.563708	0.493834	0.582691
O11	O	0.926354	0.122242	0.082693
O12	O	1.426354	0.622242	0.582693
O13	O	1.186770	0.109192	0.082692
O14	O	1.686770	0.609192	0.582692
Cu15	Cu	1.056561	0.115716	0.097793
Cu16	Cu	1.556561	0.615716	0.597793
Cu17	Cu	1.056581	0.115726	-0.097792
Cu18	Cu	1.556581	0.615726	0.402208
O19	O	1.049416	0.237600	0.082694
O20	O	1.549416	0.737600	0.582694
C21	C	0.893039	0.121659	0.000001
C22	C	1.393039	0.621659	0.500001
C23	C	0.793746	0.119901	0.000000
C24	C	1.293746	0.619901	0.500000
C25	C	0.355369	0.188630	-0.000009
C26	C	0.855369	0.688630	0.499991
C27	C	0.448667	0.190275	-0.000013
C28	C	0.948667	0.690275	0.499987
C29	C	0.505990	0.114830	-0.000010
C30	C	1.005990	0.614830	0.499990
C31	C	0.470011	0.037735	-0.000012
C32	C	0.970011	0.537735	0.499988
C33	C	0.376715	0.036091	-0.000015
C34	C	0.876715	0.536091	0.499985
C35	C	0.664469	0.041168	-0.000004
C36	C	1.164469	0.541168	0.499996
C37	C	0.757772	0.042812	0.000001
C38	C	1.257772	0.542812	0.500001
C39	C	0.736422	0.195352	-0.000002
C40	C	1.236422	0.695352	0.499998
C41	C	0.643126	0.193708	-0.000005
C42	C	1.143126	0.693708	0.499995
C43	C	0.607153	0.116612	-0.000005
C44	C	1.107153	0.616612	0.499995
C45	C	1.063135	-0.037359	-0.000004
C46	C	1.563135	0.462641	0.499996
C47	C	1.061391	-0.130314	-0.000011
C48	C	1.561391	0.369686	0.499989
C49	C	1.054980	-0.468059	-0.000002
C50	C	1.554980	0.031941	0.499998
C51	C	1.154118	-0.444641	0.000367
C52	C	1.654118	0.055359	0.500367
C53	C	1.156003	-0.347963	-0.000009
C54	C	1.656003	0.152037	0.499991
C55	C	1.058161	-0.300499	-0.000006
C56	C	1.558161	0.199501	0.499994
C57	C	1.008607	-0.329649	-0.094445
C58	C	1.508607	0.170351	0.405555
C59	C	1.007413	-0.426441	-0.094520
C60	C	1.507413	0.073559	0.405480
C61	C	1.005369	-0.426309	0.093552
C62	C	1.505369	0.073691	0.593552
C63	C	1.009043	-0.329813	0.094796
C64	C	1.509043	0.170187	0.594796
C65	C	1.059954	-0.205801	-0.000011
C66	C	1.559954	0.294199	0.499989
C67	C	1.053185	-0.562757	-0.000003
C68	C	1.553185	-0.062757	0.499997
C69	C	1.220102	0.109783	-0.000002
C70	C	1.720102	0.609783	0.499998
C71	C	1.319396	0.111541	-0.000008
C72	C	1.819396	0.611541	0.499992
C73	C	1.050007	0.268800	0.000002
C74	C	1.550007	0.768800	0.500002
C75	C	1.051751	0.361755	0.000003
C76	C	1.551751	0.861755	0.500003
N77	N	1.056553	0.115709	0.235358
N78	N	1.556553	0.615709	0.735358
N79	N	1.056596	0.115726	-0.235357
N80	N	1.556596	0.615726	0.264643
C81	C	1.117392	0.058873	0.287397
C82	C	1.617392	0.558873	0.787397
C83	C	1.117397	0.058873	0.391500
C84	C	1.617397	0.558873	0.891500
C85	C	1.056568	0.115712	0.443562
C86	C	1.556568	0.615712	0.943562
C87	C	0.995722	0.172551	0.391515
C88	C	1.495722	0.672551	0.891515
C89	C	0.995713	0.172547	0.287414
C90	C	1.495713	0.672547	0.787414
C91	C	0.995747	0.172556	0.608495
C92	C	1.495747	0.672556	1.108495
C93	C	0.995757	0.172562	0.712604
C94	C	1.495757	0.672562	1.212604
C95	C	1.117431	0.058882	0.712582
C96	C	1.617431	0.558882	1.212582
C97	C	1.117422	0.058878	0.608480
C98	C	1.617422	0.558878	1.108480
C99	C	1.056578	0.115718	0.556441
C100	C	1.556578	0.615718	1.056441
H101	H	0.347427	-0.026683	-0.000016
H102	H	0.847427	0.473317	0.499984
H103	H	0.937628	-0.296920	0.100502
H104	H	1.437628	0.203080	0.600502
H105	H	0.308703	0.250066	-0.000004
H106	H	0.808703	0.750066	0.499996
H107	H	1.166936	0.012592	0.433871
H108	H	1.666936	0.512592	0.933871
O109	O	1.183026	-0.002428	0.552321
O110	O	1.683026	0.497572	1.052321
H111	H	1.225330	-0.041958	0.605995
H112	H	1.725330	0.458042	1.105995
H113	H	0.477952	0.253048	-0.000023
H114	H	0.977952	0.753048	0.499977
H115	H	0.635184	-0.021611	-0.000009
H116	H	1.135184	0.478389	0.499991
O117	O	0.908713	-0.444956	0.094412
O118	O	1.408713	0.055044	0.594412
H119	H	0.874540	-0.419225	0.025933
H120	H	1.374540	0.080775	0.525933
O121	O	1.046494	-0.463694	0.188373
O122	O	1.546494	0.036306	0.688373
H123	H	1.072201	-0.413373	0.233372
H124	H	1.572201	0.086627	0.733372
O125	O	1.183053	-0.002432	0.768701
O126	O	1.683053	0.497568	1.268701
H127	H	1.172834	0.007109	0.849835
H128	H	1.672834	0.507109	1.349835
H129	H	0.516691	-0.023693	-0.000015
H130	H	1.016691	0.476307	0.499985
O131	O	1.054152	-0.303167	-0.187648
O132	O	1.554152	0.196833	0.312352
H133	H	1.078153	-0.359803	-0.231973
H134	H	1.578153	0.140197	0.268027
H135	H	0.596455	0.255141	-0.000001
H136	H	1.096455	0.755141	0.499999
O137	O	0.930124	0.233853	0.552350
O138	O	1.430124	0.733853	1.052350
H139	H	0.941506	0.299151	0.572302
H140	H	1.441506	0.799151	1.072302
H141	H	1.166930	0.012591	0.245015
H142	H	1.666930	0.512591	0.745015
O143	O	0.775212	0.278508	-0.000012
O144	O	1.275212	0.778508	0.499988
H145	H	0.849717	0.266980	-0.000023
H146	H	1.349717	0.766980	0.499977
O147	O	0.930078	0.233838	0.231286
O148	O	1.430078	0.733838	0.731286
H149	H	0.940278	0.224275	0.150152
H150	H	1.440278	0.724275	0.650152
O151	O	0.930132	0.233848	0.768763
O152	O	1.430132	0.733848	1.268763
H153	H	0.887807	0.273358	0.715090
H154	H	1.387807	0.773358	1.215090
H155	H	0.946189	0.218828	0.433910
H156	H	1.446189	0.718828	0.933910
H157	H	1.195056	-0.329513	-0.067825
H158	H	1.695056	0.170487	0.432175
O159	O	0.819598	-0.038561	0.000007
O160	O	1.319598	0.461439	0.500007
H161	H	0.890515	-0.024462	0.000025
H162	H	1.390515	0.475538	0.500025
O163	O	1.207429	-0.322713	0.089650
O164	O	1.707429	0.177287	0.589650
H165	H	1.173952	-0.341673	0.158398
H166	H	1.673952	0.158327	0.658398
O167	O	1.204716	-0.481659	0.090096
O168	O	1.704716	0.018341	0.590096
H169	H	1.206451	-0.551203	0.088590
H170	H	1.706451	-0.051203	0.588590
O171	O	1.204471	-0.483007	-0.088842
O172	O	1.704471	0.016993	0.411158
H173	H	1.159195	-0.518681	-0.133444
H174	H	1.659195	-0.018681	0.366556
O175	O	1.056827	-0.305171	0.187348
O176	O	1.556827	0.194829	0.687348
H177	H	1.056594	-0.235775	0.189320
H178	H	1.556594	0.264225	0.689320
O179	O	1.053261	-0.461770	-0.187896
O180	O	1.553261	0.038230	0.312104
H181	H	1.016821	-0.433902	-0.253997
H182	H	1.516821	0.066098	0.246003
H183	H	0.934725	-0.441069	-0.098797
H184	H	1.434725	0.058931	0.401203
H185	H	0.936609	-0.297858	-0.097954
H186	H	1.436609	0.202142	0.402046
