data_functionalizedCrystal
_audit_creation_method	'MofGen! by Chris Wilmer'
_symmetry_space_group_name_H-M	'P1'
_symmetry_Int_Tables_number	1
_symmetry_cell_setting	triclinic
loop_
_symmetry_equiv_pos_as_xyz
  x,y,z
_cell_length_a	10.654550
_cell_length_b	10.489741
_cell_length_c	9.130313
_cell_angle_alpha	89.995761
_cell_angle_beta	89.999724
_cell_angle_gamma	84.512052
loop_
_atom_site_label
_atom_site_type_symbol
_atom_site_fract_x
_atom_site_fract_y
_atom_site_fract_z
O1	O	1.667923	0.179162	-0.121689
O2	O	1.302453	0.196231	-0.121716
O3	O	1.493504	0.002095	-0.121693
O4	O	1.476872	0.373299	-0.121712
O5	O	1.493491	0.002089	0.121906
O6	O	1.302440	0.196226	0.121883
O7	O	1.667910	0.179156	0.121910
Cu8	Cu	1.485174	0.187691	0.144139
Cu9	Cu	1.485189	0.187697	-0.143945
O10	O	1.476859	0.373293	0.121887
C11	C	1.255648	0.194975	0.000080
C12	C	1.116203	0.191225	0.000070
C13	C	1.036771	0.305530	0.000068
C14	C	0.905748	0.301999	0.000094
C15	C	0.933603	0.069849	0.000117
C16	C	1.064623	0.073381	0.000102
C17	C	1.492241	-0.045439	0.000105
C18	C	1.488483	-0.187067	0.000102
C19	C	1.366923	-0.255148	0.000083
C20	C	1.424340	-0.347301	0.120194
C21	C	1.424382	-0.347270	-0.119976
C22	C	1.545951	-0.277354	0.120313
C23	C	1.545976	-0.277314	-0.119965
C24	C	1.603481	-0.369439	0.000176
C25	C	1.714715	0.180413	0.000110
C26	C	1.854160	0.184162	0.000111
C27	C	1.478122	0.420827	0.000085
C28	C	1.481880	0.562454	0.000079
N29	N	1.485172	0.187685	0.346761
N30	N	1.485201	0.187693	-0.346568
C31	C	1.569798	0.101758	0.423423
C32	C	1.569810	0.101758	0.576760
C33	C	1.400565	0.273624	0.576760
C34	C	1.400548	0.273617	0.423426
H35	H	1.129300	-0.019705	0.000107
O36	O	1.247670	-0.195905	0.000469
C37	C	1.184032	-0.231390	0.127321
H38	H	1.255824	-0.264154	0.215398
H39	H	1.120203	-0.145724	0.169234
H40	H	1.124611	-0.312984	0.099911
O41	O	0.828461	0.412950	-0.000112
C42	C	0.751851	0.417864	-0.126282
H43	H	0.744306	0.316554	-0.168323
H44	H	0.653827	0.464512	-0.097902
H45	H	0.795467	0.476497	-0.214642
H46	H	1.078762	0.401486	0.000054
H47	H	0.891590	-0.026096	0.000151
H48	H	1.597335	-0.246549	0.221971
O49	O	1.607109	-0.240329	-0.241250
C50	C	1.542720	-0.275597	-0.367645
H51	H	1.440233	-0.286772	-0.338877
H52	H	1.546489	-0.198230	-0.454801
H53	H	1.589370	-0.370305	-0.411466
H54	H	1.372900	-0.378290	0.221732
H55	H	1.372937	-0.378207	-0.221530
O56	O	1.722840	-0.428415	0.000517
C57	C	1.786443	-0.392734	0.127303
H58	H	1.714634	-0.360104	0.215408
H59	H	1.850472	-0.478257	0.169226
H60	H	1.845653	-0.310992	0.099800
O61	O	1.652036	0.018157	0.349177
C62	C	1.726751	-0.057663	0.449730
H63	H	1.675259	-0.059583	0.559040
H64	H	1.744989	-0.159357	0.405443
H65	H	1.820419	-0.015363	0.466017
H66	H	1.638719	0.031787	0.639174
O67	O	1.318322	0.356924	0.651399
C68	C	1.240223	0.287879	0.740094
H69	H	1.289350	0.188535	0.763070
H70	H	1.220851	0.340939	0.847915
H71	H	1.147320	0.278333	0.681022
H72	H	1.331629	0.343589	0.361003
