data_functionalizedCrystal
_audit_creation_method	'MofGen! by Chris Wilmer'
_symmetry_space_group_name_H-M	'P1'
_symmetry_Int_Tables_number	1
_symmetry_cell_setting	triclinic
loop_
_symmetry_equiv_pos_as_xyz
  x,y,z
_cell_length_a	19.288859
_cell_length_b	19.288857
_cell_length_c	17.766277
_cell_angle_alpha	89.991474
_cell_angle_beta	89.989768
_cell_angle_gamma	83.133417
loop_
_atom_site_label
_atom_site_type_symbol
_atom_site_fract_x
_atom_site_fract_y
_atom_site_fract_z
O1	O	0.921353	0.086629	-0.062613
O2	O	1.421353	0.586629	0.437387
O3	O	0.719092	0.098322	-0.062611
O4	O	1.219092	0.598322	0.437389
O5	O	0.826070	-0.008656	-0.062603
O6	O	1.326070	0.491344	0.437397
O7	O	0.814375	0.193606	-0.062621
O8	O	1.314375	0.693606	0.437379
O9	O	0.826051	-0.008661	0.062586
O10	O	1.326051	0.491339	0.562586
O11	O	0.719073	0.098316	0.062577
O12	O	1.219073	0.598316	0.562577
O13	O	0.921335	0.086623	0.062576
O14	O	1.421335	0.586623	0.562576
Cu15	Cu	0.820202	0.092469	0.074007
Cu16	Cu	1.320202	0.592469	0.574007
Cu17	Cu	0.820224	0.092476	-0.074043
Cu18	Cu	1.320224	0.592476	0.425957
O19	O	0.814357	0.193601	0.062568
O20	O	1.314357	0.693601	0.562568
C21	C	0.693206	0.097944	-0.000017
C22	C	1.193206	0.597944	0.499983
C23	C	0.616102	0.096816	-0.000016
C24	C	1.116102	0.596816	0.499984
C25	C	0.052060	0.151960	-0.000022
C26	C	0.552060	0.651960	0.499978
C27	C	0.124506	0.153025	-0.000026
C28	C	0.624506	0.653025	0.499974
C29	C	0.169215	0.090256	-0.000019
C30	C	0.669215	0.590256	0.499981
C31	C	0.141472	0.026416	-0.000027
C32	C	0.641472	0.526416	0.499973
C33	C	0.069026	0.025353	-0.000031
C34	C	0.569026	0.525353	0.499969
C35	C	0.290480	0.043441	0.043847
C36	C	0.790480	0.543441	0.543847
C37	C	0.362923	0.044507	0.043855
C38	C	0.862923	0.544507	0.543855
C39	C	0.392661	0.093533	-0.000012
C40	C	0.892661	0.593533	0.499988
C41	C	0.349944	0.141505	-0.043877
C42	C	0.849944	0.641505	0.456123
C43	C	0.277498	0.140442	-0.043880
C44	C	0.777498	0.640442	0.456120
C45	C	0.247771	0.091402	-0.000016
C46	C	0.747771	0.591402	0.499984
C47	C	0.498950	0.158524	-0.000013
C48	C	0.998950	0.658524	0.499987
C49	C	0.571399	0.159587	-0.000022
C50	C	1.071399	0.659587	0.499978
C51	C	0.588363	0.032976	-0.000015
C52	C	1.088363	0.532976	0.499985
C53	C	0.515916	0.031915	-0.000014
C54	C	1.015916	0.531915	0.499986
C55	C	0.471214	0.094691	-0.000009
C56	C	0.971214	0.594691	0.499991
C57	C	0.825685	-0.034535	-0.000008
C58	C	1.325685	0.465465	0.499992
C59	C	0.824558	-0.111639	-0.000006
C60	C	1.324558	0.388361	0.499994
C61	C	0.824042	-0.147846	-0.068246
C62	C	1.324042	0.352154	0.431754
C63	C	0.822974	-0.220292	-0.068252
C64	C	1.322974	0.279708	0.431748
C65	C	0.822435	-0.256530	-0.000013
C66	C	1.322435	0.243470	0.499987
C67	C	0.822947	-0.220313	0.068236
C68	C	1.322947	0.279687	0.568236
C69	C	0.824008	-0.147867	0.068240
C70	C	1.324008	0.352133	0.568240
C71	C	0.861429	-0.376764	0.052262
C72	C	1.361429	0.123236	0.552262
C73	C	0.860371	-0.449209	0.052255
C74	C	1.360371	0.050791	0.552255
C75	C	0.819157	-0.479975	-0.000022
C76	C	1.319157	0.020025	0.499978
C77	C	0.779009	-0.438289	-0.052304
C78	C	1.279009	0.061711	0.447696
C79	C	0.780071	-0.365844	-0.052301
C80	C	1.280071	0.134156	0.447699
C81	C	0.821283	-0.335085	-0.000009
C82	C	1.321283	0.164915	0.499991
C83	C	0.817481	-0.594737	-0.068273
C84	C	1.317481	-0.094737	0.431727
C85	C	0.816408	-0.667184	-0.068275
C86	C	1.316408	-0.167184	0.431725
C87	C	0.816388	-0.667204	0.068215
C88	C	1.316388	-0.167204	0.568215
C89	C	0.817454	-0.594758	0.068215
C90	C	1.317454	-0.094758	0.568215
C91	C	0.818004	-0.558529	-0.000030
C92	C	1.318004	-0.058529	0.499970
C93	C	0.947220	0.087001	-0.000020
C94	C	1.447220	0.587001	0.499980
C95	C	1.024324	0.088129	-0.000026
C96	C	1.524324	0.588129	0.499974
C97	C	0.814741	0.219480	-0.000029
C98	C	1.314741	0.719480	0.499971
C99	C	0.815868	0.296584	-0.000036
C100	C	1.315868	0.796584	0.499964
N101	N	0.820192	0.092464	0.178138
N102	N	1.320192	0.592464	0.678138
N103	N	0.820240	0.092475	-0.178173
N104	N	1.320240	0.592475	0.321827
C105	C	0.867577	0.045118	0.217528
C106	C	1.367577	0.545118	0.717528
C107	C	0.867581	0.045115	0.296330
C108	C	1.367581	0.545115	0.796330
C109	C	0.820206	0.092470	0.335738
C110	C	1.320206	0.592470	0.835738
C111	C	0.772812	0.139820	0.296338
C112	C	1.272812	0.639820	0.796338
C113	C	0.772805	0.139817	0.217538
C114	C	1.272805	0.639817	0.717538
C115	C	0.810906	0.155758	0.460571
C116	C	1.310906	0.655758	0.960571
C117	C	0.810918	0.155762	0.539369
C118	C	1.310918	0.655762	1.039369
C119	C	0.820225	0.092478	0.578785
C120	C	1.320225	0.592478	1.078785
C121	C	0.829534	0.029188	0.539391
C122	C	1.329534	0.529188	1.039391
C123	C	0.829527	0.029186	0.460591
C124	C	1.329527	0.529186	0.960591
C125	C	0.820209	0.092478	0.421184
C126	C	1.320209	0.592478	0.921184
C127	C	0.867617	0.045124	0.703621
C128	C	1.367617	0.545124	1.203621
C129	C	0.867616	0.045120	0.782424
C130	C	1.367616	0.545120	1.282424
C131	C	0.772851	0.139832	0.782431
C132	C	1.272851	0.639832	1.282431
C133	C	0.772848	0.139830	0.703629
C134	C	1.272848	0.639830	1.203629
C135	C	0.820235	0.092477	0.664229
C136	C	1.320235	0.592477	1.164229
H137	H	0.624764	-0.018133	-0.000016
H138	H	1.124764	0.481867	0.499984
C139	C	0.720739	0.191924	0.825775
C140	C	1.220739	0.691924	1.325775
N141	N	0.681486	0.231161	0.858426
N142	N	1.181486	0.731161	1.358426
C143	C	0.824580	-0.108038	0.143313
C144	C	1.324580	0.391962	0.643313
N145	N	0.825013	-0.078038	0.199859
N146	N	1.325013	0.421962	0.699859
H147	H	0.015667	0.203077	-0.000022
H148	H	0.515667	0.703077	0.499978
H149	H	0.397698	0.005448	0.079577
H150	H	0.897698	0.505448	0.579577
C151	C	0.919735	-0.006979	0.825754
C152	C	1.419735	0.493021	1.325754
N153	N	0.958988	-0.046225	0.858390
N154	N	1.458988	0.453775	1.358390
H155	H	0.906200	0.006565	0.671540
H156	H	1.406200	0.506565	1.171540
H157	H	0.374153	0.181429	-0.079595
H158	H	0.874153	0.681429	0.420405
C159	C	0.257778	-0.010497	0.092105
C160	C	0.757778	0.489503	0.592105
N161	N	0.233147	-0.051123	0.128451
N162	N	0.733147	0.448877	0.628451
H163	H	0.593978	0.211568	-0.000025
H164	H	1.093978	0.711568	0.499975
H165	H	0.734266	0.178386	0.671555
H166	H	1.234266	0.678386	1.171555
H167	H	0.906160	0.006559	0.185451
H168	H	1.406160	0.506559	0.685451
H169	H	0.177878	-0.024691	-0.000024
H170	H	0.677878	0.475309	0.499976
H171	H	0.906169	0.006558	0.328408
H172	H	1.406169	0.506558	0.828408
C173	C	0.449776	0.227578	-0.000022
C174	C	0.949776	0.727578	0.499978
N175	N	0.412739	0.279591	-0.000032
N176	N	0.912739	0.779591	0.499968
C177	C	0.038517	-0.044870	-0.000026
C178	C	0.538517	0.455130	0.499974
N179	N	0.015536	-0.097762	-0.000018
N180	N	0.515536	0.402238	0.499982
H181	H	0.803342	0.207296	0.571438
H182	H	1.303342	0.707296	1.071438
C183	C	0.824641	-0.107998	-0.143319
C184	C	1.324641	0.392002	0.356681
N185	N	0.825090	-0.077983	-0.199864
N186	N	1.325090	0.422017	0.300136
H187	H	0.822549	-0.249778	-0.123823
H188	H	1.322549	0.250222	0.376177
C189	C	0.800667	0.225379	0.417222
C190	C	1.300667	0.725379	0.917222
N191	N	0.792955	0.277817	0.384573
N192	N	1.292955	0.777817	0.884573
C193	C	0.839758	-0.040432	0.417261
C194	C	1.339758	0.459568	0.917261
N195	N	0.847460	-0.092869	0.384625
N196	N	1.347460	0.407131	0.884625
C197	C	0.485406	-0.038305	-0.000003
C198	C	0.985406	0.461695	0.499997
N199	N	0.462426	-0.091199	0.000007
N200	N	0.962426	0.408801	0.500007
H201	H	0.837113	-0.022343	0.571481
H202	H	1.337113	0.477657	1.071481
C203	C	0.155023	0.223247	-0.000016
C204	C	0.655023	0.723247	0.499984
N205	N	0.178005	0.276139	-0.000007
N206	N	0.678005	0.776139	0.499993
C207	C	0.720697	0.191908	0.339689
C208	C	1.220697	0.691908	0.839689
N209	N	0.681440	0.231140	0.372340
N210	N	1.181440	0.731140	0.872340
C211	C	0.906773	-0.342930	0.109771
C212	C	1.406773	0.157070	0.609771
N213	N	0.940927	-0.317447	0.153085
N214	N	1.440927	0.182553	0.653085
H215	H	0.817880	-0.565278	0.123784
H216	H	1.317880	-0.065278	0.623784
H217	H	0.734217	0.178373	0.185465
H218	H	1.234217	0.678373	0.685465
C219	C	0.815876	-0.707017	-0.143349
C220	C	1.315876	-0.207017	0.356651
N221	N	0.815489	-0.737022	-0.199897
N222	N	1.315489	-0.237022	0.300103
C223	C	0.735903	-0.319991	-0.109805
C224	C	1.235903	0.180009	0.390195
N225	N	0.702633	-0.285455	-0.153116
N226	N	1.202633	0.214545	0.346884
C227	C	0.733668	-0.472126	-0.109812
C228	C	1.233668	0.027874	0.390188
N229	N	0.699519	-0.497615	-0.153126
N230	N	1.199519	0.002385	0.346874
C231	C	0.230514	0.193203	-0.092139
C232	C	0.730514	0.693203	0.407861
N233	N	0.195125	0.232941	-0.128492
N234	N	0.695125	0.732941	0.371508
C235	C	0.815795	-0.707061	0.143278
C236	C	1.315795	-0.207061	0.643278
N237	N	0.815348	-0.737085	0.199818
N238	N	1.315348	-0.237085	0.699818
C239	C	0.818076	-0.554882	-0.143344
C240	C	1.318076	-0.054882	0.356656
N241	N	0.818521	-0.524865	-0.199888
N242	N	1.318521	-0.024865	0.300112
H243	H	0.893065	-0.483145	0.094824
H244	H	1.393065	0.016855	0.594824
H245	H	0.822506	-0.249822	0.123797
H246	H	1.322506	0.250178	0.623797
