data_functionalizedCrystal
_audit_creation_method	'MofGen! by Chris Wilmer'
_symmetry_space_group_name_H-M	'P1'
_symmetry_Int_Tables_number	1
_symmetry_cell_setting	triclinic
loop_
_symmetry_equiv_pos_as_xyz
  x,y,z
_cell_length_a	27.732048
_cell_length_b	27.731996
_cell_length_c	26.210047
_cell_angle_alpha	89.998501
_cell_angle_beta	89.996535
_cell_angle_gamma	82.632022
loop_
_atom_site_label
_atom_site_type_symbol
_atom_site_fract_x
_atom_site_fract_y
_atom_site_fract_z
O1	O	0.640920	0.057512	-0.042370
O2	O	0.500125	0.066257	-0.042386
O3	O	0.574909	-0.008514	-0.042366
O4	O	0.566137	0.132283	-0.042389
O5	O	0.574894	-0.008503	0.042492
O6	O	0.500111	0.066269	0.042472
O7	O	0.640906	0.057523	0.042488
Cu8	Cu	0.570507	0.061897	0.050228
Cu9	Cu	0.570524	0.061883	-0.050126
O10	O	0.566122	0.132295	0.042469
C11	C	0.482111	0.066079	0.000041
C12	C	0.428456	0.065527	0.000035
C13	C	0.089634	0.106232	0.000051
C14	C	-0.112026	0.104180	0.000056
O15	O	-0.143288	0.141402	0.000072
N16	N	-0.131141	0.059844	0.000062
C17	C	-0.099838	0.016017	0.000070
O18	O	-0.120724	-0.021740	0.000081
C19	C	0.101820	0.018069	0.000069
C20	C	0.120933	0.062408	0.000058
C21	C	0.108747	0.150567	0.000040
C22	C	0.159159	0.151079	0.000036
C23	C	0.190457	0.107256	0.000043
C24	C	0.171344	0.062920	0.000054
C25	C	0.133122	-0.025757	0.000081
C26	C	0.183539	-0.025240	0.000082
C27	C	0.202652	0.019099	0.000071
C28	C	0.253055	0.019609	0.000057
N29	N	0.272171	0.063946	0.000050
C30	C	0.240872	0.107769	0.000043
C31	C	-0.205712	0.014943	0.000070
C32	C	-0.256126	0.014430	0.000069
C33	C	-0.268310	0.102594	0.000056
C34	C	-0.217895	0.103106	0.000052
C35	C	-0.186597	0.059280	0.000064
C36	C	0.346741	0.108842	0.000034
C37	C	0.397158	0.109350	0.000028
C38	C	0.409337	0.021187	0.000045
C39	C	0.358925	0.020678	0.000048
C40	C	0.327627	0.064510	0.000045
O41	O	0.284346	-0.017592	0.000046
O42	O	0.261767	0.145521	0.000044
C43	C	0.039222	0.105719	0.000055
C44	C	0.020109	0.061384	0.000066
C45	C	0.051408	0.017560	0.000073
C46	C	-0.030305	0.060871	0.000065
C47	C	-0.061604	0.104694	0.000058
C48	C	-0.042489	0.149030	0.000052
C49	C	0.007923	0.149543	0.000048
C50	C	0.032292	-0.026776	0.000079
C51	C	-0.018120	-0.027285	0.000082
C52	C	-0.049419	0.016539	0.000075
C53	C	0.574721	-0.026516	0.000064
C54	C	0.574179	-0.080172	0.000069
C55	C	0.570772	-0.412895	-0.046212
C56	C	0.568711	-0.614553	-0.046221
O57	O	0.568430	-0.640629	-0.085561
N58	N	0.568447	-0.639764	0.000034
C59	C	0.568695	-0.614556	0.046296
O60	O	0.568418	-0.640626	0.085639
C61	C	0.570753	-0.412899	0.046304
C62	C	0.571021	-0.387691	0.000046
C63	C	0.571040	-0.387687	-0.092467
C64	C	0.571558	-0.337276	-0.092464
C65	C	0.571807	-0.312072	-0.046206
C66	C	0.571539	-0.337280	0.000048
C67	C	0.570997	-0.387692	0.092565
C68	C	0.571511	-0.337274	0.092563
C69	C	0.571779	-0.312066	0.046304
C70	C	0.572307	-0.261665	0.046309
N71	N	0.572571	-0.236454	0.000053
C72	C	0.572321	-0.261658	-0.046204
C73	C	0.567616	-0.720430	0.046288
C74	C	0.567102	-0.770844	0.046286
C75	C	0.567117	-0.770837	-0.046231
C76	C	0.567634	-0.720422	-0.046229
C77	C	0.567880	-0.695219	0.000032
C78	C	0.573409	-0.155791	-0.046195
C79	C	0.573929	-0.105376	-0.046188
C80	C	0.573912	-0.105387	0.046329
C81	C	0.573394	-0.155798	0.046322
C82	C	0.573141	-0.180999	0.000056
O83	O	0.572582	-0.235557	0.085628
O84	O	0.572587	-0.235578	-0.085542
C85	C	0.570254	-0.463306	-0.046215
C86	C	0.569986	-0.488513	0.000040
C87	C	0.570235	-0.463310	0.046298
C88	C	0.569472	-0.538928	0.000038
C89	C	0.569222	-0.564131	-0.046220
C90	C	0.569486	-0.538921	-0.092475
C91	C	0.570004	-0.488509	-0.092472
C92	C	0.569971	-0.488521	0.092554
C93	C	0.569454	-0.538932	0.092547
C94	C	0.569204	-0.564135	0.046289
C95	C	0.658920	0.057701	0.000060
C96	C	0.712575	0.058254	0.000062
C97	C	0.566310	0.150296	0.000037
C98	C	0.566853	0.203952	0.000028
N99	N	0.570499	0.061906	0.120812
N100	N	0.570536	0.061870	-0.120710
C101	C	0.603635	0.028782	0.473335
C102	C	0.603646	0.028775	0.686994
O103	O	0.631801	0.000614	0.714623
N104	N	0.570527	0.061873	0.713706
C105	C	0.537401	0.094972	0.687001
O106	O	0.509228	0.123120	0.714624
C107	C	0.537388	0.094976	0.473343
C108	C	0.570512	0.061880	0.446633
C109	C	0.636756	-0.004312	0.446625
C110	C	0.636755	-0.004308	0.393214
C111	C	0.603632	0.028790	0.366512
C112	C	0.570511	0.061884	0.393222
C113	C	0.504260	0.128073	0.446639
C114	C	0.504259	0.128070	0.393221
C115	C	0.537384	0.094974	0.366511
C116	C	0.537388	0.094985	0.313109
N117	N	0.570506	0.061888	0.286396
C118	C	0.603629	0.028790	0.313098
C119	C	0.537410	0.094968	0.799174
C120	C	0.537414	0.094968	0.852588
C121	C	0.603658	0.028770	0.852577
C122	C	0.603657	0.028773	0.799162
C123	C	0.570529	0.061871	0.772462
C124	C	0.603624	0.028801	0.200930
C125	C	0.603621	0.028809	0.147514
C126	C	0.537375	0.095004	0.147529
C127	C	0.537380	0.094998	0.200941
C128	C	0.570506	0.061892	0.227640
O129	O	0.509244	0.123128	0.285447
O130	O	0.631790	0.000639	0.285466
C131	C	0.603636	0.028778	0.526746
C132	C	0.570515	0.061872	0.553456
C133	C	0.537393	0.094970	0.526755
C134	C	0.570519	0.061872	0.606870
C135	C	0.603641	0.028774	0.633572
C136	C	0.636760	-0.004323	0.606860
C137	C	0.636758	-0.004320	0.553448
C138	C	0.504274	0.128068	0.553467
C139	C	0.504278	0.128061	0.606879
C140	C	0.537401	0.094964	0.633580
H141	H	0.321264	0.144533	0.000033
O142	O	0.114543	-0.068818	0.000004
C143	C	0.064690	-0.120576	-0.043924
C144	C	0.085705	-0.071795	-0.043907
H145	H	0.041362	-0.122995	-0.079417
H146	H	0.095710	-0.151822	-0.043949
H147	H	0.041412	-0.123011	-0.008393
H148	H	0.108976	-0.069312	-0.079432
H149	H	0.054662	-0.040572	-0.043856
O150	O	0.505278	0.127192	0.773265
C151	C	0.476291	0.211447	0.756967
C152	C	0.512712	0.175005	0.786327
H153	H	0.482282	0.250112	0.767525
H154	H	0.481968	0.205813	0.714195
H155	H	0.437630	0.205391	0.767473
H156	H	0.551387	0.181040	0.775864
H157	H	0.506992	0.180649	0.829093
O158	O	0.569172	-0.563348	-0.137441
C159	C	0.527098	-0.573010	-0.216492
C160	C	0.527408	-0.545295	-0.165597
H161	H	0.493330	-0.558432	-0.239265
H162	H	0.561018	-0.567775	-0.239345
H163	H	0.526703	-0.613370	-0.208524
H164	H	0.527786	-0.504926	-0.173519
H165	H	0.493490	-0.550571	-0.142759
H166	H	0.573201	-0.176303	-0.083869
O167	O	0.574064	-0.080861	0.091246
C168	C	0.532745	-0.018118	0.144897
C169	C	0.532513	-0.045867	0.094017
H170	H	0.499160	0.010188	0.147149
H171	H	0.532432	-0.044760	0.177985
H172	H	0.566841	0.000785	0.147207
H173	H	0.498423	-0.064771	0.091656
H174	H	0.532852	-0.019202	0.060953
H175	H	0.663731	-0.031271	0.628609
H176	H	0.573180	-0.176324	0.083990
O177	O	0.567795	-0.695997	0.091262
C178	C	0.526043	-0.674775	0.170328
C179	C	0.525779	-0.702471	0.119418
H180	H	0.492071	-0.679991	0.193101
H181	H	0.559759	-0.689380	0.193171
H182	H	0.526480	-0.634416	0.162382
H183	H	0.525325	-0.742833	0.127317
H184	H	0.492066	-0.687826	0.096591
O185	O	0.472035	0.160241	0.472497
C186	C	0.406344	0.225912	0.466847
C187	C	0.442808	0.189499	0.437501
H188	H	0.382711	0.249583	0.438565
H189	H	0.382323	0.205232	0.491842
H190	H	0.427030	0.249901	0.491866
H191	H	0.422161	0.165500	0.412454
H192	H	0.466827	0.210208	0.412538
O193	O	0.570172	-0.463973	-0.137384
C194	C	0.528793	-0.401321	-0.191100
C195	C	0.528566	-0.429051	-0.140207
H196	H	0.495153	-0.373087	-0.193404
H197	H	0.562842	-0.382348	-0.193457
H198	H	0.528537	-0.428026	-0.224136
H199	H	0.528805	-0.402378	-0.107142
H200	H	0.494520	-0.448032	-0.137894
H201	H	0.023479	0.185648	0.000039
H202	H	0.570779	-0.408207	0.130234
H203	H	0.569239	-0.559452	0.130219
O204	O	-0.199389	0.146208	-0.000023
C205	C	-0.194363	0.221700	-0.044015
C206	C	-0.215357	0.172907	-0.043988
H207	H	-0.207256	0.243296	-0.079561
H208	H	-0.207301	0.243374	-0.008531
H209	H	-0.152954	0.214534	-0.043987
H210	H	-0.256766	0.180029	-0.044033
H211	H	-0.202380	0.151248	-0.079469
H212	H	0.209021	-0.060930	0.000092
O213	O	0.062713	-0.069335	0.000172
C214	C	0.126722	-0.119916	0.044113
C215	C	0.092293	-0.071702	0.044082
H216	H	0.150653	-0.121841	0.079605
H217	H	0.104420	-0.151709	0.044151
H218	H	0.150605	-0.121878	0.008581
H219	H	0.068403	-0.069693	0.079608
H220	H	0.114624	-0.039933	0.044018
H221	H	0.571703	-0.316755	0.130235
H222	H	0.574149	-0.084854	-0.083859
H223	H	-0.293803	0.138276	0.000050
H224	H	-0.067981	0.184713	0.000044
H225	H	-0.180232	-0.020747	0.000079
O226	O	0.340436	-0.022434	0.000075
C227	C	0.357848	-0.109826	0.000055
C228	C	0.378846	-0.061035	0.000031
H229	H	0.388892	-0.141047	0.000008
H230	H	0.334570	-0.112300	0.035579
H231	H	0.334532	-0.112247	-0.035447
H232	H	0.402184	-0.058580	0.035508
H233	H	0.402096	-0.058581	-0.035517
O234	O	0.635813	-0.003450	0.878464
C235	C	0.664750	-0.087703	0.894839
C236	C	0.628323	-0.051266	0.865479
H237	H	0.658701	-0.126370	0.884360
H238	H	0.703430	-0.081718	0.884327
H239	H	0.659066	-0.081990	0.937600
H240	H	0.633963	-0.056957	0.822711
H241	H	0.589657	-0.057260	0.876034
O242	O	0.472146	0.160243	0.367229
C243	C	0.461340	0.226361	0.306954
C244	C	0.497759	0.189944	0.336348
H245	H	0.482035	0.250390	0.281988
H246	H	0.437359	0.205684	0.281913
H247	H	0.437660	0.249991	0.335233
H248	H	0.521472	0.166305	0.308106
H249	H	0.521706	0.210651	0.361396
H250	H	0.570176	-0.468005	0.130223
H251	H	0.630629	0.001823	0.777418
H252	H	0.477305	0.155017	0.628622
H253	H	0.174715	0.187185	0.000026
H254	H	0.566891	-0.791365	0.083954
H255	H	-0.271683	-0.021675	0.000071
H256	H	0.434830	-0.014493	0.000049
H257	H	0.412716	0.145458	0.000019
O258	O	0.635817	-0.003391	0.121648
C259	C	0.701541	-0.069030	0.127284
C260	C	0.665101	-0.032600	0.156638
H261	H	0.725233	-0.092648	0.155561
H262	H	0.680884	-0.093069	0.102292
H263	H	0.725506	-0.048316	0.102262
H264	H	0.641126	-0.053274	0.181688
H265	H	0.685788	-0.008561	0.181598
H266	H	0.630598	0.001842	0.222662
H267	H	0.510409	0.121954	0.125781
O268	O	-0.036705	-0.070347	0.000002
C269	C	-0.086568	-0.122098	-0.043924
C270	C	-0.065547	-0.073320	-0.043908
H271	H	-0.109899	-0.124512	-0.079416
H272	H	-0.055552	-0.153348	-0.043952
H273	H	-0.109844	-0.124530	-0.008391
H274	H	-0.042277	-0.070840	-0.079434
H275	H	-0.096586	-0.042093	-0.043854
O276	O	0.668947	-0.036509	0.367351
C277	C	0.734666	-0.102152	0.372998
C278	C	0.698228	-0.065715	0.402346
H279	H	0.758356	-0.125768	0.401278
H280	H	0.714008	-0.126193	0.348009
H281	H	0.758633	-0.081444	0.347972
H282	H	0.674251	-0.086384	0.427399
H283	H	0.718916	-0.041675	0.427302
O284	O	0.571710	-0.312823	-0.137428
C285	C	0.529957	-0.291712	-0.216513
C286	C	0.529731	-0.319398	-0.165593
H287	H	0.496025	-0.297026	-0.239304
H288	H	0.530329	-0.251331	-0.208642
H289	H	0.563708	-0.306311	-0.239307
H290	H	0.495985	-0.304840	-0.142774
H291	H	0.529384	-0.359776	-0.173500
O292	O	0.668869	-0.036512	0.472581
C293	C	0.679691	-0.102592	0.532901
C294	C	0.643264	-0.066160	0.503534
H295	H	0.659003	-0.126565	0.557941
H296	H	0.703352	-0.126276	0.504649
H297	H	0.703690	-0.081878	0.557879
H298	H	0.619233	-0.086835	0.478555
H299	H	0.619636	-0.042477	0.531813
O300	O	0.570864	-0.412227	-0.137373
C301	C	0.612210	-0.474903	-0.191086
C302	C	0.612459	-0.447162	-0.140203
H303	H	0.645841	-0.503147	-0.193395
H304	H	0.578152	-0.493864	-0.193421
H305	H	0.612466	-0.448206	-0.224131
H306	H	0.612220	-0.473826	-0.107129
H307	H	0.646513	-0.428193	-0.137912
O308	O	0.567869	-0.696009	-0.091209
C309	C	0.567861	-0.701341	-0.182973
C310	C	0.567584	-0.729044	-0.132067
H311	H	0.567640	-0.728039	-0.216020
H312	H	0.534251	-0.673073	-0.185328
H313	H	0.601934	-0.682401	-0.185255
H314	H	0.533533	-0.748013	-0.129751
H315	H	0.601216	-0.757284	-0.129734
H316	H	0.566914	-0.791366	-0.083896
H317	H	0.510446	0.121923	0.874332
H318	H	0.477301	0.155019	0.531731
H319	H	0.510412	0.121953	0.222688
H320	H	0.083267	0.186255	0.000036
H321	H	0.663731	-0.031270	0.531705
