data_functionalizedCrystal
_audit_creation_method	'MofGen! by Chris Wilmer'
_symmetry_space_group_name_H-M	'P1'
_symmetry_Int_Tables_number	1
_symmetry_cell_setting	triclinic
loop_
_symmetry_equiv_pos_as_xyz
  x,y,z
_cell_length_a	12.759401
_cell_length_b	12.759400
_cell_length_c	12.759393
_cell_angle_alpha	89.968423
_cell_angle_beta	89.980163
_cell_angle_gamma	90.016097
loop_
_atom_site_label
_atom_site_type_symbol
_atom_site_fract_x
_atom_site_fract_y
_atom_site_fract_z
Zn1	Zn	1.606256	-0.418161	-0.594020
Zn2	Zn	1.606151	-0.593880	-0.418341
Zn3	Zn	1.430558	-0.418220	-0.418356
Zn4	Zn	1.430547	-0.593803	-0.593978
O5	O	1.518378	-0.506016	-0.506174
O6	O	1.753263	-0.441478	-0.570728
O7	O	1.582819	-0.570635	-0.271322
O8	O	1.453913	-0.271191	-0.441682
O9	O	1.753186	-0.570578	-0.441657
O10	O	1.582998	-0.271148	-0.570742
O11	O	1.453811	-0.441579	-0.271333
O12	O	1.283536	-0.441505	-0.441641
O13	O	1.453894	-0.570447	-0.741005
O14	O	1.283527	-0.570504	-0.570670
O15	O	1.582987	-0.441403	-0.741036
O16	O	1.582808	-0.740891	-0.441615
O17	O	1.453792	-0.740834	-0.570655
C18	C	1.245411	-0.506003	-0.506153
C19	C	1.128634	-0.506023	-0.506169
C20	C	1.073795	-0.573296	-0.573248
C21	C	0.964071	-0.573300	-0.573269
C22	C	0.964034	-0.438756	-0.439122
C23	C	1.073756	-0.438747	-0.439107
C24	C	1.518316	-0.778984	-0.506152
C25	C	1.518386	-0.895760	-0.506178
C26	C	1.585703	-1.060348	-0.439095
C27	C	1.585640	-0.950624	-0.439062
C28	C	1.451183	-0.950626	-0.573324
C29	C	1.451241	-1.060348	-0.573351
C30	C	1.623164	-0.800741	-0.315152
C31	C	1.690376	-0.745879	-0.248019
C32	C	1.792918	-0.781419	-0.231987
C33	C	1.828269	-0.871820	-0.283105
C34	C	1.761062	-0.926677	-0.350246
C35	C	1.658506	-0.891138	-0.366258
C36	C	1.413728	-1.210232	-0.697261
C37	C	1.346526	-1.265091	-0.764409
C38	C	1.243982	-1.229553	-0.780451
C39	C	1.208635	-1.139149	-0.729352
C40	C	1.275837	-1.084290	-0.662204
C41	C	1.378380	-1.119836	-0.646160
C42	C	1.792411	-0.506030	-0.506195
C43	C	1.909188	-0.506036	-0.506204
C44	C	1.518451	-0.505910	-0.780207
C45	C	1.518482	-0.505865	-0.896984
C46	C	1.518469	-0.231983	-0.506218
C47	C	1.518507	-0.115206	-0.506238
C48	C	1.451333	-0.438653	-0.951851
C49	C	1.451357	-0.438620	-1.061575
C50	C	1.585690	-0.573015	-1.061555
C51	C	1.585660	-0.573052	-0.951833
C52	C	1.518365	-0.506046	-0.233206
C53	C	1.518538	-0.505796	-0.116430
H54	H	0.919426	-0.628078	-0.627894
H55	H	1.396418	-0.905950	-0.627967
C56	C	1.095834	-1.100050	-0.746991
C57	C	1.021912	-1.160392	-0.820844
C58	C	0.909110	-1.121295	-0.838490
C59	C	0.870230	-1.021854	-0.782283
C60	C	0.944154	-0.961505	-0.708426
C61	C	1.056956	-1.000603	-0.690780
H62	H	1.050692	-1.234010	-0.862456
H63	H	0.854388	-1.165969	-0.893164
H64	H	0.786728	-0.992912	-0.795346
H65	H	0.915374	-0.887888	-0.666814
H66	H	1.111678	-0.955929	-0.636105
C67	C	1.377494	-0.364681	-1.121928
C68	C	1.258052	-0.373241	-1.106824
C69	C	1.184185	-0.299299	-1.167176
C70	C	1.229760	-0.216797	-1.242631
C71	C	1.349210	-0.208233	-1.257739
C72	C	1.423077	-0.282175	-1.197387
H73	H	1.224308	-0.434318	-1.050964
H74	H	1.095760	-0.305639	-1.155991
H75	H	1.175080	-0.162060	-1.287307
H76	H	1.382953	-0.147157	-1.313599
H77	H	1.511501	-0.275835	-1.208571
H78	H	1.640385	-0.627715	-1.106227
C79	C	1.170057	-1.289895	-0.854318
C80	C	1.142615	-1.405166	-0.831283
C81	C	1.068688	-1.465503	-0.905144
C82	C	1.022202	-1.410568	-1.002038
C83	C	1.049643	-1.295290	-1.025077
C84	C	1.123570	-1.234953	-0.951217
H85	H	1.177028	-1.445839	-0.759552
H86	H	1.048374	-1.550840	-0.888089
H87	H	0.967476	-1.455233	-1.056714
H88	H	1.015230	-1.254618	-1.096808
H89	H	1.143884	-1.149616	-0.968272
C90	C	1.134161	-0.647288	-0.647023
C91	C	1.209642	-0.601853	-0.729574
C92	C	1.270005	-0.675845	-0.803355
C93	C	1.254886	-0.795272	-0.794583
C94	C	1.179401	-0.840714	-0.712029
C95	C	1.119039	-0.766722	-0.638249
H96	H	1.220837	-0.513441	-0.736071
H97	H	1.325883	-0.642206	-0.864467
H98	H	1.299570	-0.850046	-0.849200
H99	H	1.168207	-0.929126	-0.705533
H100	H	1.063160	-0.800361	-0.577136
C101	C	0.903661	-0.364764	-0.365352
C102	C	0.828263	-0.282345	-0.411033
C103	C	0.767891	-0.208354	-0.337260
C104	C	0.782917	-0.216781	-0.217807
C105	C	0.858318	-0.299203	-0.172120
C106	C	0.918690	-0.373194	-0.245893
H107	H	0.817138	-0.276104	-0.499465
H108	H	0.712074	-0.147340	-0.371081
H109	H	0.738225	-0.162009	-0.163196
H110	H	0.869444	-0.305444	-0.083688
H111	H	0.974507	-0.434208	-0.212071
C112	C	1.799933	-1.026115	-0.406470
C113	C	1.912732	-1.065213	-0.388843
C114	C	1.951603	-1.164658	-0.445059
C115	C	1.877674	-1.225006	-0.518901
C116	C	1.764868	-1.185910	-0.536530
C117	C	1.725997	-1.086464	-0.480315
H118	H	1.967464	-1.020539	-0.334178
H119	H	2.035110	-1.193600	-0.432008
H120	H	1.906449	-1.298622	-0.560515
H121	H	1.710135	-1.230583	-0.591195
H122	H	1.642490	-1.057522	-0.493366
C123	C	1.941075	-0.910905	-0.265478
C124	C	1.977853	-0.940981	-0.154532
C125	C	2.090661	-0.980070	-0.136902
C126	C	2.166690	-0.989083	-0.230219
C127	C	2.129913	-0.959006	-0.341173
C128	C	2.017105	-0.919917	-0.358802
H129	H	1.921571	-0.934310	-0.085446
H130	H	2.117885	-1.002335	-0.054766
H131	H	2.250197	-1.018019	-0.217169
H132	H	2.186195	-0.965677	-0.410259
H133	H	1.989881	-0.897653	-0.440938
C134	C	1.659531	-0.646989	-0.891471
C135	C	1.733433	-0.720883	-0.951798
C136	C	1.807296	-0.794820	-0.891434
C137	C	1.807257	-0.794863	-0.770744
C138	C	1.733352	-0.720966	-0.710411
C139	C	1.659489	-0.647029	-0.770774
H140	H	1.733464	-0.720854	-1.041146
H141	H	1.862005	-0.849523	-0.936098
H142	H	1.861935	-0.849595	-0.726060
H143	H	1.733321	-0.720995	-0.621063
H144	H	1.604780	-0.592326	-0.726110
H145	H	1.375318	-1.338697	-0.806024
H146	H	1.118407	-0.383959	-0.384483
H147	H	1.640474	-1.105010	-0.384446
H148	H	1.847643	-0.736742	-0.177326
H149	H	1.661584	-0.672275	-0.206399
H150	H	1.539662	-0.771804	-0.328187
H151	H	1.247049	-1.010677	-0.620598
H152	H	1.497227	-1.239179	-0.684201
H153	H	1.396632	-0.383945	-0.907196
