data_functionalizedCrystal
_audit_creation_method	'MofGen! by Chris Wilmer'
_symmetry_space_group_name_H-M	'P1'
_symmetry_Int_Tables_number	1
_symmetry_cell_setting	triclinic
loop_
_symmetry_equiv_pos_as_xyz
  x,y,z
_cell_length_a	15.995350
_cell_length_b	10.723024
_cell_length_c	9.198806
_cell_angle_alpha	90.002012
_cell_angle_beta	89.999704
_cell_angle_gamma	96.019878
loop_
_atom_site_label
_atom_site_type_symbol
_atom_site_fract_x
_atom_site_fract_y
_atom_site_fract_z
O1	O	1.111909	-0.160839	-0.120765
O2	O	0.868248	-0.180701	-0.120795
O3	O	0.995699	0.010878	-0.120774
O4	O	0.984458	-0.352418	-0.120786
O5	O	0.995689	0.010878	0.121011
O6	O	0.868238	-0.180701	0.120990
O7	O	1.111899	-0.160839	0.121020
Cu8	Cu	0.990067	-0.170770	0.143082
Cu9	Cu	0.990079	-0.170770	-0.142857
O10	O	0.984448	-0.352418	0.120999
C11	C	0.837043	-0.179880	0.000094
C12	C	0.744079	-0.177418	0.000083
C13	C	0.406280	-0.168577	0.000113
C14	C	0.452931	-0.032138	0.000657
C15	C	0.549635	-0.034601	0.000102
C16	C	0.573866	-0.172962	0.000099
C17	C	0.533171	-0.240259	-0.137969
C18	C	0.436516	-0.236831	-0.138074
C19	C	0.436182	-0.239650	0.136881
C20	C	0.533127	-0.239618	0.138695
C21	C	0.668578	-0.175448	0.000086
C22	C	0.311568	-0.166096	0.000116
C23	C	0.994876	0.057367	0.000117
C24	C	0.992428	0.195890	0.000111
C25	C	1.143103	-0.161660	0.000128
C26	C	1.236068	-0.164122	0.000129
N27	N	0.990065	-0.170768	0.344196
C28	C	0.985271	-0.398907	0.000105
C29	C	0.987718	-0.537430	0.000101
C30	C	1.063743	0.271783	0.000118
C31	C	1.061215	0.414954	0.000112
N32	N	0.990088	-0.170761	-0.343971
C33	C	1.043578	-0.089978	0.416401
C34	C	1.043591	-0.089974	0.583814
H35	H	0.433029	0.022148	-0.097807
N36	N	0.429295	0.036309	0.124846
N37	N	0.460141	0.147107	0.143808
H38	H	0.443443	0.195452	0.231518
N39	N	0.410118	-0.183698	0.268185
N40	N	0.428287	-0.227742	0.388559
H41	H	0.409882	-0.188215	0.481288
N42	N	0.551609	-0.367784	-0.144445
N43	N	0.493109	-0.454763	-0.143990
H44	H	0.506130	-0.544829	-0.148563
N45	N	1.100959	-0.003068	0.338508
N46	N	1.151209	0.072978	0.406307
H47	H	1.191701	0.134414	0.351299
N48	N	1.142696	0.220359	0.000152
N49	N	1.209745	0.291637	0.000168
H50	H	1.265509	0.255323	0.000196
N51	N	0.913483	0.247337	0.000133
N52	N	0.862710	0.222946	0.102054
H53	H	0.806953	0.259278	0.102074
H54	H	1.089409	-0.020810	0.645907
N55	N	0.932621	-0.257559	0.578155
N56	N	0.959824	-0.334839	0.493193
H57	H	0.919239	-0.396143	0.438185
N58	N	0.584907	0.031773	0.124258
N59	N	0.538106	0.080246	0.211924
H60	H	0.563013	0.127134	0.299610
H61	H	0.944257	-0.239928	0.406316
N62	N	0.584198	0.032209	-0.124275
N63	N	0.536888	0.080794	-0.210947
H64	H	0.561297	0.127979	-0.298796
N65	N	0.413207	-0.175269	-0.267551
N66	N	0.468299	-0.135128	-0.357206
H67	H	0.451842	-0.091647	-0.448652
H68	H	0.404843	-0.337003	-0.144342
H69	H	0.561281	-0.193518	-0.240719
N70	N	0.567025	-0.177964	0.266823
N71	N	0.620989	-0.085279	0.256218
H72	H	0.644935	-0.041732	0.346706
N73	N	0.553134	-0.366191	0.149145
N74	N	0.597940	-0.409529	0.054186
H75	H	0.612070	-0.498927	0.061555
N76	N	0.397060	-0.365843	0.138034
N77	N	0.347363	-0.403419	0.038674
H78	H	0.319730	-0.492539	0.039477
H79	H	1.122266	0.480165	0.000124
N80	N	0.911130	0.380761	0.000078
N81	N	0.895485	0.304788	-0.101840
H82	H	0.841395	0.247000	-0.101859
