data_functionalizedCrystal
_audit_creation_method	'MofGen! by Chris Wilmer'
_symmetry_space_group_name_H-M	'P1'
_symmetry_Int_Tables_number	1
_symmetry_cell_setting	triclinic
loop_
_symmetry_equiv_pos_as_xyz
  x,y,z
_cell_length_a	21.395362
_cell_length_b	18.050589
_cell_length_c	21.395356
_cell_angle_alpha	89.977426
_cell_angle_beta	89.964122
_cell_angle_gamma	90.044101
loop_
_atom_site_label
_atom_site_type_symbol
_atom_site_fract_x
_atom_site_fract_y
_atom_site_fract_z
Zn1	Zn	0.957820	-0.295360	-0.354610
Zn2	Zn	0.957742	-0.419553	-0.249843
Zn3	Zn	0.853050	-0.295415	-0.249811
Zn4	Zn	0.853009	-0.419547	-0.354547
O5	O	0.905406	-0.357469	-0.302203
O6	O	1.045488	-0.311813	-0.340752
O7	O	0.943839	-0.403111	-0.162161
O8	O	0.866998	-0.191483	-0.263726
O9	O	1.045431	-0.403057	-0.263780
O10	O	0.943972	-0.191443	-0.340721
O11	O	0.866922	-0.311908	-0.162138
O12	O	0.765367	-0.311903	-0.263665
O13	O	0.866928	-0.403048	-0.442234
O14	O	0.765337	-0.403101	-0.340615
O15	O	0.943933	-0.311808	-0.442280
O16	O	0.943799	-0.523476	-0.263719
O17	O	0.866852	-0.523472	-0.340645
C18	C	0.742618	-0.357508	-0.302130
C19	C	0.672977	-0.357543	-0.302114
C20	C	0.905330	-0.550421	-0.302192
C21	C	0.905355	-0.632967	-0.302209
C22	C	0.640264	-0.405093	-0.342121
C23	C	0.574829	-0.405075	-0.342149
C24	C	0.542108	-0.357514	-0.302159
C25	C	0.574829	-0.309955	-0.262148
C26	C	0.640263	-0.309969	-0.262126
C27	C	0.438391	-0.351543	-0.245753
C28	C	0.372958	-0.351533	-0.245774
C29	C	0.340288	-0.357466	-0.302228
C30	C	0.373058	-0.363422	-0.358662
C31	C	0.438492	-0.363437	-0.358640
C32	C	0.471156	-0.357493	-0.302179
C33	C	0.236623	-0.404999	-0.342269
C34	C	0.171186	-0.404975	-0.342298
C35	C	0.171187	-0.309859	-0.262291
C36	C	0.236622	-0.309878	-0.262268
C37	C	0.269336	-0.357452	-0.302256
C38	C	0.863552	-0.832442	-0.344027
C39	C	0.848282	-0.881886	-0.286848
C40	C	0.905416	-0.784097	-0.302217
C41	C	0.920717	-0.881734	-0.359402
C42	C	0.905475	-0.930082	-0.302230
C43	C	0.890116	-0.832454	-0.245009
C44	C	0.962578	-0.832298	-0.317601
C45	C	0.947330	-0.881720	-0.260383
C46	C	0.905381	-0.699999	-0.302211
C47	C	0.905510	-1.014178	-0.302230
C48	C	1.068829	-0.357430	-0.302276
C49	C	1.138470	-0.357413	-0.302307
C50	C	0.905435	-0.357421	-0.465626
C51	C	0.905447	-0.357401	-0.535268
C52	C	0.905499	-0.163763	-0.302227
C53	C	0.905538	-0.081217	-0.302237
C54	C	0.945602	-0.309774	-1.037089
C55	C	0.945597	-0.309792	-0.971653
C56	C	0.905501	-0.357302	-0.938906
C57	C	0.865417	-0.404811	-0.971600
C58	C	0.865428	-0.404797	-1.037034
C59	C	0.849032	-0.363202	-0.835211
C60	C	0.849020	-0.363210	-0.769778
C61	C	0.905469	-0.357349	-0.737085
C62	C	0.961930	-0.351464	-0.769833
C63	C	0.961941	-0.351450	-0.835267
C64	C	0.905485	-0.357323	-0.867954
C65	C	0.945547	-0.309866	-0.633447
C66	C	0.945543	-0.309889	-0.568010
C67	C	0.865358	-0.404905	-0.567958
C68	C	0.865367	-0.404885	-0.633393
C69	C	0.905461	-0.357362	-0.666134
C70	C	0.905413	-0.357463	-0.139415
C71	C	0.905522	-0.357274	-0.069774
H72	H	0.666896	-0.443830	-0.374684
H73	H	0.263260	-0.443732	-0.374833
H74	H	0.828097	-0.810803	-0.379334
H75	H	0.933636	-0.903382	-0.407757
O76	O	0.989586	-0.907504	-0.218210
C77	C	0.989501	-0.985608	-0.219027
H78	H	0.970845	-1.005936	-0.265884
H79	H	0.958394	-1.007244	-0.179767
C80	C	1.079542	-0.989270	-0.152107
C81	C	1.056634	-1.014237	-0.209659
H82	H	1.120951	-1.006931	-0.146326
H83	H	1.079598	-0.936650	-0.151554
H84	H	1.053613	-1.007303	-0.119397
H85	H	1.082557	-0.996197	-0.242369
H86	H	1.056583	-1.066855	-0.210217
H87	H	0.144553	-0.443695	-0.374881
O88	O	0.671946	-0.263757	-0.223198
C89	C	0.629038	-0.221756	-0.187919
H90	H	0.582366	-0.252157	-0.185724
H91	H	0.622151	-0.165387	-0.210946
C92	C	0.711842	-0.173619	-0.123937
C93	C	0.654520	-0.210961	-0.121237
H94	H	0.727561	-0.166956	-0.082805
H95	H	0.740751	-0.201913	-0.147707
H96	H	0.706095	-0.126648	-0.143130
H97	H	0.660269	-0.257934	-0.102052
H98	H	0.625613	-0.182675	-0.097462
O99	O	0.874548	-0.806832	-0.187299
C100	C	0.814486	-0.832698	-0.171096
H101	H	0.803430	-0.884848	-0.199031
H102	H	0.778387	-0.788157	-0.182131
C103	C	0.826155	-0.786623	-0.066446
C104	C	0.812578	-0.850678	-0.100752
H105	H	0.824976	-0.797711	-0.023054
H106	H	0.866619	-0.769194	-0.077362
H107	H	0.796070	-0.749511	-0.075649
H108	H	0.842666	-0.887785	-0.091555
H109	H	0.772118	-0.868114	-0.089832
O110	O	0.794184	-0.368794	-0.737940
C111	C	0.786138	-0.305591	-0.700088
H112	H	0.814911	-0.257819	-0.719832
H113	H	0.802356	-0.318392	-0.650502
C114	C	0.681235	-0.342464	-0.674801
C115	C	0.716570	-0.283788	-0.699054
H116	H	0.638321	-0.329017	-0.674160
H117	H	0.686656	-0.385047	-0.700300
H118	H	0.694757	-0.353126	-0.633481
H119	H	0.703053	-0.273134	-0.740375
H120	H	0.711145	-0.241203	-0.673561
O121	O	0.984408	-0.263634	-0.665285
C122	C	0.948766	-0.215678	-0.703137
H123	H	0.899419	-0.211105	-0.683393
H124	H	0.946601	-0.238630	-0.752723
C125	C	1.040024	-0.144086	-0.728421
C126	C	0.979417	-0.138464	-0.704168
H127	H	1.058932	-0.096457	-0.729060
H128	H	1.064038	-0.176396	-0.702921
H129	H	1.038212	-0.163215	-0.769741
H130	H	0.981230	-0.119344	-0.662847
H131	H	0.955404	-0.106149	-0.729661
O132	O	0.984500	-0.263676	-0.536354
C133	C	1.019898	-0.221744	-0.579287
H134	H	0.994241	-0.219170	-0.625918
H135	H	1.067474	-0.248919	-0.586266
C136	C	1.060467	-0.145868	-0.496492
C137	C	1.028952	-0.142701	-0.553764
H138	H	1.066054	-0.097112	-0.480748
H139	H	1.036621	-0.174120	-0.467567
H140	H	1.100110	-0.168517	-0.502316
H141	H	0.989306	-0.120061	-0.547938
H142	H	1.052791	-0.114444	-0.582688
H143	H	0.799970	-0.903683	-0.273849
O144	O	0.341395	-0.369078	-0.413551
C145	C	0.357465	-0.309117	-0.452654
H146	H	0.404984	-0.286260	-0.438184
H147	H	0.320678	-0.263767	-0.448181
C148	C	0.302159	-0.363829	-0.538726
C149	C	0.360525	-0.335759	-0.520958
H150	H	0.304044	-0.380261	-0.580859
H151	H	0.291330	-0.404225	-0.512382
H152	H	0.271509	-0.326032	-0.534994
H153	H	0.391172	-0.373558	-0.524682
H154	H	0.371359	-0.295370	-0.547304
O155	O	0.794136	-0.368869	-0.866869
C156	C	0.744302	-0.374077	-0.823937
H157	H	0.759140	-0.349128	-0.777304
H158	H	0.731263	-0.434771	-0.816961
C159	C	0.669214	-0.362124	-0.906731
C160	C	0.687436	-0.331476	-0.849457
H161	H	0.634136	-0.335849	-0.922473
H162	H	0.702788	-0.358618	-0.935656
H163	H	0.658353	-0.412701	-0.900910
H164	H	0.698305	-0.280903	-0.855280
H165	H	0.653864	-0.334972	-0.820533
H166	H	0.832772	-0.443495	-0.944932
H167	H	0.464986	-0.346709	-0.199778
H168	H	0.978252	-0.271080	-1.063742
O169	O	1.020182	-0.806324	-0.333249
C170	C	1.036110	-0.831402	-0.393590
H171	H	0.991699	-0.845324	-0.420566
H172	H	1.066530	-0.883021	-0.389678
C173	C	1.126954	-0.753162	-0.395213
C174	C	1.072408	-0.770256	-0.428348
H175	H	1.149347	-0.715446	-0.416653
H176	H	1.116225	-0.736268	-0.354559
H177	H	1.152297	-0.796183	-0.391956
H178	H	1.047063	-0.727238	-0.431598
H179	H	1.083134	-0.787141	-0.469003
H180	H	0.832713	-0.443591	-0.541296
H181	H	0.548189	-0.443795	-0.374731
H182	H	0.346282	-0.346688	-0.199822
H183	H	0.978235	-0.271109	-0.945036
O184	O	1.016841	-0.345767	-0.866982
C185	C	1.066664	-0.340577	-0.824101
H186	H	1.051815	-0.365543	-0.777444
H187	H	1.079703	-0.279886	-0.817163
C188	C	1.141772	-0.352501	-0.906966
C189	C	1.123535	-0.383171	-0.849662
H190	H	1.176854	-0.378771	-0.922734
H191	H	1.108206	-0.355995	-0.935856
H192	H	1.152633	-0.301926	-0.901176
H193	H	1.112666	-0.433741	-0.855455
H194	H	1.157101	-0.379686	-0.820774
O195	O	1.016765	-0.345909	-0.738058
C196	C	1.024794	-0.409134	-0.700196
H197	H	0.996016	-0.456888	-0.719895
H198	H	1.008571	-0.396355	-0.650597
C199	C	1.129700	-0.372298	-0.675035
C200	C	1.094359	-0.430953	-0.699232
H201	H	1.172611	-0.385757	-0.674438
H202	H	1.124290	-0.329701	-0.700541
H203	H	1.116174	-0.361655	-0.633704
H204	H	1.107880	-0.441590	-0.740565
H205	H	1.099773	-0.473553	-0.673733
H206	H	0.832727	-0.443562	-0.660006
O207	O	0.826430	-0.450961	-1.068691
C208	C	0.791051	-0.492917	-1.025759
H209	H	0.788888	-0.462513	-0.979118
H210	H	0.813970	-0.549315	-1.018805
C211	C	0.727022	-0.540977	-1.108548
C212	C	0.724362	-0.503631	-1.051265
H213	H	0.685886	-0.547589	-1.124282
H214	H	0.750859	-0.512713	-1.137473
H215	H	0.746124	-0.587971	-1.102745
H216	H	0.705267	-0.456634	-1.057070
H217	H	0.700520	-0.531887	-1.022342
H218	H	0.548183	-0.271229	-0.229589
H219	H	0.465171	-0.368285	-0.404590
H220	H	0.144547	-0.271131	-0.229733
O221	O	0.268306	-0.263669	-0.223340
C222	C	0.225397	-0.221672	-0.188060
H223	H	0.178727	-0.252076	-0.185862
H224	H	0.218506	-0.165303	-0.211088
C225	C	0.308201	-0.173526	-0.124082
C226	C	0.250881	-0.210873	-0.121379
H227	H	0.323921	-0.166861	-0.082951
H228	H	0.337110	-0.201818	-0.147853
H229	H	0.302451	-0.126556	-0.143275
H230	H	0.256633	-0.257845	-0.102194
H231	H	0.221973	-0.182588	-0.097604
