data_functionalizedCrystal
_audit_creation_method	'MofGen! by Chris Wilmer'
_symmetry_space_group_name_H-M	'P1'
_symmetry_Int_Tables_number	1
_symmetry_cell_setting	triclinic
loop_
_symmetry_equiv_pos_as_xyz
  x,y,z
_cell_length_a	18.101398
_cell_length_b	18.050590
_cell_length_c	18.050583
_cell_angle_alpha	89.966777
_cell_angle_beta	89.991034
_cell_angle_gamma	90.014109
loop_
_atom_site_label
_atom_site_type_symbol
_atom_site_fract_x
_atom_site_fract_y
_atom_site_fract_z
Zn1	Zn	1.132180	-0.295722	-0.419725
Zn2	Zn	1.632180	0.204278	0.080275
Zn3	Zn	1.132105	-0.419927	-0.295533
Zn4	Zn	1.632105	0.080073	0.204467
Zn5	Zn	1.008340	-0.295746	-0.295569
Zn6	Zn	1.508340	0.204254	0.204431
Zn7	Zn	1.008317	-0.419865	-0.419702
Zn8	Zn	1.508317	0.080135	0.080298
O9	O	1.070235	-0.357815	-0.357632
O10	O	1.570235	0.142185	0.142368
O11	O	1.235803	-0.312214	-0.403245
O12	O	1.735803	0.187786	0.096755
O13	O	1.115665	-0.403490	-0.191613
O14	O	1.615665	0.096510	0.308387
O15	O	1.024810	-0.191818	-0.312063
O16	O	1.524810	0.308182	0.187937
O17	O	1.235747	-0.403467	-0.312002
O18	O	1.735747	0.096533	0.187998
O19	O	1.115794	-0.191801	-0.403280
O20	O	1.615794	0.308199	0.096720
O21	O	1.024736	-0.312254	-0.191640
O22	O	1.524736	0.187746	0.308360
O23	O	0.904704	-0.312194	-0.312041
O24	O	1.404704	0.187806	0.187959
O25	O	1.024769	-0.403362	-0.523630
O26	O	1.524769	0.096638	-0.023630
O27	O	0.904687	-0.403385	-0.403241
O28	O	1.404687	0.096615	0.096759
O29	O	1.115771	-0.312155	-0.523647
O30	O	1.615771	0.187845	-0.023647
O31	O	1.115642	-0.523843	-0.311980
O32	O	1.615642	-0.023843	0.188020
O33	O	1.024696	-0.523798	-0.403206
O34	O	1.524696	-0.023798	0.096794
C35	C	0.877825	-0.357786	-0.357643
C36	C	1.377825	0.142214	0.142357
C37	C	0.795511	-0.357791	-0.357665
C38	C	1.295511	0.142209	0.142335
C39	C	0.496420	-0.357835	-0.357634
C40	C	0.996420	0.142165	0.142366
C41	C	0.527759	-0.415487	-0.414731
C42	C	1.027759	0.084513	0.085269
C43	C	0.613377	-0.415306	-0.414966
C44	C	1.113377	0.084694	0.085034
C45	C	0.644802	-0.357814	-0.357649
C46	C	1.144802	0.142186	0.142351
C47	C	0.613731	-0.279591	-0.379038
C48	C	1.113731	0.220409	0.120962
C49	C	0.528086	-0.279937	-0.379444
C50	C	1.028086	0.220063	0.120556
C51	C	0.527973	-0.377717	-0.279010
C52	C	1.027973	0.122283	0.220990
C53	C	0.613623	-0.379433	-0.279430
C54	C	1.113623	0.120567	0.220570
C55	C	0.728662	-0.357797	-0.357657
C56	C	1.228662	0.142203	0.142343
C57	C	0.412560	-0.357846	-0.357628
C58	C	0.912560	0.142154	0.142372
C59	C	1.070178	-0.550767	-0.357603
C60	C	1.570178	-0.050767	0.142397
C61	C	1.070222	-0.633313	-0.357615
C62	C	1.570222	-0.133313	0.142385
C63	C	1.119781	-0.832761	-0.308075
C64	C	1.619781	-0.332761	0.191925
C65	C	1.137870	-0.882090	-0.375853
C66	C	1.637870	-0.382090	0.124147
C67	C	1.070264	-0.784443	-0.357644
C68	C	1.570264	-0.284443	0.142356
C69	C	1.052251	-0.882197	-0.289898
C70	C	1.552251	-0.382197	0.210102
C71	C	1.070306	-0.930428	-0.357667
C72	C	1.570306	-0.430428	0.142333
C73	C	1.088387	-0.832684	-0.425457
C74	C	1.588387	-0.332684	0.074543
C75	C	1.002737	-0.832787	-0.339457
C76	C	1.502737	-0.332787	0.160543
C77	C	1.020799	-0.882093	-0.407281
C78	C	1.520799	-0.382093	0.092719
C79	C	1.070242	-0.700345	-0.357630
C80	C	1.570242	-0.200345	0.142370
C81	C	1.070328	-1.014525	-0.357689
C82	C	1.570328	-0.514525	0.142311
C83	C	1.263397	-0.357845	-0.357622
C84	C	1.763397	0.142155	0.142378
C85	C	1.345711	-0.357858	-0.357618
C86	C	1.845711	0.142142	0.142382
C87	C	1.070276	-0.357749	-0.551338
C88	C	1.570276	0.142251	-0.051338
C89	C	1.070293	-0.357720	-0.633884
C90	C	1.570293	0.142280	-0.133884
C91	C	1.070313	-0.164109	-0.357678
C92	C	1.570313	0.335891	0.142322
C93	C	1.070346	-0.081564	-0.357698
C94	C	1.570346	0.418436	0.142302
C95	C	1.119826	-0.308072	-0.882719
C96	C	1.619826	0.191928	-0.382719
C97	C	1.137908	-0.375837	-0.833301
C98	C	1.637908	0.124163	-0.333301
C99	C	1.070340	-0.357673	-0.931004
C100	C	1.570340	0.142327	-0.431004
C101	C	1.052269	-0.289936	-0.833341
C102	C	1.552269	0.210064	-0.333341
C103	C	1.070319	-0.357693	-0.785019
C104	C	1.570319	0.142307	-0.285019
C105	C	1.088458	-0.425474	-0.882674
C106	C	1.588458	0.074526	-0.382674
C107	C	1.002788	-0.339527	-0.882718
C108	C	1.502788	0.160473	-0.382718
C109	C	1.020845	-0.407339	-0.833322
C110	C	1.520845	0.092661	-0.333322
C111	C	1.070355	-0.357661	-1.015103
C112	C	1.570355	0.142339	-0.515103
C113	C	1.070304	-0.357713	-0.700923
C114	C	1.570304	0.142287	-0.200923
C115	C	1.070238	-0.357828	-0.164680
C116	C	1.570238	0.142172	0.335320
C117	C	1.070364	-0.357647	-0.082135
C118	C	1.570364	0.142353	0.417865
H119	H	0.507156	-0.473683	-0.401475
H120	H	1.007156	0.026317	0.098525
O121	O	0.934586	-0.806890	-0.321197
O122	O	1.434586	-0.306890	0.178803
C123	C	0.906532	-0.763898	-0.380047
C124	C	1.406532	-0.263898	0.119953
H125	H	0.934865	-0.780718	-0.433876
H126	H	1.434865	-0.280718	0.066124
H127	H	0.844487	-0.773440	-0.385196
H128	H	1.344487	-0.273440	0.114804
H129	H	0.917558	-0.702771	-0.368657
H130	H	1.417558	-0.202771	0.131343
O131	O	0.970781	-0.907815	-0.457253
O132	O	1.470781	-0.407815	0.042747
C133	C	0.917156	-0.950868	-0.420382
C134	C	1.417156	-0.450868	0.079618
H135	H	0.914961	-0.934212	-0.359512
H136	H	1.414961	-0.434212	0.140488
H137	H	0.860821	-0.941210	-0.446905
H138	H	1.360821	-0.441210	0.053095
H139	H	0.932322	-1.011993	-0.424915
H140	H	1.432322	-0.511993	0.075085
H141	H	1.036998	-0.903944	-0.232596
H142	H	1.536998	-0.403944	0.267404
O143	O	0.638406	-0.484550	-0.399104
O144	O	1.138406	0.015450	0.100896
C145	C	0.612236	-0.534696	-0.452908
C146	C	1.112236	-0.034696	0.047092
H147	H	0.598387	-0.503303	-0.505933
H148	H	1.098387	-0.003303	-0.005933
H149	H	0.656654	-0.577787	-0.465009
H150	H	1.156654	-0.077787	0.034991
H151	H	0.560506	-0.563548	-0.431291
H152	H	1.060506	-0.063548	0.068709
O153	O	1.169806	-0.807037	-0.258109
O154	O	1.669806	-0.307037	0.241891
C155	C	1.205324	-0.867358	-0.223541
C156	C	1.705324	-0.367358	0.276459
H157	H	1.201520	-0.918201	-0.260781
H158	H	1.701520	-0.418201	0.239219
H159	H	1.265860	-0.853055	-0.213591
H160	H	1.765860	-0.353055	0.286409
H161	H	1.177315	-0.879594	-0.168298
H162	H	1.677315	-0.379594	0.331702
H163	H	0.506372	-0.433782	-0.259573
H164	H	1.006372	0.066218	0.240427
H165	H	1.161715	-0.266169	-0.904407
H166	H	1.661715	0.233831	-0.404407
O167	O	1.033951	-0.221645	-0.807400
O168	O	1.533951	0.278355	-0.307400
C169	C	0.969072	-0.226750	-0.764465
C170	C	1.469072	0.273250	-0.264465
H171	H	0.962486	-0.285843	-0.743143
H172	H	1.462486	0.214157	-0.243143
H173	H	0.972982	-0.187051	-0.715525
H174	H	1.472982	0.312949	-0.215525
H175	H	0.919288	-0.211483	-0.800005
H176	H	1.419288	0.288517	-0.300005
O177	O	1.206071	-0.907802	-0.394200
O178	O	1.706071	-0.407802	0.105800
C179	C	1.254038	-0.847468	-0.406433
C180	C	1.754038	-0.347468	0.093567
H181	H	1.232230	-0.796631	-0.376040
H182	H	1.732230	-0.296631	0.123960
H183	H	1.311474	-0.861754	-0.384829
H184	H	1.811474	-0.361754	0.115171
H185	H	1.257200	-0.835231	-0.468321
H186	H	1.757200	-0.335231	0.031679
H187	H	0.506245	-0.402499	-0.472649
H188	H	1.006245	0.097501	0.027351
H189	H	1.195026	-0.391197	-0.811593
H190	H	1.695026	0.108803	-0.311593
O191	O	0.639283	-0.258979	-0.446841
O192	O	1.139283	0.241021	0.053159
C193	C	0.610838	-0.188622	-0.465219
C194	C	1.110838	0.311378	0.034781
H195	H	0.594861	-0.157980	-0.412389
H196	H	1.094861	0.342020	0.087611
H197	H	0.654654	-0.155515	-0.496274
H198	H	1.154654	0.344485	0.003726
H199	H	0.560001	-0.195477	-0.501856
H200	H	1.060001	0.304523	-0.001856
O201	O	0.970917	-0.457387	-0.807479
O202	O	1.470917	0.042613	-0.307479
C203	C	0.971040	-0.456438	-0.729375
C204	C	1.471040	0.043562	-0.229375
H205	H	0.993085	-0.400880	-0.709071
H206	H	1.493085	0.099120	-0.209071
H207	H	0.912309	-0.464726	-0.708112
H208	H	1.412309	0.035274	-0.208112
H209	H	1.007822	-0.502939	-0.707786
H210	H	1.507822	-0.002939	-0.207786
O211	O	1.106797	-0.493788	-0.908536
O212	O	1.606797	0.006212	-0.408536
C213	C	1.106605	-0.492948	-0.986642
C214	C	1.606605	0.007052	-0.486642
H215	H	1.114855	-0.433763	-1.007111
H216	H	1.614855	0.066237	-0.507111
H217	H	1.153321	-0.529393	-1.008191
H218	H	1.653321	-0.029393	-0.508191
H219	H	1.051488	-0.515008	-1.007783
H220	H	1.551488	-0.015008	-0.507783
H221	H	0.633940	-0.436994	-0.263299
H222	H	1.133940	0.063006	0.236701
H223	H	0.945686	-0.324145	-0.904441
H224	H	1.445686	0.175855	-0.404441
H225	H	0.633876	-0.402151	-0.473221
H226	H	1.133876	0.097849	0.026779
H227	H	0.508120	-0.263074	-0.436921
H228	H	1.008120	0.236926	0.063079
H229	H	0.507355	-0.235442	-0.339764
H230	H	1.007355	0.264558	0.160236
H231	H	1.103583	-0.811029	-0.482809
H232	H	1.603583	-0.311029	0.017191
O233	O	0.638043	-0.226869	-0.331084
O234	O	1.138043	0.273131	0.168916
C235	C	0.678624	-0.172860	-0.370228
C236	C	1.178624	0.327140	0.129772
H237	H	0.661337	-0.173333	-0.430953
H238	H	1.161337	0.326667	0.069047
H239	H	0.667215	-0.115883	-0.345540
H240	H	1.167215	0.384117	0.154460
H241	H	0.740133	-0.185692	-0.365845
H242	H	1.240133	0.314308	0.134155
O243	O	0.639177	-0.332888	-0.226045
O244	O	1.139177	0.167112	0.273955
C245	C	0.686064	-0.279527	-0.258398
C246	C	1.186064	0.220473	0.241602
H247	H	0.672341	-0.273754	-0.319765
H248	H	1.172341	0.226246	0.180235
H249	H	0.677748	-0.223928	-0.229660
H250	H	1.177748	0.276072	0.270340
H251	H	0.746017	-0.297749	-0.251930
H252	H	1.246017	0.202251	0.248070
O253	O	0.503697	-0.327583	-0.228341
O254	O	1.003697	0.172417	0.271659
C255	C	0.458449	-0.274754	-0.263724
C256	C	0.958449	0.225246	0.236276
H257	H	0.435069	-0.299392	-0.316923
H258	H	0.935069	0.200608	0.183077
H259	H	0.411127	-0.258671	-0.225286
H260	H	0.911127	0.241329	0.274714
H261	H	0.492562	-0.223483	-0.277573
H262	H	0.992562	0.276517	0.222427
