data_functionalizedCrystal
_audit_creation_method	'MofGen! by Chris Wilmer'
_symmetry_space_group_name_H-M	'P1'
_symmetry_Int_Tables_number	1
_symmetry_cell_setting	triclinic
loop_
_symmetry_equiv_pos_as_xyz
  x,y,z
_cell_length_a	21.295418
_cell_length_b	21.295417
_cell_length_c	21.295411
_cell_angle_alpha	89.978356
_cell_angle_beta	89.956262
_cell_angle_gamma	90.046319
loop_
_atom_site_label
_atom_site_type_symbol
_atom_site_fract_x
_atom_site_fract_y
_atom_site_fract_z
Zn1	Zn	0.962356	-0.250415	-0.356234
Zn2	Zn	1.295689	0.082918	-0.022900
Zn3	Zn	1.629022	0.416251	0.310433
Zn4	Zn	0.962258	-0.355667	-0.250959
Zn5	Zn	1.295592	-0.022334	0.082374
Zn6	Zn	1.628925	0.311000	0.415708
Zn7	Zn	0.857079	-0.250445	-0.250943
Zn8	Zn	1.190412	0.082889	0.082390
Zn9	Zn	1.523746	0.416222	0.415723
Zn10	Zn	0.857048	-0.355680	-0.356155
Zn11	Zn	1.190382	-0.022346	-0.022822
Zn12	Zn	1.523715	0.310987	0.310511
O13	O	0.909685	-0.303052	-0.303573
O14	O	1.243019	0.030282	0.029760
O15	O	1.576352	0.363615	0.363094
O16	O	1.050432	-0.264360	-0.342308
O17	O	1.383766	0.068974	-0.008975
O18	O	1.717099	0.402307	0.324359
O19	O	0.948278	-0.341716	-0.162867
O20	O	1.281611	-0.008383	0.170466
O21	O	1.614945	0.324950	0.503799
O22	O	0.871098	-0.162351	-0.264937
O23	O	1.204431	0.170982	0.068397
O24	O	1.537764	0.504315	0.401730
O25	O	1.050361	-0.341688	-0.264963
O26	O	1.383694	-0.008354	0.068370
O27	O	1.717027	0.324979	0.401704
O28	O	0.948444	-0.162330	-0.342293
O29	O	1.281778	0.171004	-0.008960
O30	O	1.615111	0.504337	0.324374
O31	O	0.871003	-0.264410	-0.162856
O32	O	1.204337	0.068923	0.170477
O33	O	1.537670	0.402257	0.503811
O34	O	0.768985	-0.264422	-0.264861
O35	O	1.102319	0.068911	0.068473
O36	O	1.435652	0.402245	0.401806
O37	O	0.871046	-0.341709	-0.444255
O38	O	1.204379	-0.008376	-0.110922
O39	O	1.537712	0.324958	0.222411
O40	O	0.768963	-0.341738	-0.342160
O41	O	1.102296	-0.008404	-0.008826
O42	O	1.435630	0.324929	0.324507
O43	O	0.948415	-0.264372	-0.444313
O44	O	1.281748	0.068962	-0.110979
O45	O	1.615081	0.402295	0.222354
O46	O	0.948248	-0.443758	-0.264887
O47	O	1.281582	-0.110425	0.068446
O48	O	1.614915	0.222909	0.401779
O49	O	0.870951	-0.443767	-0.342175
O50	O	1.204284	-0.110434	-0.008841
O51	O	1.537618	0.222899	0.324492
C52	C	0.746134	-0.303085	-0.303500
C53	C	1.079467	0.030249	0.029833
C54	C	1.412800	0.363582	0.363166
C55	C	0.676166	-0.303114	-0.303484
C56	C	1.009499	0.030219	0.029849
C57	C	1.342832	0.363553	0.363182
C58	C	0.909603	-0.466603	-0.303538
C59	C	1.242936	-0.133270	0.029795
C60	C	1.576269	0.200063	0.363129
C61	C	0.909625	-0.536571	-0.303544
C62	C	1.242958	-0.203238	0.029789
C63	C	1.576292	0.130095	0.363123
C64	C	0.643304	-0.343426	-0.343674
C65	C	0.976637	-0.010092	-0.010340
C66	C	1.309970	0.323241	0.322993
C67	C	0.577561	-0.343410	-0.343702
C68	C	0.910894	-0.010077	-0.010369
C69	C	1.244228	0.323257	0.322965
C70	C	0.544683	-0.303090	-0.303530
C71	C	0.878016	0.030244	0.029804
C72	C	1.211350	0.363577	0.363137
C73	C	0.577553	-0.262770	-0.263337
C74	C	0.910886	0.070563	0.069996
C75	C	1.244220	0.403896	0.403329
C76	C	0.643294	-0.262783	-0.263315
C77	C	0.976627	0.070551	0.070018
C78	C	1.309961	0.403884	0.403352
N79	N	0.441407	-0.298163	-0.248472
N80	N	0.774740	0.035171	0.084861
N81	N	1.108074	0.368504	0.418195
N82	N	0.378956	-0.298155	-0.248495
N83	N	0.712289	0.035179	0.084838
N84	N	1.045622	0.368512	0.418171
C85	C	0.346608	-0.303050	-0.303596
C86	C	0.679942	0.030284	0.029737
C87	C	1.013275	0.363617	0.363070
N88	N	0.379072	-0.307965	-0.358675
N89	N	0.712405	0.025368	-0.025341
N90	N	1.045739	0.358702	0.307992
N91	N	0.441529	-0.307976	-0.358650
N92	N	0.774862	0.025357	-0.025317
N93	N	1.108196	0.358691	0.308016
C94	C	0.473398	-0.303072	-0.303550
C95	C	0.806731	0.030262	0.029783
C96	C	1.140064	0.363595	0.363117
C97	C	0.242461	-0.343346	-0.343820
C98	C	0.575794	-0.010013	-0.010486
C99	C	0.909128	0.323320	0.322847
C100	C	0.176717	-0.343326	-0.343849
C101	C	0.510051	-0.009993	-0.010516
C102	C	0.843384	0.323340	0.322818
C103	C	0.176710	-0.262690	-0.263479
C104	C	0.510044	0.070643	0.069854
C105	C	0.843377	0.403977	0.403188
C106	C	0.242453	-0.262707	-0.263455
C107	C	0.575786	0.070627	0.069878
C108	C	0.909119	0.403960	0.403211
C109	C	0.275324	-0.303038	-0.303625
C110	C	0.608657	0.030295	0.029709
C111	C	0.941991	0.363628	0.363042
C112	C	0.949910	-0.569412	-0.263342
C113	C	1.283243	-0.236079	0.069991
C114	C	1.616576	0.097254	0.403325
C115	C	0.949939	-0.635155	-0.263356
C116	C	1.283272	-0.301822	0.069977
C117	C	1.616606	0.031512	0.403311
C118	C	0.909673	-0.668054	-0.303566
C119	C	1.243006	-0.334721	0.029767
C120	C	1.576340	-0.001387	0.363101
C121	C	0.869386	-0.635205	-0.343776
C122	C	1.202719	-0.301872	-0.010443
C123	C	1.536052	0.031462	0.322891
C124	C	0.869362	-0.569464	-0.343765
C125	C	1.202695	-0.236130	-0.010432
C126	C	1.536028	0.097203	0.322902
N127	N	0.854606	-0.771336	-0.308340
N128	N	1.187939	-0.438002	0.024993
N129	N	1.521272	-0.104669	0.358326
N130	N	0.854630	-0.833787	-0.308347
N131	N	1.187964	-0.500454	0.024986
N132	N	1.521297	-0.167120	0.358320
C133	C	0.909743	-0.866129	-0.303602
C134	C	1.243077	-0.532795	0.029731
C135	C	1.576410	-0.199462	0.363065
N136	N	0.964832	-0.833659	-0.298838
N137	N	1.298166	-0.500326	0.034496
N138	N	1.631499	-0.166993	0.367829
N139	N	0.964807	-0.771202	-0.298828
N140	N	1.298140	-0.437869	0.034506
N141	N	1.631474	-0.104535	0.367839
C142	C	0.909695	-0.739339	-0.303582
C143	C	1.243028	-0.406006	0.029751
C144	C	1.576361	-0.072673	0.363084
C145	C	0.950063	-0.970255	-0.263413
C146	C	1.283397	-0.636922	0.069920
C147	C	1.616730	-0.303588	0.403254
C148	C	0.950094	-1.035999	-0.263431
C149	C	1.283427	-0.702665	0.069902
C150	C	1.616760	-0.369332	0.403235
C151	C	0.869535	-1.036048	-0.343848
C152	C	1.202868	-0.702714	-0.010515
C153	C	1.536201	-0.369381	0.322819
C154	C	0.869510	-0.970305	-0.343833
C155	C	1.202843	-0.636972	-0.010500
C156	C	1.536176	-0.303638	0.322834
C157	C	0.909773	-0.937413	-0.303612
C158	C	1.243106	-0.604079	0.029721
C159	C	1.576440	-0.270746	0.363055
C160	C	1.073876	-0.303019	-0.303646
C161	C	1.407209	0.030314	0.029687
C162	C	1.740542	0.363648	0.363021
C163	C	1.143844	-0.303005	-0.303677
C164	C	1.477177	0.030328	0.029656
C165	C	1.810510	0.363662	0.362990
C166	C	0.909738	-0.303038	-0.467763
C167	C	1.243071	0.030295	-0.134430
C168	C	1.576404	0.363628	0.198903
C169	C	0.909760	-0.303033	-0.537731
C170	C	1.243093	0.030301	-0.204398
C171	C	1.576427	0.363634	0.128935
C172	C	0.909785	-0.138861	-0.303622
C173	C	1.243119	0.194472	0.029712
C174	C	1.576452	0.527805	0.363045
C175	C	0.909828	-0.068893	-0.303642
C176	C	1.243161	0.264440	0.029691
C177	C	1.576495	0.597773	0.363024
C178	C	0.950044	-0.262761	-0.570629
C179	C	1.283377	0.070572	-0.237296
C180	C	1.616711	0.403905	0.096038
C181	C	0.950043	-0.262734	-0.636371
C182	C	1.283377	0.070599	-0.303038
C183	C	1.616710	0.403933	0.030295
C184	C	0.909765	-0.302989	-0.669214
C185	C	1.243098	0.030344	-0.335881
C186	C	1.576431	0.363677	-0.002547
C187	C	0.869473	-0.343263	-0.636308
C188	C	1.202806	-0.009930	-0.302975
C189	C	1.536139	0.323403	0.030358
C190	C	0.869470	-0.343285	-0.570567
C191	C	1.202804	-0.009952	-0.237234
C192	C	1.536137	0.323382	0.096100
N193	N	0.904908	-0.358058	-0.772428
N194	N	1.238241	-0.024725	-0.439094
N195	N	1.571575	0.308608	-0.105761
N196	N	0.904914	-0.358036	-0.834879
N197	N	1.238247	-0.024703	-0.501546
N198	N	1.571581	0.308631	-0.168213
C199	C	0.909769	-0.302926	-0.867289
C200	C	1.243102	0.030408	-0.533955
C201	C	1.576435	0.363741	-0.200622
N202	N	0.914629	-0.247837	-0.834888
N203	N	1.247963	0.085496	-0.501554
N204	N	1.581296	0.418830	-0.168221
N205	N	0.914627	-0.247860	-0.772430
N206	N	1.247960	0.085473	-0.439097
N207	N	1.581293	0.418807	-0.105764
C208	C	0.909763	-0.302970	-0.740499
C209	C	1.243096	0.030363	-0.407166
C210	C	1.576429	0.363697	-0.073833
C211	C	0.950054	-0.262621	-0.971472
C212	C	1.283388	0.070712	-0.638139
C213	C	1.616721	0.404045	-0.304805
C214	C	0.950049	-0.262593	-1.037216
C215	C	1.283382	0.070740	-0.703882
C216	C	1.616716	0.404074	-0.370549
C217	C	0.869482	-0.343128	-1.037151
C218	C	1.202815	-0.009795	-0.703818
C219	C	1.536148	0.323539	-0.370485
C220	C	0.869484	-0.343151	-0.971409
C221	C	1.202817	-0.009817	-0.638076
C222	C	1.536150	0.323516	-0.304742
C223	C	0.909773	-0.302898	-0.938573
C224	C	1.243107	0.030435	-0.605240
C225	C	1.576440	0.363769	-0.271906
C226	C	0.909670	-0.303019	-0.140021
C227	C	1.243003	0.030314	0.193312
C228	C	1.576336	0.363647	0.526645
C229	C	0.909769	-0.302848	-0.070054
C230	C	1.243103	0.030486	0.263280
C231	C	1.576436	0.363819	0.596613
H232	H	0.670063	-0.376266	-0.376384
H233	H	1.003397	-0.042932	-0.043050
H234	H	1.336730	0.290401	0.290283
H235	H	0.982746	-0.661899	-0.230619
H236	H	1.316079	-0.328566	0.102715
H237	H	1.649412	0.004767	0.436048
H238	H	0.836663	-0.376078	-0.543782
H239	H	1.169996	-0.042745	-0.210449
H240	H	1.503330	0.290589	0.122884
H241	H	0.982850	-0.229984	-0.543898
H242	H	1.316184	0.103349	-0.210565
H243	H	1.649517	0.436683	0.122769
H244	H	0.982852	-0.229795	-1.064000
H245	H	1.316186	0.103538	-0.730666
H246	H	1.649519	0.436871	-0.397333
N247	N	0.828349	-0.936753	-0.384887
N248	N	1.161682	-0.603420	-0.051553
N249	N	1.495016	-0.270086	0.281780
N250	N	0.788234	-0.900127	-0.362683
N251	N	1.121567	-0.566793	-0.029349
N252	N	1.454901	-0.233460	0.303984
H253	H	0.759164	-0.876429	-0.391680
H254	H	1.092497	-0.543096	-0.058347
H255	H	1.425831	-0.209763	0.274986
N256	N	0.676866	-0.221597	-0.222267
N257	N	1.010199	0.111736	0.111066
N258	N	1.343532	0.445070	0.444399
N259	N	0.669590	-0.163515	-0.226556
N260	N	1.002924	0.169818	0.106777
N261	N	1.336257	0.503151	0.440110
H262	H	0.693302	-0.134427	-0.197566
H263	H	1.026635	0.198906	0.135767
H264	H	1.359968	0.532240	0.469101
N265	N	0.143135	-0.384499	-0.384902
N266	N	0.476469	-0.051165	-0.051568
N267	N	0.809802	0.282168	0.281765
N268	N	0.106517	-0.362406	-0.425070
N269	N	0.439851	-0.029073	-0.091736
N270	N	0.773184	0.304260	0.241597
H271	H	0.082797	-0.391485	-0.454063
H272	H	0.416131	-0.058151	-0.120729
H273	H	0.749464	0.275182	0.212604
N274	N	0.828217	-0.535915	-0.384840
N275	N	1.161550	-0.202582	-0.051507
N276	N	1.494883	0.130751	0.281826
N277	N	0.832370	-0.543219	-0.442933
N278	N	1.165704	-0.209885	-0.109599
N279	N	1.499037	0.123448	0.223734
H280	H	0.803311	-0.519524	-0.471943
H281	H	1.136645	-0.186191	-0.138610
H282	H	1.469978	0.147143	0.194723
H283	H	0.149942	-0.229857	-0.230773
H284	H	0.483275	0.103476	0.102560
H285	H	0.816608	0.436809	0.435894
H286	H	0.269226	-0.376183	-0.376531
H287	H	0.602560	-0.042850	-0.043198
H288	H	0.935893	0.290483	0.290135
N289	N	0.276014	-0.221526	-0.222397
N290	N	0.609348	0.111807	0.110937
N291	N	0.942681	0.445140	0.444270
N292	N	0.246654	-0.185527	-0.186532
N293	N	0.579988	0.147807	0.146801
N294	N	0.913321	0.481140	0.480134
H295	H	0.270357	-0.156439	-0.157533
H296	H	0.603690	0.176894	0.175800
H297	H	0.937023	0.510227	0.509133
N298	N	0.991194	-0.221588	-0.669975
N299	N	1.324527	0.111746	-0.336642
N300	N	1.657861	0.445079	-0.003309
N301	N	1.027158	-0.185649	-0.640650
N302	N	1.360492	0.147685	-0.307317
N303	N	1.693825	0.481018	0.026017
H304	H	1.056221	-0.156588	-0.664380
H305	H	1.389554	0.176746	-0.331047
H306	H	1.722887	0.510079	0.002286
N307	N	0.828404	-1.069636	-0.384931
N308	N	1.161737	-0.736302	-0.051597
N309	N	1.495071	-0.402969	0.281736
N310	N	0.832548	-1.062254	-0.443020
N311	N	1.165881	-0.728921	-0.109687
N312	N	1.499215	-0.395587	0.223646
H313	H	0.803500	-1.085978	-0.472039
H314	H	1.136833	-0.752645	-0.138705
H315	H	1.470166	-0.419311	0.194628
N316	N	0.828262	-0.668817	-0.384849
N317	N	1.161596	-0.335484	-0.051516
N318	N	1.494929	-0.002150	0.281817
N319	N	0.828288	-0.727514	-0.384853
N320	N	1.161622	-0.394181	-0.051520
N321	N	1.494955	-0.060847	0.281813
H322	H	0.799246	-0.751253	-0.413865
H323	H	1.132579	-0.417920	-0.080532
H324	H	1.465912	-0.084586	0.252802
H325	H	0.836683	-0.375948	-0.944623
H326	H	1.170017	-0.042614	-0.611290
H327	H	1.503350	0.290719	-0.277957
H328	H	0.982696	-0.542633	-0.230593
H329	H	1.316029	-0.209300	0.102740
H330	H	1.649363	0.124033	0.436073
N331	N	0.828329	-0.384375	-0.669863
N332	N	1.161662	-0.051042	-0.336529
N333	N	1.494996	0.282291	-0.003196
N334	N	0.828336	-0.384351	-0.728560
N335	N	1.161670	-0.051018	-0.395226
N336	N	1.495003	0.282315	-0.061893
H337	H	0.799275	-0.413385	-0.752258
H338	H	1.132608	-0.080052	-0.418925
H339	H	1.465942	0.253281	-0.085591
H340	H	0.836680	-0.375898	-1.063891
H341	H	1.170013	-0.042565	-0.730558
H342	H	1.503346	0.290769	-0.397224
H343	H	0.982850	-0.943473	-0.230664
H344	H	1.316184	-0.610140	0.102669
H345	H	1.649517	-0.276806	0.436002
H346	H	0.982902	-1.062737	-0.230695
H347	H	1.316235	-0.729403	0.102638
H348	H	1.649569	-0.396070	0.435971
H349	H	0.982857	-0.229842	-0.944736
H350	H	1.316190	0.103492	-0.611402
H351	H	1.649524	0.436825	-0.278069
H352	H	0.550779	-0.229940	-0.230630
H353	H	0.884113	0.103393	0.102703
H354	H	1.217446	0.436727	0.436037
N355	N	0.543994	-0.384592	-0.384761
N356	N	0.877327	-0.051259	-0.051428
N357	N	1.210661	0.282075	0.281905
N358	N	0.573351	-0.420596	-0.420624
N359	N	0.906684	-0.087263	-0.087291
N360	N	1.240018	0.246071	0.246043
H361	H	0.549646	-0.449682	-0.449622
H362	H	0.882980	-0.116349	-0.116289
H363	H	1.216313	0.216985	0.217045
