data_functionalizedCrystal
_audit_creation_method	'MofGen! by Chris Wilmer'
_symmetry_space_group_name_H-M	'P1'
_symmetry_Int_Tables_number	1
_symmetry_cell_setting	triclinic
loop_
_symmetry_equiv_pos_as_xyz
  x,y,z
_cell_length_a	17.699083
_cell_length_b	9.730217
_cell_length_c	17.699083
_cell_angle_alpha	90.004134
_cell_angle_beta	83.283015
_cell_angle_gamma	89.995378
loop_
_atom_site_label
_atom_site_type_symbol
_atom_site_fract_x
_atom_site_fract_y
_atom_site_fract_z
O1	O	1.004073	0.114100	0.095710
O2	O	0.783694	0.114145	0.108162
O3	O	0.900110	0.114109	-0.008253
O4	O	0.887657	0.114136	0.212125
O5	O	0.900106	-0.114471	-0.008254
O6	O	0.783691	-0.114435	0.108161
O7	O	1.004069	-0.114480	0.095709
Zn8	Zn	0.893879	-0.150749	0.101935
Zn9	Zn	0.893884	0.150415	0.101936
O10	O	0.887654	-0.114444	0.212124
C11	C	0.755495	-0.000139	0.107716
C12	C	0.671477	-0.000122	0.106377
N13	N	0.893882	-0.356286	0.101934
C14	C	0.622856	-0.000114	0.174710
C15	C	0.543913	-0.000132	0.173448
C16	C	0.513592	-0.000148	0.103852
C17	C	0.562219	-0.000160	0.035513
C18	C	0.641161	-0.000152	0.036776
C19	C	0.243856	-0.000195	0.030418
C20	C	0.164908	-0.000199	0.029160
C21	C	0.146608	-0.000175	0.167090
C22	C	0.225550	-0.000167	0.168353
C23	C	0.274170	-0.000186	0.100015
C24	C	0.359769	-0.000169	0.101384
C25	C	0.427995	-0.000155	0.102481
C26	C	0.997009	-0.356309	-0.001123
C27	C	1.048578	-0.428260	-0.052649
C28	C	1.048586	-0.572139	-0.052649
C29	C	0.997018	-0.644071	-0.001120
C30	C	0.945449	-0.572120	0.050406
C31	C	0.945448	-0.428237	0.050403
C32	C	0.842319	-0.572098	0.153458
C33	C	0.842313	-0.428218	0.153463
C34	C	0.790751	-0.644029	0.204987
C35	C	0.739184	-0.572078	0.256518
C36	C	0.739179	-0.428190	0.256517
C37	C	0.790745	-0.356267	0.204989
C38	C	1.032268	-0.000193	0.096156
C39	C	1.116286	-0.000201	0.097494
C40	C	0.899662	-0.000181	-0.036451
C41	C	0.898323	-0.000181	-0.120469
N42	N	0.893888	0.355951	0.101932
C43	C	0.966656	-0.000197	-0.169090
C44	C	0.965394	-0.000185	-0.248033
C45	C	0.895798	-0.000166	-0.278354
C46	C	0.827459	-0.000146	-0.229727
C47	C	0.828722	-0.000149	-0.150785
C48	C	0.822364	-0.000134	-0.548090
C49	C	0.821106	-0.000135	-0.627038
C50	C	0.959036	-0.000170	-0.645338
C51	C	0.960299	-0.000173	-0.566396
C52	C	0.891961	-0.000145	-0.517776
C53	C	0.893330	-0.000156	-0.432177
C54	C	0.894427	-0.000165	-0.363951
C55	C	0.888102	-0.000151	0.240322
C56	C	0.889440	-0.000142	0.324340
H57	H	0.647537	-0.000100	0.231384
O58	O	0.689055	-0.358514	0.306644
C59	C	0.643533	-0.452861	0.352106
H60	H	0.674564	-0.555425	0.352923
H61	H	0.631863	-0.411287	0.412566
H62	H	0.587363	-0.468163	0.327591
H63	H	0.790756	-0.761184	0.204982
H64	H	0.997021	-0.761226	-0.001130
O65	O	0.532894	-0.000232	-0.032160
C66	C	0.592739	-0.000202	-0.092202
H67	H	0.646331	-0.043476	-0.071085
H68	H	0.576335	-0.066567	-0.140804
H69	H	0.603944	0.109458	-0.113270
H70	H	0.790748	-0.239112	0.204986
O71	O	0.753430	-0.000045	-0.656366
C72	C	0.693382	-0.000051	-0.596526
H73	H	0.714500	0.043216	-0.542933
H74	H	0.644790	0.066333	-0.612936
H75	H	0.672301	-0.109703	-0.585320
H76	H	0.680748	-0.000158	-0.018868
H77	H	1.014680	-0.000185	-0.684934
O78	O	1.034330	-0.000151	-0.139765
C79	C	1.094371	-0.000192	-0.199612
H80	H	1.073250	0.043085	-0.253199
H81	H	1.142970	0.066166	-0.183203
H82	H	1.115444	-0.109856	-0.210826
O83	O	0.689169	-0.642163	0.306539
C84	C	0.700215	-0.784583	0.295471
H85	H	0.760441	-0.804238	0.267110
H86	H	0.691683	-0.839267	0.352796
H87	H	0.657454	-0.825407	0.257557
O88	O	0.255129	-0.000073	0.235893
C89	C	0.335231	-0.000093	0.222354
H90	H	0.353872	0.043161	0.163252
H91	H	0.359381	0.066295	0.266873
H92	H	0.357211	-0.109747	0.225989
H93	H	0.107012	-0.000166	0.222734
H94	H	0.997014	-0.239154	-0.001121
H95	H	0.766718	-0.000112	-0.508512
O96	O	1.031755	0.000044	-0.295291
C97	C	1.035151	0.118417	-0.341505
H98	H	0.996395	0.201166	-0.312518
H99	H	1.096135	0.158139	-0.350486
H100	H	1.015671	0.091666	-0.398880
O101	O	0.135580	-0.000284	-0.038516
C102	C	0.195420	-0.000268	-0.098564
H103	H	0.249014	-0.043535	-0.077448
H104	H	0.179011	-0.066646	-0.147158
H105	H	0.206624	0.109388	-0.119641
O106	O	1.027971	-0.000129	-0.537069
C107	C	1.088015	-0.000172	-0.596913
H108	H	1.066898	0.043106	-0.650501
H109	H	1.136614	0.066183	-0.580501
H110	H	1.109087	-0.109837	-0.608126
H111	H	0.770792	-0.000122	-0.254420
H112	H	0.283434	-0.000212	-0.025228
O113	O	0.762364	0.000107	-0.103520
C114	C	0.758981	0.118475	-0.057293
H115	H	0.797739	0.201207	-0.086275
H116	H	0.697999	0.158229	-0.048300
H117	H	0.778467	0.091706	0.000075
O118	O	1.098674	-0.358172	-0.102596
C119	C	1.087619	-0.215750	-0.091544
H120	H	1.059165	-0.196109	-0.031352
H121	H	1.144960	-0.161106	-0.099971
H122	H	1.049796	-0.174871	-0.134373
H123	H	0.504328	-0.000124	0.229092
O124	O	1.098747	-0.641827	-0.102733
C125	C	1.144244	-0.547495	-0.148232
H126	H	1.145042	-0.444925	-0.117205
H127	H	1.204705	-0.589081	-0.159855
H128	H	1.119775	-0.532201	-0.204427
