data_functionalizedCrystal
_audit_creation_method	'MofGen! by Chris Wilmer'
_symmetry_space_group_name_H-M	'P1'
_symmetry_Int_Tables_number	1
_symmetry_cell_setting	triclinic
loop_
_symmetry_equiv_pos_as_xyz
  x,y,z
_cell_length_a	14.519709
_cell_length_b	15.995350
_cell_length_c	12.996460
_cell_angle_alpha	89.996249
_cell_angle_beta	89.999498
_cell_angle_gamma	83.586260
loop_
_atom_site_label
_atom_site_type_symbol
_atom_site_fract_x
_atom_site_fract_y
_atom_site_fract_z
O1	O	1.223670	0.109760	-0.085428
O2	O	0.955170	0.122685	-0.085458
O3	O	1.096760	-0.005654	-0.085441
O4	O	1.082080	0.238099	-0.085445
O5	O	1.096743	-0.005661	0.085693
O6	O	0.955154	0.122679	0.085675
O7	O	1.223654	0.109753	0.085706
Cu8	Cu	1.089402	0.116215	0.101317
Cu9	Cu	1.089421	0.116223	-0.101069
O10	O	1.082064	0.238093	0.085689
C11	C	0.920803	0.122080	0.000104
C12	C	0.818425	0.120275	0.000092
C13	C	1.096145	-0.036853	0.000124
C14	C	1.094325	-0.129806	0.000118
C15	C	0.443541	0.113629	0.000139
C16	C	0.547846	0.115475	0.000126
C17	C	0.630980	0.116952	0.000115
C18	C	0.735291	0.118797	0.000104
C19	C	1.087791	-0.467563	0.000120
C20	C	0.986954	-0.420280	-0.000275
C21	C	0.988773	-0.323587	0.000111
C22	C	1.091032	-0.299998	0.000118
C23	C	1.140760	-0.341005	0.097848
C24	C	1.138227	-0.437644	0.097930
C25	C	1.140328	-0.437992	-0.096681
C26	C	1.140304	-0.341046	-0.097973
C27	C	1.092869	-0.205298	0.000121
C28	C	1.085957	-0.562264	0.000125
C29	C	1.258021	0.110359	0.000141
C30	C	1.360399	0.112164	0.000146
C31	C	1.082679	0.269292	0.000122
C32	C	1.084498	0.362245	0.000121
N33	N	1.089395	0.116209	0.243664
C34	C	1.089413	0.116226	0.663478
C35	C	1.089406	0.116225	0.546673
C36	C	1.089405	0.116219	0.453575
C37	C	1.089396	0.116215	0.336762
N38	N	1.089427	0.116226	0.756584
H39	H	0.949684	-0.295221	-0.069946
H40	H	0.946657	-0.438870	-0.070359
H41	H	1.106208	-0.312678	0.170570
N42	N	1.240269	-0.322138	0.102685
H43	H	1.270880	-0.349103	0.166106
H44	H	1.274353	-0.345404	0.039342
N45	N	1.092229	-0.304957	-0.193755
H46	H	1.068138	-0.351649	-0.234580
H47	H	1.038789	-0.262183	-0.173626
H48	H	1.107366	-0.458578	-0.170754
H49	H	0.949408	-0.295784	0.070278
N50	N	0.933787	-0.446309	0.092028
H51	H	0.974737	-0.488597	0.134098
H52	H	0.913674	-0.395231	0.135586
H53	H	1.214876	-0.325573	-0.103868
H54	H	1.101952	-0.456003	0.170979
H55	H	1.212260	-0.469782	0.102369
N56	N	1.238810	-0.479909	-0.097552
H57	H	1.249383	-0.517873	-0.035581
H58	H	1.249831	-0.514334	-0.162424
