data_functionalizedCrystal
_audit_creation_method	'MofGen! by Chris Wilmer'
_symmetry_space_group_name_H-M	'P1'
_symmetry_Int_Tables_number	1
_symmetry_cell_setting	triclinic
loop_
_symmetry_equiv_pos_as_xyz
  x,y,z
_cell_length_a	12.827893
_cell_length_b	15.297327
_cell_length_c	12.827885
_cell_angle_alpha	80.357285
_cell_angle_beta	90.019272
_cell_angle_gamma	99.706564
loop_
_atom_site_label
_atom_site_type_symbol
_atom_site_fract_x
_atom_site_fract_y
_atom_site_fract_z
Zn1	Zn	1.525601	-0.359117	0.662774
Zn2	Zn	1.495216	-0.510002	0.518254
Zn3	Zn	1.350834	-0.359161	0.488057
Zn4	Zn	1.320562	-0.509935	0.692941
O5	O	1.423053	-0.434554	0.590506
O6	O	1.667805	-0.379142	0.643616
O7	O	1.476016	-0.490040	0.368022
O8	O	1.399403	-0.232910	0.485971
O9	O	1.645481	-0.489997	0.537438
O10	O	1.527804	-0.232878	0.614335
O11	O	1.369939	-0.379217	0.345836
O12	O	1.200584	-0.379152	0.515222
O13	O	1.347808	-0.489883	0.835166
O14	O	1.178343	-0.489925	0.665749
O15	O	1.498450	-0.379077	0.813003
O16	O	1.446662	-0.636239	0.566689
O17	O	1.318345	-0.636189	0.695031
C18	C	1.151547	-0.434537	0.590483
C19	C	1.035391	-0.434551	0.590502
C20	C	0.972611	-0.489451	0.664907
C21	C	0.852558	-0.489467	0.664929
C22	C	1.375950	-0.668948	0.637433
C23	C	1.355894	-0.769223	0.657544
C24	C	1.566825	-1.051858	0.447130
C25	C	1.585667	-0.957645	0.428230
C26	C	1.528226	-0.910535	0.485557
C27	C	1.451938	-0.957647	0.561787
C28	C	1.433088	-1.051869	0.580683
C29	C	1.394489	-0.910546	0.619110
C30	C	1.318201	-0.957658	0.695340
C31	C	1.299355	-1.051871	0.714233
C32	C	1.356796	-1.098981	0.656906
C33	C	1.413339	-0.816324	0.600214
C34	C	1.279602	-0.816335	0.733767
C35	C	1.260760	-0.910548	0.752667
C36	C	1.695620	-0.434572	0.590531
C37	C	1.811771	-0.434580	0.590541
C38	C	1.423142	-0.434468	0.863059
C39	C	1.423180	-0.434431	0.979205
C40	C	1.470370	-0.199245	0.543419
C41	C	1.490533	-0.098970	0.523353
C42	C	1.423038	-0.434575	0.319001
C43	C	1.423254	-0.434358	0.202805
C44	C	1.497731	-0.379590	1.020021
C45	C	1.497772	-0.379551	1.140063
H46	H	0.798610	-0.536471	0.728627
Cl47	Cl	0.981162	-0.361994	0.492177
Cl48	Cl	0.895049	-0.362012	0.492178
H49	H	1.561601	-0.332602	1.175206
H50	H	1.475453	-0.777973	0.538147
H51	H	1.647779	-0.919290	0.366164
Cl52	Cl	1.324707	-0.506859	1.148562
Cl53	Cl	1.332687	-1.217425	0.680239
Cl54	Cl	1.552202	-0.792094	0.462082
H55	H	1.613579	-1.090224	0.400457
Cl56	Cl	1.324673	-0.506873	1.062456
H57	H	1.007743	-0.536437	0.728595
Cl58	Cl	1.203445	-1.111096	0.810061
Cl59	Cl	1.164857	-0.969785	0.848495
H60	H	1.232826	-0.777979	0.780445
Cl61	Cl	1.596211	-0.307120	0.936765
