data_functionalizedCrystal
_audit_creation_method	'MofGen! by Chris Wilmer'
_symmetry_space_group_name_H-M	'P1'
_symmetry_Int_Tables_number	1
_symmetry_cell_setting	triclinic
loop_
_symmetry_equiv_pos_as_xyz
  x,y,z
_cell_length_a	25.639239
_cell_length_b	18.215407
_cell_length_c	18.215398
_cell_angle_alpha	89.980536
_cell_angle_beta	89.972491
_cell_angle_gamma	90.039134
loop_
_atom_site_label
_atom_site_type_symbol
_atom_site_fract_x
_atom_site_fract_y
_atom_site_fract_z
Zn1	Zn	-0.208163	1.124999	-0.416105
Zn2	Zn	0.291837	1.624999	0.083895
Zn3	Zn	-0.295595	1.124878	-0.293034
Zn4	Zn	0.204405	1.624878	0.206966
Zn5	Zn	-0.208176	1.001932	-0.293053
Zn6	Zn	0.291824	1.501932	0.206947
Zn7	Zn	-0.295570	1.001867	-0.416059
Zn8	Zn	0.204430	1.501867	0.083941
O9	O	-0.251876	1.063419	-0.354563
O10	O	0.248124	1.563419	0.145437
O11	O	-0.219766	1.227967	-0.399791
O12	O	0.280234	1.727967	0.100209
O13	O	-0.284015	1.108546	-0.190052
O14	O	0.215985	1.608546	0.309948
O15	O	-0.135009	1.018335	-0.309403
O16	O	0.364991	1.518335	0.190597
O17	O	-0.284002	1.227878	-0.309372
O18	O	0.215998	1.727878	0.190628
O19	O	-0.134999	1.108751	-0.399809
O20	O	0.365001	1.608751	0.100191
O21	O	-0.219789	1.018218	-0.190066
O22	O	0.280211	1.518218	0.309934
O23	O	-0.219764	0.898939	-0.309358
O24	O	0.280236	1.398939	0.190642
O25	O	-0.283959	1.018225	-0.519050
O26	O	0.216041	1.518225	-0.019050
O27	O	-0.283972	0.898892	-0.399731
O28	O	0.216028	1.398892	0.100269
O29	O	-0.219742	1.108688	-0.519083
O30	O	0.280258	1.608688	-0.019083
O31	O	-0.368757	1.108483	-0.309327
O32	O	0.131243	1.608483	0.190673
O33	O	-0.368738	1.018108	-0.399713
O34	O	0.131262	1.518108	0.100287
C35	C	-0.251867	0.872213	-0.354542
C36	C	0.248133	1.372213	0.145458
C37	C	-0.251876	0.790414	-0.354550
C38	C	0.248124	1.290414	0.145450
C39	C	-0.285361	0.602215	-0.401548
C40	C	0.214639	1.102215	0.098452
C41	C	-0.285363	0.525356	-0.401557
C42	C	0.214637	1.025356	0.098443
C43	C	-0.218400	0.525376	-0.307594
C44	C	0.281600	1.025376	0.192406
C45	C	-0.218396	0.602233	-0.307589
C46	C	0.281604	1.102233	0.192411
C47	C	-0.251880	0.640650	-0.354565
C48	C	0.248120	1.140650	0.145435
C49	C	-0.251885	0.486934	-0.354579
C50	C	0.248115	0.986934	0.145421
C51	C	-0.251887	0.403601	-0.354589
C52	C	0.248113	0.903601	0.145411
C53	C	-0.251878	0.723989	-0.354556
C54	C	0.248122	1.223989	0.145444
C55	C	-0.387719	1.063295	-0.354529
C56	C	0.112281	1.563295	0.145471
C57	C	-0.445833	1.063310	-0.354539
C58	C	0.054167	1.563310	0.145461
C59	C	-0.806193	1.110600	-0.307579
C60	C	-0.306193	1.610600	0.192421
C61	C	-0.860797	1.110629	-0.307589
C62	C	-0.360797	1.610629	0.192411
O63	O	-0.889031	1.150709	-0.267625
O64	O	-0.389031	1.650709	0.232375
N65	N	-0.888115	1.063548	-0.354612
N66	N	-0.388115	1.563548	0.145388
C67	C	-0.860826	1.016442	-0.401633
C68	C	-0.360826	1.516442	0.098367
O69	O	-0.889076	0.976399	-0.441631
O70	O	-0.389076	1.476399	0.058369
C71	C	-0.806223	1.016417	-0.401626
C72	C	-0.306223	1.516417	0.098374
C73	C	-0.778907	1.063496	-0.354595
C74	C	-0.278907	1.563496	0.145405
C75	C	-0.778878	1.157675	-0.260553
C76	C	-0.278878	1.657675	0.239447
C77	C	-0.724277	1.157646	-0.260542
C78	C	-0.224277	1.657646	0.239458
C79	C	-0.696992	1.110541	-0.307558
C80	C	-0.196992	1.610541	0.192442
C81	C	-0.724307	1.063466	-0.354584
C82	C	-0.224307	1.563466	0.145416
C83	C	-0.778934	0.969315	-0.448650
C84	C	-0.278934	1.469315	0.051350
C85	C	-0.724327	0.969295	-0.448640
C86	C	-0.224327	1.469295	0.051360
C87	C	-0.697012	1.016373	-0.401609
C88	C	-0.197012	1.516373	0.098391
C89	C	-0.642421	1.016332	-0.401590
C90	C	-0.142421	1.516332	0.098410
N91	N	-0.615103	1.063412	-0.354567
N92	N	-0.115103	1.563412	0.145433
C93	C	-0.642388	1.110517	-0.307551
C94	C	-0.142388	1.610517	0.192449
C95	C	-0.975497	1.016497	-0.401644
C96	C	-0.475497	1.516497	0.098356
C97	C	-1.030099	1.016517	-0.401648
C98	C	-0.530099	1.516517	0.098352
C99	C	-1.030066	1.110706	-0.307605
C100	C	-0.530066	1.610706	0.192395
C101	C	-0.975463	1.110681	-0.307598
C102	C	-0.475463	1.610681	0.192402
C103	C	-0.948179	1.063578	-0.354621
C104	C	-0.448179	1.563578	0.145379
C105	C	-0.527723	1.110450	-0.307532
C106	C	-0.027723	1.610450	0.192468
C107	C	-0.473118	1.110414	-0.307523
C108	C	0.026882	1.610414	0.192477
C109	C	-0.473155	1.016229	-0.401569
C110	C	0.026845	1.516229	0.098431
C111	C	-0.527756	1.016262	-0.401575
C112	C	-0.027756	1.516262	0.098425
C113	C	-0.555039	1.063379	-0.354554
C114	C	-0.055039	1.563379	0.145446
O115	O	-0.614152	0.976274	-0.441536
O116	O	-0.114152	1.476274	0.058464
O117	O	-0.614132	1.150559	-0.267567
O118	O	-0.114132	1.650559	0.232433
C119	C	-0.115503	1.063563	-0.354613
C120	C	0.384497	1.563563	0.145387
C121	C	-0.057389	1.063625	-0.354634
C122	C	0.442611	1.563625	0.145366
C123	C	-0.251846	1.063463	-0.546516
C124	C	0.248154	1.563463	-0.046516
C125	C	-0.251833	1.063481	-0.628315
C126	C	0.248167	1.563481	-0.128315
C127	C	-0.251885	1.255372	-0.354584
C128	C	0.248115	1.755372	0.145416
C129	C	-0.251889	1.337171	-0.354594
C130	C	0.248111	1.837171	0.145406
C131	C	-0.285211	1.110549	-0.893370
C132	C	0.214789	1.610549	-0.393370
C133	C	-0.285229	1.110538	-0.816511
C134	C	0.214771	1.610538	-0.316511
C135	C	-0.218354	1.016469	-0.816508
C136	C	0.281646	1.516469	-0.316508
C137	C	-0.218339	1.016478	-0.893366
C138	C	0.281661	1.516478	-0.393366
C139	C	-0.251767	1.063521	-0.931795
C140	C	0.248233	1.563521	-0.431795
C141	C	-0.251800	1.063502	-0.778078
C142	C	0.248200	1.563502	-0.278078
C143	C	-0.251820	1.063490	-0.694745
C144	C	0.248180	1.563490	-0.194745
C145	C	-0.251748	1.063533	-1.015134
C146	C	0.248252	1.563533	-0.515134
C147	C	-0.251868	1.063418	-0.163357
C148	C	0.248132	1.563418	0.336643
C149	C	-0.251734	1.063542	-0.081558
C150	C	0.248266	1.563542	0.418442
H151	H	-0.191128	0.633528	-0.269329
H152	H	0.308872	1.133528	0.230671
H153	H	-0.191138	0.978169	-0.785210
H154	H	0.308862	1.478169	-0.285210
H155	H	-0.450931	0.977875	-0.439847
H156	H	0.049069	1.477875	0.060153
H157	H	-0.312626	0.494065	-0.439817
H158	H	0.187374	0.994065	0.060183
H159	H	-0.191140	0.494087	-0.269346
H160	H	0.308860	0.994087	0.230654
H161	H	-0.312431	1.148854	-0.924656
H162	H	0.187569	1.648854	-0.424656
O163	O	-1.056687	0.970882	-0.447365
O164	O	-0.556687	1.470882	0.052635
C165	C	-1.088208	1.012768	-0.494959
C166	C	-0.588208	1.512768	0.005041
H167	H	-1.096363	1.068558	-0.469057
H168	H	-0.596363	1.568558	0.030943
H169	H	-1.126621	0.982802	-0.504808
H170	H	-0.626621	1.482802	-0.004808
H171	H	-1.067130	1.020814	-0.549497
H172	H	-0.567130	1.520814	-0.049497
O173	O	-0.697806	1.203350	-0.214760
O174	O	-0.197806	1.703350	0.285240
C175	C	-0.711184	1.187309	-0.141398
C176	C	-0.211184	1.687309	0.358602
H177	H	-0.750847	1.159028	-0.139855
H178	H	-0.250847	1.659028	0.360145
H179	H	-0.713038	1.240446	-0.108456
H180	H	-0.213038	1.740446	0.391544
H181	H	-0.680487	1.149485	-0.116562
H182	H	-0.180487	1.649485	0.383438
H183	H	-0.312625	0.633492	-0.439801
H184	H	0.187375	1.133492	0.060199
O185	O	-0.446665	1.156219	-0.261813
O186	O	0.053335	1.656219	0.238187
C187	C	-0.482462	1.197788	-0.220308
C188	C	0.017538	1.697788	0.279692
H189	H	-0.521369	1.200337	-0.250465
H190	H	-0.021369	1.700337	0.249535
H191	H	-0.466647	1.255769	-0.212507
H192	H	0.033353	1.755769	0.287493
H193	H	-0.488315	1.170874	-0.164392
H194	H	0.011685	1.670874	0.335608
H195	H	-0.549930	1.148819	-0.269245
H196	H	-0.049930	1.648819	0.230755
O197	O	-0.185826	0.970893	-0.930780
O198	O	0.314174	1.470893	-0.430780
C199	C	-0.152040	1.012826	-0.975248
C200	C	0.347960	1.512826	-0.475248
H201	H	-0.170475	1.068584	-0.986764
H202	H	0.329525	1.568584	-0.486764
H203	H	-0.145031	0.982863	-1.029292
H204	H	0.354969	1.482863	-0.529292
H205	H	-0.113296	1.020939	-0.945648
H206	H	0.386704	1.520939	-0.445648
H207	H	-0.801087	1.196038	-0.222266
H208	H	-0.301087	1.696038	0.277734
O209	O	-0.317733	1.156291	-0.779300
O210	O	0.182267	1.656291	-0.279300
C211	C	-0.347242	1.197797	-0.829702
C212	C	0.152758	1.697797	-0.329702
H213	H	-0.325813	1.200372	-0.884494
H214	H	0.174187	1.700372	-0.384494
H215	H	-0.352823	1.255773	-0.807507
H216	H	0.147177	1.755773	-0.307507
H217	H	-0.386949	1.170812	-0.837862
H218	H	0.113051	1.670812	-0.337862
O219	O	-0.805485	0.923511	-0.494237
O220	O	-0.305485	1.423511	0.005763
C221	C	-0.837135	0.876019	-0.452318
C222	C	-0.337135	1.376019	0.047682
H223	H	-0.820715	0.871488	-0.394346
H224	H	-0.320715	1.371488	0.105654
H225	H	-0.837780	0.819374	-0.478895
H226	H	-0.337780	1.319374	0.021105
H227	H	-0.878504	0.898791	-0.449816
H228	H	-0.378504	1.398791	0.050184
H229	H	-0.953226	1.149017	-0.269302
H230	H	-0.453226	1.649017	0.230698
H231	H	-1.052292	1.149063	-0.269324
H232	H	-0.552292	1.649063	0.230676
H233	H	-0.702115	0.930938	-0.486935
H234	H	-0.202115	1.430938	0.013065
O235	O	-0.949075	0.970661	-0.447343
O236	O	-0.449075	1.470661	0.052657
C237	C	-0.984901	0.929130	-0.488856
C238	C	-0.484901	1.429130	0.011144
H239	H	-1.023836	0.926625	-0.458709
H240	H	-0.523836	1.426625	0.041291
H241	H	-0.969168	0.871132	-0.496651
H242	H	-0.469168	1.371132	0.003349
H243	H	-0.990668	0.956049	-0.544774
H244	H	-0.490668	1.456049	-0.044774
H245	H	-0.549997	0.977929	-0.439874
H246	H	-0.049997	1.477929	0.060126
