data_functionalizedCrystal
_audit_creation_method	'MofGen! by Chris Wilmer'
_symmetry_space_group_name_H-M	'P1'
_symmetry_Int_Tables_number	1
_symmetry_cell_setting	triclinic
loop_
_symmetry_equiv_pos_as_xyz
  x,y,z
_cell_length_a	10.686220
_cell_length_b	18.050589
_cell_length_c	18.050571
_cell_angle_alpha	89.916021
_cell_angle_beta	94.312592
_cell_angle_gamma	94.409750
loop_
_atom_site_label
_atom_site_type_symbol
_atom_site_fract_x
_atom_site_fract_y
_atom_site_fract_z
Zn1	Zn	1.929444	-0.208084	-0.332920
Zn2	Zn	1.929115	-0.332425	-0.208754
Zn3	Zn	1.718285	-0.217775	-0.218267
Zn4	Zn	1.718374	-0.341770	-0.342407
O5	O	1.823805	-0.275014	-0.275587
O6	O	2.105966	-0.216612	-0.308498
O7	O	1.900973	-0.317362	-0.106099
O8	O	1.746397	-0.112561	-0.233487
O9	O	2.105725	-0.307965	-0.217273
O10	O	1.901534	-0.105441	-0.317722
O11	O	1.746078	-0.233129	-0.113088
O12	O	1.541731	-0.242190	-0.242686
O13	O	1.746548	-0.323891	-0.445066
O14	O	1.541796	-0.333288	-0.333891
O15	O	1.901620	-0.225673	-0.438096
O16	O	1.901059	-0.437594	-0.226473
O17	O	1.746229	-0.444459	-0.324667
C18	C	1.495982	-0.289805	-0.290351
C19	C	1.355738	-0.296151	-0.296684
C20	C	1.823652	-0.467973	-0.275582
C21	C	1.823703	-0.550516	-0.275599
C22	C	1.739588	-0.753723	-0.328976
C23	C	1.708744	-0.804628	-0.262599
C24	C	1.823826	-0.701641	-0.275603
C25	C	1.854733	-0.797815	-0.341984
C26	C	1.823944	-0.847621	-0.275613
C27	C	1.792921	-0.751461	-0.209193
C28	C	1.938964	-0.744641	-0.288622
C29	C	1.908163	-0.795522	-0.222196
C30	C	1.823756	-0.617546	-0.275598
C31	C	1.824015	-0.931714	-0.275610
C32	C	2.152907	-0.260165	-0.260766
C33	C	2.293151	-0.253838	-0.254450
C34	C	1.824130	-0.274744	-0.469278
C35	C	1.824269	-0.274628	-0.551818
C36	C	1.823992	-0.081300	-0.275607
C37	C	1.824072	0.001250	-0.275616
C38	C	1.823553	-0.275226	-0.082646
C39	C	1.823659	-0.275121	-0.000095
C40	C	1.739144	-0.229422	0.244878
C41	C	1.708980	-0.298718	0.194332
C42	C	1.824063	-0.274796	0.297042
C43	C	1.853967	-0.205668	0.200496
C44	C	1.823861	-0.274952	0.151049
C45	C	1.793841	-0.344130	0.247581
C46	C	1.938881	-0.251031	0.253751
C47	C	1.908761	-0.320372	0.203229
C48	C	1.824176	-0.274705	0.381146
C49	C	1.823748	-0.275051	0.066947
H50	H	1.346860	-0.212757	-0.213446
H51	H	1.302023	-0.337238	-0.337686
H52	H	1.667364	-0.191039	0.263289
C53	C	1.643210	-0.728759	-0.389875
N54	N	1.570615	-0.709954	-0.435739
H55	H	1.766715	-0.731144	-0.153049
C56	C	1.577272	-0.839992	-0.247722
N57	N	1.478244	-0.866626	-0.236522
H58	H	1.768352	-0.402678	0.268207
H59	H	1.979451	-0.813860	-0.177017
H60	H	2.036255	-0.718451	-0.299656
C61	C	1.889987	-0.825390	-0.417818
N62	N	1.916531	-0.846156	-0.474938
H63	H	2.036039	-0.230842	0.279701
C64	C	2.005659	-0.372364	0.178534
N65	N	2.078636	-0.411527	0.159932
H66	H	1.611794	-0.318891	0.168398
C67	C	1.888257	-0.126601	0.172504
N68	N	1.914075	-0.067046	0.151423
