data_functionalizedCrystal
_audit_creation_method	'MofGen! by Chris Wilmer'
_symmetry_space_group_name_H-M	'P1'
_symmetry_Int_Tables_number	1
_symmetry_cell_setting	triclinic
loop_
_symmetry_equiv_pos_as_xyz
  x,y,z
_cell_length_a	18.760490
_cell_length_b	23.196402
_cell_length_c	23.196401
_cell_angle_alpha	59.997774
_cell_angle_beta	90.024169
_cell_angle_gamma	60.028764
loop_
_atom_site_label
_atom_site_type_symbol
_atom_site_fract_x
_atom_site_fract_y
_atom_site_fract_z
Zr1	Zr	0.686602	0.631219	-0.075572
O2	O	0.572803	0.751458	-0.167637
O3	O	0.721477	0.510965	-0.047353
O4	O	0.721464	0.631247	-0.167628
O5	O	0.572837	0.631160	0.047517
O6	O	0.838743	0.631286	-0.167617
O7	O	0.572815	0.631176	-0.047362
O8	O	0.838765	0.416124	0.047534
O9	O	0.572815	0.846322	-0.167634
O10	O	0.823887	0.560462	-0.035305
O11	O	0.736379	0.560421	0.035493
O12	O	0.736365	0.702037	-0.106115
O13	O	0.648857	0.701996	-0.035316
Zr14	Zr	0.873682	0.631256	0.075766
Zr15	Zr	0.873647	0.631282	-0.075555
Zr16	Zr	0.686636	0.631193	0.075748
Zr17	Zr	0.686621	0.782516	-0.075567
Zr18	Zr	0.873663	0.479959	0.075760
O19	O	0.838807	0.751510	0.047546
O20	O	0.838758	0.751547	-0.167613
O21	O	0.572852	0.751421	0.047521
O22	O	0.987481	0.511017	0.167831
O23	O	0.987432	0.511054	-0.047328
O24	O	0.721526	0.510928	0.167806
O25	O	0.987447	0.631315	-0.047323
O26	O	0.838819	0.631228	0.167821
O27	O	0.721541	0.631189	0.167810
O28	O	0.987468	0.631299	0.047556
O29	O	0.721491	0.846372	-0.167620
O30	O	0.838793	0.416103	0.167813
O31	O	0.987469	0.416153	0.167827
O32	O	0.987442	0.416174	0.047547
O33	O	0.572842	0.846302	-0.047354
O34	O	0.721519	0.846351	-0.047340
O35	O	0.823919	0.560438	0.106309
O36	O	0.911427	0.560479	0.035510
O37	O	0.823904	0.702054	-0.035300
O38	O	0.736397	0.702013	0.035499
C39	C	0.780118	0.441988	0.000090
C40	C	0.780110	0.377758	0.000087
C41	C	0.844733	0.295342	0.052358
C42	C	0.844739	0.234982	0.052365
C43	C	0.780129	0.257042	0.000089
C44	C	0.715495	0.339472	-0.052186
C45	C	0.715486	0.399830	-0.052187
C46	C	0.759997	0.201459	-0.063710
C47	C	0.760012	0.141100	-0.063709
C48	C	0.780152	0.070880	0.000092
C49	C	0.800296	0.061018	0.063897
C50	C	0.800287	0.121375	0.063896
C51	C	0.780131	0.191600	0.000085
C52	C	0.844785	-0.076989	0.052374
C53	C	0.844785	-0.137348	0.052381
C54	C	0.715545	-0.032855	-0.052175
C55	C	0.715541	0.027502	-0.052176
C56	C	0.780166	0.005430	0.000098
C57	C	0.546176	0.631159	0.000075
C58	C	0.466770	0.631133	0.000067
C59	C	0.130771	0.631330	-0.052152
C60	C	0.130911	0.631312	0.052392
C61	C	0.205557	0.631271	0.052381
C62	C	0.242814	0.631259	0.000103
C63	C	0.205426	0.631287	-0.052164
C64	C	0.242957	0.631235	0.104650
C65	C	0.317608	0.631194	0.104641
C66	C	0.354863	0.631187	0.052360
C67	C	0.317469	0.631216	0.000091
C68	C	0.354727	0.631204	-0.052187
C69	C	0.317330	0.631238	-0.104460
C70	C	0.242681	0.631280	-0.104445
C71	C	0.429513	0.631145	0.052345
C72	C	0.429381	0.631161	-0.052199
C73	C	1.014108	0.631316	0.000119
C74	C	1.093513	0.631342	0.000126
C75	C	0.780099	0.631270	-0.189183
C76	C	0.780084	0.631281	-0.253422
C77	C	0.780166	0.820487	0.000104
C78	C	0.780174	0.884717	0.000106
C79	C	0.844696	0.631304	-0.283579
C80	C	0.844715	0.631288	-0.343926
C81	C	0.780109	0.631265	-0.374121
C82	C	0.715492	0.631237	-0.343955
C83	C	0.715479	0.631245	-0.283605
C84	C	0.701267	0.678731	-0.493509
C85	C	0.701279	0.678728	-0.553860
C86	C	0.780148	0.631236	-0.560258
C87	C	0.859009	0.583757	-0.506302
C88	C	0.858997	0.583765	-0.445953
C89	C	0.780116	0.631255	-0.439560
C90	C	0.844786	0.631240	-0.655849
C91	C	0.844806	0.631218	-0.716194
C92	C	0.715575	0.631176	-0.716226
C93	C	0.715562	0.631189	-0.655877
C94	C	0.780167	0.631225	-0.625695
C95	C	0.780185	0.631205	0.189376
C96	C	0.780200	0.631194	0.253616
C97	C	1.014084	0.442066	0.000112
C98	C	1.093482	0.377863	0.000117
C99	C	0.780162	0.441955	0.189369
C100	C	0.780168	0.377714	0.253606
C101	C	1.014127	0.442033	0.189391
C102	C	1.093540	0.377819	0.253635
C103	C	0.546157	0.820442	-0.189197
C104	C	0.466744	0.884656	-0.253442
C105	C	0.546200	0.820409	0.000082
C106	C	0.466802	0.884612	0.000077
C107	C	0.780122	0.820520	-0.189175
C108	C	0.780116	0.884761	-0.253413
C109	C	1.085073	0.347704	-0.036852
C110	C	1.159668	0.287386	-0.036862
C111	C	1.242672	0.257225	0.000102
C112	C	1.251079	0.287391	0.037072
C113	C	1.176484	0.347711	0.037077
C114	C	0.825866	0.347555	0.320744
C115	C	0.825869	0.287203	0.381107
C116	C	0.780179	0.257006	0.374331
C117	C	0.734475	0.287172	0.307187
C118	C	0.734468	0.347527	0.246825
C119	C	1.176518	0.347685	0.246849
C120	C	1.251142	0.287358	0.307208
C121	C	1.242785	0.257161	0.374352
C122	C	1.159797	0.287301	0.381137
C123	C	1.085176	0.347632	0.320779
C124	C	0.383765	0.914797	-0.246656
C125	C	0.309142	0.975143	-0.307015
C126	C	0.317499	1.005343	-0.374159
C127	C	0.400486	0.975199	-0.380944
C128	C	0.475108	0.914858	-0.320586
C129	C	0.475211	0.914778	0.037039
C130	C	0.400615	0.975112	0.037032
C131	C	0.317612	1.005275	0.000066
C132	C	0.309205	0.975107	-0.036901
C133	C	0.383799	0.914778	-0.036897
C134	C	0.825815	0.914938	-0.246614
C135	C	0.825826	0.975291	-0.306966
C136	C	0.780132	1.005469	-0.374116
C137	C	0.734431	0.975286	-0.380913
C138	C	0.734426	0.914930	-0.320561
H139	H	0.897407	-0.204458	0.094951
H140	H	0.407478	0.999665	0.067138
Br141	Br	0.827659	-0.034289	0.150493
Br142	Br	0.587849	0.873858	0.087211
Br143	Br	0.932465	0.631284	-0.614883
H144	H	1.183343	0.372259	0.067186
Br145	Br	0.887902	0.246276	0.472223
Br146	Br	1.363734	0.246447	0.087237
H147	H	1.303554	0.208036	0.423494
Br148	Br	0.672446	0.388447	0.155712
Br149	Br	1.363756	0.246465	0.297983
Br150	Br	0.594229	0.743254	-0.484866
H151	H	0.256879	1.054398	0.000069
Br152	Br	0.627816	0.631197	-0.384927
Br153	Br	1.343900	0.175361	0.000088
Br154	Br	0.887836	0.873995	-0.155490
Br155	Br	0.191929	0.631326	-0.175381
Br156	Br	0.587719	0.873955	-0.329809
Br157	Br	0.367909	0.631210	-0.175400
H158	H	1.183340	0.372263	0.192182
Br159	Br	0.627786	0.631213	-0.242673
H160	H	0.697208	0.890367	-0.326107
H161	H	1.153006	0.262706	0.435814
H162	H	0.697275	0.262577	0.301680
H163	H	0.100319	0.631362	-0.094713
H164	H	0.780143	1.054615	-0.423252
Br165	Br	0.196527	1.016038	-0.297790
Br166	Br	0.196550	1.016049	-0.087064
Br167	Br	0.080357	0.631318	0.123344
Br168	Br	0.192403	0.631241	0.175603
Br169	Br	0.780198	0.175095	0.456260
H170	H	0.662859	0.466940	-0.094752
Br171	Br	0.372371	0.873842	-0.087062
Br172	Br	0.972435	0.388625	-0.087026
H173	H	0.256730	1.054476	-0.423301
H174	H	0.407280	0.999796	-0.435620
Br175	Br	0.887849	1.016244	-0.297725
Br176	Br	0.368355	0.631148	0.175579
Br177	Br	0.672413	1.016259	-0.472050
H178	H	0.897354	0.277363	0.094924
H179	H	0.863073	0.372135	0.326274
H180	H	1.017613	0.372159	0.326315
Br181	Br	0.932373	0.631349	-0.242614
Br182	Br	0.932447	0.123117	0.123308
Br183	Br	0.372399	0.873823	-0.155539
H184	H	0.816686	0.113342	0.115848
H185	H	0.662937	-0.014892	-0.094738
Br186	Br	0.932486	-0.106938	0.123316
Br187	Br	1.148238	0.246459	-0.087037
H188	H	0.662975	0.631152	-0.740808
Br189	Br	0.732677	0.154490	-0.150299
Br190	Br	0.732658	0.296757	-0.150305
Br191	Br	0.627835	0.139359	-0.123120
Br192	Br	0.627869	0.631162	-0.614947
H193	H	0.662888	0.357430	-0.094748
H194	H	0.459961	0.631111	0.094908
Br195	Br	0.932411	0.631317	-0.384860
Br196	Br	0.479934	0.631153	-0.123157
H197	H	0.923232	0.545083	-0.511508
Br198	Br	0.966016	0.519327	-0.372728
Br199	Br	0.594256	0.743169	-0.627081
H200	H	0.897425	0.631232	-0.740746
