data_functionalizedCrystal
_audit_creation_method	'MofGen! by Chris Wilmer'
_symmetry_space_group_name_H-M	'P1'
_symmetry_Int_Tables_number	1
_symmetry_cell_setting	triclinic
loop_
_symmetry_equiv_pos_as_xyz
  x,y,z
_cell_length_a	14.908993
_cell_length_b	14.908520
_cell_length_c	13.034296
_cell_angle_alpha	86.484049
_cell_angle_beta	86.490228
_cell_angle_gamma	96.420918
loop_
_atom_site_label
_atom_site_type_symbol
_atom_site_fract_x
_atom_site_fract_y
_atom_site_fract_z
Zn1	Zn	1.422465	-0.220962	-0.510699
Zn2	Zn	1.394811	-0.391157	-0.349160
Zn3	Zn	1.252285	-0.248548	-0.349165
Zn4	Zn	1.264778	-0.378583	-0.531701
O5	O	1.333585	-0.309812	-0.435181
O6	O	1.544436	-0.237257	-0.480479
O7	O	1.359103	-0.389047	-0.205163
O8	O	1.281205	-0.119241	-0.361805
O9	O	1.524119	-0.362298	-0.361797
O10	O	1.406235	-0.098974	-0.480484
O11	O	1.254390	-0.284272	-0.205167
O12	O	1.128303	-0.272079	-0.382170
O13	O	1.302497	-0.340867	-0.672912
O14	O	1.137481	-0.367615	-0.516279
O15	O	1.418348	-0.225064	-0.657482
O16	O	1.371216	-0.515136	-0.382161
O17	O	1.275682	-0.505898	-0.516274
C18	C	1.100315	-0.321477	-0.451504
C19	C	1.000523	-0.326486	-0.458514
C20	C	0.803424	-0.236222	-0.332209
C21	C	0.709660	-0.240926	-0.338791
C22	C	0.719229	-0.340602	-0.478254
C23	C	0.812992	-0.335898	-0.471672
C24	C	0.855087	-0.283705	-0.398648
C25	C	0.948853	-0.278997	-0.392071
C26	C	0.958419	-0.378677	-0.531529
C27	C	0.864655	-0.383381	-0.538111
C28	C	1.321831	-0.543092	-0.451517
C29	C	1.316888	-0.642882	-0.458534
C30	C	1.407212	-0.839938	-0.332166
C31	C	1.402571	-0.933700	-0.338756
C32	C	1.302971	-0.924168	-0.478307
C33	C	1.307612	-0.830406	-0.471717
C34	C	1.359733	-0.788295	-0.398644
C35	C	1.364369	-0.694532	-0.392050
C36	C	1.264774	-0.685001	-0.531605
C37	C	1.260133	-0.778763	-0.538195
C38	C	1.567765	-0.298103	-0.418795
C39	C	1.667559	-0.293113	-0.411812
C40	C	1.364901	-0.278486	-0.703578
C41	C	1.378246	-0.265136	-0.817953
C42	C	1.345411	-0.075618	-0.418803
C43	C	1.350451	0.024182	-0.411823
C44	C	1.326874	-0.316481	-0.876579
C45	C	1.340666	-0.302685	-0.994792
C46	C	1.302445	-0.340950	-0.167820
C47	C	1.289287	-0.354038	-0.053416
H48	H	0.837700	-0.193713	-0.272761
H49	H	1.406806	-0.660247	-0.332547
H50	H	0.830369	-0.425878	-0.597563
O51	O	1.448573	-0.983989	-0.274176
C52	C	1.439360	-1.105488	-0.141859
C53	C	1.387138	-1.048611	-0.214939
H54	H	1.389712	-1.157735	-0.093932
H55	H	1.489580	-1.141508	-0.188943
H56	H	1.477454	-1.059274	-0.088547
H57	H	1.348991	-1.094762	-0.268267
H58	H	1.336972	-1.012581	-0.167792
O59	O	1.262337	-0.381163	-0.831934
C60	C	1.230095	-0.517092	-0.719809
C61	C	1.303270	-0.443885	-0.770284
H62	H	1.263164	-0.567832	-0.669971
H63	H	1.179410	-0.484104	-0.669814
H64	H	1.193539	-0.553571	-0.782343
H65	H	1.339893	-0.407381	-0.707819
H66	H	1.353896	-0.476925	-0.820302
H67	H	0.667599	-0.202259	-0.284690
H68	H	1.432440	-0.210967	-0.855277
O69	O	0.989895	-0.228313	-0.321226
C70	C	1.130092	-0.176936	-0.249229
C71	C	1.083736	-0.234351	-0.329528
H72	H	1.205967	-0.181814	-0.255899
H73	H	1.117490	-0.103338	-0.263646
H74	H	1.101117	-0.203206	-0.168635
H75	H	1.112681	-0.208161	-0.410154
H76	H	1.096332	-0.307940	-0.315021
O77	O	0.678190	-0.391229	-0.549150
C78	C	0.537967	-0.442702	-0.621033
C79	C	0.584329	-0.385315	-0.540714
H80	H	0.462070	-0.437956	-0.614225
H81	H	0.566814	-0.416433	-0.701676
H82	H	0.550694	-0.516262	-0.606610
H83	H	0.571621	-0.311743	-0.555040
H84	H	0.555476	-0.411659	-0.460098
H85	H	1.394863	-0.248512	-1.032111
H86	H	1.000494	-0.417336	-0.585634
O87	O	1.457905	-0.799165	-0.261151
C88	C	1.556142	-0.818522	-0.123370
C89	C	1.498786	-0.864807	-0.203767
H90	H	1.589194	-0.871574	-0.076939
H91	H	1.610802	-0.766725	-0.164227
H92	H	1.510832	-0.782998	-0.069375
H93	H	1.544022	-0.900381	-0.257784
H94	H	1.444118	-0.916554	-0.162842
O95	O	1.209514	-0.819823	-0.609083
C96	C	1.158263	-0.960036	-0.681123
C97	C	1.215610	-0.913657	-0.600780
H98	H	1.163188	-1.035905	-0.674452
H99	H	1.084650	-0.947482	-0.666753
H100	H	1.184550	-0.931035	-0.761702
H101	H	1.189403	-0.942629	-0.520170
H102	H	1.289215	-0.926205	-0.615241
O103	O	1.252357	-0.965232	-0.549197
C104	C	1.201122	-1.105451	-0.621233
C105	C	1.258461	-1.059065	-0.540889
H106	H	1.206053	-1.181319	-0.614558
H107	H	1.127506	-1.092903	-0.606869
H108	H	1.227411	-1.076451	-0.701812
H109	H	1.232251	-1.088035	-0.460278
H110	H	1.332068	-1.071607	-0.555343
O111	O	1.218505	-0.634892	-0.596086
C112	C	1.072968	-0.608202	-0.654595
C113	C	1.125256	-0.665004	-0.581510
H114	H	0.997568	-0.632539	-0.642851
H115	H	1.085156	-0.533949	-0.637331
H116	H	1.097486	-0.616107	-0.737771
H117	H	1.100770	-0.657176	-0.498309
H118	H	1.113067	-0.739235	-0.598863
O119	O	1.224646	-0.418605	-1.008739
C120	C	1.152026	-0.491287	-0.850182
C121	C	1.225247	-0.418121	-0.900643
H122	H	1.152500	-0.490933	-0.762779
H123	H	1.082838	-0.476706	-0.875141
H124	H	1.166575	-0.560440	-0.875279
H125	H	1.210784	-0.348939	-0.875571
H126	H	1.294412	-0.432780	-0.875686
