data_functionalizedCrystal
_audit_creation_method	'MofGen! by Chris Wilmer'
_symmetry_space_group_name_H-M	'P1'
_symmetry_Int_Tables_number	1
_symmetry_cell_setting	triclinic
loop_
_symmetry_equiv_pos_as_xyz
  x,y,z
_cell_length_a	15.297475
_cell_length_b	12.594516
_cell_length_c	15.296720
_cell_angle_alpha	99.650531
_cell_angle_beta	91.617114
_cell_angle_gamma	80.319586
loop_
_atom_site_label
_atom_site_type_symbol
_atom_site_fract_x
_atom_site_fract_y
_atom_site_fract_z
Zn1	Zn	1.253466	-0.828402	-0.726662
Zn2	Zn	1.278741	-0.981670	-0.580189
Zn3	Zn	1.132339	-0.768606	-0.554898
Zn4	Zn	1.106966	-0.971207	-0.701317
O5	O	1.192878	-0.887471	-0.640767
O6	O	1.379399	-0.878137	-0.728424
O7	O	1.280516	-0.932761	-0.454258
O8	O	1.148448	-0.627605	-0.577705
O9	O	1.397968	-0.990742	-0.620811
O10	O	1.237439	-0.671537	-0.703900
O11	O	1.172956	-0.776223	-0.435677
O12	O	1.006393	-0.766078	-0.553130
O13	O	1.105203	-0.972910	-0.827255
O14	O	0.987752	-0.914928	-0.660703
O15	O	1.212836	-0.867992	-0.845876
O16	O	1.255913	-1.129215	-0.596235
O17	O	1.129711	-1.121528	-0.685227
C18	C	0.965289	-0.832880	-0.601422
C19	C	0.867921	-0.809554	-0.584611
C20	C	0.554794	-1.054189	-0.760920
C21	C	0.646276	-1.076112	-0.776712
C22	C	0.701692	-1.009475	-0.728689
C23	C	0.665617	-0.920910	-0.664869
C24	C	0.574127	-0.898991	-0.649070
C25	C	0.721024	-0.854276	-0.616839
C26	C	0.684949	-0.765712	-0.553020
C27	C	0.593468	-0.743795	-0.537225
C28	C	0.538052	-0.810433	-0.585248
C29	C	0.812514	-0.876196	-0.632638
C30	C	0.831847	-0.720997	-0.520789
C31	C	0.740365	-0.699074	-0.504996
C32	C	1.192822	-1.163997	-0.640748
C33	C	1.192873	-1.282320	-0.640783
C34	C	1.124233	-1.347423	-0.689144
C35	C	1.116732	-1.399680	-0.605532
C36	C	1.200452	-1.440883	-0.724423
C37	C	1.185337	-1.333002	-0.557122
C38	C	1.269085	-1.374217	-0.676073
C39	C	1.261623	-1.426440	-0.592411
C40	C	1.421356	-0.942277	-0.680265
C41	C	1.518720	-0.965632	-0.697097
C42	C	1.153370	-0.925954	-0.869237
C43	C	1.136534	-0.942353	-0.966597
C44	C	1.192955	-0.609875	-0.640809
C45	C	1.192987	-0.491580	-0.640826
C46	C	1.313239	-0.770087	-1.279821
C47	C	1.329063	-0.754682	-1.188347
C48	C	1.280932	-0.801598	-1.132905
C49	C	1.216975	-0.863922	-1.168946
C50	C	1.201155	-0.879335	-1.260430
C51	C	1.168847	-0.910847	-1.113514
C52	C	1.104891	-0.973170	-1.149555
C53	C	1.089073	-0.988580	-1.241030
C54	C	1.137203	-0.941664	-1.296472
C55	C	1.184668	-0.895433	-1.022030
C56	C	1.072583	-1.004682	-1.002639
C57	C	1.056760	-1.020086	-1.094113
C58	C	1.232282	-0.849074	-0.413194
C59	C	1.249288	-0.832416	-0.315863
H60	H	0.710979	-0.626964	-0.453034
C61	C	1.248202	-1.310811	-0.410900
C62	C	1.176640	-1.270021	-0.461613
H63	H	1.242831	-1.271921	-0.351940
H64	H	1.248208	-1.386109	-0.410336
H65	H	1.302100	-1.302046	-0.436024
H66	H	1.122742	-1.278793	-0.436492
H67	H	1.176625	-1.194704	-0.462173
H68	H	1.333461	-1.362260	-0.705927
H69	H	0.564100	-0.671690	-0.485250
H70	H	1.319729	-1.460800	-0.551475
C71	C	0.980667	-0.685675	-0.495345
C72	C	0.892751	-0.647738	-0.467998
H73	H	1.018268	-0.640448	-0.462759
H74	H	0.997877	-0.758568	-0.485011
H75	H	0.985480	-0.683718	-0.556813
H76	H	0.887936	-0.649703	-0.406531
H77	H	0.875535	-0.574826	-0.478325
C78	C	1.047056	-1.029558	-0.853801
C79	C	1.019669	-1.056253	-0.941706
H80	H	1.014388	-1.061391	-0.816181
H81	H	1.108492	-1.056729	-0.848985
H82	H	1.036846	-0.952446	-0.836617
H83	H	1.029885	-1.133365	-0.958892
H84	H	0.958219	-1.029088	-0.946525
H85	H	1.066111	-1.312837	-0.729954
H86	H	0.776180	-1.027329	-0.741551
C87	C	0.501001	-1.124529	-0.904305
C88	C	0.493878	-1.127422	-0.813705
H89	H	0.463395	-1.169747	-0.936894
H90	H	0.483790	-1.051629	-0.914625
H91	H	0.560650	-1.150267	-0.922842
H92	H	0.434231	-1.101676	-0.795166
H93	H	0.511085	-1.200337	-0.803380
H94	H	1.037002	-1.039339	-1.270373
C95	C	0.957945	-1.375797	-0.615977
C96	C	1.029799	-1.415800	-0.565257
H97	H	0.904276	-1.385753	-0.591118
H98	H	0.957054	-1.300245	-0.616165
H99	H	0.963769	-1.414278	-0.675044
H100	H	1.023978	-1.377313	-0.506191
H101	H	1.030689	-1.491365	-0.565059
C102	C	1.220287	-0.732473	-0.987444
C103	C	1.298327	-0.784714	-1.032356
H104	H	1.231029	-0.722067	-0.925367
H105	H	1.201598	-0.663632	-1.005497
H106	H	1.175310	-0.776302	-1.001001
H107	H	1.343302	-0.740880	-1.018805
H108	H	1.317028	-0.853565	-1.014296
H109	H	1.206818	-1.487649	-0.795139
C110	C	0.417525	-0.694530	-0.501729
C111	C	0.437490	-0.786332	-0.567889
H112	H	0.355441	-0.679651	-0.491019
H113	H	0.447977	-0.708266	-0.448755
H114	H	0.435606	-0.633409	-0.520553
H115	H	0.419416	-0.847455	-0.549062
H116	H	0.407027	-0.772603	-0.620874
C117	C	0.815062	-0.960041	-0.785753
C118	C	0.852163	-0.973533	-0.702792
H119	H	0.839543	-1.020133	-0.829066
H120	H	0.752655	-0.956527	-0.783210
H121	H	0.827840	-0.894319	-0.801252
H122	H	0.839379	-1.039252	-0.687290
H123	H	0.914583	-0.977059	-0.705333
C124	C	0.728806	-1.135616	-0.912281
C125	C	0.685926	-1.173449	-0.846865
H126	H	0.753287	-1.195712	-0.955591
H127	H	0.687324	-1.086419	-0.939685
H128	H	0.774900	-1.099072	-0.885930
H129	H	0.639827	-1.209986	-0.873215
H130	H	0.727411	-1.222665	-0.819458
C131	C	1.438256	-0.648241	-1.216709
C132	C	1.399355	-0.686172	-1.148732
H133	H	1.481650	-0.605937	-1.192249
H134	H	1.465579	-0.708659	-1.258171
H135	H	1.393923	-0.604387	-1.245798
H136	H	1.443688	-0.730033	-1.119648
H137	H	1.372033	-0.625746	-1.107254
H138	H	1.124323	-0.954203	-1.370959
H139	H	1.236741	-0.844688	-0.992695
H140	H	1.352425	-0.731902	-1.324970
H141	H	1.004685	-1.070831	-1.123471
