data_functionalizedCrystal
_audit_creation_method	'MofGen! by Chris Wilmer'
_symmetry_space_group_name_H-M	'P1'
_symmetry_Int_Tables_number	1
_symmetry_cell_setting	triclinic
loop_
_symmetry_equiv_pos_as_xyz
  x,y,z
_cell_length_a	27.732048
_cell_length_b	15.995350
_cell_length_c	15.072220
_cell_angle_alpha	89.998899
_cell_angle_beta	90.006964
_cell_angle_gamma	83.067515
loop_
_atom_site_label
_atom_site_type_symbol
_atom_site_fract_x
_atom_site_fract_y
_atom_site_fract_z
O1	O	-0.641363	-0.099622	-0.073664
O2	O	-0.500635	-0.114771	-0.073691
O3	O	-0.574846	0.014741	-0.073676
O4	O	-0.567152	-0.229134	-0.073679
O5	O	-0.574827	0.014734	0.073889
O6	O	-0.500616	-0.114778	0.073875
O7	O	-0.641344	-0.099630	0.073901
Zn8	Zn	-0.570977	-0.107205	0.097317
Zn9	Zn	-0.571002	-0.107195	-0.097107
O10	O	-0.567133	-0.229141	0.073886
C11	C	-0.482617	-0.114456	0.000089
C12	C	-0.428958	-0.113499	0.000078
C13	C	-0.574518	0.045928	0.000105
C14	C	-0.573565	0.138866	0.000100
C15	C	-0.659362	-0.099944	0.000120
C16	C	-0.713021	-0.100901	0.000124
C17	C	-0.090447	-0.184004	0.000116
C18	C	0.111228	-0.180451	0.000124
O19	O	0.142205	-0.244923	0.000162
N20	N	0.130683	-0.103656	0.000123
C21	C	0.099715	-0.027744	0.000127
O22	O	0.120891	0.037657	0.000135
C23	C	-0.101958	-0.031297	0.000125
C24	C	-0.121410	-0.108097	0.000117
C25	C	-0.109900	-0.260797	0.000109
C26	C	-0.160315	-0.261685	0.000102
C27	C	-0.191279	-0.185778	0.000102
C28	C	-0.171826	-0.108985	0.000110
C29	C	-0.132925	0.044614	0.000135
C30	C	-0.183346	0.043719	0.000136
C31	C	-0.202798	-0.033081	0.000128
C32	C	-0.253205	-0.033965	0.000103
N33	N	-0.272660	-0.110761	0.000104
C34	C	-0.241697	-0.186667	0.000104
C35	C	0.205598	-0.025883	0.000126
C36	C	0.256016	-0.024995	0.000125
C37	C	0.267525	-0.177703	0.000124
C38	C	0.217106	-0.178590	0.000118
C39	C	0.186143	-0.102679	0.000126
C40	C	-0.347574	-0.188525	0.000088
C41	C	-0.397995	-0.189405	0.000078
C42	C	-0.409499	-0.036698	0.000084
C43	C	-0.359083	-0.035817	0.000089
C44	C	-0.328121	-0.111737	0.000095
O45	O	-0.284211	0.030472	0.000076
O46	O	-0.262881	-0.252058	0.000114
C47	C	-0.040031	-0.183116	0.000123
C48	C	-0.020579	-0.106323	0.000130
C49	C	-0.051542	-0.030416	0.000131
C50	C	0.029839	-0.105434	0.000129
C51	C	0.060803	-0.181340	0.000129
C52	C	0.041348	-0.258135	0.000129
C53	C	-0.009068	-0.259023	0.000122
C54	C	-0.032087	0.046379	0.000130
C55	C	0.018329	0.047260	0.000136
C56	C	0.049292	-0.028646	0.000135
C57	C	-0.567461	-0.260328	0.000103
C58	C	-0.568414	-0.353266	0.000103
N59	N	-0.570964	-0.107211	0.230006
C60	C	-0.570140	0.476569	0.000102
C61	C	-0.517289	0.428451	-0.000239
C62	C	-0.518242	0.331773	0.000094
C63	C	-0.571839	0.309031	0.000100
C64	C	-0.597897	0.350441	0.084371
C65	C	-0.596569	0.447060	0.084441
C66	C	-0.597682	0.447440	-0.083368
C67	C	-0.597669	0.350495	-0.084482
C68	C	-0.572802	0.214346	0.000102
C69	C	-0.569179	0.571255	0.000106
N70	N	-0.571018	-0.107182	-0.229795
C71	C	-0.571001	-0.107192	0.589207
C72	C	-0.531158	-0.176262	0.551592
C73	C	-0.531250	-0.176511	0.448767
C74	C	-0.570982	-0.107202	0.411003
C75	C	-0.621417	-0.125631	0.448304
C76	C	-0.621193	-0.126121	0.551161
C77	C	-0.560858	-0.019484	0.551306
C78	C	-0.559701	-0.020085	0.448442
C79	C	-0.570975	-0.107205	0.310290
C80	C	-0.571011	-0.107190	0.689921
H81	H	-0.413829	-0.251948	0.000071
N82	N	-0.573900	0.312547	0.167435
H83	H	-0.590924	0.339605	0.221300
H84	H	-0.576049	0.249970	0.168315
H85	H	-0.651767	-0.077762	0.576042
N86	N	-0.491115	0.293774	-0.079928
H87	H	-0.491686	0.230758	-0.079866
H88	H	-0.507150	0.318585	-0.135734
H89	H	-0.636649	0.479705	-0.083930
H90	H	0.066567	-0.319941	0.000125
N91	N	-0.489417	0.454028	0.079353
H92	H	-0.487516	0.516658	0.077279
H93	H	-0.506572	0.439679	0.135437
H94	H	-0.630568	-0.188843	0.422536
H95	H	-0.537546	-0.240997	0.577431
H96	H	-0.496172	0.446713	-0.060671
H97	H	-0.322370	-0.250346	0.000096
N98	N	-0.599337	0.048603	0.583523
H99	H	-0.632312	0.035964	0.562710
H100	H	-0.598806	0.050622	0.650486
H101	H	-0.651773	-0.076634	0.423841
N102	N	-0.481593	-0.162098	0.415353
H103	H	-0.459446	-0.155527	0.467442
H104	H	-0.467704	-0.211817	0.378229
H105	H	-0.343245	0.026720	0.000083
N106	N	-0.513194	0.004197	0.585695
H107	H	-0.497691	-0.041696	0.626197
H108	H	-0.490806	0.011322	0.534116
N109	N	-0.539699	-0.262805	0.416153
H110	H	-0.543396	-0.300823	0.468594
H111	H	-0.570211	-0.258117	0.378983
H112	H	-0.497606	0.303639	0.060598
H113	H	-0.057293	0.108193	0.000133
N114	N	-0.111953	0.127449	0.000148
H115	H	-0.139225	0.175393	0.000155
H116	H	-0.091284	0.131139	0.054856
H117	H	-0.522600	-0.006084	0.424064
N118	N	-0.216742	0.125597	0.000151
H119	H	-0.196765	0.174378	0.000157
H120	H	-0.237914	0.128565	-0.054555
H121	H	-0.577552	0.465112	0.147430
N122	N	-0.481337	-0.162105	0.584381
H123	H	-0.484107	-0.110784	0.623939
H124	H	-0.466760	-0.213015	0.619049
N125	N	-0.633032	-0.210819	0.582939
H126	H	-0.638346	-0.247487	0.530130
H127	H	-0.605177	-0.238702	0.619739
H128	H	-0.176148	-0.324223	0.000095
N129	N	-0.030048	-0.341854	0.000125
H130	H	-0.050712	-0.345630	-0.054579
H131	H	-0.002752	-0.389754	0.000161
N132	N	-0.595645	0.051127	0.414412
H133	H	-0.619860	0.027821	0.374064
H134	H	-0.613297	0.080996	0.466165
N135	N	0.196124	-0.261421	0.000121
H136	H	0.175458	-0.265194	-0.054580
H137	H	0.223420	-0.309322	0.000153
N138	N	-0.649445	0.330829	-0.091218
H139	H	-0.653822	0.299685	-0.148393
H140	H	-0.656890	0.294629	-0.039263
H141	H	-0.084694	-0.322613	0.000111
H142	H	-0.635371	0.479810	0.088269
N143	N	-0.650060	0.332439	0.088518
H144	H	-0.657318	0.297177	0.035687
H145	H	-0.655434	0.300857	0.144989
H146	H	-0.580410	0.467760	-0.147239
H147	H	-0.578618	0.323003	-0.146822
N148	N	0.172210	0.056004	0.000124
H149	H	0.151031	0.059046	-0.054579
H150	H	0.151070	0.059001	0.054862
H151	H	0.292744	-0.239509	0.000123
H152	H	0.271849	0.037543	0.000117
H153	H	-0.434719	0.025103	0.000081
H154	H	0.034161	0.109804	0.000136
