data_functionalizedCrystal
_audit_creation_method	'MofGen! by Chris Wilmer'
_symmetry_space_group_name_H-M	'P1'
_symmetry_Int_Tables_number	1
_symmetry_cell_setting	triclinic
loop_
_symmetry_equiv_pos_as_xyz
  x,y,z
_cell_length_a	17.019311
_cell_length_b	17.019294
_cell_length_c	8.965430
_cell_angle_alpha	86.121451
_cell_angle_beta	86.116475
_cell_angle_gamma	83.131632
loop_
_atom_site_label
_atom_site_type_symbol
_atom_site_fract_x
_atom_site_fract_y
_atom_site_fract_z
O1	O	1.046565	0.100516	-0.271373
O2	O	0.816886	0.113326	-0.243520
O3	O	0.938133	-0.007918	-0.243512
O4	O	0.925318	0.221761	-0.271381
O5	O	0.938123	-0.007910	0.004567
O6	O	0.816876	0.113334	0.004559
O7	O	1.046555	0.100524	-0.023294
Cu8	Cu	0.931714	0.106930	0.013284
Cu9	Cu	0.931726	0.106921	-0.280098
O10	O	0.925308	0.221769	-0.023302
C11	C	0.787492	0.112844	-0.115644
C12	C	0.699924	0.111384	-0.104210
C13	C	0.204650	0.103157	-0.032762
C14	C	0.286930	0.104528	-0.043509
C15	C	0.328076	0.105203	-0.184112
C16	C	0.286937	0.104515	-0.313977
C17	C	0.204658	0.103150	-0.303230
C18	C	0.576506	0.109331	-0.223328
C19	C	0.658791	0.110694	-0.234065
C20	C	0.658777	0.110708	0.036405
C21	C	0.576497	0.109338	0.047140
C22	C	0.535365	0.108654	-0.082726
C23	C	0.412180	0.106602	-0.195100
C24	C	0.451262	0.107261	-0.071737
C25	C	0.937642	-0.037302	-0.115637
C26	C	0.936184	-0.124871	-0.104206
C27	C	0.935507	-0.166010	-0.234063
C28	C	0.934132	-0.248289	-0.223317
C29	C	0.933440	-0.289428	-0.082714
C30	C	0.934115	-0.248282	0.047153
C31	C	0.935484	-0.166004	0.036407
C32	C	0.929301	-0.537855	-0.043501
C33	C	0.927934	-0.620139	-0.032764
C34	C	0.927949	-0.620140	-0.303236
C35	C	0.929323	-0.537861	-0.313970
C36	C	0.929994	-0.496722	-0.184103
C37	C	0.932037	-0.373531	-0.071727
C38	C	0.931391	-0.412620	-0.195091
C39	C	1.075949	0.101007	-0.151174
C40	C	1.163517	0.102466	-0.162618
C41	C	0.925799	0.251153	-0.151181
C42	C	0.927257	0.338721	-0.162621
N43	N	0.931712	0.106936	0.219633
N44	N	0.931735	0.106908	-0.486447
C45	C	0.875622	0.162989	0.316939
C46	C	0.946888	0.178217	0.405243
C47	C	0.860476	0.091715	0.427452
C48	C	1.003013	0.122200	0.305738
C49	C	0.916554	0.035667	0.327948
C50	C	0.987872	0.050864	0.416204
H51	H	0.320417	0.105088	0.062234
O52	O	0.452227	0.107359	-0.331603
C53	C	0.490798	0.176445	-0.353545
H54	H	0.500105	0.199427	-0.240282
H55	H	0.550690	0.162044	-0.416600
H56	H	0.452790	0.223727	-0.421495
O57	O	0.788663	0.076264	0.490970
C58	C	0.798179	0.006438	0.585129
H59	H	0.861725	-0.004235	0.621183
H60	H	0.755523	0.013054	0.688346
H61	H	0.784984	-0.045969	0.522000
O62	O	0.931949	-0.372565	-0.331578
C63	C	0.864439	-0.315985	-0.338275
H64	H	0.841877	-0.300656	-0.219929
H65	H	0.880753	-0.260151	-0.404780
H66	H	0.816098	-0.341393	-0.395529
O67	O	0.411313	0.106744	0.064859
C68	C	0.422422	0.175354	0.136911
H69	H	0.438753	0.223457	0.049515
H70	H	0.365283	0.197377	0.202753
H71	H	0.472210	0.160708	0.216727
H72	H	1.063279	0.135134	0.252819
O73	O	0.927306	-0.659982	-0.429531
C74	C	0.928175	-0.606024	-0.555929
H75	H	0.954133	-0.550674	-0.526743
H76	H	0.966037	-0.634852	-0.651700
H77	H	0.865061	-0.588914	-0.591553
O78	O	0.933589	-0.288366	-0.349353
C79	C	1.001096	-0.344953	-0.358815
H80	H	1.023640	-0.360262	-0.242315
H81	H	0.984786	-0.400795	-0.406760
H82	H	1.049449	-0.319560	-0.435018
H83	H	0.320445	0.105070	-0.428460
O84	O	1.044632	-0.005621	0.467793
C85	C	1.119602	0.010703	0.405066
H86	H	1.117270	0.076450	0.369181
H87	H	1.165743	-0.005236	0.491898
H88	H	1.136415	-0.025903	0.303399
O89	O	0.901077	-0.036166	0.287037
C90	C	0.825874	-0.051976	0.349361
H91	H	0.788367	0.006221	0.374668
H92	H	0.795309	-0.084164	0.266400
H93	H	0.833134	-0.090770	0.457406
O94	O	0.698834	0.111275	0.162452
C95	C	0.755420	0.043770	0.171981
H96	H	0.770754	0.021199	0.055503
H97	H	0.811250	0.060094	0.219944
H98	H	0.730013	-0.004567	0.248199
O99	O	0.536647	0.108724	0.183836
C100	C	0.590598	0.109609	0.296151
H101	H	0.645960	0.135540	0.246061
H102	H	0.561773	0.147500	0.389559
H103	H	0.607689	0.046503	0.343656
O104	O	0.927165	-0.660183	0.103746
C105	C	0.858087	-0.698767	0.125683
H106	H	0.835114	-0.708081	0.012418
H107	H	0.872496	-0.758657	0.188729
H108	H	0.810795	-0.660766	0.193639
H109	H	0.959724	0.238476	0.439559
H110	H	0.936074	-0.132522	-0.348558
O111	O	0.929761	-0.497846	-0.450503
C112	C	0.862189	-0.441337	-0.457048
H113	H	0.839740	-0.425962	-0.338669
H114	H	0.878376	-0.385512	-0.523745
H115	H	0.813810	-0.466842	-0.514020
O116	O	0.536482	0.108553	-0.349352
C117	C	0.497908	0.039468	-0.343617
H118	H	0.488579	0.016507	-0.222051
H119	H	0.438026	0.053863	-0.395011
H120	H	0.535926	-0.007827	-0.409151
H121	H	0.933547	-0.281783	0.161636
O122	O	0.164785	0.102396	0.103917
C123	C	0.193882	0.034440	0.191173
H124	H	0.256625	0.012663	0.147458
H125	H	0.194669	0.049854	0.312803
H126	H	0.153880	-0.014146	0.183820
O127	O	0.698711	0.111500	-0.370702
C128	C	0.669595	0.179444	-0.457970
H129	H	0.640674	0.226794	-0.381210
H130	H	0.720689	0.203265	-0.528915
H131	H	0.623881	0.163215	-0.534351
O132	O	0.164771	0.102586	-0.429488
C133	C	0.175859	0.171211	-0.521986
H134	H	0.232598	0.194967	-0.493880
H135	H	0.180700	0.155896	-0.644353
H136	H	0.123247	0.218262	-0.502522
O137	O	0.930011	-0.498029	0.082790
C138	C	0.929101	-0.551984	0.209189
H139	H	0.953073	-0.613929	0.174399
H140	H	0.967792	-0.533272	0.296376
H141	H	0.865705	-0.552382	0.259001
O142	O	0.936167	-0.126163	0.162696
C143	C	0.935238	-0.180111	0.289105
H144	H	0.959238	-0.242055	0.254347
H145	H	0.973895	-0.161379	0.376330
H146	H	0.871832	-0.180524	0.338856
H147	H	0.931477	-0.407035	0.042753
H148	H	0.828232	0.210435	0.273340
