data_functionalizedCrystal
_audit_creation_method	'MofGen! by Chris Wilmer'
_symmetry_space_group_name_H-M	'P1'
_symmetry_Int_Tables_number	1
_symmetry_cell_setting	triclinic
loop_
_symmetry_equiv_pos_as_xyz
  x,y,z
_cell_length_a	10.654554
_cell_length_b	10.654550
_cell_length_c	9.130313
_cell_angle_alpha	90.000042
_cell_angle_beta	90.000786
_cell_angle_gamma	95.514176
loop_
_atom_site_label
_atom_site_type_symbol
_atom_site_fract_x
_atom_site_fract_y
_atom_site_fract_z
O1	O	-0.176393	1.667837	-0.121788
O2	O	-0.193199	1.302359	-0.121793
O3	O	-0.002057	1.493498	-0.121783
O4	O	-0.367535	1.476698	-0.121799
O5	O	-0.002062	1.493496	0.121816
O6	O	-0.193204	1.302356	0.121806
O7	O	-0.176398	1.667835	0.121810
Cu8	Cu	-0.184801	1.485095	0.144051
Cu9	Cu	-0.184795	1.485098	-0.144033
O10	O	-0.367540	1.476695	0.121800
C11	C	-0.191967	1.255559	0.000006
C12	C	-0.188275	1.116116	0.000004
C13	C	0.044738	1.492262	0.000016
C14	C	0.184181	1.488568	0.000012
C15	C	-0.177629	1.714634	0.000008
C16	C	-0.181321	1.854077	0.000000
C17	C	-0.414335	1.477931	-0.000002
C18	C	-0.553778	1.481625	-0.000008
C19	C	0.394690	1.597641	-0.000005
C20	C	0.263669	1.601113	0.000010
C21	C	0.235722	1.372543	0.000014
C22	C	0.366741	1.369073	0.000009
C23	C	0.410824	1.729604	-0.000014
C24	C	0.279802	1.733076	0.000001
N25	N	-0.184805	1.485102	0.346673
C26	C	-0.068780	1.933561	-0.000000
C27	C	-0.072256	2.064582	0.000007
C28	C	-0.300825	2.036622	0.000009
C29	C	-0.297348	1.905604	0.000012
C30	C	0.063183	1.949704	-0.000008
C31	C	0.059706	2.080725	-0.000001
N32	N	-0.184782	1.485101	-0.346656
C33	C	-0.100196	1.569761	0.423330
C34	C	-0.100181	1.569757	0.576667
C35	C	-0.269394	1.400433	0.576677
C36	C	-0.269402	1.400432	0.423343
C37	C	-0.002506	1.667523	0.423325
C38	C	-0.002491	1.667519	0.576662
H39	H	0.408692	1.274602	0.000020
C40	C	0.472532	1.783803	-0.141917
H41	H	0.409343	1.810300	-0.205128
H42	H	0.515136	1.720822	-0.189341
H43	H	0.531188	1.853845	-0.118772
H44	H	0.452579	1.779332	0.101924
C45	C	0.120733	1.626299	0.640918
H46	H	0.116534	1.627692	0.744835
H47	H	0.189879	1.682481	0.608790
H48	H	0.131788	1.543272	0.608788
C49	C	-0.428444	2.093306	0.000008
H50	H	-0.414399	2.182720	-0.000002
H51	H	-0.474834	2.066090	0.084953
H52	H	-0.474825	2.066091	-0.084955
H53	H	0.244180	1.775107	0.105185
H54	H	-0.033094	1.758707	0.375766
H55	H	0.099580	2.126371	0.105182
C56	C	0.132909	1.910032	0.137693
H57	H	0.135280	1.821124	0.137677
H58	H	0.089932	1.934494	0.222660
H59	H	0.216550	1.949991	0.137672
H60	H	0.105206	1.914073	-0.105186
H61	H	0.250433	1.784682	-0.101942
C62	C	-0.421142	1.818175	0.000028
H63	H	-0.490737	1.867631	0.000023
H64	H	-0.424530	1.766486	0.084978
H65	H	-0.424544	1.766483	-0.084929
C66	C	-0.031563	1.797889	0.632894
H67	H	-0.043543	1.851503	0.551967
H68	H	0.036916	1.833627	0.690688
H69	H	-0.106022	1.788960	0.690703
C70	C	0.126855	2.137140	-0.137720
H71	H	0.156819	2.071431	-0.194371
H72	H	0.195899	2.195134	-0.109416
H73	H	0.069254	2.179643	-0.194354
H74	H	-0.338286	1.331485	0.360930
H75	H	-0.338271	1.331496	0.639117
C76	C	0.127890	1.638543	0.367094
H77	H	0.181521	1.626613	0.448021
H78	H	0.163578	1.707038	0.309290
H79	H	0.119013	1.564077	0.309295
H80	H	0.170993	1.280908	0.000031
