data_functionalizedCrystal
_audit_creation_method	'MofGen! by Chris Wilmer'
_symmetry_space_group_name_H-M	'P1'
_symmetry_Int_Tables_number	1
_symmetry_cell_setting	triclinic
loop_
_symmetry_equiv_pos_as_xyz
  x,y,z
_cell_length_a	19.288840
_cell_length_b	13.262508
_cell_length_c	18.366186
_cell_angle_alpha	105.912108
_cell_angle_beta	89.983729
_cell_angle_gamma	83.808092
loop_
_atom_site_label
_atom_site_type_symbol
_atom_site_fract_x
_atom_site_fract_y
_atom_site_fract_z
O1	O	0.922009	0.130804	-0.034765
O2	O	0.719834	0.148493	-0.031237
O3	O	0.826012	-0.013163	-0.063262
O4	O	0.815831	0.292460	-0.002741
O5	O	0.825994	-0.013171	0.057836
O6	O	0.719815	0.148485	0.089861
O7	O	0.921991	0.130796	0.086332
Zn8	Zn	0.820900	0.139639	0.107324
Zn9	Zn	0.820924	0.139650	-0.052228
O10	O	0.815813	0.292452	0.118357
C11	C	0.693945	0.147924	0.029204
C12	C	0.616832	0.146229	0.028877
C13	C	0.825434	-0.052267	-0.010457
C14	C	0.823730	-0.168773	-0.033532
C15	C	0.580634	0.145419	-0.037296
C16	C	0.508180	0.143814	-0.037623
C17	C	0.471927	0.142998	0.028224
C18	C	0.508133	0.143815	0.094407
C19	C	0.580585	0.145430	0.094734
C20	C	0.362276	0.078961	0.066104
C21	C	0.289825	0.077339	0.065773
C22	C	0.248459	0.138021	0.027219
C23	C	0.279553	0.200311	-0.011019
C24	C	0.352006	0.201926	-0.010692
C25	C	0.393364	0.141247	0.027877
C26	C	0.133697	0.135472	-0.039313
C27	C	0.061240	0.133874	-0.039636
C28	C	0.061196	0.133864	0.092394
C29	C	0.133650	0.135473	0.092717
C30	C	0.169897	0.136272	0.026860
C31	C	0.818883	-0.497214	0.165474
C32	C	0.820479	-0.387750	0.187155
C33	C	0.821292	-0.333000	0.131985
C34	C	0.820509	-0.387726	0.055130
C35	C	0.818908	-0.497199	0.033448
C36	C	0.821316	-0.332986	-0.000041
C37	C	0.820533	-0.387711	-0.076896
C38	C	0.818932	-0.497174	-0.098575
C39	C	0.818119	-0.551923	-0.043405
C40	C	0.822917	-0.223512	0.021642
C41	C	0.822942	-0.223497	-0.110384
C42	C	0.821346	-0.332961	-0.132065
C43	C	0.947880	0.131364	0.025890
C44	C	1.024993	0.133060	0.026212
C45	C	0.816391	0.331556	0.065551
C46	C	0.818095	0.448062	0.088621
N47	N	0.820889	0.139631	0.216213
N48	N	0.820941	0.139649	-0.161119
C49	C	0.867920	0.068085	0.240140
C50	C	0.867925	0.068080	0.316367
C51	C	0.820905	0.139640	0.368668
C52	C	0.773864	0.211192	0.344733
C53	C	0.773857	0.211188	0.268506
C54	C	0.812078	0.235271	0.508366
C55	C	0.812091	0.235277	0.584592
C56	C	0.820924	0.139653	0.603778
C57	C	0.829760	0.044020	0.546727
C58	C	0.829752	0.044015	0.470500
C59	C	0.820907	0.139652	0.451325
C60	C	0.867963	0.068096	0.710357
C61	C	0.867963	0.068090	0.786585
C62	C	0.773906	0.211211	0.814952
C63	C	0.773903	0.211208	0.738723
C64	C	0.820935	0.139651	0.686431
H65	H	0.610142	0.146069	-0.090922
H66	H	0.822590	-0.243869	0.149642
Cl67	Cl	0.414272	0.002669	0.114578
Cl68	Cl	0.179159	0.136485	0.175910
H69	H	0.818289	-0.541727	-0.161155
H70	H	0.804873	0.313145	0.492755
Cl71	Cl	0.626094	0.146447	0.177931
Cl72	Cl	0.250740	-0.000942	0.113862
H73	H	0.735579	0.269456	0.387320
H74	H	0.818216	-0.541800	0.210385
Cl75	Cl	0.823950	-0.154675	-0.179745
Cl76	Cl	0.816113	-0.689541	-0.070659
Cl77	Cl	0.179267	0.136487	-0.122100
Cl78	Cl	0.840871	-0.076202	0.570836
Cl79	Cl	0.714778	0.301161	0.708641
H80	H	0.478611	0.143153	0.148020
H81	H	0.735557	0.269450	0.249026
H82	H	0.735618	0.269472	0.857534
Cl83	Cl	0.820363	-0.401771	-0.228680
Cl84	Cl	0.823903	-0.154728	0.118255
H85	H	0.906215	0.009817	0.197564
H86	H	0.906225	0.009816	0.335852
Cl87	Cl	0.462664	0.142794	-0.120819
Cl88	Cl	0.840852	-0.076204	0.398783
H89	H	0.821124	-0.343202	0.249729
Cl90	Cl	0.927085	-0.021866	0.644616
H91	H	0.031769	0.133220	-0.093523
Cl92	Cl	0.927088	-0.021868	0.816665
Cl93	Cl	0.800988	0.355500	0.656305
H94	H	0.377320	0.252647	-0.041825
Cl95	Cl	0.227558	0.276607	-0.059487
H96	H	0.031679	0.133206	0.146009
