data_functionalizedCrystal
_audit_creation_method	'MofGen! by Chris Wilmer'
_symmetry_space_group_name_H-M	'P1'
_symmetry_Int_Tables_number	1
_symmetry_cell_setting	triclinic
loop_
_symmetry_equiv_pos_as_xyz
  x,y,z
_cell_length_a	13.032831
_cell_length_b	13.032127
_cell_length_c	10.685880
_cell_angle_alpha	87.686521
_cell_angle_beta	79.045265
_cell_angle_gamma	89.101177
loop_
_atom_site_label
_atom_site_type_symbol
_atom_site_fract_x
_atom_site_fract_y
_atom_site_fract_z
Zn1	Zn	1.566809	-0.669343	-0.850592
Zn2	Zn	1.531754	-0.824451	-0.610420
Zn3	Zn	1.382072	-0.631083	-0.617201
Zn4	Zn	1.370104	-0.815713	-0.797954
O5	O	1.462685	-0.735148	-0.719042
O6	O	1.707124	-0.709587	-0.837924
O7	O	1.502236	-0.786446	-0.435160
O8	O	1.426257	-0.493977	-0.673028
O9	O	1.681368	-0.823545	-0.661470
O10	O	1.561983	-0.522086	-0.844500
O11	O	1.392265	-0.644379	-0.440143
O12	O	1.235520	-0.635906	-0.621987
O13	O	1.405859	-0.808652	-0.981096
O14	O	1.226727	-0.771553	-0.754786
O15	O	1.550378	-0.701114	-1.019769
O16	O	1.490631	-0.965474	-0.610429
O17	O	1.371867	-0.959054	-0.748210
C18	C	1.426176	-0.999136	-0.672903
C19	C	1.410654	-1.112087	-0.653220
C20	C	1.193535	-0.698630	-0.683411
C21	C	1.078390	-0.683034	-0.668194
C22	C	1.454804	-1.293013	-0.709013
C23	C	1.470855	-1.176274	-0.729361
C24	C	1.022712	-0.743287	-0.726984
C25	C	0.903704	-0.727170	-0.711257
C26	C	1.732885	-0.771809	-0.754812
C27	C	1.848028	-0.787431	-0.770055
C28	C	1.480694	-0.758176	-1.047385
C29	C	1.488369	-0.767989	-1.187306
C30	C	1.499366	-0.470134	-0.765392
C31	C	1.514997	-0.357201	-0.785144
C32	C	1.444815	-0.712144	-0.391996
C33	C	1.437381	-0.702072	-0.252153
H34	H	1.391385	-1.324485	-0.628774
O35	O	0.896118	-0.863335	-0.843897
C36	C	0.854261	-0.959084	-0.795011
H37	H	0.772724	-0.947168	-0.735944
H38	H	0.906857	-0.996864	-0.732242
C39	C	0.947778	-1.043369	-0.978740
C40	C	0.847629	-1.028735	-0.906201
H41	H	0.943690	-1.086335	-1.047325
H42	H	0.975981	-0.978862	-1.011674
H43	H	0.991597	-1.074849	-0.926419
H44	H	0.803815	-0.997244	-0.958519
H45	H	0.819417	-1.093238	-0.873279
O46	O	1.590545	-1.319708	-0.881035
C47	C	1.571188	-1.351295	-0.998993
H48	H	1.484769	-1.369826	-0.989235
H49	H	1.620124	-1.422623	-1.028665
C50	C	1.706816	-1.241656	-1.112926
C51	C	1.600673	-1.264407	-1.100944
H52	H	1.725007	-1.188062	-1.175817
H53	H	1.719861	-1.220377	-1.033456
H54	H	1.747583	-1.301102	-1.137648
H55	H	1.559907	-1.204965	-1.076208
H56	H	1.587622	-1.285673	-1.180413
O57	O	1.030227	-0.607130	-0.594419
C58	C	1.072116	-0.511382	-0.643257
H59	H	1.108162	-0.517436	-0.748621
H60	H	1.134808	-0.488439	-0.588696
C61	C	0.940222	-0.422174	-0.498568
C62	C	0.984487	-0.429606	-0.627981
H63	H	0.886171	-0.371729	-0.489141
H64	H	0.912003	-0.486681	-0.465661
H65	H	0.992475	-0.403058	-0.453116
H66	H	0.932237	-0.448734	-0.673429
H67	H	1.012696	-0.365100	-0.660896
H68	H	1.387847	-0.638130	-1.200627
H69	H	1.347228	-1.143552	-0.572977
H70	H	0.863272	-0.663644	-0.649284
H71	H	1.063150	-0.806801	-0.788964
H72	H	1.534272	-1.144808	-0.809614
O73	O	1.547601	-0.844153	-1.248865
C74	C	1.626626	-0.800656	-1.343914
H75	H	1.641940	-0.718746	-1.319058
H76	H	1.600488	-0.799721	-1.439891
C77	C	1.708759	-0.965653	-1.382192
C78	C	1.727575	-0.865053	-1.351658
H79	H	1.771029	-1.005378	-1.386975
H80	H	1.655517	-0.994960	-1.318160
H81	H	1.686976	-0.964860	-1.462171
H82	H	1.749345	-0.865846	-1.271674
H83	H	1.780824	-0.835748	-1.415678
