data_functionalizedCrystal
_audit_creation_method	'MofGen! by Chris Wilmer'
_symmetry_space_group_name_H-M	'P1'
_symmetry_Int_Tables_number	1
_symmetry_cell_setting	triclinic
loop_
_symmetry_equiv_pos_as_xyz
  x,y,z
_cell_length_a	16.120490
_cell_length_b	16.120256
_cell_length_c	16.625546
_cell_angle_alpha	92.872129
_cell_angle_beta	87.114737
_cell_angle_gamma	90.129807
loop_
_atom_site_label
_atom_site_type_symbol
_atom_site_fract_x
_atom_site_fract_y
_atom_site_fract_z
Zn1	Zn	1.247455	-0.534520	-0.408579
Zn2	Zn	1.747455	-0.034520	0.091421
Zn3	Zn	1.254409	-0.395457	-0.536934
Zn4	Zn	1.754409	0.104543	-0.036934
Zn5	Zn	1.115444	-0.388441	-0.394943
Zn6	Zn	1.615444	0.111559	0.105057
Zn7	Zn	1.108364	-0.527430	-0.536187
Zn8	Zn	1.608364	-0.027430	-0.036187
O9	O	1.181418	-0.461462	-0.469161
O10	O	1.681418	0.038538	0.030839
O11	O	1.364744	-0.521976	-0.431625
O12	O	1.864744	-0.021976	0.068375
O13	O	1.241848	-0.278160	-0.512704
O14	O	1.741848	0.221840	-0.012704
O15	O	1.133009	-0.407850	-0.283923
O16	O	1.633009	0.092150	0.216077
O17	O	1.369853	-0.419807	-0.525926
O18	O	1.869853	0.080193	-0.025926
O19	O	1.229997	-0.515174	-0.293942
O20	O	1.729997	-0.015174	0.206058
O21	O	1.139752	-0.273006	-0.408384
O22	O	1.639752	0.226994	0.091616
O23	O	0.998138	-0.400975	-0.407660
O24	O	1.498138	0.099025	0.092340
O25	O	1.120942	-0.644737	-0.524654
O26	O	1.620942	-0.144737	-0.024654
O27	O	0.992936	-0.503090	-0.511432
O28	O	1.492936	-0.003090	-0.011432
O29	O	1.223131	-0.649946	-0.430901
O30	O	1.723131	-0.149946	0.069099
O31	O	1.234982	-0.412932	-0.649663
O32	O	1.734982	0.087068	-0.149663
O33	O	1.127684	-0.509892	-0.649115
O34	O	1.627684	-0.009892	-0.149115
C35	C	0.965365	-0.450502	-0.457986
C36	C	1.465365	0.049498	0.042014
C37	C	0.872935	-0.445834	-0.453225
C38	C	1.372935	0.054166	0.046775
C39	C	0.659974	-0.485682	-0.493847
C40	C	1.159974	0.014318	0.006153
C41	C	0.703710	-0.437308	-0.444542
C42	C	1.203710	0.062692	0.055458
C43	C	0.797875	-0.442053	-0.449375
C44	C	1.297875	0.057947	0.050625
C45	C	0.565800	-0.480938	-0.489015
C46	C	1.065800	0.019062	0.010985
C47	C	1.170471	-0.678357	-0.479216
C48	C	1.670471	-0.178357	0.020784
C49	C	1.165806	-0.770785	-0.483500
C50	C	1.665806	-0.270785	0.016500
C51	C	1.205744	-0.983769	-0.446795
C52	C	1.705744	-0.483769	0.053205
C53	C	1.157261	-0.940005	-0.491289
C54	C	1.657261	-0.440005	0.008711
C55	C	1.162017	-0.845842	-0.486954
C56	C	1.662017	-0.345842	0.013046
C57	C	1.200989	-1.077941	-0.451129
C58	C	1.700989	-0.577941	0.048871
C59	C	1.398315	-0.472465	-0.480380
C60	C	1.898315	0.027535	0.019620
C61	C	1.490744	-0.477154	-0.485161
C62	C	1.990744	0.022846	0.014839
C63	C	1.181341	-0.461423	-0.678646
C64	C	1.681341	0.038577	-0.178646
C65	C	1.181383	-0.461438	-0.768270
C66	C	1.681383	0.038562	-0.268270
C67	C	1.192370	-0.245413	-0.459089
C68	C	1.692370	0.254587	0.040911
C69	C	1.197197	-0.152994	-0.454586
C70	C	1.697197	0.347006	0.045414
C71	C	1.181524	-0.461532	-1.096457
C72	C	1.681524	0.038468	-0.596457
C73	C	1.181482	-0.461508	-1.005145
C74	C	1.681482	0.038492	-0.505145
C75	C	1.181453	-0.461485	-0.932366
C76	C	1.681453	0.038515	-0.432366
C77	C	1.181412	-0.461462	-0.841049
C78	C	1.681412	0.038538	-0.341049
C79	C	1.181517	-0.461520	-0.258860
C80	C	1.681517	0.038480	0.241140
C81	C	1.181559	-0.461545	-0.169242
C82	C	1.681559	0.038455	0.330758
H83	H	0.693249	-0.530655	-0.539686
H84	H	1.193249	-0.030655	-0.039686
H85	H	1.112177	-0.973255	-0.532631
H86	H	1.612177	-0.473255	-0.032631
C87	C	1.247665	-0.958888	-0.311148
C88	C	1.747665	-0.458888	0.188852
C89	C	1.266602	-0.938887	-0.390986
C90	C	1.766602	-0.438887	0.109014
H91	H	1.285235	-0.931167	-0.276697
H92	H	1.785235	-0.431167	0.223303
H93	H	1.252420	-1.017188	-0.306775
H94	H	1.752420	-0.517188	0.193225
H95	H	1.192500	-0.941858	-0.295823
H96	H	1.692500	-0.441858	0.204177
H97	H	1.321765	-0.955923	-0.406313
H98	H	1.821765	-0.455923	0.093687
H99	H	1.261855	-0.880574	-0.395362
H100	H	1.761855	-0.380574	0.104638
C101	C	0.572854	-0.383530	-0.389830
C102	C	1.072854	0.116470	0.110170
C103	C	0.658796	-0.376554	-0.382687
C104	C	1.158796	0.123446	0.117313
H105	H	0.545126	-0.346011	-0.351657
H106	H	1.045126	0.153989	0.148343
H107	H	0.555852	-0.438705	-0.379957
H108	H	1.055852	0.061295	0.120043
H109	H	0.559300	-0.370592	-0.442721
H110	H	1.059300	0.129408	0.057279
H111	H	0.672351	-0.389499	-0.329798
H112	H	1.172351	0.110501	0.170202
H113	H	0.675804	-0.321367	-0.392554
H114	H	1.175804	0.178633	0.107446
