data_functionalizedCrystal
_audit_creation_method	'MofGen! by Chris Wilmer'
_symmetry_space_group_name_H-M	'P1'
_symmetry_Int_Tables_number	1
_symmetry_cell_setting	triclinic
loop_
_symmetry_equiv_pos_as_xyz
  x,y,z
_cell_length_a	16.109302
_cell_length_b	10.967953
_cell_length_c	15.186229
_cell_angle_alpha	102.126486
_cell_angle_beta	89.994701
_cell_angle_gamma	84.099760
loop_
_atom_site_label
_atom_site_type_symbol
_atom_site_fract_x
_atom_site_fract_y
_atom_site_fract_z
O1	O	1.104071	0.160393	-0.048926
O2	O	1.437405	0.493726	0.284407
O3	O	1.770738	0.827059	0.617741
O4	O	0.862127	0.180352	-0.045890
O5	O	1.195460	0.513685	0.287443
O6	O	1.528793	0.847018	0.620777
O7	O	0.988683	-0.011275	-0.074970
O8	O	1.322016	0.322058	0.258363
O9	O	1.655349	0.655391	0.591696
O10	O	0.977515	0.352019	-0.019846
O11	O	1.310849	0.685353	0.313487
O12	O	1.644182	1.018686	0.646821
O13	O	0.988674	-0.011278	0.071487
O14	O	1.322008	0.322055	0.404820
O15	O	1.655341	0.655389	0.738153
O16	O	0.862118	0.180349	0.100567
O17	O	1.195452	0.513682	0.433900
O18	O	1.528785	0.847016	0.767233
O19	O	1.104063	0.160390	0.097531
O20	O	1.437396	0.493723	0.430864
O21	O	1.770730	0.827056	0.764197
Zn22	Zn	0.983089	0.170369	0.122302
Zn23	Zn	1.316423	0.503702	0.455635
Zn24	Zn	1.649756	0.837036	0.788969
Zn25	Zn	0.983100	0.170373	-0.070661
Zn26	Zn	1.316434	0.503706	0.262672
Zn27	Zn	1.649767	0.837039	0.596005
O28	O	0.977507	0.352017	0.126611
O29	O	1.310840	0.685350	0.459944
O30	O	1.644174	1.018683	0.793277
C31	C	0.831143	0.179542	0.027216
C32	C	1.164476	0.512875	0.360550
C33	C	1.497809	0.846208	0.693883
C34	C	0.738833	0.177117	0.026851
C35	C	1.072167	0.510451	0.360185
C36	C	1.405500	0.843784	0.693518
C37	C	0.526455	0.171510	0.105826
C38	C	0.859788	0.504843	0.439159
C39	C	1.193122	0.838177	0.772492
C40	C	0.439721	0.169219	0.105475
C41	C	0.773055	0.502552	0.438808
C42	C	1.106388	0.835885	0.772142
C43	C	0.439741	0.169228	-0.054199
C44	C	0.773074	0.502561	0.279134
C45	C	1.106408	0.835895	0.612467
C46	C	0.526474	0.171510	-0.053849
C47	C	0.859807	0.504844	0.279484
C48	C	1.193140	0.838177	0.612817
C49	C	0.569828	0.172658	0.026167
C50	C	0.903161	0.505991	0.359500
C51	C	1.236495	0.839324	0.692834
C52	C	0.396362	0.168084	0.025466
C53	C	0.729695	0.501417	0.358799
C54	C	1.063028	0.834751	0.692133
C55	C	0.302321	0.165599	0.025085
C56	C	0.635655	0.498933	0.358418
C57	C	0.968988	0.832266	0.691752
C58	C	0.663874	0.175140	0.026548
C59	C	0.997208	0.508473	0.359881
C60	C	1.330541	0.841806	0.693214
C61	C	0.987867	-0.057765	-0.008797
C62	C	1.321200	0.275569	0.324536
C63	C	1.654534	0.608902	0.657869
C64	C	0.985439	-0.196285	-0.029821
C65	C	1.318772	0.137049	0.303512
C66	C	1.652106	0.470382	0.636846
C67	C	0.981839	-0.401211	0.014958
C68	C	1.315172	-0.067878	0.348291
C69	C	1.648505	0.265455	0.681625
C70	C	0.984351	-0.258044	0.036684
C71	C	1.317684	0.075289	0.370018
C72	C	1.651018	0.408623	0.703351
C73	C	1.135047	0.161200	0.024422
C74	C	1.468380	0.494533	0.357755
C75	C	1.801713	0.827866	0.691089
C76	C	1.227356	0.163624	0.024782
C77	C	1.560690	0.496958	0.358115
C78	C	1.894023	0.830291	0.691448
C79	C	0.978323	0.398506	0.060436
C80	C	1.311656	0.731840	0.393769
C81	C	1.644989	1.065173	0.727103
C82	C	0.980751	0.537026	0.081454
C83	C	1.314084	0.870359	0.414787
C84	C	1.647417	1.203693	0.748121
N85	N	0.983088	0.170366	0.253994
N86	N	1.316421	0.503699	0.587327
N87	N	1.649754	0.837032	0.920661
N88	N	0.983109	0.170366	-0.202355
N89	N	1.316442	0.503699	0.130978
N90	N	1.649775	0.837032	0.464312
C91	C	1.039146	0.085542	0.466845
C92	C	1.372479	0.418875	0.800178
C93	C	1.705813	0.752209	1.133511
C94	C	1.039149	0.085539	0.559034
C95	C	1.372482	0.418872	0.892367
C96	C	1.705815	0.752206	1.225700
C97	C	0.927044	0.255194	0.584789
C98	C	1.260377	0.588527	0.918122
C99	C	1.593711	0.921860	1.251455
C100	C	0.927038	0.255190	0.492600
C101	C	1.260372	0.588523	0.825933
C102	C	1.593705	0.921856	1.159267
C103	C	0.983094	0.170365	0.433631
C104	C	1.316427	0.503699	0.766964
C105	C	1.649760	0.837032	1.100297
C106	C	0.983102	0.170366	0.618008
C107	C	1.316436	0.503700	0.951342
C108	C	1.649769	0.837033	1.284675
C109	C	0.983105	0.170364	0.717964
C110	C	1.316438	0.503697	1.051297
C111	C	1.649771	0.837030	1.384631
C112	C	0.983091	0.170366	0.333668
C113	C	1.316424	0.503699	0.667002
C114	C	1.649757	0.837033	1.000335
H115	H	0.561789	0.172442	-0.118721
H116	H	0.895123	0.505775	0.214612
H117	H	1.228456	0.839108	0.547945
H118	H	0.561751	0.172444	0.170980
H119	H	0.895085	0.505777	0.504313
H120	H	1.228418	0.839111	0.837647
Cl121	Cl	0.856563	0.361827	0.450840
Cl122	Cl	1.189896	0.695160	0.784173
Cl123	Cl	1.523230	1.028494	1.117507
H124	H	0.980915	-0.454325	-0.058056
H125	H	1.314249	-0.120992	0.275278
H126	H	1.647582	0.212341	0.608611
H127	H	1.084789	0.016471	0.418833
H128	H	1.418122	0.349804	0.752166
H129	H	1.751455	0.683138	1.085499
H130	H	0.985283	-0.204936	0.109703
H131	H	1.318617	0.128397	0.443036
H132	H	1.651950	0.461730	0.776369
Cl133	Cl	0.984007	-0.278269	-0.142558
Cl134	Cl	1.317341	0.055064	0.190775
Cl135	Cl	1.650674	0.388398	0.524108
H136	H	0.981683	-0.409861	0.154468
H137	H	1.315017	-0.076528	0.487801
H138	H	1.648350	0.256805	0.821134
Cl139	Cl	1.109615	-0.021103	0.600785
Cl140	Cl	1.442949	0.312230	0.934118
Cl141	Cl	1.776282	0.645564	1.267452
Cl142	Cl	0.385235	0.167755	-0.154790
Cl143	Cl	0.718569	0.501089	0.178543
Cl144	Cl	1.051902	0.834422	0.511877
H145	H	0.404411	0.168284	0.170341
H146	H	0.737744	0.501618	0.503674
H147	H	1.071078	0.834951	0.837008
Cl148	Cl	0.856581	0.361830	0.658926
Cl149	Cl	1.189914	0.695164	0.992259
Cl150	Cl	1.523247	1.028497	1.325592
