data_functionalizedCrystal
_audit_creation_method	'MofGen! by Chris Wilmer'
_symmetry_space_group_name_H-M	'P1'
_symmetry_Int_Tables_number	1
_symmetry_cell_setting	triclinic
loop_
_symmetry_equiv_pos_as_xyz
  x,y,z
_cell_length_a	10.654550
_cell_length_b	9.130313
_cell_length_c	10.654550
_cell_angle_alpha	90.001126
_cell_angle_beta	84.484931
_cell_angle_gamma	89.997013
loop_
_atom_site_label
_atom_site_type_symbol
_atom_site_fract_x
_atom_site_fract_y
_atom_site_fract_z
O1	O	1.667834	0.121690	0.176393
O2	O	1.302356	0.121716	0.193199
O3	O	1.493498	0.121693	0.002057
O4	O	1.476692	0.121713	0.367536
O5	O	1.493495	-0.121906	0.002062
O6	O	1.302353	-0.121882	0.193205
O7	O	1.667832	-0.121909	0.176399
Cu8	Cu	1.485092	-0.144138	0.184802
Cu9	Cu	1.485095	0.143946	0.184796
O10	O	1.476689	-0.121886	0.367541
C11	C	1.255556	-0.000080	0.191968
C12	C	1.116113	-0.000070	0.188276
N13	N	1.485099	-0.346761	0.184806
C14	C	1.036628	-0.000068	0.300818
C15	C	0.905607	-0.000093	0.297341
C16	C	0.933570	-0.000117	0.068772
C17	C	1.064588	-0.000101	0.072250
C18	C	1.569759	-0.423423	0.100197
C19	C	1.569756	-0.576760	0.100182
C20	C	1.400429	-0.576759	0.269395
C21	C	1.400427	-0.423425	0.269403
C22	C	1.654431	-0.346759	0.015599
C23	C	1.739099	-0.423422	-0.069016
C24	C	1.739095	-0.576759	-0.069031
C25	C	1.654424	-0.653433	0.015569
C26	C	1.714631	-0.000110	0.177630
C27	C	1.854074	-0.000110	0.181322
C28	C	1.492263	-0.000105	-0.044738
C29	C	1.488571	-0.000103	-0.184181
N30	N	1.485098	0.346568	0.184783
C31	C	1.601112	-0.000111	-0.263667
C32	C	1.597636	-0.000092	-0.394688
C33	C	1.369066	-0.000065	-0.366725
C34	C	1.372544	-0.000073	-0.235706
C35	C	1.477925	-0.000084	0.414336
C36	C	1.481617	-0.000077	0.553779
H37	H	0.840894	-0.000095	0.388984
N38	N	0.877979	-0.000133	-0.056358
H39	H	0.906882	0.090166	-0.105720
H40	H	0.906913	-0.090498	-0.105613
N41	N	1.150331	-0.000121	-0.049140
H42	H	1.097812	-0.000135	-0.123170
H43	H	1.205296	0.090186	-0.052683
H44	H	1.654444	-0.221905	0.015606
H45	H	1.331488	-0.361006	0.338298
H46	H	1.808028	-0.360986	-0.137901
H47	H	1.280893	-0.000062	-0.170985
N48	N	1.243935	-0.000054	-0.422311
H49	H	1.194577	-0.090352	-0.393398
H50	H	1.194677	0.090312	-0.393382
N51	N	1.654404	-0.818818	0.015559
H52	H	1.635395	-0.855744	-0.069945
H53	H	1.739901	-0.855651	0.034676
N54	N	1.830419	-0.659449	-0.160276
H55	H	1.884060	-0.587611	-0.213857
H56	H	1.886342	-0.723064	-0.111657
H57	H	1.331494	-0.639197	0.338274
H58	H	1.695588	-0.000132	-0.221720
H59	H	1.078574	-0.000053	0.395294
N60	N	1.719019	-0.000100	-0.480420
H61	H	1.793044	-0.000121	-0.427894
H62	H	1.722548	-0.090401	-0.535397
