data_functionalizedCrystal
_audit_creation_method	'MofGen! by Chris Wilmer'
_symmetry_space_group_name_H-M	'P1'
_symmetry_Int_Tables_number	1
_symmetry_cell_setting	triclinic
loop_
_symmetry_equiv_pos_as_xyz
  x,y,z
_cell_length_a	15.995350
_cell_length_b	17.038272
_cell_length_c	14.472310
_cell_angle_alpha	89.999298
_cell_angle_beta	89.990621
_cell_angle_gamma	87.301966
loop_
_atom_site_label
_atom_site_type_symbol
_atom_site_fract_x
_atom_site_fract_y
_atom_site_fract_z
O1	O	1.118175	0.100774	-0.076763
O2	O	0.875286	0.113219	-0.076782
O3	O	0.995287	-0.006819	-0.076766
O4	O	0.998174	0.220812	-0.076780
O5	O	0.995254	-0.006812	0.076916
O6	O	0.875253	0.113226	0.076900
O7	O	1.118142	0.100781	0.076919
Cu8	Cu	0.996695	0.107004	0.090942
Cu9	Cu	0.996733	0.106996	-0.090805
O10	O	0.998141	0.220819	0.076902
C11	C	0.844038	0.112708	0.000056
C12	C	0.750978	0.111165	0.000049
C13	C	0.412836	0.105626	0.000069
C14	C	0.454180	0.020137	0.000417
C15	C	0.550981	0.021680	0.000064
C16	C	0.580592	0.108374	0.000060
C17	C	0.542527	0.150536	-0.087699
C18	C	0.445739	0.148388	-0.087766
C19	C	0.445488	0.150162	0.086999
C20	C	0.542432	0.150142	0.088152
C21	C	0.675401	0.109931	0.000051
C22	C	0.318027	0.104071	0.000071
C23	C	0.992645	-0.035945	0.000075
C24	C	0.984810	-0.122740	0.000074
C25	C	1.056739	-0.172836	0.000081
C26	C	1.049373	-0.254389	0.000072
C27	C	0.970077	-0.285843	0.000062
C28	C	0.898143	-0.235740	0.000053
C29	C	0.905510	-0.154189	0.000056
C30	C	0.944051	-0.531607	0.000047
C31	C	0.936689	-0.613164	0.000048
C32	C	1.087920	-0.631807	0.000065
C33	C	1.095280	-0.550254	0.000073
C34	C	1.023346	-0.500158	0.000059
C35	C	0.962546	-0.369202	0.000056
C36	C	1.030878	-0.416801	0.000059
C37	C	1.149390	0.101292	0.000078
C38	C	1.242450	0.102834	0.000079
C39	C	1.000784	0.249944	0.000059
C40	C	1.008618	0.336739	0.000054
N41	N	0.996674	0.107009	0.218773
N42	N	0.996761	0.106984	-0.218636
C43	C	0.996732	0.106993	0.592864
C44	C	0.932276	0.171007	0.553689
C45	C	0.932452	0.171241	0.446601
C46	C	0.996702	0.107001	0.407273
C47	C	1.085336	0.124819	0.446115
C48	C	1.084981	0.125274	0.553237
C49	C	0.973320	0.024970	0.553397
C50	C	0.971356	0.025517	0.446269
C51	C	0.996691	0.107004	0.302385
C52	C	0.996749	0.106991	0.697752
H53	H	0.568829	0.121246	-0.153008
O54	O	0.425030	-0.024929	-0.082476
H55	H	0.454579	-0.085187	-0.081559
O56	O	0.877023	-0.403134	0.000051
H57	H	0.828238	-0.354600	0.000044
O58	O	1.142266	-0.138913	0.000093
H59	H	1.149249	-0.102198	-0.062540
O60	O	0.812617	-0.269665	0.000053
H61	H	0.805656	-0.306381	-0.062579
H62	H	0.947652	0.231532	0.580596
O63	O	0.568750	0.233885	0.095171
H64	H	0.512357	0.274412	0.094313
H65	H	1.020257	-0.022668	0.578729
O66	O	0.409358	0.233650	0.087799
H67	H	0.368342	0.243416	0.026619
H68	H	1.107945	-0.295174	0.000079
H69	H	1.159850	-0.524651	0.000081
H70	H	0.866382	0.160566	0.579472
O71	O	0.585503	-0.022210	0.083399
H72	H	0.533050	-0.044735	0.124312
O73	O	0.851160	-0.647095	0.000044
H74	H	0.844208	-0.683815	-0.062587
H75	H	0.576475	-0.011692	-0.062951
O76	O	0.845427	0.157194	0.411812
H77	H	0.822620	0.208057	0.369354
H78	H	0.885477	-0.490828	0.000036
O79	O	0.827932	-0.100150	0.000058
H80	H	0.771554	-0.135721	0.000062
H81	H	0.948007	0.232108	0.420964
H82	H	1.146484	-0.672604	0.000074
H83	H	0.433211	-0.014032	0.063353
H84	H	1.095440	-0.391187	0.000046
O85	O	1.111132	0.204507	0.586329
H86	H	1.123907	0.242140	0.525822
H87	H	0.425254	0.117636	-0.153365
O88	O	0.408934	0.231521	-0.093065
H89	H	0.460282	0.273077	-0.095576
H90	H	1.134751	0.080487	0.579149
O91	O	0.567249	0.234902	-0.092044
H92	H	0.607027	0.247705	-0.031556
H93	H	1.134688	0.079434	0.420639
H94	H	1.105401	0.183955	0.419276
O95	O	0.889132	0.002284	0.589204
H96	H	0.863035	0.049224	0.635536
H97	H	1.014806	-0.024352	0.419501
O98	O	0.415653	0.113141	0.175117
H99	H	0.377213	0.062579	0.157933
H100	H	0.906126	0.011995	0.420882
H101	H	0.567542	0.119364	0.153076
