data_functionalizedCrystal
_audit_creation_method	'MofGen! by Chris Wilmer'
_symmetry_space_group_name_H-M	'P1'
_symmetry_Int_Tables_number	1
_symmetry_cell_setting	triclinic
loop_
_symmetry_equiv_pos_as_xyz
  x,y,z
_cell_length_a	6.817900
_cell_length_b	12.095930
_cell_length_c	19.551823
_cell_angle_alpha	84.683747
_cell_angle_beta	101.663376
_cell_angle_gamma	74.549720
loop_
_atom_site_label
_atom_site_type_symbol
_atom_site_fract_x
_atom_site_fract_y
_atom_site_fract_z
V1	V	-4.039738	0.358199	-0.096841
O2	O	-4.036211	0.350829	0.004482
O3	O	-3.982312	0.356280	-0.191856
O4	O	-4.001037	0.514180	-0.095427
O5	O	-4.017357	0.191836	-0.092614
V6	V	-4.523279	0.338236	-0.084713
O7	O	-4.300958	0.401989	-0.123446
O8	O	-4.712257	0.294446	-0.058108
O9	O	-4.357499	0.340155	0.010301
O10	O	-4.644203	0.345607	-0.186037
O11	O	-4.663058	0.504600	-0.088941
O12	O	-4.338774	0.182255	-0.086128
C13	C	-3.824803	0.350766	-0.215016
C14	C	-3.859201	0.350237	-0.292692
C15	C	-4.057484	0.355725	-0.332740
C16	C	-4.089811	0.355239	-0.405726
C17	C	-3.923833	0.349242	-0.438658
C18	C	-3.725525	0.343760	-0.398601
C19	C	-3.693209	0.344258	-0.325618
C20	C	-3.806081	0.276501	-0.545112
C21	C	-3.838401	0.275997	-0.618094
C22	C	-4.023500	0.347713	-0.663764
C23	C	-4.176303	0.419920	-0.636442
C24	C	-4.143987	0.420417	-0.563459
C25	C	-3.958854	0.348703	-0.517796
C26	C	-4.256848	0.352676	-0.782952
C27	C	-4.289171	0.352198	-0.855940
C28	C	-3.924874	0.340707	-0.848813
C29	C	-3.892562	0.341198	-0.775827
C30	C	-4.058554	0.347177	-0.742901
C31	C	-4.154465	0.144248	-0.089546
C32	C	-4.084122	0.016728	-0.090071
C33	C	-3.955388	-0.216742	-0.091047
C34	C	-4.027033	-0.086823	-0.090503
C35	C	-3.848688	0.552182	-0.092010
C36	C	-3.898269	0.679701	-0.091483
C37	C	-4.178349	0.345666	0.033458
C38	C	-4.123190	0.346203	0.111133
H39	H	-4.251281	0.359708	-0.438339
C40	C	-4.312045	0.499848	-0.533405
C41	C	-4.515655	0.578739	-0.583630
C42	C	-4.683709	0.658175	-0.553576
C43	C	-4.648153	0.658720	-0.473296
C44	C	-4.444534	0.579826	-0.423066
C45	C	-4.276480	0.500390	-0.453121
H46	H	-4.541984	0.578339	-0.643062
H47	H	-4.834442	0.716578	-0.590760
H48	H	-4.772557	0.717523	-0.451049
H49	H	-4.418205	0.580226	-0.363635
H50	H	-4.125747	0.441987	-0.415937
C51	C	-4.379931	0.498819	-0.686665
C52	C	-4.370504	0.591468	-0.744493
C53	C	-4.574134	0.670361	-0.794716
C54	C	-4.787191	0.656604	-0.787110
C55	C	-4.796627	0.563950	-0.729280
C56	C	-4.592997	0.485058	-0.679057
H57	H	-4.212779	0.601656	-0.750125
H58	H	-4.567148	0.738949	-0.837526
H59	H	-4.937930	0.715005	-0.824288
H60	H	-4.954352	0.553763	-0.723648
H61	H	-4.599983	0.416469	-0.636247
H62	H	-3.713985	0.217195	-0.640332
H63	H	-4.392008	0.357543	-0.756142
H64	H	-4.450643	0.356674	-0.888547
H65	H	-3.789734	0.335832	-0.875626
H66	H	-3.655337	0.218105	-0.507933
H67	H	-3.590388	0.338881	-0.425420
H68	H	-4.192655	0.360601	-0.305937
H69	H	-3.731097	0.336722	-0.743219
H70	H	-3.531742	0.339790	-0.293011
