data_functionalizedCrystal
_audit_creation_method	'MofGen! by Chris Wilmer'
_symmetry_space_group_name_H-M	'P1'
_symmetry_Int_Tables_number	1
_symmetry_cell_setting	triclinic
loop_
_symmetry_equiv_pos_as_xyz
  x,y,z
_cell_length_a	19.188930
_cell_length_b	14.421503
_cell_length_c	15.944551
_cell_angle_alpha	90.003340
_cell_angle_beta	83.321759
_cell_angle_gamma	89.978519
loop_
_atom_site_label
_atom_site_type_symbol
_atom_site_fract_x
_atom_site_fract_y
_atom_site_fract_z
O1	O	0.926420	-0.077412	0.104854
O2	O	1.176420	0.172588	0.354854
O3	O	1.426420	0.422588	0.604854
O4	O	1.676420	0.672588	0.854854
O5	O	0.723145	-0.077348	0.118971
O6	O	0.973145	0.172652	0.368971
O7	O	1.223145	0.422652	0.618971
O8	O	1.473145	0.672652	0.868971
O9	O	0.830334	-0.077374	-0.010383
O10	O	1.080334	0.172626	0.239617
O11	O	1.330334	0.422626	0.489617
O12	O	1.580334	0.672626	0.739617
O13	O	0.819232	-0.077387	0.234208
O14	O	1.069232	0.172613	0.484208
O15	O	1.319232	0.422613	0.734208
O16	O	1.569232	0.672613	0.984208
O17	O	0.830316	0.076850	-0.010364
O18	O	1.080316	0.326850	0.239636
O19	O	1.330316	0.576850	0.489636
O20	O	1.580316	0.826850	0.739636
O21	O	0.723128	0.076875	0.118990
O22	O	0.973128	0.326875	0.368990
O23	O	1.223128	0.576875	0.618990
O24	O	1.473128	0.826875	0.868990
O25	O	0.926402	0.076812	0.104874
O26	O	1.176402	0.326812	0.354874
O27	O	1.426402	0.576812	0.604874
O28	O	1.676402	0.826812	0.854874
Cu29	Cu	0.824763	0.090925	0.111934
Cu30	Cu	1.074763	0.340925	0.361934
Cu31	Cu	1.324763	0.590925	0.611934
Cu32	Cu	1.574763	0.840925	0.861934
Cu33	Cu	0.824784	-0.091462	0.111911
Cu34	Cu	1.074784	0.158538	0.361911
Cu35	Cu	1.324784	0.408538	0.611911
Cu36	Cu	1.574784	0.658538	0.861911
O37	O	0.819214	0.076837	0.234228
O38	O	1.069214	0.326837	0.484228
O39	O	1.319214	0.576837	0.734228
O40	O	1.569214	0.826837	0.984228
C41	C	0.697124	-0.000229	0.118524
C42	C	0.947124	0.249771	0.368524
C43	C	1.197124	0.499771	0.618524
C44	C	1.447124	0.749771	0.868524
C45	C	0.619616	-0.000204	0.117151
C46	C	0.869616	0.249796	0.367151
C47	C	1.119616	0.499796	0.617151
C48	C	1.369616	0.749796	0.867151
N49	N	0.824754	0.219206	0.111949
N50	N	1.074754	0.469206	0.361949
N51	N	1.324754	0.719206	0.611949
N52	N	1.574754	0.969206	0.861949
N53	N	0.824800	-0.219743	0.111889
N54	N	1.074800	0.030257	0.361889
N55	N	1.324800	0.280257	0.611889
N56	N	1.574800	0.530257	0.861889
C57	C	0.574889	-0.000223	0.193052
C58	C	0.824889	0.249777	0.443052
C59	C	1.074889	0.499777	0.693052
C60	C	1.324889	0.749777	0.943052
C61	C	0.502061	-0.000233	0.191763
C62	C	0.752061	0.249767	0.441763
C63	C	1.002061	0.499767	0.691763
C64	C	1.252061	0.749767	0.941763
C65	C	0.473965	-0.000243	0.114568
C66	C	0.723965	0.249757	0.364568
C67	C	0.973965	0.499757	0.614568
C68	C	1.223965	0.749757	0.864568
C69	C	0.518703	-0.000219	0.038658
C70	C	0.768703	0.249781	0.288658
C71	C	1.018703	0.499781	0.538658
C72	C	1.268703	0.749781	0.788658
C73	C	0.591528	-0.000200	0.039949
C74	C	0.841528	0.249800	0.289949
C75	C	1.091528	0.499800	0.539949
C76	C	1.341528	0.749800	0.789949
N77	N	0.365839	-0.052766	0.055556
N78	N	0.615839	0.197234	0.305556
N79	N	0.865839	0.447234	0.555556
N80	N	1.115839	0.697234	0.805556
N81	N	0.296657	-0.052787	0.054335
N82	N	0.546657	0.197213	0.304335
N83	N	0.796657	0.447213	0.554335
N84	N	1.046657	0.697213	0.804335
C85	C	0.254547	-0.000300	0.110673
C86	C	0.504547	0.249700	0.360673
C87	C	0.754547	0.499700	0.610673
C88	C	1.004547	0.749700	0.860673
N89	N	0.284230	0.052197	0.168291
N90	N	0.534230	0.302197	0.418291
N91	N	0.784230	0.552197	0.668291
N92	N	1.034230	0.802197	0.918291
N93	N	0.353418	0.052213	0.169515
N94	N	0.603418	0.302213	0.419515
N95	N	0.853418	0.552213	0.669515
N96	N	1.103418	0.802213	0.919515
C97	C	0.394999	-0.000263	0.113160
C98	C	0.644999	0.249737	0.363160
C99	C	0.894999	0.499737	0.613160
C100	C	1.144999	0.749737	0.863160
C101	C	0.130851	-0.000328	0.185181
C102	C	0.380851	0.249672	0.435181
C103	C	0.630851	0.499672	0.685181
C104	C	0.880851	0.749672	0.935181
C105	C	0.058023	-0.000332	0.183888
C106	C	0.308023	0.249668	0.433888
C107	C	0.558023	0.499668	0.683888
C108	C	0.808023	0.749668	0.933888
C109	C	0.074666	-0.000328	0.030781
C110	C	0.324666	0.249672	0.280781
C111	C	0.574666	0.499672	0.530781
C112	C	0.824666	0.749672	0.780781
C113	C	0.147492	-0.000314	0.032076
C114	C	0.397492	0.249686	0.282076
C115	C	0.647492	0.499686	0.532076
C116	C	0.897492	0.749686	0.782076
C117	C	0.175580	-0.000319	0.109278
C118	C	0.425580	0.249681	0.359278
C119	C	0.675580	0.499681	0.609278
C120	C	0.925580	0.749681	0.859278
C121	C	0.952423	-0.000310	0.105321
C122	C	1.202423	0.249690	0.355321
C123	C	1.452423	0.499690	0.605321
C124	C	1.702423	0.749690	0.855321
C125	C	1.029932	-0.000341	0.106693
C126	C	1.279932	0.249659	0.356693
C127	C	1.529932	0.499659	0.606693
C128	C	1.779932	0.749659	0.856693
C129	C	0.829864	-0.000261	-0.041666
C130	C	1.079864	0.249739	0.208334
C131	C	1.329864	0.499739	0.458334
C132	C	1.579864	0.749739	0.708334
C133	C	0.828482	-0.000261	-0.134906
C134	C	1.078482	0.249739	0.115094
C135	C	1.328482	0.499739	0.365094
C136	C	1.578482	0.749739	0.615094
C137	C	0.775181	0.468872	0.171736
C138	C	1.025181	0.718872	0.421736
C139	C	1.275181	0.968872	0.671736
C140	C	1.525181	1.218872	0.921736
C141	C	0.838271	0.530653	0.187807
C142	C	1.088271	0.780653	0.437807
C143	C	1.338271	1.030653	0.687807
C144	C	1.588271	1.280653	0.937807
C145	C	0.824771	0.408368	0.111929
C146	C	1.074771	0.658368	0.361929
C147	C	1.324771	0.908368	0.611929
C148	C	1.574771	1.158368	0.861929
C149	C	0.761697	0.530680	0.095877
C150	C	1.011697	0.780680	0.345877
C151	C	1.261697	1.030680	0.595877
C152	C	1.511697	1.280680	0.845877
C153	C	0.824781	0.591089	0.111912
C154	C	1.074781	0.841089	0.361912
C155	C	1.324781	1.091089	0.611912
C156	C	1.574781	1.341089	0.861912
C157	C	0.887892	0.468789	0.128038
C158	C	1.137892	0.718789	0.378038
C159	C	1.387892	0.968789	0.628038
C160	C	1.637892	1.218789	0.878038
C161	C	0.811277	0.468810	0.036076
C162	C	1.061277	0.718810	0.286076
C163	C	1.311277	0.968810	0.536076
C164	C	1.561277	1.218810	0.786076
C165	C	0.874413	0.530564	0.052114
C166	C	1.124413	0.780564	0.302114
C167	C	1.374413	1.030564	0.552114
C168	C	1.624413	1.280564	0.802114
C169	C	0.824764	0.303107	0.111941
C170	C	1.074764	0.553107	0.361941
C171	C	1.324764	0.803107	0.611941
C172	C	1.574764	1.053107	0.861941
C173	C	0.824796	0.696348	0.111899
C174	C	1.074796	0.946348	0.361899
C175	C	1.324796	1.196348	0.611899
C176	C	1.574796	1.446348	0.861899
C177	C	0.758739	-0.000252	-0.349502
C178	C	1.008739	0.249748	-0.099502
C179	C	1.258739	0.499748	0.150498
C180	C	1.508739	0.749748	0.400498
C181	C	0.791117	0.075780	-0.410631
C182	C	1.041117	0.325780	-0.160631
C183	C	1.291117	0.575780	0.089369
C184	C	1.541117	0.825780	0.339369
C185	C	0.825983	-0.000267	-0.305623
C186	C	1.075983	0.249733	-0.055623
C187	C	1.325983	0.499733	0.194377
C188	C	1.575983	0.749733	0.444377
C189	C	0.791150	-0.076272	-0.410634
C190	C	1.041150	0.173728	-0.160634
C191	C	1.291150	0.423728	0.089366
C192	C	1.541150	0.673728	0.339366
C193	C	0.823563	-0.000277	-0.470527
C194	C	1.073563	0.249723	-0.220527
C195	C	1.323563	0.499723	0.029473
C196	C	1.573563	0.749723	0.279473
C197	C	0.858379	0.075827	-0.365524
C198	C	1.108379	0.325827	-0.115524
C199	C	1.358379	0.575827	0.134476
C200	C	1.608379	0.825827	0.384476
C201	C	0.858403	-0.076293	-0.365520
C202	C	1.108403	0.173707	-0.115520
C203	C	1.358403	0.423707	0.134480
C204	C	1.608403	0.673707	0.384480
C205	C	0.890829	-0.000243	-0.426631
C206	C	1.140829	0.249757	-0.176631
C207	C	1.390829	0.499757	0.073369
C208	C	1.640829	0.749757	0.323369
C209	C	0.827374	-0.000260	-0.210626
C210	C	1.077374	0.249740	0.039374
C211	C	1.327374	0.499740	0.289374
C212	C	1.577374	0.749740	0.539374
C213	C	0.822176	-0.000277	-0.565522
C214	C	1.072176	0.249723	-0.315522
C215	C	1.322176	0.499723	-0.065522
C216	C	1.572176	0.749723	0.184478
C217	C	0.819684	-0.000277	0.265510
C218	C	1.069684	0.249723	0.515510
C219	C	1.319684	0.499723	0.765510
C220	C	1.569684	0.749723	1.015510
C221	C	0.821066	-0.000284	0.358751
C222	C	1.071066	0.249716	0.608751
C223	C	1.321066	0.499716	0.858751
C224	C	1.571066	0.749716	1.108751
H225	H	0.597753	-0.000228	0.255916
H226	H	0.847753	0.249772	0.505916
H227	H	1.097753	0.499772	0.755916
H228	H	1.347753	0.749772	1.005916
F229	F	0.454450	-0.000250	0.272550
F230	F	0.704450	0.249750	0.522550
F231	F	0.954450	0.499750	0.772550
F232	F	1.204450	0.749750	1.022550
F233	F	0.853203	0.566160	0.271641
F234	F	1.103203	0.816160	0.521641
F235	F	1.353203	1.066160	0.771641
F236	F	1.603203	1.316160	1.021641
H237	H	0.799834	0.441624	-0.028044
H238	H	1.049834	0.691624	0.221956
H239	H	1.299834	0.941624	0.471956
H240	H	1.549834	1.191624	0.721956
H241	H	0.708353	0.557868	0.082309
H242	H	0.958353	0.807868	0.332309
H243	H	1.208353	1.057868	0.582309
H244	H	1.458353	1.307868	0.832309
F245	F	0.957634	0.433408	0.145871
F246	F	1.207634	0.683408	0.395871
F247	F	1.457634	0.933408	0.645871
F248	F	1.707634	1.183408	0.895871
F249	F	0.720424	0.433461	0.237893
F250	F	0.970424	0.683461	0.487893
F251	F	1.220424	0.933461	0.737893
F252	F	1.470424	1.183461	0.987893
F253	F	0.929290	0.565753	-0.014006
F254	F	1.179290	0.815753	0.235994
F255	F	1.429290	1.065753	0.485994
F256	F	1.679290	1.315753	0.735994
F257	F	0.963846	-0.000213	-0.470247
F258	F	1.213846	0.249787	-0.220247
F259	F	1.463846	0.499787	0.029753
F260	F	1.713846	0.749787	0.279753
F261	F	0.160747	-0.000326	0.267345
F262	F	0.410747	0.249674	0.517345
F263	F	0.660747	0.499674	0.767345
F264	F	0.910747	0.749674	1.017345
H265	H	0.495822	-0.000240	-0.024194
H266	H	0.745822	0.249760	0.225806
H267	H	0.995822	0.499760	0.475806
H268	H	1.245822	0.749760	0.725806
F269	F	0.639133	-0.000180	-0.040838
F270	F	0.889133	0.249820	0.209162
F271	F	1.139133	0.499820	0.459162
F272	F	1.389133	0.749820	0.709162
H273	H	0.886827	-0.140592	-0.345504
H274	H	1.136827	0.109408	-0.095504
H275	H	1.386827	0.359408	0.154496
H276	H	1.636827	0.609408	0.404496
F277	F	0.685785	-0.000134	-0.305695
F278	F	0.935785	0.249866	-0.055695
F279	F	1.185785	0.499866	0.194305
F280	F	1.435785	0.749866	0.444305
F281	F	0.753934	0.159820	-0.436765
F282	F	1.003934	0.409820	-0.186765
F283	F	1.253934	0.659820	0.063235
F284	F	1.503934	0.909820	0.313235
F285	F	0.753970	-0.160282	-0.436765
F286	F	1.003970	0.089718	-0.186765
F287	F	1.253970	0.339718	0.063235
F288	F	1.503970	0.589718	0.313235
F289	F	0.010419	-0.000347	0.264677
F290	F	0.260419	0.249653	0.514677
F291	F	0.510419	0.499653	0.764677
F292	F	0.760419	0.749653	1.014677
F293	F	0.044769	-0.000329	-0.051375
F294	F	0.294769	0.249671	0.198625
F295	F	0.544769	0.499671	0.448625
F296	F	0.794769	0.749671	0.698625
F297	F	0.195097	-0.000299	-0.048709
F298	F	0.445097	0.249701	0.201291
F299	F	0.695097	0.499701	0.451291
F300	F	0.945097	0.749701	0.701291
F301	F	0.895515	0.159935	-0.339527
F302	F	1.145515	0.409935	-0.089527
F303	F	1.395515	0.659935	0.160473
F304	F	1.645515	0.909935	0.410473
