data_functionalizedCrystal
_audit_creation_method	'MofGen! by Chris Wilmer'
_symmetry_space_group_name_H-M	'P1'
_symmetry_Int_Tables_number	1
_symmetry_cell_setting	triclinic
loop_
_symmetry_equiv_pos_as_xyz
  x,y,z
_cell_length_a	19.121112
_cell_length_b	19.120785
_cell_length_c	19.121278
_cell_angle_alpha	84.986890
_cell_angle_beta	89.882050
_cell_angle_gamma	89.914053
loop_
_atom_site_label
_atom_site_type_symbol
_atom_site_fract_x
_atom_site_fract_y
_atom_site_fract_z
Zn1	Zn	1.042387	-0.305902	-0.428453
Zn2	Zn	1.042307	-0.428595	-0.305757
Zn3	Zn	0.930137	-0.306342	-0.306216
Zn4	Zn	0.920529	-0.418545	-0.418410
O5	O	0.983840	-0.364846	-0.364709
O6	O	1.140318	-0.326199	-0.416188
O7	O	1.031415	-0.416768	-0.207515
O8	O	0.949082	-0.207979	-0.326827
O9	O	1.140259	-0.416341	-0.326044
O10	O	1.031552	-0.207656	-0.416634
O11	O	0.949004	-0.326949	-0.207853
O12	O	0.830921	-0.317205	-0.317088
O13	O	0.932707	-0.399213	-0.518045
O14	O	0.823862	-0.399640	-0.399516
O15	O	1.022235	-0.316454	-0.525423
O16	O	1.022098	-0.525566	-0.316305
O17	O	0.932629	-0.518183	-0.399071
C18	C	0.801996	-0.357380	-0.357263
C19	C	0.724201	-0.354202	-0.354093
C20	C	0.976331	-0.547364	-0.356564
C21	C	0.973181	-0.625447	-0.353106
C22	C	0.284393	-0.334039	-0.334019
C23	C	0.357490	-0.337029	-0.337000
C24	C	0.390379	-0.381520	-0.381331
C25	C	0.350167	-0.423019	-0.422688
C26	C	0.277072	-0.420025	-0.419709
C27	C	0.610895	-0.392707	-0.392471
C28	C	0.683995	-0.395700	-0.395445
C29	C	0.691313	-0.309708	-0.309758
C30	C	0.618216	-0.306721	-0.306780
C31	C	0.578011	-0.348217	-0.348140
C32	C	0.465095	-0.384579	-0.384378
C33	C	0.503297	-0.345154	-0.345096
C34	C	0.953197	-1.067082	-0.331223
C35	C	0.956158	-0.993714	-0.334472
C36	C	1.000544	-0.956800	-0.382889
C37	C	1.041966	-0.993257	-0.428063
C38	C	1.039002	-1.066623	-0.424817
C39	C	1.011639	-0.735270	-0.395035
C40	C	1.014602	-0.661899	-0.398276
C41	C	0.928792	-0.662362	-0.304685
C42	C	0.925834	-0.735729	-0.301440
C43	C	0.967254	-0.772180	-0.346618
C44	C	1.003573	-0.881807	-0.386210
C45	C	0.964221	-0.847171	-0.343300
C46	C	1.166394	-0.372342	-0.372185
C47	C	1.244188	-0.375536	-0.375371
C48	C	0.976408	-0.356664	-0.547935
C49	C	0.973241	-0.353177	-0.626015
C50	C	0.991397	-0.181616	-0.372902
C51	C	0.994618	-0.103534	-0.376393
C52	C	0.953180	-0.331116	-1.067630
C53	C	0.956159	-0.334390	-0.994266
C54	C	1.000551	-0.382794	-0.957407
C55	C	1.041972	-0.427922	-0.993916
C56	C	1.038997	-0.424645	-1.067279
C57	C	1.011687	-0.395027	-0.735888
C58	C	1.014658	-0.398303	-0.662520
C59	C	0.928845	-0.304769	-0.662874
C60	C	0.925870	-0.301499	-0.736239
C61	C	0.967293	-0.346624	-0.772742
C62	C	1.003596	-0.386143	-0.882416
C63	C	0.964252	-0.343271	-0.847731
C64	C	0.991285	-0.372948	-0.182200
C65	C	0.994596	-0.376242	-0.104134
H66	H	0.257621	-0.297810	-0.297919
H67	H	0.724055	-0.275923	-0.276087
H68	H	1.078104	-0.963197	-0.467489
F69	F	0.234282	-0.464190	-0.463724
F70	F	0.905958	-1.106363	-0.279687
H71	H	0.922429	-0.964036	-0.297692
F72	F	0.916980	-0.886459	-0.291777
H73	H	0.710771	-0.431930	-0.431548
H74	H	1.072726	-1.096300	-0.461604
F75	F	1.055767	-0.443061	-0.774728
H76	H	1.039714	-0.851745	-0.425630
F77	F	0.905930	-0.279598	-1.106851
F78	F	0.917011	-0.291755	-0.886961
H79	H	0.889692	-0.765780	-0.262013
H80	H	0.578169	-0.426499	-0.426146
H81	H	0.390223	-0.303240	-0.303324
F82	F	0.884769	-0.256740	-0.624020
F83	F	1.089224	-0.479433	-0.954686
F84	F	0.385172	-0.470372	-0.469866
H85	H	0.591443	-0.270496	-0.270676
F86	F	1.083081	-0.472671	-1.106130
F87	F	0.468292	-0.297802	-0.297921
F88	F	1.055717	-0.774053	-0.443122
F89	F	1.061849	-0.622614	-0.449808
F90	F	0.912079	-0.286359	-0.955418
H91	H	0.491881	-0.420806	-0.420471
F92	F	1.050842	-0.437655	-0.843182
H93	H	1.050824	-0.437708	-0.632512
F94	F	0.884711	-0.623564	-0.256610
F95	F	0.878588	-0.250011	-0.775459
