data_functionalizedCrystal
_audit_creation_method	'MofGen! by Chris Wilmer'
_symmetry_space_group_name_H-M	'P1'
_symmetry_Int_Tables_number	1
_symmetry_cell_setting	triclinic
loop_
_symmetry_equiv_pos_as_xyz
  x,y,z
_cell_length_a	21.295419
_cell_length_b	21.295417
_cell_length_c	21.295411
_cell_angle_alpha	89.978356
_cell_angle_beta	89.975461
_cell_angle_gamma	90.045308
loop_
_atom_site_label
_atom_site_type_symbol
_atom_site_fract_x
_atom_site_fract_y
_atom_site_fract_z
Zn1	Zn	0.962356	-0.250432	-0.355911
Zn2	Zn	1.212356	-0.000432	-0.105911
Zn3	Zn	1.462356	0.249568	0.144089
Zn4	Zn	1.712356	0.499568	0.394089
Zn5	Zn	0.962258	-0.355684	-0.250637
Zn6	Zn	1.212258	-0.105684	-0.000637
Zn7	Zn	1.462258	0.144316	0.249363
Zn8	Zn	1.712258	0.394316	0.499363
Zn9	Zn	0.857079	-0.250460	-0.250656
Zn10	Zn	1.107079	-0.000460	-0.000656
Zn11	Zn	1.357079	0.249540	0.249344
Zn12	Zn	1.607079	0.499540	0.499344
Zn13	Zn	0.857048	-0.355695	-0.355868
Zn14	Zn	1.107048	-0.105695	-0.105868
Zn15	Zn	1.357048	0.144305	0.144132
Zn16	Zn	1.607048	0.394305	0.394132
O17	O	0.909685	-0.303068	-0.303268
O18	O	1.159685	-0.053068	-0.053268
O19	O	1.409685	0.196932	0.196732
O20	O	1.659685	0.446932	0.446732
O21	O	1.050432	-0.264378	-0.341956
O22	O	1.300432	-0.014378	-0.091956
O23	O	1.550432	0.235622	0.158044
O24	O	1.800432	0.485622	0.408044
O25	O	0.948278	-0.341733	-0.162550
O26	O	1.198278	-0.091733	0.087450
O27	O	1.448278	0.158267	0.337450
O28	O	1.698278	0.408267	0.587450
O29	O	0.871098	-0.162367	-0.264645
O30	O	1.121098	0.087633	-0.014645
O31	O	1.371098	0.337633	0.235355
O32	O	1.621098	0.587633	0.485355
O33	O	1.050360	-0.341706	-0.264611
O34	O	1.300360	-0.091706	-0.014611
O35	O	1.550360	0.158294	0.235389
O36	O	1.800360	0.408294	0.485389
O37	O	0.948444	-0.162347	-0.341975
O38	O	1.198444	0.087653	-0.091975
O39	O	1.448444	0.337653	0.158025
O40	O	1.698444	0.587653	0.408025
O41	O	0.871003	-0.264425	-0.162564
O42	O	1.121003	-0.014425	0.087436
O43	O	1.371003	0.235575	0.337436
O44	O	1.621003	0.485575	0.587436
O45	O	0.768985	-0.264436	-0.264603
O46	O	1.018985	-0.014436	-0.014603
O47	O	1.268985	0.235564	0.235397
O48	O	1.518985	0.485564	0.485397
O49	O	0.871045	-0.341724	-0.443963
O50	O	1.121045	-0.091724	-0.193963
O51	O	1.371045	0.158276	0.056037
O52	O	1.621045	0.408276	0.306037
O53	O	0.768963	-0.341751	-0.341902
O54	O	1.018963	-0.091751	-0.091902
O55	O	1.268963	0.158249	0.158098
O56	O	1.518963	0.408249	0.408098
O57	O	0.948414	-0.264388	-0.443995
O58	O	1.198414	-0.014388	-0.193995
O59	O	1.448414	0.235612	0.056005
O60	O	1.698414	0.485612	0.306005
O61	O	0.948248	-0.443775	-0.264570
O62	O	1.198248	-0.193775	-0.014570
O63	O	1.448248	0.056225	0.235430
O64	O	1.698248	0.306225	0.485430
O65	O	0.870951	-0.443783	-0.341883
O66	O	1.120951	-0.193783	-0.091883
O67	O	1.370951	0.056217	0.158117
O68	O	1.620951	0.306217	0.408117
C69	C	0.746133	-0.303098	-0.303250
C70	C	0.996133	-0.053098	-0.053250
C71	C	1.246133	0.196902	0.196750
C72	C	1.496133	0.446902	0.446750
C73	C	0.676165	-0.303126	-0.303258
C74	C	0.926165	-0.053126	-0.053258
C75	C	1.176165	0.196874	0.196742
C76	C	1.426165	0.446874	0.446742
C77	C	0.909603	-0.466619	-0.303233
C78	C	1.159603	-0.216619	-0.053233
C79	C	1.409603	0.033381	0.196767
C80	C	1.659603	0.283381	0.446767
C81	C	0.909625	-0.536588	-0.303239
C82	C	1.159625	-0.286588	-0.053239
C83	C	1.409625	-0.036588	0.196761
C84	C	1.659625	0.213412	0.446761
C85	C	0.643358	-0.262927	-0.343593
C86	C	0.893358	-0.012927	-0.093593
C87	C	1.143358	0.237073	0.156407
C88	C	1.393358	0.487073	0.406407
C89	C	0.577616	-0.262910	-0.343596
C90	C	0.827616	-0.012910	-0.093596
C91	C	1.077616	0.237090	0.156404
C92	C	1.327616	0.487090	0.406404
C93	C	0.544683	-0.303104	-0.303269
C94	C	0.794683	-0.053104	-0.053269
C95	C	1.044683	0.196896	0.196731
C96	C	1.294683	0.446896	0.446731
C97	C	0.577498	-0.343305	-0.262926
C98	C	0.827498	-0.093305	-0.012926
C99	C	1.077498	0.156695	0.237074
C100	C	1.327498	0.406695	0.487074
C101	C	0.643239	-0.343317	-0.262920
C102	C	0.893239	-0.093317	-0.012920
C103	C	1.143239	0.156683	0.237080
C104	C	1.393239	0.406683	0.487080
N105	N	0.441407	-0.358181	-0.298349
N106	N	0.691407	-0.108181	-0.048349
N107	N	0.941407	0.141819	0.201651
N108	N	1.191407	0.391819	0.451651
N109	N	0.378956	-0.358168	-0.298359
N110	N	0.628956	-0.108168	-0.048359
N111	N	0.878956	0.141832	0.201641
N112	N	1.128956	0.391832	0.451641
C113	C	0.346608	-0.303071	-0.303283
C114	C	0.596608	-0.053071	-0.053283
C115	C	0.846608	0.196929	0.196717
C116	C	1.096608	0.446929	0.446717
N117	N	0.379071	-0.247985	-0.308210
N118	N	0.629071	0.002015	-0.058210
N119	N	0.879071	0.252015	0.191790
N120	N	1.129071	0.502015	0.441790
N121	N	0.441528	-0.247999	-0.308205
N122	N	0.691528	0.002001	-0.058205
N123	N	0.941528	0.252001	0.191795
N124	N	1.191528	0.502001	0.441795
C125	C	0.473397	-0.303095	-0.303271
C126	C	0.723397	-0.053095	-0.053271
C127	C	0.973397	0.196905	0.196729
C128	C	1.223397	0.446905	0.446729
C129	C	0.242516	-0.262850	-0.343624
C130	C	0.492516	-0.012850	-0.093624
C131	C	0.742516	0.237150	0.156376
C132	C	0.992516	0.487150	0.406376
C133	C	0.176772	-0.262832	-0.343622
C134	C	0.426772	-0.012832	-0.093622
C135	C	0.676772	0.237168	0.156378
C136	C	0.926772	0.487168	0.406378
C137	C	0.176655	-0.343233	-0.262955
C138	C	0.426655	-0.093233	-0.012955
C139	C	0.676655	0.156767	0.237045
C140	C	0.926655	0.406767	0.487045
C141	C	0.242397	-0.343245	-0.262953
C142	C	0.492397	-0.093245	-0.012953
C143	C	0.742397	0.156755	0.237047
C144	C	0.992397	0.406755	0.487047
C145	C	0.275324	-0.303055	-0.303291
C146	C	0.525324	-0.053055	-0.053291
C147	C	0.775324	0.196945	0.196709
C148	C	1.025324	0.446945	0.446709
C149	C	0.949909	-0.569429	-0.263024
C150	C	1.199909	-0.319429	-0.013024
C151	C	1.449909	-0.069429	0.236976
C152	C	1.699909	0.180571	0.486976
C153	C	0.949939	-0.635172	-0.263038
C154	C	1.199939	-0.385172	-0.013038
C155	C	1.449939	-0.135172	0.236962
C156	C	1.699939	0.114828	0.486962
C157	C	0.909673	-0.668070	-0.303261
C158	C	1.159673	-0.418070	-0.053261
C159	C	1.409673	-0.168070	0.196739
C160	C	1.659673	0.081930	0.446739
C161	C	0.869385	-0.635220	-0.343485
C162	C	1.119385	-0.385220	-0.093485
C163	C	1.369385	-0.135220	0.156515
C164	C	1.619385	0.114780	0.406515
C165	C	0.869361	-0.569479	-0.343474
C166	C	1.119361	-0.319479	-0.093474
C167	C	1.369361	-0.069479	0.156526
C168	C	1.619361	0.180521	0.406526
N169	N	0.854606	-0.771351	-0.308054
N170	N	1.104606	-0.521351	-0.058054
N171	N	1.354606	-0.271351	0.191946
N172	N	1.604606	-0.021351	0.441946
N173	N	0.854630	-0.833802	-0.308061
N174	N	1.104630	-0.583802	-0.058061
N175	N	1.354630	-0.333802	0.191939
N176	N	1.604630	-0.083802	0.441939
C177	C	0.909743	-0.866145	-0.303297
C178	C	1.159743	-0.616145	-0.053297
C179	C	1.409743	-0.366145	0.196703
C180	C	1.659743	-0.116145	0.446703
N181	N	0.964832	-0.833676	-0.298514
N182	N	1.214832	-0.583676	-0.048514
N183	N	1.464832	-0.333676	0.201486
N184	N	1.714832	-0.083676	0.451486
N185	N	0.964807	-0.771219	-0.298504
N186	N	1.214807	-0.521219	-0.048504
N187	N	1.464807	-0.271219	0.201496
N188	N	1.714807	-0.021219	0.451496
C189	C	0.909694	-0.739355	-0.303278
C190	C	1.159694	-0.489355	-0.053278
C191	C	1.409694	-0.239355	0.196722
C192	C	1.659694	0.010645	0.446722
C193	C	0.950063	-0.970272	-0.263095
C194	C	1.200063	-0.720272	-0.013095
C195	C	1.450063	-0.470272	0.236905
C196	C	1.700063	-0.220272	0.486905
C197	C	0.950093	-1.036016	-0.263113
C198	C	1.200093	-0.786016	-0.013113
C199	C	1.450093	-0.536016	0.236887
C200	C	1.700093	-0.286016	0.486887
C201	C	0.869534	-1.036063	-0.343557
C202	C	1.119534	-0.786063	-0.093557
C203	C	1.369534	-0.536063	0.156443
C204	C	1.619534	-0.286063	0.406443
C205	C	0.869510	-0.970321	-0.343541
C206	C	1.119510	-0.720321	-0.093541
C207	C	1.369510	-0.470321	0.156459
C208	C	1.619510	-0.220321	0.406459
C209	C	0.909773	-0.937429	-0.303307
C210	C	1.159773	-0.687429	-0.053307
C211	C	1.409773	-0.437429	0.196693
C212	C	1.659773	-0.187429	0.446693
C213	C	1.073875	-0.303038	-0.303286
C214	C	1.323875	-0.053038	-0.053286
C215	C	1.573875	0.196962	0.196714
C216	C	1.823875	0.446962	0.446714
C217	C	1.143843	-0.303025	-0.303294
C218	C	1.393843	-0.053025	-0.053294
C219	C	1.643843	0.196975	0.196706
C220	C	1.893843	0.446975	0.446706
C221	C	0.909737	-0.303055	-0.467458
C222	C	1.159737	-0.053055	-0.217458
C223	C	1.409737	0.196945	0.032542
C224	C	1.659737	0.446945	0.282542
C225	C	0.909760	-0.303049	-0.537426
C226	C	1.159760	-0.053049	-0.287426
C227	C	1.409760	0.196951	-0.037426
C228	C	1.659760	0.446951	0.212574
C229	C	0.909785	-0.138878	-0.303317
C230	C	1.159785	0.111122	-0.053317
C231	C	1.409785	0.361122	0.196683
C232	C	1.659785	0.611122	0.446683
C233	C	0.909828	-0.068909	-0.303338
C234	C	1.159828	0.181091	-0.053338
C235	C	1.409828	0.431091	0.196662
C236	C	1.659828	0.681091	0.446662
C237	C	0.950044	-0.262778	-0.570311
C238	C	1.200044	-0.012778	-0.320311
C239	C	1.450044	0.237222	-0.070311
C240	C	1.700044	0.487222	0.179689
C241	C	0.950043	-0.262751	-0.636053
C242	C	1.200043	-0.012751	-0.386053
C243	C	1.450043	0.237249	-0.136053
C244	C	1.700043	0.487249	0.113947
C245	C	0.909764	-0.303006	-0.668909
C246	C	1.159764	-0.053006	-0.418909
C247	C	1.409764	0.196994	-0.168909
C248	C	1.659764	0.446994	0.081091
C249	C	0.869472	-0.343279	-0.636017
C250	C	1.119472	-0.093279	-0.386017
C251	C	1.369472	0.156721	-0.136017
C252	C	1.619472	0.406721	0.113983
C253	C	0.869470	-0.343301	-0.570276
C254	C	1.119470	-0.093301	-0.320276
C255	C	1.369470	0.156699	-0.070276
C256	C	1.619470	0.406699	0.179724
N257	N	0.904908	-0.358075	-0.772124
N258	N	1.154908	-0.108075	-0.522124
N259	N	1.404908	0.141925	-0.272124
N260	N	1.654908	0.391925	-0.022124
N261	N	0.904914	-0.358052	-0.834576
N262	N	1.154914	-0.108052	-0.584576
N263	N	1.404914	0.141948	-0.334576
N264	N	1.654914	0.391948	-0.084576
C265	C	0.909768	-0.302942	-0.866984
C266	C	1.159768	-0.052942	-0.616984
C267	C	1.409768	0.197058	-0.366984
C268	C	1.659768	0.447058	-0.116984
N269	N	0.914629	-0.247853	-0.834581
N270	N	1.164629	0.002147	-0.584581
N271	N	1.414629	0.252147	-0.334581
N272	N	1.664629	0.502147	-0.084581
N273	N	0.914626	-0.247876	-0.772124
N274	N	1.164626	0.002124	-0.522124
N275	N	1.414626	0.252124	-0.272124
N276	N	1.664626	0.502124	-0.022124
C277	C	0.909762	-0.302986	-0.740194
C278	C	1.159762	-0.052986	-0.490194
C279	C	1.409762	0.197014	-0.240194
C280	C	1.659762	0.447014	0.009806
C281	C	0.950054	-0.262638	-0.971154
C282	C	1.200054	-0.012638	-0.721154
C283	C	1.450054	0.237362	-0.471154
C284	C	1.700054	0.487362	-0.221154
C285	C	0.950049	-0.262610	-1.036897
C286	C	1.200049	-0.012610	-0.786897
C287	C	1.450049	0.237390	-0.536897
C288	C	1.700049	0.487390	-0.286897
C289	C	0.869481	-0.343143	-1.036860
C290	C	1.119481	-0.093143	-0.786860
C291	C	1.369481	0.156857	-0.536860
C292	C	1.619481	0.406857	-0.286860
C293	C	0.869483	-0.343166	-0.971118
C294	C	1.119483	-0.093166	-0.721118
C295	C	1.369483	0.156834	-0.471118
C296	C	1.619483	0.406834	-0.221118
C297	C	0.909773	-0.302914	-0.938268
C298	C	1.159773	-0.052914	-0.688268
C299	C	1.409773	0.197086	-0.438268
C300	C	1.659773	0.447086	-0.188268
C301	C	0.909669	-0.303036	-0.139716
C302	C	1.159669	-0.053036	0.110284
C303	C	1.409669	0.196964	0.360284
C304	C	1.659669	0.446964	0.610284
C305	C	0.909769	-0.302864	-0.069749
C306	C	1.159769	-0.052864	0.180251
C307	C	1.409769	0.197136	0.430251
C308	C	1.659769	0.447136	0.680251
H309	H	0.670163	-0.230200	-0.376439
H310	H	0.920163	0.019800	-0.126439
H311	H	1.170163	0.269800	0.123561
H312	H	1.420163	0.519800	0.373561
H313	H	0.836679	-0.375913	-1.063611
H314	H	1.086679	-0.125913	-0.813611
H315	H	1.336679	0.124087	-0.563611
H316	H	1.586679	0.374087	-0.313611
Cl317	Cl	0.536097	-0.393831	-0.212227
Cl318	Cl	0.786097	-0.143831	0.037773
Cl319	Cl	1.036097	0.106169	0.287773
Cl320	Cl	1.286097	0.356169	0.537773
H321	H	0.269326	-0.230121	-0.376465
H322	H	0.519326	0.019879	-0.126465
H323	H	0.769326	0.269879	0.123535
H324	H	1.019326	0.519879	0.373535
H325	H	0.982850	-0.943490	-0.230335
H326	H	1.232850	-0.693490	0.019665
H327	H	1.482850	-0.443490	0.269665
H328	H	1.732850	-0.193490	0.519665
H329	H	0.150062	-0.230094	-0.376467
H330	H	0.400062	0.019906	-0.126467
H331	H	0.650062	0.269906	0.123533
H332	H	0.900062	0.519906	0.373533
Cl333	Cl	1.000585	-0.676467	-0.212476
Cl334	Cl	1.250585	-0.426467	0.037524
Cl335	Cl	1.500585	-0.176467	0.287524
Cl336	Cl	1.750585	0.073533	0.537524
Cl337	Cl	0.818768	-0.676577	-0.394054
Cl338	Cl	1.068768	-0.426577	-0.144054
Cl339	Cl	1.318768	-0.176577	0.105946
Cl340	Cl	1.568768	0.073423	0.355946
Cl341	Cl	0.818713	-0.528190	-0.394035
Cl342	Cl	1.068713	-0.278190	-0.144035
Cl343	Cl	1.318713	-0.028190	0.105965
Cl344	Cl	1.568713	0.221810	0.355965
Cl345	Cl	1.000690	-0.212172	-0.529018
Cl346	Cl	1.250690	0.037828	-0.279018
Cl347	Cl	1.500690	0.287828	-0.029018
Cl348	Cl	1.750690	0.537828	0.220982
H349	H	0.982846	-0.229954	-0.662833
H350	H	1.232846	0.020046	-0.412833
H351	H	1.482846	0.270046	-0.162833
H352	H	1.732846	0.520046	0.087167
Cl353	Cl	0.818918	-1.077415	-0.394128
Cl354	Cl	1.068918	-0.827415	-0.144128
Cl355	Cl	1.318918	-0.577415	0.105872
Cl356	Cl	1.568918	-0.327415	0.355872
H357	H	0.669950	-0.376052	-0.230073
H358	H	0.919950	-0.126052	0.019927
H359	H	1.169950	0.123948	0.269927
H360	H	1.419950	0.373948	0.519927
H361	H	0.550899	-0.230172	-0.376441
H362	H	0.800899	0.019828	-0.126441
H363	H	1.050899	0.269828	0.123559
H364	H	1.300899	0.519828	0.373559
Cl365	Cl	0.818840	-0.393798	-0.929775
Cl366	Cl	1.068840	-0.143798	-0.679775
Cl367	Cl	1.318840	0.106202	-0.429775
Cl368	Cl	1.568840	0.356202	-0.179775
Cl369	Cl	1.000746	-1.077303	-0.212556
Cl370	Cl	1.250746	-0.827303	0.037444
Cl371	Cl	1.500746	-0.577303	0.287444
Cl372	Cl	1.750746	-0.327303	0.537444
Cl373	Cl	0.818860	-0.929032	-0.394099
Cl374	Cl	1.068860	-0.679032	-0.144099
Cl375	Cl	1.318860	-0.429032	0.105901
Cl376	Cl	1.568860	-0.179032	0.355901
H377	H	0.836675	-0.376052	-0.662773
H378	H	1.086675	-0.126052	-0.412773
H379	H	1.336675	0.123948	-0.162773
H380	H	1.586675	0.373948	0.087227
H381	H	0.149841	-0.375959	-0.230120
H382	H	0.399841	-0.125959	0.019880
H383	H	0.649841	0.124041	0.269880
H384	H	0.899841	0.374041	0.519880
Cl385	Cl	1.000699	-0.212034	-0.929854
Cl386	Cl	1.250699	0.037966	-0.679854
Cl387	Cl	1.500699	0.287966	-0.429854
Cl388	Cl	1.750699	0.537966	-0.179854
Cl389	Cl	0.283643	-0.393781	-0.212240
Cl390	Cl	0.533643	-0.143781	0.037760
Cl391	Cl	0.783643	0.106219	0.287760
Cl392	Cl	1.033643	0.356219	0.537760
H393	H	0.982696	-0.542651	-0.230264
H394	H	1.232696	-0.292651	0.019736
H395	H	1.482696	-0.042651	0.269736
H396	H	1.732696	0.207349	0.519736
H397	H	0.836663	-0.376093	-0.543502
H398	H	1.086663	-0.126093	-0.293502
H399	H	1.336663	0.123907	-0.043502
H400	H	1.586663	0.373907	0.206498
Cl401	Cl	1.000707	-0.211989	-1.078238
Cl402	Cl	1.250707	0.038011	-0.828238
Cl403	Cl	1.500707	0.288011	-0.578238
Cl404	Cl	1.750707	0.538011	-0.328238
