data_functionalizedCrystal
_audit_creation_method	'MofGen! by Chris Wilmer'
_symmetry_space_group_name_H-M	'P1'
_symmetry_Int_Tables_number	1
_symmetry_cell_setting	triclinic
loop_
_symmetry_equiv_pos_as_xyz
  x,y,z
_cell_length_a	18.050591
_cell_length_b	18.050589
_cell_length_c	18.050571
_cell_angle_alpha	89.916021
_cell_angle_beta	89.932189
_cell_angle_gamma	90.024669
loop_
_atom_site_label
_atom_site_type_symbol
_atom_site_fract_x
_atom_site_fract_y
_atom_site_fract_z
Zn1	Zn	1.135645	-0.295295	-0.420032
Zn2	Zn	1.635645	0.204705	0.079968
Zn3	Zn	1.135451	-0.419621	-0.295851
Zn4	Zn	1.635451	0.080379	0.204149
Zn5	Zn	1.011360	-0.295441	-0.295845
Zn6	Zn	1.511360	0.204559	0.204155
Zn7	Zn	1.011412	-0.419440	-0.419989
Zn8	Zn	1.511412	0.080560	0.080011
O9	O	1.073467	-0.357449	-0.357929
O10	O	1.573467	0.142551	0.142071
O11	O	1.239544	-0.311801	-0.403579
O12	O	1.739544	0.188199	0.096421
O13	O	1.118888	-0.403285	-0.191925
O14	O	1.618888	0.096715	0.308075
O15	O	1.027906	-0.191497	-0.312334
O16	O	1.527906	0.308503	0.187666
O17	O	1.239402	-0.403143	-0.312344
O18	O	1.739402	0.096857	0.187656
O19	O	1.119217	-0.191389	-0.403574
O20	O	1.619217	0.308611	0.096426
O21	O	1.027718	-0.312051	-0.191921
O22	O	1.527718	0.187949	0.308079
O23	O	0.907442	-0.311876	-0.312293
O24	O	1.407442	0.188124	0.187707
O25	O	1.027995	-0.402835	-0.523920
O26	O	1.527995	0.097165	-0.023920
O27	O	0.907481	-0.402977	-0.403501
O28	O	1.407481	0.097023	0.096499
O29	O	1.119268	-0.311626	-0.523951
O30	O	1.619268	0.188374	-0.023951
O31	O	1.118938	-0.523521	-0.312303
O32	O	1.618938	-0.023521	0.187697
O33	O	1.027807	-0.523388	-0.403507
O34	O	1.527807	-0.023388	0.096493
C35	C	0.880515	-0.357423	-0.357892
C36	C	1.380515	0.142577	0.142108
C37	C	0.797969	-0.357430	-0.357894
C38	C	1.297969	0.142570	0.142106
C39	C	0.549101	-0.307837	-0.308412
C40	C	1.049101	0.192163	0.191588
C41	C	0.598590	-0.289678	-0.376187
C42	C	1.098590	0.210322	0.123813
C43	C	0.500849	-0.357467	-0.357955
C44	C	1.000849	0.142533	0.142045
C45	C	0.598442	-0.375573	-0.290154
C46	C	1.098442	0.124427	0.209846
C47	C	0.646834	-0.357447	-0.357921
C48	C	1.146834	0.142553	0.142079
C49	C	0.549251	-0.339274	-0.425766
C50	C	1.049251	0.160726	0.074234
C51	C	0.549098	-0.425199	-0.339687
C52	C	1.049098	0.074801	0.160313
C53	C	0.598564	-0.407066	-0.407508
C54	C	1.098564	0.092934	0.092492
C55	C	0.416751	-0.357477	-0.357973
C56	C	0.916751	0.142523	0.142027
C57	C	0.730930	-0.357437	-0.357911
C58	C	1.230930	0.142563	0.142089
C59	C	1.073377	-0.550401	-0.357917
C60	C	1.573377	-0.050401	0.142083
C61	C	1.073407	-0.632947	-0.357937
C62	C	1.573407	-0.132947	0.142063
C63	C	1.023899	-0.832352	-0.407516
C64	C	1.523899	-0.332352	0.092484
C65	C	1.005744	-0.881863	-0.339747
C66	C	1.505744	-0.381863	0.160253
C67	C	1.073480	-0.784077	-0.357946
C68	C	1.573480	-0.284077	0.142054
C69	C	1.091671	-0.881648	-0.425723
C70	C	1.591671	-0.381648	0.074277
C71	C	1.073549	-0.930062	-0.357962
C72	C	1.573549	-0.430062	0.142038
C73	C	1.055290	-0.832501	-0.290141
C74	C	1.555290	-0.332501	0.209859
C75	C	1.141249	-0.832282	-0.376163
C76	C	1.641249	-0.332282	0.123837
C77	C	1.123119	-0.881770	-0.308348
C78	C	1.623119	-0.381770	0.191652
C79	C	1.073438	-0.699979	-0.357938
C80	C	1.573438	-0.199979	0.142062
C81	C	1.073591	-1.014159	-0.357962
C82	C	1.573591	-0.514159	0.142038
C83	C	1.267173	-0.357476	-0.357967
C84	C	1.767173	0.142524	0.142033
C85	C	1.349719	-0.357487	-0.357983
C86	C	1.849719	0.142513	0.142017
C87	C	1.073659	-0.357194	-0.551635
C88	C	1.573659	0.142806	-0.051635
C89	C	1.073740	-0.357085	-0.634182
C90	C	1.573740	0.142915	-0.134182
C91	C	1.073577	-0.163743	-0.357958
C92	C	1.573577	0.336257	0.142042
C93	C	1.073624	-0.081198	-0.357970
C94	C	1.573624	0.418802	0.142030
C95	C	1.073319	-0.357650	-0.164977
C96	C	1.573319	0.142350	0.335023
C97	C	1.073381	-0.357549	-0.082431
C98	C	1.573381	0.142451	0.417569
C99	C	1.023637	-0.308031	0.166358
C100	C	1.523637	0.191969	0.666358
C101	C	1.005883	-0.375963	0.117174
C102	C	1.505883	0.124037	0.617174
C103	C	1.073619	-0.357243	0.214688
C104	C	1.573619	0.142757	0.714688
C105	C	1.091220	-0.289466	0.116792
C106	C	1.591220	0.210534	0.616792
C107	C	1.073500	-0.357390	0.068704
C108	C	1.573500	0.142610	0.568704
C109	C	1.055831	-0.425211	0.166591
C110	C	1.555831	0.074789	0.666591
C111	C	1.141200	-0.338668	0.166213
C112	C	1.641200	0.161332	0.666213
C113	C	1.123472	-0.406647	0.117051
C114	C	1.623472	0.093353	0.617051
C115	C	1.073686	-0.357157	0.298787
C116	C	1.573686	0.142843	0.798787
C117	C	1.073434	-0.357483	-0.015393
C118	C	1.573434	0.142517	0.484607
H119	H	0.527343	-0.482471	-0.324225
H120	H	1.027343	0.017529	0.175775
O121	O	1.111018	-0.213462	0.087831
O122	O	1.611018	0.286538	0.587831
H123	H	1.064942	-0.192122	0.053186
H124	H	1.564942	0.307878	0.553186
H125	H	1.039865	-0.810999	-0.232814
H126	H	1.539865	-0.310999	0.267186
H127	H	0.620054	-0.390894	-0.232829
H128	H	1.120054	0.109106	0.267171
O129	O	1.035948	-0.501240	0.195427
O130	O	1.535948	-0.001240	0.695427
H131	H	1.036124	-0.500572	0.256913
H132	H	1.536124	-0.000572	0.756913
H133	H	0.620316	-0.232388	-0.391638
H134	H	1.120316	0.267612	0.108362
H135	H	1.165078	-0.903331	-0.266386
H136	H	1.665078	-0.403331	0.233614
O137	O	0.967684	-0.252887	0.195049
O138	O	1.467684	0.247113	0.695049
H139	H	0.968604	-0.252942	0.256532
H140	H	1.468604	0.247058	0.756532
H141	H	0.527731	-0.323885	-0.483106
H142	H	1.027731	0.176115	0.016894
O143	O	1.179392	-0.461914	0.088538
O144	O	1.679392	0.038086	0.588538
H145	H	1.164555	-0.518159	0.108594
H146	H	1.664555	-0.018159	0.608594
H147	H	0.948467	-0.903657	-0.324353
H148	H	1.448467	-0.403657	0.175647
H149	H	0.981908	-0.810655	-0.449376
H150	H	1.481908	-0.310655	0.050624
H151	H	0.620143	-0.449028	-0.449439
H152	H	1.120143	0.050972	0.050561
H153	H	1.107030	-0.903239	-0.483035
H154	H	1.607030	-0.403239	0.016965
H155	H	1.198386	-0.322870	0.187777
H156	H	1.698386	0.177130	0.687777
O157	O	0.520325	-0.252219	-0.253003
O158	O	1.020325	0.247781	0.246997
H159	H	0.540149	-0.196030	-0.268335
H160	H	1.040149	0.303970	0.231665
O161	O	1.217187	-0.803576	-0.396509
O162	O	1.717187	-0.303576	0.103491
H163	H	1.232167	-0.823282	-0.452784
H164	H	1.732167	-0.323282	0.047216
O165	O	0.930118	-0.396868	0.088622
O166	O	1.430118	0.103132	0.588622
H167	H	0.888773	-0.355878	0.108361
H168	H	1.388773	0.144122	0.608361
