data_functionalizedCrystal
_audit_creation_method	'MofGen! by Chris Wilmer'
_symmetry_space_group_name_H-M	'P1'
_symmetry_Int_Tables_number	1
_symmetry_cell_setting	triclinic
loop_
_symmetry_equiv_pos_as_xyz
  x,y,z
_cell_length_a	13.635800
_cell_length_b	7.190410
_cell_length_c	7.190334
_cell_angle_alpha	82.316864
_cell_angle_beta	60.611776
_cell_angle_gamma	60.610675
loop_
_atom_site_label
_atom_site_type_symbol
_atom_site_fract_x
_atom_site_fract_y
_atom_site_fract_z
V1	V	-2.154323	0.291699	0.663495
O2	O	-2.100792	-0.017518	0.652432
O3	O	-2.172018	0.581756	0.657450
O4	O	-2.172021	0.285676	0.953556
O5	O	-2.100789	0.280612	0.354277
V6	V	-2.385280	0.254894	0.626693
O7	O	-2.308654	0.372432	0.744223
O8	O	-2.456048	0.174161	0.545965
O9	O	-2.255982	-0.035163	0.632738
O10	O	-2.497510	0.564111	0.637757
O11	O	-2.497513	0.265981	0.935912
O12	O	-2.255979	0.260917	0.336633
V13	V	-1.885273	0.254894	0.626693
O14	O	-1.938807	0.265981	0.935912
O15	O	-1.867575	0.260917	0.336633
O16	O	-1.867578	-0.035163	0.632738
O17	O	-1.938804	0.564111	0.637757
V18	V	-1.654316	0.291699	0.663495
O19	O	-1.730942	0.174161	0.545965
O20	O	-1.583548	0.372432	0.744223
O21	O	-1.783617	0.285676	0.953556
O22	O	-1.542083	0.280612	0.354277
O23	O	-1.542086	-0.017518	0.652432
O24	O	-1.783614	0.581756	0.657450
C25	C	-2.159800	0.894087	0.643565
C26	C	-2.103351	0.652508	0.646593
C27	C	-2.103362	0.274824	1.024304
C28	C	-2.159791	0.271759	1.265877
C29	C	-1.936229	0.271762	0.265871
C30	C	-1.879798	0.274816	0.024297
C31	C	-1.936238	-0.105909	0.643597
C32	C	-1.879813	-0.347479	0.646685
