data_functionalizedCrystal
_audit_creation_method	'MofGen! by Chris Wilmer'
_symmetry_space_group_name_H-M	'P1'
_symmetry_Int_Tables_number	1
_symmetry_cell_setting	triclinic
loop_
_symmetry_equiv_pos_as_xyz
  x,y,z
_cell_length_a	6.817900
_cell_length_b	17.078472
_cell_length_c	11.102193
_cell_angle_alpha	95.114488
_cell_angle_beta	108.604059
_cell_angle_gamma	99.306020
loop_
_atom_site_label
_atom_site_type_symbol
_atom_site_fract_x
_atom_site_fract_y
_atom_site_fract_z
V1	V	-4.064552	-0.109773	-0.396130
O2	O	-4.072802	0.005269	-0.388720
O3	O	-3.995176	-0.217656	-0.393294
O4	O	-4.042048	-0.108087	-0.568953
O5	O	-4.025605	-0.105058	-0.211845
V6	V	-4.547543	-0.096012	-0.374103
O7	O	-4.326979	-0.139958	-0.444447
O8	O	-4.735314	-0.065827	-0.325786
O9	O	-4.393713	0.011870	-0.376939
O10	O	-4.656690	-0.211054	-0.381513
O11	O	-4.703887	-0.100727	-0.558388
O12	O	-4.346841	-0.097698	-0.201280
C13	C	-3.834236	-0.243955	-0.387013
C14	C	-3.858972	-0.332151	-0.385846
C15	C	-3.894025	-0.104188	-0.611082
C16	C	-3.956769	-0.103524	-0.752365
C17	C	-4.052871	-0.377626	-0.391633
C18	C	-4.076105	-0.460496	-0.390544
C19	C	-3.905433	-0.497887	-0.383660
C20	C	-3.711520	-0.452406	-0.377877
C21	C	-3.688293	-0.369539	-0.378975
C22	C	-3.955357	-0.745291	-0.379706
C23	C	-3.978598	-0.828164	-0.378605
C24	C	-4.343183	-0.836248	-0.391275
C25	C	-4.319935	-0.753378	-0.392364
C26	C	-4.126029	-0.707905	-0.386588
N27	N	-3.929175	-0.582593	-0.382543
N28	N	-4.102293	-0.623202	-0.387714
C29	C	-4.014932	-0.248835	-0.788523
C30	C	-4.073484	-0.321175	-0.872975
C31	C	-4.132439	-0.320546	-1.005721
C32	C	-4.132847	-0.247569	-1.054017
C33	C	-4.074295	-0.175229	-0.969566
C34	C	-4.015336	-0.175866	-0.836818
C35	C	-4.016148	-0.029920	-0.933408
C36	C	-3.957177	-0.030547	-0.800661
C37	C	-4.016556	0.043057	-0.981705
C38	C	-3.957989	0.115399	-0.897252
C39	C	-3.899029	0.114767	-0.764498
C40	C	-3.898626	0.041793	-0.716209
C41	C	-4.217994	0.038166	-0.383217
C42	C	-4.172497	0.126360	-0.384392
C43	C	-4.158205	-0.101600	-0.159145
C44	C	-4.074699	-0.102260	-0.017860
H45	H	-4.191849	-0.347187	-0.397226
O46	O	-3.527435	-0.492734	-0.370455
H47	H	-3.476952	-0.483367	-0.454651
O48	O	-3.835020	0.041110	-0.573033
H49	H	-3.943237	0.069344	-0.535054
H50	H	-4.233996	-0.497519	-0.395258
H51	H	-3.958341	0.174811	-0.936587
H52	H	-3.530404	-0.332514	-0.374268
H53	H	-4.180880	-0.247064	-1.162109
O54	O	-3.951322	-0.249510	-0.645345
H55	H	-3.960881	-0.312406	-0.625949
H56	H	-4.073151	-0.380592	-0.833638
H57	H	-4.064578	0.043564	-1.089796
O58	O	-4.195568	-0.398566	-1.096820
H59	H	-4.185364	-0.449417	-1.040942
O60	O	-3.835852	0.192792	-0.673407
H61	H	-3.969539	0.224794	-0.695050
O62	O	-4.504046	-0.713054	-0.399854
H63	H	-4.642799	-0.758602	-0.403726
H64	H	-3.839619	-0.858609	-0.373029
O65	O	-4.552320	-0.885292	-0.397508
H66	H	-4.539812	-0.949197	-0.395595
H67	H	-3.797466	-0.708276	-0.374995
