data_functionalizedCrystal
_audit_creation_method	'MofGen! by Chris Wilmer'
_symmetry_space_group_name_H-M	'P1'
_symmetry_Int_Tables_number	1
_symmetry_cell_setting	triclinic
loop_
_symmetry_equiv_pos_as_xyz
  x,y,z
_cell_length_a	11.169417
_cell_length_b	12.759399
_cell_length_c	11.169409
_cell_angle_alpha	89.965790
_cell_angle_beta	89.980176
_cell_angle_gamma	90.015995
loop_
_atom_site_label
_atom_site_type_symbol
_atom_site_fract_x
_atom_site_fract_y
_atom_site_fract_z
Zn1	Zn	1.834922	-0.418157	-0.678527
Zn2	Zn	1.834795	-0.593882	-0.477837
Zn3	Zn	1.634208	-0.418221	-0.477861
Zn4	Zn	1.634199	-0.593797	-0.678482
O5	O	1.734531	-0.506014	-0.578177
O6	O	2.002855	-0.441476	-0.651914
O7	O	1.808137	-0.570643	-0.309891
O8	O	1.660891	-0.271191	-0.504509
O9	O	2.002762	-0.570581	-0.504468
O10	O	1.808354	-0.271144	-0.651937
O11	O	1.660767	-0.441585	-0.309908
O12	O	1.466257	-0.441502	-0.504466
O13	O	1.660875	-0.570435	-0.846438
O14	O	1.466251	-0.570497	-0.651861
O15	O	1.808346	-0.441393	-0.846471
O16	O	1.808128	-0.740892	-0.504425
O17	O	1.660751	-0.740829	-0.651838
C18	C	1.422707	-0.505998	-0.578162
C19	C	1.289307	-0.506017	-0.578184
C20	C	1.734458	-0.778981	-0.578150
C21	C	1.734536	-0.895758	-0.578178
C22	C	1.811363	-0.950618	-0.501508
C23	C	1.811440	-1.060342	-0.501548
C24	C	1.657853	-1.060337	-0.654933
C25	C	1.657783	-0.950615	-0.654898
C26	C	1.953101	-1.210221	-0.458834
C27	C	2.029917	-1.265084	-0.382145
C28	C	2.048380	-1.229550	-0.265042
C29	C	1.990009	-1.139154	-0.224604
C30	C	1.913184	-1.084296	-0.301287
C31	C	1.894744	-1.119829	-0.418407
C32	C	1.516120	-0.800734	-0.697599
C33	C	1.439288	-0.745874	-0.774277
C34	C	1.420813	-0.781406	-0.891382
C35	C	1.479163	-0.871806	-0.931815
C36	C	1.555995	-0.926666	-0.855137
C37	C	1.574472	-0.891126	-0.738033
C38	C	2.047574	-0.506031	-0.578193
C39	C	2.180974	-0.506038	-0.578200
C40	C	1.734623	-0.505897	-0.891220
C41	C	1.734663	-0.505848	-1.024620
C42	C	1.734638	-0.231981	-0.578231
C43	C	1.734683	-0.115204	-0.578254
C44	C	1.734509	-0.506054	-0.266352
C45	C	1.734702	-0.505808	-0.132953
H46	H	1.873862	-0.905956	-0.439040
H47	H	1.391784	-0.672261	-0.741348
C48	C	2.131894	-1.288918	-0.181709
C49	C	2.225152	-1.222747	-0.145644
C50	C	2.302103	-1.277399	-0.068873
H51	H	2.164138	-1.347841	-0.222434
H52	H	2.088584	-1.311941	-0.113353
H53	H	2.268456	-1.199741	-0.213988
H54	H	2.192943	-1.163825	-0.104900
H55	H	2.258793	-1.300422	-0.000518
H56	H	2.334338	-1.336320	-0.109607
H57	H	2.365381	-1.232508	-0.044385
H58	H	1.531166	-0.771788	-0.602245
H59	H	1.464121	-0.900737	-1.027172
H60	H	2.077444	-1.338685	-0.415081
C61	C	1.933321	-1.248828	-0.586013
C62	C	2.042781	-1.250183	-0.647120
C63	C	2.024607	-1.285761	-0.764273
H64	H	1.879282	-1.203270	-0.626053
H65	H	1.900798	-1.317616	-0.583989
H66	H	2.075287	-1.181405	-0.649149
H67	H	2.096836	-1.295743	-0.607116
H68	H	1.992084	-1.354549	-0.762250
H69	H	1.970565	-1.240199	-0.804302
H70	H	2.098873	-1.286694	-0.805746
H71	H	1.865661	-1.010696	-0.268364
C72	C	2.009810	-1.100653	-0.097387
C73	C	1.900363	-1.099362	-0.036255
C74	C	1.918562	-1.063912	0.080945
H75	H	2.042326	-1.031874	-0.099284
H76	H	2.063871	-1.146279	-0.057446
H77	H	1.846321	-1.053737	-0.076185
H78	H	1.867830	-1.168129	-0.034324
H79	H	1.972623	-1.109537	0.120886
H80	H	1.951080	-0.995135	0.079036
H81	H	1.844309	-1.063040	0.122441
C82	C	1.574560	-1.120087	-0.738084
C83	C	1.591038	-1.227920	-0.721681
C84	C	1.514313	-1.282992	-0.798246
H85	H	1.591994	-1.102160	-0.818782
H86	H	1.493893	-1.102236	-0.720430
H87	H	1.671686	-1.245764	-0.739343
H88	H	1.573595	-1.245879	-0.640999
H89	H	1.433646	-1.265141	-0.780593
H90	H	1.531754	-1.265056	-0.878940
H91	H	1.525475	-1.356162	-0.787120
H92	H	1.603512	-1.000271	-0.888070
C93	C	1.337390	-0.721672	-0.974471
C94	C	1.290250	-0.634889	-0.914010
C95	C	1.213414	-0.579835	-0.990520
H96	H	1.273926	-0.766294	-0.999082
H97	H	1.380722	-0.698554	-1.042770
H98	H	1.246919	-0.658008	-0.845733
H99	H	1.353686	-0.590243	-0.889402
H100	H	1.256746	-0.556717	-1.058819
H101	H	1.149957	-0.624465	-1.015126
H102	H	1.181429	-0.520942	-0.949512
