data_functionalizedCrystal
_audit_creation_method	'MofGen! by Chris Wilmer'
_symmetry_space_group_name_H-M	'P1'
_symmetry_Int_Tables_number	1
_symmetry_cell_setting	triclinic
loop_
_symmetry_equiv_pos_as_xyz
  x,y,z
_cell_length_a	19.121102
_cell_length_b	16.625546
_cell_length_c	16.625539
_cell_angle_alpha	89.969603
_cell_angle_beta	92.459347
_cell_angle_gamma	92.423284
loop_
_atom_site_label
_atom_site_type_symbol
_atom_site_fract_x
_atom_site_fract_y
_atom_site_fract_z
Zn1	Zn	1.073748	0.373670	0.508418
Zn2	Zn	1.573748	0.873670	1.008418
Zn3	Zn	1.073664	0.508509	0.373576
Zn4	Zn	1.573664	1.008509	0.873576
Zn5	Zn	0.956295	0.367937	0.367854
Zn6	Zn	1.456295	0.867937	0.867854
Zn7	Zn	0.956269	0.502702	0.502624
Zn8	Zn	1.456269	1.002702	1.002624
O9	O	1.014994	0.438205	0.438118
O10	O	1.514994	0.938205	0.938118
O11	O	1.172022	0.396387	0.495351
O12	O	1.672022	0.896387	0.995351
O13	O	1.058070	0.489893	0.259984
O14	O	1.558070	0.989893	0.759984
O15	O	0.971922	0.255867	0.386530
O16	O	1.471922	0.755867	0.886530
O17	O	1.171960	0.495452	0.396283
O18	O	1.671960	0.995452	0.896283
O19	O	1.058214	0.260080	0.489802
O20	O	1.558214	0.760080	0.989802
O21	O	0.971840	0.386615	0.255779
O22	O	1.471840	0.886615	0.755779
O23	O	0.858007	0.380984	0.380912
O24	O	1.358007	0.880984	0.880912
O25	O	0.971878	0.485555	0.616226
O26	O	1.471878	0.985555	1.116226
O27	O	0.857988	0.479995	0.479927
O28	O	1.357988	0.979995	0.979927
O29	O	1.058189	0.390756	0.620483
O30	O	1.558189	0.890756	1.120483
O31	O	1.058045	0.620569	0.390665
O32	O	1.558045	1.120569	0.890665
O33	O	0.971796	0.616302	0.485476
O34	O	1.471796	1.116302	0.985476
C35	C	1.014928	0.647692	0.438081
C36	C	1.514928	1.147692	0.938081
C37	C	1.014964	0.737315	0.438095
C38	C	1.514964	1.237315	0.938095
C39	C	0.832514	0.429238	0.429170
C40	C	1.332514	0.929238	0.929170
C41	C	0.754447	0.425422	0.425361
C42	C	1.254447	0.925422	0.925361
C43	C	1.015040	0.438147	0.648429
C44	C	1.515040	0.938147	1.148429
C45	C	1.015059	0.438122	0.738052
C46	C	1.515059	0.938122	1.238052
C47	C	0.717780	0.475256	0.475042
C48	C	1.217780	0.975256	0.975042
C49	C	0.644429	0.471659	0.471467
C50	C	1.144429	0.971659	0.971467
C51	C	0.607746	0.418232	0.418206
C52	C	1.107746	0.918232	0.918206
C53	C	0.644418	0.368392	0.368523
C54	C	1.144418	0.868392	0.868523
C55	C	0.717768	0.371985	0.372102
C56	C	1.217768	0.871985	0.872102
C57	C	0.386276	0.404796	0.404826
C58	C	0.886276	0.904796	0.904826
C59	C	0.312921	0.401208	0.401249
C60	C	0.812921	0.901208	0.901249
C61	C	0.312937	0.504476	0.504195
C62	C	0.812937	1.004476	1.004195
C63	C	0.386288	0.508067	0.507766
C64	C	0.886288	1.008067	1.007766
C65	C	0.422954	0.458224	0.458086
C66	C	0.922954	0.958224	0.958086
C67	C	0.532769	0.414556	0.414549
C68	C	1.032769	0.914556	0.914549
C69	C	0.497929	0.461897	0.461748
C70	C	0.997929	0.961897	0.961748
C71	C	1.198188	0.447207	0.447102
C72	C	1.698188	0.947207	0.947102
C73	C	1.276254	0.451043	0.450930
C74	C	1.776254	0.951043	0.950930
C75	C	1.015080	0.227900	0.438174
C76	C	1.515080	0.727900	0.938174
C77	C	1.015117	0.138281	0.438198
C78	C	1.515117	0.638281	0.938198
C79	C	1.015086	1.065497	0.438185
C80	C	1.515086	1.565497	0.938185
C81	C	1.015050	0.974186	0.438163
C82	C	1.515050	1.474186	0.938163
C83	C	1.015024	0.901409	0.438140
C84	C	1.515024	1.401409	0.938140
C85	C	1.014989	0.810093	0.438118
C86	C	1.514989	1.310093	0.938118
C87	C	1.014989	0.438206	0.228627
C88	C	1.514989	0.938206	0.728627
C89	C	1.015106	0.438010	0.139012
C90	C	1.515106	0.938010	0.639012
C91	C	1.015092	0.438033	1.066229
C92	C	1.515092	0.938033	1.566229
C93	C	1.015081	0.438061	0.974920
C94	C	1.515081	0.938061	1.474920
C95	C	1.015076	0.438078	0.902143
C96	C	1.515076	0.938078	1.402143
C97	C	1.015064	0.438104	0.810828
C98	C	1.515064	0.938104	1.310828
H99	H	0.614578	0.512241	0.511922
H100	H	1.114578	1.012241	1.011922
H101	H	0.416150	0.551576	0.551135
H102	H	0.916150	1.051576	1.051135
H103	H	0.283075	0.545054	0.544643
H104	H	0.783075	1.045054	1.044643
O105	O	0.533528	0.513707	0.513598
O106	O	1.033528	1.013707	1.013598
C107	C	0.555995	0.554162	0.651771
C108	C	1.055995	1.054162	1.151771
C109	C	0.515640	0.495421	0.593145
C110	C	1.015640	0.995421	1.093145
H111	H	0.541536	0.539409	0.716096
H112	H	1.041536	1.039409	1.216096
H113	H	0.614726	0.548162	0.645862
H114	H	1.114726	1.048162	1.145862
H115	H	0.541561	0.618449	0.636745
H116	H	1.041561	1.118449	1.136745
H117	H	0.530015	0.431110	0.608133
H118	H	1.030015	0.931110	1.108133
H119	H	0.456919	0.501491	0.599065
H120	H	0.956919	1.001491	1.099065
O121	O	0.421922	0.356303	0.356682
O122	O	0.921922	0.856303	0.856682
C123	C	0.504794	0.251520	0.350070
C124	C	1.004794	0.751520	0.850070
C125	C	0.464451	0.306377	0.404690
C126	C	0.964451	0.806377	0.904690
H127	H	0.539200	0.211152	0.388862
H128	H	1.039200	0.711152	0.888862
H129	H	0.466010	0.212662	0.311400
H130	H	0.966010	0.712662	0.811400
H131	H	0.539077	0.290183	0.309503
H132	H	1.039077	0.790183	0.809503
H133	H	0.430167	0.267776	0.445307
H134	H	0.930167	0.767776	0.945307
H135	H	0.503274	0.345240	0.443306
H136	H	1.003274	0.845240	0.943306
H137	H	0.283056	0.357692	0.357882
H138	H	0.783056	0.857692	0.857882
H139	H	0.614545	0.324886	0.325160
H140	H	1.114545	0.824886	0.825160
H141	H	0.502894	0.371057	0.371182
H142	H	1.002894	0.871057	0.871182
H143	H	0.747622	0.331400	0.331651
H144	H	1.247622	0.831400	0.831651
H145	H	0.747642	0.518766	0.518411
H146	H	1.247642	1.018766	1.018411
