data_functionalizedCrystal
_audit_creation_method	'MofGen! by Chris Wilmer'
_symmetry_space_group_name_H-M	'P1'
_symmetry_Int_Tables_number	1
_symmetry_cell_setting	triclinic
loop_
_symmetry_equiv_pos_as_xyz
  x,y,z
_cell_length_a	12.759401
_cell_length_b	18.215405
_cell_length_c	12.759393
_cell_angle_alpha	89.962431
_cell_angle_beta	89.981504
_cell_angle_gamma	90.025046
loop_
_atom_site_label
_atom_site_type_symbol
_atom_site_fract_x
_atom_site_fract_y
_atom_site_fract_z
Zn1	Zn	1.606181	-0.292938	-0.593937
Zn2	Zn	1.606044	-0.416024	-0.418239
Zn3	Zn	1.430483	-0.292976	-0.418277
Zn4	Zn	1.430440	-0.415967	-0.593881
O5	O	1.518287	-0.354476	-0.506084
O6	O	1.753184	-0.309273	-0.570639
O7	O	1.582716	-0.399741	-0.271223
O8	O	1.453865	-0.189987	-0.441618
O9	O	1.753083	-0.399704	-0.441554
O10	O	1.582949	-0.189959	-0.570675
O11	O	1.453732	-0.309339	-0.271251
O12	O	1.283456	-0.309284	-0.441563
O13	O	1.453792	-0.399607	-0.740909
O14	O	1.283425	-0.399645	-0.570578
O15	O	1.582908	-0.309218	-0.740951
O16	O	1.582675	-0.519001	-0.441499
O17	O	1.453660	-0.518959	-0.570542
C18	C	1.245320	-0.354463	-0.506069
C19	C	1.128543	-0.354475	-0.506088
C20	C	1.518176	-0.545683	-0.506033
C21	C	1.518225	-0.627482	-0.506047
C22	C	1.073692	-0.401601	-0.573155
C23	C	0.963968	-0.401610	-0.573167
C24	C	0.963956	-0.307365	-0.439035
C25	C	1.073678	-0.307353	-0.439029
C26	C	1.073699	-0.456015	-0.650592
C27	C	0.963975	-0.456025	-0.650604
C28	C	1.585561	-0.815673	-0.438977
C29	C	1.585608	-0.892531	-0.439003
C30	C	1.451148	-0.892528	-0.573265
C31	C	1.451107	-0.815671	-0.573244
C32	C	1.518312	-0.777245	-0.506094
C33	C	1.518400	-0.930961	-0.506141
C34	C	1.518450	-1.014295	-0.506169
C35	C	1.518263	-0.693906	-0.506067
C36	C	1.792320	-0.354491	-0.506098
C37	C	1.909097	-0.354497	-0.506105
C38	C	1.518361	-0.354402	-0.780117
C39	C	1.518392	-0.354370	-0.896894
C40	C	1.518427	-0.162523	-0.506157
C41	C	1.518487	-0.080724	-0.506189
C42	C	1.585632	-0.307300	-0.951779
C43	C	1.585657	-0.307274	-1.061503
C44	C	1.451199	-0.401394	-1.061447
C45	C	1.451170	-0.401416	-0.951725
C46	C	1.663263	-0.252963	-0.951813
C47	C	1.663288	-0.252936	-1.061537
C48	C	1.518274	-0.354497	-0.233116
C49	C	1.518447	-0.354322	-0.116340
H50	H	0.919271	-0.268999	-0.384439
O51	O	0.923238	-0.431746	-0.742802
C52	C	0.766882	-0.405736	-0.841947
C53	C	0.812879	-0.433229	-0.737477
H54	H	0.677651	-0.406940	-0.837686
H55	H	0.794418	-0.347142	-0.857177
H56	H	0.794538	-0.442824	-0.908355
H57	H	0.785244	-0.396195	-0.671004
H58	H	0.785348	-0.491834	-0.722339
O59	O	0.928578	-0.524034	-0.624364
C60	C	0.974323	-0.647966	-0.576682
C61	C	1.014551	-0.570980	-0.606359
H62	H	1.043810	-0.685946	-0.562138
H63	H	0.924694	-0.644237	-0.502564
H64	H	0.924669	-0.670721	-0.643455
H65	H	1.064247	-0.548180	-0.539654
H66	H	1.064123	-0.574755	-0.680509
H67	H	1.396345	-0.784381	-0.627904
O68	O	1.109098	-0.437837	-0.747755
C69	C	1.063358	-0.404824	-0.924833
C70	C	1.023127	-0.425385	-0.814845
H71	H	0.993872	-0.394766	-0.979112
H72	H	1.112974	-0.352885	-0.919727
H73	H	1.113026	-0.451656	-0.957106
H74	H	0.973417	-0.378601	-0.782508
H75	H	0.973568	-0.477347	-0.820017
H76	H	1.640285	-0.784388	-0.384302
H77	H	1.740530	-0.273395	-0.917774
O78	O	1.760319	-0.271278	-1.097025
C79	C	1.897088	-0.362431	-1.100301
C80	C	1.787190	-0.341761	-1.060057
H81	H	1.918856	-0.419410	-1.070411
H82	H	1.897145	-0.362462	-1.189651
H83	H	1.956656	-0.320692	-1.070576
H84	H	1.727559	-0.383479	-1.089705
H85	H	1.787219	-0.341707	-0.970708
H86	H	1.640370	-0.923816	-0.384351
H87	H	1.107699	-0.510128	-0.621300
O88	O	1.628556	-0.188394	-1.102349
C89	C	1.591335	-0.118975	-1.258786
C90	C	1.630678	-0.192105	-1.212704
H91	H	1.593058	-0.121945	-1.348014
H92	H	1.507672	-0.108428	-1.231272
H93	H	1.644222	-0.072388	-1.231175
H94	H	1.577868	-0.238737	-1.240294
H95	H	1.714357	-0.202588	-1.240213
O96	O	1.126798	-0.261543	-0.373792
C97	C	1.115202	-0.168020	-0.240819
C98	C	1.054913	-0.219878	-0.314628
H99	H	1.057110	-0.134309	-0.192982
H100	H	1.166512	-0.201711	-0.185714
H101	H	1.166629	-0.129610	-0.289182
H102	H	1.003429	-0.258298	-0.266350
H103	H	1.003669	-0.186140	-0.369736
O104	O	1.385895	-0.929970	-0.638385
C105	C	1.326404	-1.048371	-0.697960
C106	C	1.400343	-1.006062	-0.624143
H107	H	1.338075	-1.109899	-0.686487
H108	H	1.241668	-1.033371	-0.679425
H109	H	1.344782	-1.033156	-0.782678
H110	H	1.382059	-1.021254	-0.539400
H111	H	1.485056	-1.021065	-0.642768
H112	H	1.396467	-0.439695	-1.106104
O113	O	1.385803	-0.447198	-0.898571
C114	C	1.252364	-0.540494	-0.910098
C115	C	1.326365	-0.488699	-0.970425
H116	H	1.204273	-0.574050	-0.968166
H117	H	1.300485	-0.579045	-0.858733
H118	H	1.197495	-0.506688	-0.858723
H119	H	1.381248	-0.522447	-1.021857
H120	H	1.278178	-0.450146	-1.021725
H121	H	1.641509	-0.195969	-0.922065
