data_functionalizedCrystal
_audit_creation_method	'MofGen! by Chris Wilmer'
_symmetry_space_group_name_H-M	'P1'
_symmetry_Int_Tables_number	1
_symmetry_cell_setting	triclinic
loop_
_symmetry_equiv_pos_as_xyz
  x,y,z
_cell_length_a	6.817900
_cell_length_b	11.102288
_cell_length_c	11.168136
_cell_angle_alpha	91.983489
_cell_angle_beta	108.508683
_cell_angle_gamma	108.605689
loop_
_atom_site_label
_atom_site_type_symbol
_atom_site_fract_x
_atom_site_fract_y
_atom_site_fract_z
V1	V	-4.110388	-0.175858	-0.393699
O2	O	-4.069442	0.008431	-0.386205
O3	O	-4.087173	-0.348678	-0.391007
O4	O	-4.086671	-0.173162	-0.565405
O5	O	-4.069948	-0.168301	-0.210599
V6	V	-4.587554	-0.153814	-0.371799
O7	O	-4.385590	-0.224214	-0.441739
O8	O	-4.762549	-0.105458	-0.323759
O9	O	-4.387563	0.019006	-0.374492
O10	O	-4.745897	-0.338103	-0.379294
O11	O	-4.745391	-0.161372	-0.554899
O12	O	-4.388065	-0.156511	-0.200093
C13	C	-3.937502	-0.390808	-0.384796
C14	C	-3.999972	-0.532091	-0.383739
C15	C	-4.213310	-0.604939	-0.389542
C16	C	-4.272001	-0.737691	-0.388559
C17	C	-3.903991	-0.724732	-0.375964
C18	C	-3.845308	-0.591984	-0.376957
C19	C	-3.936860	-0.166917	-0.607257
C20	C	-3.998918	-0.165856	-0.747627
C21	C	-4.201443	-0.171411	-0.816319
C22	C	-4.265588	-0.170315	-0.961399
C23	C	-4.200576	0.061129	-0.380699
C24	C	-4.117346	0.202410	-0.381764
C25	C	-4.201217	-0.162759	-0.158235
C26	C	-4.118396	-0.163814	-0.017863
H27	H	-3.778076	-0.773513	-0.370439
H28	H	-4.445718	-0.796999	-0.393287
H29	H	-3.671579	-0.532669	-0.372235
H30	H	-4.327338	-0.176970	-0.767720
O31	O	-4.472718	-0.176222	-1.031820
C32	C	-4.627626	-0.290894	-1.020700
H33	H	-4.543887	-0.364744	-0.992567
H34	H	-4.695800	-0.270431	-0.944378
C35	C	-4.920717	-0.253333	-1.184206
C36	C	-4.817870	-0.344041	-1.149663
H37	H	-5.038074	-0.286116	-1.263754
H38	H	-4.816355	-0.176074	-1.191695
H39	H	-4.977510	-0.236289	-1.120595
H40	H	-4.761056	-0.361072	-1.213266
H41	H	-4.922228	-0.421305	-1.142188
O42	O	-3.911573	-0.158345	-0.947345
C43	C	-3.924142	-0.269161	-0.887852
H44	H	-4.094292	-0.311661	-0.879500
H45	H	-3.895739	-0.343084	-0.947461
C46	C	-3.537413	-0.180741	-0.763885
C47	C	-3.746389	-0.232934	-0.753617
H48	H	-3.427762	-0.158398	-0.681084
H49	H	-3.528941	-0.106084	-0.803970
H50	H	-3.513775	-0.242352	-0.813564
H51	H	-3.770034	-0.171318	-0.703952
H52	H	-3.754860	-0.307581	-0.713520
H53	H	-4.339250	-0.556178	-0.395064
O54	O	-3.848510	-0.158984	-0.805498
C55	C	-3.665152	-0.044801	-0.752286
H56	H	-3.716745	0.028505	-0.707722
H57	H	-3.529372	-0.066421	-0.675682
C58	C	-3.515220	-0.079926	-0.912569
C59	C	-3.578592	0.010113	-0.857845
H60	H	-3.461817	-0.046054	-0.977681
H61	H	-3.638746	-0.156856	-0.948417
H62	H	-3.402079	-0.097935	-0.848721
H63	H	-3.691749	0.028108	-0.921689
H64	H	-3.455082	0.087048	-0.822011
