data_functionalizedCrystal
_audit_creation_method	'MofGen! by Chris Wilmer'
_symmetry_space_group_name_H-M	'P1'
_symmetry_Int_Tables_number	1
_symmetry_cell_setting	triclinic
loop_
_symmetry_equiv_pos_as_xyz
  x,y,z
_cell_length_a	19.805407
_cell_length_b	12.645330
_cell_length_c	19.805398
_cell_angle_alpha	89.978153
_cell_angle_beta	90.013121
_cell_angle_gamma	89.973813
loop_
_atom_site_label
_atom_site_type_symbol
_atom_site_fract_x
_atom_site_fract_y
_atom_site_fract_z
Zn1	Zn	1.034694	0.422053	0.382751
Zn2	Zn	1.534694	0.922053	0.882751
Zn3	Zn	1.034622	0.599335	0.269577
Zn4	Zn	1.534622	1.099335	0.769577
Zn5	Zn	0.921521	0.422086	0.269576
Zn6	Zn	1.421521	0.922086	0.769576
Zn7	Zn	0.921472	0.599275	0.382723
Zn8	Zn	1.421472	1.099275	0.882723
O9	O	0.978077	0.510687	0.326157
O10	O	1.478077	1.010687	0.826157
O11	O	1.129401	0.445581	0.367751
O12	O	1.629401	0.945581	0.867751
O13	O	1.019609	0.575861	0.174860
O14	O	1.519609	1.075861	0.674860
O15	O	0.936584	0.273734	0.284601
O16	O	1.436584	0.773734	0.784601
O17	O	1.129348	0.575829	0.284601
O18	O	1.629348	1.075829	0.784601
O19	O	1.019732	0.273710	0.367750
O20	O	1.519732	0.773710	0.867750
O21	O	0.936514	0.445637	0.174859
O22	O	1.436514	0.945637	0.674859
O23	O	0.826798	0.445579	0.284573
O24	O	1.326798	0.945579	0.784573
O25	O	0.936501	0.575728	0.477444
O26	O	1.436501	1.075728	0.977444
O27	O	0.826762	0.575759	0.367702
O28	O	1.326762	1.075759	0.867702
O29	O	1.019684	0.445524	0.477464
O30	O	1.519684	0.945524	0.977464
O31	O	1.019562	0.747674	0.284574
O32	O	1.519562	1.247674	0.784574
O33	O	0.936431	0.747630	0.367703
O34	O	1.436431	1.247630	0.867703
C35	C	0.802221	0.510667	0.326135
C36	C	1.302221	1.010667	0.826135
C37	C	0.726989	0.510684	0.326142
C38	C	1.226989	1.010684	0.826142
C39	C	0.978002	0.786117	0.326150
C40	C	1.478002	1.286117	0.826150
C41	C	0.978031	0.903947	0.326170
C42	C	1.478031	1.403947	0.826170
C43	C	0.691644	0.578571	0.369357
C44	C	1.191644	1.078571	0.869357
C45	C	0.620956	0.578573	0.369366
C46	C	1.120956	1.078573	0.869366
C47	C	0.585614	0.510692	0.326157
C48	C	1.085614	1.010692	0.826157
C49	C	0.620964	0.442798	0.282940
C50	C	1.120964	0.942798	0.782940
C51	C	0.691651	0.442791	0.282934
C52	C	1.191651	0.942791	0.782934
C53	C	0.335890	0.442821	0.282962
C54	C	0.835890	0.942821	0.782962
C55	C	0.265198	0.442835	0.282970
C56	C	0.765198	0.942835	0.782970
C57	C	0.265195	0.578602	0.369394
C58	C	0.765195	1.078602	0.869394
C59	C	0.335882	0.578596	0.369389
C60	C	0.835882	1.078596	0.869389
C61	C	0.371226	0.510698	0.326174
C62	C	0.871226	1.010698	0.826174
C63	C	0.447875	0.510695	0.326166
C64	C	0.947875	1.010695	0.826166
C65	C	0.508966	0.510699	0.326162
C66	C	1.008966	1.010699	0.826162
C67	C	0.925934	1.071528	0.378629
C68	C	1.425934	1.571528	0.878629
C69	C	0.925679	0.948968	0.378459
C70	C	1.425679	1.448968	0.878459
C71	C	0.958729	0.948537	0.254838
C72	C	1.458729	1.448537	0.754838
C73	C	0.958399	1.071135	0.255158
C74	C	1.458399	1.571135	0.755158
C75	C	1.049714	1.071037	0.344468
C76	C	1.549714	1.571037	0.844468
C77	C	1.049286	0.948431	0.346027
C78	C	1.549286	1.448431	0.846027
C79	C	1.154620	0.510708	0.326179
C80	C	1.654620	1.010708	0.826179
C81	C	1.229852	0.510717	0.326189
C82	C	1.729852	1.010717	0.826189
C83	C	0.978095	0.510615	0.502700
C84	C	1.478095	1.010615	1.002700
C85	C	0.978103	0.510585	0.577932
C86	C	1.478103	1.010585	1.077932
C87	C	0.978148	1.234182	0.326181
C88	C	1.478148	1.734182	0.826181
C89	C	0.978117	1.116352	0.326198
C90	C	1.478117	1.616352	0.826198
C91	C	0.978098	0.510682	0.150301
C92	C	1.478098	1.010682	0.650301
C93	C	0.978222	0.510414	0.075069
C94	C	1.478222	1.010414	0.575069
C95	C	1.021477	0.578224	1.039721
C96	C	1.521477	1.078224	1.539721
C97	C	1.021458	0.578253	0.969032
C98	C	1.521458	1.078253	1.469032
C99	C	0.978187	0.510465	0.933694
C100	C	1.478187	1.010465	1.433694
C101	C	0.934927	0.442652	0.969047
C102	C	1.434927	0.942652	1.469047
C103	C	0.934943	0.442630	1.039734
C104	C	1.434943	0.942630	1.539734
C105	C	0.934861	0.442743	0.683974
C106	C	1.434861	0.942743	1.183974
C107	C	0.934850	0.442769	0.613282
C108	C	1.434850	0.942769	1.113282
C109	C	1.021377	0.578366	0.613272
C110	C	1.521377	1.078366	1.113272
C111	C	1.021393	0.578344	0.683959
C112	C	1.521393	1.078344	1.183959
C113	C	0.978131	0.510535	0.719306
C114	C	1.478131	1.010535	1.219306
C115	C	0.978150	0.510506	0.795955
C116	C	1.478150	1.010506	1.295955
C117	C	0.978170	0.510488	0.857046
C118	C	1.478170	1.010488	1.357046
H119	H	0.720414	0.633851	0.404541
H120	H	1.220414	1.133851	0.904541
O121	O	1.063301	0.644360	0.578903
O122	O	1.563301	1.144360	1.078903
C123	C	1.024735	0.712825	0.537996
C124	C	1.524735	1.212825	1.037996
H125	H	0.971429	0.719362	0.559298
H126	H	1.471429	1.219362	1.059298
H127	H	1.049189	0.794410	0.537187
H128	H	1.549189	1.294410	1.037187
H129	H	1.022401	0.680070	0.484426
H130	H	1.522401	1.180070	0.984426
H131	H	1.063842	0.919283	0.398523
H132	H	1.563842	1.419283	0.898523
O133	O	0.586726	0.644631	0.411359
O134	O	1.086726	1.144631	0.911359
C135	C	0.633078	0.704533	0.449500
C136	C	1.133078	1.204533	0.949500
H137	H	0.683457	0.708128	0.421770
H138	H	1.183457	1.208128	0.921770
H139	H	0.612638	0.788079	0.456620
H140	H	1.112638	1.288079	0.956620
H141	H	0.640619	0.665835	0.500953
H142	H	1.140619	1.165835	1.000953
H143	H	0.899720	0.387411	1.068514
H144	H	1.399720	0.887411	1.568514
H145	H	1.056673	0.633483	0.940254
H146	H	1.556673	1.133483	1.440254
H147	H	0.364654	0.633875	0.404572
H148	H	0.864654	1.133875	0.904572
H149	H	0.236410	0.633884	0.404584
H150	H	0.736410	1.133884	0.904584
H151	H	0.236425	0.387552	0.247783
H152	H	0.736425	0.887552	0.747783
H153	H	1.090218	0.917778	0.310619
H154	H	1.590218	1.417778	0.810619
H155	H	1.067318	1.101884	0.395600
H156	H	1.567318	1.601884	0.895600
H157	H	0.995538	0.919376	0.214704
H158	H	1.495538	1.419376	0.714704
O159	O	0.370113	0.376834	0.240922
O160	O	0.870113	0.876834	0.740922
C161	C	0.323758	0.316907	0.202800
C162	C	0.823758	0.816907	0.702800
H163	H	0.273362	0.360337	0.200410
H164	H	0.773362	0.860337	0.700410
H165	H	0.344168	0.305476	0.149483
H166	H	0.844168	0.805476	0.649483
H167	H	0.316262	0.236451	0.227678
H168	H	0.816262	0.736451	0.727678
O169	O	1.096019	1.105756	0.298877
O170	O	1.596019	1.605756	0.798877
C171	C	1.063912	1.170637	0.250664
C172	C	1.563912	1.670637	0.750664
H173	H	1.015381	1.204166	0.273016
H174	H	1.515381	1.704166	0.773016
H175	H	1.099003	1.238332	0.236084
H176	H	1.599003	1.738332	0.736084
H177	H	1.051390	1.121880	0.203905
H178	H	1.551390	1.621880	0.703905
H179	H	1.056717	0.633420	1.068488
H180	H	1.556717	1.133420	1.568488
O181	O	0.586530	0.376952	0.240991
O182	O	1.086530	0.876952	0.740991
C183	C	0.516560	0.391494	0.250274
C184	C	1.016560	0.891494	0.750274
H185	H	0.506891	0.473354	0.272349
H186	H	1.006891	0.973354	0.772349
H187	H	0.489681	0.384194	0.199585
H188	H	0.989681	0.884194	0.699585
H189	H	0.496529	0.328693	0.286391
H190	H	0.996529	0.828693	0.786391
H191	H	1.056631	0.633539	0.712728
H192	H	1.556631	1.133539	1.212728
H193	H	0.906943	0.917925	0.239080
H194	H	1.406943	1.417925	0.739080
O195	O	0.892746	0.376889	0.579057
O196	O	1.392746	0.876889	1.079057
C197	C	0.854574	0.317017	0.625412
C198	C	1.354574	0.817017	1.125412
H199	H	0.852227	0.360419	0.675797
H200	H	1.352227	0.860419	1.175797
H201	H	0.801246	0.305721	0.604985
H202	H	1.301246	0.805721	1.104985
H203	H	0.879382	0.236500	0.632939
H204	H	1.379382	0.736500	1.132939
O205	O	0.892760	0.377030	0.718328
O206	O	1.392760	0.877030	1.218328
C207	C	0.849039	0.437375	0.759212
C208	C	1.349039	0.937375	1.259212
H209	H	0.844841	0.520878	0.737903
H210	H	1.344841	1.020878	1.237903
H211	H	0.796958	0.399043	0.760002
H212	H	1.296958	0.899043	1.260002
H213	H	0.869962	0.440999	0.812790
H214	H	1.369962	0.940999	1.312790
O215	O	0.725883	0.376818	0.240887
O216	O	1.225883	0.876818	0.740887
C217	C	0.679533	0.316890	0.202760
C218	C	1.179533	0.816890	0.702760
H219	H	0.629132	0.360310	0.200375
H220	H	1.129132	0.860310	0.700375
H221	H	0.699943	0.305476	0.149441
H222	H	1.199943	0.805476	0.649441
H223	H	0.672044	0.236426	0.227631
H224	H	1.172044	0.736426	0.727631
H225	H	0.899691	0.387464	0.940269
H226	H	1.399691	0.887464	1.440269
H227	H	0.937755	0.918817	0.431351
H228	H	1.437755	1.418817	0.931351
H229	H	0.937893	1.100943	0.431695
H230	H	1.437893	1.600943	0.931695
H231	H	0.872606	0.919733	0.366354
H232	H	1.372606	1.419733	0.866354
O233	O	0.863043	1.108439	0.364263
O234	O	1.363043	1.608439	0.864263
C235	C	0.866001	1.174659	0.307051
C236	C	1.366001	1.674659	0.807051
H237	H	0.912606	1.154128	0.275925
H238	H	1.412606	1.654128	0.775925
H239	H	0.818772	1.162677	0.275047
H240	H	1.318772	1.662677	0.775047
H241	H	0.869015	1.260716	0.323916
H242	H	1.369015	1.760716	0.823916
O243	O	0.896007	1.105426	0.236589
O244	O	1.396007	1.605426	0.736589
C245	C	0.901286	1.167572	0.177706
C246	C	1.401286	1.667572	0.677706
H247	H	0.949582	1.146005	0.149588
H248	H	1.449582	1.646005	0.649588
H249	H	0.855847	1.152153	0.143770
H250	H	1.355847	1.652153	0.643770
H251	H	0.902696	1.254807	0.192145
H252	H	1.402696	1.754807	0.692145
O253	O	1.001689	1.106490	0.206879
O254	O	1.501689	1.606490	0.706879
C255	C	0.980789	1.069007	0.143182
C256	C	1.480789	1.569007	0.643182
H257	H	0.924608	1.049609	0.144831
H258	H	1.424608	1.549609	0.644831
H259	H	0.990328	1.132408	0.103379
H260	H	1.490328	1.632408	0.603379
H261	H	1.010531	0.994696	0.129826
H262	H	1.510531	1.494696	0.629826
