data_functionalizedCrystal
_audit_creation_method	'MofGen! by Chris Wilmer'
_symmetry_space_group_name_H-M	'P1'
_symmetry_Int_Tables_number	1
_symmetry_cell_setting	triclinic
loop_
_symmetry_equiv_pos_as_xyz
  x,y,z
_cell_length_a	12.645331
_cell_length_b	19.120786
_cell_length_c	12.645323
_cell_angle_alpha	92.471912
_cell_angle_beta	90.015738
_cell_angle_gamma	92.464644
loop_
_atom_site_label
_atom_site_type_symbol
_atom_site_fract_x
_atom_site_fract_y
_atom_site_fract_z
Zn1	Zn	1.602668	-0.279639	0.581191
Zn2	Zn	1.936001	0.053694	0.914525
Zn3	Zn	2.269334	0.387027	1.247858
Zn4	Zn	1.594962	-0.397105	0.396346
Zn5	Zn	1.928295	-0.063772	0.729679
Zn6	Zn	2.261628	0.269562	1.063012
Zn7	Zn	1.425381	-0.279664	0.403956
Zn8	Zn	1.758714	0.053670	0.737289
Zn9	Zn	2.092047	0.387003	1.070622
Zn10	Zn	1.417779	-0.397060	0.573586
Zn11	Zn	1.751112	-0.063726	0.906919
Zn12	Zn	2.084446	0.269607	1.240252
O13	O	1.510197	-0.338367	0.488770
O14	O	1.843531	-0.005034	0.822103
O15	O	2.176864	0.328300	1.155436
O16	O	1.749992	-0.295230	0.556670
O17	O	2.083325	0.038103	0.890003
O18	O	2.416659	0.371436	1.223336
O19	O	1.572423	-0.381555	0.249006
O20	O	1.905756	-0.048222	0.582339
O21	O	2.239089	0.285111	0.915673
O22	O	1.455304	-0.181370	0.433834
O23	O	1.788638	0.151963	0.767168
O24	O	2.121971	0.485297	1.100501
O25	O	1.744330	-0.381532	0.420864
O26	O	2.077664	-0.048198	0.754198
O27	O	2.410997	0.285135	1.087531
O28	O	1.585556	-0.181352	0.564049
O29	O	1.918890	0.151981	0.897382
O30	O	2.252223	0.485315	1.230715
O31	O	1.447832	-0.295272	0.254597
O32	O	1.781166	0.038062	0.587930
O33	O	2.114499	0.371395	0.921264
O34	O	1.276026	-0.295228	0.426459
O35	O	1.609359	0.038106	0.759792
O36	O	1.942692	0.371439	1.093126
O37	O	1.442349	-0.381454	0.722944
O38	O	1.775682	-0.048121	1.056277
O39	O	2.109015	0.285212	1.389610
O40	O	1.270441	-0.381478	0.551086
O41	O	1.603774	-0.048145	0.884419
O42	O	1.937108	0.285189	1.217752
O43	O	1.578186	-0.295186	0.728532
O44	O	1.911519	0.038147	1.061865
O45	O	2.244852	0.371480	1.395198
O46	O	1.565052	-0.495389	0.413489
O47	O	1.898385	-0.162056	0.746823
O48	O	2.231718	0.171277	1.080156
O49	O	1.434876	-0.495356	0.543706
O50	O	1.768210	-0.162023	0.877040
O51	O	2.101543	0.171311	1.210373
C52	C	1.234769	-0.338351	0.488773
C53	C	1.568102	-0.005018	0.822107
C54	C	1.901435	0.328316	1.155440
C55	C	1.116938	-0.338361	0.488799
C56	C	1.450271	-0.005028	0.822132
C57	C	1.783605	0.328306	1.155466
C58	C	0.945877	-0.392919	0.566755
C59	C	1.279210	-0.059585	0.900088
C60	C	1.612543	0.273748	1.233422
C61	C	1.068448	-0.392743	0.567107
C62	C	1.401781	-0.059409	0.900441
C63	C	1.735115	0.273924	1.233774
C64	C	1.077239	-0.264382	0.524098
C65	C	1.410572	0.068951	0.857431
C66	C	1.743905	0.402285	1.190765
C67	C	0.954619	-0.264715	0.524650
C68	C	1.287952	0.068618	0.857984
C69	C	1.621286	0.401952	1.191317
C70	C	0.948476	-0.357187	0.375324
C71	C	1.281810	-0.023853	0.708657
C72	C	1.615143	0.309480	1.041991
C73	C	1.070978	-0.358805	0.375825
C74	C	1.404311	-0.025471	0.709158
C75	C	1.737644	0.307862	1.042492
C76	C	1.498332	-0.520858	0.476970
C77	C	1.831665	-0.187525	0.810303
C78	C	2.164998	0.145808	1.143637
C79	C	1.493353	-0.598929	0.471957
C80	C	1.826686	-0.265596	0.805291
C81	C	2.160019	0.067738	1.138624
C82	C	1.558778	-0.635537	0.537453
C83	C	1.892111	-0.302204	0.870786
C84	C	2.225445	0.031130	1.204120
C85	C	1.554095	-0.708893	0.532745
C86	C	1.887429	-0.375559	0.866078
C87	C	2.220762	-0.042226	1.199412
C88	C	1.483992	-0.745639	0.462535
C89	C	1.817325	-0.412305	0.795869
C90	C	2.150658	-0.078972	1.129202
C91	C	1.418559	-0.709026	0.397037
C92	C	1.751892	-0.375692	0.730370
C93	C	2.085226	-0.042359	1.063703
C94	C	1.423237	-0.635671	0.401751
C95	C	1.756571	-0.302338	0.735084
C96	C	2.089904	0.030995	1.068417
C97	C	1.466472	-0.967125	0.444912
C98	C	1.799805	-0.633791	0.778245
C99	C	2.133139	-0.300458	1.111579
C100	C	1.461801	-1.040484	0.440201
C101	C	1.795134	-0.707151	0.773534
C102	C	2.128468	-0.373817	1.106867
C103	C	1.597336	-1.040346	0.575911
C104	C	1.930670	-0.707013	0.909244
C105	C	2.264003	-0.373679	1.242578
C106	C	1.602013	-0.966990	0.580614
C107	C	1.935346	-0.633657	0.913948
C108	C	2.268679	-0.300324	1.247281
C109	C	1.536576	-0.930384	0.515120
C110	C	1.869910	-0.597050	0.848453
C111	C	2.203243	-0.263717	1.181787
C112	C	1.479206	-0.820620	0.457719
C113	C	1.812539	-0.487287	0.791052
C114	C	2.145873	-0.153953	1.124386
C115	C	1.541357	-0.855404	0.519942
C116	C	1.874691	-0.522070	0.853276
C117	C	2.208024	-0.188737	1.186609
C118	C	1.786701	-0.338383	0.488766
C119	C	2.120035	-0.005050	0.822100
C120	C	2.453368	0.328283	1.155433
C121	C	1.904531	-0.338390	0.488765
C122	C	2.237864	-0.005057	0.822098
C123	C	2.571198	0.328276	1.155432
C124	C	1.510279	-0.338313	0.765279
C125	C	1.843612	-0.004979	1.098612
C126	C	2.176946	0.328354	1.431945
C127	C	1.510314	-0.338289	0.883110
C128	C	1.843647	-0.004956	1.216444
C129	C	2.176980	0.328377	1.549777
C130	C	1.522138	-0.155163	0.500639
C131	C	1.855471	0.178170	0.833972
C132	C	2.188805	0.511504	1.167305
C133	C	1.527226	-0.077092	0.505697
C134	C	1.860560	0.256241	0.839030
C135	C	2.193893	0.589574	1.172363
C136	C	1.510180	-0.338370	0.213340
C137	C	1.843514	-0.005037	0.546673
C138	C	2.176847	0.328296	0.880006
C139	C	1.510364	-0.338196	0.095521
C140	C	1.843697	-0.004862	0.428855
C141	C	2.177030	0.328471	0.762188
C142	C	1.424622	-0.392305	1.047175
C143	C	1.757956	-0.058972	1.380509
C144	C	2.091289	0.274362	1.713842
C145	C	1.424820	-0.392572	0.924598
C146	C	1.758154	-0.059239	1.257932
C147	C	2.091487	0.274094	1.591265
C148	C	1.620716	-0.358378	0.926319
C149	C	1.954049	-0.025045	1.259653
C150	C	2.287382	0.308288	1.592986
C151	C	1.620243	-0.358717	1.048896
C152	C	1.953576	-0.025384	1.382229
C153	C	2.286909	0.307949	1.715562
C154	C	1.486679	-0.263883	1.055117
C155	C	1.820012	0.069451	1.388450
C156	C	2.153345	0.402784	1.721783
C157	C	1.484158	-0.264329	0.932482
C158	C	1.817491	0.069005	1.265815
C159	C	2.150824	0.402338	1.599148
H160	H	1.103974	-0.321970	0.314213
H161	H	1.437307	0.011363	0.647547
H162	H	1.770640	0.344697	0.980880
H163	H	1.407828	-0.245571	1.087213
H164	H	1.741162	0.087762	1.420546
H165	H	2.074495	0.421096	1.753880
H166	H	1.641802	-0.412133	0.892156
H167	H	1.975135	-0.078800	1.225489
H168	H	2.308468	0.254533	1.558823
H169	H	1.659097	-0.937073	0.637785
H170	H	1.992430	-0.603740	0.971118
H171	H	2.325763	-0.270406	1.304451
H172	H	0.922025	-0.317469	0.317156
H173	H	1.255358	0.015865	0.650489
H174	H	1.588692	0.349198	0.983822
H175	H	0.912830	-0.447960	0.544283
H176	H	1.246163	-0.114627	0.877617
H177	H	1.579496	0.218707	1.210950
H178	H	1.615868	-0.605623	0.594621
H179	H	1.949202	-0.272290	0.927954
H180	H	2.282535	0.061044	1.261287
H181	H	0.927656	-0.222631	0.470721
H182	H	1.260990	0.110702	0.804054
H183	H	1.594323	0.444036	1.137388
F184	F	1.615959	-0.816294	0.594668
F185	F	1.949292	-0.482961	0.928001
F186	F	2.282625	-0.149628	1.261335
H187	H	1.342803	-0.380001	0.895318
H188	H	1.676137	-0.046668	1.228651
H189	H	2.009470	0.286666	1.561985
H190	H	1.640879	-0.413041	1.073995
H191	H	1.974212	-0.079708	1.407329
H192	H	2.307545	0.253625	1.740662
F193	F	1.118765	-0.243162	0.631543
F194	F	1.452099	0.090172	0.964876
F195	F	1.785432	0.423505	1.298210
H196	H	1.422130	-0.850547	0.400551
H197	H	1.755464	-0.517214	0.733884
H198	H	2.088797	-0.183880	1.067217
H199	H	1.098601	-0.380303	0.651067
H200	H	1.431934	-0.046970	0.984400
H201	H	1.765267	0.286364	1.317733
F202	F	1.377988	-0.244528	0.895751
F203	F	1.711322	0.088805	1.229084
F204	F	2.044655	0.422139	1.562417
F205	F	1.118842	-0.209833	0.452450
F206	F	1.452175	0.123500	0.785783
F207	F	1.785509	0.456834	1.119117
F208	F	1.623719	-0.747850	0.602467
F209	F	1.957052	-0.414517	0.935800
F210	F	2.290386	-0.081184	1.269133
H211	H	0.914129	-0.410212	0.344158
H212	H	1.247462	-0.076879	0.677491
H213	H	1.580796	0.256454	1.010825
H214	H	1.404709	-1.070401	0.383027
H215	H	1.738042	-0.737068	0.716360
H216	H	2.071376	-0.403734	1.049693
H217	H	1.542427	-0.221883	0.904595
H218	H	1.875761	0.111451	1.237928
H219	H	2.209094	0.444784	1.571261
F220	F	1.317084	-0.376029	1.086753
F221	F	1.650417	-0.042695	1.420087
F222	F	1.983751	0.290638	1.753420
H223	H	1.686103	-0.320214	0.899641
H224	H	2.019437	0.013119	1.232974
H225	H	2.352770	0.346452	1.566308
H226	H	1.096544	-0.413243	0.349290
H227	H	1.429877	-0.079909	0.682623
H228	H	1.763211	0.253424	1.015957
F229	F	1.444289	-0.463856	1.082896
F230	F	1.777623	-0.130523	1.416229
F231	F	2.110956	0.202811	1.749562
F232	F	1.568380	-0.211190	1.096431
F233	F	1.901714	0.122144	1.429764
F234	F	2.235047	0.455477	1.763098
H235	H	1.650610	-1.070159	0.629234
H236	H	1.983943	-0.736826	0.962567
H237	H	2.317276	-0.403492	1.295901
F238	F	1.353601	-0.596711	0.332042
F239	F	1.686934	-0.263377	0.665376
F240	F	2.020268	0.069956	0.998709
H241	H	1.413193	-0.937325	0.391582
H242	H	1.746526	-0.603992	0.724915
H243	H	2.079860	-0.270659	1.058249
F244	F	1.343940	-0.748136	0.322323
F245	F	1.677273	-0.414802	0.655656
F246	F	2.010606	-0.081469	0.988990
H247	H	1.440066	-0.447664	0.891724
H248	H	1.773399	-0.114330	1.225057
H249	H	2.106733	0.219003	1.558391
H250	H	0.915879	-0.380640	0.650221
H251	H	1.249212	-0.047307	0.983554
H252	H	1.582545	0.286026	1.316887
F253	F	1.706196	-0.309410	1.090865
F254	F	2.039529	0.023923	1.424199
F255	F	2.372862	0.357257	1.757532
H256	H	1.094977	-0.447602	0.544436
H257	H	1.428310	-0.114269	0.877769
H258	H	1.761643	0.219064	1.211103
H259	H	0.927074	-0.248772	0.607723
H260	H	1.260407	0.084562	0.941056
H261	H	1.593741	0.417895	1.274390
