data_functionalizedCrystal
_audit_creation_method	'MofGen! by Chris Wilmer'
_symmetry_space_group_name_H-M	'P1'
_symmetry_Int_Tables_number	1
_symmetry_cell_setting	triclinic
loop_
_symmetry_equiv_pos_as_xyz
  x,y,z
_cell_length_a	14.971482
_cell_length_b	15.944493
_cell_length_c	13.448316
_cell_angle_alpha	90.003190
_cell_angle_beta	89.995640
_cell_angle_gamma	83.543826
loop_
_atom_site_label
_atom_site_type_symbol
_atom_site_fract_x
_atom_site_fract_y
_atom_site_fract_z
O1	O	1.186805	0.109447	-0.082666
O2	O	1.686805	0.609447	0.417334
O3	O	0.926388	0.122559	-0.082669
O4	O	1.426388	0.622559	0.417331
O5	O	1.063735	-0.006268	-0.082675
O6	O	1.563735	0.493732	0.417325
O7	O	1.049458	0.238274	-0.082659
O8	O	1.549458	0.738274	0.417341
O9	O	1.063721	-0.006267	0.082708
O10	O	1.563721	0.493733	0.582708
O11	O	0.926374	0.122560	0.082715
O12	O	1.426374	0.622560	0.582715
O13	O	1.186792	0.109448	0.082718
O14	O	1.686792	0.609448	0.582718
Cu15	Cu	1.056582	0.116004	0.097817
Cu16	Cu	1.556582	0.616004	0.597817
Cu17	Cu	1.056598	0.116003	-0.097768
Cu18	Cu	1.556598	0.616003	0.402232
O19	O	1.049444	0.238276	0.082725
O20	O	1.549444	0.738276	0.582725
C21	C	0.893057	0.121974	0.000022
C22	C	1.393057	0.621974	0.500022
C23	C	0.793762	0.120218	0.000020
C24	C	1.293762	0.620218	0.500020
C25	C	0.747111	0.119392	0.090172
C26	C	1.247111	0.619392	0.590172
C27	C	0.653815	0.117729	0.090173
C28	C	1.153815	0.617729	0.590173
C29	C	0.607170	0.116898	0.000021
C30	C	1.107170	0.616898	0.500021
C31	C	0.653828	0.117722	-0.090137
C32	C	1.153828	0.617722	0.409863
C33	C	0.747123	0.119379	-0.090137
C34	C	1.247123	0.619379	0.409863
C35	C	0.459370	0.114271	-0.090131
C36	C	0.959370	0.614271	0.409869
C37	C	0.366068	0.112615	-0.090132
C38	C	0.866068	0.612615	0.409868
C39	C	0.366062	0.112621	0.090179
C40	C	0.866062	0.612621	0.590179
C41	C	0.459357	0.114278	0.090179
C42	C	0.959357	0.614278	0.590179
C43	C	0.506008	0.115103	0.000020
C44	C	1.006008	0.615103	0.500020
C45	C	1.063145	-0.037563	0.000012
C46	C	1.563145	0.462437	0.500012
C47	C	1.061395	-0.130813	-0.000000
C48	C	1.561395	0.369187	0.500000
C49	C	1.142241	-0.366497	0.000019
C50	C	1.642241	0.133503	0.500019
C51	C	1.098650	-0.417107	-0.081523
C52	C	1.598650	0.082893	0.418477
C53	C	1.058154	-0.301538	0.000012
C54	C	1.558154	0.198462	0.500012
C55	C	1.098618	-0.417082	0.081532
C56	C	1.598618	0.082918	0.581532
C57	C	1.055029	-0.466450	0.000028
C58	C	1.555029	0.033550	0.500028
C59	C	1.014586	-0.350919	-0.081599
C60	C	1.514586	0.149081	0.418401
C61	C	1.014565	-0.350890	0.081530
C62	C	1.514565	0.149110	0.581530
C63	C	0.970913	-0.401467	-0.000033
C64	C	1.470913	0.098533	0.499967
C65	C	1.059956	-0.206536	0.000002
C66	C	1.559956	0.293464	0.500002
C67	C	1.053219	-0.561449	0.000031
C68	C	1.553219	-0.061449	0.500031
C69	C	1.220122	0.110033	0.000025
C70	C	1.720122	0.610033	0.500025
C71	C	1.319417	0.111789	0.000020
C72	C	1.819417	0.611789	0.500020
C73	C	1.050035	0.269570	0.000035
C74	C	1.550035	0.769570	0.500035
C75	C	1.051784	0.362821	0.000041
C76	C	1.551784	0.862821	0.500041
N77	N	1.056577	0.116005	0.235382
N78	N	1.556577	0.616005	0.735382
N79	N	1.056609	0.115996	-0.235332
N80	N	1.556609	0.615996	0.264668
C81	C	1.002374	0.064965	0.712625
C82	C	1.502374	0.564965	1.212625
C83	C	1.002371	0.064962	0.608522
C84	C	1.502371	0.564962	1.108522
C85	C	1.056599	0.115996	0.556463
C86	C	1.556599	0.615996	1.056463
C87	C	1.110841	0.167028	0.608513
C88	C	1.610841	0.667028	1.108513
C89	C	1.110849	0.167026	0.712614
C90	C	1.610849	0.667026	1.212614
C91	C	1.110821	0.167031	0.391533
C92	C	1.610821	0.667031	0.891533
C93	C	1.110813	0.167035	0.287424
C94	C	1.610813	0.667035	0.787424
C95	C	1.002343	0.064968	0.287440
C96	C	1.502343	0.564968	0.787440
C97	C	1.002350	0.064966	0.391542
C98	C	1.502350	0.564966	0.891542
C99	C	1.056591	0.116000	0.443584
C100	C	1.556591	0.616000	0.943584
H101	H	0.615843	0.117040	-0.163541
H102	H	1.115843	0.617040	0.336459
N103	N	0.797445	0.120264	-0.187372
N104	N	1.297445	0.620264	0.312628
H105	H	0.753741	0.119486	-0.244483
H106	H	1.253741	0.619486	0.255517
H107	H	0.828895	0.172981	-0.191300
H108	H	1.328895	0.672981	0.308700
H109	H	0.958209	0.023406	0.566153
H110	H	1.458209	0.523406	1.066153
H111	H	0.958188	0.023414	0.433925
H112	H	1.458188	0.523414	0.933925
N113	N	0.874907	-0.422072	-0.000083
N114	N	1.374907	0.077928	0.499917
H115	H	0.874249	-0.485342	0.000506
H116	H	1.374249	0.014658	0.500506
H117	H	0.842954	-0.396863	0.060915
H118	H	1.342954	0.103137	0.560915
H119	H	1.214671	-0.350801	-0.000062
H120	H	1.714671	0.149199	0.499938
H121	H	0.328093	0.111939	-0.163541
H122	H	0.828093	0.611939	0.336459
N123	N	1.169323	0.222080	0.447658
N124	N	1.669323	0.722080	0.947658
H125	H	1.130372	0.263131	0.490860
H126	H	1.630372	0.763131	0.990860
H127	H	1.213108	0.185521	0.490782
H128	H	1.713108	0.685521	0.990782
N129	N	1.145654	-0.455357	0.172852
N130	N	1.645654	0.044643	0.672852
H131	H	1.197768	-0.497475	0.152052
H132	H	1.697768	0.002525	0.652052
H133	H	1.168666	-0.409302	0.213933
H134	H	1.668666	0.090698	0.713933
N135	N	1.145689	-0.455410	-0.172840
N136	N	1.645689	0.044590	0.327160
H137	H	1.210368	-0.442984	-0.172782
H138	H	1.710368	0.057016	0.327218
H139	H	1.143558	-0.518495	-0.172433
H140	H	1.643558	-0.018495	0.327567
H141	H	0.958209	0.023412	0.755004
H142	H	1.458209	0.523412	1.255004
H143	H	0.979079	-0.321962	0.150471
H144	H	1.479079	0.178038	0.650471
H145	H	0.979101	-0.322133	-0.150610
H146	H	1.479101	0.177867	0.349390
H147	H	0.958176	0.023416	0.245062
H148	H	1.458176	0.523416	0.745062
H149	H	1.155000	0.208576	0.566118
H150	H	1.655000	0.708576	1.066118
N151	N	1.169348	0.222072	0.768738
N152	N	1.669348	0.722072	1.268738
H153	H	1.130404	0.263125	0.811943
H154	H	1.630404	0.763125	1.311943
H155	H	1.213133	0.185509	0.811859
H156	H	1.713133	0.685509	1.311859
N157	N	0.509676	0.115170	0.187408
N158	N	1.009676	0.615170	0.687408
H159	H	0.541121	0.167888	0.191425
H160	H	1.041121	0.667888	0.691425
H161	H	0.465921	0.114360	0.244470
H162	H	0.965921	0.614360	0.744470
N163	N	1.169296	0.222081	0.231271
N164	N	1.669296	0.722081	0.731271
H165	H	1.203662	0.254407	0.280034
H166	H	1.703662	0.754407	0.780034
H167	H	1.213021	0.185525	0.188063
H168	H	1.713021	0.685525	0.688063
H169	H	0.615837	0.117042	0.163584
H170	H	1.115837	0.617042	0.663584
N171	N	0.797416	0.120297	0.187408
N172	N	1.297416	0.620297	0.687408
H173	H	0.753702	0.119520	0.244518
H174	H	1.253702	0.619520	0.744518
H175	H	0.843390	0.068953	0.191335
H176	H	1.343390	0.568953	0.691335
H177	H	0.328074	0.111949	0.163590
H178	H	0.828074	0.611949	0.663590
H179	H	0.497351	0.114943	-0.163548
H180	H	0.997351	0.614943	0.336452
