data_functionalizedCrystal
_audit_creation_method	'MofGen! by Chris Wilmer'
_symmetry_space_group_name_H-M	'P1'
_symmetry_Int_Tables_number	1
_symmetry_cell_setting	triclinic
loop_
_symmetry_equiv_pos_as_xyz
  x,y,z
_cell_length_a	16.992695
_cell_length_b	16.992695
_cell_length_c	15.455313
_cell_angle_alpha	87.142836
_cell_angle_beta	87.137745
_cell_angle_gamma	89.331777
loop_
_atom_site_label
_atom_site_type_symbol
_atom_site_fract_x
_atom_site_fract_y
_atom_site_fract_z
O1	O	1.047611	-0.170142	0.072098
O2	O	1.547611	0.329858	0.572098
O3	O	0.819210	-0.168311	0.072108
O4	O	1.319210	0.331689	0.572108
O5	O	0.932495	-0.055026	0.072096
O6	O	1.432495	0.444974	0.572096
O7	O	0.934326	-0.283427	0.072110
O8	O	1.434326	0.216573	0.572110
O9	O	0.938967	-0.048568	-0.072167
O10	O	1.438967	0.451432	0.427833
O11	O	0.825682	-0.161853	-0.072155
O12	O	1.325682	0.338147	0.427845
O13	O	1.054083	-0.163684	-0.072164
O14	O	1.554083	0.336316	0.427836
Cu15	Cu	0.940473	-0.162179	-0.085332
Cu16	Cu	1.440473	0.337821	0.414668
Cu17	Cu	0.932820	-0.169816	0.085275
Cu18	Cu	1.432820	0.330184	0.585275
O19	O	0.940798	-0.276969	-0.072153
O20	O	1.440798	0.223031	0.427847
C21	C	0.793086	-0.162726	-0.000023
C22	C	1.293086	0.337274	0.499977
C23	C	0.705601	-0.155698	-0.000019
C24	C	1.205601	0.344302	0.499981
N25	N	0.927437	-0.175182	0.205271
N26	N	1.427437	0.324818	0.705271
C27	C	1.080207	-0.169269	-0.000032
C28	C	1.580207	0.330731	0.499968
C29	C	1.167691	-0.176298	-0.000030
C30	C	1.667691	0.323702	0.499970
C31	C	0.933375	-0.022437	-0.000035
C32	C	1.433375	0.477563	0.499965
C33	C	0.926347	0.065048	-0.000035
C34	C	1.426347	0.565048	0.499965
C35	C	1.213682	-0.108480	-0.000031
C36	C	1.713682	0.391520	0.499969
C37	C	1.295883	-0.115088	-0.000034
C38	C	1.795883	0.384912	0.499966
C39	C	1.332091	-0.189516	-0.000029
C40	C	1.832091	0.310484	0.499971
C41	C	1.286094	-0.257339	-0.000031
C42	C	1.786094	0.242661	0.499969
C43	C	1.203895	-0.250729	-0.000034
C44	C	1.703895	0.249271	0.499966
C45	C	1.577405	-0.216911	-0.000024
C46	C	2.077405	0.283089	0.499976
C47	C	1.659610	-0.223516	-0.000018
C48	C	2.159610	0.276484	0.499982
C49	C	1.669394	-0.081264	-0.000023
C50	C	2.169394	0.418736	0.499977
C51	C	1.587192	-0.074661	-0.000021
C52	C	2.087192	0.425339	0.499979
C53	C	1.541203	-0.142484	-0.000027
C54	C	2.041203	0.357516	0.499973
N55	N	1.416114	-0.196273	-0.000029
N56	N	1.916114	0.303727	0.499971
N57	N	1.457182	-0.135726	-0.000033
N58	N	1.957182	0.364274	0.499967
C59	C	0.939917	-0.309558	-0.000020
C60	C	1.439917	0.190442	0.499980
C61	C	0.946946	-0.397043	-0.000015
C62	C	1.446946	0.102957	0.499985
C63	C	0.994165	0.111039	-0.000038
C64	C	1.494165	0.611039	0.499962
C65	C	0.987555	0.193239	-0.000030
C66	C	1.487555	0.693239	0.499970
C67	C	0.913128	0.229447	-0.000024
C68	C	1.413128	0.729447	0.499976
C69	C	0.845304	0.183450	-0.000018
C70	C	1.345304	0.683450	0.499982
C71	C	0.851914	0.101251	-0.000020
C72	C	1.351914	0.601251	0.499980
C73	C	0.885732	0.474761	-0.000011
C74	C	1.385732	0.974761	0.499989
C75	C	0.879128	0.556966	-0.000011
C76	C	1.379128	1.056966	0.499989
C77	C	1.021380	0.566750	-0.000022
C78	C	1.521380	1.066750	0.499978
C79	C	1.027983	0.484549	-0.000029
C80	C	1.527983	0.984549	0.499971
C81	C	0.960160	0.438558	-0.000018
C82	C	1.460160	0.938558	0.499982
N83	N	0.906370	0.313469	-0.000018
N84	N	1.406370	0.813469	0.499982
N85	N	0.966918	0.354538	-0.000018
N86	N	1.466918	0.854538	0.499982
N87	N	0.945862	-0.156807	-0.205328
N88	N	1.445862	0.343193	0.294672
C89	C	0.975668	-0.127160	0.250661
C90	C	1.475668	0.372840	0.750661
C91	C	0.971595	-0.131216	0.341469
C92	C	1.471595	0.368784	0.841469
C93	C	0.919287	-0.183291	0.386886
C94	C	1.419287	0.316709	0.886886
C95	C	0.871053	-0.231318	0.341491
C96	C	1.371053	0.268682	0.841491
C97	C	0.875131	-0.227266	0.250684
C98	C	1.375131	0.272734	0.750684
C99	C	0.901706	-0.200782	0.658469
C100	C	1.401706	0.299218	1.158469
C101	C	0.897631	-0.204830	0.749282
C102	C	1.397631	0.295170	1.249282
C103	C	0.998174	-0.104728	0.749254
C104	C	1.498174	0.395272	1.249254
C105	C	1.002243	-0.100676	0.658446
C106	C	1.502243	0.399324	1.158446
C107	C	0.954013	-0.148707	0.613058
C108	C	1.454013	0.351293	1.113058
N109	N	0.915121	-0.187436	0.479707
N110	N	1.415121	0.312564	0.979707
N111	N	0.958184	-0.144564	0.520239
N112	N	1.458184	0.355436	1.020239
H113	H	1.333326	-0.059863	-0.000038
H114	H	1.833326	0.440137	0.499962
C115	C	0.863307	-0.239024	0.519290
C116	C	1.363307	0.260976	1.019290
C117	C	0.848685	-0.253569	0.608586
C118	C	1.348685	0.246431	1.108586
H119	H	0.830574	-0.271617	0.488493
H120	H	1.330574	0.228383	0.988493
H121	H	0.852238	-0.185266	0.504399
H122	H	1.352238	0.314734	1.004399
H123	H	0.917026	-0.250337	0.504418
H124	H	1.417026	0.249663	1.004418
H125	H	0.794967	-0.242250	0.623459
H126	H	1.294967	0.257750	1.123459
H127	H	0.859748	-0.307339	0.623483
H128	H	1.359748	0.192661	1.123483
H129	H	1.539970	-0.272138	-0.000025
H130	H	2.039970	0.227862	0.499975
H131	H	1.037442	-0.065624	0.786217
H132	H	1.537442	0.434376	1.286217
H133	H	1.076597	0.604203	-0.000029
H134	H	1.576597	1.104203	0.499971
C135	C	0.785856	0.640421	0.074155
C136	C	1.285856	1.140421	0.574155
C137	C	0.797313	0.596773	-0.000001
C138	C	1.297313	1.096773	0.499999
H139	H	0.735352	0.665001	0.074155
H140	H	1.235352	1.165001	0.574155
H141	H	0.789128	0.606304	0.124455
H142	H	1.289128	1.106304	0.624455
H143	H	0.825311	0.679568	0.074139
H144	H	1.325311	1.179568	0.574139
H145	H	0.757861	0.557622	0.000018
H146	H	1.257861	1.057622	0.500018
H147	H	0.794033	0.630893	-0.050313
H148	H	1.294033	1.130893	0.449687
C149	C	0.744462	0.473360	-0.000020
C150	C	1.244462	0.973360	0.499980
C151	C	0.811182	0.424216	-0.000016
C152	C	1.311182	0.924216	0.499984
H153	H	0.698437	0.442151	-0.000031
H154	H	1.198437	0.942151	0.499969
H155	H	0.742584	0.503365	0.050286
H156	H	1.242584	1.003365	0.550286
H157	H	0.747113	0.507883	-0.050330
H158	H	1.247113	1.007883	0.449670
H159	H	0.808534	0.389697	0.050297
H160	H	1.308534	0.889697	0.550297
H161	H	0.813060	0.394197	-0.050327
H162	H	1.313060	0.894197	0.449673
C163	C	1.167930	0.502479	-0.000038
C164	C	1.667930	1.002479	0.499962
C165	C	1.109797	0.444752	-0.000037
C166	C	1.609797	0.944752	0.499963
H167	H	1.218438	0.477908	-0.000043
H168	H	1.718438	0.977908	0.499957
H169	H	1.164646	0.536592	-0.050340
H170	H	1.664646	1.036592	0.449660
H171	H	1.160135	0.532080	0.050276
H172	H	1.660135	1.032080	0.550276
H173	H	1.117588	0.415155	-0.050355
H174	H	1.617588	0.915155	0.449645
H175	H	1.113083	0.410625	0.050269
H176	H	1.613083	0.910625	0.550269
C177	C	1.102439	-0.329136	0.074125
C178	C	1.602439	0.170864	0.574125
C179	C	1.153336	-0.325275	-0.000030
C180	C	1.653336	0.174725	0.499970
H181	H	1.071223	-0.375157	0.074120
H182	H	1.571223	0.124843	0.574120
H183	H	1.132448	-0.331015	0.124425
H184	H	1.632448	0.168985	0.624425
H185	H	1.069117	-0.283859	0.074111
H186	H	1.569117	0.216141	0.574111
H187	H	1.186661	-0.370550	-0.000013
H188	H	1.686661	0.129450	0.499987
H189	H	1.123323	-0.323403	-0.050343
H190	H	1.623323	0.176597	0.449657
H191	H	1.315582	-0.317940	-0.000032
H192	H	1.815582	0.182060	0.499968
C193	C	1.670806	0.060006	-0.000023
C194	C	2.170806	0.560006	0.499977
C195	C	1.719946	-0.006716	-0.000020
C196	C	2.219946	0.493284	0.499980
H197	H	1.702016	0.106030	-0.000017
H198	H	2.202016	0.606030	0.499983
H199	H	1.640805	0.061877	-0.050330
H200	H	2.140805	0.561877	0.449670
H201	H	1.636278	0.057366	0.050286
H202	H	2.136278	0.557366	0.550286
H203	H	1.754470	-0.004078	-0.050333
H204	H	2.254470	0.495922	0.449667
H205	H	1.749960	-0.008587	0.050292
H206	H	2.249960	0.491413	0.550292
H207	H	1.042781	0.230682	-0.000035
H208	H	1.542781	0.730682	0.499965
C209	C	1.673257	-0.350132	0.074132
C210	C	2.173257	0.149868	0.574132
C211	C	1.699417	-0.305330	-0.000021
C212	C	2.199417	0.194670	0.499979
H213	H	1.697832	-0.400638	0.074126
H214	H	2.197832	0.099362	0.574126
H215	H	1.686477	-0.324246	0.124433
H216	H	2.186477	0.175754	0.624433
H217	H	1.617721	-0.355905	0.074117
H218	H	2.117721	0.144095	0.574117
H219	H	1.754953	-0.299552	-0.000004
H220	H	2.254953	0.200448	0.499996
H221	H	1.686203	-0.331222	-0.050336
H222	H	2.186203	0.168778	0.449664
C223	C	0.798666	-0.303388	0.740194
C224	C	1.298666	0.196612	1.240194
C225	C	0.840135	-0.262081	0.799207
C226	C	1.340135	0.237919	1.299207
H227	H	0.763177	-0.338733	0.771018
H228	H	1.263177	0.161267	1.271018
H229	H	0.769950	-0.267199	0.704769
H230	H	1.269950	0.232801	1.204769
H231	H	0.834750	-0.332257	0.704782
H232	H	1.334750	0.167743	1.204782
H233	H	0.804051	-0.233208	0.834615
H234	H	1.304051	0.266792	1.334615
H235	H	0.868854	-0.298276	0.834647
H236	H	1.368854	0.201724	1.334647
C237	C	1.053132	-0.050015	0.519236
C238	C	1.553132	0.449985	1.019236
C239	C	1.059743	-0.043434	0.608525
C240	C	1.559743	0.456566	1.108525
H241	H	1.088625	-0.014670	0.488418
H242	H	1.588625	0.485330	0.988418
H243	H	1.065542	-0.102444	0.504370
H244	H	1.565542	0.397556	1.004370
H245	H	1.000746	-0.037381	0.504363
H246	H	1.500746	0.462619	1.004363
H247	H	1.112127	-0.056074	0.623399
H248	H	1.612127	0.443926	1.123399
H249	H	1.047338	0.009007	0.623396
H250	H	1.547338	0.509007	1.123396
H251	H	1.010870	-0.092113	0.378424
H252	H	1.510870	0.407887	0.878424
H253	H	0.784703	0.212936	-0.000007
H254	H	1.284703	0.712936	0.499993
C255	C	0.855891	-0.341904	0.443643
C256	C	1.355891	0.158096	0.943643
C257	C	0.813554	-0.288559	0.391414
C258	C	1.313554	0.211441	0.891414
H259	H	0.820389	-0.377237	0.474466
H260	H	1.320389	0.122763	0.974466
H261	H	0.891956	-0.370776	0.408227
H262	H	1.391956	0.129224	0.908227
H263	H	0.884029	-0.313873	0.483668
H264	H	1.384029	0.186127	0.983668
H265	H	0.785420	-0.316589	0.351384
H266	H	1.285420	0.183411	0.851384
H267	H	0.777475	-0.259684	0.426834
H268	H	1.277475	0.240316	0.926834
H269	H	0.796689	0.063805	-0.000017
H270	H	1.296689	0.563805	0.499983
C271	C	1.134108	0.128973	-0.000033
C272	C	1.634108	0.628973	0.499967
C273	C	1.075979	0.071243	-0.000039
C274	C	1.575979	0.571243	0.499961
H275	H	1.184617	0.104405	-0.000025
H276	H	1.684617	0.604405	0.499975
H277	H	1.130832	0.163082	-0.050338
H278	H	1.630832	0.663082	0.449662
H279	H	1.126304	0.158577	0.050277
H280	H	1.626304	0.658577	0.550277
H281	H	1.083780	0.041642	-0.050353
H282	H	1.583780	0.541642	0.449647
H283	H	1.079258	0.037120	0.050271
H284	H	1.579258	0.537120	0.550271
C285	C	1.074640	-0.028621	0.259763
C286	C	1.574640	0.471379	0.759763
C287	C	1.033165	-0.069913	0.200742
C288	C	1.533165	0.430087	0.700742
H289	H	1.110140	0.006717	0.228946
H290	H	1.610140	0.506717	0.728946
H291	H	1.038566	0.000246	0.295174
H292	H	1.538566	0.500246	0.795174
H293	H	1.103352	-0.064826	0.295189
H294	H	1.603352	0.435174	0.795189
H295	H	1.004448	-0.033709	0.165321
H296	H	1.504448	0.466291	0.665321
H297	H	1.069244	-0.098783	0.165316
H298	H	1.569244	0.401217	0.665316
C299	C	0.742932	-0.263366	0.222725
C300	C	1.242932	0.236634	0.722725
C301	C	0.822110	-0.280047	0.200785
C302	C	1.322110	0.219953	0.700785
H303	H	0.710201	-0.295951	0.191914
H304	H	1.210201	0.204049	0.691914
H305	H	0.733021	-0.273237	0.283297
H306	H	1.233021	0.226763	0.783297
H307	H	0.731874	-0.209600	0.207828
H308	H	1.231874	0.290400	0.707828
H309	H	0.833169	-0.333812	0.215688
H310	H	1.333169	0.166188	0.715688
H311	H	0.832024	-0.270182	0.140199
H312	H	1.332024	0.229818	0.640199
C313	C	1.193392	0.011486	0.074120
C314	C	1.693392	0.511486	0.574120
C315	C	1.173888	-0.026664	-0.000035
C316	C	1.673888	0.473336	0.499965
H317	H	1.168830	0.061998	0.074111
H318	H	1.668830	0.561998	0.574111
H319	H	1.175646	-0.018904	0.124420
H320	H	1.675646	0.481096	0.624420
H321	H	1.248931	0.017247	0.074111
H322	H	1.748931	0.517247	0.574111
H323	H	1.118349	-0.032431	-0.000024
H324	H	1.618349	0.467569	0.499976
H325	H	1.191630	0.003732	-0.050348
H326	H	1.691630	0.503732	0.449652
H327	H	1.557718	-0.014054	-0.000025
H328	H	2.057718	0.485946	0.499975
