data_functionalizedCrystal
_audit_creation_method	'MofGen! by Chris Wilmer'
_symmetry_space_group_name_H-M	'P1'
_symmetry_Int_Tables_number	1
_symmetry_cell_setting	triclinic
loop_
_symmetry_equiv_pos_as_xyz
  x,y,z
_cell_length_a	17.019372
_cell_length_b	17.038272
_cell_length_c	16.098678
_cell_angle_alpha	92.929250
_cell_angle_beta	83.409482
_cell_angle_gamma	87.242864
loop_
_atom_site_label
_atom_site_type_symbol
_atom_site_fract_x
_atom_site_fract_y
_atom_site_fract_z
O1	O	1.053645	0.099258	-0.006242
O2	O	0.824054	0.112796	0.010211
O3	O	0.937485	-0.007783	0.002075
O4	O	0.940214	0.219836	0.001893
O5	O	0.944076	-0.014803	-0.136907
O6	O	0.830645	0.105775	-0.128772
O7	O	1.060236	0.092238	-0.145225
Zn8	Zn	0.946487	0.097892	-0.159065
Zn9	Zn	0.937803	0.107141	0.024051
O10	O	0.946805	0.212816	-0.137090
C11	C	0.797828	0.108911	-0.057165
C12	C	0.709863	0.107788	-0.050862
C13	C	0.938299	-0.040410	-0.067238
C14	C	0.930893	-0.127170	-0.066707
C15	C	0.212167	0.101600	-0.011353
C16	C	0.294821	0.102656	-0.017287
C17	C	0.339732	0.099363	-0.096015
C18	C	0.301986	0.095005	-0.168812
C19	C	0.219335	0.093944	-0.162878
C20	C	0.589466	0.102370	-0.117724
C21	C	0.672122	0.103433	-0.123654
C22	C	0.664951	0.111082	0.027872
C23	C	0.582298	0.110025	0.033800
C24	C	0.544560	0.105664	-0.038998
C25	C	0.424217	0.100444	-0.102082
C26	C	0.460077	0.104578	-0.032930
C27	C	0.998884	-0.177590	-0.071580
C28	C	0.991921	-0.259109	-0.071073
C29	C	0.916966	-0.290206	-0.065699
C30	C	0.848970	-0.239779	-0.060823
C31	C	0.855934	-0.158262	-0.061324
C32	C	0.892364	-0.535853	-0.063925
C33	C	0.885406	-0.617377	-0.063427
C34	C	1.028357	-0.636700	-0.073675
C35	C	1.035314	-0.555181	-0.074181
C36	C	0.967318	-0.504761	-0.069301
C37	C	0.909847	-0.373531	-0.065184
C38	C	0.974438	-0.421437	-0.069810
C39	C	1.086462	0.096122	-0.077847
C40	C	1.174427	0.097246	-0.084145
C41	C	0.945991	0.245443	-0.067774
C42	C	0.953396	0.332203	-0.068300
N43	N	0.952420	0.091579	-0.284037
C44	C	0.904264	0.142738	-0.324189
C45	C	0.908437	0.138319	-0.411675
C46	C	0.960762	0.082735	-0.459008
C47	C	1.008923	0.031573	-0.418851
C48	C	1.004754	0.035997	-0.331366
C49	C	0.975868	0.066711	-0.723335
C50	C	0.980032	0.062289	-0.810826
C51	C	0.879546	0.169036	-0.803644
C52	C	0.875378	0.173452	-0.716158
C53	C	0.923542	0.122293	-0.676008
C54	C	0.965027	0.078214	-0.548434
C55	C	0.919281	0.126818	-0.586585
N56	N	0.931876	0.113448	0.149023
H57	H	0.175606	0.104288	0.052755
Br58	Br	1.084198	-0.327534	-0.077687
H59	H	0.836997	-0.494810	-0.059951
H60	H	0.832770	0.218712	-0.677621
Br61	Br	0.848274	0.202255	-0.522348
Br62	Br	1.079944	-0.043858	-0.483086
H63	H	0.558750	0.098807	-0.177002
H64	H	0.338560	0.092319	-0.232914
Br65	Br	1.041230	-0.002719	-0.668851
H66	H	0.325545	0.106197	0.041988
H67	H	0.545737	0.112706	0.097908
H68	H	0.840334	0.210688	-0.836342
H69	H	0.695687	0.114632	0.087140
Br70	Br	0.733074	0.098965	-0.230505
Br71	Br	0.168115	0.088024	-0.261671
Br72	Br	1.100613	-0.135395	-0.078886
H73	H	0.423507	0.107256	0.031170
H74	H	1.035464	-0.396113	-0.074167
Br75	Br	1.051048	-0.013156	-0.875058
Br76	Br	1.070117	-0.033432	-0.276875
H77	H	1.007630	0.032956	-0.586979
H78	H	0.460793	0.097764	-0.166182
Br79	Br	1.137040	-0.512982	-0.081448
Br80	Br	1.120632	-0.705130	-0.080299
Br81	Br	0.783676	-0.659580	-0.056141
H82	H	0.787941	-0.265105	-0.056442
H83	H	0.800569	-0.117210	-0.057356
Br84	Br	0.808125	-0.415741	-0.057882
H85	H	0.861651	0.187997	-0.285656
H86	H	0.869225	0.179977	-0.444366
