data_functionalizedCrystal
_audit_creation_method	'MofGen! by Chris Wilmer'
_symmetry_space_group_name_H-M	'P1'
_symmetry_Int_Tables_number	1
_symmetry_cell_setting	triclinic
loop_
_symmetry_equiv_pos_as_xyz
  x,y,z
_cell_length_a	14.971486
_cell_length_b	14.971486
_cell_length_c	13.448316
_cell_angle_alpha	90.007486
_cell_angle_beta	89.996448
_cell_angle_gamma	83.614129
loop_
_atom_site_label
_atom_site_type_symbol
_atom_site_fract_x
_atom_site_fract_y
_atom_site_fract_z
O1	O	-1.186940	-0.116566	-0.082578
O2	O	-0.686940	0.383434	0.417422
O3	O	-0.926540	-0.130525	-0.082605
O4	O	-0.426540	0.369475	0.417395
O5	O	-1.063720	0.006654	-0.082584
O6	O	-0.563720	0.506654	0.417416
O7	O	-1.049761	-0.253746	-0.082599
O8	O	-0.549761	0.246254	0.417401
O9	O	-1.063717	0.006666	0.082800
O10	O	-0.563717	0.506666	0.582800
O11	O	-0.926537	-0.130513	0.082779
O12	O	-0.426537	0.369487	0.582779
O13	O	-1.186937	-0.116555	0.082806
O14	O	-0.686937	0.383445	0.582806
Cu15	Cu	-1.056737	-0.123533	0.097893
Cu16	Cu	-0.556737	0.376467	0.597893
Cu17	Cu	-1.056740	-0.123547	-0.097692
Cu18	Cu	-0.556740	0.376453	0.402308
O19	O	-1.049758	-0.253734	0.082784
O20	O	-0.549758	0.246266	0.582784
C21	C	-1.063094	0.039985	0.000108
C22	C	-0.563094	0.539985	0.500108
C23	C	-1.061223	0.139282	0.000107
C24	C	-0.561223	0.639282	0.500107
C25	C	-0.893214	-0.129895	0.000083
C26	C	-0.393214	0.370105	0.500083
C27	C	-0.793917	-0.128024	0.000073
C28	C	-0.293917	0.371976	0.500073
C29	C	-1.220263	-0.117185	0.000115
C30	C	-0.720263	0.382815	0.500115
C31	C	-1.319561	-0.119056	0.000119
C32	C	-0.819561	0.380944	0.500119
C33	C	-1.050384	-0.287065	0.000091
C34	C	-0.550384	0.212935	0.500091
C35	C	-1.052254	-0.386362	0.000085
C36	C	-0.552254	0.113638	0.500085
C37	C	-0.736692	-0.208614	0.000070
C38	C	-0.236692	0.291386	0.500070
C39	C	-0.643392	-0.206850	0.000085
C40	C	-0.143392	0.293150	0.500085
C41	C	-0.607320	-0.124497	0.000096
C42	C	-0.107320	0.375503	0.500096
C43	C	-0.664552	-0.043902	0.000102
C44	C	-0.164552	0.456098	0.500102
C45	C	-0.757850	-0.045666	0.000095
C46	C	-0.257850	0.454334	0.500095
C47	C	-0.470090	-0.040231	0.000116
C48	C	0.029910	0.459769	0.500116
C49	C	-0.376786	-0.038466	0.000122
C50	C	0.123214	0.461534	0.500122
C51	C	-0.355632	-0.201415	0.000106
C52	C	0.144368	0.298585	0.500106
C53	C	-0.448930	-0.203179	0.000099
C54	C	0.051070	0.296821	0.500099
C55	C	-0.506156	-0.122584	0.000103
C56	C	-0.006156	0.377416	0.500103
N57	N	-1.056744	-0.123550	-0.235257
N58	N	-0.556744	0.376450	0.264743
C59	C	-1.141812	0.196507	0.000116
C60	C	-0.641812	0.696507	0.500116
C61	C	-1.140049	0.289807	0.000106
C62	C	-0.640049	0.789807	0.500106
C63	C	-1.057696	0.325879	0.000093
C64	C	-0.557696	0.825879	0.500093
C65	C	-0.977101	0.268646	0.000081
C66	C	-0.477101	0.768646	0.500081
C67	C	-0.978865	0.175349	0.000084
C68	C	-0.478865	0.675349	0.500084
C69	C	-0.973430	0.463109	0.000077
C70	C	-0.473430	0.963109	0.500077
C71	C	-0.971665	0.556413	0.000076
C72	C	-0.471665	1.056413	0.500076
C73	C	-1.134614	0.577567	0.000099
C74	C	-0.634614	1.077567	0.500099
C75	C	-1.136378	0.484269	0.000102
C76	C	-0.636378	0.984269	0.500102
C77	C	-1.055782	0.427043	0.000091
C78	C	-0.555782	0.927043	0.500091
C79	C	-1.117600	-0.062927	-0.287288
C80	C	-0.617600	0.437073	0.212712
C81	C	-1.117604	-0.062924	-0.391391
C82	C	-0.617604	0.437076	0.108609
C83	C	-1.056746	-0.123542	-0.443461
C84	C	-0.556746	0.376458	0.056539
C85	C	-0.995887	-0.184171	-0.391423
C86	C	-0.495887	0.315829	0.108577
C87	C	-0.995888	-0.184177	-0.287322
C88	C	-0.495888	0.315823	0.212678
C89	C	-0.995887	-0.184153	-0.608403
C90	C	-0.495887	0.315847	-0.108403
C91	C	-0.995884	-0.184146	-0.712512
C92	C	-0.495884	0.315854	-0.212512
C93	C	-1.117603	-0.062900	-0.712472
C94	C	-0.617603	0.437100	-0.212472
C95	C	-1.117604	-0.062906	-0.608371
C96	C	-0.617604	0.437094	-0.108371
C97	C	-1.056743	-0.123535	-0.556340
C98	C	-0.556743	0.376465	-0.056340
N99	N	-1.056741	-0.123523	0.235457
N100	N	-0.556741	0.376477	0.735457
H101	H	-0.766054	-0.275675	0.000060
H102	H	-0.266054	0.224325	0.500060
H103	H	-1.167158	-0.013534	-0.754842
H104	H	-0.667158	0.486466	-0.254842
Br105	Br	-0.547754	0.069150	0.000127
Br106	Br	-0.047754	0.569150	0.500127
Br107	Br	-1.248144	0.435314	0.000116
Br108	Br	-0.748144	0.935314	0.500116
H109	H	-1.167155	-0.013543	-0.565975
H110	H	-0.667155	0.486457	-0.065975
H111	H	-1.208874	0.167145	0.000132
H112	H	-0.708874	0.667145	0.500132
H113	H	-0.946329	-0.233508	-0.754902
H114	H	-0.446329	0.266492	-0.254902
Br115	Br	-1.243995	0.655229	0.000111
Br116	Br	-0.743995	1.155229	0.500111
H117	H	-0.946331	-0.233526	-0.566043
H118	H	-0.446331	0.266474	-0.066043
H119	H	-1.167154	-0.013562	-0.244899
H120	H	-0.667154	0.486438	0.255101
H121	H	-1.167158	-0.013561	-0.433754
H122	H	-0.667158	0.486439	0.066246
Br123	Br	-0.865334	0.317600	0.000048
Br124	Br	-0.365334	0.817600	0.500048
Br125	Br	-0.497885	-0.314946	0.000068
Br126	Br	0.002115	0.185054	0.500068
H127	H	-0.946338	-0.233531	-0.433825
H128	H	-0.446338	0.266469	0.066175
H129	H	-0.596802	-0.272474	0.000081
H130	H	-0.096802	0.227526	0.500081
Br131	Br	-0.327831	0.073300	0.000171
Br132	Br	0.172169	0.573300	0.500171
Br133	Br	-0.913299	-0.266461	-0.216708
Br134	Br	-0.413299	0.233539	0.283292
H135	H	-0.907800	0.416517	0.000066
H136	H	-0.407800	0.916517	0.500066
Br137	Br	-0.615598	0.067865	0.000128
Br138	Br	-0.115598	0.567865	0.500128
H139	H	-0.309033	-0.267039	0.000107
H140	H	0.190967	0.232961	0.500107
Br141	Br	-0.835515	0.063710	0.000108
Br142	Br	-0.335515	0.563710	0.500108
H143	H	-1.205673	0.336396	0.000115
H144	H	-0.705673	0.836396	0.500115
H145	H	-0.904606	0.585780	0.000082
H146	H	-0.404606	1.085780	0.500082
H147	H	-0.913240	0.128756	0.000077
H148	H	-0.413240	0.628756	0.500077
