data_functionalizedCrystal
_audit_creation_method	'MofGen! by Chris Wilmer'
_symmetry_space_group_name_H-M	'P1'
_symmetry_Int_Tables_number	1
_symmetry_cell_setting	triclinic
loop_
_symmetry_equiv_pos_as_xyz
  x,y,z
_cell_length_a	19.805407
_cell_length_b	13.897441
_cell_length_c	19.805404
_cell_angle_alpha	90.031718
_cell_angle_beta	89.973090
_cell_angle_gamma	89.981072
loop_
_atom_site_label
_atom_site_type_symbol
_atom_site_fract_x
_atom_site_fract_y
_atom_site_fract_z
Zn1	Zn	1.034728	-0.545376	0.269497
Zn2	Zn	1.034635	-0.384071	0.382694
Zn3	Zn	0.921541	-0.384093	0.269519
Zn4	Zn	0.921500	-0.545323	0.382644
O5	O	0.978101	-0.464716	0.326088
O6	O	1.129432	-0.523991	0.284524
O7	O	1.019610	-0.249092	0.367712
O8	O	0.936611	-0.405519	0.174799
O9	O	1.129364	-0.405481	0.367690
O10	O	1.019770	-0.524012	0.174783
O11	O	0.936521	-0.249108	0.284562
O12	O	0.826819	-0.405468	0.284514
O13	O	0.936542	-0.680312	0.367604
O14	O	0.826789	-0.523922	0.367626
O15	O	1.019730	-0.680350	0.284475
O16	O	1.019571	-0.405430	0.477404
O17	O	0.936451	-0.523901	0.477367
C18	C	0.802245	-0.464692	0.326067
C19	C	0.727013	-0.464705	0.326074
C20	C	0.691705	-0.526507	0.282847
C21	C	0.621017	-0.526511	0.282850
C22	C	0.585637	-0.464717	0.326085
C23	C	0.620950	-0.402908	0.369315
C24	C	0.691637	-0.402900	0.369308
C25	C	0.335877	-0.402938	0.369346
C26	C	0.265185	-0.402952	0.369351
C27	C	0.265256	-0.526548	0.282888
C28	C	0.335943	-0.526540	0.282881
C29	C	0.371250	-0.464728	0.326107
C30	C	0.447898	-0.464724	0.326102
C31	C	0.508990	-0.464725	0.326095
C32	C	0.978142	-0.716309	0.326032
C33	C	0.978160	-0.823523	0.326007
C34	C	0.978174	-0.910593	0.325988
C35	C	0.978193	-1.019825	0.325958
C36	C	1.154644	-0.464740	0.326110
C37	C	1.229876	-0.464750	0.326119
C38	C	0.978015	-0.464679	0.501944
C39	C	0.978040	-0.464695	0.577176
C40	C	0.978099	-0.214101	0.326096
C41	C	0.978212	-0.106888	0.325930
C42	C	0.978206	-0.464774	0.149546
C43	C	0.978250	-0.464799	0.074314
C44	C	1.021547	-0.403163	1.038964
C45	C	1.021516	-0.403144	0.968276
C46	C	0.978190	-0.464767	0.932938
C47	C	0.934888	-0.526405	0.968292
C48	C	0.934916	-0.526419	1.038980
C49	C	0.934770	-0.526352	0.683219
C50	C	0.934746	-0.526336	0.612527
C51	C	1.021369	-0.403078	0.612515
C52	C	1.021398	-0.403091	0.683202
C53	C	0.978094	-0.464726	0.718551
C54	C	0.978128	-0.464744	0.795199
C55	C	0.978159	-0.464754	0.856291
H56	H	0.720506	-0.576829	0.247641
H57	H	0.899607	-0.576576	0.939517
H58	H	0.592272	-0.576838	0.247651
O59	O	0.892881	-0.586204	1.073425
C60	C	0.902207	-0.573018	1.143392
H61	H	0.924410	-0.498609	1.153062
H62	H	0.938235	-0.630284	1.163394
C63	C	0.806464	-0.673163	1.167862
C64	C	0.833729	-0.581769	1.179740
H65	H	0.764225	-0.678565	1.190284
H66	H	0.800182	-0.682050	1.120724
H67	H	0.836494	-0.720874	1.184530
H68	H	0.803703	-0.534060	1.163064
H69	H	0.840004	-0.572874	1.226876
H70	H	0.236501	-0.576875	0.247688
H71	H	1.056771	-0.352955	0.939494
H72	H	0.364746	-0.576862	0.247676
O73	O	0.230741	-0.342871	0.411255
C74	C	0.189858	-0.280668	0.372665
H75	H	0.179301	-0.314827	0.321403
H76	H	0.217078	-0.209198	0.365160
C77	C	0.135658	-0.221166	0.472855
C78	C	0.122687	-0.263124	0.409896
H79	H	0.094225	-0.210340	0.495821
H80	H	0.163203	-0.263070	0.498855
H81	H	0.158343	-0.161612	0.466592
H82	H	0.100010	-0.322682	0.416160
H83	H	0.095136	-0.221229	0.383898
O84	O	0.725908	-0.342973	0.411398
C85	C	0.708605	-0.363867	0.478878
H86	H	0.689193	-0.440919	0.482364
H87	H	0.667554	-0.312111	0.496531
C88	C	0.795222	-0.257885	0.519750
C89	C	0.771385	-0.352524	0.524033
H90	H	0.833946	-0.250884	0.547605
H91	H	0.806878	-0.243804	0.474288
H92	H	0.761006	-0.214766	0.534459
H93	H	0.805597	-0.395641	0.509315
H94	H	0.759737	-0.366612	0.569493
H95	H	0.364615	-0.352608	0.404544
H96	H	1.056832	-0.352988	1.067731
H97	H	1.056628	-0.352888	0.583727
O98	O	1.063505	-0.343381	0.717633
C99	C	1.054256	-0.356625	0.787603
H100	H	1.032006	-0.431009	0.797226
H101	H	1.018298	-0.299322	0.807758
C102	C	1.150109	-0.256661	0.811993
C103	C	1.122787	-0.348023	0.823812
H104	H	1.192381	-0.251350	0.834329
H105	H	1.156339	-0.247734	0.764853
H106	H	1.120138	-0.208918	0.828788
H107	H	1.152753	-0.395763	0.807009
H108	H	1.116563	-0.356957	0.870950
O109	O	0.892687	-0.586330	0.578273
C110	C	0.907451	-0.682494	0.595473
H111	H	0.933484	-0.684543	0.646775
H112	H	0.942222	-0.715023	0.555646
C113	C	0.809465	-0.738313	0.535749
C114	C	0.841434	-0.740830	0.598762
H115	H	0.768744	-0.774300	0.537775
H116	H	0.799519	-0.673527	0.524159
H117	H	0.838448	-0.765419	0.502567
H118	H	0.812455	-0.713714	0.631942
H119	H	0.851374	-0.805614	0.610359
O120	O	0.586480	-0.342971	0.411292
C121	C	0.516518	-0.356213	0.402020
H122	H	0.506893	-0.430711	0.379919
H123	H	0.496454	-0.299093	0.365928
C124	C	0.492021	-0.255703	0.497646
C125	C	0.480200	-0.347206	0.470506
H126	H	0.469617	-0.250143	0.539890
H127	H	0.539156	-0.246778	0.503891
H128	H	0.475301	-0.208113	0.467563
H129	H	0.496927	-0.394793	0.500584
H130	H	0.433067	-0.356139	0.464267
O131	O	0.892806	-0.586280	0.717622
C132	C	0.931333	-0.648657	0.758433
H133	H	0.982642	-0.614700	0.769002
H134	H	0.938737	-0.720138	0.731144
C135	C	0.831089	-0.707808	0.812617
C136	C	0.894105	-0.666098	0.825602
H137	H	0.808124	-0.718571	0.854049
H138	H	0.805131	-0.665787	0.785120
H139	H	0.837267	-0.767371	0.789875
H140	H	0.887925	-0.606531	0.848336
H141	H	0.920061	-0.708110	0.853104
