data_functionalizedCrystal
_audit_creation_method	'MofGen! by Chris Wilmer'
_symmetry_space_group_name_H-M	'P1'
_symmetry_Int_Tables_number	1
_symmetry_cell_setting	triclinic
loop_
_symmetry_equiv_pos_as_xyz
  x,y,z
_cell_length_a	19.805407
_cell_length_b	13.897441
_cell_length_c	19.805405
_cell_angle_alpha	89.967806
_cell_angle_beta	90.024042
_cell_angle_gamma	89.978935
loop_
_atom_site_label
_atom_site_type_symbol
_atom_site_fract_x
_atom_site_fract_y
_atom_site_fract_z
Zn1	Zn	1.034756	-0.545379	-0.269490
Zn2	Zn	1.034664	-0.384076	-0.382689
Zn3	Zn	0.921564	-0.384096	-0.269514
Zn4	Zn	0.921533	-0.545328	-0.382637
O5	O	0.978129	-0.464720	-0.326083
O6	O	1.129460	-0.523995	-0.284518
O7	O	1.019635	-0.249097	-0.367709
O8	O	0.936631	-0.405521	-0.174795
O9	O	1.129393	-0.405486	-0.367685
O10	O	1.019792	-0.524015	-0.174777
O11	O	0.936541	-0.249112	-0.284559
O12	O	0.826844	-0.405471	-0.284509
O13	O	0.936578	-0.680316	-0.367596
O14	O	0.826821	-0.523927	-0.367620
O15	O	1.019763	-0.680354	-0.284467
O16	O	1.019605	-0.405436	-0.477399
O17	O	0.936489	-0.523907	-0.477361
C18	C	0.802273	-0.464696	-0.326062
C19	C	0.727041	-0.464709	-0.326069
C20	C	0.691733	-0.526510	-0.282840
C21	C	0.621045	-0.526514	-0.282844
C22	C	0.585666	-0.464721	-0.326080
C23	C	0.620979	-0.402913	-0.369310
C24	C	0.691666	-0.402905	-0.369303
C25	C	0.335906	-0.402942	-0.369341
C26	C	0.265214	-0.402957	-0.369346
C27	C	0.265284	-0.526552	-0.282882
C28	C	0.335971	-0.526544	-0.282874
C29	C	0.371278	-0.464732	-0.326102
C30	C	0.447927	-0.464728	-0.326097
C31	C	0.509019	-0.464729	-0.326089
C32	C	0.978177	-0.716313	-0.326023
C33	C	0.978198	-0.823527	-0.325997
C34	C	0.978216	-1.019822	-0.325952
C35	C	0.978204	-0.910589	-0.325979
C36	C	1.154672	-0.464744	-0.326105
C37	C	1.229904	-0.464754	-0.326114
C38	C	0.978052	-0.464685	-0.501939
C39	C	0.978081	-0.464702	-0.577171
C40	C	0.978120	-0.214105	-0.326094
C41	C	0.978231	-0.106892	-0.325928
C42	C	1.021358	-0.526450	-0.612447
C43	C	1.021382	-0.526468	-0.683136
C44	C	0.978133	-0.464732	-0.718546
C45	C	0.934852	-0.402982	-0.683265
C46	C	0.934824	-0.402969	-0.612578
C47	C	0.934960	-0.403031	-0.968338
C48	C	0.934992	-0.403046	-1.039030
C49	C	1.021518	-0.526530	-1.038896
C50	C	1.021491	-0.526517	-0.968209
C51	C	0.978207	-0.464771	-0.932934
C52	C	0.978180	-0.464753	-0.856285
C53	C	0.978163	-0.464744	-0.795193
C54	C	0.978225	-0.464776	-0.149540
C55	C	0.978266	-0.464800	-0.074308
H56	H	0.236529	-0.576878	-0.247681
H57	H	1.056760	-0.576810	-1.067626
H58	H	1.056711	-0.576785	-0.939380
H59	H	0.364773	-0.576866	-0.247669
H60	H	0.899634	-0.352719	-0.712102
H61	H	0.899583	-0.352689	-0.583856
H62	H	0.720413	-0.352579	-0.404504
H63	H	0.236410	-0.352634	-0.404556
H64	H	0.899719	-0.352753	-0.939622
H65	H	0.720534	-0.576832	-0.247634
H66	H	0.592300	-0.576841	-0.247644
H67	H	0.899770	-0.352772	-1.067859
H68	H	0.364644	-0.352613	-0.404540
H69	H	1.056628	-0.576742	-0.711855
H70	H	1.056579	-0.576718	-0.583621
H71	H	0.592168	-0.352595	-0.404511
