data_functionalizedCrystal
_audit_creation_method	'MofGen! by Chris Wilmer'
_symmetry_space_group_name_H-M	'P1'
_symmetry_Int_Tables_number	1
_symmetry_cell_setting	triclinic
loop_
_symmetry_equiv_pos_as_xyz
  x,y,z
_cell_length_a	6.817900
_cell_length_b	11.102244
_cell_length_c	17.329378
_cell_angle_alpha	90.443558
_cell_angle_beta	103.025558
_cell_angle_gamma	108.604870
loop_
_atom_site_label
_atom_site_type_symbol
_atom_site_fract_x
_atom_site_fract_y
_atom_site_fract_z
V1	V	-4.032524	-0.149862	-0.245027
O2	O	-3.993066	0.033932	-0.240365
O3	O	-4.009836	-0.322859	-0.243349
O4	O	-3.974850	-0.135828	-0.351893
O5	O	-4.028294	-0.154394	-0.131070
V6	V	-4.514022	-0.129264	-0.231397
O7	O	-4.298225	-0.195045	-0.274926
O8	O	-4.698519	-0.084080	-0.201499
O9	O	-4.313504	0.043734	-0.233075
O10	O	-4.670876	-0.313058	-0.236060
O11	O	-4.635649	-0.124731	-0.345355
O12	O	-4.348489	-0.143298	-0.124532
C13	C	-3.861392	-0.365399	-0.239484
C14	C	-3.924066	-0.506751	-0.238824
C15	C	-3.916542	-0.562648	-0.166550
C16	C	-3.975443	-0.695465	-0.165939
C17	C	-4.049384	-0.716477	-0.309884
C18	C	-3.990497	-0.583663	-0.310493
C19	C	-3.873845	-0.550518	-0.083444
C20	C	-3.932746	-0.683335	-0.082834
C21	C	-3.816763	-0.126820	-0.377941
C22	C	-3.851062	-0.116490	-0.465304
C23	C	-3.923716	-0.226832	-0.517569
C24	C	-3.955952	-0.217124	-0.599656
C25	C	-3.915517	-0.097073	-0.629476
C26	C	-3.842862	0.013278	-0.577205
C27	C	-3.810642	0.003568	-0.495120
C28	C	-4.009984	-0.061993	-0.876759
C29	C	-4.042204	-0.052292	-0.958851
C30	C	-4.155295	-0.282695	-0.981296
C31	C	-4.123058	-0.292393	-0.899208
C32	C	-4.050417	-0.182044	-0.846944
C33	C	-3.948459	-0.087146	-0.713382
C34	C	-4.017490	-0.191971	-0.763041
C35	C	-4.125291	0.086266	-0.236939
C36	C	-4.041854	0.227618	-0.237604
C37	C	-4.169920	-0.152310	-0.098480
C38	C	-4.114858	-0.162634	-0.011116
H39	H	-4.103477	-0.779114	-0.368234
H40	H	-4.050420	-0.289717	-0.738758
C41	C	-3.930044	0.059398	-0.819278
N42	N	-3.869817	0.150836	-0.775980
C43	C	-3.798373	0.145337	-0.610010
N44	N	-3.764850	0.244807	-0.634717
C45	C	-3.742655	-0.719463	-0.035451
N46	N	-3.599480	-0.746675	0.000234
C47	C	-4.035813	-0.338509	-0.657143
N48	N	-4.095948	-0.429940	-0.700442
C49	C	-3.730711	0.124954	-0.437628
N50	N	-3.670509	0.216385	-0.394326
C51	C	-4.135080	-0.740386	-0.051928
N52	N	-4.287478	-0.783360	-0.028652
C53	C	-3.635721	-0.483289	-0.044667
N54	N	-3.456364	-0.432652	-0.015459
C55	C	-4.167563	-0.424460	-0.866414
N56	N	-4.201085	-0.523935	-0.841713
C57	C	-4.235221	-0.404072	-1.038793
N58	N	-4.295433	-0.495498	-1.082100
H59	H	-3.981769	-0.514469	-0.054708
H60	H	-3.956632	-0.324591	-0.493296
H61	H	-3.915535	0.010600	-0.737671
H62	H	-4.009315	0.045472	-0.983127
H63	H	-3.996645	-0.538158	-0.369346
