data_functionalizedCrystal
_audit_creation_method	'MofGen! by Chris Wilmer'
_symmetry_space_group_name_H-M	'P1'
_symmetry_Int_Tables_number	1
_symmetry_cell_setting	triclinic
loop_
_symmetry_equiv_pos_as_xyz
  x,y,z
_cell_length_a	15.296363
_cell_length_b	19.077142
_cell_length_c	19.076919
_cell_angle_alpha	90.074357
_cell_angle_beta	97.826470
_cell_angle_gamma	82.978136
loop_
_atom_site_label
_atom_site_type_symbol
_atom_site_fract_x
_atom_site_fract_y
_atom_site_fract_z
Zn1	Zn	-0.430587	-1.002616	0.380034
Zn2	Zn	-0.573687	-0.988760	0.242448
Zn3	Zn	-0.418662	-0.891375	0.259497
Zn4	Zn	-0.573148	-0.866652	0.355273
O5	O	-0.499021	-0.937351	0.309313
O6	O	-0.454786	-1.098436	0.365011
O7	O	-0.548358	-0.980390	0.147047
O8	O	-0.295704	-0.922277	0.292985
O9	O	-0.559921	-1.088256	0.263927
O10	O	-0.304465	-1.004005	0.381543
O11	O	-0.434462	-0.908842	0.159573
O12	O	-0.433939	-0.790438	0.268974
O13	O	-0.559002	-0.880140	0.456220
O14	O	-0.547439	-0.772274	0.339340
O15	O	-0.454263	-0.980032	0.474412
O16	O	-0.698156	-0.956417	0.239917
O17	O	-0.697760	-0.866705	0.322808
C18	C	-0.489337	-0.756035	0.303320
C19	C	-0.485216	-0.678463	0.300770
C20	C	-0.730251	-0.907393	0.276841
C21	C	-0.829177	-0.894639	0.262975
C22	C	-0.542456	-0.632573	0.336126
C23	C	-0.538573	-0.559688	0.333734
C24	C	-0.477453	-0.532694	0.295983
C25	C	-0.420207	-0.578589	0.260627
C26	C	-0.424087	-0.651474	0.263023
C27	C	-0.459500	-0.315727	0.284902
C28	C	-0.455627	-0.242837	0.282508
C29	C	-0.573991	-0.223941	0.355617
C30	C	-0.577869	-0.296827	0.358005
C31	C	-0.520620	-0.342716	0.322652
N32	N	-0.473484	-0.458193	0.293536
N33	N	-0.524585	-0.417216	0.325104
C34	C	-1.125984	-1.028785	0.408494
C35	C	-1.033038	-1.040773	0.421521
C36	C	-0.982068	-1.004240	0.381886
C37	C	-1.024053	-0.955719	0.329221
C38	C	-1.117008	-0.943734	0.316188
C39	C	-0.973093	-0.919189	0.289580
C40	C	-1.015078	-0.870667	0.236915
C41	C	-1.108023	-0.858685	0.223885
C42	C	-1.158993	-0.895217	0.263520
C43	C	-0.880138	-0.931174	0.302613
C44	C	-0.871162	-0.846122	0.210308
C45	C	-0.964108	-0.834135	0.197280
C46	C	-0.266889	-0.967444	0.341928
C47	C	-0.167969	-0.980268	0.355826
C48	C	-0.507902	-0.928874	0.491347
C49	C	-0.511687	-0.925261	0.568919
C50	C	-0.508738	-0.119376	0.315322
C51	C	-0.512866	-0.196947	0.317863
C52	C	-0.490112	-0.945844	0.127998
C53	C	-0.486084	-0.949624	0.050466
C54	C	-0.458936	-0.975570	0.614835
C55	C	-0.462488	-0.972167	0.687722
C56	C	-0.518797	-0.918459	0.714691
C57	C	-0.571550	-0.868145	0.668770
C58	C	-0.567993	-0.871545	0.595884
C59	C	-0.535280	-0.902710	0.931659
C60	C	-0.538835	-0.899315	1.004550
C61	C	-0.429771	-1.003337	1.023497
C62	C	-0.426223	-1.006735	0.950609
C63	C	-0.478972	-0.956419	0.904695
N64	N	-0.522431	-0.914981	0.789193
N65	N	-0.475333	-0.959895	0.830195
H66	H	-0.592229	-0.654546	0.366864
H67	H	-1.142204	-0.819181	0.180995
Cl68	Cl	-0.343365	-0.544654	0.213173
H69	H	-0.405846	-0.220862	0.251772
Cl70	Cl	-0.827368	-0.992170	0.368820
Cl71	Cl	-0.363458	-1.066585	1.081222
Cl72	Cl	-0.387527	-0.373408	0.240460
H73	H	-0.906388	-1.014004	0.392496
H74	H	-0.627641	-0.318800	0.388744
Cl75	Cl	-1.190063	-1.074711	0.458309
H76	H	-0.419534	-1.013135	0.725104
H77	H	-0.584691	-0.855577	1.026505
H78	H	-0.585184	-0.522327	0.362524
H79	H	-0.413086	-1.019307	0.592882
Cl80	Cl	-1.016900	-0.773137	0.131075
H81	H	-0.829663	-0.816376	0.178032
Cl82	Cl	-0.352123	-0.709164	0.218576
H83	H	-0.380373	-1.050472	0.928657
Cl84	Cl	-0.601595	-0.839456	0.873947
Cl85	Cl	-0.634309	-0.808295	0.538161
Cl86	Cl	-0.645958	-0.166248	0.400057
Cl87	Cl	-0.980264	-1.101768	0.487727
Cl88	Cl	-1.275844	-0.880256	0.247046
Cl89	Cl	-0.642336	-0.800623	0.702675
