data_functionalizedCrystal
_audit_creation_method	'MofGen! by Chris Wilmer'
_symmetry_space_group_name_H-M	'P1'
_symmetry_Int_Tables_number	1
_symmetry_cell_setting	triclinic
loop_
_symmetry_equiv_pos_as_xyz
  x,y,z
_cell_length_a	12.594517
_cell_length_b	12.759400
_cell_length_c	12.759393
_cell_angle_alpha	90.030652
_cell_angle_beta	89.979322
_cell_angle_gamma	89.985516
loop_
_atom_site_label
_atom_site_type_symbol
_atom_site_fract_x
_atom_site_fract_y
_atom_site_fract_z
Zn1	Zn	1.627270	0.418219	-0.594080
Zn2	Zn	1.627167	0.593935	-0.418400
Zn3	Zn	1.449276	0.418270	-0.418408
Zn4	Zn	1.449261	0.593856	-0.594030
O5	O	1.538244	0.506070	-0.506229
O6	O	1.776202	0.441540	-0.570792
O7	O	1.603533	0.570688	-0.271380
O8	O	1.472937	0.271243	-0.441736
O9	O	1.776127	0.570638	-0.441721
O10	O	1.603709	0.271205	-0.570800
O11	O	1.472837	0.441627	-0.271386
O12	O	1.300328	0.441551	-0.441688
O13	O	1.472911	0.570503	-0.741058
O14	O	1.300317	0.570553	-0.570717
O15	O	1.603693	0.441463	-0.741094
O16	O	1.603518	0.740946	-0.441673
O17	O	1.472811	0.740888	-0.570708
C18	C	1.261703	0.506049	-0.506199
C19	C	1.143397	0.506066	-0.506210
C20	C	1.538312	0.505969	-0.780263
C21	C	1.538341	0.505925	-0.897040
C22	C	1.538180	0.779038	-0.506208
C23	C	1.538251	0.895814	-0.506233
C24	C	1.074119	0.435806	-0.436165
C25	C	1.003311	0.531641	-0.410323
C26	C	1.003407	0.410278	-0.532070
C27	C	1.074147	0.601951	-0.480318
C28	C	1.074249	0.480523	-0.602110
C29	C	1.003472	0.576425	-0.576304
C30	C	1.815864	0.506092	-0.506261
C31	C	1.934170	0.506102	-0.506275
C32	C	1.538336	0.232037	-0.506274
C33	C	1.538375	0.115260	-0.506294
C34	C	1.606386	0.950672	-0.439119
C35	C	1.606451	1.060396	-0.439151
C36	C	1.470238	1.060395	-0.573415
C37	C	1.470178	0.950673	-0.573387
C38	C	1.674458	0.895813	-0.371965
C39	C	1.742598	0.950670	-0.304844
C40	C	1.742663	1.060394	-0.304877
C41	C	1.674589	1.115261	-0.372030
C42	C	1.470265	0.573085	-0.951885
C43	C	1.470304	0.573047	-1.061609
C44	C	1.606498	0.438681	-1.061633
C45	C	1.606463	0.438725	-0.951911
C46	C	1.402142	0.640285	-0.897013
C47	C	1.334060	0.707449	-0.951858
C48	C	1.334099	0.707411	-1.061582
C49	C	1.402220	0.640209	-1.116461
C50	C	1.538237	0.506096	-0.233262
C51	C	1.538414	0.505843	-0.116486
H52	H	0.972154	0.553267	-0.329250
N53	N	1.402276	0.640175	-1.234807
H54	H	1.348816	0.692922	-1.261227
H55	H	1.382779	0.568057	-1.261169
N56	N	1.674389	0.777470	-0.371938
H57	H	1.601366	0.751119	-0.352559
H58	H	1.727896	0.751120	-0.319225
H59	H	1.105091	0.682997	-0.458382
N60	N	1.396678	0.891500	-0.645761
H61	H	1.406972	0.813668	-0.635553
H62	H	1.413207	0.910602	-0.720818
N63	N	1.816159	1.119565	-0.232496
H64	H	1.859271	1.068160	-0.189954
H65	H	1.772885	1.165165	-0.183852
N66	N	1.402115	0.640315	-0.778670
H67	H	1.382575	0.568244	-0.752265
H68	H	1.348644	0.693117	-0.752298
H69	H	1.798028	0.905992	-0.250176
H70	H	1.674656	1.204606	-0.372059
H71	H	1.414814	1.105076	-0.628087
H72	H	1.105432	0.458868	-0.683158
N73	N	1.260599	0.779938	-0.892675
H74	H	1.270902	0.769772	-0.814844
H75	H	1.184595	0.763572	-0.911856
H76	H	1.278671	0.762106	-1.106234
N77	N	0.962633	0.655230	-0.654807
H78	H	0.988505	0.727535	-0.635163
H79	H	0.882448	0.654294	-0.654804
N80	N	1.679965	0.366201	-1.120819
H81	H	1.669655	0.376363	-1.198650
H82	H	1.663419	0.291173	-1.101649
H83	H	1.661895	0.384036	-0.907255
N84	N	0.962240	0.302959	-0.561009
H85	H	1.024041	0.254047	-0.573457
H86	H	0.918141	0.308140	-0.626899
N87	N	1.115222	0.357178	-0.357615
H88	H	1.089416	0.376629	-0.285215
H89	H	1.195405	0.357285	-0.358711
