data_functionalizedCrystal
_audit_creation_method	'MofGen! by Chris Wilmer'
_symmetry_space_group_name_H-M	'P1'
_symmetry_Int_Tables_number	1
_symmetry_cell_setting	triclinic
loop_
_symmetry_equiv_pos_as_xyz
  x,y,z
_cell_length_a	14.519709
_cell_length_b	14.519709
_cell_length_c	22.010155
_cell_angle_alpha	90.003314
_cell_angle_beta	89.997662
_cell_angle_gamma	83.680145
loop_
_atom_site_label
_atom_site_type_symbol
_atom_site_fract_x
_atom_site_fract_y
_atom_site_fract_z
O1	O	-1.223874	-0.120878	0.050440
O2	O	-0.955397	-0.135115	0.050460
O3	O	-1.096754	0.006242	0.050444
O4	O	-1.082517	-0.262235	0.050456
O5	O	-1.096728	0.006221	-0.050606
O6	O	-0.955372	-0.135136	-0.050590
O7	O	-1.223849	-0.120900	-0.050610
Cu8	Cu	-1.089608	-0.128020	-0.059827
Cu9	Cu	-1.089638	-0.127995	0.059677
O10	O	-1.082492	-0.262256	-0.050594
C11	C	-0.921025	-0.134462	-0.000062
C12	C	-0.818643	-0.132474	-0.000055
C13	C	-1.096078	0.040591	-0.000081
C14	C	-1.094089	0.142972	-0.000081
C15	C	-0.443748	-0.125154	-0.000080
C16	C	-0.548056	-0.127187	-0.000073
C17	C	-0.631192	-0.128814	-0.000067
C18	C	-0.735507	-0.130847	-0.000061
C19	C	-0.258221	-0.121553	-0.000085
C20	C	-0.360602	-0.123541	-0.000084
C21	C	-1.083168	-0.296606	-0.000068
C22	C	-1.085156	-0.398987	-0.000063
N23	N	-1.089593	-0.128037	-0.143879
C24	C	-1.086770	0.517868	-0.000065
C25	C	-1.088803	0.413560	-0.000070
C26	C	-1.090430	0.330423	-0.000074
C27	C	-1.092463	0.226109	-0.000077
C28	C	-1.152235	-0.065411	-0.563666
C29	C	-1.152239	-0.065405	-0.627274
O30	O	-1.205462	-0.012170	-0.660171
N31	N	-1.089638	-0.127975	-0.659087
C32	C	-1.027022	-0.190550	-0.627289
O33	O	-0.973774	-0.243771	-0.660189
C34	C	-1.027014	-0.190552	-0.563682
C35	C	-1.089625	-0.127983	-0.531872
C36	C	-1.214840	-0.002847	-0.531856
C37	C	-1.214837	-0.002854	-0.468253
C38	C	-1.152228	-0.065426	-0.436460
C39	C	-1.089622	-0.127991	-0.468269
C40	C	-0.964394	-0.253121	-0.531885
C41	C	-0.964391	-0.253117	-0.468275
C42	C	-1.027003	-0.190548	-0.436465
C43	C	-1.027009	-0.190570	-0.372873
N44	N	-1.089611	-0.128000	-0.341060
C45	C	-1.152220	-0.065428	-0.372853
C46	C	-1.027042	-0.190542	-0.760866
C47	C	-1.027054	-0.190546	-0.824472
C48	C	-1.152270	-0.065399	-0.824452
C49	C	-1.152262	-0.065400	-0.760846
C50	C	-1.089643	-0.127971	-0.729053
C51	C	-1.152209	-0.065449	-0.239282
C52	C	-1.152202	-0.065465	-0.175673
C53	C	-1.026983	-0.190608	-0.175698
C54	C	-1.026992	-0.190596	-0.239301
C55	C	-1.089609	-0.128009	-0.271092
O56	O	-0.973811	-0.243776	-0.339935
O57	O	-1.205450	-0.012208	-0.339945
N58	N	-1.089660	-0.127970	0.143729
H59	H	-1.203191	-0.014514	-0.149775
H60	H	-0.913396	-0.304069	-0.442392
O61	O	-0.966185	-0.251427	-0.730080
C62	C	-0.841958	-0.375523	-0.736825
C63	C	-0.910842	-0.306638	-0.771762
H64	H	-0.797183	-0.420166	-0.770510
H65	H	-0.881794	-0.421752	-0.707064
H66	H	-0.795857	-0.335595	-0.707031
H67	H	-0.956961	-0.346490	-0.801590
H68	H	-0.870949	-0.260410	-0.801485
H69	H	-0.976010	-0.241557	-0.149802
H70	H	-0.976017	-0.241554	-0.265201
H71	H	-1.265818	0.048097	-0.442357
O72	O	-1.213121	-0.004617	-0.270063
C73	C	-1.337279	0.119546	-0.263314
C74	C	-1.268360	0.050694	-0.228379
H75	H	-1.381945	0.164297	-0.229627
H76	H	-1.383483	0.079684	-0.293077
H77	H	-1.297380	0.165675	-0.293106
H78	H	-1.308183	0.004548	-0.198554
H79	H	-1.222157	0.090614	-0.198654
H80	H	-1.203249	-0.014448	-0.850350
O81	O	-0.903481	-0.313934	-0.562681
C82	C	-0.779310	-0.438086	-0.555959
C83	C	-0.848234	-0.369247	-0.521009
H84	H	-0.734638	-0.482838	-0.522283
H85	H	-0.733113	-0.398213	-0.585721
H86	H	-0.819205	-0.484215	-0.585756
H87	H	-0.808415	-0.323102	-0.491180
H88	H	-0.894430	-0.409178	-0.491287
H89	H	-1.203245	-0.014451	-0.734950
O90	O	-1.275756	0.057973	-0.562640
C91	C	-1.399925	0.182125	-0.555887
C92	C	-1.330991	0.113284	-0.520955
H93	H	-1.444588	0.226875	-0.522199
H94	H	-1.446130	0.142254	-0.585644
H95	H	-1.360037	0.228256	-0.585685
H96	H	-1.370803	0.067136	-0.491123
H97	H	-1.284787	0.153212	-0.491236
H98	H	-0.976079	-0.241505	-0.850367
