data_functionalizedCrystal
_audit_creation_method	'MofGen! by Chris Wilmer'
_symmetry_space_group_name_H-M	'P1'
_symmetry_Int_Tables_number	1
_symmetry_cell_setting	triclinic
loop_
_symmetry_equiv_pos_as_xyz
  x,y,z
_cell_length_a	14.853567
_cell_length_b	13.330367
_cell_length_c	19.288865
_cell_angle_alpha	90.009672
_cell_angle_beta	96.614411
_cell_angle_gamma	89.994774
loop_
_atom_site_label
_atom_site_type_symbol
_atom_site_fract_x
_atom_site_fract_y
_atom_site_fract_z
O1	O	1.195854	-0.083366	-0.090683
O2	O	1.695854	0.416634	0.409317
O3	O	0.933333	-0.083385	-0.101486
O4	O	1.433333	0.416615	0.398514
O5	O	1.072179	-0.083355	0.005020
O6	O	1.572179	0.416645	0.505020
O7	O	1.057008	-0.083396	-0.197189
O8	O	1.557008	0.416604	0.302811
O9	O	1.072157	0.083492	0.005022
O10	O	1.572157	0.583492	0.505022
O11	O	0.933311	0.083462	-0.101484
O12	O	1.433311	0.583462	0.398516
O13	O	1.195832	0.083481	-0.090682
O14	O	1.695832	0.583481	0.409318
Cu15	Cu	1.064570	0.098706	-0.096083
Cu16	Cu	1.564570	0.598706	0.403917
Cu17	Cu	1.064596	-0.098610	-0.096085
Cu18	Cu	1.564596	0.401390	0.403915
O19	O	1.056986	0.083451	-0.197188
O20	O	1.556986	0.583451	0.302812
C21	C	0.899736	0.000037	-0.100996
C22	C	1.399736	0.500037	0.399004
C23	C	0.799661	0.000030	-0.099529
C24	C	1.299661	0.500030	0.400471
N25	N	1.064558	0.237487	-0.096081
N26	N	1.564558	0.737487	0.403919
C27	C	0.387522	0.000067	-0.030061
C28	C	0.887522	0.500067	0.469939
C29	C	0.365522	0.000040	-0.156593
C30	C	0.865522	0.500040	0.343407
C31	C	0.459547	0.000037	-0.157972
C32	C	0.959547	0.500037	0.342028
C33	C	0.517565	0.000047	-0.095395
C34	C	1.017565	0.500047	0.404605
C35	C	0.481557	0.000060	-0.031439
C36	C	0.981557	0.500060	0.468561
C37	C	0.495563	0.000013	-0.221927
C38	C	0.995563	0.500013	0.278073
C39	C	0.589594	0.000008	-0.223309
C40	C	1.089594	0.500008	0.276691
C41	C	0.647614	0.000026	-0.160731
C42	C	1.147614	0.500026	0.339269
C43	C	0.611600	0.000040	-0.096772
C44	C	1.111600	0.500040	0.403228
C45	C	0.669618	0.000050	-0.034195
C46	C	1.169618	0.500050	0.465805
C47	C	0.633606	0.000072	0.029764
C48	C	1.133606	0.500072	0.529764
C49	C	0.539577	0.000077	0.031139
C50	C	1.039577	0.500077	0.531139
C51	C	0.741643	0.000020	-0.162106
C52	C	1.241643	0.500020	0.337894
C53	C	0.763653	0.000044	-0.035572
C54	C	1.263653	0.500044	0.464428
C55	C	1.003103	0.710097	-0.143230
C56	C	1.503103	1.210097	0.356770
C57	C	1.126095	0.710092	-0.048940
C58	C	1.626095	1.210092	0.451060
C59	C	1.126086	0.605073	-0.048937
C60	C	1.626086	1.105073	0.451063
C61	C	1.064586	0.552562	-0.096083
C62	C	1.564586	1.052562	0.403917
C63	C	1.003094	0.605069	-0.143230
C64	C	1.503094	1.105069	0.356770
C65	C	1.187582	0.552558	-0.001795
C66	C	1.687582	1.052558	0.498205
C67	C	1.187576	0.447533	-0.001791
C68	C	1.687576	0.947533	0.498209
C69	C	1.126071	0.395020	-0.048934
C70	C	1.626071	0.895020	0.451066
C71	C	1.064576	0.447534	-0.096083
C72	C	1.564576	0.947534	0.403917
C73	C	1.003076	0.395023	-0.143228
C74	C	1.503076	0.895023	0.356772
C75	C	0.941577	0.447534	-0.190374
C76	C	1.441577	0.947534	0.309626
C77	C	0.941589	0.552556	-0.190373
C78	C	1.441589	1.052556	0.309627
C79	C	1.126059	0.289999	-0.048936
C80	C	1.626059	0.789999	0.451064
C81	C	1.003067	0.289995	-0.143228
C82	C	1.503067	0.789995	0.356772
C83	C	1.229429	0.000057	-0.091172
C84	C	1.729429	0.500057	0.408828
C85	C	1.329504	0.000057	-0.092639
C86	C	1.829504	0.500057	0.407361
N87	N	1.064604	0.762608	-0.096085
N88	N	1.564604	1.262608	0.403915
C89	C	1.071680	0.000071	0.030899
C90	C	1.571680	0.500071	0.530899
C91	C	1.070215	0.000080	0.108008
C92	C	1.570215	0.500080	0.608008
C93	C	1.057485	0.000022	-0.223067
C94	C	1.557485	0.500022	0.276933
C95	C	1.058951	0.000007	-0.300175
C96	C	1.558951	0.500007	0.199825
C97	C	1.151683	0.000091	0.152429
C98	C	1.651683	0.500091	0.652429
C99	C	1.150307	0.000075	0.224881
C100	C	1.650307	0.500075	0.724881
C101	C	1.067457	0.000068	0.252908
C102	C	1.567457	0.500068	0.752908
C103	C	0.985977	0.000052	0.208477
C104	C	1.485977	0.500052	0.708477
C105	C	0.987356	0.000058	0.136027
C106	C	1.487356	0.500058	0.636027
C107	C	1.002319	0.058507	0.361416
C108	C	1.502319	0.558507	0.861416
C109	C	1.000944	0.058507	0.433865
C110	C	1.500944	0.558507	0.933865
C111	C	1.063200	0.000045	0.476368
C112	C	1.563200	0.500045	0.976368
C113	C	1.126847	-0.058403	0.446414
C114	C	1.626847	0.441597	0.946414
C115	C	1.128226	-0.058397	0.373964
C116	C	1.628226	0.441603	0.873964
C117	C	1.065952	0.000061	0.331467
C118	C	1.565952	0.500061	0.831467
C119	C	1.143181	0.000037	0.599350
C120	C	1.643181	0.500037	1.099350
C121	C	1.141801	0.000015	0.671803
C122	C	1.641801	0.500015	1.171803
C123	C	0.977470	0.000002	0.655397
C124	C	1.477470	0.500002	1.155397
C125	C	0.978852	0.000015	0.582946
C126	C	1.478852	0.500015	1.082946
C127	C	1.061710	0.000037	0.554927
C128	C	1.561710	0.500037	1.054927
H129	H	0.810886	0.000056	0.015386
H130	H	1.310886	0.500056	0.515386
O131	O	1.241047	0.000087	0.122206
O132	O	1.741047	0.500087	0.622206
H133	H	1.297467	0.000077	0.165272
H134	H	1.797467	0.500077	0.665272
O135	O	0.888110	0.000002	0.685620
O136	O	1.388110	0.500002	1.185620
H137	H	0.848985	-0.068007	0.667776
H138	H	1.348985	0.431993	1.167776
O139	O	1.192427	0.766720	0.001908
O140	O	1.692427	1.266720	0.501908
H141	H	1.182100	0.848571	-0.006011
H142	H	1.682100	1.348571	0.493989
O143	O	0.899484	0.000064	0.088108
O144	O	1.399484	0.500064	0.588108
H145	H	0.841639	0.000064	0.119765
H146	H	1.341639	0.500064	0.619765
H147	H	1.237658	0.595316	0.036586
H148	H	1.737658	1.095316	0.536586
O149	O	1.253893	0.390897	0.049063
O150	O	1.753893	0.890897	0.549063
H151	H	1.296653	0.445056	0.081849
H152	H	1.796653	0.945056	0.581849
H153	H	1.177542	-0.106009	0.481019
H154	H	1.677542	0.393991	0.981019
O155	O	0.500738	0.000096	0.100120
O156	O	1.000738	0.500096	0.600120
H157	H	0.425607	0.000087	0.090563
H158	H	0.925607	0.500087	0.590563
H159	H	0.318279	0.000024	-0.207540
H160	H	0.818279	0.500024	0.292460
H161	H	0.680856	0.000073	0.080715
H162	H	1.180856	0.500073	0.580715
O163	O	1.192360	0.233366	0.001928
O164	O	1.692360	0.733366	0.501928
H165	H	1.182016	0.151515	-0.005986
H166	H	1.682016	0.651515	0.494014
H167	H	1.216650	0.000079	0.261055
H168	H	1.716650	0.500079	0.761055
H169	H	0.448319	-0.000005	-0.272874
H170	H	0.948319	0.499995	0.227126
H171	H	1.210650	0.000051	0.576536
H172	H	1.710650	0.500051	1.076536
H173	H	0.358197	0.000088	0.022013
H174	H	0.858197	0.500088	0.522013
H175	H	0.891519	0.595318	-0.228758
H176	H	1.391519	1.095318	0.271242
H177	H	0.949115	0.106093	0.458247
H178	H	1.449115	0.606093	0.958247
H179	H	0.952982	0.247246	-0.181618
H180	H	1.452982	0.747246	0.318382
O181	O	0.875229	0.390896	-0.241213
O182	O	1.375229	0.890896	0.258787
H183	H	0.885554	0.309047	-0.233284
H184	H	1.385554	0.809047	0.266716
H185	H	1.180048	-0.105990	0.349579
H186	H	1.680048	0.394010	0.849579
O187	O	1.229675	0.000035	0.719721
O188	O	1.729675	0.500035	1.219721
H189	H	1.287518	0.000064	0.688062
H190	H	1.787518	0.500064	1.188062
H191	H	0.912511	0.000012	0.546777
H192	H	1.412511	0.500012	1.046777
H193	H	0.618906	-0.000009	-0.275389
H194	H	1.118906	0.499991	0.224611
H195	H	0.770960	0.000004	-0.214181
H196	H	1.270960	0.500004	0.285819
H197	H	0.953029	0.752855	-0.181614
H198	H	1.453029	1.252855	0.318386
O199	O	0.935172	0.121570	0.315574
O200	O	1.435172	0.621570	0.815574
H201	H	0.890695	0.162224	0.348574
H202	H	1.390695	0.662224	0.848574
H203	H	0.918520	0.000044	0.231301
H204	H	1.418520	0.500044	0.731301
