data_functionalizedCrystal
_audit_creation_method	'MofGen! by Chris Wilmer'
_symmetry_space_group_name_H-M	'P1'
_symmetry_Int_Tables_number	1
_symmetry_cell_setting	triclinic
loop_
_symmetry_equiv_pos_as_xyz
  x,y,z
_cell_length_a	12.645331
_cell_length_b	19.805405
_cell_length_c	19.805399
_cell_angle_alpha	90.029301
_cell_angle_beta	89.981181
_cell_angle_gamma	89.974611
loop_
_atom_site_label
_atom_site_type_symbol
_atom_site_fract_x
_atom_site_fract_y
_atom_site_fract_z
Zn1	Zn	1.620627	0.269497	-0.382698
Zn2	Zn	2.120627	0.769497	0.117302
Zn3	Zn	1.620493	0.382686	-0.269506
Zn4	Zn	2.120493	0.882686	0.230494
Zn5	Zn	1.443353	0.269514	-0.269524
Zn6	Zn	1.943353	0.769514	0.230476
Zn7	Zn	1.443296	0.382648	-0.382655
Zn8	Zn	1.943296	0.882648	0.117345
O9	O	1.531942	0.326086	-0.326096
O10	O	2.031942	0.826086	0.173904
O11	O	1.768956	0.284521	-0.367694
O12	O	2.268956	0.784521	0.132306
O13	O	1.596963	0.367696	-0.174792
O14	O	2.096963	0.867696	0.325208
O15	O	1.466949	0.174795	-0.284562
O16	O	1.966949	0.674795	0.215438
O17	O	1.768858	0.367680	-0.284532
O18	O	2.268858	0.867680	0.215468
O19	O	1.597191	0.174783	-0.367711
O20	O	2.097191	0.674783	0.132289
O21	O	1.466819	0.284549	-0.174805
O22	O	1.966819	0.784549	0.325195
O23	O	1.294998	0.284512	-0.284520
O24	O	1.794998	0.784512	0.215480
O25	O	1.466851	0.367615	-0.477377
O26	O	1.966851	0.867615	0.022623
O27	O	1.294956	0.367631	-0.367637
O28	O	1.794956	0.867631	0.132363
O29	O	1.597135	0.284484	-0.477409
O30	O	2.097135	0.784484	0.022591
O31	O	1.596908	0.477397	-0.284490
O32	O	2.096908	0.977397	0.215510
O33	O	1.466722	0.477369	-0.367620
O34	O	1.966722	0.977369	0.132380
C35	C	1.256513	0.326070	-0.326076
C36	C	1.756513	0.826070	0.173924
C37	C	1.138683	0.326079	-0.326084
C38	C	1.638683	0.826079	0.173916
C39	C	1.531823	0.501942	-0.326063
C40	C	2.031823	1.001942	0.173937
C41	C	1.531869	0.577174	-0.326072
C42	C	2.031869	1.077174	0.173928
C43	C	1.532002	0.326044	-0.502638
C44	C	2.032002	0.826044	-0.002638
C45	C	1.532027	0.326025	-0.577871
C46	C	2.032027	0.826025	-0.077871
C47	C	0.971110	0.273549	-0.274084
C48	C	1.471110	0.773549	0.225916
C49	C	1.093669	0.273685	-0.273855
C50	C	1.593669	0.773685	0.226145
C51	C	1.094147	0.397380	-0.306591
C52	C	1.594147	0.897380	0.193409
C53	C	0.971549	0.397093	-0.306236
C54	C	1.471549	0.897093	0.193764
C55	C	0.971530	0.307988	-0.397777
C56	C	1.471530	0.807988	0.102223
C57	C	1.094136	0.306395	-0.397379
C58	C	1.594136	0.806395	0.102621
C59	C	1.808447	0.326103	-0.326116
C60	C	2.308447	0.826103	0.173884
C61	C	1.926278	0.326110	-0.326124
C62	C	2.426278	0.826110	0.173876
C63	C	1.532091	0.149543	-0.326143
C64	C	2.032091	0.649543	0.173857
C65	C	1.532154	0.074311	-0.326164
C66	C	2.032154	0.574311	0.173836
C67	C	1.599723	0.612510	-0.282831
C68	C	2.099723	1.112510	0.217169
C69	C	1.599768	0.683199	-0.282846
C70	C	2.099768	1.183199	0.217154
C71	C	1.531953	0.718550	-0.326099
C72	C	2.031953	1.218550	0.173901
C73	C	1.464096	0.683209	-0.369344
C74	C	1.964096	1.183209	0.130656
C75	C	1.464057	0.612521	-0.369332
C76	C	1.964057	1.112521	0.130668
C77	C	1.464253	0.968282	-0.369394
C78	C	1.964253	1.468282	0.130606
C79	C	1.464294	1.038974	-0.369401
C80	C	1.964294	1.538974	0.130599
C81	C	1.599963	1.038959	-0.282909
C82	C	2.099963	1.538959	0.217091
C83	C	1.599924	0.968272	-0.282896
C84	C	2.099924	1.468272	0.217104
C85	C	1.532072	0.932937	-0.326144
C86	C	2.032072	1.432937	0.173856
C87	C	1.532025	0.856289	-0.326128
C88	C	2.032025	1.356289	0.173872
C89	C	1.531993	0.795197	-0.326111
C90	C	2.031993	1.295197	0.173889
C91	C	1.599867	0.282737	-0.613232
C92	C	2.099867	0.782737	-0.113232
C93	C	1.599878	0.282717	-0.683921
C94	C	2.099878	0.782717	-0.183921
C95	C	1.532053	0.325990	-0.719246
C96	C	2.032053	0.825990	-0.219246
C97	C	1.464205	0.369280	-0.683879
C98	C	1.964205	0.869280	-0.183879
C99	C	1.464190	0.369296	-0.613192
C100	C	1.964190	0.869296	-0.113192
C101	C	1.464265	0.369217	-0.968953
C102	C	1.964265	0.869217	-0.468953
C103	C	1.464288	0.369200	-1.039645
C104	C	1.964288	0.869200	-0.539645
C105	C	1.599954	0.282638	-1.039681
C106	C	2.099954	0.782638	-0.539681
C107	C	1.599938	0.282654	-0.968994
C108	C	2.099938	0.782654	-0.468994
C109	C	1.532087	0.325942	-0.933634
C110	C	2.032087	0.825942	-0.433634
C111	C	1.532074	0.325962	-0.856985
C112	C	2.032074	0.825962	-0.356985
C113	C	1.532070	0.325974	-0.795893
C114	C	2.032070	0.825974	-0.295893
C115	C	1.531944	0.326080	-0.150240
C116	C	2.031944	0.826080	0.349760
C117	C	1.532124	0.325907	-0.075008
C118	C	2.032124	0.825907	0.424992
H119	H	1.123781	0.220813	-0.286073
H120	H	1.623781	0.720813	0.213927
H121	H	1.655141	0.939492	-0.247674
H122	H	2.155141	1.439492	0.252326
O123	O	1.390951	0.721331	-0.415998
O124	O	1.890951	1.221331	0.084002
H125	H	1.307757	0.707805	-0.404340
H126	H	1.807757	1.207805	0.095660
H127	H	1.123251	0.253926	-0.412077
H128	H	1.623251	0.753926	0.087923
O129	O	1.132761	0.450645	-0.355221
O130	O	1.632761	0.950645	0.144779
H131	H	1.178429	0.489417	-0.327169
H132	H	1.678429	0.989417	0.172831
H133	H	1.124781	0.341886	-0.438228
H134	H	1.624781	0.841886	0.061772
H135	H	1.655102	0.247501	-0.584476
H136	H	2.155102	0.747501	-0.084476
O137	O	1.391018	0.415984	-0.575047
O138	O	1.891018	0.915984	-0.075047
H139	H	1.337102	0.385685	-0.542852
H140	H	1.837102	0.885685	-0.042852
H141	H	1.408805	0.583751	-0.404543
H142	H	1.908805	1.083751	0.095457
O143	O	1.391068	0.930168	-0.416029
O144	O	1.891068	1.430168	0.083971
H145	H	1.337158	0.898007	-0.385692
H146	H	1.837158	1.398007	0.114308
O147	O	1.132441	0.289542	-0.203515
O148	O	1.632441	0.789542	0.296485
H149	H	1.180977	0.336207	-0.204733
H150	H	1.680977	0.836207	0.295267
H151	H	1.408977	0.404511	-0.712647
H152	H	1.908977	0.904511	-0.212647
H153	H	1.655123	0.247469	-0.712709
H154	H	2.155123	0.747469	-0.212709
O155	O	1.673092	0.235983	-0.930891
O156	O	2.173092	0.735983	-0.430891
H157	H	1.720263	0.205873	-0.967357
H158	H	2.220263	0.705873	-0.467357
O159	O	0.933123	0.358689	-0.449146
O160	O	1.433123	0.858689	0.050854
H161	H	0.882052	0.396614	-0.423811
H162	H	1.382052	0.896614	0.076189
H163	H	1.655198	0.247389	-1.068481
H164	H	2.155198	0.747389	-0.568481
H165	H	1.409052	0.404439	-1.068405
H166	H	1.909052	0.904439	-0.568405
O167	O	0.930626	0.240319	-0.421256
O168	O	1.430626	0.740319	0.078744
H169	H	0.998247	0.205594	-0.429791
H170	H	1.498247	0.705594	0.070209
O171	O	0.932031	0.203307	-0.290053
O172	O	1.432031	0.703307	0.209947
H173	H	0.880240	0.205103	-0.335254
H174	H	1.380240	0.705103	0.164746
O175	O	1.672882	0.574383	-0.236190
O176	O	2.172882	1.074383	0.263810
H177	H	1.625463	0.542224	-0.201714
H178	H	2.125463	1.042224	0.298286
O179	O	1.673153	1.077075	-0.236266
O180	O	2.173153	1.577075	0.263734
H181	H	1.720291	1.040616	-0.206183
H182	H	2.220291	1.540616	0.293817
H183	H	1.655020	0.711966	-0.247635
H184	H	2.155020	1.211966	0.252365
H185	H	1.409073	1.067755	-0.404627
H186	H	1.909073	1.567755	0.095373
H187	H	0.942905	0.412461	-0.253854
H188	H	1.442905	0.912461	0.246146
H189	H	1.409032	0.404475	-0.940171
H190	H	1.909032	0.904475	-0.440171
H191	H	0.941891	0.437580	-0.342487
H192	H	1.441891	0.937580	0.157513
O193	O	0.930269	0.289252	-0.204163
O194	O	1.430269	0.789252	0.295837
H195	H	0.842589	0.286670	-0.204113
H196	H	1.342589	0.786670	0.295887
O197	O	1.134741	0.418098	-0.237950
O198	O	1.634741	0.918098	0.262050
H199	H	1.108853	0.380634	-0.199708
H200	H	1.608853	0.880634	0.300292
