data_functionalizedCrystal
_audit_creation_method	'MofGen! by Chris Wilmer'
_symmetry_space_group_name_H-M	'P1'
_symmetry_Int_Tables_number	1
_symmetry_cell_setting	triclinic
loop_
_symmetry_equiv_pos_as_xyz
  x,y,z
_cell_length_a	29.839134
_cell_length_b	29.839131
_cell_length_c	18.101390
_cell_angle_alpha	89.964306
_cell_angle_beta	89.972820
_cell_angle_gamma	90.036281
loop_
_atom_site_label
_atom_site_type_symbol
_atom_site_fract_x
_atom_site_fract_y
_atom_site_fract_z
Zn1	Zn	0.686743	-0.178898	-0.418911
Zn2	Zn	0.936743	0.071102	-0.168911
Zn3	Zn	1.186743	0.321102	0.081089
Zn4	Zn	1.436743	0.571102	0.331089
Zn5	Zn	0.686668	-0.254034	-0.295063
Zn6	Zn	0.936668	-0.004034	-0.045063
Zn7	Zn	1.186668	0.245966	0.204937
Zn8	Zn	1.436668	0.495966	0.454937
Zn9	Zn	0.611619	-0.178912	-0.295063
Zn10	Zn	0.861619	0.071088	-0.045063
Zn11	Zn	1.111619	0.321088	0.204937
Zn12	Zn	1.361619	0.571088	0.454937
Zn13	Zn	0.611573	-0.253995	-0.418842
Zn14	Zn	0.861573	-0.003995	-0.168842
Zn15	Zn	1.111573	0.246005	0.081158
Zn16	Zn	1.361573	0.496005	0.331158
O17	O	0.649151	-0.216460	-0.356970
O18	O	0.899151	0.033540	-0.106970
O19	O	1.149151	0.283540	0.143030
O20	O	1.399151	0.533540	0.393030
O21	O	0.749600	-0.188875	-0.402511
O22	O	0.999600	0.061125	-0.152511
O23	O	1.249600	0.311125	0.097489
O24	O	1.499600	0.561125	0.347489
O25	O	0.676700	-0.244091	-0.191430
O26	O	0.926700	0.005909	0.058570
O27	O	1.176700	0.255909	0.308570
O28	O	1.426700	0.505909	0.558570
O29	O	0.621634	-0.116043	-0.311520
O30	O	0.871634	0.133957	-0.061520
O31	O	1.121634	0.383957	0.188480
O32	O	1.371634	0.633957	0.438480
O33	O	0.749545	-0.244077	-0.311521
O34	O	0.999545	0.005923	-0.061521
O35	O	1.249545	0.255923	0.188479
O36	O	1.499545	0.505923	0.438479
O37	O	0.676828	-0.116033	-0.402511
O38	O	0.926828	0.133967	-0.152511
O39	O	1.176828	0.383967	0.097489
O40	O	1.426828	0.633967	0.347489
O41	O	0.621562	-0.188899	-0.191430
O42	O	0.871562	0.061101	0.058570
O43	O	1.121562	0.311101	0.308570
O44	O	1.371562	0.561101	0.558570
O45	O	0.548746	-0.188861	-0.311453
O46	O	0.798746	0.061139	-0.061453
O47	O	1.048746	0.311139	0.188547
O48	O	1.298746	0.561139	0.438547
O49	O	0.621557	-0.244011	-0.522484
O50	O	0.871557	0.005989	-0.272484
O51	O	1.121557	0.255989	-0.022484
O52	O	1.371557	0.505989	0.227516
O53	O	0.548712	-0.244025	-0.402394
O54	O	0.798712	0.005975	-0.152394
O55	O	1.048712	0.255975	0.097606
O56	O	1.298712	0.505975	0.347606
O57	O	0.676784	-0.188838	-0.522535
O58	O	0.926784	0.061162	-0.272535
O59	O	1.176784	0.311162	-0.022535
O60	O	1.426784	0.561162	0.227465
O61	O	0.676656	-0.316896	-0.311454
O62	O	0.926656	-0.066896	-0.061454
O63	O	1.176656	0.183104	0.188546
O64	O	1.426656	0.433104	0.438546
O65	O	0.621484	-0.316867	-0.402394
O66	O	0.871484	-0.066867	-0.152394
O67	O	1.121484	0.183133	0.097606
O68	O	1.371484	0.433133	0.347606
C69	C	0.532428	-0.216441	-0.356916
C70	C	0.782428	0.033559	-0.106916
C71	C	1.032428	0.283559	0.143084
C72	C	1.282428	0.533559	0.393084
C73	C	0.482494	-0.216443	-0.356911
C74	C	0.732494	0.033557	-0.106911
C75	C	0.982494	0.283557	0.143089
C76	C	1.232494	0.533557	0.393089
C77	C	0.649070	-0.333182	-0.356933
C78	C	0.899070	-0.083182	-0.106933
C79	C	1.149070	0.166818	0.143067
C80	C	1.399070	0.416818	0.393067
C81	C	0.649076	-0.383117	-0.356942
C82	C	0.899076	-0.133117	-0.106942
C83	C	1.149076	0.116883	0.143058
C84	C	1.399076	0.366883	0.393058
C85	C	0.677931	-0.692762	-0.309687
C86	C	0.927931	-0.442762	-0.059687
C87	C	1.177931	-0.192762	0.190313
C88	C	1.427931	0.057238	0.440313
C89	C	0.677986	-0.880435	-0.309715
C90	C	0.927986	-0.630435	-0.059715
C91	C	1.177986	-0.380435	0.190285
C92	C	1.427986	-0.130435	0.440285
O93	O	0.702455	-0.904702	-0.269509
O94	O	0.952455	-0.654702	-0.019509
O95	O	1.202455	-0.404702	0.230491
O96	O	1.452455	-0.154702	0.480491
N97	N	0.649244	-0.903902	-0.357026
N98	N	0.899244	-0.653902	-0.107026
N99	N	1.149244	-0.403902	0.142974
N100	N	1.399244	-0.153902	0.392974
C101	C	0.620487	-0.880447	-0.404336
C102	C	0.870487	-0.630447	-0.154336
C103	C	1.120487	-0.380447	0.095664
C104	C	1.370487	-0.130447	0.345664
O105	O	0.596045	-0.904713	-0.444582
O106	O	0.846045	-0.654713	-0.194582
O107	O	1.096045	-0.404713	0.055418
O108	O	1.346045	-0.154713	0.305418
C109	C	0.620435	-0.692775	-0.404310
C110	C	0.870435	-0.442775	-0.154310
C111	C	1.120435	-0.192775	0.095690
C112	C	1.370435	0.057225	0.345690
C113	C	0.649176	-0.669311	-0.356991
C114	C	0.899176	-0.419311	-0.106991
C115	C	1.149176	-0.169311	0.143009
C116	C	1.399176	0.080689	0.393009
C117	C	0.706670	-0.669298	-0.262372
C118	C	0.956670	-0.419298	-0.012372
C119	C	1.206670	-0.169298	0.237628
C120	C	1.456670	0.080702	0.487628
C121	C	0.706654	-0.622383	-0.262363
C122	C	0.956654	-0.372383	-0.012363
C123	C	1.206654	-0.122383	0.237637
C124	C	1.456654	0.127617	0.487637
C125	C	0.677899	-0.598931	-0.309667
C126	C	0.927899	-0.348931	-0.059667
C127	C	1.177899	-0.098931	0.190333
C128	C	1.427899	0.151069	0.440333
C129	C	0.649160	-0.622395	-0.356982
C130	C	0.899160	-0.372395	-0.106982
C131	C	1.149160	-0.122395	0.143018
C132	C	1.399160	0.127605	0.393018
C133	C	0.591681	-0.669321	-0.451623
C134	C	0.841681	-0.419321	-0.201623
C135	C	1.091681	-0.169321	0.048377
C136	C	1.341681	0.080679	0.298377
C137	C	0.591671	-0.622400	-0.451614
C138	C	0.841671	-0.372400	-0.201614
C139	C	1.091671	-0.122400	0.048386
C140	C	1.341671	0.127600	0.298386
C141	C	0.620412	-0.598936	-0.404295
C142	C	0.870412	-0.348936	-0.154295
C143	C	1.120412	-0.098936	0.095705
C144	C	1.370412	0.151064	0.345705
C145	C	0.620389	-0.552029	-0.404277
C146	C	0.870389	-0.302029	-0.154277
C147	C	1.120389	-0.052029	0.095723
C148	C	1.370389	0.197971	0.345723
N149	N	0.649131	-0.528562	-0.356967
N150	N	0.899131	-0.278562	-0.106967
N151	N	1.149131	-0.028562	0.143033
N152	N	1.399131	0.221438	0.393033
C153	C	0.677887	-0.552013	-0.309662
C154	C	0.927887	-0.302013	-0.059662
C155	C	1.177887	-0.052013	0.190338
C156	C	1.427887	0.197987	0.440338
C157	C	0.620517	-0.978978	-0.404345
C158	C	0.870517	-0.728978	-0.154345
C159	C	1.120517	-0.478978	0.095655
C160	C	1.370517	-0.228978	0.345655
C161	C	0.620529	-1.025896	-0.404350
C162	C	0.870529	-0.775896	-0.154350
C163	C	1.120529	-0.525896	0.095650
C164	C	1.370529	-0.275896	0.345650
C165	C	0.678029	-1.025880	-0.309731
C166	C	0.928029	-0.775880	-0.059731
C167	C	1.178029	-0.525880	0.190269
C168	C	1.428029	-0.275880	0.440269
C169	C	0.678014	-0.978962	-0.309722
C170	C	0.928014	-0.728962	-0.059722
C171	C	1.178014	-0.478962	0.190278
C172	C	1.428014	-0.228962	0.440278
C173	C	0.649259	-0.955511	-0.357034
C174	C	0.899259	-0.705511	-0.107034
C175	C	1.149259	-0.455511	0.142966
C176	C	1.399259	-0.205511	0.392966
C177	C	0.677851	-0.453488	-0.309645
C178	C	0.927851	-0.203488	-0.059645
C179	C	1.177851	0.046512	0.190355
C180	C	1.427851	0.296512	0.440355
C181	C	0.677831	-0.406568	-0.309637
C182	C	0.927831	-0.156568	-0.059637
C183	C	1.177831	0.093432	0.190363
C184	C	1.427831	0.343432	0.440363
C185	C	0.620333	-0.406587	-0.404259
C186	C	0.870333	-0.156587	-0.154259
C187	C	1.120333	0.093413	0.095741
C188	C	1.370333	0.343413	0.345741
C189	C	0.620351	-0.453503	-0.404264
C190	C	0.870351	-0.203503	-0.154264
C191	C	1.120351	0.046497	0.095736
C192	C	1.370351	0.296497	0.345736
C193	C	0.649114	-0.476952	-0.356955
C194	C	0.899114	-0.226952	-0.106955
C195	C	1.149114	0.023048	0.143045
C196	C	1.399114	0.273048	0.393045
O197	O	0.595936	-0.527733	-0.444468
O198	O	0.845936	-0.277733	-0.194468
O199	O	1.095936	-0.027733	0.055532
O200	O	1.345936	0.222267	0.305532
O201	O	0.702333	-0.527739	-0.269433
O202	O	0.952333	-0.277739	-0.019433
O203	O	1.202333	-0.027739	0.230567
O204	O	1.452333	0.222261	0.480567
C205	C	0.677947	-0.739678	-0.309696
C206	C	0.927947	-0.489678	-0.059696
C207	C	1.177947	-0.239678	0.190304
C208	C	1.427947	0.010322	0.440304
C209	C	0.649208	-0.763142	-0.357010
C210	C	0.899208	-0.513142	-0.107010
C211	C	1.149208	-0.263142	0.142990
C212	C	1.399208	-0.013142	0.392990
C213	C	0.620452	-0.739690	-0.404315
C214	C	0.870452	-0.489690	-0.154315
C215	C	1.120452	-0.239690	0.095685
C216	C	1.370452	0.010310	0.345685
C217	C	0.649220	-0.810060	-0.357016
C218	C	0.899220	-0.560060	-0.107016
C219	C	1.149220	-0.310060	0.142984
C220	C	1.399220	-0.060060	0.392984
C221	C	0.677975	-0.833511	-0.309711
C222	C	0.927975	-0.583511	-0.059711
C223	C	1.177975	-0.333511	0.190289
C224	C	1.427975	-0.083511	0.440289
C225	C	0.706718	-0.810044	-0.262401
C226	C	0.956718	-0.560044	-0.012401
C227	C	1.206718	-0.310044	0.237599
C228	C	1.456718	-0.060044	0.487599
C229	C	0.706702	-0.763129	-0.262391
C230	C	0.956702	-0.513129	-0.012391
C231	C	1.206702	-0.263129	0.237609
C232	C	1.456702	-0.013129	0.487609
C233	C	0.591710	-0.763157	-0.451625
C234	C	0.841710	-0.513157	-0.201625
C235	C	1.091710	-0.263157	0.048375
C236	C	1.341710	-0.013157	0.298375
C237	C	0.591728	-0.810072	-0.451631
C238	C	0.841728	-0.560072	-0.201631
C239	C	1.091728	-0.310072	0.048369
C240	C	1.341728	-0.060072	0.298369
C241	C	0.620483	-0.833524	-0.404326
C242	C	0.870483	-0.583524	-0.154326
C243	C	1.120483	-0.333524	0.095674
C244	C	1.370483	-0.083524	0.345674
C245	C	0.172842	-0.245226	-0.404264
C246	C	0.422842	0.004774	-0.154264
C247	C	0.672842	0.254774	0.095736
C248	C	0.922842	0.504774	0.345736
C249	C	-0.014831	-0.245238	-0.404297
C250	C	0.235169	0.004762	-0.154297
C251	C	0.485169	0.254762	0.095703
C252	C	0.735169	0.504762	0.345703
O253	O	-0.039102	-0.269689	-0.444527
O254	O	0.210898	-0.019689	-0.194527
O255	O	0.460898	0.230311	0.055473
O256	O	0.710898	0.480311	0.305473
N257	N	-0.038291	-0.216476	-0.357025
N258	N	0.211709	0.033524	-0.107025
N259	N	0.461709	0.283524	0.142975
N260	N	0.711709	0.533524	0.392975
C261	C	-0.014831	-0.187707	-0.309746
C262	C	0.235169	0.062293	-0.059746
C263	C	0.485169	0.312293	0.190254
C264	C	0.735169	0.562293	0.440254
O265	O	-0.039092	-0.163240	-0.269544
O266	O	0.210908	0.086760	-0.019544
O267	O	0.460908	0.336760	0.230456
O268	O	0.710908	0.586760	0.480456
C269	C	0.172841	-0.187692	-0.309717
C270	C	0.422841	0.062308	-0.059717
C271	C	0.672841	0.312308	0.190283
C272	C	0.922841	0.562308	0.440283
C273	C	0.196299	-0.216459	-0.356986
C274	C	0.446299	0.033541	-0.106986
C275	C	0.696299	0.283541	0.143014
C276	C	0.946299	0.533541	0.393014
C277	C	0.196301	-0.273990	-0.451531
C278	C	0.446301	-0.023990	-0.201531
C279	C	0.696301	0.226010	0.048469
C280	C	0.946301	0.476010	0.298469
C281	C	0.243216	-0.273989	-0.451519
C282	C	0.493216	-0.023989	-0.201519
C283	C	0.743216	0.226011	0.048481
C284	C	0.993216	0.476011	0.298481
C285	C	0.266673	-0.245222	-0.404241
C286	C	0.516673	0.004778	-0.154241
C287	C	0.766673	0.254778	0.095759
C288	C	1.016673	0.504778	0.345759
C289	C	0.243215	-0.216458	-0.356975
C290	C	0.493215	0.033542	-0.106975
C291	C	0.743215	0.283542	0.143025
C292	C	0.993215	0.533542	0.393025
C293	C	0.196301	-0.158921	-0.262441
C294	C	0.446301	0.091079	-0.012441
C295	C	0.696301	0.341079	0.237559
C296	C	0.946301	0.591079	0.487559
C297	C	0.243222	-0.158919	-0.262440
C298	C	0.493222	0.091081	-0.012440
C299	C	0.743222	0.341081	0.237560
C300	C	0.993222	0.591081	0.487560
C301	C	0.266680	-0.187686	-0.309709
C302	C	0.516680	0.062314	-0.059709
C303	C	0.766680	0.312314	0.190291
C304	C	1.016680	0.562314	0.440291
C305	C	0.313588	-0.187690	-0.309685
C306	C	0.563588	0.062310	-0.059685
C307	C	0.813588	0.312310	0.190315
C308	C	1.063588	0.562310	0.440315
N309	N	0.337048	-0.216452	-0.356957
N310	N	0.587048	0.033548	-0.106957
N311	N	0.837048	0.283548	0.143043
N312	N	1.087048	0.533548	0.393043
C313	C	0.313591	-0.245218	-0.404235
C314	C	0.563591	0.004782	-0.154235
C315	C	0.813591	0.254782	0.095765
C316	C	1.063591	0.504782	0.345765
C317	C	-0.113362	-0.187717	-0.309763
C318	C	0.136638	0.062283	-0.059763
C319	C	0.386638	0.312283	0.190237
C320	C	0.636638	0.562283	0.440237
C321	C	-0.160279	-0.187721	-0.309769
C322	C	0.089721	0.062279	-0.059769
C323	C	0.339721	0.312279	0.190231
C324	C	0.589721	0.562279	0.440231
C325	C	-0.160276	-0.245252	-0.404322
C326	C	0.089724	0.004748	-0.154322
C327	C	0.339724	0.254748	0.095678
C328	C	0.589724	0.504748	0.345678
C329	C	-0.113357	-0.245250	-0.404312
C330	C	0.136643	0.004750	-0.154312
C331	C	0.386643	0.254750	0.095688
C332	C	0.636643	0.504750	0.345688
C333	C	-0.089901	-0.216479	-0.357035
C334	C	0.160099	0.033521	-0.107035
C335	C	0.410099	0.283521	0.142965
C336	C	0.660099	0.533521	0.392965
C337	C	0.412117	-0.245213	-0.404207
C338	C	0.662117	0.004787	-0.154207
C339	C	0.912117	0.254787	0.095793
C340	C	1.162117	0.504787	0.345793
C341	C	0.459037	-0.245210	-0.404189
C342	C	0.709037	0.004790	-0.154189
C343	C	0.959037	0.254790	0.095811
C344	C	1.209037	0.504790	0.345811
C345	C	0.459029	-0.187677	-0.309639
C346	C	0.709029	0.062323	-0.059639
C347	C	0.959029	0.312323	0.190361
C348	C	1.209029	0.562323	0.440361
C349	C	0.412113	-0.187681	-0.309654
C350	C	0.662113	0.062319	-0.059654
C351	C	0.912113	0.312319	0.190346
C352	C	1.162113	0.562319	0.440346
C353	C	0.388659	-0.216451	-0.356944
C354	C	0.638659	0.033549	-0.106944
C355	C	0.888659	0.283549	0.143056
C356	C	1.138659	0.533549	0.393056
O357	O	0.337888	-0.163248	-0.269483
O358	O	0.587888	0.086752	-0.019483
O359	O	0.837888	0.336752	0.230517
O360	O	1.087888	0.586752	0.480517
O361	O	0.337860	-0.269675	-0.444442
O362	O	0.587860	-0.019675	-0.194442
O363	O	0.837860	0.230325	0.055558
O364	O	1.087860	0.480325	0.305558
C365	C	0.125927	-0.245227	-0.404276
C366	C	0.375927	0.004773	-0.154276
C367	C	0.625927	0.254773	0.095724
C368	C	0.875927	0.504773	0.345724
C369	C	0.102469	-0.216463	-0.357010
C370	C	0.352469	0.033537	-0.107010
C371	C	0.602469	0.283537	0.142990
C372	C	0.852469	0.533537	0.392990
C373	C	0.125926	-0.187696	-0.309732
C374	C	0.375926	0.062304	-0.059732
C375	C	0.625926	0.312304	0.190268
C376	C	0.875926	0.562304	0.440268
C377	C	0.055551	-0.216467	-0.357016
C378	C	0.305551	0.033533	-0.107016
C379	C	0.555551	0.283533	0.142984
C380	C	0.805551	0.533533	0.392984
C381	C	0.032094	-0.245233	-0.404294
C382	C	0.282094	0.004767	-0.154294
C383	C	0.532094	0.254767	0.095706
C384	C	0.782094	0.504767	0.345706
C385	C	0.055554	-0.273996	-0.451565
C386	C	0.305554	-0.023996	-0.201565
C387	C	0.555554	0.226004	0.048435
C388	C	0.805554	0.476004	0.298435
C389	C	0.102470	-0.273994	-0.451554
C390	C	0.352470	-0.023994	-0.201554
C391	C	0.602470	0.226006	0.048446
C392	C	0.852470	0.476006	0.298446
C393	C	0.102465	-0.158934	-0.262460
C394	C	0.352465	0.091066	-0.012460
C395	C	0.602465	0.341066	0.237540
C396	C	0.852465	0.591066	0.487540
C397	C	0.055549	-0.158939	-0.262475
C398	C	0.305549	0.091061	-0.012475
C399	C	0.555549	0.341061	0.237525
C400	C	0.805549	0.591061	0.487525
C401	C	0.032092	-0.187705	-0.309753
C402	C	0.282092	0.062295	-0.059753
C403	C	0.532092	0.312295	0.190247
C404	C	0.782092	0.562295	0.440247
C405	C	0.766329	-0.216479	-0.357024
C406	C	1.016329	0.033521	-0.107024
C407	C	1.266329	0.283521	0.142976
C408	C	1.516329	0.533521	0.392976
C409	C	0.816263	-0.216487	-0.357047
C410	C	1.066263	0.033513	-0.107047
C411	C	1.316263	0.283513	0.142953
C412	C	1.566263	0.533513	0.392953
C413	C	0.649173	-0.216419	-0.550132
C414	C	0.899173	0.033581	-0.300132
C415	C	1.149173	0.283581	-0.050132
C416	C	1.399173	0.533581	0.199868
C417	C	0.649183	-0.216401	-0.632446
C418	C	0.899183	0.033599	-0.382446
C419	C	1.149183	0.283599	-0.132446
C420	C	1.399183	0.533599	0.117554
C421	C	0.649244	-0.099281	-0.357023
C422	C	0.899244	0.150719	-0.107023
C423	C	1.149244	0.400719	0.142977
C424	C	1.399244	0.650719	0.392977
C425	C	0.649284	-0.049347	-0.357045
C426	C	0.899284	0.200653	-0.107045
C427	C	1.149284	0.450653	0.142955
C428	C	1.399284	0.700653	0.392955
C429	C	0.649199	-0.216387	-0.783154
C430	C	0.899199	0.033613	-0.533154
C431	C	1.149199	0.283613	-0.283154
C432	C	1.399199	0.533613	-0.033154
C433	C	0.683948	-0.181671	-0.814540
C434	C	0.933948	0.068329	-0.564540
C435	C	1.183948	0.318329	-0.314540
C436	C	1.433948	0.568329	-0.064540
C437	C	0.684093	-0.181765	-0.900158
C438	C	0.934093	0.068235	-0.650158
C439	C	1.184093	0.318235	-0.400158
C440	C	1.434093	0.568235	-0.150158
C441	C	0.649215	-0.216373	-0.931537
C442	C	0.899215	0.033627	-0.681537
C443	C	1.149215	0.283627	-0.431537
C444	C	1.399215	0.533627	-0.181537
C445	C	0.661870	-0.263759	-0.900426
C446	C	0.911870	-0.013759	-0.650426
C447	C	1.161870	0.236241	-0.400426
C448	C	1.411870	0.486241	-0.150426
C449	C	0.662113	-0.263566	-0.814781
C450	C	0.912113	-0.013566	-0.564781
C451	C	1.162113	0.236434	-0.314781
C452	C	1.412113	0.486434	-0.064781
C453	C	0.601711	-0.204129	-0.814699
C454	C	0.851711	0.045871	-0.564699
C455	C	1.101711	0.295871	-0.314699
C456	C	1.351711	0.545871	-0.064699
C457	C	0.601975	-0.203076	-0.900351
C458	C	0.851975	0.046924	-0.650351
C459	C	1.101975	0.296924	-0.400351
C460	C	1.351975	0.546924	-0.150351
C461	C	0.649223	-0.216367	-1.015397
C462	C	0.899223	0.033633	-0.765397
C463	C	1.149223	0.283633	-0.515397
C464	C	1.399223	0.533633	-0.265397
C465	C	0.649192	-0.216396	-0.699295
C466	C	0.899192	0.033604	-0.449295
C467	C	1.149192	0.283604	-0.199295
C468	C	1.399192	0.533604	0.050705
C469	C	0.649154	-0.216468	-0.164559
C470	C	0.899154	0.033532	0.085441
C471	C	1.149154	0.283532	0.335441
C472	C	1.399154	0.533532	0.585441
C473	C	0.649231	-0.216359	-0.082246
C474	C	0.899231	0.033641	0.167754
C475	C	1.149231	0.283641	0.417754
C476	C	1.399231	0.533641	0.667754
H477	H	0.701235	-0.387465	-0.271102
H478	H	0.951235	-0.137465	-0.021102
H479	H	1.201235	0.112535	0.228898
H480	H	1.451235	0.362535	0.478898
H481	H	0.676137	-0.146432	-0.793968
H482	H	0.926137	0.103568	-0.543968
H483	H	1.176137	0.353568	-0.293968
H484	H	1.426137	0.603568	-0.043968
H485	H	0.574720	-0.226502	-0.921707
H486	H	0.824720	0.023498	-0.671707
H487	H	1.074720	0.273498	-0.421707
H488	H	1.324720	0.523498	-0.171707
H489	H	0.121565	-0.297419	-0.490046
H490	H	0.371565	-0.047419	-0.240046
H491	H	0.621565	0.202581	0.009954
H492	H	0.871565	0.452581	0.259954
H493	H	0.177207	-0.297416	-0.490034
H494	H	0.427207	-0.047416	-0.240034
H495	H	0.677207	0.202584	0.009966
H496	H	0.927207	0.452584	0.259966
C497	C	0.628733	-0.299655	-0.927880
C498	C	0.878733	-0.049655	-0.677880
C499	C	1.128733	0.200345	-0.427880
C500	C	1.378733	0.450345	-0.177880
N501	N	0.603774	-0.326691	-0.948560
N502	N	0.853774	-0.076691	-0.698560
N503	N	1.103774	0.173309	-0.448560
N504	N	1.353774	0.423309	-0.198560
C505	C	-0.087566	-0.156067	-0.257746
C506	C	0.162434	0.093933	-0.007746
C507	C	0.412434	0.343933	0.242254
C508	C	0.662434	0.593933	0.492254
N509	N	-0.068138	-0.132230	-0.218564
N510	N	0.181862	0.117770	0.031436
N511	N	0.431862	0.367770	0.281436
N512	N	0.681862	0.617770	0.531436
H513	H	0.696821	-0.273935	-0.794820
H514	H	0.946821	-0.023935	-0.544820
H515	H	1.196821	0.226065	-0.294820
H516	H	1.446821	0.476065	-0.044820
C517	C	-0.087558	-0.276894	-0.456315
C518	C	0.162442	-0.026894	-0.206315
C519	C	0.412442	0.223106	0.043685
C520	C	0.662442	0.473106	0.293685
N521	N	-0.068127	-0.300728	-0.495489
N522	N	0.181873	-0.050728	-0.245489
N523	N	0.431873	0.199272	0.004511
N524	N	0.681873	0.449272	0.254511
H525	H	0.590148	-0.170169	-0.793106
H526	H	0.840148	0.079831	-0.543106
H527	H	1.090148	0.329831	-0.293106
H528	H	1.340148	0.579831	-0.043106
H529	H	0.718936	-0.189699	-0.793035
H530	H	0.968936	0.060301	-0.543035
H531	H	1.218936	0.310301	-0.293035
H532	H	1.468936	0.560301	-0.043035
H533	H	0.262312	-0.297413	-0.490012
H534	H	0.512312	-0.047413	-0.240012
H535	H	0.762312	0.202587	0.009988
H536	H	1.012312	0.452587	0.259988
H537	H	0.568319	-0.829173	-0.490162
H538	H	0.818319	-0.579173	-0.240162
H539	H	1.068319	-0.329173	0.009838
H540	H	1.318319	-0.079173	0.259838
H541	H	0.696195	-0.274309	-0.921908
H542	H	0.946195	-0.024309	-0.671908
H543	H	1.196195	0.225691	-0.421908
H544	H	1.446195	0.475691	-0.171908
H545	H	0.730088	-0.688387	-0.223851
H546	H	0.980088	-0.438387	0.026149
H547	H	1.230088	-0.188387	0.276149
H548	H	1.480088	0.061613	0.526149
C549	C	0.738268	-0.596578	-0.210302
C550	C	0.988268	-0.346578	0.039698
C551	C	1.238268	-0.096578	0.289698
C552	C	1.488268	0.153422	0.539698
N553	N	0.762081	-0.577145	-0.171085
N554	N	1.012081	-0.327145	0.078915
N555	N	1.262081	-0.077145	0.328915
N556	N	1.512081	0.172855	0.578915
H557	H	-0.179383	-0.268675	-0.442817
H558	H	0.070617	-0.018675	-0.192817
H559	H	0.320617	0.231325	0.057183
H560	H	0.570617	0.481325	0.307183
C561	C	0.588894	-0.953188	-0.456415
C562	C	0.838894	-0.703188	-0.206415
C563	C	1.088894	-0.453188	0.043585
C564	C	1.338894	-0.203188	0.293585
N565	N	0.565079	-0.933765	-0.495641
N566	N	0.815079	-0.683765	-0.245641
N567	N	1.065079	-0.433765	0.004359
N568	N	1.315079	-0.183765	0.254359
C569	C	0.560064	-0.695121	-0.503681
C570	C	0.810064	-0.445121	-0.253681
C571	C	1.060064	-0.195121	-0.003681
C572	C	1.310064	0.054879	0.246319
N573	N	0.536249	-0.714553	-0.542895
N574	N	0.786249	-0.464553	-0.292895
N575	N	1.036249	-0.214553	-0.042895
N576	N	1.286249	0.035447	0.207105
H577	H	0.262317	-0.135487	-0.223945
H578	H	0.512317	0.114513	0.026055
H579	H	0.762317	0.364513	0.276055
H580	H	1.012317	0.614513	0.526055
H581	H	-0.179375	-0.164300	-0.271270
H582	H	0.070625	0.085700	-0.021270
H583	H	0.320625	0.335700	0.228730
H584	H	0.570625	0.585700	0.478730
C585	C	0.589074	-0.155967	-0.927831
C586	C	0.839074	0.094033	-0.677831
C587	C	1.089074	0.344033	-0.427831
C588	C	1.339074	0.594033	-0.177831
N589	N	0.579358	-0.120484	-0.948535
N590	N	0.829358	0.129516	-0.698535
N591	N	1.079358	0.379516	-0.448535
N592	N	1.329358	0.629516	-0.198535
C593	C	0.386309	-0.156039	-0.257650
C594	C	0.636309	0.093961	-0.007650
C595	C	0.886309	0.343961	0.242350
C596	C	1.136309	0.593961	0.492350
N597	N	0.366875	-0.132203	-0.218484
N598	N	0.616875	0.117797	0.031516
N599	N	0.866875	0.367797	0.281516
N600	N	1.116875	0.617797	0.531516
H601	H	0.701442	-1.044982	-0.271213
H602	H	0.951442	-0.794982	-0.021213
H603	H	1.201442	-0.544982	0.228787
H604	H	1.451442	-0.294982	0.478787
H605	H	0.597121	-1.044996	-0.442875
H606	H	0.847121	-0.794996	-0.192875
H607	H	1.097121	-0.544996	0.057125
H608	H	1.347121	-0.294996	0.307125
C609	C	0.731636	-0.192741	-0.927863
C610	C	0.981636	0.057259	-0.677863
C611	C	1.231636	0.307259	-0.427863
C612	C	1.481636	0.557259	-0.177863
N613	N	0.767448	-0.201011	-0.948730
N614	N	1.017448	0.048989	-0.698730
N615	N	1.267448	0.298989	-0.448730
N616	N	1.517448	0.548989	-0.198730
C617	C	0.484838	-0.276857	-0.456192
C618	C	0.734838	-0.026857	-0.206192
C619	C	0.984838	0.223143	0.043808
C620	C	1.234838	0.473143	0.293808
N621	N	0.504270	-0.300692	-0.495361
N622	N	0.754270	-0.050692	-0.245361
N623	N	1.004270	0.199308	0.004639
N624	N	1.254270	0.449308	0.254639
H625	H	0.575824	-0.229413	-0.794398
H626	H	0.825824	0.020587	-0.544398
H627	H	1.075824	0.270587	-0.294398
H628	H	1.325824	0.520587	-0.044398
C629	C	0.029742	-0.305638	-0.503572
C630	C	0.279742	-0.055638	-0.253572
C631	C	0.529742	0.194362	-0.003572
C632	C	0.779742	0.444362	0.246428
N633	N	0.010299	-0.329467	-0.542745
N634	N	0.260299	-0.079467	-0.292745
N635	N	0.510299	0.170533	-0.042745
N636	N	0.760299	0.420533	0.207255
C637	C	0.709488	-0.479275	-0.257597
C638	C	0.959488	-0.229275	-0.007597
C639	C	1.209488	0.020725	0.242403
C640	C	1.459488	0.270725	0.492403
N641	N	0.733315	-0.498697	-0.218391
N642	N	0.983315	-0.248697	0.031609
N643	N	1.233315	0.001303	0.281609
N644	N	1.483315	0.251303	0.531609
C645	C	0.709632	-0.953156	-0.257671
C646	C	0.959632	-0.703156	-0.007671
C647	C	1.209632	-0.453156	0.242329
C648	C	1.459632	-0.203156	0.492329
N649	N	0.733449	-0.933721	-0.218464
N650	N	0.983449	-0.683721	0.031536
N651	N	1.233449	-0.433721	0.281536
N652	N	1.483449	-0.183721	0.531536
H653	H	0.568256	-0.603309	-0.490144
H654	H	0.818256	-0.353309	-0.240144
H655	H	1.068256	-0.103309	0.009856
H656	H	1.318256	0.146691	0.259856
H657	H	0.596949	-0.472608	-0.442797
H658	H	0.846949	-0.222608	-0.192797
H659	H	1.096949	0.027392	0.057203
H660	H	1.346949	0.277392	0.307203
C661	C	0.588706	-0.380782	-0.456295
C662	C	0.838706	-0.130782	-0.206295
C663	C	1.088706	0.119218	0.043705
C664	C	1.338706	0.369218	0.293705
N665	N	0.564887	-0.361344	-0.495493
N666	N	0.814887	-0.111344	-0.245493
N667	N	1.064887	0.138656	0.004507
N668	N	1.314887	0.388656	0.254507
C669	C	0.484841	-0.156030	-0.257645
C670	C	0.734841	0.093970	-0.007645
C671	C	0.984841	0.343970	0.242355
C672	C	1.234841	0.593970	0.492355
N673	N	0.504284	-0.132190	-0.218489
N674	N	0.754284	0.117810	0.031511
N675	N	1.004284	0.367810	0.281511
N676	N	1.254284	0.617810	0.531511
C677	C	0.170507	-0.127269	-0.210448
C678	C	0.420507	0.122731	0.039552
C679	C	0.670507	0.372731	0.289552
C680	C	0.920507	0.622731	0.539552
N681	N	0.151080	-0.103424	-0.171287
N682	N	0.401080	0.146576	0.078713
N683	N	0.651080	0.396576	0.328713
N684	N	0.901080	0.646576	0.578713
C685	C	0.629402	-0.299718	-0.786725
C686	C	0.879402	-0.049718	-0.536725
C687	C	1.129402	0.200282	-0.286725
C688	C	1.379402	0.450282	-0.036725
N689	N	0.604768	-0.326951	-0.765597
N690	N	0.854768	-0.076951	-0.515597
N691	N	1.104768	0.173049	-0.265597
N692	N	1.354768	0.423049	-0.015597
H693	H	0.676187	-0.146634	-0.921196
H694	H	0.926187	0.103366	-0.671196
H695	H	1.176187	0.353366	-0.421196
H696	H	1.426187	0.603366	-0.171196
H697	H	0.730106	-0.744028	-0.223860
H698	H	0.980106	-0.494028	0.026140
H699	H	1.230106	-0.244028	0.276140
H700	H	1.480106	0.005972	0.526140
C701	C	0.738348	-0.835850	-0.210365
C702	C	0.988348	-0.585850	0.039635
C703	C	1.238348	-0.335850	0.289635
C704	C	1.488348	-0.085850	0.539635
N705	N	0.762172	-0.855289	-0.171176
N706	N	1.012172	-0.605289	0.078824
N707	N	1.262172	-0.355289	0.328824
N708	N	1.512172	-0.105289	0.578824
H709	H	0.393026	-0.268638	-0.442716
H710	H	0.643026	-0.018638	-0.192716
H711	H	0.893026	0.231362	0.057284
H712	H	1.143026	0.481362	0.307284
C713	C	0.029751	-0.127289	-0.210473
C714	C	0.279751	0.122711	0.039527
C715	C	0.529751	0.372711	0.289527
C716	C	0.779751	0.622711	0.539527
N717	N	0.010321	-0.103447	-0.171311
N718	N	0.260321	0.146553	0.078689
N719	N	0.510321	0.396553	0.328689
N720	N	0.760321	0.646553	0.578689
H721	H	0.568295	-0.744066	-0.490148
H722	H	0.818295	-0.494066	-0.240148
H723	H	1.068295	-0.244066	0.009852
H724	H	1.318295	0.005934	0.259852
H725	H	0.121559	-0.135509	-0.223960
H726	H	0.371559	0.114491	0.026040
H727	H	0.621559	0.364491	0.276040
H728	H	0.871559	0.614491	0.526040
