data_functionalizedCrystal
_audit_creation_method	'MofGen! by Chris Wilmer'
_symmetry_space_group_name_H-M	'P1'
_symmetry_Int_Tables_number	1
_symmetry_cell_setting	triclinic
loop_
_symmetry_equiv_pos_as_xyz
  x,y,z
_cell_length_a	17.077404
_cell_length_b	16.120444
_cell_length_c	17.077396
_cell_angle_alpha	87.130511
_cell_angle_beta	90.019501
_cell_angle_gamma	92.926816
loop_
_atom_site_label
_atom_site_type_symbol
_atom_site_fract_x
_atom_site_fract_y
_atom_site_fract_z
Zn1	Zn	1.184189	-0.331904	0.459677
Zn2	Zn	1.177431	-0.471328	0.335063
Zn3	Zn	1.052919	-0.331933	0.328426
Zn4	Zn	1.046226	-0.471279	0.466284
O5	O	1.115191	-0.401611	0.397363
O6	O	1.293139	-0.350407	0.443159
O7	O	1.160887	-0.452870	0.224337
O8	O	1.075961	-0.215263	0.340295
O9	O	1.288174	-0.452842	0.351605
O10	O	1.172405	-0.215241	0.436724
O11	O	1.069409	-0.350457	0.219461
O12	O	0.942185	-0.350409	0.346701
O13	O	1.064554	-0.452758	0.575253
O14	O	0.937267	-0.452786	0.447984
O15	O	1.165915	-0.350359	0.570399
O16	O	1.154397	-0.587988	0.358012
O17	O	1.058001	-0.587952	0.454419
C18	C	0.911244	-0.401596	0.397340
C19	C	0.823993	-0.401610	0.397350
C20	C	0.780459	-0.454998	0.450012
C21	C	0.698479	-0.454999	0.450024
C22	C	0.660034	-0.401617	0.397371
C23	C	0.703574	-0.348223	0.344707
C24	C	0.785553	-0.348217	0.344699
C25	C	0.532703	-0.348239	0.344727
C26	C	0.450718	-0.348246	0.344734
C27	C	0.445629	-0.455021	0.450052
C28	C	0.527608	-0.455016	0.450044
C29	C	0.571142	-0.401623	0.397379
C30	C	1.104761	-0.618220	0.407670
C31	C	1.100370	-0.710886	0.412105
C32	C	1.138158	-0.921827	0.374521
C33	C	1.092369	-0.880544	0.420212
C34	C	1.096822	-0.786138	0.415700
C35	C	1.133706	-1.016242	0.379032
C36	C	1.319935	-0.401627	0.397385
C37	C	1.407184	-0.401634	0.397395
C38	C	1.115241	-0.401550	0.602104
C39	C	1.115263	-0.401523	0.689353
C40	C	1.125684	-0.184156	0.387032
C41	C	1.130155	-0.091490	0.382630
C42	C	1.115189	-0.401612	0.193415
C43	C	1.115331	-0.401403	0.106155
C44	C	1.168043	-0.348200	0.727816
C45	C	1.168054	-0.348173	0.809795
C46	C	1.115288	-0.401473	0.853310
C47	C	1.062501	-0.454798	0.814840
C48	C	1.062488	-0.454821	0.732862
C49	C	1.062535	-0.454748	0.985708
C50	C	1.062550	-0.454727	1.067692
C51	C	1.168102	-0.348099	1.062641
C52	C	1.168088	-0.348122	0.980663
C53	C	1.115303	-0.401449	0.942200
H54	H	0.672265	-0.304754	0.301839
Cl55	Cl	1.203840	-0.866933	0.308896
Cl56	Cl	0.587431	-0.281115	0.278518
H57	H	0.811755	-0.498471	0.492886
Cl58	Cl	1.234429	-0.281120	0.925961
H59	H	1.019540	-0.498160	0.954393
Cl60	Cl	0.575938	-0.522132	0.516233
Cl61	Cl	0.840282	-0.281096	0.278495
Cl62	Cl	1.234386	-0.281194	0.673121
Cl63	Cl	1.234443	-0.281171	0.858148
Cl64	Cl	1.234462	-0.281061	1.110995
Cl65	Cl	0.643754	-0.522119	0.516231
H66	H	0.410179	-0.498493	0.492936
H67	H	1.019581	-0.498127	1.103119
H68	H	1.049823	-0.916100	0.462718
Cl69	Cl	0.996163	-0.521802	0.869544
H70	H	0.419419	-0.304767	0.301868
H71	H	1.019501	-0.498234	0.701546
