data_functionalizedCrystal
_audit_creation_method	'MofGen! by Chris Wilmer'
_symmetry_space_group_name_H-M	'P1'
_symmetry_Int_Tables_number	1
_symmetry_cell_setting	triclinic
loop_
_symmetry_equiv_pos_as_xyz
  x,y,z
_cell_length_a	6.817900
_cell_length_b	16.418049
_cell_length_c	9.170709
_cell_angle_alpha	85.761354
_cell_angle_beta	112.460645
_cell_angle_gamma	103.389670
loop_
_atom_site_label
_atom_site_type_symbol
_atom_site_fract_x
_atom_site_fract_y
_atom_site_fract_z
V1	V	-4.108991	-0.079914	-0.486737
O2	O	-4.095314	0.040814	-0.476906
O3	O	-4.059585	-0.194017	-0.483951
O4	O	-4.096618	-0.062462	-0.698772
O5	O	-4.058025	-0.091652	-0.260599
V6	V	-4.588081	-0.067391	-0.459623
O7	O	-4.379974	-0.107386	-0.546214
O8	O	-4.767296	-0.039919	-0.400146
O9	O	-4.414281	0.046712	-0.462408
O10	O	-4.719155	-0.188119	-0.469453
O11	O	-4.756445	-0.055653	-0.685761
O12	O	-4.377248	-0.084843	-0.247588
C13	C	-3.903175	-0.222339	-0.476413
C14	C	-3.944307	-0.315515	-0.475549
C15	C	-4.222332	-0.533573	-0.481390
C16	C	-4.260970	-0.621121	-0.480592
C17	C	-3.894100	-0.613731	-0.464980
C18	C	-3.855470	-0.526184	-0.465789
C19	C	-4.019589	-0.486108	-0.473987
C20	C	-4.096858	-0.661202	-0.472379
C21	C	-4.138750	-0.756126	-0.471513
C22	C	-3.977697	-0.391178	-0.474855
C23	C	-3.950414	-0.054527	-0.750436
C24	C	-4.021574	-0.041012	-0.923779
C25	C	-4.234032	0.075030	-0.469943
C26	C	-4.172140	0.168205	-0.470817
C27	C	-4.186793	-0.092782	-0.195916
C28	C	-4.094871	-0.106292	-0.022571
H29	H	-4.355970	-0.500945	-0.488063
O30	O	-4.457824	-0.667186	-0.487497
C31	C	-4.498732	-0.646691	-0.356728
H32	H	-4.337968	-0.619537	-0.257518
H33	H	-4.604515	-0.598473	-0.392743
C34	C	-4.815143	-0.759468	-0.421096
C35	C	-4.617688	-0.726124	-0.299240
H36	H	-4.888529	-0.808465	-0.385638
H37	H	-4.787589	-0.773275	-0.509202
H38	H	-4.903269	-0.719279	-0.451098
H39	H	-4.529555	-0.766309	-0.269255
H40	H	-4.645231	-0.712326	-0.211128
O41	O	-3.734731	-0.652626	-0.457274
C42	C	-3.674895	-0.630303	-0.588428
H43	H	-3.814410	-0.609334	-0.688095
H44	H	-3.524255	-0.576878	-0.553343
C45	C	-3.453209	-0.732168	-0.522042
C46	C	-3.624571	-0.706419	-0.644459
H47	H	-3.422156	-0.779118	-0.556602
H48	H	-3.493514	-0.747205	-0.433677
H49	H	-3.327696	-0.687640	-0.492816
H50	H	-3.750087	-0.750943	-0.673670
H51	H	-3.584286	-0.691391	-0.732830
H52	H	-4.013271	0.025222	-0.971818
O53	O	-3.658347	-0.480105	-0.458311
C54	C	-3.494939	-0.497931	-0.317652
H55	H	-3.570077	-0.523230	-0.227128
H56	H	-3.416829	-0.546744	-0.343000
C57	C	-3.228173	-0.386219	-0.363229
C58	C	-3.320456	-0.417285	-0.252041
H59	H	-3.120536	-0.336474	-0.322759
H60	H	-3.338260	-0.374211	-0.457997
H61	H	-3.163097	-0.426904	-0.384342
H62	H	-3.385552	-0.376604	-0.230945
H63	H	-3.210374	-0.429284	-0.157268
O64	O	-4.104568	-0.185250	-0.965016
C65	C	-4.029018	-0.181625	-0.798954
H66	H	-3.918630	-0.117601	-0.754634
H67	H	-4.173556	-0.191916	-0.760800
C68	C	-4.035939	-0.328883	-0.783400
C69	C	-3.900343	-0.250250	-0.728964
H70	H	-3.956574	-0.371217	-0.740225
H71	H	-4.086846	-0.331327	-0.895279
H72	H	-4.156379	-0.337448	-0.751601
H73	H	-3.779921	-0.241682	-0.760780
H74	H	-3.849412	-0.247806	-0.617088
