data_functionalizedCrystal
_audit_creation_method	'MofGen! by Chris Wilmer'
_symmetry_space_group_name_H-M	'P1'
_symmetry_Int_Tables_number	1
_symmetry_cell_setting	triclinic
loop_
_symmetry_equiv_pos_as_xyz
  x,y,z
_cell_length_a	19.077105
_cell_length_b	16.120484
_cell_length_c	19.076919
_cell_angle_alpha	95.046610
_cell_angle_beta	90.076224
_cell_angle_gamma	90.738523
loop_
_atom_site_label
_atom_site_type_symbol
_atom_site_fract_x
_atom_site_fract_y
_atom_site_fract_z
Zn1	Zn	1.040337	-0.403262	-0.456942
Zn2	Zn	1.373670	-0.069928	-0.123609
Zn3	Zn	1.707004	0.263405	0.209725
Zn4	Zn	1.039017	-0.537287	-0.344927
Zn5	Zn	1.372350	-0.203953	-0.011594
Zn6	Zn	1.705683	0.129380	0.321740
Zn7	Zn	0.928051	-0.392095	-0.334278
Zn8	Zn	1.261385	-0.058762	-0.000944
Zn9	Zn	1.594718	0.274572	0.332389
Zn10	Zn	0.916861	-0.536784	-0.457659
Zn11	Zn	1.250194	-0.203451	-0.124326
Zn12	Zn	1.583527	0.129883	0.209008
O13	O	0.981066	-0.467357	-0.398451
O14	O	1.314400	-0.134024	-0.065118
O15	O	1.647733	0.199310	0.268215
O16	O	1.138276	-0.425924	-0.446240
O17	O	1.471610	-0.092591	-0.112906
O18	O	1.804943	0.240743	0.220427
O19	O	1.028428	-0.513564	-0.245000
O20	O	1.361761	-0.180231	0.088333
O21	O	1.695094	0.153103	0.421666
O22	O	0.948182	-0.276934	-0.345793
O23	O	1.281515	0.056400	-0.012459
O24	O	1.614849	0.389733	0.320874
O25	O	1.137306	-0.524392	-0.363943
O26	O	1.470640	-0.191058	-0.030609
O27	O	1.803973	0.142275	0.302724
O28	O	1.030678	-0.285138	-0.435913
O29	O	1.364011	0.048196	-0.102580
O30	O	1.697344	0.381529	0.230753
O31	O	0.946902	-0.406892	-0.237176
O32	O	1.280235	-0.073559	0.096157
O33	O	1.613568	0.259774	0.429490
O34	O	0.828452	-0.406405	-0.346488
O35	O	1.161786	-0.073072	-0.013155
O36	O	1.495119	0.260262	0.320179
O37	O	0.929109	-0.523535	-0.556078
O38	O	1.262443	-0.190202	-0.222745
O39	O	1.595776	0.143132	0.110589
O40	O	0.820230	-0.512707	-0.437136
O41	O	1.153564	-0.179374	-0.103802
O42	O	1.486897	0.153959	0.229531
O43	O	1.019827	-0.425436	-0.555551
O44	O	1.353160	-0.092103	-0.222218
O45	O	1.686493	0.241230	0.111115
O46	O	1.017576	-0.653863	-0.364638
O47	O	1.350910	-0.320530	-0.031305
O48	O	1.684243	0.012804	0.302029
O49	O	0.927829	-0.653494	-0.447462
O50	O	1.261162	-0.320160	-0.114128
O51	O	1.594496	0.013173	0.219205
C52	C	0.798901	-0.458290	-0.390734
C53	C	1.132235	-0.124957	-0.057401
C54	C	1.465568	0.208376	0.275932
C55	C	0.720969	-0.454433	-0.387451
C56	C	1.054302	-0.121099	-0.054117
C57	C	1.387635	0.212234	0.279216
C58	C	0.971363	-0.683924	-0.407299
C59	C	1.304697	-0.350591	-0.073966
C60	C	1.638030	-0.017257	0.259367
C61	C	0.967276	-0.776577	-0.411111
C62	C	1.300609	-0.443243	-0.077778
C63	C	1.633942	-0.109910	0.255556
C64	C	0.680093	-0.508043	-0.433036
C65	C	1.013426	-0.174710	-0.099702
C66	C	1.346760	0.158623	0.233631
C67	C	0.606867	-0.504408	-0.429953
C68	C	0.940201	-0.171074	-0.096620
C69	C	1.273534	0.162259	0.236714
C70	C	0.574519	-0.447165	-0.381281
C71	C	0.907852	-0.113831	-0.047948
C72	C	1.241185	0.219502	0.285385
C73	C	0.615400	-0.393548	-0.335694
C74	C	0.948733	-0.060215	-0.002361
C75	C	1.282067	0.273118	0.330972
C76	C	0.688624	-0.397180	-0.338781
C77	C	1.021958	-0.063847	-0.005447
C78	C	1.355291	0.269486	0.327886
C79	C	0.355979	-0.430354	-0.367000
C80	C	0.689312	-0.097021	-0.033667
C81	C	1.022646	0.236312	0.299667
C82	C	0.282749	-0.426728	-0.363916
C83	C	0.616083	-0.093394	-0.030582
C84	C	0.949416	0.239939	0.302751
C85	C	0.274222	-0.537586	-0.458176
C86	C	0.607555	-0.204253	-0.124842
C87	C	0.940888	0.129080	0.208491
C88	C	0.347448	-0.541217	-0.461255
C89	C	0.680781	-0.207884	-0.127922
C90	C	1.014114	0.125450	0.205412
C91	C	0.388323	-0.487598	-0.415670
C92	C	0.721656	-0.154264	-0.082337
C93	C	1.054989	0.179069	0.250996
N94	N	0.499670	-0.443449	-0.378128
N95	N	0.833004	-0.110115	-0.044795
N96	N	1.166337	0.223218	0.288539
N97	N	0.463169	-0.491310	-0.418828
N98	N	0.796503	-0.157977	-0.085494
N99	N	1.129836	0.175357	0.247839
C100	C	0.959816	-0.946215	-0.418084
C101	C	1.293149	-0.612882	-0.084751
C102	C	1.626483	-0.279548	0.248582
C103	C	1.002442	-0.987665	-0.378836
C104	C	1.335775	-0.654332	-0.045502
C105	C	1.669109	-0.320998	0.287831
C106	C	0.998291	-1.082058	-0.382716
C107	C	1.331625	-0.748724	-0.049382
C108	C	1.664958	-0.415391	0.283951
C109	C	0.963966	-0.851814	-0.414205
C110	C	1.297299	-0.518481	-0.080872
C111	C	1.630632	-0.185147	0.252462
C112	C	1.163943	-0.476459	-0.406199
C113	C	1.497276	-0.143126	-0.072866
C114	C	1.830609	0.190207	0.260468
C115	C	1.241874	-0.480338	-0.409501
C116	C	1.575207	-0.147005	-0.076167
C117	C	1.908540	0.186328	0.257166
C118	C	0.973367	-0.475675	-0.582072
C119	C	1.306700	-0.142342	-0.248739
C120	C	1.640034	0.190991	0.084594
C121	C	0.970086	-0.479220	-0.660321
C122	C	1.303419	-0.145887	-0.326988
C123	C	1.636753	0.187447	0.006346
C124	C	0.990826	-0.249946	-0.389585
C125	C	1.324159	0.083388	-0.056252
C126	C	1.657492	0.416721	0.277082
C127	C	0.994984	-0.157298	-0.385807
C128	C	1.328318	0.176035	-0.052474
C129	C	1.661651	0.509369	0.280860
C130	C	1.015774	-0.429813	-0.696809
C131	C	1.349107	-0.096480	-0.363476
C132	C	1.682440	0.236854	-0.030142
C133	C	1.012683	-0.433140	-0.770331
C134	C	1.346016	-0.099807	-0.436998
C135	C	1.679349	0.233527	-0.103664
C136	C	0.963906	-0.485879	-0.807364
C137	C	1.297240	-0.152546	-0.474031
C138	C	1.630573	0.180788	-0.140697
C139	C	0.918214	-0.535288	-0.770871
C140	C	1.251547	-0.201955	-0.437537
C141	C	1.584880	0.131379	-0.104204
C142	C	0.921302	-0.531956	-0.697350
C143	C	1.254635	-0.198623	-0.364016
C144	C	1.587969	0.134711	-0.030683
C145	C	0.949602	-0.501317	-1.027278
C146	C	1.282935	-0.167984	-0.693944
C147	C	1.616268	0.165350	-0.360611
C148	C	0.946518	-0.504647	-1.100804
C149	C	1.279851	-0.171314	-0.767471
C150	C	1.613185	0.162020	-0.434137
C151	C	1.040987	-0.402498	-1.100259
C152	C	1.374320	-0.069164	-0.766926
C153	C	1.707653	0.264169	-0.433593
C154	C	1.044074	-0.399174	-1.026737
C155	C	1.377407	-0.065841	-0.693404
C156	C	1.710740	0.267493	-0.360070
C157	C	0.998378	-0.448580	-0.990250
C158	C	1.331712	-0.115246	-0.656917
C159	C	1.665045	0.218087	-0.323583
N160	N	0.960747	-0.489283	-0.882516
N161	N	1.294080	-0.155950	-0.549182
N162	N	1.627413	0.177384	-0.215849
N163	N	1.001535	-0.445171	-0.915099
N164	N	1.334868	-0.111837	-0.581766
N165	N	1.668202	0.221496	-0.248433
C166	C	0.988779	-0.459013	-0.215544
C167	C	1.322112	-0.125680	0.117789
C168	C	1.655445	0.207654	0.451123
C169	C	0.992206	-0.455240	-0.137292
C170	C	1.325539	-0.121907	0.196041
C171	C	1.658873	0.211427	0.529374
H172	H	0.706425	-0.554659	-0.472667
H173	H	1.039759	-0.221326	-0.139334
H174	H	1.373092	0.112007	0.193999
H175	H	0.573589	-0.548064	-0.467073
H176	H	0.906922	-0.214730	-0.133739
H177	H	1.240256	0.118603	0.199594
F178	F	0.908044	-0.992488	-0.465809
F179	F	1.241378	-0.659155	-0.132476
F180	F	1.574711	-0.325821	0.200858
F181	F	1.054214	-0.941391	-0.331104
F182	F	1.387548	-0.608058	0.002229
F183	F	1.720881	-0.274725	0.335562
F184	F	1.095988	-0.343042	-0.987329
F185	F	1.429322	-0.009709	-0.653996
F186	F	1.762655	0.323624	-0.320662
F187	F	1.067692	-0.373685	-0.657402
F188	F	1.401025	-0.040352	-0.324069
F189	F	1.734359	0.292982	0.009264
F190	F	0.580970	-0.332621	-0.283898
F191	F	0.914304	0.000713	0.049435
F192	F	1.247637	0.334046	0.382768
H193	H	0.256414	-0.380104	-0.324285
H194	H	0.589747	-0.046771	0.009048
H195	H	0.923081	0.286562	0.342382
H196	H	1.078188	-0.362273	-1.129975
H197	H	1.411522	-0.028940	-0.796642
H198	H	1.744855	0.304393	-0.463308
H199	H	0.912403	-0.541559	-0.997580
H200	H	1.245736	-0.208226	-0.664246
H201	H	1.579070	0.125108	-0.330913
F202	F	1.061333	-0.380584	-0.809163
F203	F	1.394666	-0.047251	-0.475830
F204	F	1.728000	0.286083	-0.142497
H205	H	0.906796	-0.547595	-1.130954
H206	H	1.240130	-0.214262	-0.797621
H207	H	1.573463	0.119071	-0.464288
F208	F	0.866299	-0.591413	-0.810286
F209	F	1.199632	-0.258080	-0.476952
F210	F	1.532966	0.075253	-0.143619
F211	F	0.381870	-0.602144	-0.513057
F212	F	0.715203	-0.268811	-0.179723
F213	F	1.048537	0.064522	0.153610
F214	F	0.872673	-0.584539	-0.658517
F215	F	1.206006	-0.251206	-0.325183
F216	F	1.539339	0.082127	0.008150
H217	H	0.389251	-0.386700	-0.329877
H218	H	0.722584	-0.053366	0.003457
H219	H	1.055917	0.279967	0.336790
F220	F	0.230715	-0.594649	-0.506685
F221	F	0.564048	-0.261316	-0.173352
F222	F	0.897382	0.072017	0.159981
F223	F	0.732127	-0.340119	-0.290264
F224	F	1.065460	-0.006786	0.043069
F225	F	1.398794	0.326548	0.376403
