data_functionalizedCrystal
_audit_creation_method	'MofGen! by Chris Wilmer'
_symmetry_space_group_name_H-M	'P1'
_symmetry_Int_Tables_number	1
_symmetry_cell_setting	triclinic
loop_
_symmetry_equiv_pos_as_xyz
  x,y,z
_cell_length_a	18.101398
_cell_length_b	21.295417
_cell_length_c	18.101390
_cell_angle_alpha	90.037061
_cell_angle_beta	90.014699
_cell_angle_gamma	90.028659
loop_
_atom_site_label
_atom_site_type_symbol
_atom_site_fract_x
_atom_site_fract_y
_atom_site_fract_z
Zn1	Zn	1.132127	-0.250616	0.418620
Zn2	Zn	1.132023	-0.355896	0.294770
Zn3	Zn	1.008285	-0.250642	0.294803
Zn4	Zn	1.008238	-0.355848	0.418580
O5	O	1.070168	-0.303251	0.356693
O6	O	1.235746	-0.264591	0.402194
O7	O	1.115585	-0.341965	0.191141
O8	O	1.024776	-0.162549	0.311258
O9	O	1.235670	-0.341940	0.311202
O10	O	1.115762	-0.162530	0.402226
O11	O	1.024675	-0.264635	0.191166
O12	O	0.904646	-0.264588	0.311219
O13	O	1.024695	-0.341858	0.522218
O14	O	0.904611	-0.341883	0.402158
O15	O	1.115716	-0.264545	0.522248
O16	O	1.115539	-0.443979	0.311163
O17	O	1.024595	-0.443944	0.402125
C18	C	0.877757	-0.303233	0.356688
C19	C	0.795443	-0.303241	0.356703
C20	C	0.644735	-0.303253	0.356702
C21	C	0.613384	-0.351959	0.413830
C22	C	0.527766	-0.352157	0.413660
C23	C	0.496352	-0.303264	0.356702
C24	C	0.527405	-0.320973	0.278559
C25	C	0.613050	-0.321319	0.278889
C26	C	0.613213	-0.236717	0.377036
C27	C	0.527563	-0.237082	0.378757
C28	C	0.412493	-0.303270	0.356698
C29	C	0.728594	-0.303249	0.356702
C30	C	1.070071	-0.466802	0.356652
C31	C	1.070097	-0.536770	0.356659
C32	C	1.117494	-0.569635	0.309344
C33	C	1.117529	-0.635377	0.309360
C34	C	1.070153	-0.668253	0.356685
C35	C	1.022753	-0.635381	0.404010
C36	C	1.022725	-0.569639	0.403997
N37	N	1.005369	-0.771516	0.362329
N38	N	1.005398	-0.833968	0.362337
C39	C	1.070236	-0.866328	0.356727
N40	N	1.135046	-0.833877	0.351095
N41	N	1.135017	-0.771419	0.351084
C42	C	1.070179	-0.739538	0.356704
C43	C	1.117675	-0.970477	0.309427
C44	C	1.117711	-1.036221	0.309449
C45	C	1.022929	-1.036223	0.404095
C46	C	1.022899	-0.970481	0.404077
C47	C	1.070271	-0.937612	0.356739
C48	C	1.263330	-0.303268	0.356699
C49	C	1.345644	-0.303276	0.356701
C50	C	1.070212	-0.303193	0.549855
C51	C	1.070231	-0.303169	0.632169
C52	C	1.070286	-0.139060	0.356751
C53	C	1.070336	-0.069092	0.356775
C54	C	1.070167	-0.303262	0.164283
C55	C	1.070292	-0.303110	0.081969
C56	C	1.070271	-0.303129	0.931260
C57	C	1.127727	-0.254657	0.899954
C58	C	1.127548	-0.254477	0.814336
C59	C	1.070252	-0.303149	0.782878
C60	C	0.992235	-0.285124	0.813959
C61	C	0.992579	-0.284760	0.899605
C62	C	1.090144	-0.369752	0.899665
C63	C	1.091856	-0.369412	0.814015
C64	C	1.070236	-0.303161	0.699018
C65	C	1.070281	-0.303116	1.015120
H66	H	0.506771	-0.341109	0.471593
F67	F	1.203166	-0.269224	0.786867
F68	F	0.501041	-0.219619	0.453926
F69	F	1.110353	-0.189967	0.787580
F70	F	0.639712	-0.189289	0.322655
F71	F	1.168165	-1.071197	0.259091
F72	F	0.972512	-1.071208	0.454466
H73	H	1.156069	-0.542874	0.270800
F74	F	1.041132	-0.419155	0.786028
H75	H	1.048300	-0.405869	0.919916
H76	H	0.975731	-0.236060	0.919601
F77	F	0.934714	-0.328891	0.926675
H78	H	0.948263	-0.319341	0.793581
F79	F	0.972449	-0.935503	0.454435
F80	F	0.640354	-0.337701	0.489786
F81	F	1.168091	-0.935493	0.259047
H82	H	1.156128	-0.662140	0.270830
H83	H	0.975080	-0.236964	0.792527
H84	H	0.634873	-0.400982	0.400502
H85	H	0.507058	-0.286585	0.234825
H86	H	1.146037	-0.386164	0.921303
H87	H	1.149270	-0.383004	0.793699
H88	H	0.507244	-0.401463	0.400169
H89	H	0.634839	-0.220539	0.433058
H90	H	0.984181	-0.662152	0.442543
H91	H	1.185768	-0.265806	0.920550
H92	H	1.114739	-0.205577	0.921497
H93	H	0.984128	-0.542881	0.442528
H94	H	0.633789	-0.287360	0.234864
H95	H	0.632993	-0.369948	0.261704
H96	H	0.506181	-0.198876	0.340215
F97	F	0.499327	-0.383838	0.255710
