data_functionalizedCrystal
_audit_creation_method	'MofGen! by Chris Wilmer'
_symmetry_space_group_name_H-M	'P1'
_symmetry_Int_Tables_number	1
_symmetry_cell_setting	triclinic
loop_
_symmetry_equiv_pos_as_xyz
  x,y,z
_cell_length_a	14.044220
_cell_length_b	16.992695
_cell_length_c	16.053802
_cell_angle_alpha	92.747646
_cell_angle_beta	87.189254
_cell_angle_gamma	91.928550
loop_
_atom_site_label
_atom_site_type_symbol
_atom_site_fract_x
_atom_site_fract_y
_atom_site_fract_z
O1	O	1.275865	0.187010	-0.069318
O2	O	0.999378	0.180152	-0.069340
O3	O	1.136514	0.069361	-0.069337
O4	O	1.138730	0.297802	-0.069322
O5	O	1.128963	0.075431	0.069522
O6	O	0.991827	0.186222	0.069518
O7	O	1.268315	0.193081	0.069540
Zn8	Zn	1.128872	0.190616	0.091576
Zn9	Zn	1.138820	0.182617	-0.091376
O10	O	1.131179	0.303872	0.069537
C11	C	0.960061	0.180185	0.000086
C12	C	0.854157	0.171231	0.000077
N13	N	1.122090	0.196075	0.216436
C14	C	1.129887	0.042984	0.000089
C15	C	1.121379	-0.044656	0.000077
C16	C	0.660255	0.154861	0.000093
C17	C	0.607432	0.218368	0.000100
C18	C	0.499538	0.209260	0.000109
C19	C	0.768159	0.163968	0.000084
C20	C	1.307632	0.193048	0.000112
C21	C	1.413536	0.202002	0.000116
C22	C	1.137806	0.330249	0.000109
C23	C	1.146314	0.417889	0.000116
C24	C	1.064218	0.462387	0.000109
C25	C	1.072219	0.544732	0.000099
C26	C	1.162317	0.582579	0.000102
C27	C	1.244419	0.538075	0.000106
C28	C	1.236418	0.455730	0.000110
C29	C	1.195480	0.828495	0.000085
C30	C	1.203475	0.910846	0.000084
C31	C	1.031274	0.917498	0.000075
C32	C	1.023280	0.835152	0.000084
C33	C	1.105383	0.790655	0.000084
N34	N	1.170497	0.666749	0.000094
N35	N	1.097202	0.706485	0.000085
N36	N	1.145610	0.177153	-0.216236
C37	C	1.180466	0.148953	0.260132
C38	C	1.175731	0.152779	0.347538
C39	C	1.112624	0.203732	0.391248
C40	C	1.054242	0.250856	0.347546
C41	C	1.058973	0.247025	0.260141
C42	C	1.091958	0.220445	0.652657
C43	C	1.087234	0.224275	0.740068
C44	C	1.208722	0.126196	0.740054
C45	C	1.213451	0.122373	0.652648
C46	C	1.155065	0.169494	0.608954
N47	N	1.107785	0.207647	0.480592
N48	N	1.159900	0.165575	0.519612
H49	H	0.624449	0.093656	0.000093
H50	H	1.011436	0.285395	0.224565
C51	C	0.981912	0.593677	0.000101
H52	H	0.927107	0.559344	0.000112
H53	H	0.984076	0.623818	-0.048323
H54	H	0.978829	0.628059	0.048529
C55	C	1.249882	0.092902	0.212059
H56	H	1.283962	0.065381	0.250604
H57	H	1.293542	0.122555	0.177954
H58	H	1.214957	0.056177	0.177971
H59	H	1.256255	0.087832	0.775638
C60	C	1.239954	0.100953	0.395600
H61	H	1.278225	0.070068	0.357050
H62	H	1.201356	0.067215	0.429705
H63	H	1.279921	0.133609	0.429687
C64	C	0.924172	0.793526	0.000080
H65	H	0.876423	0.831822	0.000069
H66	H	0.914843	0.763665	0.048505
H67	H	0.920104	0.759420	-0.048347
C68	C	0.655794	0.301059	0.000094
H69	H	0.608461	0.339707	0.000104
H70	H	0.696998	0.305122	-0.048332
H71	H	0.691752	0.309365	0.048520
C72	C	1.343525	0.579704	0.000111
H73	H	1.336533	0.635119	0.000117
H74	H	1.380225	0.562721	-0.048308
H75	H	1.374953	0.566961	0.048544
C76	C	1.302585	0.952479	0.000082
H77	H	1.295587	1.007894	0.000089
H78	H	1.339281	0.935499	-0.048341
H79	H	1.334022	0.939739	0.048512
C80	C	0.984829	0.306905	0.395625
H81	H	0.990378	0.302445	0.453938
H82	H	0.921358	0.293240	0.381311
H83	H	0.999943	0.359618	0.381293
C84	C	0.940967	0.966442	0.000066
H85	H	0.886163	0.932108	0.000069
H86	H	0.943141	0.996581	-0.048359
H87	H	0.937873	1.000824	0.048493
H88	H	0.990850	0.431579	0.000116
H89	H	1.262334	0.792276	0.000091
H90	H	1.303270	0.419500	0.000112
C91	C	1.282862	0.066320	0.604573
H92	H	1.316945	0.038797	0.643116
H93	H	1.326520	0.095973	0.570468
H94	H	1.247935	0.029595	0.570485
H95	H	1.035843	0.265770	0.775653
H96	H	1.044420	0.258814	0.617088
