data_functionalizedCrystal
_audit_creation_method	'MofGen! by Chris Wilmer'
_symmetry_space_group_name_H-M	'P1'
_symmetry_Int_Tables_number	1
_symmetry_cell_setting	triclinic
loop_
_symmetry_equiv_pos_as_xyz
  x,y,z
_cell_length_a	13.930277
_cell_length_b	14.971486
_cell_length_c	14.971494
_cell_angle_alpha	96.384157
_cell_angle_beta	90.002835
_cell_angle_gamma	89.997740
loop_
_atom_site_label
_atom_site_type_symbol
_atom_site_fract_x
_atom_site_fract_y
_atom_site_fract_z
O1	O	0.079717	-1.186952	0.116562
O2	O	0.579717	-0.686952	0.616562
O3	O	0.079742	-0.926552	0.130520
O4	O	0.579742	-0.426552	0.630520
O5	O	0.079727	-1.063727	-0.006659
O6	O	0.579727	-0.563727	0.493341
O7	O	0.079732	-1.049776	0.253741
O8	O	0.579732	-0.549776	0.753741
O9	O	-0.079935	-1.063708	-0.006662
O10	O	0.420065	-0.563708	0.493338
O11	O	-0.079919	-0.926533	0.130517
O12	O	0.420081	-0.426533	0.630517
O13	O	-0.079945	-1.186933	0.116559
O14	O	0.420055	-0.686933	0.616559
Zn15	Zn	-0.105282	-1.056730	0.123538
Zn16	Zn	0.394718	-0.556730	0.623538
Zn17	Zn	0.105079	-1.056755	0.123541
Zn18	Zn	0.605079	-0.556755	0.623541
O19	O	-0.079929	-1.049757	0.253738
O20	O	0.420071	-0.549757	0.753738
C21	C	-0.000085	-0.893218	0.129895
C22	C	0.499915	-0.393218	0.629895
C23	C	-0.000075	-0.793921	0.128024
C24	C	0.499925	-0.293921	0.628024
N25	N	-0.248848	-1.056719	0.123534
N26	N	0.251152	-0.556719	0.623534
C27	C	-0.000103	-1.063093	-0.039985
C28	C	0.499897	-0.563093	0.460015
C29	C	-0.000098	-1.061219	-0.139281
C30	C	0.499902	-0.561219	0.360719
C31	C	-0.701110	-0.996011	0.184260
C32	C	-0.201110	-0.496011	0.684260
C33	C	-0.701094	-1.117523	0.062816
C34	C	-0.201094	-0.617523	0.562816
C35	C	-0.600598	-1.117513	0.062813
C36	C	-0.100598	-0.617513	0.562813
C37	C	-0.550354	-1.056751	0.123536
C38	C	-0.050354	-0.556751	0.623536
C39	C	-0.600605	-0.996001	0.184261
C40	C	-0.100605	-0.496001	0.684261
C41	C	-0.550339	-1.178268	0.002094
C42	C	-0.050339	-0.678268	0.502094
C43	C	-0.449837	-1.178261	0.002090
C44	C	0.050163	-0.678261	0.502090
C45	C	-0.399591	-1.117494	0.062809
C46	C	0.100409	-0.617494	0.562809
C47	C	-0.449849	-1.056741	0.123536
C48	C	0.050151	-0.556741	0.623536
C49	C	-0.399605	-0.995979	0.184259
C50	C	0.100395	-0.495979	0.684259
C51	C	-0.449861	-0.935221	0.244983
C52	C	0.050139	-0.435221	0.744983
C53	C	-0.550359	-0.935234	0.244981
C54	C	-0.050359	-0.435234	0.744981
C55	C	-0.299092	-1.117481	0.062811
C56	C	0.200908	-0.617481	0.562811
C57	C	-0.299100	-0.995969	0.184260
C58	C	0.200900	-0.495969	0.684260
N59	N	0.248645	-1.056773	0.123538
N60	N	0.748645	-0.556773	0.623538
C61	C	-0.000115	-1.220267	0.117184
C62	C	0.499885	-0.720267	0.617184
C63	C	-0.000119	-1.319564	0.119055
C64	C	0.499881	-0.819564	0.619055
C65	C	-0.000075	-0.736698	0.208613
C66	C	0.499925	-0.236698	0.708613
C67	C	-0.000089	-0.643398	0.206850
C68	C	0.499911	-0.143398	0.706850
C69	C	-0.000097	-0.607323	0.124497
C70	C	0.499903	-0.107323	0.624497
C71	C	-0.000100	-0.664554	0.043902
C72	C	0.499900	-0.164554	0.543902
C73	C	-0.000093	-0.757851	0.045666
C74	C	0.499907	-0.257851	0.545666
C75	C	-0.000114	-0.470091	0.040231
C76	C	0.499886	0.029909	0.540231
C77	C	-0.000119	-0.376787	0.038466
C78	C	0.499881	0.123213	0.538466
C79	C	-0.000110	-0.355638	0.201415
C80	C	0.499890	0.144362	0.701415
C81	C	-0.000103	-0.448936	0.203179
C82	C	0.499897	0.051064	0.703179
C83	C	-0.000104	-0.506159	0.122583
C84	C	0.499896	-0.006159	0.622583
C85	C	0.086935	-1.060351	-0.185924
C86	C	0.586935	-0.560351	0.314076
C87	C	0.086936	-1.058585	-0.279224
C88	C	0.586936	-0.558585	0.220776
C89	C	-0.000096	-1.057693	-0.325879
C90	C	0.499904	-0.557693	0.174121
C91	C	-0.087136	-1.058558	-0.279229
C92	C	0.412864	-0.558558	0.220771
C93	C	-0.087136	-1.060318	-0.185930
C94	C	0.412864	-0.560318	0.314070
C95	C	-0.087129	-1.054892	-0.473692
C96	C	0.412871	-0.554892	0.026308
C97	C	-0.087129	-1.053134	-0.566997
C98	C	0.412871	-0.553134	-0.066997
C99	C	0.086943	-1.053159	-0.566985
C100	C	0.586943	-0.553159	-0.066985
C101	C	0.086943	-1.054919	-0.473687
C102	C	0.586943	-0.554919	0.026313
C103	C	-0.000097	-1.055786	-0.427043
C104	C	0.499903	-0.555786	0.072957
C105	C	-0.000098	-1.050392	0.287064
C106	C	0.499902	-0.550392	0.787064
C107	C	-0.000096	-1.052266	0.386360
C108	C	0.499904	-0.552266	0.886360
H109	H	-0.408940	-0.885752	0.294428
H110	H	0.091060	-0.385752	0.794428
O111	O	-0.000117	-0.625651	-0.044925
O112	O	0.499883	-0.125651	0.455075
H113	H	0.064959	-0.583655	-0.049634
H114	H	0.564959	-0.083655	0.450366
H115	H	-0.157999	-1.052400	-0.604980
H116	H	0.342001	-0.552400	-0.104980
O117	O	0.180820	-1.057635	-0.329511
O118	O	0.680820	-0.557635	0.170489
H119	H	0.184998	-1.117739	-0.379935
H120	H	0.684998	-0.617739	0.120065
O121	O	-0.181006	-1.057592	-0.329550
O122	O	0.318994	-0.557592	0.170450
H123	H	-0.241526	-1.058482	-0.281437
H124	H	0.258474	-0.558482	0.218563
H125	H	0.157814	-1.052451	-0.604966
H126	H	0.657814	-0.552451	-0.104966
O127	O	-0.181006	-1.061264	-0.135616
O128	O	0.318994	-0.561264	0.364384
H129	H	-0.241526	-1.060358	-0.183732
H130	H	0.258474	-0.560358	0.316268
H131	H	-0.258197	-0.946486	0.233705
H132	H	0.241803	-0.446486	0.733705
O133	O	-0.000097	-0.487839	0.292006
O134	O	0.499903	0.012161	0.792006
H135	H	0.064985	-0.529831	0.296713
H136	H	0.564985	-0.029831	0.796713
H137	H	-0.000093	-0.804442	-0.019958
H138	H	0.499907	-0.304442	0.480042
H139	H	-0.591284	-0.885768	0.294421
H140	H	-0.091284	-0.385768	0.794421
H141	H	0.157813	-1.055652	-0.435704
H142	H	0.657813	-0.555652	0.064296
H143	H	-0.158006	-1.055578	-0.435715
H144	H	0.341994	-0.555578	0.064285
O145	O	-0.000146	-0.337871	-0.050354
O146	O	0.499854	0.162129	0.449646
H147	H	0.064918	-0.360850	-0.089100
H148	H	0.564918	0.139150	0.410900
H149	H	-0.591251	-1.227743	-0.047340
H150	H	-0.091251	-0.727743	0.452660
H151	H	-0.742031	-0.946540	0.233699
H152	H	-0.242031	-0.446540	0.733699
H153	H	-0.742006	-1.166998	0.013381
H154	H	-0.242006	-0.666998	0.513381
O155	O	-0.395633	-1.243779	-0.063410
O156	O	0.104367	-0.743779	0.436590
H157	H	-0.447457	-1.286025	-0.105639
H158	H	0.052543	-0.786025	0.394361
H159	H	-0.258178	-1.166953	0.013375
H160	H	0.241822	-0.666953	0.513375
H161	H	-0.000068	-0.766062	0.275674
H162	H	0.499932	-0.266062	0.775674
H163	H	-0.000088	-0.596810	0.272473
H164	H	0.499912	-0.096810	0.772473
H165	H	-0.000113	-0.309041	0.267038
H166	H	0.499887	0.190959	0.767038
H167	H	-0.000116	-0.516681	-0.025399
H168	H	0.499884	-0.016681	0.474601
H169	H	0.157807	-1.061082	-0.147945
H170	H	0.657807	-0.561082	0.352055
