data_functionalizedCrystal
_audit_creation_method	'MofGen! by Chris Wilmer'
_symmetry_space_group_name_H-M	'P1'
_symmetry_Int_Tables_number	1
_symmetry_cell_setting	triclinic
loop_
_symmetry_equiv_pos_as_xyz
  x,y,z
_cell_length_a	14.044220
_cell_length_b	10.908878
_cell_length_c	10.065875
_cell_angle_alpha	83.443480
_cell_angle_beta	80.405158
_cell_angle_gamma	103.363166
loop_
_atom_site_label
_atom_site_type_symbol
_atom_site_fract_x
_atom_site_fract_y
_atom_site_fract_z
O1	O	0.160397	1.704266	-0.113469
O2	O	0.087690	1.338731	-0.113476
O3	O	0.261162	1.516011	-0.113467
O4	O	-0.013075	1.526986	-0.113479
O5	O	0.227974	1.482219	0.113520
O6	O	0.054502	1.304939	0.113511
O7	O	0.127209	1.670473	0.113518
Zn8	Zn	0.085586	1.482341	0.149553
Zn9	Zn	0.129313	1.526864	-0.149512
O10	O	-0.046264	1.493194	0.113508
C11	C	0.064301	1.274772	0.000016
C12	C	0.044066	1.134538	0.000014
C13	C	0.117901	1.077071	0.000016
C14	C	0.096989	0.932132	0.000013
C15	C	-0.064226	1.514894	0.000013
C16	C	-0.167193	1.529222	0.000008
C17	C	-0.355726	1.555415	0.000015
C18	C	-0.429378	1.453797	0.000014
C19	C	-0.534284	1.468371	0.000018
C20	C	-0.250810	1.540843	0.000011
C21	C	0.279126	1.494312	0.000025
C22	C	0.382094	1.479984	0.000021
C23	C	0.150598	1.734433	0.000022
C24	C	0.170834	1.874669	0.000016
N25	N	0.055746	1.451964	0.353657
N26	N	0.159162	1.557249	-0.353616
C27	C	0.118935	1.516286	0.421439
C28	C	0.095964	1.492918	0.578605
H29	H	0.249536	0.932768	0.000010
C30	C	-0.408128	1.321476	0.000022
N31	N	-0.392119	1.221815	0.000034
C32	C	0.215010	1.614032	0.342653
N33	N	0.287379	1.687649	0.283313
C34	C	-0.376983	1.687722	0.000040
N35	N	-0.393006	1.787373	0.000069
H36	H	-0.034628	1.076435	0.000004
C37	C	-0.000101	1.395140	0.657386
N38	N	-0.072456	1.321495	0.716726
C39	C	0.224216	1.155559	0.000030
N40	N	0.304294	1.214674	0.000046
H41	H	0.230275	1.629618	0.588067
H42	H	-0.015357	1.379591	0.411979
H43	H	0.018290	0.874033	0.000004
