data_functionalizedCrystal
_audit_creation_method	'MofGen! by Chris Wilmer'
_symmetry_space_group_name_H-M	'P1'
_symmetry_Int_Tables_number	1
_symmetry_cell_setting	triclinic
loop_
_symmetry_equiv_pos_as_xyz
  x,y,z
_cell_length_a	18.050589
_cell_length_b	10.685972
_cell_length_c	10.686551
_cell_angle_alpha	98.409768
_cell_angle_beta	85.596139
_cell_angle_gamma	85.606906
loop_
_atom_site_label
_atom_site_type_symbol
_atom_site_fract_x
_atom_site_fract_y
_atom_site_fract_z
Zn1	Zn	-0.166497	-1.995726	-0.866751
Zn2	Zn	-0.301038	-1.979251	-0.654487
Zn3	Zn	-0.187163	-1.767145	-0.638210
Zn4	Zn	-0.300962	-1.783374	-0.850393
O5	O	-0.238915	-1.881374	-0.752460
O6	O	-0.175727	-2.171178	-0.852252
O7	O	-0.294613	-1.937427	-0.474696
O8	O	-0.080491	-1.797570	-0.668561
O9	O	-0.274574	-2.159073	-0.696302
O10	O	-0.065308	-1.965507	-0.836469
O11	O	-0.210949	-1.781594	-0.462737
O12	O	-0.210876	-1.591660	-0.652699
O13	O	-0.274444	-1.825230	-1.030195
O14	O	-0.294483	-1.603584	-0.808588
O15	O	-0.175654	-1.981244	-1.042214
O16	O	-0.404958	-1.953164	-0.680440
O17	O	-0.404903	-1.809254	-0.824372
C18	C	-0.254914	-1.551563	-0.727103
C19	C	-0.261775	-1.410470	-0.716285
C20	C	-0.431876	-1.881219	-0.752428
C21	C	-0.514417	-1.881272	-0.752465
C22	C	-0.713862	-1.803095	-0.830711
C23	C	-0.770446	-1.763253	-0.712507
C24	C	-0.665541	-1.881398	-0.752491
C25	C	-0.756035	-1.921303	-0.870714
C26	C	-0.811519	-1.881518	-0.752526
C27	C	-0.721043	-1.841491	-0.634220
C28	C	-0.706622	-1.999601	-0.792509
C29	C	-0.763185	-1.959797	-0.674228
C30	C	-0.581447	-1.881326	-0.752472
C31	C	-0.895612	-1.881590	-0.752532
C32	C	-0.045198	-1.881566	-0.752524
C33	C	0.037353	-1.881648	-0.752551
C34	C	-0.222735	-1.906885	-1.083550
C35	C	-0.215841	-1.917757	-1.224641
C36	C	-0.222849	-1.212472	-0.777912
C37	C	-0.215991	-1.353566	-0.788742
C38	C	-0.254975	-1.856035	-0.422664
C39	C	-0.261648	-1.845409	-0.281593
H40	H	-0.171539	-1.412787	-0.859050
H41	H	-0.306143	-1.775156	-1.222413
H42	H	-0.171348	-1.988024	-1.283828
H43	H	-0.306225	-1.351242	-0.645965
H44	H	-0.692214	-1.736763	-0.896750
H45	H	-0.798261	-1.663350	-0.678688
H46	H	-0.771644	-1.955007	-0.970679
H47	H	-0.705531	-1.807672	-0.534219
H48	H	-0.784707	-2.026060	-0.608012
H49	H	-0.678807	-2.099486	-0.826382
