data_functionalizedCrystal
_audit_creation_method	'MofGen! by Chris Wilmer'
_symmetry_space_group_name_H-M	'P1'
_symmetry_Int_Tables_number	1
_symmetry_cell_setting	triclinic
loop_
_symmetry_equiv_pos_as_xyz
  x,y,z
_cell_length_a	14.044220
_cell_length_b	11.792254
_cell_length_c	10.268362
_cell_angle_alpha	90.001515
_cell_angle_beta	89.999929
_cell_angle_gamma	88.693738
loop_
_atom_site_label
_atom_site_type_symbol
_atom_site_fract_x
_atom_site_fract_y
_atom_site_fract_z
O1	O	-1.259125	-0.273764	-0.108163
O2	O	-1.009125	-0.023764	0.141837
O3	O	-0.759125	0.226236	0.391837
O4	O	-0.509125	0.476236	0.641837
O5	O	-0.983104	-0.263885	-0.108196
O6	O	-0.733104	-0.013885	0.141804
O7	O	-0.483104	0.236115	0.391804
O8	O	-0.233104	0.486115	0.641804
O9	O	-1.127806	-0.104283	-0.108169
O10	O	-0.877806	0.145717	0.141831
O11	O	-0.627806	0.395717	0.391831
O12	O	-0.377806	0.645717	0.641831
O13	O	-1.114423	-0.433366	-0.108189
O14	O	-0.864423	-0.183366	0.141811
O15	O	-0.614423	0.066634	0.391811
O16	O	-0.364423	0.316634	0.641811
O17	O	-1.127793	-0.104287	0.108431
O18	O	-0.877793	0.145713	0.358431
O19	O	-0.627793	0.395713	0.608431
O20	O	-0.377793	0.645713	0.858431
O21	O	-0.983090	-0.263889	0.108405
O22	O	-0.733090	-0.013889	0.358405
O23	O	-0.483090	0.236111	0.608405
O24	O	-0.233090	0.486111	0.858405
O25	O	-1.259111	-0.273768	0.108438
O26	O	-1.009111	-0.023768	0.358438
O27	O	-0.759111	0.226232	0.608438
O28	O	-0.509111	0.476232	0.858438
Cu29	Cu	-1.121099	-0.268829	0.128199
Cu30	Cu	-0.871099	-0.018829	0.378199
Cu31	Cu	-0.621099	0.231171	0.628199
Cu32	Cu	-0.371099	0.481171	0.878199
Cu33	Cu	-1.121116	-0.268824	-0.127957
Cu34	Cu	-0.871116	-0.018824	0.122043
Cu35	Cu	-0.621116	0.231176	0.372043
Cu36	Cu	-0.371116	0.481176	0.622043
O37	O	-1.114409	-0.433370	0.108411
O38	O	-0.864409	-0.183370	0.358411
O39	O	-0.614409	0.066630	0.608411
O40	O	-0.364409	0.316630	0.858411
C41	C	-0.947761	-0.259563	0.000100
C42	C	-0.697761	-0.009563	0.250100
C43	C	-0.447761	0.240437	0.500100
C44	C	-0.197761	0.490437	0.750100
C45	C	-0.842468	-0.246664	0.000088
C46	C	-0.592468	0.003336	0.250088
C47	C	-0.342468	0.253336	0.500088
C48	C	-0.092468	0.503336	0.750088
C49	C	-1.126956	-0.061915	0.000130
C50	C	-0.876956	0.188085	0.250130
C51	C	-0.626956	0.438085	0.500130
C52	C	-0.376956	0.688085	0.750130
C53	C	-1.124433	0.064335	0.000129
C54	C	-0.874433	0.314335	0.250129
C55	C	-0.624433	0.564335	0.500129
C56	C	-0.374433	0.814335	0.750129
C57	C	-1.294455	-0.278090	0.000139
C58	C	-1.044455	-0.028090	0.250139
C59	C	-0.794455	0.221910	0.500139
C60	C	-0.544455	0.471910	0.750139
C61	C	-1.399747	-0.290989	0.000142
C62	C	-1.149747	-0.040989	0.250142
C63	C	-0.899747	0.209011	0.500142
C64	C	-0.649747	0.459011	0.750142
C65	C	-0.649685	-0.223082	0.000115
C66	C	-0.399685	0.026918	0.250115
C67	C	-0.149685	0.276918	0.500115
C68	C	0.100315	0.526918	0.750115
C69	C	-0.592525	-0.314566	0.000115
C70	C	-0.342525	-0.064566	0.250115
C71	C	-0.092525	0.185434	0.500115
C72	C	0.157475	0.435434	0.750115
C73	C	-0.485254	-0.301445	0.000130
C74	C	-0.235254	-0.051445	0.250130
C75	C	0.014746	0.198555	0.500130
C76	C	0.264746	0.448555	0.750130
C77	C	-0.756966	-0.236201	0.000100
C78	C	-0.506966	0.013799	0.250100
C79	C	-0.256966	0.263799	0.500100
C80	C	-0.006966	0.513799	0.750100
C81	C	-1.115259	-0.475738	0.000108
C82	C	-0.865259	-0.225738	0.250108
C83	C	-0.615259	0.024262	0.500108
C84	C	-0.365259	0.274262	0.750108
C85	C	-1.117782	-0.601988	0.000101
C86	C	-0.867782	-0.351988	0.250101
C87	C	-0.617782	-0.101988	0.500101
C88	C	-0.367782	0.148012	0.750101
C89	C	-1.122383	0.166864	0.000124
C90	C	-0.872383	0.416864	0.250124
C91	C	-0.622383	0.666864	0.500124
C92	C	-0.372383	0.916864	0.750124
C93	C	-1.119819	0.295491	0.000112
C94	C	-0.869819	0.545491	0.250112
C95	C	-0.619819	0.795491	0.500112
C96	C	-0.369819	1.045491	0.750112
N97	N	-1.121095	-0.268833	0.308364
N98	N	-0.871095	-0.018833	0.558364
N99	N	-0.621095	0.231167	0.808364
N100	N	-0.371095	0.481167	1.058364
N101	N	-1.121128	-0.268812	-0.308123
N102	N	-0.871128	-0.018812	-0.058123
N103	N	-0.621128	0.231188	0.191877
N104	N	-0.371128	0.481188	0.441877
C105	C	-1.121102	-0.268834	0.426207
C106	C	-0.871102	-0.018834	0.676207
C107	C	-0.621102	0.231166	0.926207
C108	C	-0.371102	0.481166	1.176207
C109	C	-1.121113	-0.268825	0.574045
C110	C	-0.871113	-0.018825	0.824045
C111	C	-0.621113	0.231175	1.074045
C112	C	-0.371113	0.481175	1.324045
H113	H	-0.624152	-0.402743	0.000103
H114	H	-0.374152	-0.152743	0.250103
H115	H	-0.124152	0.097257	0.500103
H116	H	0.125848	0.347257	0.750103
O117	O	-0.611805	-0.117975	0.000061
O118	O	-0.361805	0.132025	0.250061
O119	O	-0.111805	0.382025	0.500061
O120	O	0.138195	0.632025	0.750061
C121	C	-0.468784	-0.008908	0.000147
C122	C	-0.218784	0.241092	0.250147
C123	C	0.031216	0.491092	0.500147
C124	C	0.281216	0.741092	0.750147
C125	C	-0.511571	-0.128004	0.000185
C126	C	-0.261571	0.121996	0.250185
C127	C	-0.011571	0.371996	0.500185
C128	C	0.238429	0.621996	0.750185
H129	H	-0.387739	-0.016976	0.000275
H130	H	-0.137739	0.233024	0.250275
H131	H	0.112261	0.483024	0.500275
H132	H	0.362261	0.733024	0.750275
H133	H	-0.493406	0.039224	-0.090526
H134	H	-0.243406	0.289224	0.159474
H135	H	0.006594	0.539224	0.409474
H136	H	0.256594	0.789224	0.659474
H137	H	-0.493541	0.039205	0.090768
H138	H	-0.243541	0.289205	0.340768
H139	H	0.006459	0.539205	0.590768
H140	H	0.256459	0.789205	0.840768
H141	H	-0.486833	-0.176211	-0.090375
H142	H	-0.236833	0.073789	0.159625
H143	H	0.013167	0.323789	0.409625
H144	H	0.263167	0.573789	0.659625
H145	H	-0.486952	-0.176050	0.090918
H146	H	-0.236952	0.073950	0.340918
H147	H	0.013048	0.323950	0.590918
H148	H	0.263048	0.573950	0.840918
