data_functionalizedCrystal
_audit_creation_method	'MofGen! by Chris Wilmer'
_symmetry_space_group_name_H-M	'P1'
_symmetry_Int_Tables_number	1
_symmetry_cell_setting	triclinic
loop_
_symmetry_equiv_pos_as_xyz
  x,y,z
_cell_length_a	7.681481
_cell_length_b	16.992694
_cell_length_c	16.992695
_cell_angle_alpha	89.331777
_cell_angle_beta	96.129649
_cell_angle_gamma	96.126470
loop_
_atom_site_label
_atom_site_type_symbol
_atom_site_fract_x
_atom_site_fract_y
_atom_site_fract_z
O1	O	0.146212	-1.043879	0.173887
O2	O	0.479545	-0.710546	0.507220
O3	O	0.812879	-0.377213	0.840554
O4	O	0.146264	-0.815477	0.172058
O5	O	0.479597	-0.482144	0.505392
O6	O	0.812931	-0.148810	0.838725
O7	O	0.146224	-0.928763	0.058772
O8	O	0.479558	-0.595430	0.392105
O9	O	0.812891	-0.262097	0.725439
O10	O	0.146252	-0.930593	0.287173
O11	O	0.479585	-0.597260	0.620507
O12	O	0.812918	-0.263926	0.953840
O13	O	-0.146638	-0.942716	0.044806
O14	O	0.186695	-0.609382	0.378139
O15	O	0.520028	-0.276049	0.711472
O16	O	-0.146599	-0.829429	0.158092
O17	O	0.186735	-0.496096	0.491425
O18	O	0.520068	-0.162763	0.824759
O19	O	-0.146650	-1.057832	0.159921
O20	O	0.186683	-0.724499	0.493254
O21	O	0.520016	-0.391165	0.826587
Zn22	Zn	-0.193123	-0.945846	0.156789
Zn23	Zn	0.140211	-0.612513	0.490122
Zn24	Zn	0.473544	-0.279179	0.823456
Zn25	Zn	0.192736	-0.927463	0.175190
Zn26	Zn	0.526070	-0.594130	0.508523
Zn27	Zn	0.859403	-0.260796	0.841857
O28	O	-0.146611	-0.944546	0.273207
O29	O	0.186723	-0.611212	0.606540
O30	O	0.520056	-0.277879	0.939874
C31	C	-0.000161	-0.793093	0.162720
C32	C	0.333173	-0.459759	0.496053
C33	C	0.666506	-0.126426	0.829386
C34	C	-0.000141	-0.705607	0.155692
C35	C	0.333192	-0.372274	0.489025
C36	C	0.666525	-0.038941	0.822359
N37	N	-0.456461	-0.958398	0.144231
N38	N	-0.123128	-0.625064	0.477564
N39	N	0.210205	-0.291731	0.810897
C40	C	-0.000206	-0.933384	0.022429
C41	C	0.333127	-0.600050	0.355762
C42	C	0.666460	-0.266717	0.689095
C43	C	-0.000204	-0.926355	-0.065056
C44	C	0.333129	-0.593022	0.268278
C45	C	0.666462	-0.259688	0.601611
N46	N	0.456075	-0.914917	0.187743
N47	N	0.789408	-0.581584	0.521076
N48	N	1.122742	-0.248250	0.854409
C49	C	-0.000222	-1.080216	0.169260
C50	C	0.333112	-0.746883	0.502593
C51	C	0.666445	-0.413549	0.835926
C52	C	-0.000230	-1.167701	0.176288
C53	C	0.333104	-0.834368	0.509621
C54	C	0.666437	-0.501034	0.842955
C55	C	-0.000135	-0.659616	0.223510
C56	C	0.333199	-0.326283	0.556844
C57	C	0.666532	0.007051	0.890177
C58	C	-0.000160	-0.577416	0.216900
C59	C	0.333174	-0.244083	0.550233
C60	C	0.666507	0.089250	0.883567
C61	C	-0.000179	-0.541209	0.142472
C62	C	0.333154	-0.207876	0.475805
C63	C	0.666488	0.125458	0.809138
C64	C	-0.000191	-0.587207	0.074648
C65	C	0.333142	-0.253873	0.407981
C66	C	0.666476	0.079460	0.741315
C67	C	-0.000178	-0.669405	0.081258
C68	C	0.333155	-0.336072	0.414592
C69	C	0.666488	-0.002739	0.747925
C70	C	-0.000229	-0.295897	0.115075
C71	C	0.333104	0.037436	0.448408
C72	C	0.666437	0.370770	0.781741
C73	C	-0.000236	-0.213692	0.108470
C74	C	0.333097	0.119641	0.441803
C75	C	0.666430	0.452974	0.775136
C76	C	-0.000208	-0.203908	0.250722
C77	C	0.333125	0.129426	0.584056
C78	C	0.666458	0.462759	0.917389
C79	C	-0.000185	-0.286108	0.257327
C80	C	0.333148	0.047225	0.590660
C81	C	0.666481	0.380559	0.923993
C82	C	-0.000207	-0.332099	0.189503
C83	C	0.333127	0.001235	0.522836
C84	C	0.666460	0.334568	0.856169
N85	N	-0.000199	-0.457188	0.135713
N86	N	0.333134	-0.123854	0.469047
N87	N	0.666468	0.209479	0.802380
N88	N	-0.000199	-0.416119	0.196261
N89	N	0.333134	-0.082786	0.529594
N90	N	0.666467	0.250548	0.862927
C91	C	-0.000221	-0.994174	-0.111047
C92	C	0.333112	-0.660840	0.222286
C93	C	0.666445	-0.327507	0.555619
C94	C	-0.000203	-0.987564	-0.193247
C95	C	0.333130	-0.654231	0.140086
C96	C	0.666463	-0.320897	0.473419
C97	C	-0.000180	-0.913135	-0.229455
C98	C	0.333153	-0.579802	0.103879
C99	C	0.666486	-0.246468	0.437212
C100	C	-0.000158	-0.845311	-0.183456
C101	C	0.333175	-0.511978	0.149877
C102	C	0.666509	-0.178644	0.483210
C103	C	-0.000163	-0.851921	-0.101258
C104	C	0.333170	-0.518588	0.232076
C105	C	0.666503	-0.185254	0.565409
C106	C	-0.000150	-0.885739	-0.474767
C107	C	0.333183	-0.552406	-0.141434
C108	C	0.666517	-0.219072	0.191899
C109	C	-0.000150	-0.879135	-0.556973
C110	C	0.333184	-0.545801	-0.223639
C111	C	0.666517	-0.212468	0.109694
C112	C	-0.000192	-1.021388	-0.566758
C113	C	0.333142	-0.688055	-0.233424
C114	C	0.666475	-0.354721	0.099909
C115	C	-0.000208	-1.027992	-0.484557
C116	C	0.333125	-0.694659	-0.151224
C117	C	0.666459	-0.361325	0.182109
C118	C	-0.000176	-0.960167	-0.438566
C119	C	0.333157	-0.626834	-0.105233
C120	C	0.666491	-0.293501	0.228101
N121	N	-0.000167	-0.906377	-0.313476
N122	N	0.333166	-0.573044	0.019857
N123	N	0.666499	-0.239711	0.353191
N124	N	-0.000177	-0.966925	-0.354545
N125	N	0.333157	-0.633592	-0.021212
N126	N	0.666490	-0.300259	0.312121
C127	C	-0.000176	-0.939925	0.309551
C128	C	0.333157	-0.606592	0.642884
C129	C	0.666490	-0.273258	0.976217
C130	C	-0.000167	-0.946953	0.397036
C131	C	0.333166	-0.613620	0.730369
C132	C	0.666500	-0.280287	1.063702
H133	H	-0.531674	-1.002789	0.099824
H134	H	-0.198341	-0.669456	0.433157
H135	H	0.134993	-0.336123	0.766491
H136	H	-0.468704	-0.870529	0.232158
H137	H	-0.135370	-0.537195	0.565492
H138	H	0.197963	-0.203862	0.898825
H139	H	-0.000159	-0.818524	-0.586451
H140	H	0.333174	-0.485191	-0.253118
H141	H	0.666507	-0.151857	0.080216
H142	H	-0.000118	-0.689090	0.284118
H143	H	0.333216	-0.355756	0.617451
H144	H	0.666549	-0.022423	0.950785
Br145	Br	-0.000097	-0.744298	-0.232592
Br146	Br	0.333236	-0.410964	0.100741
Br147	Br	0.666569	-0.077631	0.434074
H148	H	-0.000250	-0.184215	0.047858
H149	H	0.333083	0.149118	0.381191
H150	H	0.666416	0.482452	0.714525
H151	H	-0.000214	-1.076606	-0.604212
H152	H	0.333119	-0.743273	-0.270879
H153	H	0.666452	-0.409940	0.062454
H154	H	-0.000152	-0.539973	0.272125
H155	H	0.333181	-0.206640	0.605459
H156	H	0.666515	0.126693	0.938792
Br157	Br	-0.000235	-0.538070	-0.026365
Br158	Br	0.333099	-0.204737	0.306969
Br159	Br	0.666432	0.128597	0.640302
H160	H	-0.000149	-0.315581	0.317935
H161	H	0.333184	0.017752	0.651268
H162	H	0.666517	0.351086	0.984602
Br163	Br	-0.000182	-0.141488	0.342764
Br164	Br	0.333152	0.191845	0.676097
Br165	Br	0.666485	0.525178	1.009431
H166	H	-0.000248	-0.333333	0.059847
H167	H	0.333085	-0.000000	0.393180
H168	H	0.666419	0.333333	0.726514
Br169	Br	-0.000126	-0.759877	-0.038838
Br170	Br	0.333207	-0.426543	0.294495
Br171	Br	0.666541	-0.093210	0.627829
Br172	Br	-0.000226	-1.079608	-0.255662
Br173	Br	0.333107	-0.746275	0.077671
Br174	Br	0.666441	-0.412942	0.411004
Br175	Br	-0.000278	-1.095190	-0.061919
Br176	Br	0.333055	-0.761857	0.271415
Br177	Br	0.666389	-0.428524	0.604748
Br178	Br	-0.000182	-1.129003	-0.435422
Br179	Br	0.333151	-0.795670	-0.102089
Br180	Br	0.666484	-0.462337	0.231245
H181	H	-0.000183	-0.706851	0.026033
H182	H	0.333150	-0.373517	0.359366
H183	H	0.666484	-0.040184	0.692700
H184	H	-0.000125	-0.830511	-0.437331
H185	H	0.333209	-0.497178	-0.103998
H186	H	0.666542	-0.163845	0.229336
