data_functionalizedCrystal
_audit_creation_method	'MofGen! by Chris Wilmer'
_symmetry_space_group_name_H-M	'P1'
_symmetry_Int_Tables_number	1
_symmetry_cell_setting	triclinic
loop_
_symmetry_equiv_pos_as_xyz
  x,y,z
_cell_length_a	16.120530
_cell_length_b	12.759400
_cell_length_c	12.759393
_cell_angle_alpha	89.968436
_cell_angle_beta	87.081000
_cell_angle_gamma	87.110362
loop_
_atom_site_label
_atom_site_type_symbol
_atom_site_fract_x
_atom_site_fract_y
_atom_site_fract_z
Zn1	Zn	1.274626	-0.499755	-0.675426
Zn2	Zn	1.774626	0.000245	-0.175426
Zn3	Zn	1.274542	-0.675468	-0.499741
Zn4	Zn	1.774542	-0.175468	0.000259
Zn5	Zn	1.135203	-0.490889	-0.490856
Zn6	Zn	1.635203	0.009111	0.009144
Zn7	Zn	1.135194	-0.666471	-0.666478
Zn8	Zn	1.635194	-0.166471	-0.166478
O9	O	1.204891	-0.583146	-0.583125
O10	O	1.704891	-0.083146	-0.083125
O11	O	1.391282	-0.530539	-0.659583
O12	O	1.891282	-0.030539	-0.159583
O13	O	1.256027	-0.651038	-0.351539
O14	O	1.756027	-0.151038	0.148461
O15	O	1.153736	-0.345047	-0.515367
O16	O	1.653736	0.154953	-0.015367
O17	O	1.391220	-0.659635	-0.530508
O18	O	1.891220	-0.159635	-0.030508
O19	O	1.256170	-0.351560	-0.650969
O20	O	1.756170	0.148440	-0.150969
O21	O	1.153655	-0.515429	-0.345012
O22	O	1.653655	-0.015429	0.154988
O23	O	1.018535	-0.506705	-0.506690
O24	O	1.518535	-0.006705	-0.006690
O25	O	1.153721	-0.644301	-0.814688
O26	O	1.653721	-0.144301	-0.314688
O27	O	1.018528	-0.635704	-0.635719
O28	O	1.518528	-0.135704	-0.135719
O29	O	1.256161	-0.521815	-0.821262
O30	O	1.756161	-0.021815	-0.321262
O31	O	1.256019	-0.821293	-0.521832
O32	O	1.756019	-0.321293	-0.021832
O33	O	1.153640	-0.814683	-0.644333
O34	O	1.653640	-0.314683	-0.144333
C35	C	1.204842	-0.856110	-0.583100
C36	C	1.704842	-0.356110	-0.083100
C37	C	1.204897	-0.972890	-0.583129
C38	C	1.704897	-0.472890	-0.083129
C39	C	0.988281	-0.569267	-0.569270
C40	C	1.488281	-0.069267	-0.069270
C41	C	0.895614	-0.563355	-0.563368
C42	C	1.395614	-0.063355	-0.063368
C43	C	1.258265	-1.031163	-0.519421
C44	C	1.758265	-0.531163	-0.019421
C45	C	1.258316	-1.140890	-0.519457
C46	C	1.758316	-0.640890	-0.019457
C47	C	1.151624	-1.134062	-0.646912
C48	C	1.651624	-0.634062	-0.146912
C49	C	1.151578	-1.024337	-0.646881
C50	C	1.651578	-0.524337	-0.146881
C51	C	1.311583	-0.979716	-0.455670
C52	C	1.811583	-0.479716	0.044330
C53	C	1.364955	-1.037989	-0.391955
C54	C	1.864955	-0.537989	0.108045
C55	C	1.365006	-1.147717	-0.391991
C56	C	1.865006	-0.647717	0.108009
C57	C	1.311686	-1.199171	-0.455741
C58	C	1.811686	-0.699171	0.044259
C59	C	0.725951	-0.552536	-0.552601
C60	C	1.225951	-0.052536	-0.052601
C61	C	0.684672	-0.613833	-0.613726
C62	C	1.184672	-0.113833	-0.113726
C63	C	0.590265	-0.607813	-0.607735
C64	C	1.090265	-0.107813	-0.107735
C65	C	0.820366	-0.558555	-0.558590
C66	C	1.320366	-0.058555	-0.058590
C67	C	1.422347	-0.597080	-0.597035
C68	C	1.922347	-0.097080	-0.097035
C69	C	1.515014	-0.603017	-0.602962
C70	C	2.015014	-0.103017	-0.102962
C71	C	1.204950	-0.583044	-0.857162
C72	C	1.704950	-0.083044	-0.357162
C73	C	1.204974	-0.583000	-0.973941
C74	C	1.704974	-0.083000	-0.473941
C75	C	1.204964	-0.309117	-0.583175
C76	C	1.704964	0.190883	-0.083175
C77	C	1.204994	-0.192343	-0.583196
C78	C	1.704994	0.307657	-0.083196
C79	C	1.258322	-0.519216	-1.032228
C80	C	1.758322	-0.019216	-0.532228
C81	C	1.258342	-0.519179	-1.141953
C82	C	1.758342	-0.019179	-0.641953
C83	C	1.151664	-0.646720	-1.135095
C84	C	1.651664	-0.146720	-0.635095
C85	C	1.151640	-0.646750	-1.025371
C86	C	1.651640	-0.146750	-0.525371
C87	C	1.311656	-0.455465	-0.980798
C88	C	1.811656	0.044535	-0.480798
C89	C	1.365009	-0.391677	-1.039085
C90	C	1.865009	0.108323	-0.539085
C91	C	1.365029	-0.391640	-1.148811
C92	C	1.865029	0.108360	-0.648811
C93	C	1.311696	-0.455392	-1.200249
C94	C	1.811696	0.044608	-0.700249
C95	C	1.204881	-0.583175	-0.310157
C96	C	1.704881	-0.083175	0.189843
C97	C	1.205018	-0.582933	-0.193390
C98	C	1.705018	-0.082933	0.306610
H99	H	1.408371	-0.996090	-0.340058
H100	H	1.908371	-0.496090	0.159942
H101	H	0.690392	-0.495544	-0.495775
H102	H	1.190392	0.004456	0.004225
N103	N	1.311653	-0.455496	-0.868719
N104	N	1.811653	0.044504	-0.368719
N105	N	1.359276	-0.398578	-0.822808
N106	N	1.859276	0.101422	-0.322808
H107	H	1.359275	-0.398602	-0.743652
H108	H	1.859275	0.101398	-0.243652
N109	N	1.097047	-0.964808	-0.711935
N110	N	1.597047	-0.464808	-0.211935
N111	N	1.043911	-0.900269	-0.671496
N112	N	1.543911	-0.400269	-0.171496
H113	H	1.005397	-0.858226	-0.717443
H114	H	1.505397	-0.358226	-0.217443
H115	H	1.408426	-0.339765	-0.997197
H116	H	1.908426	0.160235	-0.497197
H117	H	1.108213	-1.175965	-0.698813
H118	H	1.608213	-0.675965	-0.198813
H119	H	1.311545	-0.890371	-0.455630
H120	H	1.811545	-0.390371	0.044370
N121	N	1.419520	-0.326467	-1.208335
N122	N	1.919520	0.173533	-0.708335
N123	N	1.467129	-0.269551	-1.162397
N124	N	1.967129	0.230449	-0.662397
H125	H	1.505618	-0.223522	-1.204434
H126	H	2.005618	0.276478	-0.704434
N127	N	1.311697	-0.455356	-1.312330
N128	N	1.811697	0.044644	-0.812330
N129	N	1.246677	-0.429216	-1.357144
N130	N	1.746677	0.070784	-0.857144
H131	H	1.246678	-0.429193	-1.436300
H132	H	1.746678	0.070807	-0.936300
H133	H	0.720233	-0.670829	-0.670558
H134	H	1.220233	-0.170829	-0.170558
N135	N	1.097193	-0.711829	-1.187650
N136	N	1.597193	-0.211829	-0.687650
N137	N	1.097222	-0.711791	-1.285617
N138	N	1.597222	-0.211791	-0.785617
H139	H	1.058752	-0.757777	-1.322736
H140	H	1.558752	-0.257777	-0.822736
N141	N	1.097137	-0.711902	-0.965840
N142	N	1.597137	-0.211902	-0.465840
N143	N	1.049525	-0.768820	-1.011770
N144	N	1.549525	-0.268820	-0.511770
H145	H	1.011027	-0.814832	-0.969727
H146	H	1.511027	-0.314832	-0.469727
H147	H	1.408469	-1.195160	-0.340119
H148	H	1.908469	-0.695160	0.159881
N149	N	1.311752	-1.311256	-0.455772
N150	N	1.811752	-0.811256	0.044228
N151	N	1.359409	-1.363276	-0.398887
N152	N	1.859409	-0.863276	0.101113
H153	H	1.359454	-1.442435	-0.398903
H154	H	1.859454	-0.942435	0.101097
