data_functionalizedCrystal
_audit_creation_method	'MofGen! by Chris Wilmer'
_symmetry_space_group_name_H-M	'P1'
_symmetry_Int_Tables_number	1
_symmetry_cell_setting	triclinic
loop_
_symmetry_equiv_pos_as_xyz
  x,y,z
_cell_length_a	15.995350
_cell_length_b	10.654550
_cell_length_c	9.130313
_cell_angle_alpha	90.004369
_cell_angle_beta	89.999877
_cell_angle_gamma	83.988653
loop_
_atom_site_label
_atom_site_type_symbol
_atom_site_fract_x
_atom_site_fract_y
_atom_site_fract_z
O1	O	-1.111924	-0.161873	-0.121675
O2	O	-0.868265	-0.181862	-0.121705
O3	O	-0.995697	0.010945	-0.121680
O4	O	-0.984493	-0.354680	-0.121700
O5	O	-0.995688	0.010951	0.121919
O6	O	-0.868256	-0.181856	0.121894
O7	O	-1.111916	-0.161867	0.121924
Cu8	Cu	-0.990085	-0.171861	0.144152
Cu9	Cu	-0.990096	-0.171868	-0.143932
O10	O	-0.984484	-0.354674	0.121899
C11	C	-0.837061	-0.181033	0.000091
C12	C	-0.744096	-0.178555	0.000079
C13	C	-0.994870	0.057735	0.000119
C14	C	-0.992409	0.197146	0.000116
C15	C	-1.143119	-0.162696	0.000125
C16	C	-1.236084	-0.165174	0.000127
C17	C	-0.406297	-0.169658	0.000110
C18	C	-0.452934	-0.032344	0.000661
C19	C	-0.549639	-0.034822	0.000102
C20	C	-0.573883	-0.174071	0.000096
C21	C	-0.533195	-0.241802	-0.139009
C22	C	-0.436539	-0.238353	-0.139115
C23	C	-0.436206	-0.241183	0.137902
C24	C	-0.533152	-0.241151	0.139731
C25	C	-0.668595	-0.176573	0.000083
C26	C	-0.311585	-0.167161	0.000114
C27	C	-0.985311	-0.401464	0.000097
C28	C	-0.987772	-0.540875	0.000090
N29	N	-0.990084	-0.171856	0.346774
C30	C	-1.067438	0.277612	0.000125
C31	C	-1.065121	0.408602	0.000107
C32	C	-0.912737	0.378649	0.000077
C33	C	-0.915055	0.247661	0.000085
N34	N	-0.990103	-0.171863	-0.346555
C35	C	-1.046530	-0.086517	0.423437
C36	C	-1.046538	-0.086517	0.576774
C37	C	-0.933651	-0.257207	0.576771
C38	C	-0.933640	-0.257200	0.423437
H39	H	-0.434089	0.022546	0.100419
H40	H	-0.887697	-0.326693	0.639206
N41	N	-1.146442	0.225990	0.000126
N42	N	-1.148505	0.109037	0.000129
H43	H	-1.204303	0.072579	0.000125
N44	N	-1.141763	0.490793	0.000156
N45	N	-1.157461	0.567234	0.102843
H46	H	-1.211594	0.625282	0.102880
N47	N	-0.567016	-0.179085	0.268833
N48	N	-0.519453	-0.131288	0.356673
H49	H	-0.543368	-0.087436	0.447845
N50	N	-0.413226	-0.176375	-0.269547
N51	N	-0.442302	-0.064885	-0.294230
H52	H	-0.425843	-0.021108	-0.386351
N53	N	-0.875992	-0.344381	0.345095
N54	N	-0.875994	-0.344361	0.208191
H55	H	-0.835282	-0.405929	0.152859
N56	N	-0.833728	0.430256	0.000099
N57	N	-0.782974	0.405608	0.102786
H58	H	-0.727172	0.442055	0.102811
N59	N	-0.838402	0.165475	0.000061
N60	N	-0.769343	0.210590	0.000040
H61	H	-0.715208	0.152547	0.000017
N62	N	-1.104138	0.000740	0.345149
N63	N	-1.154497	0.076981	0.413624
H64	H	-1.195165	0.138640	0.358338
H65	H	-0.561299	-0.194764	-0.242529
N66	N	-0.553172	-0.368536	0.150256
N67	N	-0.597981	-0.412153	0.054584
H68	H	-0.612120	-0.502124	0.062006
N69	N	-1.104198	0.000670	0.655060
N70	N	-1.154583	0.076863	0.586587
H71	H	-1.195307	0.138446	0.641874
H72	H	-0.433027	0.022288	-0.098541
N73	N	-0.584904	0.031980	0.125191
N74	N	-0.538099	0.080764	0.213516
H75	H	-0.563002	0.127955	0.301860
H76	H	-0.404876	-0.339166	-0.145432
N77	N	-0.584194	0.032413	-0.125207
N78	N	-0.536879	0.081307	-0.212527
H79	H	-0.561282	0.128793	-0.301035
H80	H	-0.547914	-0.344105	-0.144186
H81	H	-0.415406	-0.196290	0.243340
H82	H	-0.405033	-0.342424	0.138839
