data_functionalizedCrystal
_audit_creation_method	'MofGen! by Chris Wilmer'
_symmetry_space_group_name_H-M	'P1'
_symmetry_Int_Tables_number	1
_symmetry_cell_setting	triclinic
loop_
_symmetry_equiv_pos_as_xyz
  x,y,z
_cell_length_a	6.817900
_cell_length_b	13.168018
_cell_length_c	12.200875
_cell_angle_alpha	98.450290
_cell_angle_beta	107.143593
_cell_angle_gamma	105.756000
loop_
_atom_site_label
_atom_site_type_symbol
_atom_site_fract_x
_atom_site_fract_y
_atom_site_fract_z
V1	V	-4.089559	-0.149149	-0.373536
O2	O	-4.054054	0.006916	-0.350116
O3	O	-4.061634	-0.295496	-0.386667
O4	O	-4.058971	-0.146966	-0.529292
O5	O	-4.056736	-0.142643	-0.206504
V6	V	-4.568225	-0.130469	-0.351652
O7	O	-4.361469	-0.190126	-0.421540
O8	O	-4.746512	-0.089493	-0.303648
O9	O	-4.372944	0.015878	-0.338521
O10	O	-4.721126	-0.286534	-0.375072
O11	O	-4.718445	-0.136975	-0.518685
O12	O	-4.375607	-0.132653	-0.195897
C13	C	-3.911039	-0.331169	-0.384822
C14	C	-3.969613	-0.450810	-0.396596
C15	C	-4.106812	-0.634877	-0.519880
C16	C	-4.051784	-0.522464	-0.508821
C17	C	-3.942476	-0.491575	-0.295423
C18	C	-3.997504	-0.603988	-0.306482
C19	C	-4.079669	-0.675636	-0.418714
C20	C	-4.134683	-0.788050	-0.429771
C21	C	-4.025389	-0.757159	-0.216374
C22	C	-3.970361	-0.644747	-0.205316
C23	C	-3.907641	-0.141702	-0.566753
C24	C	-3.964051	-0.140885	-0.694187
C25	C	-4.067290	-0.139390	-0.927502
C26	C	-4.009832	-0.140221	-0.797669
C27	C	-4.186881	0.051545	-0.340364
C28	C	-4.107546	0.171185	-0.328598
C29	C	-4.190278	-0.137920	-0.158430
C30	C	-4.113106	-0.138732	-0.030995
H31	H	-4.003274	-0.790355	-0.133997
O32	O	-4.214857	-0.857618	-0.538825
C33	C	-4.409037	-0.844736	-0.607028
H34	H	-4.483818	-0.808439	-0.545742
H35	H	-4.528564	-0.927417	-0.664710
H36	H	-4.371751	-0.787936	-0.665784
O37	O	-3.862457	-0.422078	-0.186334
C38	C	-3.668221	-0.434900	-0.118116
H39	H	-3.665516	-0.519162	-0.154480
H40	H	-3.659383	-0.425804	-0.022243
H41	H	-3.522702	-0.370105	-0.122460
O42	O	-3.890680	-0.575299	-0.096215
C43	C	-3.878475	-0.635382	-0.009292
H44	H	-3.997460	-0.721951	-0.050649
H45	H	-3.922139	-0.595030	0.065161
H46	H	-3.705963	-0.637750	0.027899
O47	O	-4.186685	-0.704332	-0.628986
C48	C	-4.198779	-0.644249	-0.715908
H49	H	-4.207284	-0.561494	-0.678940
H50	H	-4.350667	-0.690454	-0.797088
H51	H	-4.048175	-0.632217	-0.741983
H52	H	-4.073904	-0.489285	-0.591201
