data_functionalizedCrystal
_audit_creation_method	'MofGen! by Chris Wilmer'
_symmetry_space_group_name_H-M	'P1'
_symmetry_Int_Tables_number	1
_symmetry_cell_setting	triclinic
loop_
_symmetry_equiv_pos_as_xyz
  x,y,z
_cell_length_a	14.908979
_cell_length_b	13.897447
_cell_length_c	13.897441
_cell_angle_alpha	90.028354
_cell_angle_beta	86.724737
_cell_angle_gamma	93.321111
loop_
_atom_site_label
_atom_site_type_symbol
_atom_site_fract_x
_atom_site_fract_y
_atom_site_fract_z
Zn1	Zn	1.379188	-0.298824	0.460421
Zn2	Zn	1.712522	0.034510	0.793754
Zn3	Zn	2.045855	0.367843	1.127087
Zn4	Zn	1.379090	-0.460149	0.299132
Zn5	Zn	1.712423	-0.126815	0.632465
Zn6	Zn	2.045757	0.206518	0.965798
Zn7	Zn	1.228328	-0.308179	0.308433
Zn8	Zn	1.561661	0.025154	0.641767
Zn9	Zn	1.894994	0.358487	0.975100
Zn10	Zn	1.228300	-0.469396	0.469674
Zn11	Zn	1.561633	-0.136063	0.803008
Zn12	Zn	1.894967	0.197270	1.136341
O13	O	1.303727	-0.384137	0.384415
O14	O	1.637060	-0.050804	0.717748
O15	O	1.970393	0.282530	1.051082
O16	O	1.505417	-0.312438	0.431260
O17	O	1.838751	0.020895	0.764593
O18	O	2.172084	0.354228	1.097927
O19	O	1.359061	-0.440035	0.165386
O20	O	1.692395	-0.106702	0.498719
O21	O	2.025728	0.226632	0.832052
O22	O	1.248392	-0.171953	0.328615
O23	O	1.581726	0.161380	0.661948
O24	O	1.915059	0.494713	0.995282
O25	O	1.505345	-0.430963	0.312762
O26	O	1.838678	-0.097630	0.646095
O27	O	2.172012	0.235704	0.979428
O28	O	1.359229	-0.165080	0.440279
O29	O	1.692562	0.168254	0.773613
O30	O	2.025896	0.501587	1.106946
O31	O	1.248297	-0.328384	0.172220
O32	O	1.581630	0.004950	0.505553
O33	O	1.914964	0.338283	0.838886
O34	O	1.102082	-0.337351	0.337588
O35	O	1.435416	-0.004017	0.670921
O36	O	1.768749	0.329316	1.004254
O37	O	1.248345	-0.446724	0.603427
O38	O	1.581679	-0.113391	0.936760
O39	O	1.915012	0.219943	1.270093
O40	O	1.102062	-0.455796	0.456051
O41	O	1.435395	-0.122463	0.789384
O42	O	1.768729	0.210871	1.122717
O43	O	1.359202	-0.321405	0.596628
O44	O	1.692536	0.011928	0.929961
O45	O	2.025869	0.345261	1.263295
O46	O	1.359035	-0.596360	0.321734
O47	O	1.692368	-0.263027	0.655068
O48	O	2.025701	0.070306	0.988401
O49	O	1.248250	-0.603154	0.447031
O50	O	1.581583	-0.269821	0.780365
O51	O	1.914917	0.063512	1.113698
C52	C	1.069339	-0.398593	0.398833
C53	C	1.402672	-0.065259	0.732166
C54	C	1.736006	0.268074	1.065500
C55	C	0.969067	-0.404800	0.405024
C56	C	1.302400	-0.071467	0.738358
C57	C	1.635734	0.261866	1.071691
C58	C	0.827751	-0.475311	0.475316
C59	C	1.161085	-0.141978	0.808650
C60	C	1.494418	0.191355	1.141983
C61	C	0.921966	-0.469479	0.469508
C62	C	1.255299	-0.136146	0.802841
C63	C	1.588632	0.197187	1.136174
C64	C	0.921947	-0.345951	0.346343
C65	C	1.255280	-0.012618	0.679676
C66	C	1.588613	0.320716	1.013010
C67	C	0.827732	-0.351783	0.352152
C68	C	1.161066	-0.018450	0.685485
C69	C	1.494399	0.314884	1.018818
C70	C	0.780638	-0.416464	0.416642
C71	C	1.113971	-0.083131	0.749975
C72	C	1.447304	0.250202	1.083308
C73	C	0.686422	-0.422291	0.422454
C74	C	1.019755	-0.088957	0.755788
C75	C	1.353088	0.244376	1.089121
C76	C	0.686404	-0.298768	0.299285
C77	C	1.019738	0.034565	0.632619
C78	C	1.353071	0.367899	0.965952
C79	C	0.780619	-0.292936	0.293477
C80	C	1.113952	0.040397	0.626810
C81	C	1.447285	0.373731	0.960143
C82	C	1.303653	-0.634756	0.384397
C83	C	1.636987	-0.301423	0.717730
C84	C	1.970320	0.031911	1.051064
C85	C	1.303704	-0.741967	0.384417
C86	C	1.637038	-0.408633	0.717750
C87	C	1.970371	-0.075300	1.051083
C88	C	1.303748	-0.829034	0.384436
C89	C	1.637081	-0.495700	0.717769
C90	C	1.970415	-0.162367	1.051103
C91	C	1.303811	-0.938262	0.384457
C92	C	1.637145	-0.604929	0.717790
C93	C	1.970478	-0.271596	1.051124
C94	C	1.539029	-0.369625	0.369941
C95	C	1.872363	-0.036292	0.703274
C96	C	2.205696	0.297041	1.036608
C97	C	1.639301	-0.363442	0.363773
C98	C	1.972635	-0.030108	0.697107
C99	C	2.305968	0.303225	1.030440
C100	C	1.303782	-0.384053	0.636005
C101	C	1.637115	-0.050719	0.969338
C102	C	1.970448	0.282614	1.302671
C103	C	1.303805	-0.384017	0.743217
C104	C	1.637139	-0.050683	1.076551
C105	C	1.970472	0.282650	1.409884
C106	C	1.303825	-0.132538	0.384453
C107	C	1.637158	0.200795	0.717786
C108	C	1.970491	0.534129	1.051119
C109	C	1.303867	-0.025321	0.384468
C110	C	1.637200	0.308012	0.717802
C111	C	1.970533	0.641345	1.051135
C112	C	1.303723	-0.384148	0.133801
C113	C	1.637057	-0.050815	0.467134
C114	C	1.970390	0.282518	0.800468
C115	C	1.303875	-0.383902	0.026578
C116	C	1.637208	-0.050568	0.359911
C117	C	1.970541	0.282765	0.693245
C118	C	1.303824	-0.383988	0.830286
C119	C	1.637157	-0.050655	1.163619
C120	C	1.970491	0.282678	1.496953
C121	C	1.303850	-0.383943	0.939517
C122	C	1.637183	-0.050610	1.272850
C123	C	1.970516	0.282723	1.606184
H124	H	0.648079	-0.474954	0.474969
H125	H	0.981412	-0.141621	0.808302
H126	H	1.314745	0.191713	1.141636
C127	C	0.832433	-0.221781	0.222551
C128	C	1.165767	0.111552	0.555884
C129	C	1.499100	0.444886	0.889218
N130	N	0.871459	-0.168180	0.169134
N131	N	1.204793	0.165154	0.502467
N132	N	1.538126	0.498487	0.835801
C133	C	0.634572	-0.234033	0.234737
C134	C	0.967905	0.099300	0.568071
C135	C	1.301239	0.432633	0.901404
N136	N	0.595531	-0.185276	0.186122
N137	N	0.928864	0.148058	0.519455
N138	N	1.262197	0.481391	0.852789
C139	C	0.973787	-0.534214	0.534056
C140	C	1.307121	-0.200881	0.867390
C141	C	1.640454	0.132453	1.200723
N142	N	1.012819	-0.582976	0.582677
N143	N	1.346153	-0.249642	0.916011
N144	N	1.679486	0.083691	1.249344
H145	H	0.789406	-0.527969	0.527835
H146	H	1.122740	-0.194636	0.861168
H147	H	1.456073	0.138698	1.194502
C148	C	0.973767	-0.274798	0.275420
C149	C	1.307100	0.058536	0.608753
C150	C	1.640434	0.391869	0.942086
N151	N	1.012799	-0.221198	0.222006
N152	N	1.346132	0.112135	0.555339
N153	N	1.679466	0.445468	0.888672
