data_functionalizedCrystal
_audit_creation_method	'MofGen! by Chris Wilmer'
_symmetry_space_group_name_H-M	'P1'
_symmetry_Int_Tables_number	1
_symmetry_cell_setting	triclinic
loop_
_symmetry_equiv_pos_as_xyz
  x,y,z
_cell_length_a	18.050589
_cell_length_b	19.077142
_cell_length_c	18.050582
_cell_angle_alpha	87.685367
_cell_angle_beta	90.018912
_cell_angle_gamma	92.276109
loop_
_atom_site_label
_atom_site_type_symbol
_atom_site_fract_x
_atom_site_fract_y
_atom_site_fract_z
Zn1	Zn	-0.341407	-1.075935	0.465532
Zn2	Zn	-0.465588	-1.075848	0.341347
Zn3	Zn	-0.336420	-0.958245	0.336368
Zn4	Zn	-0.460558	-0.958198	0.460510
O5	O	-0.400993	-1.017057	0.400939
O6	O	-0.362071	-1.174414	0.453244
O7	O	-0.448472	-1.060232	0.236762
O8	O	-0.233160	-0.973913	0.353520
O9	O	-0.453307	-1.174350	0.362006
O10	O	-0.236823	-1.060379	0.448416
O11	O	-0.353573	-0.973829	0.233103
O12	O	-0.348696	-0.859749	0.348651
O13	O	-0.444734	-0.973832	0.565102
O14	O	-0.439899	-0.859714	0.439857
O15	O	-0.357194	-1.060333	0.568791
O16	O	-0.568843	-1.060186	0.357137
O17	O	-0.565147	-0.973748	0.444685
C18	C	-0.393211	-0.834194	0.393169
C19	C	-0.389900	-0.755964	0.389862
C20	C	-0.593942	-1.016972	0.400923
C21	C	-0.676489	-1.017000	0.400944
C22	C	-0.435900	-0.719212	0.435721
C23	C	-0.432779	-0.645707	0.432617
C24	C	-0.383661	-0.608956	0.383652
C25	C	-0.337655	-0.645713	0.337792
C26	C	-0.340773	-0.719217	0.340899
C27	C	-0.369232	-0.389124	0.369277
C28	C	-0.366120	-0.315615	0.366171
C29	C	-0.461243	-0.315614	0.460999
C30	C	-0.464360	-0.389119	0.464099
C31	C	-0.418352	-0.425870	0.418241
N32	N	-0.380471	-0.533822	0.380477
N33	N	-0.421538	-0.501003	0.421421
C34	C	-0.873959	-0.970041	0.448538
C35	C	-0.922665	-0.952889	0.380043
C36	C	-0.827622	-1.017069	0.400957
C37	C	-0.925999	-1.034256	0.469460
C38	C	-0.973610	-1.017134	0.400975
C39	C	-0.875240	-0.999883	0.332425
C40	C	-0.878571	-1.081279	0.421889
C41	C	-0.927255	-1.064151	0.353349
C42	C	-0.743522	-1.017029	0.400947
C43	C	-1.057708	-1.017174	0.400977
C44	C	-0.207292	-1.017161	0.400972
C45	C	-0.124748	-1.017206	0.400986
C46	C	-0.400959	-1.017087	0.594646
C47	C	-0.400945	-1.017100	0.677193
C48	C	-0.408802	-0.200633	0.408732
C49	C	-0.412120	-0.278863	0.412030
C50	C	-0.400975	-1.017067	0.207988
C51	C	-0.400786	-1.017190	0.125448
C52	C	-0.448470	-0.970105	0.924014
C53	C	-0.380002	-0.952913	0.873892
C54	C	-0.400838	-1.017159	0.974316
C55	C	-0.469353	-1.034289	0.877353
C56	C	-0.400894	-1.017129	0.828329
C57	C	-0.332333	-0.999935	0.925280
C58	C	-0.421731	-1.081340	0.928746
C59	C	-0.353217	-1.064173	0.878648
C60	C	-0.400807	-1.017176	1.058415
C61	C	-0.400918	-1.017113	0.744232
H62	H	-0.475900	-0.749130	0.475592
H63	H	-0.362351	-0.898624	0.849888
O64	O	-0.505890	-0.279989	0.505655
C65	C	-0.490504	-0.297973	0.580459
H66	H	-0.464225	-0.351355	0.584298
H67	H	-0.544250	-0.300475	0.613780
H68	H	-0.450598	-0.256631	0.603786
H69	H	-0.439402	-1.135614	0.952766
O70	O	-0.318495	-0.279873	0.318542
C71	C	-0.358890	-0.237298	0.268713
H72	H	-0.418308	-0.259429	0.264929
H73	H	-0.331891	-0.236434	0.211581
H74	H	-0.359134	-0.181605	0.289334
H75	H	-0.274395	-0.985372	0.946264
H76	H	-0.950456	-1.103949	0.313071
O77	O	-0.496336	-0.922572	0.947949
C78	C	-0.457366	-0.872380	0.989834
H79	H	-0.404327	-0.895641	1.012491
H80	H	-0.493513	-0.857057	1.037890
H81	H	-0.442745	-0.823858	0.952995
O82	O	-0.848906	-0.982512	0.263246
C83	C	-0.908803	-0.970385	0.214870
H84	H	-0.960995	-0.998893	0.238048
H85	H	-0.895748	-0.990814	0.158036
H86	H	-0.918101	-0.911643	0.209406
H87	H	-0.312912	-1.103952	0.858801
O88	O	-0.324513	-0.424708	0.324659
C89	C	-0.280481	-0.376506	0.280789
H90	H	-0.308679	-0.324100	0.275947
H91	H	-0.273369	-0.397726	0.223188
H92	H	-0.223788	-0.368715	0.307757
O93	O	-0.855365	-1.145986	0.443156
C94	C	-0.881214	-1.163878	0.515430
H95	H	-0.893004	-1.113990	0.545309
H96	H	-0.837243	-1.194062	0.547195
H97	H	-0.934293	-1.198049	0.512230
H98	H	-0.303310	-0.749139	0.303560
O99	O	-0.846140	-0.922435	0.496379
C100	C	-0.868535	-0.854843	0.474049
H101	H	-0.882362	-0.853559	0.412394
H102	H	-0.821693	-0.814664	0.484689
H103	H	-0.919656	-0.841648	0.507007
H104	H	-0.297659	-0.615784	0.297926
O105	O	-0.538502	-1.051513	0.852296
C106	C	-0.588500	-1.001769	0.875320
H107	H	-0.565334	-0.974980	0.926181
H108	H	-0.644107	-1.029339	0.889808
H109	H	-0.596490	-0.960766	0.828593
H110	H	-0.942140	-0.898619	0.362354
H111	H	-0.470238	-0.615787	0.469959
O112	O	-0.952447	-1.051613	0.538600
C113	C	-0.892602	-1.063084	0.587229
H114	H	-0.841921	-1.077048	0.554031
H115	H	-0.908133	-1.108093	0.628477
H116	H	-0.879361	-1.013389	0.618501
O117	O	-0.511969	-0.424891	0.511712
C118	C	-0.471554	-0.467427	0.561561
H119	H	-0.415707	-0.478455	0.535926
H120	H	-0.504009	-0.519105	0.573653
H121	H	-0.462264	-0.439118	0.615410
