data_functionalizedCrystal
_audit_creation_method	'MofGen! by Chris Wilmer'
_symmetry_space_group_name_H-M	'P1'
_symmetry_Int_Tables_number	1
_symmetry_cell_setting	triclinic
loop_
_symmetry_equiv_pos_as_xyz
  x,y,z
_cell_length_a	16.625546
_cell_length_b	16.120566
_cell_length_c	16.625539
_cell_angle_alpha	92.920705
_cell_angle_beta	89.969603
_cell_angle_gamma	92.881503
loop_
_atom_site_label
_atom_site_type_symbol
_atom_site_fract_x
_atom_site_fract_y
_atom_site_fract_z
Zn1	Zn	-0.383577	-1.274562	-0.518393
Zn2	Zn	0.116423	-0.774562	-0.018393
Zn3	Zn	-0.518415	-1.274462	-0.383551
Zn4	Zn	-0.018415	-0.774462	0.116449
Zn5	Zn	-0.376760	-1.135142	-0.376738
Zn6	Zn	0.123240	-0.635142	0.123262
Zn7	Zn	-0.511525	-1.135112	-0.511508
Zn8	Zn	-0.011525	-0.635112	-0.011508
O9	O	-0.447569	-1.204819	-0.447547
O10	O	0.052431	-0.704819	0.052453
O11	O	-0.407200	-1.391215	-0.506239
O12	O	0.092800	-0.891215	-0.006239
O13	O	-0.499655	-1.255952	-0.269813
O14	O	0.000345	-0.755952	0.230187
O15	O	-0.264835	-1.153691	-0.395559
O16	O	0.235165	-0.653691	0.104441
O17	O	-0.506265	-1.391141	-0.407171
O18	O	-0.006265	-0.891141	0.092829
O19	O	-0.269843	-1.256122	-0.499633
O20	O	0.230157	-0.756122	0.000367
O21	O	-0.395582	-1.153594	-0.264807
O22	O	0.104418	-0.653594	0.235193
O23	O	-0.388901	-1.018472	-0.388882
O24	O	0.111099	-0.518472	0.111118
O25	O	-0.494522	-1.153639	-0.625255
O26	O	0.005478	-0.653639	-0.125255
O27	O	-0.487912	-1.018450	-0.487897
O28	O	0.012088	-0.518450	0.012103
O29	O	-0.400519	-1.256093	-0.630314
O30	O	0.099481	-0.756093	-0.130314
O31	O	-0.630331	-1.255922	-0.400494
O32	O	-0.130331	-0.755922	0.099506
O33	O	-0.625269	-1.153542	-0.494504
O34	O	-0.125269	-0.653542	0.005496
C35	C	-0.436919	-0.988211	-0.436904
C36	C	0.063081	-0.488211	0.063096
C37	C	-0.432382	-0.895545	-0.432370
C38	C	0.067618	-0.395545	0.067630
C39	C	-0.657056	-1.204741	-0.447510
C40	C	-0.157056	-0.704741	0.052490
C41	C	-0.746680	-1.204783	-0.447524
C42	C	-0.246680	-0.704783	0.052476
C43	C	-0.424081	-0.725883	-0.424098
C44	C	0.075919	-0.225883	0.075902
C45	C	-0.471128	-0.684596	-0.471003
C46	C	0.028872	-0.184596	0.028997
C47	C	-0.466509	-0.590191	-0.466401
C48	C	0.033491	-0.090191	0.033599
C49	C	-0.428699	-0.820297	-0.428699
C50	C	0.071301	-0.320297	0.071301
C51	C	-1.074862	-1.204929	-0.447615
C52	C	-0.574862	-0.704929	0.052385
C53	C	-0.983552	-1.204885	-0.447592
C54	C	-0.483552	-0.704885	0.052408
C55	C	-0.910774	-1.204855	-0.447569
C56	C	-0.410774	-0.704855	0.052431
C57	C	-0.819458	-1.204813	-0.447547
C58	C	-0.319458	-0.704813	0.052453
C59	C	-0.237266	-1.204921	-0.447604
C60	C	0.262734	-0.704921	0.052396
C61	C	-0.147647	-1.204965	-0.447628
C62	C	0.352353	-0.704965	0.052372
C63	C	-0.447512	-1.204874	-0.657859
C64	C	0.052488	-0.704874	-0.157859
C65	C	-0.447488	-1.204897	-0.747481
C66	C	0.052512	-0.704897	-0.247481
C67	C	-0.458264	-0.422274	-0.458220
C68	C	0.041736	0.077726	0.041780
C69	C	-0.462828	-0.514940	-0.462734
C70	C	0.037172	-0.014940	0.037266
C71	C	-0.447399	-1.204935	-1.075659
C72	C	0.052601	-0.704935	-0.575659
C73	C	-0.447426	-1.204922	-0.984350
C74	C	0.052574	-0.704922	-0.484350
C75	C	-0.447444	-1.204916	-0.911573
C76	C	0.052556	-0.704916	-0.411573
C77	C	-0.447470	-1.204903	-0.820258
C78	C	0.052530	-0.704903	-0.320258
C79	C	-0.447571	-1.204813	-0.238056
C80	C	0.052429	-0.704813	0.261944
C81	C	-0.447376	-1.204952	-0.148442
C82	C	0.052624	-0.704952	0.351558
H83	H	-0.514874	-0.720151	-0.514616
H84	H	-0.014874	-0.220151	-0.014616
H85	H	-0.380337	-0.690331	-0.380489
H86	H	0.119663	-0.190331	0.119511
