data_functionalizedCrystal
_audit_creation_method	'MofGen! by Chris Wilmer'
_symmetry_space_group_name_H-M	'P1'
_symmetry_Int_Tables_number	1
_symmetry_cell_setting	triclinic
loop_
_symmetry_equiv_pos_as_xyz
  x,y,z
_cell_length_a	10.654544
_cell_length_b	9.130307
_cell_length_c	11.026607
_cell_angle_alpha	90.001728
_cell_angle_beta	83.464508
_cell_angle_gamma	89.995168
loop_
_atom_site_label
_atom_site_type_symbol
_atom_site_fract_x
_atom_site_fract_y
_atom_site_fract_z
O1	O	-1.704905	0.121911	0.170766
O2	O	-1.342958	0.121889	0.187036
O3	O	-1.493934	0.121893	0.001995
O4	O	-1.553929	0.121907	0.355807
O5	O	-1.493927	-0.121706	0.001994
O6	O	-1.342951	-0.121710	0.187034
O7	O	-1.704898	-0.121688	0.170764
Cu8	Cu	-1.523924	-0.143942	0.178899
Cu9	Cu	-1.523932	0.144142	0.178901
O10	O	-1.553923	-0.121692	0.355805
C11	C	-1.295897	0.000086	0.185840
C12	C	-1.155678	0.000078	0.182266
N13	N	-1.523928	-0.346565	0.178897
C14	C	-1.657697	-0.346551	0.015092
C15	C	-1.724590	-0.423211	-0.066807
C16	C	-1.724603	-0.576545	-0.066808
C17	C	-1.657711	-0.653222	0.015097
C18	C	-1.590818	-0.576562	0.096996
C19	C	-1.590816	-0.423225	0.096990
C20	C	-1.457043	-0.576575	0.260793
C21	C	-1.457036	-0.423242	0.260801
C22	C	-1.390151	-0.653252	0.342697
C23	C	-1.323263	-0.576592	0.424604
C24	C	-1.323255	-0.423249	0.424602
C25	C	-1.390142	-0.346582	0.342700
C26	C	-0.912266	0.000115	0.396819
C27	C	-0.988183	0.000116	0.509133
C28	C	-1.119931	0.000103	0.512495
C29	C	-1.175764	0.000093	0.403532
C30	C	-1.099847	0.000092	0.291218
C31	C	-0.968097	0.000101	0.287867
C32	C	-1.079761	0.000077	0.069952
C33	C	-0.948013	0.000079	0.066587
C34	C	-1.135594	0.000067	-0.039012
C35	C	-1.059677	0.000055	-0.151328
C36	C	-0.927921	0.000067	-0.154686
C37	C	-0.872096	0.000078	-0.045727
C38	C	-0.751959	0.000106	0.171964
C39	C	-0.892180	0.000089	0.175551
C40	C	-1.482862	0.000094	-0.043310
C41	C	-1.449868	0.000097	-0.178301
N42	N	-1.523936	0.346765	0.178894
C43	C	-1.540971	0.000105	-0.251340
C44	C	-1.506872	0.000108	-0.390861
C45	C	-1.564994	0.000110	0.401110
C46	C	-1.597989	0.000116	0.536101
H47	H	-1.657706	-0.221699	0.015094
H48	H	-1.346626	0.000101	-0.219062
Br49	Br	-1.232452	-0.319224	0.535748
H50	H	-1.390147	-0.221729	0.342696
H51	H	-1.779068	-0.638961	-0.133502
Br52	Br	-0.733464	0.000094	0.392263
H53	H	-1.181744	0.000102	0.603951
Br54	Br	-1.713054	0.000131	-0.183418
H55	H	-1.701237	0.000232	-0.423146
Br56	Br	-0.824901	0.000080	-0.307121
H57	H	-1.283041	0.000100	0.406279
Br58	Br	-1.657703	-0.861319	0.015077
Br59	Br	-1.334783	0.000119	-0.458778
H60	H	-1.779050	-0.360767	-0.133496
H61	H	-1.390158	-0.778104	0.342688
Br62	Br	-1.232478	-0.680656	0.535739
H63	H	-1.242871	0.000064	-0.036266
H64	H	-0.942709	0.000129	0.597848
H65	H	-1.105147	0.000057	-0.240037
Br66	Br	-0.693294	0.000079	-0.050275
