data_functionalizedCrystal
_audit_creation_method	'MofGen! by Chris Wilmer'
_symmetry_space_group_name_H-M	'P1'
_symmetry_Int_Tables_number	1
_symmetry_cell_setting	triclinic
loop_
_symmetry_equiv_pos_as_xyz
  x,y,z
_cell_length_a	29.839134
_cell_length_b	19.805405
_cell_length_c	19.805399
_cell_angle_alpha	90.030709
_cell_angle_beta	90.025669
_cell_angle_gamma	90.021271
loop_
_atom_site_label
_atom_site_type_symbol
_atom_site_fract_x
_atom_site_fract_y
_atom_site_fract_z
Zn1	Zn	-0.686783	0.269562	-0.382870
Zn2	Zn	-0.686730	0.382753	-0.269678
Zn3	Zn	-0.611661	0.269574	-0.269677
Zn4	Zn	-0.611633	0.382704	-0.382808
O5	O	-0.649202	0.326148	-0.326258
O6	O	-0.749643	0.284593	-0.367881
O7	O	-0.676761	0.367765	-0.174962
O8	O	-0.621660	0.174855	-0.284718
O9	O	-0.749604	0.367754	-0.284720
O10	O	-0.676852	0.174847	-0.367880
O11	O	-0.621608	0.284612	-0.174961
O12	O	-0.548790	0.284565	-0.284658
O13	O	-0.621612	0.367671	-0.477533
O14	O	-0.548770	0.367682	-0.367774
O15	O	-0.676825	0.284546	-0.477578
O16	O	-0.676734	0.477463	-0.284660
O17	O	-0.621561	0.477428	-0.367775
C18	C	-0.649151	0.502004	-0.326226
C19	C	-0.649171	0.577236	-0.326234
C20	C	-0.532479	0.326120	-0.326210
C21	C	-0.482545	0.326124	-0.326205
C22	C	-0.766380	0.326178	-0.326308
C23	C	-0.816314	0.326190	-0.326329
C24	C	-0.172900	0.369491	-0.369484
C25	C	0.014773	0.369510	-0.369514
O26	O	0.039039	0.406351	-0.406283
N27	N	0.038240	0.326173	-0.326309
C28	C	0.014787	0.282825	-0.283097
O29	O	0.039054	0.245960	-0.246354
C30	C	-0.172885	0.282803	-0.283071
C31	C	-0.196350	0.326148	-0.326274
C32	C	-0.196365	0.412832	-0.412684
C33	C	-0.243281	0.412830	-0.412673
C34	C	-0.266731	0.369486	-0.369463
C35	C	-0.243266	0.326145	-0.326263
C36	C	-0.196338	0.239452	-0.239863
C37	C	-0.243259	0.239449	-0.239861
C38	C	-0.266724	0.282794	-0.283064
C39	C	-0.313632	0.282799	-0.283042
N40	N	-0.337099	0.326136	-0.326247
C41	C	-0.313649	0.369480	-0.369457
C42	C	0.113317	0.282841	-0.283113
C43	C	0.160235	0.282847	-0.283119
C44	C	0.160218	0.369531	-0.369537
C45	C	0.113299	0.369528	-0.369527
C46	C	0.089850	0.326178	-0.326318
C47	C	-0.412175	0.369472	-0.369432
C48	C	-0.459094	0.369467	-0.369415
C49	C	-0.459073	0.282780	-0.283000
C50	C	-0.412158	0.282787	-0.283013
C51	C	-0.388710	0.326135	-0.326235
O52	O	-0.337926	0.245972	-0.246298
O53	O	-0.337924	0.406329	-0.406205
C54	C	-0.125985	0.369494	-0.369495
C55	C	-0.102520	0.326153	-0.326295
C56	C	-0.125970	0.282810	-0.283084
C57	C	-0.055602	0.326159	-0.326300
C58	C	-0.032151	0.369503	-0.369511
C59	C	-0.055619	0.412840	-0.412716
C60	C	-0.102534	0.412837	-0.412705
C61	C	-0.102502	0.239473	-0.239880
C62	C	-0.055587	0.239479	-0.239893
C63	C	-0.032137	0.282823	-0.283104
C64	C	-0.649221	0.326101	-0.502801
C65	C	-0.649230	0.326081	-0.578033
C66	C	-0.649265	0.149606	-0.326306
C67	C	-0.649291	0.074374	-0.326326
C68	C	-0.677927	0.612577	-0.283001
C69	C	-0.677946	0.683265	-0.283016
C70	C	-0.649206	0.718612	-0.326261
C71	C	-0.620448	0.683267	-0.369499
C72	C	-0.620432	0.612579	-0.369487
C73	C	-0.620514	0.968340	-0.369549
C74	C	-0.620532	1.039032	-0.369557
C75	C	-0.678029	1.039026	-0.283078
C76	C	-0.678013	0.968338	-0.283066
C77	C	-0.649257	0.932999	-0.326306
C78	C	-0.649237	0.856351	-0.326291
C79	C	-0.649223	0.795259	-0.326274
C80	C	-0.620520	0.282780	-0.613376
C81	C	-0.620526	0.282767	-0.684065
C82	C	-0.649245	0.326052	-0.719409
C83	C	-0.677956	0.369359	-0.684061
C84	C	-0.677947	0.369375	-0.613374
C85	C	-0.677992	0.369295	-0.969134
C86	C	-0.677999	0.369274	-1.039826
C87	C	-0.620570	0.282687	-1.039826
C88	C	-0.620562	0.282703	-0.969138
C89	C	-0.649271	0.326012	-0.933796
C90	C	-0.649263	0.326027	-0.857148
C91	C	-0.649255	0.326035	-0.796056
C92	C	-0.649208	0.326146	-0.150402
C93	C	-0.649287	0.325976	-0.075171
H94	H	-0.478197	0.404766	-0.404597
Br95	Br	-0.716978	0.731225	-0.224344
H96	H	0.179337	0.247558	-0.247932
H97	H	-0.393089	0.404768	-0.404628
H98	H	0.094229	0.247539	-0.247923
H99	H	-0.597146	0.247508	-0.712838
H100	H	-0.701414	0.939561	-0.247850
Br101	Br	-0.717057	1.086989	-0.224396
Br102	Br	-0.023784	0.471667	-0.471353
H103	H	-0.701329	0.583802	-0.247783
H104	H	-0.036486	0.204183	-0.204706
H105	H	-0.597136	0.247528	-0.584605
Br106	Br	-0.134373	0.471666	-0.471340
H107	H	-0.121591	0.204176	-0.204692
H108	H	-0.597129	1.067809	-0.404777
Br109	Br	-0.581489	0.920388	-0.428232
H110	H	-0.597049	0.712052	-0.404713
H111	H	0.094197	0.404822	-0.404708
H112	H	-0.597016	0.583806	-0.404693
Br113	Br	-0.581588	0.223953	-0.921175
Br114	Br	-0.716909	0.428149	-0.565407
H115	H	-0.597193	0.247425	-1.068610
Br116	Br	-0.716977	0.428023	-1.087793
Br117	Br	-0.716957	0.428067	-0.921179
Br118	Br	-0.716928	0.428111	-0.732027
H119	H	-0.262382	0.448124	-0.447855
Br120	Br	0.192052	0.428351	-0.428183
H121	H	-0.177241	0.204158	-0.204680
Br122	Br	-0.380311	0.223975	-0.224368
Br123	Br	-0.275081	0.180611	-0.181218
H124	H	-0.177277	0.448128	-0.447875
Br125	Br	-0.490908	0.223960	-0.224359
