data_functionalizedCrystal
_audit_creation_method	'MofGen! by Chris Wilmer'
_symmetry_space_group_name_H-M	'P1'
_symmetry_Int_Tables_number	1
_symmetry_cell_setting	triclinic
loop_
_symmetry_equiv_pos_as_xyz
  x,y,z
_cell_length_a	14.853568
_cell_length_b	14.853554
_cell_length_c	13.330367
_cell_angle_alpha	90.006681
_cell_angle_beta	90.004654
_cell_angle_gamma	96.367681
loop_
_atom_site_label
_atom_site_type_symbol
_atom_site_fract_x
_atom_site_fract_y
_atom_site_fract_z
O1	O	-1.196364	0.117693	-0.083357
O2	O	-0.933904	0.131714	-0.083373
O3	O	-1.072151	-0.006527	-0.083359
O4	O	-1.058117	0.255934	-0.083370
O5	O	-1.072128	-0.006502	0.083488
O6	O	-0.933881	0.131739	0.083474
O7	O	-1.196341	0.117718	0.083490
Cu8	Cu	-1.065109	0.124731	0.098717
Cu9	Cu	-1.065136	0.124701	-0.098599
O10	O	-1.058094	0.255959	0.083477
C11	C	-0.900304	0.131091	0.000049
C12	C	-0.800220	0.129187	0.000042
C13	C	-1.071506	-0.040104	0.000063
C14	C	-1.069607	-0.140188	0.000061
C15	C	-0.387691	0.039020	0.000070
C16	C	-0.366402	0.203254	0.000062
C17	C	-0.460436	0.205044	0.000059
C18	C	-0.518102	0.123821	0.000059
C19	C	-0.481734	0.040808	0.000063
C20	C	-0.496811	0.288056	0.000044
C21	C	-0.590850	0.289849	0.000039
C22	C	-0.648517	0.208625	0.000047
C23	C	-0.612144	0.125609	0.000053
C24	C	-0.669810	0.044386	0.000053
C25	C	-0.633439	-0.038632	0.000066
C26	C	-0.539401	-0.040416	0.000071
C27	C	-0.742555	0.210410	0.000042
C28	C	-0.763853	0.046174	0.000047
N29	N	-1.065097	0.124751	0.237498
C30	C	-0.229941	0.118340	0.000067
C31	C	-0.330025	0.120243	0.000069
C32	C	-1.058739	0.289535	0.000052
C33	C	-1.060638	0.389620	0.000048
C34	C	-1.068723	0.812785	-0.090893
C35	C	-1.068698	0.812797	0.091010
C36	C	-1.066903	0.718764	0.091010
C37	C	-1.066019	0.671737	0.000056
C38	C	-1.066931	0.718743	-0.090896
C39	C	-1.066000	0.671751	0.181960
C40	C	-1.064206	0.577712	0.181963
C41	C	-1.063316	0.530683	0.091009
C42	C	-1.064226	0.577695	0.000052
C43	C	-1.063343	0.530667	-0.090901
C44	C	-1.064247	0.577678	-0.181858
C45	C	-1.066040	0.671714	-0.181851
C46	C	-1.061522	0.436647	0.091001
C47	C	-1.061550	0.436625	-0.090905
C48	C	-1.119880	0.179480	0.710112
C49	C	-1.010402	0.069916	0.710098
C50	C	-1.010390	0.069928	0.605080
C51	C	-1.065125	0.124716	0.552573
C52	C	-1.119872	0.179491	0.605084
C53	C	-0.955651	0.015147	0.552561
C54	C	-0.955637	0.015156	0.447537
C55	C	-1.010368	0.069949	0.395027
C56	C	-1.065117	0.124727	0.447545
C57	C	-1.119852	0.179515	0.395037
C58	C	-1.174596	0.234299	0.447553
C59	C	-1.174603	0.234285	0.552574
C60	C	-1.010362	0.069964	0.290006
C61	C	-1.119844	0.179527	0.290009
N62	N	-1.065145	0.124692	0.762619
H63	H	-0.810799	-0.019969	0.000051
N64	N	-1.175813	0.235422	0.763748
N65	N	-1.259812	0.224781	0.752002
H66	H	-1.299318	0.264290	0.789883
N67	N	-1.230513	0.290244	0.606219
N68	N	-1.195387	0.349777	0.664850
H69	H	-1.234875	0.389296	0.702741
H70	H	-1.060789	0.398375	0.165057
H71	H	-0.965792	0.025357	0.247252
H72	H	-1.063469	0.539444	0.256026
H73	H	-1.164412	0.224147	0.247265
N74	N	-0.899711	-0.040803	0.393914
N75	N	-0.850844	-0.089714	0.440809
H76	H	-0.811341	-0.129232	0.402938
H77	H	-0.965845	0.025304	0.752856
H78	H	-0.911096	-0.029466	0.595321
H79	H	-1.219166	0.278903	0.404787
H80	H	-0.680402	-0.104763	0.000059
H81	H	-0.449853	0.354183	0.000033
N82	N	-1.066960	0.719748	-0.274745
N83	N	-1.068563	0.803709	-0.274725
H84	H	-1.069213	0.837638	-0.340330
N85	N	-1.060637	0.388607	-0.183823
N86	N	-1.061442	0.430593	-0.265020
H87	H	-1.060796	0.396681	-0.330645
N88	N	-1.069638	0.860813	-0.183790
N89	N	-1.071230	0.944775	-0.183781
H90	H	-1.071875	0.978698	-0.249391
H91	H	-0.509779	-0.108005	0.000105
H92	H	-0.358073	-0.028571	0.000084
H93	H	-1.069424	0.851092	0.165061
H94	H	-0.620455	0.357447	0.000029
N95	N	-0.307486	0.286205	0.000064
N96	N	-0.252627	0.303535	0.070391
H97	H	-0.211011	0.362123	0.070392
N98	N	-0.779693	0.295207	0.000020
N99	N	-0.728196	0.367720	0.000011
H100	H	-0.754423	0.427613	-0.000003
H101	H	-1.066727	0.710046	0.256010
N102	N	-1.063365	0.529635	-0.274763
N103	N	-1.125875	0.468929	-0.295048
H104	H	-1.125255	0.434995	-0.360660
