data_functionalizedCrystal
_audit_creation_method	'MofGen! by Chris Wilmer'
_symmetry_space_group_name_H-M	'P1'
_symmetry_Int_Tables_number	1
_symmetry_cell_setting	triclinic
loop_
_symmetry_equiv_pos_as_xyz
  x,y,z
_cell_length_a	17.038272
_cell_length_b	17.038272
_cell_length_c	15.500227
_cell_angle_alpha	86.966746
_cell_angle_beta	93.043705
_cell_angle_gamma	91.111556
loop_
_atom_site_label
_atom_site_type_symbol
_atom_site_fract_x
_atom_site_fract_y
_atom_site_fract_z
O1	O	-1.052160	-0.167139	-0.071836
O2	O	-0.552160	0.332861	0.428164
O3	O	-0.824350	-0.164430	-0.071862
O4	O	-0.324350	0.335570	0.428138
O5	O	-0.936901	-0.051879	-0.071842
O6	O	-0.436901	0.448121	0.428158
O7	O	-0.939609	-0.279690	-0.071856
O8	O	-0.439609	0.220310	0.428144
O9	O	-0.930069	-0.058680	0.072045
O10	O	-0.430069	0.441320	0.572045
O11	O	-0.817518	-0.171231	0.072026
O12	O	-0.317518	0.328769	0.572026
O13	O	-1.045328	-0.173940	0.072051
O14	O	-0.545328	0.326060	0.572051
Cu15	Cu	-0.930799	-0.173207	0.085177
Cu16	Cu	-0.430799	0.326793	0.585177
Cu17	Cu	-0.938879	-0.165164	-0.084987
Cu18	Cu	-0.438879	0.334836	0.415013
O19	O	-0.932777	-0.286491	0.072032
O20	O	-0.432777	0.213509	0.572032
C21	C	-0.931022	-0.025987	0.000101
C22	C	-0.431022	0.474013	0.500101
C23	C	-0.923674	0.061297	0.000100
C24	C	-0.423674	0.561297	0.500100
C25	C	-0.791641	-0.165368	0.000079
C26	C	-0.291641	0.334632	0.500079
C27	C	-0.704358	-0.158019	0.000069
C28	C	-0.204358	0.341981	0.500069
C29	C	-1.078037	-0.173003	0.000109
C30	C	-0.578037	0.326997	0.500109
C31	C	-1.165320	-0.180351	0.000113
C32	C	-0.665320	0.319649	0.500113
C33	C	-0.658749	-0.225482	0.000066
C34	C	-0.158749	0.274518	0.500066
C35	C	-0.576737	-0.218574	0.000078
C36	C	-0.076737	0.281426	0.500078
C37	C	-0.540335	-0.144201	0.000088
C38	C	-0.040335	0.355799	0.500088
C39	C	-0.585950	-0.076733	0.000094
C40	C	-0.085950	0.423267	0.500094
C41	C	-0.667961	-0.083642	0.000088
C42	C	-0.167961	0.416358	0.500088
C43	C	-0.292946	-0.119792	0.000112
C44	C	0.207054	0.380208	0.500112
C45	C	-0.210929	-0.112887	0.000116
C46	C	0.289071	0.387113	0.500116
C47	C	-0.201721	-0.254729	0.000102
C48	C	0.298279	0.245271	0.500102
C49	C	-0.283734	-0.261632	0.000091
C50	C	0.216266	0.238368	0.500091
C51	C	-0.329342	-0.194164	0.000101
C52	C	0.170658	0.305836	0.500101
C53	C	-0.456505	-0.137138	0.000098
C54	C	0.043495	0.362862	0.500098
C55	C	-0.413170	-0.201228	0.000098
C56	C	0.086830	0.298772	0.500098
C57	C	-0.938656	-0.312383	0.000087
C58	C	-0.438656	0.187617	0.500087
C59	C	-0.946004	-0.399667	0.000082
C60	C	-0.446004	0.100333	0.500082
N61	N	-0.925122	-0.178864	0.204861
N62	N	-0.425122	0.321136	0.704861
C63	C	-0.991137	0.106906	0.000108
C64	C	-0.491137	0.606906	0.500108
C65	C	-0.984229	0.188918	0.000100
C66	C	-0.484229	0.688918	0.500100
C67	C	-0.909856	0.225320	0.000088
C68	C	-0.409856	0.725320	0.500088
C69	C	-0.842388	0.179705	0.000077
C70	C	-0.342388	0.679705	0.500077
C71	C	-0.849297	0.097694	0.000080
C72	C	-0.349297	0.597694	0.500080
C73	C	-0.885446	0.472708	0.000074
C74	C	-0.385446	0.972708	0.500074
C75	C	-0.878541	0.554725	0.000074
C76	C	-0.378541	1.054725	0.500074
C77	C	-1.020383	0.563932	0.000094
C78	C	-0.520383	1.063932	0.500094
C79	C	-1.027286	0.481919	0.000102
C80	C	-0.527286	0.981919	0.500102
C81	C	-0.959818	0.436312	0.000087
C82	C	-0.459818	0.936312	0.500087
C83	C	-0.902792	0.309149	0.000082
C84	C	-0.402792	0.809149	0.500082
C85	C	-0.966882	0.352484	0.000087
C86	C	-0.466882	0.852484	0.500087
N87	N	-0.944561	-0.159501	-0.204671
N88	N	-0.444561	0.340499	0.295329
C89	C	-0.972833	-0.131192	0.250145
C90	C	-0.472833	0.368808	0.750145
C91	C	-0.968547	-0.135478	0.340718
C92	C	-0.468547	0.364522	0.840718
C93	C	-0.916555	-0.187440	0.386003
C94	C	-0.416555	0.312560	0.886003
C95	C	-0.868839	-0.235114	0.340712
C96	C	-0.368839	0.264886	0.840712
C97	C	-0.873121	-0.230823	0.250142
C98	C	-0.373121	0.269177	0.750142
C99	C	-0.901128	-0.202884	0.659467
C100	C	-0.401128	0.297116	1.159467
C101	C	-0.896851	-0.207172	0.750044
C102	C	-0.396851	0.292828	1.250044
C103	C	-0.996559	-0.107535	0.750044
C104	C	-0.496559	0.392465	1.250044
C105	C	-1.000840	-0.103252	0.659471
C106	C	-0.500840	0.396748	1.159471
C107	C	-0.953121	-0.150923	0.614188
C108	C	-0.453121	0.349077	1.114188
C109	C	-0.912174	-0.191824	0.478582
C110	C	-0.412174	0.308176	0.978582
C111	C	-0.957498	-0.146534	0.521610
C112	C	-0.457498	0.353466	1.021610
H113	H	-0.688381	-0.286045	0.000058
H114	H	-0.188381	0.213955	0.500058
Cl115	Cl	-0.813135	-0.290754	0.193213
Cl116	Cl	-0.313135	0.209246	0.693213
H117	H	-0.164579	-0.309658	0.000096
H118	H	0.335421	0.190342	0.500096
H119	H	-0.842237	0.338796	0.000075
H120	H	-0.342237	0.838796	0.500075
Cl121	Cl	-1.038203	-0.065868	0.193225
Cl122	Cl	-0.538203	0.434132	0.693225
Cl123	Cl	-1.066204	-0.037929	0.602541
Cl124	Cl	-0.566204	0.462071	1.102541
H125	H	-1.035409	-0.068723	0.786921
H126	H	-0.535409	0.431277	1.286921
H127	H	-1.075311	0.601074	0.000105
H128	H	-0.575311	1.101074	0.500105
Cl129	Cl	-1.028527	-0.075546	0.397649
Cl130	Cl	-0.528527	0.424454	0.897649
H131	H	-0.442811	-0.261782	0.000095
H132	H	0.057189	0.238218	0.500095
Cl133	Cl	-1.060376	0.306721	0.000096
Cl134	Cl	-0.560376	0.806721	0.500096
H135	H	-0.781832	0.209350	0.000063
H136	H	-0.281832	0.709350	0.500063
H137	H	-0.854510	-0.249490	0.786912
H138	H	-0.354510	0.250510	1.286912
H139	H	-0.817974	0.584359	0.000078
H140	H	-0.317974	1.084359	0.500078
Cl141	Cl	-0.846815	-0.257150	0.535517
Cl142	Cl	-0.346815	0.242850	1.035517
H143	H	-0.830508	0.435584	0.000061
H144	H	-0.330508	0.935584	0.500061
Cl145	Cl	-0.764483	0.040357	0.000066
Cl146	Cl	-0.264483	0.540357	0.500066
Cl147	Cl	-0.519403	-0.303390	0.000069
Cl148	Cl	-0.019403	0.196610	0.500069
H149	H	-1.039164	0.226049	0.000108
H150	H	-0.539164	0.726049	0.500108
H151	H	-0.862274	-0.241701	0.622605
H152	H	-0.362274	0.258299	1.122605
Cl153	Cl	-0.410736	-0.043643	0.000106
Cl154	Cl	0.089264	0.456357	0.500106
H155	H	-1.051699	0.077273	0.000123
H156	H	-0.551699	0.577273	0.500123
Cl157	Cl	-0.803471	-0.300435	0.397640
Cl158	Cl	-0.303471	0.199565	0.897640
Cl159	Cl	-1.022855	-0.081210	0.464679
Cl160	Cl	-0.522855	0.418790	0.964679
Cl161	Cl	-1.120788	0.436165	0.000088
Cl162	Cl	-0.620788	0.936165	0.500088
Cl163	Cl	-0.329490	-0.355133	0.000073
Cl164	Cl	0.170510	0.144867	0.500073
Cl165	Cl	-0.165168	-0.019384	0.000147
Cl166	Cl	0.334832	0.480616	0.500147
H167	H	-0.705095	-0.028706	0.000090
H168	H	-0.205095	0.471294	0.500090
Cl169	Cl	-0.350271	-0.034973	0.000125
Cl170	Cl	0.149729	0.465027	0.500125
H171	H	-0.556305	-0.016177	0.000114
H172	H	-0.056305	0.483823	0.500114
