data_functionalizedCrystal
_audit_creation_method	'MofGen! by Chris Wilmer'
_symmetry_space_group_name_H-M	'P1'
_symmetry_Int_Tables_number	1
_symmetry_cell_setting	triclinic
loop_
_symmetry_equiv_pos_as_xyz
  x,y,z
_cell_length_a	16.974800
_cell_length_b	14.853559
_cell_length_c	15.455313
_cell_angle_alpha	87.329071
_cell_angle_beta	89.026089
_cell_angle_gamma	83.510332
loop_
_atom_site_label
_atom_site_type_symbol
_atom_site_fract_x
_atom_site_fract_y
_atom_site_fract_z
O1	O	1.049197	0.114925	-0.001552
O2	O	1.549197	0.614925	0.498448
O3	O	0.819779	0.128693	0.014560
O4	O	1.319779	0.628693	0.514560
O5	O	0.940620	-0.009414	0.006073
O6	O	1.440620	0.490586	0.506073
O7	O	0.928357	0.253033	0.006936
O8	O	1.428357	0.753033	0.506936
O9	O	0.933709	-0.001549	-0.137704
O10	O	1.433709	0.498451	0.362296
O11	O	0.812869	0.136558	-0.129217
O12	O	1.312869	0.636558	0.370783
O13	O	1.042287	0.122790	-0.145328
O14	O	1.542287	0.622790	0.354672
Cu15	Cu	0.926947	0.130392	-0.150400
Cu16	Cu	1.426947	0.630392	0.349600
Cu17	Cu	0.935119	0.121091	0.019632
Cu18	Cu	1.435119	0.621091	0.519632
O19	O	0.921446	0.260898	-0.136841
O20	O	1.421446	0.760898	0.363159
C21	C	0.786964	0.131958	-0.055266
C22	C	1.286964	0.631958	0.444734
C23	C	0.699480	0.129958	-0.049122
C24	C	1.199480	0.629958	0.450878
C25	C	0.654618	0.133303	-0.124610
C26	C	1.154618	0.633303	0.375390
C27	C	0.572419	0.131409	-0.118840
C28	C	1.072419	0.631409	0.381160
C29	C	0.535083	0.126176	-0.037580
C30	C	1.035083	0.626176	0.462420
C31	C	0.579952	0.122828	0.037913
C32	C	1.079952	0.622828	0.537913
C33	C	0.662150	0.124715	0.032142
C34	C	1.162150	0.624715	0.532142
C35	C	0.289653	0.120065	-0.011916
C36	C	0.789653	0.620065	0.488084
C37	C	0.207448	0.118180	-0.006150
C38	C	0.707448	0.618180	0.493850
C39	C	0.199921	0.126760	-0.162904
C40	C	0.699921	0.626760	0.337096
C41	C	0.282121	0.128652	-0.168668
C42	C	0.782121	0.628652	0.331332
C43	C	0.326982	0.125299	-0.093175
C44	C	0.826982	0.625299	0.406825
N45	N	0.451063	0.124243	-0.031680
N46	N	0.951063	0.624243	0.468320
N47	N	0.411002	0.127226	-0.099076
N48	N	0.911002	0.627226	0.400924
C49	C	0.936610	-0.039071	-0.065775
C50	C	1.436610	0.460929	0.434225
C51	C	0.934949	-0.139157	-0.065654
C52	C	1.434949	0.360843	0.434346
C53	C	0.931667	-0.566627	0.013214
C54	C	1.431667	-0.066627	0.513214
C55	C	0.924133	-0.558047	-0.143537
C56	C	1.424133	-0.058047	0.356463
C57	C	0.925701	-0.464012	-0.143647
C58	C	1.425701	0.035988	0.356353
C59	C	0.930250	-0.421280	-0.065326
C60	C	1.430250	0.078720	0.434674
C61	C	0.933232	-0.472583	0.013106
C62	C	1.433232	0.027417	0.513106
C63	C	0.922711	-0.412701	-0.222078
C64	C	1.422711	0.087299	0.277922
C65	C	0.924277	-0.318660	-0.222192
C66	C	1.424277	0.181340	0.277808
C67	C	0.928833	-0.275927	-0.143870
C68	C	1.428833	0.224073	0.356130
C69	C	0.931816	-0.327236	-0.065434
C70	C	1.431816	0.172764	0.434566
C71	C	0.936366	-0.284504	0.012887
C72	C	1.436366	0.215496	0.512887
C73	C	0.939354	-0.335813	0.091323
C74	C	1.439354	0.164187	0.591323
C75	C	0.937788	-0.429851	0.091428
C76	C	1.437788	0.070149	0.591428
C77	C	0.930399	-0.181889	-0.143975
C78	C	1.430399	0.318111	0.356025
C79	C	0.937931	-0.190460	0.012779
C80	C	1.437931	0.309540	0.512779
C81	C	1.075102	0.119526	-0.075500
C82	C	1.575102	0.619526	0.424500
C83	C	1.162586	0.121526	-0.081638
C84	C	1.662586	0.621526	0.418362
C85	C	0.925456	0.290555	-0.064991
C86	C	1.425456	0.790555	0.435009
C87	C	0.927117	0.390641	-0.065107
C88	C	1.427117	0.890641	0.434893
N89	N	0.921205	0.136934	-0.269993
N90	N	1.421205	0.636934	0.230007
C91	C	0.972560	0.078283	-0.318994
C92	C	1.472560	0.578283	0.181006
C93	C	0.968225	0.083238	-0.409497
C94	C	1.468225	0.583238	0.090503
C95	C	0.912537	0.146850	-0.450998
C96	C	1.412537	0.646850	0.049002
C97	C	0.861177	0.205503	-0.401990
C98	C	1.361177	0.705503	0.098010
C99	C	0.865509	0.200543	-0.311488
C100	C	1.365509	0.700543	0.188512
C101	C	0.893839	0.168236	-0.721266
C102	C	1.393839	0.668236	-0.221266
C103	C	0.889512	0.173194	-0.811775
C104	C	1.389512	0.673194	-0.311775
C105	C	0.996560	0.050927	-0.819276
C106	C	1.496560	0.550927	-0.319276
C107	C	1.000890	0.045976	-0.728772
C108	C	1.500890	0.545976	-0.228772
C109	C	0.949526	0.104626	-0.679772
C110	C	1.449526	0.604626	-0.179772
N111	N	0.908106	0.151918	-0.543507
N112	N	1.408106	0.651918	-0.043507
N113	N	0.953954	0.099553	-0.587264
N114	N	1.453954	0.599553	-0.087264
N115	N	0.940867	0.114543	0.139224
N116	N	1.440867	0.614543	0.639224
H117	H	0.177052	0.113922	0.060025
H118	H	0.677052	0.613922	0.560025
F119	F	0.942779	-0.144990	0.096141
F120	F	1.442779	0.355010	0.596141
H121	H	0.535898	0.134118	-0.180311
H122	H	1.035898	0.634118	0.319689
F123	F	0.337387	0.116497	0.068432
F124	F	0.837387	0.616497	0.568432
H125	H	0.312514	0.132909	-0.234839
H126	H	0.812514	0.632909	0.265161
H127	H	0.163386	0.129488	-0.224367
H128	H	0.663386	0.629488	0.275633
F129	F	0.540217	0.117231	0.124396
F130	F	1.040217	0.617231	0.624396
H131	H	0.823689	0.248302	-0.271592
H132	H	1.323689	0.748302	0.228408
H133	H	0.844163	0.224998	-0.845560
H134	H	1.344163	0.724998	-0.345560
H135	H	0.927948	-0.140116	-0.207835
H136	H	1.427948	0.359884	0.292165
H137	H	0.919002	-0.447500	-0.285842
H138	H	1.419002	0.052500	0.214158
F139	F	1.060159	-0.021726	-0.684605
F140	F	1.560159	0.478274	-0.184605
F141	F	0.709896	0.121152	0.112487
F142	F	1.209896	0.621152	0.612487
H143	H	0.943053	-0.301007	0.155092
H144	H	1.443053	0.198993	0.655092
F145	F	0.919279	-0.603526	-0.226886
F146	F	1.419279	-0.103526	0.273114
F147	F	0.940972	-0.484462	0.174897
F148	F	1.440972	0.015538	0.674897
H149	H	1.038376	0.003175	-0.859179
H150	H	1.538376	0.503175	-0.359179
F151	F	0.934855	-0.621233	0.096687
F152	F	1.434855	-0.121233	0.596687
F153	F	0.921093	-0.264062	-0.305668
F154	F	1.421093	0.235938	0.194332
H155	H	1.017910	0.026487	-0.285210
H156	H	1.517910	0.526487	0.214790
F157	F	1.022882	0.020814	-0.461648
F158	F	1.522882	0.520814	0.038352
F159	F	0.839177	0.230658	-0.669124
F160	F	1.339177	0.730658	-0.169124
H161	H	0.685010	0.137571	-0.190781
H162	H	1.185010	0.637571	0.309219
F163	F	0.801906	0.273200	-0.446159
F164	F	1.301906	0.773200	0.053841
