data_functionalizedCrystal
_audit_creation_method	'MofGen! by Chris Wilmer'
_symmetry_space_group_name_H-M	'P1'
_symmetry_Int_Tables_number	1
_symmetry_cell_setting	triclinic
loop_
_symmetry_equiv_pos_as_xyz
  x,y,z
_cell_length_a	17.019282
_cell_length_b	15.500227
_cell_length_c	14.044220
_cell_angle_alpha	93.086249
_cell_angle_beta	91.722286
_cell_angle_gamma	88.965536
loop_
_atom_site_label
_atom_site_type_symbol
_atom_site_fract_x
_atom_site_fract_y
_atom_site_fract_z
O1	O	1.054861	-0.006670	-0.121090
O2	O	1.388195	0.326663	0.212243
O3	O	1.721528	0.659996	0.545576
O4	O	0.827073	0.010308	-0.135463
O5	O	1.160406	0.343642	0.197871
O6	O	1.493740	0.676975	0.531204
O7	O	0.937548	0.002065	0.009718
O8	O	1.270881	0.335399	0.343052
O9	O	1.604214	0.668732	0.676385
O10	O	0.944387	0.001573	-0.266271
O11	O	1.277720	0.334906	0.067062
O12	O	1.611053	0.668239	0.400395
O13	O	0.930841	-0.141323	0.000943
O14	O	1.264175	0.192010	0.334276
O15	O	1.597508	0.525344	0.667610
O16	O	0.820367	-0.133080	-0.144238
O17	O	1.153700	0.200253	0.189095
O18	O	1.487034	0.533587	0.522429
O19	O	1.048155	-0.150059	-0.129866
O20	O	1.381488	0.183275	0.203468
O21	O	1.714822	0.516608	0.536801
Cu22	Cu	0.933649	-0.154662	-0.137853
Cu23	Cu	1.266982	0.178671	0.195480
Cu24	Cu	1.600315	0.512005	0.528814
Cu25	Cu	0.941580	0.014911	-0.127475
Cu26	Cu	1.274913	0.348245	0.205858
Cu27	Cu	1.608246	0.681578	0.539191
O28	O	0.937680	-0.141816	-0.275047
O29	O	1.271014	0.191518	0.058287
O30	O	1.604347	0.524851	0.391620
C31	C	0.794392	-0.059200	-0.139135
C32	C	1.127725	0.274133	0.194199
C33	C	1.461059	0.607467	0.527532
C34	C	0.707003	-0.052687	-0.136990
C35	C	1.040336	0.280647	0.196343
C36	C	1.373670	0.613980	0.529676
N37	N	0.928076	-0.273931	-0.145152
N38	N	1.261409	0.059402	0.188182
N39	N	1.594743	0.392736	0.521515
C40	C	0.662296	-0.127789	-0.140764
C41	C	0.995630	0.205544	0.192569
C42	C	1.328963	0.538877	0.525903
C43	C	0.580185	-0.121672	-0.138734
C44	C	0.913519	0.211662	0.194599
C45	C	1.246852	0.544995	0.527932
C46	C	0.542783	-0.040450	-0.132937
C47	C	0.876116	0.292883	0.200396
C48	C	1.209449	0.626216	0.533729
C49	C	0.587495	0.034658	-0.129161
C50	C	0.920829	0.367991	0.204173
C51	C	1.254162	0.701325	0.537506
C52	C	0.669605	0.028540	-0.131184
C53	C	1.002938	0.361873	0.202150
C54	C	1.336272	0.695206	0.535483
C55	C	0.295048	-0.018066	-0.126584
C56	C	0.628381	0.315267	0.206750
C57	C	0.961714	0.648600	0.540083
C58	C	0.212932	-0.011953	-0.124564
C59	C	0.546265	0.321380	0.208770
C60	C	0.879599	0.654713	0.542103
C61	C	0.205628	-0.168284	-0.134136
C62	C	0.538961	0.165049	0.199198
C63	C	0.872295	0.498383	0.532531
C64	C	0.287739	-0.174395	-0.136164
C65	C	0.621073	0.158938	0.197169
C66	C	0.954406	0.492271	0.530503
C67	C	0.332445	-0.099287	-0.132382
C68	C	0.665778	0.234046	0.200951
C69	C	0.999112	0.567380	0.534285
C70	C	0.458852	-0.034195	-0.130866
C71	C	0.792185	0.299138	0.202468
C72	C	1.125519	0.632471	0.535801
C73	C	0.416374	-0.105543	-0.134447
C74	C	0.749707	0.227790	0.198886
C75	C	1.083041	0.561124	0.532219
C76	C	0.974907	-0.322702	-0.083656
C77	C	1.308241	0.010631	0.249677
C78	C	1.641574	0.343965	0.583011
C79	C	0.970701	-0.412961	-0.089185
C80	C	1.304034	-0.079628	0.244149
C81	C	1.637367	0.253706	0.577482
C82	C	0.919666	-0.454448	-0.156214
C83	C	1.253000	-0.121114	0.177119
C84	C	1.586333	0.212219	0.510453
C85	C	0.872830	-0.405670	-0.217712
C86	C	1.206163	-0.072337	0.115621
C87	C	1.539497	0.260997	0.448954
C88	C	0.877033	-0.315412	-0.212178
C89	C	1.210366	0.017921	0.121155
C90	C	1.543700	0.351254	0.454488
C91	C	0.904524	-0.726785	-0.176134
C92	C	1.237858	-0.393451	0.157200
C93	C	1.571191	-0.060118	0.490533
C94	C	0.900326	-0.817049	-0.181665
C95	C	1.233660	-0.483716	0.151669
C96	C	1.566993	-0.150382	0.485002
C97	C	0.998197	-0.824334	-0.053135
C98	C	1.331530	-0.491000	0.280198
C99	C	1.664863	-0.157667	0.613531
C100	C	1.002399	-0.734074	-0.047611
C101	C	1.335732	-0.400741	0.285722
C102	C	1.669065	-0.067408	0.619056
C103	C	0.955559	-0.685304	-0.109106
C104	C	1.288892	-0.351971	0.224227
C105	C	1.622226	-0.018638	0.557561
C106	C	0.915367	-0.546707	-0.161869
C107	C	1.248701	-0.213373	0.171464
C108	C	1.582034	0.119960	0.504798
C109	C	0.959855	-0.593046	-0.103446
C110	C	1.293188	-0.259713	0.229887
C111	C	1.626521	0.073620	0.563221
C112	C	1.080836	-0.080549	-0.126194
C113	C	1.414170	0.252785	0.207140
C114	C	1.747503	0.586118	0.540473
C115	C	1.168225	-0.087056	-0.128338
C116	C	1.501559	0.246277	0.204996
C117	C	1.834892	0.579610	0.538329
C118	C	0.931201	-0.069406	0.040654
C119	C	1.264535	0.263927	0.373988
C120	C	1.597868	0.597261	0.707321
C121	C	0.922273	-0.068742	0.145908
C122	C	1.255606	0.264592	0.479242
C123	C	1.588939	0.597925	0.812575
N124	N	0.947158	0.134180	-0.120169
N125	N	1.280491	0.467513	0.213164
N126	N	1.613824	0.800847	0.546498
C127	C	0.944027	-0.070342	-0.305983
C128	C	1.277360	0.262991	0.027351
C129	C	1.610694	0.596324	0.360684
C130	C	0.952956	-0.071001	-0.411236
C131	C	1.286289	0.262332	-0.077903
C132	C	1.619622	0.595665	0.255431
C133	C	0.905950	-0.067513	0.338622
C134	C	1.239283	0.265821	0.671955
C135	C	1.572617	0.599154	1.005288
C136	C	0.969275	-0.072230	0.396056
C137	C	1.302608	0.261103	0.729389
C138	C	1.635942	0.594437	1.062723
C139	C	0.960193	-0.071546	0.503289
C140	C	1.293526	0.261787	0.836622
C141	C	1.626859	0.595121	1.169955
C142	C	0.915031	-0.068196	0.231379
C143	C	1.248364	0.265137	0.564713
C144	C	1.581698	0.598470	0.898046
H145	H	0.543789	-0.182829	-0.141792
H146	H	0.877123	0.150505	0.191542
H147	H	1.210456	0.483838	0.524875
Br148	Br	0.713049	-0.238024	-0.148641
Br149	Br	1.046382	0.095309	0.184692
Br150	Br	1.379715	0.428643	0.518026
Br151	Br	0.338494	-0.284629	-0.144042
Br152	Br	0.671828	0.048705	0.189291
Br153	Br	1.005161	0.382038	0.522624
H154	H	0.858766	-0.850823	-0.236252
H155	H	1.192100	-0.517489	0.097081
H156	H	1.525433	-0.184156	0.430415
H157	H	0.844920	-0.062961	0.369983
H158	H	1.178253	0.270372	0.703316
H159	H	1.511586	0.603705	1.036649
H160	H	0.169220	-0.229433	-0.137213
H161	H	0.502553	0.103900	0.196120
H162	H	0.835887	0.437234	0.529453
Br163	Br	0.162171	0.098283	-0.116703
Br164	Br	0.495504	0.431616	0.216630
Br165	Br	0.828838	0.764950	0.549964
H166	H	1.030313	-0.076722	0.364697
H167	H	1.363646	0.256612	0.698030
H168	H	1.696980	0.589945	1.031364
H169	H	1.043955	-0.700298	0.006969
H170	H	1.377288	-0.366965	0.340303
H171	H	1.710621	-0.033631	0.673636
Br172	Br	0.730280	0.130469	-0.126053
Br173	Br	1.063613	0.463803	0.207280
Br174	Br	1.396947	0.797136	0.540613
Br175	Br	0.355710	0.083868	-0.121450
Br176	Br	0.689043	0.417201	0.211884
Br177	Br	1.022376	0.750534	0.545217
Br178	Br	1.034255	-0.479153	-0.005722
Br179	Br	1.367588	-0.145820	0.327611
Br180	Br	1.700922	0.187514	0.660944
Br181	Br	0.803561	-0.461969	-0.308676
Br182	Br	1.136894	-0.128636	0.024657
Br183	Br	1.470228	0.204698	0.357990
H184	H	0.838897	-0.275703	-0.262254
H185	H	1.172230	0.057630	0.071080
H186	H	1.505564	0.390963	0.404413
H187	H	0.873815	-0.580493	-0.216447
H188	H	1.207149	-0.247159	0.116886
H189	H	1.540482	0.086174	0.450219
H190	H	0.446831	-0.171673	-0.139162
H191	H	0.780165	0.161660	0.194171
H192	H	1.113498	0.494994	0.527504
Br193	Br	1.044178	-0.266409	0.007310
Br194	Br	1.377511	0.066925	0.340644
Br195	Br	1.710845	0.400258	0.673977
H196	H	0.557036	0.100790	-0.124434
H197	H	0.890369	0.434124	0.208899
H198	H	1.223702	0.767457	0.542233
Br199	Br	1.061760	-0.890524	0.030320
Br200	Br	1.395093	-0.557191	0.363653
Br201	Br	1.728427	-0.223857	0.696986
H202	H	0.866387	-0.687083	-0.226207
H203	H	1.199720	-0.353750	0.107126
H204	H	1.533054	-0.020417	0.440460
H205	H	0.428390	0.031936	-0.126145
H206	H	0.761723	0.365269	0.207188
H207	H	1.095056	0.698602	0.540521
H208	H	1.001404	-0.559265	-0.048867
H209	H	1.334737	-0.225932	0.284466
H210	H	1.668071	0.107401	0.617800
