data_functionalizedCrystal
_audit_creation_method	'MofGen! by Chris Wilmer'
_symmetry_space_group_name_H-M	'P1'
_symmetry_Int_Tables_number	1
_symmetry_cell_setting	triclinic
loop_
_symmetry_equiv_pos_as_xyz
  x,y,z
_cell_length_a	13.897448
_cell_length_b	12.645331
_cell_length_c	13.897441
_cell_angle_alpha	89.986527
_cell_angle_beta	90.030599
_cell_angle_gamma	89.984154
loop_
_atom_site_label
_atom_site_type_symbol
_atom_site_fract_x
_atom_site_fract_y
_atom_site_fract_z
Zn1	Zn	-0.384032	-1.620725	0.545194
Zn2	Zn	-0.545353	-1.620608	0.383896
Zn3	Zn	-0.384069	-1.443441	0.383933
Zn4	Zn	-0.545281	-1.443421	0.545169
O5	O	-0.464684	-1.532049	0.464548
O6	O	-0.405446	-1.769057	0.523793
O7	O	-0.524004	-1.597066	0.248919
O8	O	-0.249082	-1.467016	0.405351
O9	O	-0.523968	-1.768971	0.405287
O10	O	-0.249055	-1.597265	0.523829
O11	O	-0.405509	-1.466903	0.248946
O12	O	-0.405439	-1.295091	0.405326
O13	O	-0.523845	-1.466981	0.680154
O14	O	-0.523881	-1.295077	0.523785
O15	O	-0.405376	-1.597246	0.680173
O16	O	-0.680326	-1.597047	0.405263
O17	O	-0.680272	-1.466868	0.523749
C18	C	-0.464657	-1.256619	0.464558
C19	C	-0.464669	-1.138789	0.464585
C20	C	-0.539587	-0.971251	0.538723
C21	C	-0.539347	-1.093811	0.539030
C22	C	-0.363072	-1.094311	0.492363
C23	C	-0.363527	-0.971713	0.492889
C24	C	-0.490524	-0.971545	0.362443
C25	C	-0.492748	-1.094151	0.362990
C26	C	-0.715298	-1.531972	0.464520
C27	C	-0.822512	-1.532036	0.464540
C28	C	-1.018807	-1.532147	0.464601
C29	C	-0.909575	-1.532082	0.464570
C30	C	-0.213091	-1.532156	0.464597
C31	C	-0.105877	-1.532201	0.464618
C32	C	-0.464599	-1.532124	0.716141
C33	C	-0.464562	-1.532156	0.823355
C34	C	-0.464707	-0.808554	0.464545
C35	C	-0.464706	-0.926384	0.464561
C36	C	-0.464699	-1.532035	0.213934
C37	C	-0.464464	-1.532208	0.106720
C38	C	-0.464497	-1.532185	1.019650
C39	C	-0.464536	-1.532166	0.910418
H40	H	-0.563344	-0.940623	0.337197
C41	C	-0.593735	-1.133450	0.334675
H42	H	-0.618688	-1.176883	0.384552
H43	H	-0.635096	-1.074540	0.325184
H44	H	-0.589712	-1.173204	0.276822
C45	C	-0.424413	-1.135499	0.284334
H46	H	-0.377651	-1.180722	0.312551
H47	H	-0.460289	-1.173775	0.237725
H48	H	-0.393120	-1.077500	0.254212
H49	H	-0.435981	-0.942528	0.307185
H50	H	-0.614687	-1.123884	0.521620
H51	H	-0.341629	-0.943137	0.567542
C52	C	-0.285593	-0.931611	0.423118
H53	H	-0.253790	-0.990249	0.394584
H54	H	-0.314693	-0.889853	0.374285
H55	H	-0.240199	-0.890005	0.457457
C56	C	-0.285649	-1.133671	0.421681
H57	H	-0.314667	-1.177689	0.374491
H58	H	-0.256200	-1.074804	0.391106
H59	H	-0.238323	-1.172824	0.455842
C60	C	-0.641701	-0.931405	0.515478
H61	H	-0.639586	-0.887042	0.460340
H62	H	-0.682558	-0.990055	0.503075
H63	H	-0.665952	-0.892507	0.568678
H64	H	-0.522261	-1.123159	0.614694
C65	C	-0.516800	-0.929672	0.640350
H66	H	-0.461847	-0.885091	0.637781
H67	H	-0.570235	-0.890664	0.663937
H68	H	-0.504237	-0.987618	0.682028
H69	H	-0.340776	-1.125035	0.566206
