data_functionalizedCrystal
_audit_creation_method	'MofGen! by Chris Wilmer'
_symmetry_space_group_name_H-M	'P1'
_symmetry_Int_Tables_number	1
_symmetry_cell_setting	triclinic
loop_
_symmetry_equiv_pos_as_xyz
  x,y,z
_cell_length_a	12.811438
_cell_length_b	12.811415
_cell_length_c	11.295483
_cell_angle_alpha	88.701575
_cell_angle_beta	91.289945
_cell_angle_gamma	84.560771
loop_
_atom_site_label
_atom_site_type_symbol
_atom_site_fract_x
_atom_site_fract_y
_atom_site_fract_z
O1	O	1.390743	0.143928	0.035645
O2	O	1.087656	0.156870	0.001509
O3	O	1.245672	-0.001147	0.035647
O4	O	1.232727	0.301945	0.001508
O5	O	1.231793	0.012710	0.230701
O6	O	1.073777	0.170728	0.196564
O7	O	1.376864	0.157785	0.230699
Cu8	Cu	1.224053	0.165522	0.231442
Cu9	Cu	1.240467	0.149134	0.000767
O10	O	1.218848	0.315802	0.196562
C11	C	1.041898	0.162648	0.094968
C12	C	0.926232	0.159205	0.082846
C13	C	1.237581	-0.033037	0.137241
C14	C	1.234140	-0.148706	0.149356
C15	C	0.770767	0.146800	-0.040550
C16	C	0.879447	0.150033	-0.029170
C17	C	0.864330	0.165141	0.183491
C18	C	0.755650	0.161908	0.172111
C19	C	0.708873	0.152739	0.060087
C20	C	0.600191	0.149513	0.048708
C21	C	0.585077	0.164614	0.261368
C22	C	0.693756	0.167847	0.272748
C23	C	1.242788	-0.381157	-0.040552
C24	C	1.239555	-0.489838	-0.029174
C25	C	1.224434	-0.474751	0.183488
C26	C	1.227667	-0.366070	0.172110
C27	C	1.236846	-0.319277	0.060086
C28	C	1.240086	-0.210595	0.048710
C29	C	1.224958	-0.195508	0.261371
C30	C	1.221725	-0.304190	0.272749
C31	C	1.422622	0.152007	0.137238
C32	C	1.538288	0.155449	0.149352
C33	C	1.226938	0.347692	0.094966
C34	C	1.230380	0.463360	0.082842
N35	N	1.212516	0.177047	0.393687
N36	N	1.252012	0.137600	-0.161476
C37	C	1.335060	0.054572	0.669443
C38	C	1.326349	0.063290	0.792224
C39	C	1.186378	0.203195	0.762033
C40	C	1.195090	0.194477	0.639252
C41	C	1.269434	0.120164	0.592962
C42	C	1.278149	0.111452	0.470178
C43	C	1.138174	0.251352	0.439989
C44	C	1.129463	0.260069	0.562770
H45	H	0.562106	0.142052	-0.042509
Cl46	Cl	1.408852	-0.019175	0.888369
Cl47	Cl	1.036004	0.353484	0.620972
H48	H	0.534670	0.169454	0.343314
H49	H	1.084740	0.304764	0.377703
H50	H	0.731858	0.175308	0.363956
Cl51	Cl	1.217498	-0.117711	0.387897
Cl52	Cl	1.251628	-0.151771	-0.092117
H53	H	1.395601	-0.005929	0.631753
Cl54	Cl	1.254342	-0.322330	-0.181376
Cl55	Cl	1.210178	-0.363024	0.413570
H56	H	1.244390	-0.540217	-0.111126
Cl57	Cl	1.212866	-0.533591	0.324302
H58	H	1.125842	0.263691	0.799738
H59	H	0.732679	0.139346	-0.131766
Cl60	Cl	0.957254	0.142564	-0.155690
Cl61	Cl	0.923154	0.176666	0.324309
H62	H	1.338687	0.050946	0.432491
