data_functionalizedCrystal
_audit_creation_method	'MofGen! by Chris Wilmer'
_symmetry_space_group_name_H-M	'P1'
_symmetry_Int_Tables_number	1
_symmetry_cell_setting	triclinic
loop_
_symmetry_equiv_pos_as_xyz
  x,y,z
_cell_length_a	17.917603
_cell_length_b	17.052862
_cell_length_c	17.052832
_cell_angle_alpha	45.842616
_cell_angle_beta	77.710772
_cell_angle_gamma	67.577043
loop_
_atom_site_label
_atom_site_type_symbol
_atom_site_fract_x
_atom_site_fract_y
_atom_site_fract_z
Zr1	Zr	0.912742	0.789231	-0.182496
O2	O	0.847532	0.963068	-0.340688
O3	O	0.912001	0.621850	-0.117404
O4	O	0.976602	0.782981	-0.306569
O5	O	0.755556	0.804616	-0.021187
O6	O	1.101997	0.770706	-0.298536
O7	O	0.782932	0.801937	-0.151523
O8	O	0.986439	0.482473	0.039846
O9	O	0.871115	1.092849	-0.359569
O10	O	1.030314	0.679144	-0.103701
O11	O	0.916303	0.690304	-0.012428
O12	O	0.992362	0.880014	-0.235146
O13	O	0.878350	0.891174	-0.143872
Zr14	Zr	1.069073	0.773926	0.038186
Zr15	Zr	1.112733	0.769654	-0.169685
Zr16	Zr	0.869082	0.793503	0.025375
Zr17	Zr	0.950354	0.996217	-0.212609
Zr18	Zr	1.031461	0.566940	0.068299
O19	O	1.069814	0.941307	-0.026907
O20	O	1.131894	0.935232	-0.322472
O21	O	0.785452	0.969142	-0.045123
O22	O	1.134283	0.600089	0.196378
O23	O	1.196363	0.594014	-0.099188
O24	O	0.849921	0.627925	0.178162
O25	O	1.226259	0.758541	-0.123123
O26	O	1.005213	0.780176	0.162259
O27	O	0.879818	0.792451	0.154226
O28	O	1.198884	0.761219	0.007212
O29	O	1.030081	1.077288	-0.349386
O30	O	0.951734	0.485869	0.205075
O31	O	1.110700	0.470308	0.215259
O32	O	1.145405	0.466912	0.050029
O33	O	0.836410	1.096245	-0.194339
O34	O	0.995377	1.080684	-0.184156
O35	O	0.989454	0.683143	0.090835
O36	O	1.103465	0.671983	-0.000438
O37	O	1.065513	0.872853	-0.131883
O38	O	0.951501	0.884013	-0.040609
C39	C	0.943861	0.522671	-0.034489
C40	C	0.927894	0.434800	-0.021705
C41	C	0.740749	0.806066	-0.088180
C42	C	0.655848	0.814377	-0.093619
C43	C	1.120937	0.163813	-0.176260
C44	C	1.135938	0.246377	-0.188278
C45	C	1.083929	0.293486	-0.146636
C46	C	1.016915	0.258025	-0.092973
C47	C	1.001908	0.175459	-0.080961
C48	C	0.964900	0.305132	-0.051337
C49	C	0.897886	0.269670	0.002325
C50	C	0.882883	0.187112	0.014336
C51	C	0.934893	0.140003	-0.027307
C52	C	0.979907	0.387698	-0.063349
C53	C	0.860878	0.399344	0.031950
C54	C	0.845877	0.316780	0.043968
C55	C	0.500409	0.829558	-0.103552
C56	C	0.481401	0.733604	-0.040762
C57	C	0.394909	0.742051	-0.046288
C58	C	0.586908	0.821114	-0.098027
C59	C	1.241066	0.757091	-0.056130
C60	C	1.325967	0.748780	-0.050691
C61	C	1.045521	0.776234	-0.332170
C62	C	1.064056	0.774421	-0.420416
C63	C	1.037954	1.040486	-0.109822
C64	C	1.053921	1.128357	-0.122605
C65	C	0.839967	0.796348	-0.686861
C66	C	0.822552	0.798045	-0.603944
C67	C	0.882926	0.792139	-0.558058
C68	C	0.960719	0.784536	-0.595097
C69	C	0.978137	0.782830	-0.678016
C70	C	1.021096	0.778621	-0.549213
C71	C	1.098889	0.771018	-0.586252
C72	C	1.116304	0.769313	-0.669163
C73	C	1.055929	0.775218	-0.715049
C74	C	1.003678	0.780327	-0.466295
C75	C	1.141848	0.766809	-0.457450
C76	C	1.159263	0.765112	-0.540366
C77	C	0.936295	0.786922	0.187860
C78	C	0.917759	0.788736	0.276106
C79	C	1.194019	0.498183	-0.018464
C80	C	1.262954	0.402001	-0.000241
C81	C	0.889248	0.528015	0.225526
C82	C	0.854746	0.441957	0.326556
C83	C	1.139406	0.503527	0.241551
C84	C	1.189805	0.409159	0.348020
C85	C	0.842409	1.059630	-0.385861
C86	C	0.792010	1.153998	-0.492330
C87	C	0.787796	1.064974	-0.125847
C88	C	0.718861	1.161156	-0.144069
C89	C	1.092567	1.035142	-0.369836
C90	C	1.127069	1.121200	-0.470867
C91	C	1.257144	0.360571	-0.045595
C92	C	1.321913	0.270210	-0.028494
C93	C	1.392490	0.221274	0.033966
C94	C	1.398299	0.262713	0.079320
C95	C	1.333533	0.353078	0.062213
C96	C	0.876725	0.397806	0.427912
C97	C	0.844304	0.316958	0.522847
C98	C	0.789907	0.280257	0.516425
C99	C	0.767925	0.324417	0.415058
C100	C	0.800342	0.405269	0.320124
C101	C	1.272994	0.359016	0.350376
C102	C	1.320361	0.270358	0.450406
C103	C	1.284536	0.231838	0.548079
C104	C	1.201340	0.281990	0.545720
C105	C	1.153976	0.370652	0.445691
C106	C	0.708822	1.204150	-0.494688
C107	C	0.661460	1.292834	-0.594721
C108	C	0.697286	1.331359	-0.692395
C109	C	0.780482	1.281202	-0.690035
C110	C	0.827843	1.192525	-0.590004
C111	C	0.724675	1.202594	-0.098726
C112	C	0.659914	1.292978	-0.115852
C113	C	0.589339	1.341916	-0.178316
C114	C	0.583528	1.300474	-0.223665
C115	C	0.648290	1.210097	-0.206545
C116	C	1.181464	1.157874	-0.464409
C117	C	1.213897	1.238722	-0.559327
C118	C	1.191930	1.282899	-0.660703
C119	C	1.137532	1.246216	-0.667158
C120	C	1.105104	1.165364	-0.572240
H121	H	1.034470	0.416564	-0.107042
C122	C	1.454929	0.231381	0.497732
C123	C	1.411809	0.215261	0.452966
H124	H	1.511384	0.197379	0.499299
H125	H	1.440388	0.195739	0.570217
H126	H	1.442266	0.311960	0.454024
H127	H	1.424467	0.134680	0.496679
H128	H	1.426356	0.250899	0.380469
C129	C	0.512769	0.527047	0.094395
C130	C	0.547118	0.614137	0.037407
H131	H	0.553343	0.453298	0.142652
H132	H	0.490486	0.533444	0.043660
H133	H	0.471192	0.535325	0.135536
H134	H	0.588692	0.605864	-0.003741
H135	H	0.569414	0.607736	0.088149
C136	C	0.634224	1.254218	-0.392478
C137	C	0.669437	1.161826	-0.387331
H138	H	0.609911	1.228093	-0.326200
H139	H	0.594120	1.314193	-0.452388
H140	H	0.674766	1.283014	-0.402320
H141	H	0.628893	1.133035	-0.377497
H142	H	0.709545	1.101831	-0.327404
H143	H	0.451728	0.918044	-0.161455
C144	C	1.332257	0.175419	0.707500
C145	C	1.336612	0.134379	0.658025
H146	H	1.364414	0.115252	0.775368
H147	H	1.277592	0.199749	0.720091
H148	H	1.351825	0.239080	0.660597
H149	H	1.317038	0.070724	0.704925
H150	H	1.391287	0.110032	0.645438
C151	C	1.239879	0.286690	-0.136756
C152	C	1.315511	0.224663	-0.078340
H153	H	1.235925	0.258565	-0.167521
H154	H	1.234162	0.366574	-0.193777
H155	H	1.198257	0.276977	-0.088578
H156	H	1.357133	0.234382	-0.126520
H157	H	1.321236	0.144758	-0.021312
H158	H	1.096147	0.360714	-0.156424
C159	C	0.876908	0.889791	-0.501594
C160	C	0.863786	0.794016	-0.466922
H161	H	0.865093	0.890948	-0.445327
H162	H	0.842656	0.958963	-0.565870
H163	H	0.931881	0.884403	-0.517083
H164	H	0.808812	0.799408	-0.451441
H165	H	0.898039	0.724827	-0.402627
H166	H	1.218340	1.348734	-0.737983
H167	H	0.664659	1.326705	-0.078916
C168	C	1.126745	0.332004	0.647980
C169	C	1.161974	0.239636	0.653094
H170	H	1.102449	0.305848	0.714275
H171	H	1.086624	0.391970	0.588090
H172	H	1.167275	0.360825	0.638124
H173	H	1.121443	0.210820	0.662942
H174	H	1.202098	0.179650	0.713002
H175	H	1.119652	1.282198	-0.749711
C176	C	1.032870	1.180936	-0.688382
C177	C	1.045301	1.125072	-0.579352
H178	H	0.995945	1.156068	-0.692778
H179	H	1.082985	1.162240	-0.713666
H180	H	1.011235	1.262389	-0.732643
H181	H	1.066941	1.043619	-0.535093
H182	H	0.995176	1.143760	-0.554055
H183	H	0.940339	0.786518	-0.436145
C184	C	1.043898	0.544520	0.378707
C185	C	1.062530	0.425753	0.443116
H186	H	0.987443	0.578530	0.377131
H187	H	1.058443	0.580149	0.306226
H188	H	1.073163	0.555424	0.409096
H189	H	1.033269	0.414850	0.412722
H190	H	1.047976	0.390114	0.515611
H191	H	1.163274	0.125459	-0.210168
H192	H	0.895578	1.151692	-0.588096
C193	C	0.551392	1.466707	-0.661684
C194	C	0.570013	1.347947	-0.597295
H195	H	0.494939	1.500725	-0.663263
H196	H	0.565941	1.502346	-0.734166
H197	H	0.580661	1.477590	-0.631278
H198	H	0.540749	1.337064	-0.627706
H199	H	0.555456	1.312298	-0.524799
H200	H	0.526057	1.340333	-0.274525
H201	H	0.723631	0.294523	0.409845
H202	H	0.658712	1.403565	-0.773840
C203	C	0.919690	-0.047520	0.097555
C204	C	0.918413	0.049235	-0.014090
H205	H	0.909525	-0.103561	0.105712
H206	H	0.879118	-0.024537	0.130018
H207	H	0.971302	-0.080092	0.132646
H208	H	0.866799	0.081812	-0.049180
H209	H	0.958987	0.026250	-0.046567
C210	C	1.347532	0.308890	0.248198
C211	C	1.312336	0.401316	0.243002
H212	H	1.371813	0.334994	0.181908
H213	H	1.306995	0.280058	0.258117
H214	H	1.387668	0.248942	0.308085
H215	H	1.272195	0.461260	0.183119
H216	H	1.352877	0.430165	0.233070
C217	C	0.815426	0.099272	0.180921
C218	C	0.809192	0.148194	0.073275
H219	H	0.769926	0.075258	0.217295
H220	H	0.816938	0.155172	0.179721
H221	H	0.863638	0.034193	0.218755
H222	H	0.760983	0.213278	0.035438
H223	H	0.807672	0.092289	0.074469
C224	C	0.778571	0.228750	0.210655
C225	C	0.772254	0.277709	0.103007
H226	H	0.733133	0.204597	0.247121
H227	H	0.780020	0.284677	0.209455
H228	H	0.826838	0.163758	0.248399
H229	H	0.723990	0.342707	0.065261
H230	H	0.770796	0.221778	0.104201
C231	C	0.831030	0.531065	0.055861
C232	C	0.803704	0.451116	0.077730
H233	H	0.795737	0.563026	0.084126
H234	H	0.831704	0.591317	-0.021097
H235	H	0.884178	0.493065	0.089742
H236	H	0.750558	0.489119	0.043842
H237	H	0.803022	0.390855	0.154703
H238	H	0.809644	1.312580	-0.769574
C239	C	0.687730	0.811240	-0.621024
C240	C	0.737046	0.806410	-0.563239
H241	H	0.634938	0.816413	-0.595898
H242	H	0.710070	0.743220	-0.609287
H243	H	0.684727	0.877377	-0.697079
H244	H	0.740054	0.740268	-0.487184
H245	H	0.714700	0.874437	-0.574967
C246	C	0.538165	1.467273	-0.144115
C247	C	0.518152	1.441251	-0.197119
H248	H	0.494216	1.528591	-0.155714
H249	H	0.584874	1.490243	-0.172933
H250	H	0.548966	1.400635	-0.067747
H251	H	0.507357	1.507887	-0.273488
H252	H	0.471429	1.418287	-0.168306
C253	C	1.165678	1.030607	-0.271018
C254	C	1.205622	1.109321	-0.352982
H255	H	1.180595	1.000639	-0.202232
H256	H	1.180554	0.968834	-0.268127
H257	H	1.108793	1.068974	-0.287102
H258	H	1.262507	1.070951	-0.336903
H259	H	1.190751	1.171103	-0.355872
H260	H	1.190500	0.275249	-0.231971
H261	H	0.790819	0.801147	-0.724220
H262	H	1.070106	0.773841	-0.782570
C263	C	1.251127	0.756142	-0.652104
C264	C	1.201813	0.760957	-0.709879
H265	H	1.303914	0.750994	-0.677248
H266	H	1.254141	0.690011	-0.576059
H267	H	1.228774	0.824170	-0.663841
H268	H	1.224163	0.692925	-0.698136
H269	H	1.198801	0.827095	-0.785943
H270	H	1.338272	0.386799	0.099154
H271	H	0.921016	0.427679	0.433162
H272	H	1.199687	0.400413	-0.096468
H273	H	0.643545	1.176362	-0.243468
C274	C	0.923085	0.317696	0.619843
C275	C	0.868483	0.268417	0.634262
H276	H	0.938016	0.287722	0.688626
H277	H	0.898261	0.399451	0.571090
H278	H	0.970015	0.299315	0.590049
H279	H	0.821550	0.286805	0.664049
H280	H	0.893305	0.186644	0.683033
H281	H	1.222603	0.758921	-0.570533
C282	C	0.739591	0.574309	0.136837
C283	C	0.776185	0.453783	0.208717
H284	H	0.724671	0.604252	0.068063
H285	H	0.776625	0.607736	0.127066
H286	H	0.692651	0.592674	0.166628
H287	H	0.823129	0.435418	0.178929
H288	H	0.739149	0.420345	0.218485
H289	H	1.258187	1.268580	-0.554051
C290	C	1.235595	0.854599	-0.488887
C291	C	1.208182	0.760260	-0.406919
H292	H	1.276536	0.850530	-0.457655
H293	H	1.191695	0.924740	-0.521033
H294	H	1.257158	0.852493	-0.543556
H295	H	1.186613	0.762371	-0.352254
H296	H	1.252090	0.690101	-0.374757
H297	H	1.445221	0.147693	0.047889
H298	H	1.455772	0.222857	0.130176
H299	H	0.763517	0.214421	0.593734
H300	H	0.782133	1.162756	-0.047856
