data_functionalizedCrystal
_audit_creation_method	'MofGen! by Chris Wilmer'
_symmetry_space_group_name_H-M	'P1'
_symmetry_Int_Tables_number	1
_symmetry_cell_setting	triclinic
loop_
_symmetry_equiv_pos_as_xyz
  x,y,z
_cell_length_a	17.077404
_cell_length_b	18.215405
_cell_length_c	17.077396
_cell_angle_alpha	90.028580
_cell_angle_beta	90.019501
_cell_angle_gamma	90.022957
loop_
_atom_site_label
_atom_site_type_symbol
_atom_site_fract_x
_atom_site_fract_y
_atom_site_fract_z
Zn1	Zn	1.200055	-0.292980	0.443842
Zn2	Zn	1.700055	0.207020	0.943842
Zn3	Zn	1.199963	-0.416053	0.312576
Zn4	Zn	1.699963	0.083947	0.812576
Zn5	Zn	1.068787	-0.293006	0.312590
Zn6	Zn	1.568787	0.206994	0.812590
Zn7	Zn	1.068756	-0.416010	0.443800
Zn8	Zn	1.568756	0.083990	0.943800
O9	O	1.134390	-0.354512	0.378202
O10	O	1.634390	0.145488	0.878202
O11	O	1.309890	-0.309313	0.426441
O12	O	1.809890	0.190687	0.926441
O13	O	1.182537	-0.399760	0.202731
O14	O	1.682537	0.100240	0.702731
O15	O	1.086252	-0.190018	0.330025
O16	O	1.586252	0.309982	0.830025
O17	O	1.309822	-0.399735	0.330001
O18	O	1.809822	0.100265	0.830001
O19	O	1.182694	-0.189999	0.426455
O20	O	1.682694	0.310001	0.926455
O21	O	1.086163	-0.309357	0.202741
O22	O	1.586163	0.190643	0.702741
O23	O	0.958936	-0.309315	0.329983
O24	O	1.458936	0.190685	0.829983
O25	O	1.086198	-0.399660	0.553652
O26	O	1.586198	0.100340	1.053652
O27	O	0.958913	-0.399685	0.426382
O28	O	1.458913	0.100315	0.926382
O29	O	1.182664	-0.309271	0.553683
O30	O	1.682664	0.190729	1.053683
O31	O	1.182506	-0.519032	0.329959
O32	O	1.682506	-0.019032	0.829959
O33	O	1.086109	-0.519000	0.426369
O34	O	1.586109	-0.019000	0.926369
C35	C	0.930442	-0.354499	0.378180
C36	C	1.430442	0.145501	0.878180
C37	C	0.843193	-0.354511	0.378190
C38	C	1.343193	0.145489	0.878190
C39	C	0.802211	-0.401638	0.428304
C40	C	1.302211	0.098362	0.928304
C41	C	0.720230	-0.401639	0.428317
C42	C	1.220230	0.098361	0.928317
C43	C	0.679233	-0.354517	0.378210
C44	C	1.179233	0.145483	0.878210
C45	C	0.720221	-0.307385	0.328094
C46	C	1.220221	0.192615	0.828094
C47	C	0.802200	-0.307380	0.328086
C48	C	1.302200	0.192620	0.828086
C49	C	0.549351	-0.307400	0.328112
C50	C	1.049351	0.192600	0.828112
C51	C	0.467366	-0.307405	0.328119
C52	C	0.967366	0.192595	0.828119
C53	C	0.467381	-0.401659	0.428344
C54	C	0.967381	0.098341	0.928344
C55	C	0.549360	-0.401654	0.428336
C56	C	1.049360	0.098346	0.928336
C57	C	0.590342	-0.354522	0.378218
C58	C	1.090342	0.145478	0.878218
C59	C	1.134315	-0.545718	0.378175
C60	C	1.634315	-0.045718	0.878175
C61	C	1.134355	-0.627517	0.378190
C62	C	1.634355	-0.127517	0.878190
C63	C	1.184596	-0.815640	0.428469
C64	C	1.684596	-0.315640	0.928469
C65	C	1.184625	-0.892499	0.428484
C66	C	1.684625	-0.392499	0.928484
C67	C	1.084282	-0.892632	0.327984
C68	C	1.584282	-0.392632	0.827984
C69	C	1.084250	-0.815775	0.327974
C70	C	1.584250	-0.315775	0.827974
C71	C	1.134411	-0.777281	0.378215
C72	C	1.634411	-0.277281	0.878215
C73	C	1.134472	-0.930997	0.378240
C74	C	1.634472	-0.430997	0.878240
C75	C	1.134502	-1.014330	0.378255
C76	C	1.634502	-0.514330	0.878255
C77	C	1.134380	-0.693942	0.378201
C78	C	1.634380	-0.193942	0.878201
C79	C	1.339135	-0.354526	0.378224
C80	C	1.839135	0.145474	0.878224
C81	C	1.426384	-0.354532	0.378234
C82	C	1.926384	0.145468	0.878234
C83	C	1.134438	-0.354458	0.582946
C84	C	1.634438	0.145542	1.082946
C85	C	1.134458	-0.354435	0.670196
C86	C	1.634458	0.145565	1.170196
C87	C	1.134487	-0.162559	0.378246
C88	C	1.634487	0.337441	0.878246
C89	C	1.134529	-0.080760	0.378265
C90	C	1.634529	0.419240	0.878265
C91	C	1.134388	-0.354513	0.174254
C92	C	1.634388	0.145487	0.674254
C93	C	1.134520	-0.354329	0.087005
C94	C	1.634520	0.145671	0.587005
C95	C	1.184689	-0.307365	0.711204
C96	C	1.684689	0.192635	1.211204
C97	C	1.184699	-0.307341	0.793184
C98	C	1.684699	0.192659	1.293184
C99	C	1.134480	-0.354390	0.834156
C100	C	1.634480	0.145610	1.334156
C101	C	1.084243	-0.401462	0.793142
C102	C	1.584243	0.098538	1.293142
C103	C	1.084231	-0.401482	0.711163
C104	C	1.584231	0.098518	1.211163
C105	C	1.084275	-0.401418	0.964012
C106	C	1.584275	0.098582	1.464012
C107	C	1.084289	-0.401399	1.045997
C108	C	1.584289	0.098601	1.545997
C109	C	1.184743	-0.307276	1.046034
C110	C	1.684743	0.192724	1.546034
C111	C	1.184730	-0.307296	0.964055
C112	C	1.684730	0.192704	1.464055
C113	C	1.134494	-0.354369	0.923047
C114	C	1.634494	0.145631	1.423047
H115	H	0.686834	-0.269014	0.287299
H116	H	1.186834	0.230986	0.787299
C117	C	1.029730	-0.774254	0.273322
C118	C	1.529730	-0.274254	0.773322
C119	C	0.985827	-0.824413	0.229306
C120	C	1.485827	-0.324413	0.729306
C121	C	0.935604	-0.786191	0.178952
C122	C	1.435604	-0.286191	0.678952
H123	H	0.995429	-0.744278	0.303228
H124	H	1.495429	-0.244278	0.803228
H125	H	1.059750	-0.744284	0.239104
H126	H	1.559750	-0.244284	0.739104
H127	H	0.955809	-0.854370	0.263520
H128	H	1.455809	-0.354370	0.763520
H129	H	1.020107	-0.854391	0.199384
H130	H	1.520107	-0.354391	0.699384
H131	H	0.965623	-0.756222	0.144734
H132	H	1.465623	-0.256222	0.644734
H133	H	0.901308	-0.756217	0.208864
H134	H	1.401308	-0.256217	0.708864
H135	H	0.905814	-0.820219	0.149076
H136	H	1.405814	-0.320219	0.649076
H137	H	1.043352	-0.439768	0.826508
H138	H	1.543352	0.060232	1.326508
H139	H	1.225488	-0.923728	0.469407
H140	H	1.725488	-0.423728	0.969407
H141	H	1.225627	-0.268989	0.930698
H142	H	1.725627	0.231011	1.430698
C143	C	1.239244	-0.256201	0.666866
C144	C	1.739244	0.243799	1.166866
C145	C	1.283220	-0.214960	0.720330
C146	C	1.783220	0.285040	1.220330
C147	C	1.333476	-0.167809	0.679518
C148	C	1.833476	0.332191	1.179518
H149	H	1.273498	-0.284279	0.634882
H150	H	1.773498	0.215721	1.134882
H151	H	1.209244	-0.224101	0.634906
H152	H	1.709244	0.275899	1.134906
H153	H	1.313218	-0.247055	0.752277
H154	H	1.813218	0.252945	1.252277
H155	H	1.248987	-0.186866	0.752316
H156	H	1.748987	0.313134	1.252316
H157	H	1.303476	-0.135710	0.647557
H158	H	1.803476	0.364290	1.147557
H159	H	1.367724	-0.195894	0.647535
H160	H	1.867724	0.304106	1.147535
H161	H	1.363314	-0.139817	0.715786
H162	H	1.863314	0.360183	1.215786
C163	C	0.846819	-0.452681	0.482753
C164	C	1.346819	0.047319	0.982753
C165	C	0.893935	-0.411068	0.533126
C166	C	1.393935	0.088932	1.033126
C167	C	0.935044	-0.458063	0.583292
C168	C	1.435044	0.041937	1.083292
H169	H	0.810758	-0.480763	0.512677
H170	H	1.310758	0.019237	1.012677
H171	H	0.878820	-0.484698	0.452685
H172	H	1.378820	0.015302	0.952685
H173	H	0.861937	-0.379064	0.563191
H174	H	1.361937	0.120936	1.063191
H175	H	0.930011	-0.382987	0.503223
H176	H	1.430011	0.117013	1.003223
H177	H	0.967045	-0.490081	0.553223
H178	H	1.467045	0.009919	1.053223
H179	H	0.898978	-0.486144	0.613210
H180	H	1.398978	0.013856	1.113210
H181	H	0.967023	-0.429837	0.617470
H182	H	1.467023	0.070163	1.117470
C183	C	1.029676	-0.452504	1.090341
C184	C	1.529676	0.047496	1.590341
C185	C	0.985659	-0.493715	1.036884
C186	C	1.485659	0.006285	1.536884
C187	C	0.935335	-0.540795	1.077704
C188	C	1.435335	-0.040795	1.577704
H189	H	1.059604	-0.484631	1.122320
H190	H	1.559604	0.015369	1.622320
H191	H	0.995457	-0.424354	1.122306
H192	H	1.495457	0.075646	1.622306
H193	H	1.019874	-0.521864	1.004932
H194	H	1.519874	-0.021864	1.504932
H195	H	0.955716	-0.461608	1.004903
H196	H	1.455716	0.038392	1.504903
H197	H	0.901116	-0.512644	1.109670
H198	H	1.401116	-0.012644	1.609670
H199	H	0.965269	-0.572917	1.109682
H200	H	1.465269	-0.072917	1.609682
H201	H	0.905458	-0.568757	1.041440
H202	H	1.405458	-0.068757	1.541440
C203	C	0.422711	-0.256293	0.273783
C204	C	0.922711	0.243707	0.773783
C205	C	0.342147	-0.266391	0.284516
C206	C	0.842147	0.233609	0.784516
C207	C	0.300986	-0.219313	0.234481
C208	C	0.800986	0.280687	0.734481
H209	H	0.436086	-0.206839	0.285347
H210	H	0.936086	0.293161	0.785347
H211	H	0.436057	-0.266973	0.220990
H212	H	0.936057	0.233027	0.720990
H213	H	0.328806	-0.255705	0.337296
H214	H	0.828806	0.244295	0.837296
H215	H	0.328748	-0.315835	0.272946
H216	H	0.828748	0.184165	0.772946
H217	H	0.314332	-0.229993	0.181688
H218	H	0.814332	0.270007	0.681688
H219	H	0.314368	-0.169862	0.246049
H220	H	0.814368	0.330138	0.746049
H221	H	0.246319	-0.226163	0.241751
H222	H	0.746319	0.273837	0.741751
C223	C	0.675631	-0.452851	0.482594
C224	C	1.175631	0.047149	0.982594
C225	C	0.628513	-0.499950	0.438058
C226	C	1.128513	0.000050	0.938058
C227	C	0.587407	-0.547131	0.488033
C228	C	1.087407	-0.047131	0.988033
H229	H	0.711694	-0.480990	0.512451
H230	H	1.211694	0.019010	1.012451
H231	H	0.643631	-0.424763	0.516842
H232	H	1.143631	0.075237	1.016842
H233	H	0.660510	-0.528036	0.403824
H234	H	1.160510	-0.028036	0.903824
H235	H	0.592435	-0.471831	0.408203
H236	H	1.092435	0.028169	0.908203
H237	H	0.555408	-0.519043	0.522281
H238	H	1.055408	-0.019043	1.022281
H239	H	0.623476	-0.575265	0.517887
H240	H	1.123476	-0.075265	1.017887
H241	H	0.555428	-0.579089	0.457823
H242	H	1.055428	-0.079089	0.957823
C243	C	0.422750	-0.452747	0.482733
C244	C	0.922750	0.047253	0.982733
C245	C	0.342181	-0.442651	0.472036
C246	C	0.842181	0.057349	0.972036
C247	C	0.301039	-0.489694	0.522129
C248	C	0.801039	0.010306	1.022129
H249	H	0.436065	-0.502209	0.471197
H250	H	0.936065	-0.002209	0.971197
H251	H	0.436170	-0.442033	0.535510
H252	H	0.936170	0.057967	1.035510
H253	H	0.328766	-0.453370	0.419271
H254	H	0.828766	0.046630	0.919271
H255	H	0.328843	-0.393199	0.483577
H256	H	0.828843	0.106801	0.983577
H257	H	0.314459	-0.478980	0.574906
H258	H	0.814459	0.021020	1.074906
H259	H	0.314361	-0.539154	0.510589
H260	H	0.814361	-0.039154	1.010589
H261	H	0.246369	-0.482846	0.514883
H262	H	0.746369	0.017154	1.014883
C263	C	1.029785	-0.934522	0.273559
C264	C	1.529785	-0.434522	0.773559
C265	C	0.979476	-0.978674	0.317959
C266	C	1.479476	-0.478674	0.817959
C267	C	0.929271	-1.017280	0.267846
C268	C	1.429271	-0.517280	0.767846
H269	H	0.999816	-0.900752	0.243610
H270	H	1.499816	-0.400752	0.743610
H271	H	1.059828	-0.964542	0.239402
H272	H	1.559828	-0.464542	0.739402
H273	H	0.949436	-0.948656	0.352101
H274	H	1.449436	-0.448656	0.852101
H275	H	1.009423	-1.012458	0.347906
H276	H	1.509423	-0.512458	0.847906
H277	H	0.959314	-1.047300	0.233689
H278	H	1.459314	-0.547300	0.733689
H279	H	0.899308	-0.983504	0.237899
H280	H	1.399308	-0.483504	0.737899
H281	H	0.895136	-1.047246	0.297963
H282	H	1.395136	-0.547246	0.797963
H283	H	0.835566	-0.269001	0.287281
H284	H	1.335566	0.230999	0.787281
H285	H	1.043319	-0.439804	0.677776
H286	H	1.543319	0.060196	1.177776
C287	C	1.239103	-0.256136	0.837742
C288	C	1.739103	0.243864	1.337742
C289	C	1.194683	-0.208934	0.884784
C290	C	1.694683	0.291066	1.384784
C291	C	1.244772	-0.161741	0.925830
C292	C	1.744772	0.338259	1.425830
H293	H	1.273315	-0.284187	0.869791
H294	H	1.773315	0.215813	1.369791
H295	H	1.268993	-0.228079	0.801619
H296	H	1.768993	0.271921	1.301619
H297	H	1.164807	-0.236988	0.920903
H298	H	1.664807	0.263012	1.420903
H299	H	1.160473	-0.180867	0.852754
H300	H	1.660473	0.319133	1.352754
H301	H	1.274662	-0.133684	0.889707
H302	H	1.774662	0.366316	1.389707
H303	H	1.278981	-0.189798	0.957875
H304	H	1.778981	0.310202	1.457875
H305	H	1.214640	-0.129705	0.957747
H306	H	1.714640	0.370295	1.457747
C307	C	1.239239	-0.256041	1.090447
C308	C	1.739239	0.243959	1.590447
C309	C	1.222195	-0.183234	1.070496
C310	C	1.722195	0.316766	1.570496
C311	C	1.272387	-0.136020	1.111387
C312	C	1.772387	0.363980	1.611387
H313	H	1.232106	-0.262659	1.145151
H314	H	1.732106	0.237341	1.645151
H315	H	1.291985	-0.266778	1.077001
H316	H	1.791985	0.233222	1.577001
H317	H	1.169461	-0.172501	1.083947
H318	H	1.669461	0.327499	1.583947
H319	H	1.229331	-0.176593	1.015798
H320	H	1.729331	0.323407	1.515798
H321	H	1.325134	-0.146757	1.097941
H322	H	1.825134	0.353243	1.597941
H323	H	1.265251	-0.142645	1.166089
H324	H	1.765251	0.357355	1.666089
H325	H	1.260834	-0.086616	1.097850
H326	H	1.760834	0.413384	1.597850
H327	H	0.582716	-0.269014	0.287308
H328	H	1.082716	0.230986	0.787308
C329	C	1.239076	-0.773979	0.483109
C330	C	1.739076	-0.273979	0.983109
C331	C	1.283015	-0.824027	0.527139
C332	C	1.783015	-0.324027	1.027139
C333	C	1.333201	-0.785678	0.577494
C334	C	1.833201	-0.285678	1.077494
H335	H	1.273357	-0.743985	0.453203
H336	H	1.773357	-0.243985	0.953203
H337	H	1.209028	-0.744016	0.517319
H338	H	1.709028	-0.244016	1.017319
H339	H	1.313061	-0.853977	0.492934
H340	H	1.813061	-0.353977	0.992934
H341	H	1.248754	-0.854023	0.557061
H342	H	1.748754	-0.354023	1.057061
H343	H	1.303152	-0.755716	0.611704
H344	H	1.803152	-0.255716	1.111704
H345	H	1.367476	-0.755685	0.547582
H346	H	1.867476	-0.255685	1.047582
H347	H	1.363013	-0.819630	0.607379
H348	H	1.863013	-0.319630	1.107379
C349	C	1.029869	-0.452570	0.919380
C350	C	1.529869	0.047430	1.419380
C351	C	1.074296	-0.499733	0.872300
C352	C	1.574296	0.000267	1.372300
C353	C	1.024211	-0.546859	0.831162
C354	C	1.524211	-0.046859	1.331162
H355	H	0.999943	-0.480665	0.955424
H356	H	1.499943	0.019335	1.455424
H357	H	0.995689	-0.424445	0.887352
H358	H	1.495689	0.075555	1.387352
H359	H	1.108461	-0.527855	0.904325
H360	H	1.608461	-0.027855	1.404325
H361	H	1.104220	-0.471658	0.836241
H362	H	1.604220	0.028342	1.336241
H363	H	0.990032	-0.518734	0.799134
H364	H	1.490032	-0.018734	1.299134
H365	H	0.994288	-0.574949	0.867211
H366	H	1.494288	-0.074949	1.367211
H367	H	1.054347	-0.578860	0.799208
H368	H	1.554347	-0.078860	1.299208
H369	H	0.582738	-0.440029	0.469132
H370	H	1.082738	0.059971	0.969132
