data_functionalizedCrystal
_audit_creation_method	'MofGen! by Chris Wilmer'
_symmetry_space_group_name_H-M	'P1'
_symmetry_Int_Tables_number	1
_symmetry_cell_setting	triclinic
loop_
_symmetry_equiv_pos_as_xyz
  x,y,z
_cell_length_a	13.032831
_cell_length_b	12.594516
_cell_length_c	13.032268
_cell_angle_alpha	82.847564
_cell_angle_beta	89.113023
_cell_angle_gamma	82.821304
loop_
_atom_site_label
_atom_site_type_symbol
_atom_site_fract_x
_atom_site_fract_y
_atom_site_fract_z
Zn1	Zn	1.498496	-0.718822	0.780872
Zn2	Zn	1.520242	-0.877407	0.608900
Zn3	Zn	1.348353	-0.674358	0.587111
Zn4	Zn	1.326490	-0.871652	0.759025
O5	O	1.423395	-0.785560	0.683977
O6	O	1.645302	-0.760876	0.776322
O7	O	1.515691	-0.834272	0.462092
O8	O	1.368319	-0.531320	0.612838
O9	O	1.661279	-0.877387	0.649975
O10	O	1.478628	-0.563987	0.755193
O11	O	1.389406	-0.685093	0.446084
O12	O	1.201532	-0.679512	0.591654
O13	O	1.331056	-0.867579	0.905841
O14	O	1.185469	-0.824463	0.717958
O15	O	1.457428	-0.755295	0.921892
O16	O	1.494491	-1.025580	0.628791
O17	O	1.352143	-1.021351	0.739087
C18	C	1.156183	-0.746539	0.650071
C19	C	1.041866	-0.729875	0.635591
C20	C	0.982991	-0.794257	0.691535
C21	C	0.864838	-0.777035	0.676569
C22	C	1.423329	-1.062090	0.683958
C23	C	1.423391	-1.180408	0.683997
C24	C	1.345967	-1.247394	0.743938
C25	C	1.332833	-1.304009	0.646920
C26	C	1.436617	-1.334607	0.781043
C27	C	1.410213	-1.235453	0.586923
C28	C	1.514033	-1.266057	0.721115
C29	C	1.500943	-1.322639	0.624037
C30	C	1.691651	-0.824733	0.718016
C31	C	1.805965	-0.841426	0.732521
C32	C	1.389378	-0.815755	0.952226
C33	C	1.374882	-0.828622	1.066537
C34	C	1.423487	-0.507956	0.684022
C35	C	1.423526	-0.389658	0.684041
C36	C	1.457340	-0.755414	0.416779
C37	C	1.472035	-0.742276	0.302494
C38	C	1.430945	-0.778803	1.125443
C39	C	1.415964	-0.792101	1.243590
H40	H	1.004798	-0.662001	0.576621
N41	N	1.259124	-1.203699	0.810960
H42	H	1.190741	-1.217038	0.782801
H43	H	1.260181	-1.123654	0.810971
H44	H	1.398991	-1.192486	0.504836
H45	H	0.827774	-0.709156	0.617595
H46	H	1.256241	-1.321250	0.615556
N47	N	1.550320	-0.672735	1.253461
H48	H	1.532026	-0.596442	1.270090
H49	H	1.549897	-0.673177	1.176026
H50	H	1.356864	-0.844593	1.280621
N51	N	1.587764	-1.366047	0.556839
H52	H	1.577687	-1.329439	0.483597
H53	H	1.587672	-1.446341	0.557780
N54	N	1.032082	-0.884168	0.769648
H55	H	0.976560	-0.924768	0.804926
H56	H	1.070630	-0.852738	0.822921
H57	H	1.315786	-0.881111	1.103573
N58	N	0.855037	-0.931338	0.810651
H59	H	0.893575	-0.899987	0.863989
H60	H	0.904857	-0.982303	0.774303
N61	N	1.615459	-1.243221	0.762706
H62	H	1.625332	-1.279628	0.836039
H63	H	1.614831	-1.162826	0.761667
N64	N	1.451368	-1.391681	0.889725
H65	H	1.392789	-1.364229	0.934918
H66	H	1.519239	-1.377195	0.918128
H67	H	1.490030	-0.726303	1.088406
