data_functionalizedCrystal
_audit_creation_method	'MofGen! by Chris Wilmer'
_symmetry_space_group_name_H-M	'P1'
_symmetry_Int_Tables_number	1
_symmetry_cell_setting	triclinic
loop_
_symmetry_equiv_pos_as_xyz
  x,y,z
_cell_length_a	18.426585
_cell_length_b	21.606444
_cell_length_c	18.426585
_cell_angle_alpha	60.001398
_cell_angle_beta	90.001513
_cell_angle_gamma	60.000201
loop_
_atom_site_label
_atom_site_type_symbol
_atom_site_fract_x
_atom_site_fract_y
_atom_site_fract_z
Zr1	Zr	0.699097	0.677476	-0.095231
O2	O	0.583213	0.806595	-0.211105
O3	O	0.734623	0.548358	-0.059713
O4	O	0.734614	0.677482	-0.211113
O5	O	0.583229	0.677466	0.059726
O6	O	0.854040	0.677486	-0.211116
O7	O	0.583223	0.677471	-0.059705
O8	O	0.854056	0.446507	0.059711
O9	O	0.583212	0.908445	-0.211101
O10	O	0.838899	0.601469	-0.044563
O11	O	0.749778	0.601463	0.044569
O12	O	0.749767	0.753490	-0.133685
O13	O	0.660645	0.753483	-0.044553
Zr14	Zr	0.889578	0.677476	0.095242
Zr15	Zr	0.889568	0.677483	-0.095236
Zr16	Zr	0.699107	0.677469	0.095247
Zr17	Zr	0.699095	0.839917	-0.095225
Zr18	Zr	0.889580	0.515036	0.095236
O19	O	0.854052	0.806595	0.059724
O20	O	0.854038	0.806604	-0.211112
O21	O	0.583228	0.806585	0.059731
O22	O	1.005462	0.548358	0.211116
O23	O	1.005448	0.548368	-0.059720
O24	O	0.734637	0.548348	0.211123
O25	O	1.005446	0.677486	-0.059715
O26	O	0.854061	0.677471	0.211125
O27	O	0.734636	0.677466	0.211128
O28	O	1.005452	0.677482	0.059716
O29	O	0.734611	0.908451	-0.211105
O30	O	0.854064	0.446502	0.211116
O31	O	1.005463	0.446507	0.211112
O32	O	1.005455	0.446513	0.059707
O33	O	0.583220	0.908440	-0.059696
O34	O	0.734619	0.908445	-0.059700
O35	O	0.838909	0.601463	0.133697
O36	O	0.928030	0.601469	0.044564
O37	O	0.838897	0.753490	-0.044558
O38	O	0.749776	0.753483	0.044575
C39	C	0.794340	0.474288	-0.000002
C40	C	0.794341	0.405328	-0.000005
C41	C	0.840859	0.372934	-0.046532
C42	C	0.840863	0.308134	-0.046526
C43	C	0.794342	0.275734	0.000003
C44	C	0.747822	0.308131	0.046536
C45	C	0.747824	0.372925	0.046534
C46	C	0.747811	0.046821	0.046543
C47	C	0.747810	-0.017976	0.046539
C48	C	0.840850	-0.017970	-0.046517
C49	C	0.840852	0.046825	-0.046519
C50	C	0.794336	0.079213	0.000018
C51	C	0.794335	0.149475	0.000012
C52	C	0.794337	0.205477	0.000004
C53	C	0.556088	0.677468	0.000012
C54	C	0.475228	0.677465	0.000014
C55	C	0.179114	0.677491	-0.000002
C56	C	0.261500	0.677487	0.000000
C57	C	0.327168	0.677478	0.000005
C58	C	0.409560	0.677474	0.000009
C59	C	1.032587	0.677485	-0.000000
C60	C	1.113447	0.677488	-0.000003
C61	C	0.794325	0.677485	-0.238254
C62	C	0.794321	0.677488	-0.319117
C63	C	0.794335	0.880664	0.000013
C64	C	0.794334	0.949624	0.000016
C65	C	0.794355	0.677461	-0.615201
C66	C	0.794347	0.677465	-0.532819
C67	C	0.794337	0.677474	-0.467162
C68	C	0.794331	0.677478	-0.384775
C69	C	0.794350	0.677468	0.238265
C70	C	0.794354	0.677465	0.319128
C71	C	1.032590	0.474297	-0.000008
C72	C	1.113450	0.405340	-0.000013
C73	C	0.794352	0.474280	0.238257
C74	C	0.794357	0.405317	0.319118
C75	C	1.032602	0.474288	0.238251
C76	C	1.113467	0.405328	0.319110
C77	C	0.556073	0.880664	-0.238240
C78	C	0.475208	0.949624	-0.319099
C79	C	0.556086	0.880656	0.000019
C80	C	0.475225	0.949613	0.000024
C81	C	0.794323	0.880673	-0.238246
C82	C	0.794318	0.949636	-0.319107
C83	C	1.104898	0.372957	-0.046547
C84	C	1.180868	0.308173	-0.046569
C85	C	1.265389	0.275769	-0.000052
C86	C	1.273940	0.308158	0.046484
C87	C	1.197971	0.372945	0.046500
C88	C	0.840885	0.372931	0.403623
C89	C	0.840887	0.308142	0.479607
C90	C	0.794365	0.275735	0.471085
C91	C	0.747831	0.308127	0.386571
C92	C	0.747825	0.372920	0.310589
C93	C	1.197970	0.372947	0.310556
C94	C	1.273959	0.308161	0.386524
C95	C	1.265441	0.275752	0.471045
C96	C	1.180929	0.308140	0.479597
C97	C	1.104943	0.372929	0.403630
C98	C	0.390705	0.982013	-0.310545
C99	C	0.314717	1.046820	-0.386512
C100	C	0.323234	1.079232	-0.471034
C101	C	0.407746	1.046840	-0.479586
C102	C	0.483732	0.982039	-0.403619
C103	C	0.483777	0.982003	0.046550
C104	C	0.407808	1.046804	0.046551
C105	C	0.323286	1.079210	0.000031
C106	C	0.314736	1.046818	-0.046501
C107	C	0.390704	0.982022	-0.046506
C108	C	0.840848	0.982022	-0.310556
C109	C	0.840861	1.046811	-0.386526
C110	C	0.794337	1.079218	-0.471046
C111	C	0.747805	1.046826	-0.479595
C112	C	0.747798	0.982033	-0.403626
H113	H	0.709939	0.073181	0.084440
F114	F	0.381620	0.947528	-0.220598
F115	F	0.416797	1.081343	-0.569547
H116	H	1.174007	0.281743	0.548424
H117	H	1.173888	0.281809	-0.084463
F118	F	0.224774	1.081314	-0.096005
F119	F	0.698288	1.081330	-0.569554
F120	F	0.698263	0.947579	-0.412740
F121	F	1.207055	0.407431	0.220609
F122	F	0.698294	-0.052458	0.096064
F123	F	0.698324	0.273628	0.377515
H124	H	1.036083	0.399339	-0.084438
H125	H	0.383729	0.955652	-0.084391
H126	H	0.709940	0.399280	0.241784
F127	F	0.698322	0.273636	0.096067
H128	H	0.794377	0.222977	0.532962
F129	F	0.416926	1.081264	0.096082
H130	H	1.342765	0.281797	0.379544
H131	H	0.552537	0.955669	-0.410594
F132	F	0.890358	0.273674	-0.096063
H133	H	0.709941	0.399302	0.084419
F134	F	1.346235	0.206815	-0.000076
H135	H	1.036139	0.399285	0.410607
F136	F	0.890370	0.407415	-0.096060
F137	F	1.207087	0.407398	0.096037
H138	H	1.327322	0.222996	0.532895
H139	H	0.245911	1.073182	-0.379532
H140	H	0.261353	1.131997	-0.532884
H141	H	0.552592	0.955623	0.084438
H142	H	0.794350	1.131977	-0.532897
F143	F	1.363901	0.273661	0.095990
F144	F	0.242440	1.148172	0.000046
F145	F	0.890407	0.407406	0.412713
H146	H	0.878734	0.955646	-0.241743
H147	H	0.878752	1.073178	-0.379548
H148	H	0.878729	-0.044350	-0.084407
F149	F	0.890362	0.081308	-0.096045
H150	H	0.878783	0.281776	0.548414
