data_functionalizedCrystal
_audit_creation_method	'MofGen! by Chris Wilmer'
_symmetry_space_group_name_H-M	'P1'
_symmetry_Int_Tables_number	1
_symmetry_cell_setting	triclinic
loop_
_symmetry_equiv_pos_as_xyz
  x,y,z
_cell_length_a	12.645331
_cell_length_b	19.121063
_cell_length_c	12.645323
_cell_angle_alpha	92.408124
_cell_angle_beta	89.977324
_cell_angle_gamma	92.467980
loop_
_atom_site_label
_atom_site_type_symbol
_atom_site_fract_x
_atom_site_fract_y
_atom_site_fract_z
Zn1	Zn	1.602654	-0.279627	-0.617388
Zn2	Zn	1.594942	-0.397086	-0.447665
Zn3	Zn	1.425367	-0.279651	-0.440134
Zn4	Zn	1.417760	-0.397040	-0.624877
O5	O	1.510181	-0.338351	-0.532516
O6	O	1.749978	-0.295217	-0.594892
O7	O	1.572404	-0.381537	-0.298321
O8	O	1.455295	-0.181363	-0.457361
O9	O	1.744312	-0.381514	-0.470197
O10	O	1.585547	-0.181346	-0.587589
O11	O	1.447818	-0.295258	-0.292788
O12	O	1.276011	-0.295213	-0.464623
O13	O	1.442330	-0.381436	-0.772230
O14	O	1.270422	-0.381459	-0.600353
O15	O	1.578171	-0.295173	-0.766727
O16	O	1.565027	-0.495364	-0.477459
O17	O	1.434852	-0.495330	-0.607656
C18	C	1.234752	-0.338334	-0.532485
C19	C	1.116921	-0.338344	-0.532497
C20	C	0.952854	-0.283838	-0.447545
C21	C	1.075405	-0.283979	-0.447195
C22	C	1.067618	-0.412331	-0.506730
C23	C	0.945039	-0.412033	-0.506155
C24	C	0.950986	-0.319567	-0.643576
C25	C	1.073698	-0.317914	-0.642847
C26	C	1.498306	-0.520831	-0.544210
C27	C	1.493323	-0.598897	-0.549248
C28	C	1.558810	-0.635567	-0.483885
C29	C	1.554130	-0.708918	-0.488629
C30	C	1.483957	-0.745598	-0.558733
C31	C	1.418467	-0.708923	-0.624104
C32	C	1.423154	-0.635573	-0.619364
C33	C	1.466419	-0.967067	-0.576438
C34	C	1.461736	-1.040422	-0.581171
C35	C	1.597400	-1.040412	-0.445697
C36	C	1.602076	-0.967061	-0.440959
C37	C	1.536590	-0.930392	-0.506334
C38	C	1.479169	-0.820575	-0.563582
C39	C	1.541384	-0.855417	-0.501489
C40	C	1.786685	-0.338368	-0.532549
C41	C	1.904514	-0.338375	-0.532563
C42	C	1.510262	-0.338296	-0.809018
C43	C	1.510297	-0.338273	-0.926847
C44	C	1.522130	-0.155158	-0.520800
C45	C	1.527222	-0.077092	-0.515807
C46	C	1.424603	-0.392285	-1.097856
C47	C	1.424801	-0.392553	-0.975313
C48	C	1.620698	-0.358362	-0.972656
C49	C	1.620225	-0.358700	-1.095276
C50	C	1.486666	-0.263871	-1.089271
C51	C	1.484145	-0.264317	-0.966693
C52	C	1.510164	-0.338354	-0.257087
C53	C	1.510347	-0.338179	-0.139246
H54	H	0.921211	-0.296131	-0.365663
F55	F	1.102207	-0.466864	-0.585404
F56	F	1.396722	-0.928051	-0.646015
F57	F	0.915085	-0.250278	-0.675404
F58	F	1.112628	-0.300224	-0.339540
F59	F	1.317601	-0.376118	-0.934910
F60	F	1.116353	-0.246754	-0.668367
F61	F	1.110652	-0.366049	-0.729571
H62	H	1.607456	-0.738771	-0.435402
F63	F	1.648259	-0.428619	-0.937054
H64	H	1.598523	-0.825550	-0.444415
F65	F	1.647192	-0.429701	-1.137231
H66	H	1.361335	-0.738794	-0.681188
H67	H	1.686020	-0.321003	-1.122535
F68	F	1.667094	-1.079442	-0.376131
F69	F	0.906246	-0.432879	-0.400261
H70	H	1.369829	-0.605717	-0.672591
H71	H	1.342333	-0.379835	-1.126531
F72	F	1.568370	-0.211181	-1.123811
H73	H	1.407816	-0.245560	-1.119000
F74	F	1.119388	-0.212266	-0.467592
H75	H	1.404605	-1.070285	-0.638276
H76	H	0.919439	-0.359290	-0.706863
F77	F	1.633492	-0.596536	-0.409264
H78	H	1.422032	-0.850448	-0.620658
H79	H	0.912678	-0.454044	-0.565636
F80	F	1.377976	-0.244517	-0.927400
F81	F	1.444775	-0.464550	-0.941612
H82	H	1.097224	-0.428555	-0.426612
F83	F	1.444267	-0.463832	-1.142791
F84	F	1.706170	-0.308482	-0.931377
H85	H	1.659216	-0.937197	-0.383875
F86	F	1.560318	-0.208840	-0.923122
H87	H	0.926948	-0.228808	-0.462935
