data_functionalizedCrystal
_audit_creation_method	'MofGen! by Chris Wilmer'
_symmetry_space_group_name_H-M	'P1'
_symmetry_Int_Tables_number	1
_symmetry_cell_setting	triclinic
loop_
_symmetry_equiv_pos_as_xyz
  x,y,z
_cell_length_a	25.639239
_cell_length_b	19.077105
_cell_length_c	19.077174
_cell_angle_alpha	94.516248
_cell_angle_beta	92.270789
_cell_angle_gamma	92.265071
loop_
_atom_site_label
_atom_site_type_symbol
_atom_site_fract_x
_atom_site_fract_y
_atom_site_fract_z
Zn1	Zn	-0.254037	-1.093621	-0.441824
Zn2	Zn	-0.337809	-1.088778	-0.323930
Zn3	Zn	-0.246728	-0.971008	-0.319222
Zn4	Zn	-0.337775	-0.975672	-0.437048
O5	O	-0.294087	-1.032270	-0.380506
O6	O	-0.268222	-1.191628	-0.430154
O7	O	-0.322682	-1.069177	-0.224656
O8	O	-0.174535	-0.987348	-0.335514
O9	O	-0.329769	-1.188069	-0.343538
O10	O	-0.179905	-1.077431	-0.425589
O11	O	-0.255766	-0.982652	-0.221197
O12	O	-0.255733	-0.872978	-0.330883
O13	O	-0.329711	-0.995296	-0.536331
O14	O	-0.322624	-0.876404	-0.417449
O15	O	-0.268189	-1.081953	-0.539840
O16	O	-0.410966	-1.073699	-0.338907
O17	O	-0.410941	-0.990600	-0.422014
C18	C	-0.288382	-0.849112	-0.373137
C19	C	-0.285954	-0.770758	-0.370001
C20	C	-0.429925	-1.032150	-0.380469
C21	C	-0.488040	-1.032164	-0.380479
C22	C	-0.299761	-1.039685	-0.564379
C23	C	-0.302179	-1.042845	-0.642735
C24	C	-0.848413	-1.075660	-0.337314
C25	C	-0.903019	-1.075688	-0.337324
O26	O	-0.931259	-1.112545	-0.300583
N27	N	-0.930331	-1.032395	-0.380558
C28	C	-0.903036	-0.989078	-0.423789
O29	O	-0.931282	-0.952258	-0.460564
C30	C	-0.848432	-0.989055	-0.423781
C31	C	-0.821122	-1.032344	-0.380540
C32	C	-0.821103	-1.118947	-0.294076
C33	C	-0.766501	-1.118918	-0.294065
C34	C	-0.739210	-1.075602	-0.337291
C35	C	-0.766520	-1.032315	-0.380529
C36	C	-0.821138	-0.945742	-0.467016
C37	C	-0.766530	-0.945722	-0.467005
C38	C	-0.739220	-0.989012	-0.423764
C39	C	-0.684627	-0.988971	-0.423743
N40	N	-0.657314	-1.032263	-0.380510
C41	C	-0.684606	-1.075579	-0.337284
C42	C	-1.017709	-0.989132	-0.423802
C43	C	-1.072312	-0.989151	-0.423806
C44	C	-1.072291	-1.075762	-0.337342
C45	C	-1.017686	-1.075738	-0.337335
C46	C	-0.990396	-1.032424	-0.380568
C47	C	-0.569938	-1.075514	-0.337263
C48	C	-0.515331	-1.075480	-0.337253
C49	C	-0.515357	-0.988872	-0.423719
C50	C	-0.569959	-0.988904	-0.423727
C51	C	-0.597248	-1.032231	-0.380496
O52	O	-0.656351	-0.952135	-0.460468
O53	O	-0.656354	-1.112400	-0.300522
C54	C	-0.157720	-1.032410	-0.380559
C55	C	-0.099608	-1.032470	-0.380582
C56	C	-0.299815	-1.216142	-0.387904
C57	C	-0.302256	-1.294498	-0.391057
C58	C	-0.319689	-0.735746	-0.413528
C59	C	-0.317401	-0.662123	-0.410585
C60	C	-0.281381	-0.623514	-0.364112
C61	C	-0.247643	-0.658531	-0.320584
C62	C	-0.249928	-0.732152	-0.323531
C63	C	-0.270803	-0.403136	-0.350476
C64	C	-0.268521	-0.329510	-0.347530
C65	C	-0.338279	-0.333107	-0.437533
C66	C	-0.340563	-0.406730	-0.440473
C67	C	-0.306824	-0.441741	-0.396948
N68	N	-0.279043	-0.548259	-0.361101
N69	N	-0.309160	-0.516994	-0.399962
C70	C	-0.268476	-0.999283	-0.677746
C71	C	-0.270753	-1.002250	-0.751369
C72	C	-0.306730	-1.048782	-0.789981
C73	C	-0.340437	-1.092346	-0.754966
C74	C	-0.338163	-1.089376	-0.681343
C75	C	-0.317270	-1.062494	-1.010362
C76	C	-0.319540	-1.065462	-1.083989
C77	C	-0.249857	-0.975364	-1.080388
C78	C	-0.247584	-0.972401	-1.006764
C79	C	-0.281292	-1.015962	-0.971755
N80	N	-0.309056	-1.051817	-0.865236
N81	N	-0.278968	-1.012923	-0.896501
C82	C	-0.288398	-1.024924	-0.197350
C83	C	-0.285837	-1.021900	-0.119000
H84	H	-0.493097	-1.110731	-0.302038
H85	H	-0.218288	-0.934507	-0.975331
C86	C	-0.354509	-0.623609	-0.458461
H87	H	-0.347986	-0.574234	-0.450057
H88	H	-0.389679	-0.635222	-0.448538
H89	H	-0.348748	-0.637605	-0.506331
C90	C	-0.375236	-1.137294	-0.642832
H91	H	-0.396986	-1.165437	-0.676371
H92	H	-0.396288	-1.109143	-0.613018
H93	H	-0.355305	-1.166875	-0.615355
H94	H	-0.369733	-1.130231	-0.786409
H95	H	-0.222456	-0.760658	-0.288090
H96	H	-0.239183	-0.298076	-0.309691
C97	C	-0.485330	-0.941232	-0.471268
H98	H	-0.448899	-0.947425	-0.465071
H99	H	-0.492522	-0.893459	-0.459017
H100	H	-0.496038	-0.953436	-0.519059
C101	C	-0.228905	-0.948091	-0.635279
H102	H	-0.209164	-0.922566	-0.666677
H103	H	-0.206076	-0.973914	-0.607649
H104	H	-0.247068	-0.916195	-0.605319
H105	H	-0.744313	-0.910451	-0.502213
H106	H	-0.222414	-0.939899	-1.108900
H107	H	-0.592196	-0.953656	-0.458940
H108	H	-0.592150	-1.110797	-0.302062
C109	C	-0.987693	-0.941474	-0.471353
H110	H	-1.011784	-0.915693	-0.497095
H111	H	-0.968149	-0.969640	-0.503175
H112	H	-0.964637	-0.909678	-0.443119
H113	H	-0.744269	-1.154170	-0.258856
H114	H	-0.344723	-1.097957	-0.981866
C115	C	-0.851115	-1.166594	-0.246519
H116	H	-0.827022	-1.192362	-0.220768
H117	H	-0.874176	-1.198391	-0.274738
H118	H	-0.870654	-1.138416	-0.214694
C119	C	-0.987650	-1.123362	-0.289776
H120	H	-1.011730	-1.149163	-0.264038
H121	H	-0.964589	-1.095177	-0.257950
H122	H	-0.968110	-1.155141	-0.318004
C123	C	-0.380182	-0.449195	-0.491598
H124	H	-0.399943	-0.417799	-0.517104
H125	H	-0.402989	-0.476803	-0.465726
H126	H	-0.362054	-0.479177	-0.523515
H127	H	-1.094543	-0.953893	-0.459011
H128	H	-0.349022	-0.767176	-0.451369
H129	H	-0.365747	-0.304594	-0.472970
H130	H	-0.218312	-0.627089	-0.282747
C131	C	-0.233699	-0.441638	-0.302587
H132	H	-0.211927	-0.408098	-0.274481
H133	H	-0.212672	-0.471475	-0.330751
H134	H	-0.253613	-0.469090	-0.272970
H135	H	-0.243310	-0.966774	-0.779871
H136	H	-0.843364	-0.910487	-0.502224
C137	C	-0.359113	-1.116656	-1.126462
H138	H	-0.378865	-1.142173	-1.095068
H139	H	-0.340952	-1.148549	-1.156420
H140	H	-0.381941	-1.090825	-1.154092
H141	H	-1.094521	-1.111034	-0.302147
