data_functionalizedCrystal
_audit_creation_method	'MofGen! by Chris Wilmer'
_symmetry_space_group_name_H-M	'P1'
_symmetry_Int_Tables_number	1
_symmetry_cell_setting	triclinic
loop_
_symmetry_equiv_pos_as_xyz
  x,y,z
_cell_length_a	16.959455
_cell_length_b	12.594516
_cell_length_c	16.959447
_cell_angle_alpha	89.974854
_cell_angle_beta	89.979626
_cell_angle_gamma	90.013073
loop_
_atom_site_label
_atom_site_type_symbol
_atom_site_fract_x
_atom_site_fract_y
_atom_site_fract_z
Zn1	Zn	1.208406	-0.423806	-0.447065
Zn2	Zn	1.208338	-0.601813	-0.314898
Zn3	Zn	1.076234	-0.423839	-0.314888
Zn4	Zn	1.076208	-0.601733	-0.447023
O5	O	1.142297	-0.512798	-0.380968
O6	O	1.319008	-0.447438	-0.429554
O7	O	1.190796	-0.578251	-0.204286
O8	O	1.093807	-0.274889	-0.332435
O9	O	1.318958	-0.578219	-0.332452
O10	O	1.190913	-0.274864	-0.429545
O11	O	1.093741	-0.447495	-0.204279
O12	O	0.965620	-0.447418	-0.332395
O13	O	1.093762	-0.578084	-0.557639
O14	O	0.965601	-0.578116	-0.429473
O15	O	1.190887	-0.447361	-0.557670
O16	O	1.190771	-0.750748	-0.332411
O17	O	1.093696	-0.750690	-0.429483
C18	C	0.936930	-0.512763	-0.380929
C19	C	0.849074	-0.512774	-0.380930
C20	C	0.477561	-0.580828	-0.330382
C21	C	0.477635	-0.444856	-0.431652
C22	C	0.560181	-0.444838	-0.431632
C23	C	0.601421	-0.512818	-0.380988
C24	C	0.560115	-0.580815	-0.330362
C25	C	0.601493	-0.376850	-0.482263
C26	C	0.684044	-0.376831	-0.482246
C27	C	0.725285	-0.444806	-0.431597
C28	C	0.683974	-0.512805	-0.380969
C29	C	0.725214	-0.580784	-0.330324
C30	C	0.683905	-0.648778	-0.279691
C31	C	0.601356	-0.648790	-0.279713
C32	C	0.807834	-0.444794	-0.431575
C33	C	0.807768	-0.580771	-0.330305
C34	C	1.142245	-0.789339	-0.380961
C35	C	1.142295	-0.907644	-0.380984
C36	C	1.089491	-0.976904	-0.433744
C37	C	1.070239	-1.047766	-0.361616
C38	C	1.161619	-1.047581	-0.453124
C39	C	1.123005	-0.976948	-0.308818
C40	C	1.214418	-0.976756	-0.400374
C41	C	1.195194	-1.047587	-0.328197
C42	C	1.348465	-0.512833	-0.381009
C43	C	1.436321	-0.512849	-0.381026
C44	C	1.142329	-0.512710	-0.587137
C45	C	1.142343	-0.512672	-0.674993
C46	C	1.142370	-0.235177	-0.380994
C47	C	1.142401	-0.116871	-0.381004
C48	C	1.091869	-0.580621	-1.046456
C49	C	1.193007	-0.444499	-1.046483
C50	C	1.192985	-0.444521	-0.963937
C51	C	1.142406	-0.512596	-0.922647
C52	C	1.091848	-0.580648	-0.963902
C53	C	1.243548	-0.376478	-0.922675
C54	C	1.243530	-0.376499	-0.840124
C55	C	1.192946	-0.444569	-0.798832
C56	C	1.142385	-0.512623	-0.840093
C57	C	1.091806	-0.580697	-0.798803
C58	C	1.041241	-0.648747	-0.840062
C59	C	1.041265	-0.648718	-0.922610
C60	C	1.192923	-0.444597	-0.716284
C61	C	1.091785	-0.580724	-0.716249
C62	C	1.142309	-0.512809	-0.175602
C63	C	1.142448	-0.512546	-0.087746
H64	H	0.717493	-0.704133	-0.238461
O65	O	1.042740	-0.647010	-0.676175
C66	C	1.059981	-0.753085	-0.696353
H67	H	1.123129	-0.758457	-0.719058
H68	H	1.053152	-0.805690	-0.642058
H69	H	1.017603	-0.780884	-0.744258
O70	O	1.181117	-1.084418	-0.525931
C71	C	1.193986	-0.997941	-0.577171
H72	H	1.209657	-0.924462	-0.541207
H73	H	1.244537	-1.017455	-0.619048
H74	H	1.138172	-0.981979	-0.612692
O75	O	0.437666	-0.378680	-0.480810
C76	C	0.457817	-0.272562	-0.463649
H77	H	0.517733	-0.270291	-0.433249
H78	H	0.460680	-0.224931	-0.520754
H79	H	0.411332	-0.236655	-0.423070
O80	O	0.724256	-0.310727	-0.531313
C81	C	0.771965	-0.241880	-0.486381
H82	H	0.784292	-0.279319	-0.426430
H83	H	0.830035	-0.227655	-0.518578
H84	H	0.740149	-0.162995	-0.477802
H85	H	0.567715	-0.704146	-0.238491
H86	H	1.234190	-0.389081	-1.080106
O87	O	1.292524	-0.310322	-0.799970
C88	C	1.247511	-0.241565	-0.752256
H89	H	1.187605	-0.279117	-0.739871
H90	H	1.279692	-0.227290	-0.694215
H91	H	1.238840	-0.162692	-0.784098
O92	O	1.248608	-1.084443	-0.275031
C93	C	1.305885	-1.145969	-0.314300
H94	H	1.308210	-1.121977	-0.379082
H95	H	1.366005	-1.132064	-0.286081
H96	H	1.289759	-1.233614	-0.309493
H97	H	1.050698	-0.636022	-1.080052
H98	H	1.284732	-0.321062	-0.956300
H99	H	1.234094	-0.389196	-0.682694
H100	H	1.009295	-1.078981	-0.345232
H101	H	0.841340	-0.636125	-0.289061
H102	H	1.000100	-0.704124	-0.956211
H103	H	0.567909	-0.321512	-0.523500
O104	O	0.437403	-0.646989	-0.281314
C105	C	0.389656	-0.715799	-0.326237
H106	H	0.414564	-0.722474	-0.388479
H107	H	0.388697	-0.797664	-0.297547
H108	H	0.327098	-0.682904	-0.329011
H109	H	1.275348	-0.945545	-0.416793
H110	H	1.106633	-0.946050	-0.247802
O111	O	0.992203	-0.715032	-0.799979
C112	C	1.009445	-0.821109	-0.820154
H113	H	1.072589	-0.826477	-0.842870
H114	H	1.002629	-0.873708	-0.765854
H115	H	0.967061	-0.848917	-0.868048
H116	H	1.044756	-0.945868	-0.478296
O117	O	0.847876	-0.378811	-0.480865
C118	C	0.827766	-0.402237	-0.559620
H119	H	0.767828	-0.443164	-0.561219
H120	H	0.824972	-0.325485	-0.595166
H121	H	0.874238	-0.457002	-0.586157
