data_functionalizedCrystal
_audit_creation_method	'MofGen! by Chris Wilmer'
_symmetry_space_group_name_H-M	'P1'
_symmetry_Int_Tables_number	1
_symmetry_cell_setting	triclinic
loop_
_symmetry_equiv_pos_as_xyz
  x,y,z
_cell_length_a	17.077404
_cell_length_b	10.685194
_cell_length_c	10.685986
_cell_angle_alpha	99.091424
_cell_angle_beta	85.652620
_cell_angle_gamma	94.372382
loop_
_atom_site_label
_atom_site_type_symbol
_atom_site_fract_x
_atom_site_fract_y
_atom_site_fract_z
Zn1	Zn	1.146312	-0.450364	0.678970
Zn2	Zn	1.646312	0.049636	1.178970
Zn3	Zn	1.146241	-0.678979	0.450435
Zn4	Zn	1.646241	-0.178979	0.950435
Zn5	Zn	1.024377	-0.466708	0.466727
Zn6	Zn	1.524377	0.033292	0.966727
Zn7	Zn	1.005706	-0.662573	0.662635
Zn8	Zn	1.505706	-0.162573	1.162635
O9	O	1.080659	-0.564656	0.564692
O10	O	1.580659	-0.064656	1.064692
O11	O	1.256148	-0.480717	0.648673
O12	O	1.756148	0.019283	1.148673
O13	O	1.137860	-0.664526	0.274965
O14	O	1.637860	-0.164526	0.774965
O15	O	1.048396	-0.286893	0.508537
O16	O	1.548396	0.213107	1.008537
O17	O	1.256096	-0.648679	0.480769
O18	O	1.756096	-0.148679	0.980769
O19	O	1.137981	-0.274886	0.664471
O20	O	1.637981	0.225114	1.164471
O21	O	1.048327	-0.508571	0.286935
O22	O	1.548327	-0.008571	0.786935
O23	O	0.912056	-0.492663	0.492697
O24	O	1.412056	0.007337	0.992697
O25	O	1.016574	-0.620717	0.842433
O26	O	1.516574	-0.120717	1.342433
O27	O	0.898338	-0.636564	0.636629
O28	O	1.398338	-0.136564	1.136629
O29	O	1.119876	-0.464808	0.854434
O30	O	1.619876	0.035192	1.354434
O31	O	1.119755	-0.854449	0.464929
O32	O	1.619755	-0.354449	0.964929
O33	O	1.016505	-0.842395	0.620831
O34	O	1.516505	-0.342395	1.120831
C35	C	0.876715	-0.564608	0.564659
C36	C	1.376715	-0.064608	1.064659
C37	C	0.789464	-0.564615	0.564673
C38	C	1.289464	-0.064615	1.064673
C39	C	0.406521	-0.639774	0.639532
C40	C	0.906521	-0.139774	1.139532
C41	C	0.488503	-0.639759	0.639514
C42	C	0.988503	-0.139759	1.139514
C43	C	0.536610	-0.564688	0.564710
C44	C	1.036610	-0.064688	1.064710
C45	C	0.502732	-0.489637	0.489908
C46	C	1.002732	0.010363	0.989908
C47	C	0.420751	-0.489660	0.489920
C48	C	0.920751	0.010340	0.989920
C49	C	0.673605	-0.489592	0.489891
C50	C	1.173605	0.010408	0.989891
C51	C	0.755591	-0.489567	0.489880
C52	C	1.255591	0.010433	0.989880
C53	C	0.741357	-0.639691	0.639485
C54	C	1.241357	-0.139691	1.139485
C55	C	0.659376	-0.639714	0.639497
C56	C	1.159376	-0.139714	1.139497
C57	C	0.625503	-0.564661	0.564697
C58	C	1.125503	-0.064661	1.064697
C59	C	1.066116	-0.894481	0.539367
C60	C	1.566116	-0.394481	1.039367
C61	C	1.059965	-1.035579	0.528575
C62	C	1.559965	-0.535579	1.028575
C63	C	1.285400	-0.564705	0.564725
C64	C	1.785400	-0.064705	1.064725
C65	C	1.372648	-0.564726	0.564740
C66	C	1.872648	-0.064726	1.064740
C67	C	1.066150	-0.539110	0.895779
C68	C	1.566150	-0.039110	1.395779
C69	C	1.059967	-0.528223	1.036869
C70	C	1.559967	-0.028223	1.536869
C71	C	1.095279	-0.233540	0.590143
C72	C	1.595279	0.266460	1.090143
C73	C	1.101509	-0.092438	0.600989
C74	C	1.601509	0.407562	1.100989
C75	C	1.095161	-0.590011	0.234900
C76	C	1.595161	-0.090011	0.734900
C77	C	1.101512	-0.600540	0.093838
C78	C	1.601512	-0.100540	0.593838
H79	H	0.367357	-0.700898	0.700455
H80	H	0.867357	-0.200898	1.200455
Cl81	Cl	0.816068	-0.395204	0.395826
Cl82	Cl	1.316068	0.104796	0.895826
Cl83	Cl	0.531083	-0.734112	0.733541
Cl84	Cl	1.031083	-0.234112	1.233541
Cl85	Cl	0.598899	-0.734083	0.733546
Cl86	Cl	1.098899	-0.234083	1.233546
Cl87	Cl	1.163738	-0.708980	1.002494
Cl88	Cl	1.663738	-0.208980	1.502494
Cl89	Cl	0.997769	-1.127079	0.420107
Cl90	Cl	1.497769	-0.627079	0.920107
H91	H	0.646029	-0.428473	0.428983
H92	H	1.146029	0.071527	0.928983
H93	H	0.541907	-0.428519	0.428995
H94	H	1.041907	0.071481	0.928995
H95	H	1.141784	-1.033175	0.671248
H96	H	1.641784	-0.533175	1.171248
Cl97	Cl	0.783939	-0.734020	0.733542
Cl98	Cl	1.283939	-0.234020	1.233542
Cl99	Cl	0.997753	-0.419775	1.128209
Cl100	Cl	1.497753	0.080225	1.628209
H101	H	0.393173	-0.428544	0.429020
H102	H	0.893173	0.071456	0.929020
