data_functionalizedCrystal
_audit_creation_method	'MofGen! by Chris Wilmer'
_symmetry_space_group_name_H-M	'P1'
_symmetry_Int_Tables_number	1
_symmetry_cell_setting	triclinic
loop_
_symmetry_equiv_pos_as_xyz
  x,y,z
_cell_length_a	14.519709
_cell_length_b	14.519709
_cell_length_c	14.421503
_cell_angle_alpha	89.995739
_cell_angle_beta	89.997167
_cell_angle_gamma	96.319855
loop_
_atom_site_label
_atom_site_type_symbol
_atom_site_fract_x
_atom_site_fract_y
_atom_site_fract_z
O1	O	1.223874	-0.120877	-0.076993
O2	O	1.557208	0.212456	0.256340
O3	O	1.890541	0.545790	0.589674
O4	O	0.955397	-0.135114	-0.077022
O5	O	1.288731	0.198220	0.256312
O6	O	1.622064	0.531553	0.589645
O7	O	1.096754	0.006243	-0.076998
O8	O	1.430087	0.339576	0.256335
O9	O	1.763421	0.672910	0.589669
O10	O	1.082518	-0.262234	-0.077016
O11	O	1.415851	0.071099	0.256317
O12	O	1.749184	0.404433	0.589650
O13	O	1.096728	0.006219	0.077225
O14	O	1.430062	0.339553	0.410559
O15	O	1.763395	0.672886	0.743892
O16	O	0.955372	-0.135137	0.077202
O17	O	1.288705	0.198196	0.410535
O18	O	1.622038	0.531529	0.743869
O19	O	1.223848	-0.120901	0.077230
O20	O	1.557182	0.212432	0.410564
O21	O	1.890515	0.545766	0.743897
Cu22	Cu	1.089608	-0.128021	0.091298
Cu23	Cu	1.422941	0.205312	0.424631
Cu24	Cu	1.756274	0.538645	0.757965
Cu25	Cu	1.089638	-0.127993	-0.091089
Cu26	Cu	1.422972	0.205340	0.242244
Cu27	Cu	1.756305	0.538673	0.575578
O28	O	1.082492	-0.262258	0.077207
O29	O	1.415825	0.071076	0.410540
O30	O	1.749158	0.404409	0.743874
C31	C	0.921025	-0.134462	0.000087
C32	C	1.254358	0.198871	0.333420
C33	C	1.587691	0.532205	0.666753
C34	C	0.818643	-0.132474	0.000076
C35	C	1.151977	0.200859	0.333409
C36	C	1.485310	0.534193	0.666743
C37	C	1.096078	0.040591	0.000114
C38	C	1.429411	0.373924	0.333447
C39	C	1.762744	0.707258	0.666780
C40	C	1.094090	0.142972	0.000114
C41	C	1.427423	0.476306	0.333447
C42	C	1.760756	0.809639	0.666781
C43	C	0.443748	-0.125154	0.000119
C44	C	0.777081	0.208179	0.333452
C45	C	1.110414	0.541512	0.666785
C46	C	0.548056	-0.127187	0.000106
C47	C	0.881389	0.206146	0.333440
C48	C	1.214722	0.539480	0.666773
C49	C	0.631192	-0.128814	0.000096
C50	C	0.964526	0.204519	0.333430
C51	C	1.297859	0.537853	0.666763
C52	C	0.735507	-0.130847	0.000086
C53	C	1.068840	0.202486	0.333419
C54	C	1.402173	0.535820	0.666753
C55	C	1.258221	-0.121553	0.000120
C56	C	1.591554	0.211781	0.333454
C57	C	1.924888	0.545114	0.666787
C58	C	1.360602	-0.123541	0.000125
C59	C	1.693936	0.209793	0.333458
C60	C	2.027269	0.543126	0.666792
N61	N	1.089593	-0.128040	0.219579
N62	N	1.422926	0.205293	0.552913
N63	N	1.756259	0.538626	0.886246
C64	C	1.083168	-0.296606	0.000093
C65	C	1.416501	0.036728	0.333427
C66	C	1.749835	0.370061	0.666760
C67	C	1.085156	-0.398987	0.000087
C68	C	1.418490	-0.065653	0.333420
C69	C	1.751823	0.267680	0.666754
C70	C	1.086770	0.517868	0.000089
C71	C	1.420103	0.851201	0.333422
C72	C	1.753437	1.184535	0.666756
C73	C	1.088803	0.413560	0.000096
C74	C	1.422136	0.746893	0.333430
C75	C	1.755469	1.080227	0.666763
C76	C	1.090430	0.330423	0.000102
C77	C	1.423763	0.663757	0.333436
C78	C	1.757096	0.997090	0.666769
C79	C	1.092463	0.226109	0.000108
C80	C	1.425796	0.559442	0.333441
C81	C	1.759129	0.892776	0.666775
C82	C	1.024214	-0.193379	0.469222
C83	C	1.357547	0.139955	0.802555
C84	C	1.690881	0.473288	1.135889
C85	C	1.107575	-0.211417	0.531032
C86	C	1.440908	0.121916	0.864366
C87	C	1.774242	0.455250	1.197699
C88	C	1.089612	-0.128022	0.408741
C89	C	1.422946	0.205312	0.742074
C90	C	1.756279	0.538645	1.075407
C91	C	1.006270	-0.110008	0.531024
C92	C	1.339603	0.223325	0.864358
C93	C	1.672936	0.556658	1.197691
C94	C	1.089624	-0.128006	0.591462
C95	C	1.422957	0.205327	0.924795
C96	C	1.756290	0.538661	1.258129
C97	C	1.173015	-0.146102	0.469190
C98	C	1.506349	0.187232	0.802523
C99	C	1.839682	0.520565	1.135857
C100	C	1.071655	-0.044657	0.469177
C101	C	1.404989	0.288677	0.802510
C102	C	1.738322	0.622010	1.135843
C103	C	1.155077	-0.062660	0.530959
C104	C	1.488410	0.270674	0.864292
C105	C	1.821743	0.604007	1.197626
C106	C	1.089604	-0.128033	0.303480
C107	C	1.422938	0.205300	0.636813
C108	C	1.756271	0.538633	0.970146
C109	C	1.089641	-0.127994	0.696721
C110	C	1.422974	0.205340	1.030054
C111	C	1.756308	0.538673	1.363388
N112	N	1.089644	-0.127984	0.780630
N113	N	1.422978	0.205349	1.113963
N114	N	1.756311	0.538682	1.447296
H115	H	0.968966	-0.248692	0.442115
H116	H	1.302300	0.084641	0.775449
H117	H	1.635633	0.417974	1.108782
H118	H	1.122775	-0.281910	0.558202
H119	H	1.456109	0.051423	0.891535
H120	H	1.789442	0.384757	1.224868
N121	N	1.261468	-0.165310	0.435286
N122	N	1.594801	0.168023	0.768620
N123	N	1.928135	0.501357	1.101953
N124	N	1.332618	-0.112769	0.455699
N125	N	1.665951	0.220564	0.789032
N126	N	1.999285	0.553897	1.122366
H127	H	1.395087	-0.126338	0.431755
H128	H	1.728420	0.206996	0.765088
H129	H	2.061753	0.540329	1.098422
H130	H	1.210447	-0.007379	0.557896
H131	H	1.543780	0.325954	0.891229
H132	H	1.877114	0.659287	1.224563
N133	N	1.052548	0.043749	0.435073
N134	N	1.385881	0.377083	0.768407
N135	N	1.719215	0.710416	1.101740
N136	N	0.977675	0.074073	0.454849
N137	N	1.311008	0.407407	0.788182
N138	N	1.644341	0.740740	1.121515
H139	H	0.964170	0.136511	0.430763
H140	H	1.297503	0.469844	0.764097
H141	H	1.630837	0.803178	1.097430
H142	H	0.935784	-0.094780	0.558188
H143	H	1.269117	0.238553	0.891521
H144	H	1.602451	0.571887	1.224855
