data_functionalizedCrystal
_audit_creation_method	'MofGen! by Chris Wilmer'
_symmetry_space_group_name_H-M	'P1'
_symmetry_Int_Tables_number	1
_symmetry_cell_setting	triclinic
loop_
_symmetry_equiv_pos_as_xyz
  x,y,z
_cell_length_a	17.699077
_cell_length_b	19.188930
_cell_length_c	16.176319
_cell_angle_alpha	89.988074
_cell_angle_beta	89.993140
_cell_angle_gamma	83.212679
loop_
_atom_site_label
_atom_site_type_symbol
_atom_site_fract_x
_atom_site_fract_y
_atom_site_fract_z
O1	O	1.003965	0.088275	-0.068745
O2	O	0.783571	0.099766	-0.068750
O3	O	0.900128	-0.007628	-0.068731
O4	O	0.887408	0.195669	-0.068764
O5	O	0.900112	-0.007635	0.068762
O6	O	0.783555	0.099759	0.068743
O7	O	1.003949	0.088268	0.068748
Cu8	Cu	0.893751	0.094013	0.081300
Cu9	Cu	0.893770	0.094021	-0.081302
O10	O	0.887392	0.195662	0.068729
C11	C	0.755367	0.099352	-0.000004
C12	C	0.671350	0.098119	-0.000005
C13	C	0.631875	0.097534	0.074943
C14	C	0.552934	0.096364	0.074944
C15	C	0.513469	0.095784	-0.000004
C16	C	0.552950	0.096367	-0.074958
C17	C	0.631890	0.097532	-0.074959
C18	C	0.234593	0.091668	-0.074959
C19	C	0.155647	0.090505	-0.074953
C20	C	0.155636	0.090501	0.074944
C21	C	0.234577	0.091665	0.074943
C22	C	0.274051	0.092244	-0.000010
C23	C	0.359648	0.093512	-0.000011
C24	C	0.427872	0.094522	-0.000005
C25	C	0.899708	-0.033643	0.000018
C26	C	0.898472	-0.111149	0.000025
C27	C	0.966864	-0.155998	0.000030
C28	C	0.965702	-0.228823	0.000017
C29	C	0.896145	-0.256796	0.000015
C30	C	0.827744	-0.211937	0.000005
C31	C	0.828907	-0.139114	0.000010
N32	N	0.842971	-0.364862	0.046805
N33	N	0.841870	-0.434041	0.046802
C34	C	0.892634	-0.476208	-0.000002
N35	N	0.944553	-0.446583	-0.046793
N36	N	0.945656	-0.377397	-0.046786
C37	C	0.894875	-0.335760	0.000009
C38	C	0.959771	-0.600023	-0.000012
C39	C	0.958607	-0.672849	-0.000030
C40	C	0.820646	-0.655962	-0.000035
C41	C	0.821813	-0.583137	-0.000024
C42	C	0.891378	-0.555173	-0.000009
C43	C	1.032154	0.088682	0.000000
C44	C	1.116171	0.089915	-0.000004
C45	C	0.887812	0.221677	-0.000021
C46	C	0.889049	0.299183	-0.000034
N47	N	0.893743	0.094007	0.195665
N48	N	0.893784	0.094022	-0.195667
C49	C	0.945370	0.046472	0.238938
C50	C	0.945374	0.046471	0.325485
C51	C	0.893754	0.094009	0.368758
C52	C	0.842121	0.141546	0.325479
C53	C	0.842115	0.141543	0.238934
C54	C	0.842147	0.141560	0.674507
C55	C	0.842160	0.141560	0.761059
C56	C	0.945407	0.046488	0.761058
C57	C	0.945400	0.046484	0.674513
C58	C	0.893765	0.094019	0.631242
C59	C	0.893761	0.094018	0.537398
C60	C	0.893761	0.094014	0.462600
H61	H	0.123517	0.090032	-0.135989
F62	F	1.000359	-0.004106	0.807117
F63	F	0.673869	0.098156	0.154715
H64	H	0.520798	0.095876	0.135975
H65	H	1.021397	-0.265345	0.000018
F66	F	1.031403	-0.720581	-0.000030
F67	F	1.000320	-0.004121	0.371539
H68	H	0.266705	0.092141	0.135974
H69	H	0.123487	0.090026	0.135975
F70	F	0.787215	0.192159	0.807112
F71	F	0.746617	-0.685728	-0.000041
H72	H	0.266724	0.092137	-0.135991
H73	H	0.771109	-0.234718	0.000001
F74	F	0.510949	0.095728	-0.154724
H75	H	0.773213	-0.102597	0.000005
H76	H	0.766121	-0.546620	-0.000024
F77	F	1.033807	-0.570258	0.000008
F78	F	0.673903	0.098151	-0.154729
H79	H	0.987436	0.007777	0.639283
F80	F	0.787197	0.192150	0.628462
F81	F	0.787179	0.192137	0.371534
F82	F	1.040901	-0.126240	0.000029
H83	H	0.987408	0.007764	0.203710
H84	H	0.800074	0.180250	0.203702
