data_functionalizedCrystal
_audit_creation_method	'MofGen! by Chris Wilmer'
_symmetry_space_group_name_H-M	'P1'
_symmetry_Int_Tables_number	1
_symmetry_cell_setting	triclinic
loop_
_symmetry_equiv_pos_as_xyz
  x,y,z
_cell_length_a	13.339070
_cell_length_b	10.723023
_cell_length_c	9.198806
_cell_angle_alpha	89.996513
_cell_angle_beta	89.999439
_cell_angle_gamma	100.048421
loop_
_atom_site_label
_atom_site_type_symbol
_atom_site_fract_x
_atom_site_fract_y
_atom_site_fract_z
O1	O	0.142221	1.704930	-0.120872
O2	O	0.155836	1.346348	-0.120877
O3	O	0.001480	1.484485	-0.120871
O4	O	0.296578	1.566793	-0.120878
O5	O	0.001479	1.484470	0.120914
O6	O	0.155835	1.346333	0.120908
O7	O	0.142221	1.704915	0.120913
Cu8	Cu	0.149028	1.525622	0.142987
Cu9	Cu	0.149029	1.525641	-0.142952
O10	O	0.296577	1.566777	0.120907
C11	C	0.154845	1.299508	0.000014
C12	C	0.151881	1.159959	0.000012
C13	C	0.150560	1.097735	0.125263
C14	C	0.147496	0.953504	0.125263
C15	C	-0.036306	1.470574	0.000019
C16	C	-0.148896	1.429132	0.000013
C17	C	-0.511453	1.751367	0.000019
C18	C	-0.405670	1.790308	0.000033
C19	C	-0.341471	1.700017	0.000027
C20	C	-0.383066	1.570779	0.000009
C21	C	-0.488859	1.531834	0.000006
C22	C	-0.318877	1.480484	0.000014
C23	C	-0.360472	1.351246	-0.000004
C24	C	-0.466255	1.312307	-0.000008
C25	C	-0.530454	1.402598	-0.000003
C26	C	-0.213084	1.519429	0.000017
C27	C	-0.190490	1.299896	0.000004
C28	C	-0.296273	1.260955	-0.000010
C29	C	0.334363	1.580688	0.000013
C30	C	0.446952	1.622131	0.000010
C31	C	0.143212	1.751755	0.000018
C32	C	0.146175	1.891304	0.000011
N33	N	0.149027	1.525619	0.344101
N34	N	0.149022	1.525651	-0.344066
C35	C	0.083932	1.583523	0.416301
C36	C	0.083928	1.583541	0.583713
H37	H	0.146366	0.899994	0.232495
C38	C	0.151861	1.168964	0.268297
C39	C	0.064083	1.121059	0.347846
C40	C	0.065239	1.186652	0.479610
H41	H	0.210368	1.158501	0.322658
H42	H	0.153662	1.256424	0.249350
H43	H	0.062291	1.033620	0.366797
H44	H	0.005561	1.131523	0.293528
H45	H	0.067040	1.274112	0.460663
H46	H	0.123750	1.176185	0.533959
H47	H	0.005678	1.154166	0.533594
H48	H	0.150742	1.106452	-0.107219
H49	H	0.204759	1.476081	0.593855
H50	H	-0.371812	1.895534	0.000050
H51	H	0.147318	0.944808	-0.107226
H52	H	-0.179229	1.624656	0.000033
H53	H	0.204752	1.476052	0.406227
C54	C	-0.226646	1.742545	-0.000043
C55	C	-0.203960	1.875050	-0.000067
C56	C	-0.098190	1.914277	-0.000160
H57	H	-0.198421	1.710933	0.084242
H58	H	-0.198513	1.710898	-0.084401
H59	H	-0.232081	1.906684	0.084282
H60	H	-0.232159	1.906694	-0.084346
H61	H	-0.070057	1.882630	-0.084517
H62	H	-0.069974	1.882657	0.084127
H63	H	-0.082783	2.004184	-0.000189
H64	H	0.028201	1.633121	0.645802
H65	H	-0.563732	1.824867	0.000035
H66	H	-0.500117	1.207073	-0.000013
C67	C	-0.341635	1.120701	0.000054
C68	C	-0.448018	1.105930	0.000087
C69	C	-0.489840	0.976748	0.000165
H70	H	-0.319768	1.081853	-0.084240
H71	H	-0.319719	1.081940	0.084402
H72	H	-0.469925	1.144674	-0.084253
H73	H	-0.469913	1.144749	0.084375
H74	H	-0.467924	0.937988	0.084514
H75	H	-0.467966	0.937912	-0.084130
H76	H	-0.562024	0.966710	0.000201
H77	H	-0.138219	1.226373	0.000007
C78	C	0.009506	1.649627	0.333740
C79	C	-0.050566	1.703025	0.432793
C80	C	-0.119149	1.763917	0.356795
H81	H	0.046164	1.714461	0.274342
H82	H	-0.032942	1.589863	0.274407
H83	H	-0.008123	1.762784	0.492101
H84	H	-0.087247	1.638218	0.492193
H85	H	-0.161597	1.704153	0.297462
H86	H	-0.082482	1.828745	0.297401
H87	H	-0.159922	1.800145	0.423991
H88	H	-0.616592	1.370898	-0.000020
