data_functionalizedCrystal
_audit_creation_method	'MofGen! by Chris Wilmer'
_symmetry_space_group_name_H-M	'P1'
_symmetry_Int_Tables_number	1
_symmetry_cell_setting	triclinic
loop_
_symmetry_equiv_pos_as_xyz
  x,y,z
_cell_length_a	23.532355
_cell_length_b	18.366186
_cell_length_c	19.288865
_cell_angle_alpha	89.993214
_cell_angle_beta	97.018127
_cell_angle_gamma	90.000539
loop_
_atom_site_label
_atom_site_type_symbol
_atom_site_fract_x
_atom_site_fract_y
_atom_site_fract_z
O1	O	0.755455	0.060459	-0.084143
O2	O	1.088788	0.393792	0.249190
O3	O	1.422122	0.727125	0.582524
O4	O	0.589613	0.060483	-0.096381
O5	O	0.922946	0.393817	0.236953
O6	O	1.256279	0.727150	0.570286
O7	O	0.677326	0.060456	0.010884
O8	O	1.010659	0.393789	0.344218
O9	O	1.343993	0.727123	0.677551
O10	O	0.667742	0.060486	-0.191408
O11	O	1.001075	0.393819	0.141925
O12	O	1.334409	0.727153	0.475259
O13	O	0.677315	-0.060644	0.010881
O14	O	1.010648	0.272690	0.344214
O15	O	1.343981	0.606023	0.677547
O16	O	0.589601	-0.060616	-0.096385
O17	O	0.922935	0.272717	0.236949
O18	O	1.256268	0.606050	0.570282
O19	O	0.755444	-0.060641	-0.084147
O20	O	1.088777	0.272693	0.249187
O21	O	1.422110	0.606026	0.582520
Zn22	Zn	0.672521	-0.079856	-0.090266
Zn23	Zn	1.005854	0.253478	0.243067
Zn24	Zn	1.339187	0.586811	0.576400
Zn25	Zn	0.672536	0.079698	-0.090261
Zn26	Zn	1.005869	0.413031	0.243072
Zn27	Zn	1.339202	0.746365	0.576405
O28	O	0.667731	-0.060613	-0.191412
O29	O	1.001064	0.272720	0.141921
O30	O	1.334397	0.606053	0.475255
C31	C	0.568390	-0.000064	-0.096077
C32	C	0.901723	0.333270	0.237256
C33	C	1.235057	0.666603	0.570590
C34	C	0.505169	-0.000055	-0.095157
C35	C	0.838503	0.333278	0.238176
C36	C	1.171836	0.666612	0.571510
N37	N	0.672515	-0.188747	-0.090269
N38	N	1.005848	0.144587	0.243064
N39	N	1.339181	0.477920	0.576398
C40	C	0.706978	-0.773295	-0.132153
C41	C	1.040311	-0.439962	0.201180
C42	C	1.373644	-0.106628	0.534514
C43	C	0.706972	-0.697067	-0.132160
C44	C	1.040305	-0.363734	0.201174
C45	C	1.373639	-0.030400	0.534507
C46	C	0.672541	-0.658958	-0.090254
C47	C	1.005874	-0.325625	0.243080
C48	C	1.339208	0.007709	0.576413
C49	C	0.638103	-0.697083	-0.048351
C50	C	0.971436	-0.363750	0.284982
C51	C	1.304769	-0.030416	0.618316
C52	C	0.638105	-0.773309	-0.048351
C53	C	0.971438	-0.439976	0.284983
C54	C	1.304772	-0.106643	0.618316
C55	C	0.671125	-0.538201	-0.027634
C56	C	1.004458	-0.204867	0.305699
C57	C	1.337792	0.128466	0.639033
C58	C	0.671127	-0.461976	-0.027633
C59	C	1.004460	-0.128642	0.305701
C60	C	1.337793	0.204691	0.639034
C61	C	0.672530	-0.423850	-0.090255
C62	C	1.005863	-0.090517	0.243078
C63	C	1.339196	0.242816	0.576411
C64	C	0.673943	-0.461960	-0.152880
C65	C	1.007277	-0.128626	0.180453
C66	C	1.340610	0.204707	0.513786
C67	C	0.673946	-0.538186	-0.152880
C68	C	1.007279	-0.204853	0.180453
C69	C	1.340613	0.128481	0.513787
C70	C	0.672534	-0.576303	-0.090250
C71	C	1.005867	-0.242970	0.243084
C72	C	1.339201	0.090363	0.576417
C73	C	0.706957	-0.303080	-0.132166
C74	C	1.040290	0.030254	0.201167
C75	C	1.373623	0.363587	0.534500
C76	C	0.706947	-0.226851	-0.132175
C77	C	1.040280	0.106483	0.201159
C78	C	1.373613	0.439816	0.534492
C79	C	0.638081	-0.226868	-0.048360
C80	C	0.971414	0.106466	0.284974
C81	C	1.304747	0.439799	0.618307
C82	C	0.638087	-0.303096	-0.048358
C83	C	0.971421	0.030238	0.284976
C84	C	1.304754	0.363571	0.618309
C85	C	0.672528	-0.341197	-0.090260
C86	C	1.005862	-0.007864	0.243073
C87	C	1.339195	0.325470	0.576407
C88	C	0.113137	-0.066098	-0.089380
C89	C	0.446471	0.267236	0.243953
C90	C	0.779804	0.600569	0.577286
C91	C	0.053736	-0.066101	-0.088505
C92	C	0.387070	0.267233	0.244828
C93	C	0.720403	0.600566	0.578161
O94	O	0.023011	-0.122240	-0.088031
O95	O	0.356345	0.211093	0.245302
O96	O	0.689678	0.544427	0.578636
N97	N	0.024033	-0.000090	-0.088070
N98	N	0.357366	0.333244	0.245264
N99	N	0.690700	0.666577	0.578597
C100	C	0.053735	0.065929	-0.088502
C101	C	0.387068	0.399262	0.244832
C102	C	0.720402	0.732595	0.578165
O103	O	0.023016	0.122076	-0.088050
O104	O	0.356349	0.455409	0.245284
O105	O	0.689682	0.788743	0.578617
C106	C	0.113136	0.065931	-0.089372
C107	C	0.446469	0.399264	0.243962
C108	C	0.779802	0.732597	0.577295
C109	C	0.142835	-0.000084	-0.089815
C110	C	0.476168	0.333249	0.243519
C111	C	0.809502	0.666582	0.576852
C112	C	0.142837	-0.132108	-0.089823
C113	C	0.476170	0.201226	0.243511
C114	C	0.809504	0.534559	0.576844
C115	C	0.202234	-0.132104	-0.090699
C116	C	0.535567	0.201229	0.242634
C117	C	0.868901	0.534562	0.575968
C118	C	0.231931	-0.066091	-0.091133
C119	C	0.565265	0.267242	0.242200
C120	C	0.898598	0.600576	0.575534
C121	C	0.202232	-0.000081	-0.090691
C122	C	0.535565	0.333252	0.242643
C123	C	0.868899	0.666585	0.575976
C124	C	0.142837	0.131948	-0.089799
C125	C	0.476170	0.465282	0.243535
C126	C	0.809504	0.798615	0.576868
C127	C	0.202242	0.131945	-0.090668
C128	C	0.535575	0.465278	0.242665
C129	C	0.868908	0.798611	0.575998
C130	C	0.231941	0.065930	-0.091111
C131	C	0.565274	0.399263	0.242222
C132	C	0.898608	0.732596	0.575556
C133	C	0.291326	0.065935	-0.092001
C134	C	0.624660	0.399268	0.241332
C135	C	0.957993	0.732602	0.574665
N136	N	0.321030	-0.000076	-0.092437
N137	N	0.654363	0.333257	0.240896
N138	N	0.987696	0.666591	0.574230
C139	C	0.291332	-0.066089	-0.092003
C140	C	0.624665	0.267244	0.241330
C141	C	0.957999	0.600578	0.574664
C142	C	-0.071010	0.065919	-0.086673
C143	C	0.262323	0.399252	0.246660
C144	C	0.595656	0.732586	0.579993
C145	C	-0.130411	0.065918	-0.085808
C146	C	0.202923	0.399251	0.247525
C147	C	0.536256	0.732584	0.580858
C148	C	-0.130405	-0.066112	-0.085811
C149	C	0.202928	0.267221	0.247522
C150	C	0.536262	0.600555	0.580856
C151	C	-0.071004	-0.066110	-0.086681
C152	C	0.262329	0.267224	0.246652
C153	C	0.595662	0.600557	0.579986
C154	C	-0.041307	-0.000092	-0.087109
C155	C	0.292026	0.333241	0.246224
C156	C	0.625359	0.666575	0.579557
C157	C	0.416070	-0.066077	-0.093844
C158	C	0.749403	0.267256	0.239490
C159	C	1.082737	0.600589	0.572823
C160	C	0.475472	-0.066068	-0.094723
C161	C	0.808805	0.267265	0.238610
C162	C	1.142139	0.600599	0.571944
C163	C	0.475462	0.065961	-0.094717
C164	C	0.808795	0.399294	0.238617
C165	C	1.142128	0.732628	0.571950
C166	C	0.416064	0.065952	-0.093841
C167	C	0.749398	0.399286	0.239492
C168	C	1.082731	0.732619	0.572825
C169	C	0.386370	-0.000073	-0.093402
C170	C	0.719704	0.333261	0.239931
C171	C	1.053037	0.666594	0.573264
O172	O	0.322089	0.122046	-0.092473
O173	O	0.655423	0.455379	0.240860
O174	O	0.988756	0.788713	0.574193
O175	O	0.322060	-0.122227	-0.092446
O176	O	0.655393	0.211107	0.240888
O177	O	0.988726	0.544440	0.574221
C178	C	0.776667	-0.000092	-0.084451
C179	C	1.110000	0.333241	0.248883
C180	C	1.443333	0.666575	0.582216
C181	C	0.839887	-0.000096	-0.085370
C182	C	1.173220	0.333237	0.247963
C183	C	1.506554	0.666571	0.581296
C184	C	0.677012	-0.000096	0.036758
C185	C	1.010345	0.333237	0.370091
C186	C	1.343679	0.666571	0.703424
C187	C	0.676086	-0.000102	0.113858
C188	C	1.009420	0.333231	0.447192
C189	C	1.342753	0.666564	0.780525
N190	N	0.672546	0.188589	-0.090253
N191	N	1.005880	0.521923	0.243080
N192	N	1.339213	0.855256	0.576414
C193	C	0.668045	-0.000060	-0.217285
C194	C	1.001378	0.333273	0.116048
C195	C	1.334711	0.666607	0.449381
C196	C	0.668970	-0.000049	-0.294386
C197	C	1.002304	0.333285	0.038947
C198	C	1.335637	0.666618	0.372281
C199	C	0.727552	-0.000113	0.158725
C200	C	1.060886	0.333220	0.492058
C201	C	1.394219	0.666553	0.825392
C202	C	0.726683	-0.000102	0.231169
C203	C	1.060016	0.333232	0.564503
C204	C	1.393349	0.666565	0.897836
C205	C	0.674344	-0.000094	0.258743
C206	C	1.007677	0.333240	0.592077
C207	C	1.341011	0.666573	0.925410
C208	C	0.622871	-0.000078	0.213867
C209	C	0.956204	0.333255	0.547200
C210	C	1.289538	0.666588	0.880534
C211	C	0.623742	-0.000083	0.141424
C212	C	0.957076	0.333251	0.474758
C213	C	1.290409	0.666584	0.808091
C214	C	0.633196	-0.042506	0.366893
C215	C	0.966529	0.290827	0.700227
C216	C	1.299862	0.624161	1.033560
C217	C	0.632327	-0.042506	0.439335
C218	C	0.965660	0.290827	0.772668
C219	C	1.298993	0.624161	1.106002
C220	C	0.671655	-0.000077	0.482180
C221	C	1.004988	0.333256	0.815514
C222	C	1.338321	0.666590	1.148847
C223	C	0.711862	0.042343	0.452576
C224	C	1.045195	0.375677	0.785910
C225	C	1.378528	0.709010	1.119243
C226	C	0.712733	0.042339	0.380134
C227	C	1.046066	0.375672	0.713467
C228	C	1.379400	0.709006	1.046801
C229	C	0.673393	-0.000088	0.337294
C230	C	1.006727	0.333245	0.670628
C231	C	1.340060	0.666578	1.003961
C232	C	0.722181	-0.000074	0.605600
C233	C	1.055515	0.333259	0.938933
C234	C	1.388848	0.666592	1.272266
C235	C	0.721310	-0.000058	0.678045
C236	C	1.054643	0.333275	1.011378
C237	C	1.387976	0.666609	1.344712
C238	C	0.617496	-0.000042	0.660741
C239	C	0.950830	0.333291	0.994074
C240	C	1.284163	0.666625	1.327408
C241	C	0.618370	-0.000051	0.588297
C242	C	0.951703	0.333282	0.921631
C243	C	1.285036	0.666616	1.254964
C244	C	0.670714	-0.000070	0.560731
C245	C	1.004047	0.333263	0.894065
C246	C	1.337380	0.666596	1.227398
H247	H	0.735021	-0.804312	-0.166274
H248	H	1.068355	-0.470979	0.167059
H249	H	1.401688	-0.137646	0.500392
H250	H	0.734998	-0.334104	-0.166289
H251	H	1.068331	-0.000770	0.167044
H252	H	1.401665	0.332563	0.500378
F253	F	0.743627	-0.656493	-0.176749
F254	F	1.076960	-0.323160	0.156585
F255	F	1.410294	0.010173	0.489918
F256	F	0.233844	0.202212	-0.091122
F257	F	0.567178	0.535545	0.242211
F258	F	0.900511	0.868879	0.575545
F259	F	0.589537	-0.087656	0.470835
F260	F	0.922871	0.245678	0.804168
F261	F	1.256204	0.579011	1.137502
H262	H	0.601168	-0.077061	0.332014
H263	H	0.934502	0.256272	0.665347
H264	H	1.267835	0.589606	0.998680
H265	H	0.610066	-0.804343	-0.014230
H266	H	0.943399	-0.471009	0.319103
H267	H	1.276732	-0.137676	0.652437
F268	F	0.669632	-0.578769	0.039022
F269	F	1.002966	-0.245435	0.372356
F270	F	1.336299	0.087898	0.705689
H271	H	0.743886	0.076894	0.487460
H272	H	1.077220	0.410227	0.820793
H273	H	1.410553	0.743560	1.154127
F274	F	-0.039410	0.136189	-0.087136
F275	F	0.293923	0.469522	0.246198
F276	F	0.627256	0.802856	0.579531
H277	H	0.675095	-0.569211	-0.203871
H278	H	1.008429	-0.235878	0.129462
H279	H	1.341762	0.097455	0.462795
F280	F	0.601433	-0.186314	-0.003764
F281	F	0.934766	0.147019	0.329569
F282	F	1.268099	0.480352	0.662902
F283	F	0.675439	-0.421391	-0.219533
F284	F	1.008772	-0.088057	0.113800
F285	F	1.342106	0.245276	0.447134
F286	F	0.601457	-0.656524	-0.003754
F287	F	0.934790	-0.323190	0.329579
F288	F	1.268123	0.010143	0.662912
F289	F	0.384476	-0.136348	-0.093376
F290	F	0.717809	0.196985	0.239958
F291	F	1.051142	0.530318	0.573291
H292	H	0.768594	-0.000108	0.267707
H293	H	1.101927	0.333226	0.601040
H294	H	1.435260	0.666559	0.934373
F295	F	0.755520	0.087487	0.348629
F296	F	1.088854	0.420821	0.681963
F297	F	1.422187	0.754154	1.015296
F298	F	0.601442	-0.343663	-0.003759
F299	F	0.934776	-0.010329	0.329575
F300	F	1.268109	0.323004	0.662908
H301	H	0.763221	-0.000063	0.714575
H302	H	1.096555	0.333270	1.047909
H303	H	1.429888	0.666603	1.381242
H304	H	0.764803	-0.000087	0.583154
H305	H	1.098136	0.333246	0.916488
H306	H	1.431470	0.666580	1.249821
F307	F	-0.162021	-0.136370	-0.085347
F308	F	0.171312	0.196964	0.247987
F309	F	0.504645	0.530297	0.581320
F310	F	0.233835	-0.202367	-0.091167
F311	F	0.567169	0.130966	0.242166
F312	F	0.900502	0.464299	0.575500
H313	H	0.734984	-0.195818	-0.166299
H314	H	1.068317	0.137515	0.167034
H315	H	1.401650	0.470849	0.500368
H316	H	0.574881	-0.000032	0.683191
H317	H	0.908215	0.333301	1.016524
H318	H	1.241548	0.666635	1.349858
H319	H	0.669980	-0.430953	0.023361
H320	H	1.003313	-0.097620	0.356694
H321	H	1.336646	0.235714	0.690027
F322	F	0.783262	-0.000118	0.129392
F323	F	1.116595	0.333215	0.462725
F324	F	1.449928	0.666548	0.796058
F325	F	0.507077	-0.136334	-0.095197
F326	F	0.840410	0.197000	0.238137
F327	F	1.173743	0.530333	0.571470
F328	F	-0.162014	0.136180	-0.085350
F329	F	0.171319	0.469513	0.247984
F330	F	0.504653	0.802847	0.581317
H331	H	0.118664	-0.185866	-0.089468
H332	H	0.451997	0.147467	0.243866
H333	H	0.785330	0.480800	0.577199
F334	F	-0.039401	-0.136371	-0.087151
F335	F	0.293932	0.196962	0.246182
F336	F	0.627265	0.530295	0.579516
F337	F	0.111242	0.202212	-0.089326
F338	F	0.444575	0.535545	0.244008
F339	F	0.777908	0.868879	0.577341
H340	H	0.580256	-0.000070	0.236322
H341	H	0.913590	0.333263	0.569656
H342	H	1.246923	0.666597	0.902989
H343	H	0.391881	0.119707	-0.093492
H344	H	0.725214	0.453041	0.239842
H345	H	1.058547	0.786374	0.573175
F346	F	0.507078	0.136213	-0.095177
F347	F	0.840412	0.469547	0.238157
F348	F	1.173745	0.802880	0.571490
F349	F	0.568962	-0.000070	0.093672
F350	F	0.902296	0.333263	0.427005
F351	F	1.235629	0.666596	0.760338
F352	F	0.563592	-0.000042	0.540545
F353	F	0.896925	0.333291	0.873878
F354	F	1.230258	0.666625	1.207211
