data_functionalizedCrystal
_audit_creation_method	'MofGen! by Chris Wilmer'
_symmetry_space_group_name_H-M	'P1'
_symmetry_Int_Tables_number	1
_symmetry_cell_setting	triclinic
loop_
_symmetry_equiv_pos_as_xyz
  x,y,z
_cell_length_a	18.215407
_cell_length_b	12.759399
_cell_length_c	12.759393
_cell_angle_alpha	90.027929
_cell_angle_beta	89.978212
_cell_angle_gamma	89.985302
loop_
_atom_site_label
_atom_site_type_symbol
_atom_site_fract_x
_atom_site_fract_y
_atom_site_fract_z
Zn1	Zn	1.125141	0.418191	-0.594102
Zn2	Zn	1.125068	0.593910	-0.418433
Zn3	Zn	1.002069	0.418247	-0.418431
Zn4	Zn	1.002062	0.593830	-0.594064
O5	O	1.063585	0.506045	-0.506258
O6	O	1.228115	0.441511	-0.570815
O7	O	1.108724	0.570665	-0.271412
O8	O	1.018428	0.271219	-0.441749
O9	O	1.228062	0.570611	-0.441753
O10	O	1.108848	0.271178	-0.570813
O11	O	1.018357	0.441606	-0.271410
O12	O	0.899084	0.441529	-0.441713
O13	O	1.018416	0.570474	-0.741090
O14	O	0.899079	0.570529	-0.570750
O15	O	1.108841	0.441433	-0.741118
O16	O	1.108717	0.740921	-0.441716
O17	O	1.018345	0.740862	-0.570752
C18	C	0.872378	0.506027	-0.506227
C19	C	0.790580	0.506044	-0.506239
C20	C	0.602402	0.573320	-0.573345
C21	C	0.525543	0.573324	-0.573358
C22	C	0.525519	0.438788	-0.439193
C23	C	0.602377	0.438780	-0.439186
C24	C	0.640816	0.506052	-0.506260
C25	C	0.487100	0.506063	-0.506281
C26	C	0.403766	0.506067	-0.506294
C27	C	0.724155	0.506048	-0.506248
C28	C	1.063543	0.779012	-0.506253
C29	C	1.063592	0.895789	-0.506286
C30	C	1.110703	0.950646	-0.439178
C31	C	1.110751	1.060370	-0.439221
C32	C	1.016571	1.060369	-0.573484
C33	C	1.016527	0.950647	-0.573445
C34	C	1.197618	1.210249	-0.401849
C35	C	1.244722	1.265110	-0.334724
C36	C	1.256045	1.229572	-0.232211
C37	C	1.220252	1.139174	-0.196803
C38	C	1.173142	1.084318	-0.263923
C39	C	1.161834	1.119855	-0.366449
C40	C	0.929660	0.800767	-0.610807
C41	C	0.882545	0.745909	-0.677922
C42	C	0.871215	0.781445	-0.780436
C43	C	0.906995	0.871847	-0.815840
C44	C	0.954109	0.926704	-0.748726
C45	C	0.965440	0.891161	-0.646213
C46	C	1.255538	0.506063	-0.506288
C47	C	1.337337	0.506072	-0.506302
C48	C	1.063636	0.505938	-0.780291
C49	C	1.063658	0.505893	-0.897068
C50	C	1.063650	1.232011	-0.506303
C51	C	1.063684	1.115235	-0.506368
C52	C	1.016621	0.438680	-0.951928
C53	C	1.016638	0.438648	-1.061653
C54	C	1.110736	0.573045	-1.061646
C55	C	1.110714	0.573081	-0.951924
C56	C	0.929884	0.401048	-1.211596
C57	C	0.882854	0.333819	-1.266460
C58	C	0.871572	0.231315	-1.230863
C59	C	0.907333	0.196020	-1.140404
C60	C	0.954369	0.263244	-1.085545
C61	C	0.965636	0.365762	-1.121140
C62	C	1.197469	0.610670	-0.801978
C63	C	1.244510	0.677889	-0.747118
C64	C	1.255798	0.780395	-0.782712
C65	C	1.220051	0.815686	-0.873175
C66	C	1.173011	0.748467	-0.928036
C67	C	1.161721	0.645962	-0.892434
C68	C	1.063576	0.506075	-0.233290
C69	C	1.063697	0.505824	-0.116514
H70	H	0.633654	0.383996	-0.384558
H71	H	0.494270	0.628098	-0.627986
C72	C	1.162478	0.890305	-0.365317
H73	H	1.190547	0.938695	-0.325363
H74	H	1.134330	0.847572	-0.319486
H75	H	1.194513	0.847434	-0.405542
H76	H	1.294399	1.274248	-0.177558
H77	H	0.633697	0.628095	-0.627964
H78	H	0.939056	0.484519	-1.240580
H79	H	1.273625	0.649142	-0.673466
C80	C	0.993702	0.224438	-0.986047
H81	H	1.023330	0.279156	-0.958475
H82	H	0.958270	0.204221	-0.935295
H83	H	1.023783	0.166000	-1.002992
C84	C	0.483234	0.364807	-0.365406
H85	H	0.431958	0.374453	-0.375009
H86	H	0.495841	0.294231	-0.380888
H87	H	0.495808	0.380114	-0.294788
C88	C	1.284099	1.364536	-0.373669
H89	H	1.313769	1.392122	-0.319007
H90	H	1.314131	1.347517	-0.432135
H91	H	1.248685	1.415318	-0.393870
C92	C	1.133777	0.984886	-0.224988
H93	H	1.147268	0.971573	-0.154320
H94	H	1.082170	0.994755	-0.229173
H95	H	1.147625	0.926974	-0.267445
H96	H	1.229469	1.110252	-0.113323
C97	C	1.185171	1.249332	-0.514618
H98	H	1.151997	1.203709	-0.549529
H99	H	1.165196	1.318089	-0.512820
H100	H	1.230645	1.250295	-0.551086
C101	C	0.993471	1.026143	-0.787665
H102	H	1.023148	1.053727	-0.733009
H103	H	1.023494	1.009137	-0.846144
H104	H	0.958049	1.076923	-0.807848
C105	C	0.819840	0.157362	-1.291208
H106	H	0.818248	0.091253	-1.257058
H107	H	0.771927	0.186713	-1.293051
H108	H	0.837440	0.148485	-1.360745
H109	H	0.898150	0.112546	-1.111435
C110	C	0.964797	1.120717	-0.647342
H111	H	0.971564	1.193921	-0.637747
H112	H	0.975531	1.102667	-0.717942
H113	H	0.915348	1.102803	-0.631885
C114	C	0.964858	0.364786	-0.891585
H115	H	0.971585	0.374425	-0.818381
H116	H	0.915412	0.380149	-0.909558
H117	H	0.975654	0.294187	-0.909581
C118	C	0.894537	0.910939	-0.928606
H119	H	0.861360	0.865315	-0.963510
H120	H	0.874561	0.979695	-0.926801
H121	H	0.940006	0.911904	-0.965086
H122	H	0.832849	0.736771	-0.835079
C123	C	0.843187	0.646469	-0.638978
H124	H	0.856689	0.633150	-0.568316
H125	H	0.791580	0.656341	-0.643145
H126	H	0.857026	0.588560	-0.681444
C127	C	0.942110	0.761686	-0.498033
H128	H	0.914040	0.700004	-0.486553
H129	H	0.992697	0.746570	-0.488108
H130	H	0.927251	0.814379	-0.449857
C131	C	0.843514	0.372644	-1.365953
H132	H	0.856957	0.443330	-1.379288
H133	H	0.857410	0.330176	-1.423827
H134	H	0.791902	0.368391	-1.356115
H135	H	1.149048	0.627746	-1.106323
H136	H	1.188261	0.527212	-0.772967
C137	C	1.133690	0.787285	-1.027545
H138	H	1.147146	0.857963	-1.040889
H139	H	1.147585	0.744802	-1.085409
H140	H	1.082075	0.783052	-1.017719
H141	H	1.294110	0.835120	-0.738040
C142	C	1.232466	0.928441	-0.912335
H143	H	1.265596	0.963423	-0.866702
H144	H	1.252485	0.926613	-0.981069
H145	H	1.186976	0.964858	-0.913375
