data_functionalizedCrystal
_audit_creation_method	'MofGen! by Chris Wilmer'
_symmetry_space_group_name_H-M	'P1'
_symmetry_Int_Tables_number	1
_symmetry_cell_setting	triclinic
loop_
_symmetry_equiv_pos_as_xyz
  x,y,z
_cell_length_a	23.532407
_cell_length_b	23.532407
_cell_length_c	9.482900
_cell_angle_alpha	80.729167
_cell_angle_beta	99.224935
_cell_angle_gamma	82.848678
loop_
_atom_site_label
_atom_site_type_symbol
_atom_site_fract_x
_atom_site_fract_y
_atom_site_fract_z
O1	O	0.764174	0.060180	0.120724
O2	O	0.598314	0.070180	0.120769
O3	O	0.686243	-0.017750	0.120719
O4	O	0.676244	0.148110	0.120775
O5	O	0.668382	0.000182	-0.121064
O6	O	0.580453	0.088112	-0.121013
O7	O	0.746313	0.078112	-0.121058
Cu8	Cu	0.661752	0.084749	-0.143112
Cu9	Cu	0.682875	0.063543	0.142823
O10	O	0.658383	0.166041	-0.121008
C11	C	0.568168	0.078891	-0.000117
C12	C	0.504952	0.078124	-0.000101
C13	C	0.105845	0.125361	-0.000151
C14	C	0.046444	0.124650	-0.000160
O15	O	0.009697	0.168439	-0.000198
N16	N	0.023817	0.072375	-0.000175
C17	C	0.060593	0.020808	-0.000196
O18	O	0.035892	-0.023721	-0.000211
C19	C	0.119992	0.021520	-0.000197
C20	C	0.142617	0.073798	-0.000167
C21	C	0.128470	0.177634	-0.000122
C22	C	0.187867	0.178344	-0.000111
C23	C	0.224639	0.126781	-0.000127
C24	C	0.202014	0.074508	-0.000155
C25	C	0.156766	-0.030045	-0.000229
C26	C	0.216168	-0.029328	-0.000231
C27	C	0.238793	0.022949	-0.000201
C28	C	0.298183	0.023655	-0.000160
N29	N	0.320810	0.075931	-0.000145
C30	C	0.284038	0.127494	-0.000128
C31	C	-0.064150	0.019317	-0.000196
C32	C	-0.123547	0.018603	-0.000184
C33	C	-0.137692	0.122445	-0.000151
C34	C	-0.078293	0.123158	-0.000152
C35	C	-0.041522	0.071592	-0.000181
C36	C	0.408777	0.128981	-0.000102
C37	C	0.468180	0.129687	-0.000084
C38	C	0.482319	0.025845	-0.000125
C39	C	0.422922	0.025139	-0.000136
C40	C	0.386151	0.076712	-0.000129
O41	O	0.334964	-0.020110	-0.000128
O42	O	0.308746	0.172017	-0.000132
C43	C	0.677058	-0.030000	-0.000176
C44	C	0.676291	-0.093216	-0.000187
C45	C	0.723530	-0.492324	-0.000120
C46	C	0.722819	-0.551725	-0.000109
O47	O	0.766608	-0.588473	-0.000067
N48	N	0.670544	-0.574352	-0.000096
C49	C	0.618977	-0.537576	-0.000079
O50	O	0.574447	-0.562276	-0.000066
C51	C	0.619689	-0.478177	-0.000080
C52	C	0.671966	-0.455552	-0.000108
C53	C	0.775803	-0.469699	-0.000146
C54	C	0.776513	-0.410301	-0.000160
C55	C	0.724950	-0.373529	-0.000148
C56	C	0.672676	-0.396155	-0.000122
C57	C	0.568123	-0.441402	-0.000053
C58	C	0.568840	-0.382000	-0.000053
C59	C	0.621117	-0.359375	-0.000081
C60	C	0.621823	-0.299985	-0.000124
N61	N	0.674099	-0.277358	-0.000137
C62	C	0.725662	-0.314130	-0.000149
C63	C	0.617486	-0.662319	-0.000075
C64	C	0.616772	-0.721716	-0.000085
C65	C	0.720615	-0.735861	-0.000112
C66	C	0.721327	-0.676462	-0.000112
C67	C	0.669761	-0.639691	-0.000088
C68	C	0.727149	-0.189391	-0.000179
C69	C	0.727855	-0.129988	-0.000199
C70	C	0.624013	-0.115848	-0.000165
C71	C	0.623307	-0.175246	-0.000152
C72	C	0.674880	-0.212017	-0.000155
O73	O	0.578058	-0.263204	-0.000159
O74	O	0.770186	-0.289423	-0.000143
C75	C	0.776459	0.069401	-0.000169
C76	C	0.839676	0.070167	-0.000175
C77	C	0.667569	0.178291	-0.000110
C78	C	0.668336	0.241506	-0.000089
N79	N	0.646900	0.099664	-0.344224
C80	C	0.678490	0.067939	-0.416441
C81	C	0.666137	0.080353	-0.583852
N82	N	0.697732	0.048623	0.343935
H83	H	-0.059877	0.165727	-0.000136
H84	H	0.817795	-0.499634	-0.000151
H85	H	0.819084	-0.391887	-0.000177
O86	O	0.622922	0.123657	-0.658091
C87	C	0.581393	0.099937	-0.746122
H88	H	0.602548	0.056878	-0.768780
H89	H	0.564450	0.131670	-0.853211
H90	H	0.543601	0.092081	-0.687563
O91	O	0.721741	0.024608	-0.342549
C92	C	0.775377	0.036179	-0.379632
H93	H	0.767109	0.066290	-0.490163
H94	H	0.803189	-0.006456	-0.384734
H95	H	0.799204	0.058059	-0.293988
O96	O	0.572480	-0.197137	-0.000066
C97	C	0.527119	-0.151937	-0.000101
H98	H	0.546229	-0.115056	0.045642
H99	H	0.495789	-0.169348	0.070123
H100	H	0.502657	-0.134856	-0.116091
H101	H	0.526847	-0.352063	-0.000031
O102	O	0.490057	0.180527	-0.000124
C103	C	0.444861	0.225881	-0.000080
H104	H	0.401216	0.213545	-0.045868
H105	H	0.451893	0.267606	-0.070261
H106	H	0.444929	0.233167	0.115919
O107	O	0.373021	0.179026	0.000108
C108	C	0.347494	0.172441	0.125347
H109	H	0.347811	0.124160	0.167067
H110	H	0.300654	0.196012	0.097194
H111	H	0.373375	0.191826	0.213048
O112	O	0.573984	-0.080046	-0.000086
C113	C	0.585825	-0.022767	-0.000133
H114	H	0.633927	-0.024131	0.045616
H115	H	0.558129	-0.000873	0.070079
H116	H	0.574995	0.003021	-0.116128
H117	H	0.610707	0.136014	-0.406333
O118	O	-0.173504	0.172489	-0.000206
C119	C	-0.230778	0.160642	-0.000178
H120	H	-0.236184	0.119317	-0.045967
H121	H	-0.263057	0.198732	-0.070365
H122	H	-0.239407	0.154296	0.115817
O123	O	0.770759	-0.771545	0.000084
C124	C	0.811762	-0.770625	0.125317
H125	H	0.800602	-0.728577	0.167058
H126	H	0.857205	-0.772984	0.097150
H127	H	0.810635	-0.809570	0.213010
O128	O	0.092713	0.227730	-0.000354
C129	C	0.048672	0.239718	-0.125547
H130	H	0.064114	0.216963	-0.213095
H131	H	0.038647	0.288749	-0.167545
H132	H	0.007643	0.223137	-0.097236
O133	O	-0.145429	-0.032226	-0.000260
C134	C	-0.100226	-0.077583	-0.000232
H135	H	-0.063339	-0.058455	-0.045994
H136	H	-0.117618	-0.108897	-0.070442
H137	H	-0.083171	-0.102073	0.115759
H138	H	-0.034213	-0.022678	-0.000206
O139	O	0.740781	0.005126	-0.581979
C140	C	0.716723	-0.036233	-0.494199
H141	H	0.673805	-0.014795	-0.471404
H142	H	0.748382	-0.053490	-0.387162
H143	H	0.708530	-0.073857	-0.553046
O144	O	0.565943	-0.743599	-0.000009
C145	C	0.520586	-0.698395	-0.000041
H146	H	0.539700	-0.661520	0.045719
H147	H	0.489251	-0.715806	0.070169
H148	H	0.496129	-0.681308	-0.116033
O149	O	0.134887	-0.080873	-0.000336
C150	C	0.180092	-0.126224	-0.000327
H151	H	0.216979	-0.107090	-0.046078
H152	H	0.162703	-0.157534	-0.070557
H153	H	0.197148	-0.150722	0.115657
O154	O	0.772088	-0.654434	0.000067
C155	C	0.784868	-0.629796	0.125310
H156	H	0.742981	-0.617845	0.167071
H157	H	0.805268	-0.588936	0.097146
H158	H	0.816690	-0.662681	0.212985
H159	H	0.525554	-0.459813	-0.000022
O160	O	0.209781	0.229152	0.000103
C161	C	0.200210	0.251266	0.125350
H162	H	0.162183	0.232875	0.167092
H163	H	0.189611	0.300827	0.097201
H164	H	0.241096	0.237978	0.213034
O165	O	0.251959	-0.079398	-0.000059
C166	C	0.295976	-0.091393	0.125186
H167	H	0.301817	-0.049306	0.166955
H168	H	0.338660	-0.110781	0.097021
H169	H	0.283044	-0.123792	0.212855
H170	H	0.404501	-0.017431	-0.000139
O171	O	0.518042	-0.024274	0.000116
C172	C	0.517069	-0.065332	0.125300
H173	H	0.503059	-0.041646	0.212839
H174	H	0.562448	-0.091527	0.167321
H175	H	0.484917	-0.096024	0.096968
H176	H	0.770427	-0.111570	-0.000226
O177	O	0.777294	-0.225019	-0.000252
C178	C	0.823581	-0.192304	-0.000242
H179	H	0.805477	-0.144498	-0.046016
H180	H	0.854504	-0.209206	-0.070452
H181	H	0.848191	-0.196753	0.115745
H182	H	0.575491	-0.632381	-0.000068
