data_functionalizedCrystal
_audit_creation_method	'MofGen! by Chris Wilmer'
_symmetry_space_group_name_H-M	'P1'
_symmetry_Int_Tables_number	1
_symmetry_cell_setting	triclinic
loop_
_symmetry_equiv_pos_as_xyz
  x,y,z
_cell_length_a	23.532407
_cell_length_b	15.538191
_cell_length_c	14.750779
_cell_angle_alpha	97.569385
_cell_angle_beta	102.558644
_cell_angle_gamma	114.939614
loop_
_atom_site_label
_atom_site_type_symbol
_atom_site_fract_x
_atom_site_fract_y
_atom_site_fract_z
O1	O	0.715339	-0.135177	-0.079867
O2	O	0.546108	-0.151752	-0.079855
O3	O	0.663665	-0.006028	-0.079868
O4	O	0.597782	-0.280900	-0.079854
O5	O	0.696896	0.035162	0.079779
O6	O	0.579339	-0.110562	0.079792
O7	O	0.748570	-0.093987	0.079780
Zn8	Zn	0.669230	-0.095735	0.105133
Zn9	Zn	0.625447	-0.150004	-0.105208
O10	O	0.631013	-0.239710	0.079793
C11	C	0.541593	-0.130734	-0.000031
C12	C	0.478635	-0.129464	-0.000027
C13	C	0.687173	0.049726	-0.000048
C14	C	0.707704	0.154489	-0.000059
C15	C	0.753084	-0.115005	-0.000047
C16	C	0.816041	-0.116277	-0.000057
C17	C	1.231064	-0.037992	-0.000027
C18	C	1.290225	-0.039170	-0.000023
O19	O	1.341728	0.033402	0.000008
N20	N	1.295239	-0.125804	-0.000022
C21	C	1.241089	-0.211263	-0.000015
O22	O	1.250786	-0.285060	-0.000012
C23	C	1.181930	-0.210082	-0.000012
C24	C	1.176919	-0.123445	-0.000023
C25	C	1.226051	0.048638	-0.000038
C26	C	1.166893	0.049815	-0.000044
C27	C	1.112748	-0.035638	-0.000040
C28	C	1.117761	-0.122268	-0.000030
C29	C	1.127782	-0.295539	0.000002
C30	C	1.068622	-0.294350	0.000005
C31	C	1.063611	-0.207713	-0.000006
C32	C	1.004458	-0.206544	-0.000032
N33	N	0.999445	-0.119910	-0.000033
C34	C	1.053590	-0.034457	-0.000037
C35	C	1.365328	-0.213736	-0.000018
C36	C	1.424484	-0.214919	-0.000028
C37	C	1.473617	-0.042825	-0.000034
C38	C	1.414458	-0.041644	-0.000032
C39	C	1.360314	-0.127102	-0.000020
C40	C	0.929352	-0.031992	-0.000051
C41	C	0.870186	-0.030823	-0.000061
C42	C	0.821059	-0.202916	-0.000049
C43	C	0.880219	-0.204086	-0.000044
C44	C	0.934367	-0.118616	-0.000042
O45	O	0.952929	-0.279077	-0.000058
O46	O	1.043884	0.039331	-0.000027
C47	C	0.607504	-0.295465	-0.000029
C48	C	0.586972	-0.400230	-0.000025
N49	N	0.699116	-0.058697	0.248686
C50	C	0.503720	0.440379	-0.000025
C51	C	0.523029	0.538826	-0.000024
C52	C	0.631632	0.562283	-0.000031
C53	C	0.612332	0.463835	-0.000037
C54	C	0.548375	0.402891	-0.000032
C55	C	0.656986	0.426347	-0.000045
C56	C	0.637688	0.327909	-0.000045
C57	C	0.573736	0.266959	-0.000038
C58	C	0.529077	0.304453	-0.000033
C59	C	0.720944	0.487295	-0.000043
C60	C	0.765599	0.449806	-0.000051
C61	C	0.746300	0.351365	-0.000058
C62	C	0.682347	0.290415	-0.000051
C63	C	0.790958	0.313871	-0.000063
C64	C	0.771660	0.215433	-0.000064
C65	C	0.663049	0.191977	-0.000051
N66	N	0.595568	-0.187034	-0.248761
C67	C	0.512112	-0.290434	0.600524
C68	C	0.533056	-0.264487	0.701021
C69	C	0.637159	-0.135496	0.700972
C70	C	0.616222	-0.161430	0.600473
C71	C	0.553698	-0.238900	0.550257
C72	C	0.657808	-0.109895	0.550207
C73	C	0.636874	-0.135831	0.449716
C74	C	0.574353	-0.213300	0.399493
C75	C	0.532764	-0.264836	0.449767
C76	C	0.720334	-0.032430	0.600425
C77	C	0.761920	0.019104	0.550158
C78	C	0.740984	-0.006826	0.449666
C79	C	0.678464	-0.084295	0.399443
C80	C	0.782574	0.044709	0.399392
C81	C	0.761640	0.018774	0.298902
C82	C	0.657529	-0.110231	0.298952
H83	H	0.866112	0.039729	-0.000072
O84	O	0.552913	0.160785	-0.000035
H85	H	0.557715	0.123098	-0.065110
H86	H	0.833484	0.107780	0.440291
H87	H	0.451639	0.390752	-0.000028
H88	H	0.606613	-0.173309	0.258064
O89	O	0.460095	0.238707	-0.000029
H90	H	0.432283	0.281310	-0.000021
H91	H	0.776963	-0.272491	-0.000051
O92	O	0.488196	-0.320080	0.755234
H93	H	0.513257	-0.289038	0.833548
H94	H	0.610968	0.142350	-0.000054
H95	H	0.973434	0.037606	-0.000049
O96	O	0.465315	-0.348369	0.395599
H97	H	0.457743	-0.357730	0.317278
H98	H	0.795504	0.060738	0.257974
O99	O	0.444672	-0.373981	0.546335
H100	H	0.440736	-0.442532	0.565605
H101	H	0.486663	0.569347	-0.000003
O102	O	0.700612	0.628017	-0.000034
H103	H	0.706530	0.702765	-0.000036
O104	O	0.819819	0.174988	-0.000085
H105	H	0.863112	0.216293	0.064975
H106	H	0.736652	0.567446	-0.000051
O107	O	0.834579	0.515540	-0.000053
H108	H	0.840497	0.590288	-0.000055
H109	H	0.843033	0.363509	-0.000057
O110	O	0.704593	-0.051937	0.755134
H111	H	0.712163	-0.042555	0.833457
H112	H	1.321242	-0.283332	-0.000016
H113	H	1.162822	0.120365	-0.000049
O114	O	0.551768	-0.241270	0.291106
H115	H	0.585738	-0.262846	0.264582
O116	O	0.742921	-0.004449	0.708812
H117	H	0.708958	0.017149	0.735331
H118	H	1.131849	-0.366089	0.000006
H119	H	1.270134	0.118230	-0.000038
H120	H	0.812829	0.082180	0.591056
H121	H	1.517714	0.026756	-0.000037
O122	O	1.409061	0.051805	-0.000025
H123	H	1.418658	0.076057	-0.065092
O124	O	1.429887	-0.308362	-0.000015
H125	H	1.382295	-0.367577	-0.000003
H126	H	0.884298	-0.274633	-0.000036
O127	O	1.010221	-0.386525	0.000012
H128	H	1.023649	-0.446962	0.000013
