data_functionalizedCrystal
_audit_creation_method	'MofGen! by Chris Wilmer'
_symmetry_space_group_name_H-M	'P1'
_symmetry_Int_Tables_number	1
_symmetry_cell_setting	triclinic
loop_
_symmetry_equiv_pos_as_xyz
  x,y,z
_cell_length_a	14.853567
_cell_length_b	11.792254
_cell_length_c	13.330367
_cell_angle_alpha	89.995204
_cell_angle_beta	89.995418
_cell_angle_gamma	83.916764
loop_
_atom_site_label
_atom_site_type_symbol
_atom_site_fract_x
_atom_site_fract_y
_atom_site_fract_z
O1	O	1.196951	0.148180	-0.083355
O2	O	0.934561	0.165832	-0.083372
O3	O	1.072118	-0.008203	-0.083356
O4	O	1.059394	0.322215	-0.083371
O5	O	1.072097	-0.008206	0.083491
O6	O	0.934541	0.165828	0.083475
O7	O	1.196931	0.148176	0.083492
Cu8	Cu	1.065734	0.157002	0.098718
Cu9	Cu	1.065758	0.157007	-0.098598
O10	O	1.059374	0.322211	0.083476
C11	C	0.900959	0.165031	0.000049
C12	C	0.800866	0.162634	0.000043
C13	C	1.071306	-0.050490	0.000067
C14	C	1.068907	-0.176488	0.000066
C15	C	0.387886	0.049122	0.000071
C16	C	0.367418	0.255879	0.000060
C17	C	0.461460	0.258133	0.000057
C18	C	0.518720	0.155879	0.000059
C19	C	0.481938	0.051372	0.000064
C20	C	0.498250	0.362638	0.000041
C21	C	0.592298	0.364896	0.000037
C22	C	0.649560	0.262641	0.000046
C23	C	0.612772	0.158130	0.000053
C24	C	0.670032	0.055876	0.000055
C25	C	0.633246	-0.048636	0.000068
C26	C	0.539200	-0.050883	0.000074
C27	C	0.743606	0.264887	0.000041
C28	C	0.764083	0.058127	0.000048
C29	C	1.066958	-0.278813	0.000063
C30	C	1.064521	-0.407185	0.000053
C31	C	1.230533	0.148978	0.000069
C32	C	1.330626	0.151375	0.000069
C33	C	1.060186	0.364499	0.000051
C34	C	1.062585	0.490497	0.000045
N35	N	1.065724	0.156998	0.237500
N36	N	1.065775	0.157002	-0.237379
C37	C	1.004845	0.234039	0.710115
C38	C	1.126695	0.079966	0.710098
C39	C	1.126685	0.079962	0.605079
C40	C	1.065755	0.156999	0.552574
C41	C	1.004835	0.234040	0.605087
C42	C	1.187610	0.002930	0.552558
C43	C	1.187603	0.002925	0.447534
C44	C	1.126667	0.079957	0.395027
C45	C	1.065744	0.157000	0.447546
C46	C	1.004814	0.234038	0.395041
C47	C	0.943886	0.311076	0.447559
C48	C	0.943900	0.311073	0.552580
C49	C	1.126654	0.079961	0.290005
C50	C	1.004804	0.234039	0.290013
H51	H	0.810699	-0.025142	0.000054
H52	H	0.451622	0.445887	0.000029
N53	N	0.308929	0.360319	0.000076
N54	N	0.312568	0.429784	0.070408
H55	H	0.271255	0.503550	0.070422
N56	N	0.501637	-0.157639	0.000089
N57	N	0.518988	-0.226612	0.070422
H58	H	0.492457	-0.302009	0.070431
H59	H	0.622240	0.449996	0.000026
N60	N	0.942608	0.312740	0.763738
N61	N	0.888213	0.381514	0.716842
H62	H	0.844256	0.437098	0.754713
H63	H	0.773553	0.349979	0.000032
H64	H	0.955184	0.296768	0.247269
N65	N	1.188945	0.001312	0.763742
N66	N	1.188958	0.001340	0.857511
H67	H	1.232929	-0.054207	0.895402
N68	N	1.249874	-0.075702	0.606204
N69	N	1.249889	-0.075667	0.699973
H70	H	1.293877	-0.131190	0.737867
H71	H	0.679879	-0.131891	0.000063
N72	N	1.249871	-0.075734	0.393909
N73	N	1.304288	-0.144484	0.440802
H74	H	1.348276	-0.200026	0.402929
N75	N	0.881663	0.389769	0.393905
N76	N	0.881677	0.389758	0.300136
H77	H	0.837734	0.445334	0.262239
N78	N	1.188805	0.001167	0.236376
N79	N	1.243148	-0.067677	0.283267
H80	H	1.287012	-0.123374	0.245393
N81	N	0.350301	-0.057621	0.000094
N82	N	0.266331	-0.059623	0.000107
H83	H	0.239785	-0.135011	0.000124
H84	H	0.894295	0.373796	0.595347
