data_functionalizedCrystal
_audit_creation_method	'MofGen! by Chris Wilmer'
_symmetry_space_group_name_H-M	'P1'
_symmetry_Int_Tables_number	1
_symmetry_cell_setting	triclinic
loop_
_symmetry_equiv_pos_as_xyz
  x,y,z
_cell_length_a	16.109301
_cell_length_b	14.853567
_cell_length_c	15.186229
_cell_angle_alpha	90.000050
_cell_angle_beta	89.999362
_cell_angle_gamma	83.548205
loop_
_atom_site_label
_atom_site_type_symbol
_atom_site_fract_x
_atom_site_fract_y
_atom_site_fract_z
O1	O	1.103293	0.115881	-0.073165
O2	O	0.861252	0.130302	-0.073178
O3	O	0.988738	-0.008149	-0.073174
O4	O	0.975807	0.254332	-0.073170
O5	O	0.988729	-0.008151	0.073283
O6	O	0.861243	0.130300	0.073279
O7	O	1.103285	0.115879	0.073292
Zn8	Zn	0.982263	0.123089	0.096539
Zn9	Zn	0.982274	0.123092	-0.096425
O10	O	0.975799	0.254330	0.073288
C11	C	0.830272	0.129717	0.000048
C12	C	0.737974	0.127965	0.000043
C13	C	0.515811	0.206047	0.000055
C14	C	0.429089	0.204395	0.000060
C15	C	0.448732	0.040127	0.000054
C16	C	0.535453	0.041781	0.000054
C17	C	0.568990	0.124743	0.000050
C18	C	0.395546	0.121437	0.000055
C19	C	0.301518	0.119645	0.000061
C20	C	0.663025	0.126536	0.000046
C21	C	0.988148	-0.041738	0.000052
C22	C	0.986392	-0.141819	0.000044
C23	C	0.903241	-0.554215	0.000056
C24	C	1.054697	-0.575746	0.000064
C25	C	1.056348	-0.481715	0.000059
C26	C	0.981444	-0.423930	0.000054
C27	C	0.904889	-0.460175	0.000054
C28	C	1.132901	-0.445463	0.000068
C29	C	1.134555	-0.351426	0.000064
C30	C	1.059650	-0.293639	0.000053
C31	C	0.983093	-0.329890	0.000052
C32	C	0.908189	-0.272104	0.000046
C33	C	0.831630	-0.308353	0.000039
C34	C	0.829984	-0.402388	0.000042
C35	C	1.061296	-0.199604	0.000049
C36	C	0.909837	-0.178064	0.000044
C37	C	1.134265	0.116464	0.000063
C38	C	1.226563	0.118215	0.000063
C39	C	0.976389	0.287918	0.000060
C40	C	0.978145	0.387999	0.000062
N41	N	0.982261	0.123087	0.228231
N42	N	0.982282	0.123087	-0.228118
C43	C	1.038731	0.061801	0.453956
C44	C	1.038734	0.061799	0.546146
C45	C	0.925806	0.184375	0.546151
C46	C	0.925800	0.184372	0.453963
C47	C	0.982267	0.123086	0.407868
C48	C	0.982276	0.123087	0.592246
C49	C	0.982278	0.123085	0.692202
C50	C	0.982264	0.123087	0.307905
H51	H	0.578754	-0.024431	0.000053
C52	C	0.812697	0.203908	0.649843
C53	C	0.863747	0.251743	0.596826
H54	H	0.774389	0.245501	0.681131
H55	H	0.782746	0.166380	0.613885
H56	H	0.846338	0.167411	0.690481
H57	H	0.830107	0.288234	0.556184
H58	H	0.893700	0.289286	0.632788
H59	H	1.084709	0.011897	0.416427
H60	H	0.385793	0.270600	0.000066
C61	C	0.759959	-0.166227	0.000034
C62	C	0.827498	-0.114549	0.000039
H63	H	0.709128	-0.127014	0.000037
H64	H	0.762471	-0.203348	-0.051036
H65	H	0.762468	-0.203356	0.051110
H66	H	0.824992	-0.077425	-0.051040
H67	H	0.824985	-0.077412	0.051115
C68	C	1.150364	-0.059352	0.536874
C69	C	1.100804	-0.005564	0.596806
H70	H	1.188687	-0.100937	0.568151
H71	H	1.115720	-0.091792	0.500922
H72	H	1.180304	-0.021802	0.500914
H73	H	1.070859	-0.043113	0.632762
H74	H	1.135452	0.026879	0.632772
C75	C	0.814177	0.305546	0.463221
C76	C	0.863732	0.251745	0.403296
H77	H	0.775864	0.347138	0.431939
H78	H	0.784232	0.268012	0.499180
H79	H	0.848831	0.337986	0.499175
H80	H	0.829079	0.219299	0.367346
H81	H	0.893679	0.289283	0.367322
H82	H	0.421415	-0.027418	0.000062
C83	C	0.640026	0.281524	0.000047
C84	C	0.552677	0.297237	0.000054
H85	H	0.662782	0.337824	0.000041
H86	H	0.658270	0.248054	0.051115
H87	H	0.658264	0.248049	-0.051031
H88	H	0.534439	0.330707	0.051135
H89	H	0.534426	0.330722	-0.051020
H90	H	0.840908	-0.583733	0.000047
H91	H	0.770643	-0.261292	0.000041
H92	H	0.767654	-0.431911	0.000037
H93	H	1.193884	-0.492518	0.000081
H94	H	1.115680	-0.622800	0.000076
H95	H	1.196894	-0.321921	0.000069
H96	H	1.123629	-0.170094	0.000061
