data_functionalizedCrystal
_audit_creation_method	'MofGen! by Chris Wilmer'
_symmetry_space_group_name_H-M	'P1'
_symmetry_Int_Tables_number	1
_symmetry_cell_setting	triclinic
loop_
_symmetry_equiv_pos_as_xyz
  x,y,z
_cell_length_a	19.188930
_cell_length_b	27.732048
_cell_length_c	17.666332
_cell_angle_alpha	89.988553
_cell_angle_beta	89.976766
_cell_angle_gamma	82.893716
loop_
_atom_site_label
_atom_site_type_symbol
_atom_site_fract_x
_atom_site_fract_y
_atom_site_fract_z
O1	O	0.925765	0.060348	-0.063200
O2	O	0.722402	0.068472	-0.063149
O3	O	0.830399	-0.005968	-0.063161
O4	O	0.817767	0.134787	-0.063187
O5	O	0.830380	-0.005971	0.062735
O6	O	0.722383	0.068468	0.062748
O7	O	0.925746	0.060344	0.062697
Cu8	Cu	0.824063	0.064406	0.074218
Cu9	Cu	0.824085	0.064410	-0.074670
O10	O	0.817748	0.134783	0.062710
C11	C	0.696383	0.068207	-0.000194
C12	C	0.618883	0.067417	-0.000174
C13	C	0.573681	0.111096	-0.000194
C14	C	0.500862	0.110354	-0.000202
C15	C	0.473249	0.065931	-0.000205
C16	C	0.518461	0.022246	-0.000181
C17	C	0.591278	0.022990	-0.000165
N18	N	0.365491	0.031976	-0.043078
N19	N	0.296317	0.031273	-0.043094
C20	C	0.253854	0.063689	-0.000251
N21	N	0.283177	0.096841	0.042600
N22	N	0.352357	0.097546	0.042613
C23	C	0.394291	0.065120	-0.000222
C24	C	0.129692	0.106566	-0.000279
C25	C	0.056872	0.105822	-0.000282
C26	C	0.074473	0.017714	-0.000269
C27	C	0.147292	0.018459	-0.000258
C28	C	0.174897	0.062886	-0.000267
C29	C	0.830125	-0.023977	-0.000211
C30	C	0.829326	-0.077635	-0.000204
C31	C	0.888119	-0.416270	-0.000258
C32	C	0.885157	-0.617939	-0.000268
O33	O	0.938918	-0.649030	-0.000314
N34	N	0.821118	-0.637258	-0.000251
C35	C	0.757816	-0.606157	-0.000237
O36	O	0.703280	-0.627217	-0.000231
C37	C	0.760780	-0.404489	-0.000233
C38	C	0.824822	-0.385173	-0.000242
C39	C	0.952156	-0.396953	-0.000268
C40	C	0.952896	-0.346539	-0.000261
C41	C	0.889599	-0.315441	-0.000245
C42	C	0.825562	-0.334759	-0.000235
C43	C	0.697478	-0.373389	-0.000224
C44	C	0.698225	-0.322969	-0.000225
C45	C	0.762267	-0.303653	-0.000234
C46	C	0.763005	-0.253247	-0.000212
N47	N	0.827043	-0.233928	-0.000229
C48	C	0.890340	-0.265025	-0.000245
C49	C	0.756265	-0.712036	-0.000238
C50	C	0.755524	-0.762452	-0.000238
C51	C	0.882865	-0.774231	-0.000270
C52	C	0.883605	-0.723813	-0.000265
C53	C	0.820303	-0.692716	-0.000254
C54	C	0.891889	-0.159151	-0.000231
C55	C	0.892623	-0.108732	-0.000221
C56	C	0.765283	-0.096958	-0.000193
C57	C	0.764549	-0.147373	-0.000198
C58	C	0.827857	-0.178468	-0.000220
O59	O	0.709272	-0.222127	-0.000174
O60	O	0.944868	-0.243956	-0.000268
C61	C	0.887379	-0.466684	-0.000265
C62	C	0.823342	-0.486001	-0.000255
C63	C	0.760045	-0.454904	-0.000238
C64	C	0.822601	-0.536418	-0.000254
C65	C	0.885898	-0.567515	-0.000271
C66	C	0.949936	-0.548195	-0.000288
C67	C	0.950676	-0.497781	-0.000281
C68	C	0.696007	-0.474223	-0.000222
C69	C	0.695272	-0.524638	-0.000227
C70	C	0.758569	-0.555735	-0.000244
C71	C	0.951765	0.060609	-0.000260
C72	C	1.029264	0.061399	-0.000285
C73	C	0.818023	0.152793	-0.000243
C74	C	0.818821	0.206450	-0.000254
N75	N	0.824052	0.064402	0.178937
N76	N	0.824101	0.064410	-0.179389
C77	C	0.871889	0.031456	0.218541
C78	C	0.871893	0.031454	0.297789
C79	C	0.824067	0.064406	0.337429
C80	C	0.776221	0.097354	0.297816
C81	C	0.776214	0.097352	0.218570
N82	N	0.814718	0.107196	0.461842
N83	N	0.814729	0.107196	0.537122
C84	C	0.824085	0.064412	0.576193
N85	N	0.833444	0.021627	0.537140
N86	N	0.833436	0.021628	0.461853
C87	C	0.824069	0.064411	0.423359
C88	C	0.871929	0.031462	0.701727
C89	C	0.871928	0.031459	0.780976
C90	C	0.776260	0.097363	0.781001
C91	C	0.776257	0.097361	0.701754
C92	C	0.824096	0.064411	0.662121
H93	H	0.628083	-0.012580	-0.000150
O94	O	0.636777	-0.292714	-0.000112
C95	C	0.633369	-0.263217	0.065104
H96	H	0.688754	-0.260778	0.086833
H97	H	0.606942	-0.225270	0.050448
H98	H	0.601657	-0.279749	0.110765
H99	H	0.712400	-0.163101	-0.000170
O100	O	1.015169	-0.327859	-0.000310
C101	C	1.070870	-0.366125	-0.000308
H102	H	1.051670	-0.400331	-0.024138
H103	H	1.115621	-0.355679	-0.036872
H104	H	1.090360	-0.373308	0.060085
O105	O	0.729736	0.129297	0.336403
C106	C	0.686941	0.103483	0.382264
H107	H	0.715162	0.065612	0.394134
H108	H	0.675683	0.123679	0.437989
H109	H	0.635373	0.100286	0.351755
H110	H	0.020068	0.141392	-0.000294
H111	H	0.943441	-0.184464	-0.000251
O112	O	0.703863	-0.066677	-0.000211
C113	C	0.718257	-0.018037	-0.000192
H114	H	0.773084	-0.016216	-0.024034
H115	H	0.677890	0.004894	-0.036738
H116	H	0.715437	-0.003458	0.060207
O117	O	0.047542	-0.025397	-0.000308
C118	C	-0.026422	-0.016688	-0.000305
H119	H	-0.043917	0.021071	-0.024146
H120	H	-0.048457	-0.045103	-0.036859
H121	H	-0.046702	-0.018991	0.060090
O122	O	0.191106	-0.024016	-0.000281
C123	C	0.151123	-0.063385	-0.000266
H124	H	0.096649	-0.051000	-0.024114
H125	H	0.178336	-0.093979	-0.036808
H126	H	0.146051	-0.077011	0.060133
O127	O	0.918332	-0.000617	0.336192
C128	C	0.907494	-0.048450	0.316872
H129	H	0.880583	-0.048350	0.259345
H130	H	0.960233	-0.072345	0.314150
H131	H	0.872903	-0.063336	0.361495
H132	H	0.596152	0.147272	-0.000202
O133	O	0.729705	0.129325	0.819463
C134	C	0.660676	0.121592	0.800123
H135	H	0.660755	0.082891	0.778353
H136	H	0.625580	0.127213	0.852254
H137	H	0.639876	0.148419	0.754124
O138	O	1.011442	-0.578388	-0.000172
C139	C	1.050363	-0.569661	0.065010
H140	H	1.013313	-0.552359	0.110598
H141	H	1.078746	-0.605495	0.086882
H142	H	1.090500	-0.544071	0.050260
H143	H	0.645328	-0.389107	-0.000221
O144	O	0.954899	-0.090049	-0.000266
C145	C	1.010605	-0.128311	-0.000266
H146	H	0.991411	-0.162518	-0.024100
H147	H	1.055355	-0.117860	-0.036828
H148	H	1.030095	-0.135495	0.060127
H149	H	0.464051	0.145923	-0.000216
H150	H	0.934404	-0.799559	-0.000283
O151	O	0.491607	-0.020894	-0.000321
C152	C	0.450038	-0.023953	-0.065525
H153	H	0.467016	0.001271	-0.111097
H154	H	0.457006	-0.062923	-0.087405
H155	H	0.392478	-0.012681	-0.050800
O156	O	1.012905	-0.479044	-0.000430
C157	C	1.051470	-0.494953	-0.065634
H158	H	1.014014	-0.505355	-0.111198
H159	H	1.080849	-0.464471	-0.087527
H160	H	1.090729	-0.527897	-0.050904
O161	O	0.693357	-0.781270	-0.000322
C162	C	0.689118	-0.810062	-0.065536
H163	H	0.744289	-0.822731	-0.087285
H164	H	0.661641	-0.843021	-0.050868
H165	H	0.657996	-0.787716	-0.111186
O166	O	1.013602	-0.427206	-0.000182
C167	C	1.016987	-0.456719	0.065031
H168	H	0.961594	-0.459168	0.086779
H169	H	1.043426	-0.494661	0.050364
H170	H	1.048677	-0.440195	0.110683
H171	H	0.910880	0.004628	0.813222
H172	H	0.152169	0.142741	-0.000275
O173	O	0.729720	0.129406	0.180212
C174	C	0.687492	0.158481	0.232188
H175	H	0.716112	0.158979	0.288664
H176	H	0.676419	0.197102	0.209283
H177	H	0.635798	0.142874	0.240646
H178	H	0.737307	0.124191	0.669506
H179	H	0.935754	-0.708089	-0.000273
H180	H	0.910880	0.004630	0.669457
H181	H	0.643117	-0.540360	-0.000213
H182	H	0.644461	-0.448908	-0.000210
H183	H	0.704714	-0.686720	-0.000229
H184	H	0.910840	0.004625	0.186275
