data_functionalizedCrystal
_audit_creation_method	'MofGen! by Chris Wilmer'
_symmetry_space_group_name_H-M	'P1'
_symmetry_Int_Tables_number	1
_symmetry_cell_setting	triclinic
loop_
_symmetry_equiv_pos_as_xyz
  x,y,z
_cell_length_a	17.038272
_cell_length_b	15.995350
_cell_length_c	15.072220
_cell_angle_alpha	89.998899
_cell_angle_beta	89.989222
_cell_angle_gamma	92.698035
loop_
_atom_site_label
_atom_site_type_symbol
_atom_site_fract_x
_atom_site_fract_y
_atom_site_fract_z
O1	O	1.037421	-0.181819	-0.073740
O2	O	0.809790	-0.178931	-0.073749
O3	O	0.929828	-0.058931	-0.073744
O4	O	0.917383	-0.301819	-0.073746
O5	O	0.929798	-0.058936	0.073822
O6	O	0.809760	-0.178936	0.073816
O7	O	1.037391	-0.181824	0.073825
Zn8	Zn	0.923571	-0.180381	0.097250
Zn9	Zn	0.923610	-0.180374	-0.097174
O10	O	0.917353	-0.301824	0.073819
C11	C	0.780646	-0.176308	0.000032
C12	C	0.693851	-0.168474	0.000028
C13	C	0.929298	-0.027702	0.000037
C14	C	0.927756	0.065359	0.000032
C15	C	1.066535	-0.184447	0.000042
C16	C	1.153330	-0.192281	0.000040
C17	C	1.203426	-0.120353	0.000038
C18	C	1.284979	-0.127719	0.000041
C19	C	1.316433	-0.207014	0.000040
C20	C	1.266330	-0.278948	0.000045
C21	C	1.184779	-0.271581	0.000048
C22	C	1.562197	-0.233041	0.000036
C23	C	1.643754	-0.240402	0.000030
C24	C	1.662398	-0.089172	0.000028
C25	C	1.580844	-0.081812	0.000026
C26	C	1.530749	-0.153746	0.000035
C27	C	1.399792	-0.214546	0.000040
C28	C	1.447391	-0.146214	0.000041
C29	C	0.917883	-0.333053	0.000037
C30	C	0.919425	-0.426114	0.000036
N31	N	0.923550	-0.180385	0.229938
C32	C	0.922217	0.403501	0.000035
C33	C	0.836728	0.362156	-0.000300
C34	C	0.838270	0.265356	0.000033
C35	C	0.924964	0.235744	0.000033
C36	C	0.967114	0.273815	0.084300
C37	C	0.964966	0.370604	0.084371
C38	C	0.966766	0.370842	-0.083438
C39	C	0.966746	0.273898	-0.084552
C40	C	0.926522	0.140936	0.000035
C41	C	0.920662	0.498309	0.000039
N42	N	0.923637	-0.180364	-0.229863
C43	C	0.923608	-0.180371	0.589140
C44	C	0.859163	-0.244335	0.551530
C45	C	0.859310	-0.244596	0.448704
C46	C	0.923579	-0.180378	0.410936
C47	C	1.005158	-0.205271	0.448230
C48	C	1.004797	-0.205732	0.551088
C49	C	0.907202	-0.091363	0.551240
C50	C	0.905331	-0.091815	0.448377
C51	C	0.923567	-0.180381	0.310222
C52	C	0.923625	-0.180370	0.689853
H53	H	1.325765	-0.069147	0.000043
C54	C	1.412797	-0.058992	0.000041
H55	H	1.454310	-0.017204	0.000042
H56	H	1.381376	-0.052981	-0.051416
H57	H	1.381366	-0.052978	0.051509
C58	C	1.129670	-0.350700	0.000050
H59	H	1.076597	-0.334957	0.000061
H60	H	1.139208	-0.382977	-0.051409
H61	H	1.139199	-0.382973	0.051516
C62	C	1.546250	0.005413	0.000037
H63	H	1.587767	0.047197	0.000045
H64	H	1.514830	0.011436	-0.051418
H65	H	1.514821	0.011423	0.051507
H66	H	0.804890	0.239866	0.060539
H67	H	1.669361	-0.304977	0.000042
C68	C	1.071494	-0.144346	0.415175
H69	H	1.049975	-0.103091	0.378244
H70	H	1.096915	-0.117968	0.464550
H71	H	1.108512	-0.174396	0.382320
H72	H	0.798671	-0.228907	0.423491
C73	C	0.776978	-0.223388	0.584985
H74	H	0.781230	-0.175449	0.622195
H75	H	0.744215	-0.212303	0.535788
H76	H	0.754793	-0.269489	0.617635
C77	C	0.873119	-0.332893	0.586426
H78	H	0.918051	-0.331056	0.623814
H79	H	0.828487	-0.353027	0.619171
H80	H	0.881445	-0.369231	0.537815
C81	C	0.927536	0.238301	0.169019
H82	H	0.953464	0.261715	0.219660
H83	H	0.873918	0.252091	0.169775
H84	H	0.930823	0.179182	0.169891
C85	C	1.051910	0.407688	-0.084213
H86	H	1.060301	0.442807	-0.033943
H87	H	1.087233	0.363510	-0.082364
H88	H	1.060717	0.439500	-0.136804
C89	C	1.024321	-0.293661	0.583495
H90	H	1.024276	-0.294717	0.646517
H91	H	0.986010	-0.333590	0.561738
H92	H	1.074733	-0.306917	0.562229
C93	C	0.793500	0.230147	-0.081560
H94	H	0.774201	0.275012	-0.115207
H95	H	0.827957	0.199403	-0.117215
H96	H	0.750704	0.194316	-0.062589
C97	C	0.873467	-0.333659	0.415446
H98	H	0.879157	-0.369820	0.464799
H99	H	0.830047	-0.353315	0.380466
H100	H	0.919945	-0.332790	0.380566
H101	H	1.425412	-0.279109	0.000037
H102	H	1.177823	-0.055782	0.000033
C103	C	1.071522	-0.145598	0.584701
H104	H	1.098734	-0.121002	0.535491
H105	H	1.050024	-0.102922	0.619730
H106	H	1.106983	-0.175783	0.619605
C107	C	1.025156	-0.292250	0.413429
H108	H	0.983901	-0.313512	0.376182
H109	H	1.072741	-0.287749	0.380555
H110	H	1.031147	-0.329159	0.462087
C111	C	0.828568	-0.060991	0.586309
H112	H	0.805005	-0.102316	0.624396
H113	H	0.837701	-0.010322	0.618344
H114	H	0.794474	-0.051619	0.537814
C115	C	1.717503	-0.010052	0.000029
H116	H	1.770577	-0.025793	0.000034
H117	H	1.707977	0.022229	-0.051427
H118	H	1.707959	0.022216	0.051498
H119	H	0.845320	-0.073059	0.424002
H120	H	1.291946	-0.343513	0.000050
C121	C	0.790576	0.390489	-0.081925
H122	H	0.823025	0.427791	-0.116531
H123	H	0.774859	0.343035	-0.116628
H124	H	0.745371	0.418144	-0.062970
H125	H	0.949221	-0.041536	0.422670
H126	H	1.521419	-0.291615	0.000040
C127	C	0.925187	0.239976	-0.168774
H128	H	0.950733	0.263285	-0.219716
H129	H	0.927291	0.180754	-0.170321
H130	H	0.871897	0.254971	-0.168248
H131	H	0.802698	0.384171	0.059791
C132	C	0.970683	-0.026964	0.584101
H133	H	1.007013	-0.054142	0.620740
H134	H	0.997560	-0.002439	0.534636
H135	H	0.946637	0.015410	0.617220
H136	H	0.934206	0.391094	0.147362
C137	C	0.929030	0.401276	-0.169724
H138	H	0.956791	0.380881	-0.219284
H139	H	0.875772	0.381008	-0.172314
H140	H	0.931254	0.460724	-0.170807
C141	C	1.049749	0.408133	0.089553
H142	H	1.085351	0.364213	0.091613
H143	H	1.060545	0.441885	0.038742
H144	H	1.055659	0.441443	0.141520
C145	C	1.052162	0.247090	-0.091419
H146	H	1.075940	0.271037	-0.143086
H147	H	1.080651	0.265881	-0.040456
H148	H	1.052591	0.187815	-0.094957
C149	C	1.053152	0.248601	0.088544
H150	H	1.064157	0.214547	0.038845
H151	H	1.087054	0.297473	0.087764
H152	H	1.061320	0.218210	0.141639
