data_functionalizedCrystal
_audit_creation_method	'MofGen! by Chris Wilmer'
_symmetry_space_group_name_H-M	'P1'
_symmetry_Int_Tables_number	1
_symmetry_cell_setting	triclinic
loop_
_symmetry_equiv_pos_as_xyz
  x,y,z
_cell_length_a	12.759401
_cell_length_b	10.686285
_cell_length_c	10.685986
_cell_angle_alpha	81.587410
_cell_angle_beta	94.349831
_cell_angle_gamma	85.633237
loop_
_atom_site_label
_atom_site_type_symbol
_atom_site_fract_x
_atom_site_fract_y
_atom_site_fract_z
Zn1	Zn	1.591741	-0.450107	-0.678989
Zn2	Zn	2.091741	0.049893	-0.178989
Zn3	Zn	1.620837	-0.678689	-0.450488
Zn4	Zn	2.120837	-0.178689	0.049512
Zn5	Zn	1.430628	-0.466469	-0.466754
Zn6	Zn	1.930628	0.033531	0.033246
Zn7	Zn	1.430648	-0.662309	-0.662692
Zn8	Zn	1.930648	-0.162309	-0.162692
O9	O	1.518464	-0.564394	-0.564731
O10	O	2.018464	-0.064394	-0.064731
O11	O	1.742621	-0.480437	-0.648692
O12	O	2.242621	0.019563	-0.148692
O13	O	1.607774	-0.664240	-0.275017
O14	O	2.107774	-0.164240	0.224983
O15	O	1.439815	-0.286676	-0.508535
O16	O	1.939815	0.213324	-0.008535
O17	O	1.763998	-0.648375	-0.480813
O18	O	2.263998	-0.148375	0.019187
O19	O	1.558184	-0.274655	-0.664464
O20	O	2.058184	0.225345	-0.164464
O21	O	1.468029	-0.508323	-0.286967
O22	O	1.968029	-0.008323	0.213033
O23	O	1.283610	-0.492440	-0.492732
O24	O	1.783610	0.007560	0.007268
O25	O	1.439849	-0.620458	-0.842483
O26	O	1.939849	-0.120458	-0.342483
O27	O	1.283625	-0.636323	-0.636687
O28	O	1.783625	-0.136323	-0.136687
O29	O	1.558203	-0.464554	-0.854457
O30	O	2.058203	0.035446	-0.354457
O31	O	1.607793	-0.854139	-0.465010
O32	O	2.107793	-0.354139	0.034990
O33	O	1.468063	-0.842105	-0.620915
O34	O	1.968063	-0.342105	-0.120915
C35	C	1.245497	-0.564380	-0.564707
C36	C	1.745497	-0.064380	-0.064707
C37	C	1.128721	-0.564402	-0.564724
C38	C	1.628721	-0.064402	-0.064724
C39	C	1.541114	-0.894175	-0.539457
C40	C	2.041114	-0.394175	-0.039457
C41	C	1.550897	-1.035254	-0.528687
C42	C	2.050897	-0.535254	-0.028687
C43	C	1.073911	-0.639456	-0.639544
C44	C	1.573911	-0.139456	-0.139544
C45	C	0.964186	-0.639459	-0.639569
C46	C	1.464186	-0.139459	-0.139569
C47	C	0.964089	-0.489352	-0.489943
C48	C	1.464089	0.010648	0.010057
C49	C	1.073812	-0.489343	-0.489926
C50	C	1.573812	0.010657	0.010074
C51	C	1.792496	-0.564408	-0.564756
C52	C	2.292496	-0.064408	-0.064756
C53	C	1.909273	-0.564414	-0.564766
C54	C	2.409273	-0.064414	-0.064766
C55	C	1.495783	-0.538853	-0.895815
C56	C	1.995783	-0.038853	-0.395815
C57	C	1.486117	-0.527970	-1.036903
C58	C	1.986117	-0.027970	-0.536903
C59	C	1.495752	-0.233322	-0.590132
C60	C	1.995752	0.266678	-0.090132
C61	C	1.486073	-0.092239	-0.600956
C62	C	1.986073	0.407761	-0.100956
C63	C	1.541111	-0.589743	-0.234942
C64	C	2.041111	-0.089743	0.265058
C65	C	1.550955	-0.600269	-0.093882
C66	C	2.050955	-0.100269	0.406118
H67	H	1.118614	-0.700570	-0.700453
H68	H	1.618614	-0.200570	-0.200453
H69	H	0.919564	-0.700573	-0.700497
H70	H	1.419564	-0.200573	-0.200497
H71	H	1.613861	-0.670482	-1.034728
H72	H	2.113861	-0.170482	-0.534728
H73	H	0.919370	-0.428244	-0.429043
H74	H	1.419370	0.071756	0.070957
H75	H	1.423214	-0.457741	-1.096065
H76	H	1.923214	0.042259	-0.596065
H77	H	1.118439	-0.428218	-0.428999
H78	H	1.618439	0.071782	0.071001
Cl79	Cl	1.388830	-1.000932	-0.709211
Cl80	Cl	1.888830	-0.500932	-0.209211
H81	H	1.613877	-1.094403	-0.458560
H82	H	2.113877	-0.594403	0.041440
