data_functionalizedCrystal
_audit_creation_method	'MofGen! by Chris Wilmer'
_symmetry_space_group_name_H-M	'P1'
_symmetry_Int_Tables_number	1
_symmetry_cell_setting	triclinic
loop_
_symmetry_equiv_pos_as_xyz
  x,y,z
_cell_length_a	19.377372
_cell_length_b	19.376995
_cell_length_c	19.376995
_cell_angle_alpha	82.424397
_cell_angle_beta	104.023851
_cell_angle_gamma	62.049493
loop_
_atom_site_label
_atom_site_type_symbol
_atom_site_fract_x
_atom_site_fract_y
_atom_site_fract_z
Zr1	Zr	0.435113	0.939274	-0.001350
O2	O	0.307420	1.041302	-0.073174
O3	O	0.485179	0.808869	0.000549
O4	O	0.439386	0.940834	-0.115662
O5	O	0.376912	0.918004	0.157594
O6	O	0.531059	0.974344	-0.126292
O7	O	0.353213	0.909338	0.043038
O8	O	0.612974	0.738283	0.081589
O9	O	0.294996	1.154064	-0.050287
O10	O	0.561751	0.898025	0.017734
O11	O	0.511022	0.879484	0.111158
O12	O	0.457107	1.034855	-0.025666
O13	O	0.406378	1.016314	0.067759
Zr14	Zr	0.619117	1.006540	0.164401
Zr15	Zr	0.581321	0.992719	-0.018302
Zr16	Zr	0.472909	0.953095	0.181354
Zr17	Zr	0.415298	1.119116	0.035152
Zr18	Zr	0.638932	0.826698	0.127900
O19	O	0.569050	1.136945	0.162503
O20	O	0.515309	1.117294	-0.097278
O21	O	0.361162	1.060954	0.186607
O22	O	0.746809	0.904512	0.236225
O23	O	0.693068	0.884861	-0.023555
O24	O	0.538920	0.828521	0.260330
O25	O	0.677318	1.027811	0.005458
O26	O	0.614843	1.004981	0.278714
O27	O	0.523170	0.971471	0.289343
O28	O	0.701016	1.036476	0.120014
O29	O	0.411212	1.196545	-0.063762
O30	O	0.643017	0.749269	0.226814
O31	O	0.759233	0.791750	0.213339
O32	O	0.729190	0.780765	0.068114
O33	O	0.325039	1.165050	0.094938
O34	O	0.441255	1.207531	0.081462
O35	O	0.597123	0.910959	0.188717
O36	O	0.647851	0.929500	0.095293
O37	O	0.543207	1.066330	0.051893
O38	O	0.492479	1.047789	0.145318
C39	C	0.551900	0.747953	0.035868
C40	C	0.560312	0.671605	0.020373
C41	C	0.598647	0.573673	-0.050230
C42	C	0.590739	0.645412	-0.035664
C43	C	0.537784	0.626061	0.061869
C44	C	0.545691	0.554317	0.047314
C45	C	0.576122	0.528129	-0.008738
C46	C	0.523166	0.508773	0.088806
C47	C	0.531069	0.437037	0.074249
C48	C	0.561496	0.410845	0.018199
C49	C	0.584025	0.456393	-0.023295
C50	C	0.492730	0.534965	0.144854
C51	C	0.470205	0.489421	0.186346
C52	C	0.478113	0.417681	0.171793
C53	C	0.508540	0.391489	0.115743
C54	C	0.455584	0.372133	0.213287
C55	C	0.463486	0.300397	0.198730
C56	C	0.516442	0.319753	0.101186
C57	C	0.344231	0.906056	0.102731
C58	C	0.282162	0.883367	0.109928
C59	C	-0.195086	1.165858	0.020324
C60	C	-0.253394	1.144520	0.027093
C61	C	-0.144145	1.001680	0.072399
C62	C	-0.085824	1.023006	0.065637
C63	C	-0.111302	1.105097	0.039598
C64	C	-0.002041	0.962245	0.084911
C65	C	0.056273	0.983570	0.078146
C66	C	0.030803	1.065656	0.052106
C67	C	-0.052988	1.126422	0.032833
C68	C	0.023434	0.880154	0.110945
C69	C	0.107218	0.819393	0.130219
C70	C	0.165534	0.840718	0.123459
C71	C	0.140065	0.922804	0.097419
C72	C	0.249326	0.779952	0.142732
C73	C	0.307640	0.801277	0.135967
C74	C	0.198378	0.944129	0.090654
C75	C	0.709998	1.039758	0.060321
C76	C	0.772067	1.062447	0.053124
C77	C	0.479837	0.955619	-0.147008
C78	C	0.463792	0.949752	-0.224571
C79	C	0.502329	1.197862	0.127183
C80	C	0.493918	1.274209	0.142679
C81	C	0.390676	0.923024	-0.328037
C82	C	0.405759	0.928539	-0.255156
C83	C	0.506762	0.965463	-0.266862
C84	C	0.491684	0.959955	-0.339746
C85	C	0.433641	0.938734	-0.370328
C86	C	0.534650	0.975666	-0.382037
C87	C	0.519576	0.970154	-0.454914
C88	C	0.461537	0.948932	-0.485501
C89	C	0.418567	0.933222	-0.443205
C90	C	0.592697	0.996881	-0.351452
C91	C	0.635662	1.012592	-0.393743
C92	C	0.620585	1.007086	-0.466623
C93	C	0.562546	0.985863	-0.497210
C94	C	0.663555	1.022795	-0.508919
C95	C	0.648481	1.017283	-0.581796
C96	C	0.547472	0.980352	-0.570087
C97	C	0.574392	0.990195	0.310060
C98	C	0.590437	0.996062	0.387622
C99	C	0.734784	0.814804	0.014663
C100	C	0.805265	0.761145	-0.008029
C101	C	0.599177	0.765240	0.264403
C102	C	0.623635	0.694760	0.326469
C103	C	0.782061	0.832091	0.243197
C104	C	0.868587	0.784300	0.298067
C105	C	0.272169	1.113723	-0.080146
C106	C	0.185642	1.161515	-0.135016
C107	C	0.319446	1.131011	0.148388
C108	C	0.248965	1.184670	0.171081
C109	C	0.455052	1.180574	-0.101351
C110	C	0.430595	1.251054	-0.163418
C111	C	0.793418	0.719516	-0.059179
C112	C	0.859632	0.669104	-0.080515
C113	C	0.937694	0.660318	-0.050697
C114	C	0.949538	0.701954	0.000455
C115	C	0.883323	0.752369	0.021787
C116	C	0.680065	0.678092	0.396109
C117	C	0.703043	0.611878	0.454437
C118	C	0.669594	0.562330	0.443121
C119	C	0.613157	0.579002	0.373475
C120	C	0.590175	0.645219	0.315150
C121	C	0.935707	0.771537	0.275068
C122	C	1.017011	0.726643	0.326618
C123	C	1.031194	0.694508	0.401167
C124	C	0.964066	0.707276	0.424167
C125	C	0.882763	0.752174	0.372618
C126	C	0.118521	1.174286	-0.112014
C127	C	0.037215	1.219202	-0.163560
C128	C	0.023032	1.251341	-0.238108
C129	C	0.090160	1.238569	-0.261109
C130	C	0.171464	1.193659	-0.209563
C131	C	0.260809	1.226306	0.222224
C132	C	0.194588	1.276736	0.243545
C133	C	0.116526	1.285524	0.213725
C134	C	0.104683	1.243885	0.162575
C135	C	0.170901	1.193461	0.141252
C136	C	0.464059	1.300585	-0.152080
C137	C	0.441094	1.366804	-0.210395
C138	C	0.384661	1.383495	-0.280045
C139	C	0.351197	1.333958	-0.291382
C140	C	0.374166	1.267736	-0.233069
H141	H	0.609083	0.682492	-0.069458
H142	H	0.849973	0.635208	-0.122165
H143	H	-0.024054	0.862794	0.116446
C144	C	-0.036614	1.233240	-0.138243
N145	N	-0.092219	1.243813	-0.119173
C146	C	0.207637	1.322524	0.299816
N147	N	0.217468	1.357009	0.342201
C148	C	0.134103	1.138947	-0.030012
N149	N	0.145831	1.112336	0.031753
C150	C	1.010526	0.604851	-0.074165
N151	N	1.065382	0.563068	-0.091841
C152	C	0.716865	0.732590	0.408575
N153	N	0.744583	0.773638	0.417972
C154	C	0.483617	0.957013	-0.603732
N155	N	0.435525	0.939433	-0.629074
C156	C	0.632135	0.544856	-0.111882
N157	N	0.657357	0.523151	-0.158316
C158	C	0.979682	0.671914	0.506174
N159	N	0.991448	0.645272	0.567942
C160	C	0.528107	0.663536	0.238544
N161	N	0.481357	0.677328	0.180844
H162	H	0.346909	1.227413	-0.242310
C163	C	-0.081011	1.216726	0.004195
N164	N	-0.102116	1.284740	-0.017375
C165	C	0.354712	0.909883	-0.476850
N166	N	0.306619	0.892304	-0.502192
H167	H	0.062614	1.326585	0.231094
H168	H	0.688314	0.508415	0.490619
H169	H	1.013105	0.694793	0.024728
C170	C	0.477910	1.421289	-0.197907
N171	N	0.505640	1.462325	-0.188499
C172	C	-0.345562	1.211370	0.005893
N173	N	-0.414981	1.261720	-0.010074
H174	H	0.445142	0.263315	0.232516
C175	C	0.436735	0.518235	0.248003
N176	N	0.411529	0.539934	0.294446
C177	C	0.326820	0.899685	-0.361683
N178	N	0.278728	0.882105	-0.387024
H179	H	0.078601	1.264742	-0.321812
C180	C	-0.223109	1.256163	-0.008314
N181	N	-0.244214	1.324177	-0.029883
H182	H	1.071660	0.716253	0.307877
C183	C	0.617512	0.427577	-0.084946
N184	N	0.642735	0.405871	-0.131380
C185	C	0.896371	0.798149	0.078062
N186	N	0.906206	0.832629	0.120451
C187	C	0.346671	1.216655	0.255033
N188	N	0.411339	1.209395	0.279744
H189	H	0.585927	0.538650	0.364272
C190	C	0.289153	1.352305	-0.368014
N191	N	0.242429	1.366119	-0.425737
H192	H	0.924174	0.797696	0.214369
C193	C	1.120635	0.645114	0.457862
N194	N	1.188005	0.607907	0.500561
H195	H	0.127951	0.752555	0.151418
H196	H	0.370767	0.915742	-0.220725
C197	C	-0.066410	1.300734	-0.294804
N198	N	-0.133778	1.337933	-0.337505
C199	C	0.018811	1.253548	0.129790
N200	N	-0.045867	1.260820	0.105105
H201	H	-0.123412	0.934842	0.093598
H202	H	0.078288	1.083017	0.046597
H203	H	0.270056	0.713114	0.163926
C204	C	0.359402	1.456346	-0.344183
N205	N	0.340377	1.511219	-0.392489
H206	H	0.161247	1.159559	0.099609
C207	C	0.245293	1.179605	-0.234880
N208	N	0.300899	1.169020	-0.253954
C209	C	0.727418	1.046115	-0.475262
N210	N	0.775524	1.063674	-0.449909
H211	H	0.828117	0.762557	0.391355
H212	H	0.541231	0.298426	0.055549
H213	H	0.375865	0.751800	0.151676
C214	C	0.570621	0.988790	-0.233208
N215	N	0.618722	1.006356	-0.207860
C216	C	0.699521	1.035918	-0.360090
N217	N	0.747623	1.053485	-0.334741
H218	H	0.510009	1.287007	-0.095372
H219	H	0.430800	0.393470	0.258918
H220	H	0.748999	0.598314	0.511140
C221	C	0.695737	1.034576	-0.628322
N222	N	0.731331	1.047603	-0.663365
H223	H	0.513004	0.647395	0.107504
C224	C	0.707554	0.729173	-0.091993
N225	N	0.642881	0.736447	-0.116717
H226	H	0.567925	0.352435	0.006345
H227	H	0.486292	0.593380	0.156701
H228	H	0.449268	0.944441	-0.544841
H229	H	0.177636	1.010977	0.069475
H230	H	0.604970	1.001364	-0.292110
