data_functionalizedCrystal
_audit_creation_method	'MofGen! by Chris Wilmer'
_symmetry_space_group_name_H-M	'P1'
_symmetry_Int_Tables_number	1
_symmetry_cell_setting	triclinic
loop_
_symmetry_equiv_pos_as_xyz
  x,y,z
_cell_length_a	14.519731
_cell_length_b	13.596369
_cell_length_c	9.065218
_cell_angle_alpha	89.995874
_cell_angle_beta	95.647631
_cell_angle_gamma	90.005416
loop_
_atom_site_label
_atom_site_type_symbol
_atom_site_fract_x
_atom_site_fract_y
_atom_site_fract_z
O1	O	1.225273	0.081789	-0.193547
O2	O	1.725273	0.581789	0.306453
O3	O	0.956966	0.081791	-0.216289
O4	O	1.456966	0.581791	0.283711
O5	O	1.096665	0.081788	0.009828
O6	O	1.596665	0.581788	0.509828
O7	O	1.085574	0.081792	-0.419663
O8	O	1.585574	0.581792	0.080337
O9	O	1.096651	-0.081795	0.009840
O10	O	1.596651	0.418205	0.509840
O11	O	0.956952	-0.081792	-0.216277
O12	O	1.456952	0.418208	0.283723
O13	O	1.225259	-0.081793	-0.193535
O14	O	1.725259	0.418207	0.306465
Zn15	Zn	1.091103	-0.107765	-0.204904
Zn16	Zn	1.591103	0.392235	0.295096
Zn17	Zn	1.091122	0.107762	-0.204919
Zn18	Zn	1.591122	0.607762	0.295081
O19	O	1.085560	-0.081791	-0.419651
O20	O	1.585560	0.418209	0.080349
C21	C	0.922591	-0.000001	-0.215217
C22	C	1.422591	0.499999	0.284783
C23	C	0.820188	-0.000000	-0.212024
C24	C	1.320188	0.500000	0.287976
C25	C	0.737025	0.000004	-0.209429
C26	C	1.237025	0.500004	0.290571
C27	C	0.632692	0.000004	-0.206187
C28	C	1.132692	0.500004	0.293813
C29	C	0.549534	0.000004	-0.203614
C30	C	1.049534	0.500004	0.296386
C31	C	0.445195	0.000006	-0.200372
C32	C	0.945195	0.500006	0.299628
N33	N	1.091097	-0.254857	-0.204892
N34	N	1.591097	0.245143	0.295108
C35	C	1.091121	-0.656148	-0.204921
C36	C	1.591121	-0.156148	0.295079
C37	C	1.091111	-0.544497	-0.204918
C38	C	1.591111	-0.044497	0.295082
C39	C	1.091109	-0.455506	-0.204908
C40	C	1.591109	0.044494	0.295092
C41	C	1.091099	-0.343848	-0.204902
C42	C	1.591099	0.156152	0.295098
C43	C	1.259634	0.000000	-0.194606
C44	C	1.759634	0.500000	0.305394
C45	C	1.362037	0.000006	-0.197799
C46	C	1.862037	0.500006	0.302201
C47	C	1.095592	-0.000002	0.064801
C48	C	1.595592	0.499998	0.564801
C49	C	1.092405	0.000003	0.228584
C50	C	1.592405	0.500003	0.728584
N51	N	1.091135	0.254854	-0.204919
N52	N	1.591135	0.754854	0.295081
C53	C	1.086633	0.000001	-0.474624
C54	C	1.586633	0.500001	0.025376
C55	C	1.089820	0.000003	-0.638408
C56	C	1.589820	0.500003	-0.138408
