data_functionalizedCrystal
_audit_creation_method	'MofGen! by Chris Wilmer'
_symmetry_space_group_name_H-M	'P1'
_symmetry_Int_Tables_number	1
_symmetry_cell_setting	triclinic
loop_
_symmetry_equiv_pos_as_xyz
  x,y,z
_cell_length_a	19.288864
_cell_length_b	12.784905
_cell_length_c	18.366186
_cell_angle_alpha	89.994468
_cell_angle_beta	89.977106
_cell_angle_gamma	78.121783
loop_
_atom_site_label
_atom_site_type_symbol
_atom_site_fract_x
_atom_site_fract_y
_atom_site_fract_z
O1	O	0.913613	0.132632	-0.060779
O2	O	0.710309	0.150524	-0.060728
O3	O	0.826838	-0.013221	-0.060755
O4	O	0.797084	0.296376	-0.060752
O5	O	0.826821	-0.013229	0.060344
O6	O	0.710291	0.150516	0.060371
O7	O	0.913596	0.132624	0.060321
Zn8	Zn	0.811941	0.141568	0.079573
Zn9	Zn	0.811964	0.141579	-0.079981
O10	O	0.797066	0.296368	0.060347
C11	C	0.684457	0.149944	-0.000172
C12	C	0.607454	0.148216	-0.000153
C13	C	0.557152	0.244294	-0.000164
C14	C	0.484799	0.242670	-0.000172
C15	C	0.462753	0.144963	-0.000184
C16	C	0.513066	0.048873	-0.000170
C17	C	0.585417	0.050499	-0.000154
C18	C	0.358979	0.068157	-0.042636
C19	C	0.286629	0.066535	-0.042656
C20	C	0.239600	0.139943	-0.000228
C21	C	0.264928	0.214991	0.042210
C22	C	0.337278	0.216618	0.042225
C23	C	0.384303	0.143189	-0.000200
C24	C	0.110844	0.234267	-0.000246
C25	C	0.038491	0.232639	-0.000250
C26	C	0.066760	0.038839	-0.000255
C27	C	0.139111	0.040470	-0.000244
C28	C	0.161149	0.138186	-0.000243
C29	C	0.828765	-0.052834	-0.000207
C30	C	0.834523	-0.170855	-0.000212
C31	C	0.717213	-0.366677	-0.000175
C32	C	0.722619	-0.477568	-0.000180
C33	C	0.850742	-0.503529	-0.000219
C34	C	0.845335	-0.392639	-0.000215
C35	C	0.778568	-0.324216	-0.000194
C36	C	0.773162	-0.213323	-0.000195
C37	C	0.901284	-0.239286	-0.000229
C38	C	0.906691	-0.350177	-0.000234
C39	C	0.939447	0.133203	-0.000237
C40	C	1.016450	0.134932	-0.000261
C41	C	0.795140	0.335981	-0.000202
C42	C	0.789382	0.454002	-0.000203
N43	N	0.811930	0.141561	0.188464
N44	N	0.811981	0.141578	-0.188872
C45	C	0.863542	0.069090	0.226552
C46	C	0.863547	0.069085	0.302780
C47	C	0.811945	0.141569	0.340917
C48	C	0.760323	0.214045	0.302819
C49	C	0.760315	0.214041	0.226593
C50	C	0.796994	0.238443	0.461679
C51	C	0.797006	0.238449	0.537904
C52	C	0.811964	0.141583	0.576024
C53	C	0.826924	0.044706	0.537910
C54	C	0.826917	0.044702	0.461683
C55	C	0.811947	0.141582	0.423571
C56	C	0.863584	0.069101	0.696768
C57	C	0.863584	0.069095	0.772997
C58	C	0.760363	0.214064	0.773034
C59	C	0.760360	0.214061	0.696806
C60	C	0.811974	0.141581	0.658678
H61	H	0.048811	-0.040716	-0.000310
H62	H	-0.002466	0.310881	-0.000254
H63	H	0.905568	0.010070	0.195510
H64	H	0.357897	0.277721	0.076782
H65	H	0.266014	0.005431	-0.077214
N66	N	0.580918	0.349685	-0.000146
H67	H	0.634385	0.336141	-0.000133
H68	H	0.562126	0.391720	-0.045040
H69	H	0.718345	0.273078	0.804084
N70	N	0.780864	0.342931	0.579009
H71	H	0.822677	0.349092	0.610611
H72	H	0.771361	0.404229	0.543248
N73	N	0.409699	-0.011028	-0.088399
H74	H	0.395694	-0.001401	-0.141341
H75	H	0.459357	0.001428	-0.081888
H76	H	0.839096	-0.034178	0.430654
N77	N	0.214214	0.294180	0.087971
H78	H	0.164537	0.281763	0.081526
H79	H	0.228283	0.284524	0.140893
H80	H	0.128788	0.313834	-0.000235
H81	H	0.839104	-0.034171	0.568945
H82	H	0.905578	0.010069	0.333798
N83	N	0.701152	-0.139524	-0.000154
H84	H	0.707035	-0.062831	-0.000152
H85	H	0.674117	-0.153225	-0.045033
N86	N	0.430530	0.346298	-0.000194
H87	H	0.399853	0.349948	0.044689
H88	H	0.455521	0.408388	-0.000219
H89	H	0.905100	-0.559257	-0.000227
H90	H	0.495112	-0.030681	-0.000190
H91	H	0.626375	-0.027742	-0.000146
N92	N	0.645210	-0.292859	-0.000156
H93	H	0.618148	-0.306467	-0.045041
H94	H	0.618194	-0.306516	0.044772
N95	N	0.919229	-0.009108	0.655639
H96	H	0.911391	0.001882	0.601570
H97	H	0.967780	0.002953	0.668928
H98	H	0.180070	-0.037768	-0.000240
N99	N	0.919265	-0.009056	0.814082
H100	H	0.951965	-0.054960	0.778358
H101	H	0.947508	0.031560	0.845683
N102	N	0.978700	-0.423977	-0.000249
H103	H	0.972817	-0.500670	-0.000247
H104	H	1.005734	-0.410259	-0.045150
H105	H	0.672657	-0.512135	-0.000161
H106	H	0.718335	0.273078	0.665793
H107	H	0.784801	0.317328	0.430649
N108	N	0.704662	0.292220	0.343946
H109	H	0.712499	0.281229	0.398016
H110	H	0.708124	0.367615	0.330611
N111	N	0.967467	-0.193491	-0.000259
H112	H	0.953913	-0.112859	-0.000257
H113	H	0.996386	-0.218545	0.044623
N114	N	0.704643	0.292205	0.185506
H115	H	0.671950	0.338122	0.221229
H116	H	0.728394	0.339107	0.153862
