data_functionalizedCrystal
_audit_creation_method	'MofGen! by Chris Wilmer'
_symmetry_space_group_name_H-M	'P1'
_symmetry_Int_Tables_number	1
_symmetry_cell_setting	triclinic
loop_
_symmetry_equiv_pos_as_xyz
  x,y,z
_cell_length_a	11.792254
_cell_length_b	16.992695
_cell_length_c	15.455313
_cell_angle_alpha	92.847427
_cell_angle_beta	87.300348
_cell_angle_gamma	87.433410
loop_
_atom_site_label
_atom_site_type_symbol
_atom_site_fract_x
_atom_site_fract_y
_atom_site_fract_z
O1	O	1.520364	0.104150	-0.072131
O2	O	2.020364	0.604150	0.427869
O3	O	1.190930	0.115220	-0.072133
O4	O	1.690930	0.615220	0.427867
O5	O	1.354326	-0.004463	-0.072125
O6	O	1.854326	0.495537	0.427875
O7	O	1.356968	0.223833	-0.072139
O8	O	1.856968	0.723833	0.427861
O9	O	1.344980	0.002352	0.072136
O10	O	1.844980	0.502352	0.572136
O11	O	1.181584	0.122035	0.072129
O12	O	1.681584	0.622035	0.572129
O13	O	1.511017	0.110965	0.072131
O14	O	2.011017	0.610965	0.572131
Cu15	Cu	1.345447	0.117123	0.085302
Cu16	Cu	1.845447	0.617123	0.585302
Cu17	Cu	1.356500	0.109062	-0.085304
Cu18	Cu	1.856500	0.609062	0.414696
O19	O	1.347622	0.230648	0.072123
O20	O	1.847622	0.730648	0.572123
C21	C	1.346255	-0.030283	0.000005
C22	C	1.846255	0.469717	0.500005
C23	C	1.336117	-0.117370	0.000005
C24	C	1.836117	0.382630	0.500005
C25	C	1.143909	0.117930	-0.000002
C26	C	1.643909	0.617930	0.499998
C27	C	1.017726	0.115843	-0.000003
C28	C	1.517726	0.615843	0.499997
C29	C	1.433934	-0.167192	0.000007
C30	C	1.933934	0.332808	0.500007
C31	C	1.424403	-0.249019	-0.000002
C32	C	1.924403	0.250981	0.499998
C33	C	1.317052	-0.281024	-0.000005
C34	C	1.817052	0.218976	0.499995
C35	C	1.219227	-0.231196	-0.000009
C36	C	1.719227	0.268804	0.499991
C37	C	1.228761	-0.149370	-0.000007
C38	C	1.728761	0.350630	0.499993
C39	C	1.277540	-0.524791	-0.000017
C40	C	1.777540	-0.024791	0.499983
C41	C	1.268014	-0.606624	-0.000017
C42	C	1.768014	-0.106624	0.499983
C43	C	1.473190	-0.624441	-0.000011
C44	C	1.973190	-0.124441	0.499989
C45	C	1.482714	-0.542613	-0.000003
C46	C	1.982714	-0.042613	0.499997
C47	C	1.384890	-0.492793	-0.000012
C48	C	1.884890	0.007207	0.499988
N49	N	1.307306	-0.364665	-0.000011
N50	N	1.807306	0.135335	0.499989
N51	N	1.394637	-0.409154	-0.000013
N52	N	1.894637	0.090846	0.499987
C53	C	0.915251	0.114147	-0.000007
C54	C	1.415251	0.614147	0.499993
C55	C	0.786691	0.112026	-0.000007
C56	C	1.286691	0.612026	0.499993
C57	C	1.558038	0.108255	-0.000002
C58	C	2.058038	0.608255	0.499998
C59	C	1.684223	0.110342	-0.000007
C60	C	2.184223	0.610342	0.499993
C61	C	1.355693	0.256468	-0.000010
C62	C	1.855693	0.756468	0.499990
C63	C	1.365831	0.343555	-0.000015
C64	C	1.865831	0.843555	0.499985
N65	N	1.337681	0.122791	0.205297
N66	N	1.837681	0.622791	0.705297
N67	N	1.364275	0.103387	-0.205300
N68	N	1.864275	0.603387	0.294700
C69	C	1.407125	0.071965	0.250694
C70	C	1.907125	0.571965	0.750694
C71	C	1.401263	0.076259	0.341502
C72	C	1.901263	0.576259	0.841502
C73	C	1.325963	0.131384	0.386910
C74	C	1.825963	0.631384	0.886910
C75	C	1.256511	0.182213	0.341507
C76	C	1.756511	0.682213	0.841507
C77	C	1.262368	0.177914	0.250701
C78	C	1.762368	0.677914	0.750701
C79	C	1.300680	0.149918	0.658491
C80	C	1.800680	0.649918	1.158491
C81	C	1.294831	0.154214	0.749303
C82	C	1.794831	0.654214	1.249303
C83	C	1.439582	0.048259	0.749292
C84	C	1.939582	0.548259	1.249292
C85	C	1.445437	0.043968	0.658484
C86	C	1.945437	0.543968	1.158484
C87	C	1.375982	0.094794	0.613089
C88	C	1.875982	0.594794	1.113089
N89	N	1.319972	0.135777	0.479730
N90	N	1.819972	0.635777	0.979730
N91	N	1.381968	0.090397	0.520270
N92	N	1.881968	0.590397	1.020270
H93	H	1.521351	-0.141140	0.000015
H94	H	2.021351	0.358860	0.500015
H95	H	1.457809	0.034872	0.378464
H96	H	1.957809	0.534872	0.878464
H97	H	1.197884	-0.484237	-0.000024
H98	H	1.697884	0.015763	0.499976
Br99	Br	1.154306	0.257022	0.403129
Br100	Br	1.654306	0.757022	0.903129
Br101	Br	1.073536	-0.274630	-0.000029
Br102	Br	1.573536	0.225370	0.499971
Br103	Br	1.547636	-0.030842	0.596857
Br104	Br	2.047636	0.469158	1.096857
H105	H	1.570130	-0.516561	-0.000000
H106	H	2.070130	-0.016561	0.500000
Br107	Br	1.557161	-0.316632	0.000000
Br108	Br	2.057161	0.183368	0.500000
H109	H	1.552833	-0.665014	-0.000005
H110	H	2.052833	-0.165014	0.499995
H111	H	1.180591	-0.632677	-0.000006
H112	H	1.680591	-0.132677	0.499994
Br113	Br	1.168111	0.246892	0.189090
Br114	Br	1.668111	0.746892	0.689090
Br115	Br	1.096003	-0.081754	-0.000016
Br116	Br	1.596003	0.418246	0.499984
Br117	Br	1.509333	-0.002846	0.189078
Br118	Br	2.009333	0.497154	0.689078
H119	H	1.496128	0.006878	0.786262
H120	H	1.996128	0.506878	1.286262
Br121	Br	1.192633	0.229037	0.810923
Br122	Br	1.692633	0.729037	1.310923
Br123	Br	1.206425	0.218895	0.596887
Br124	Br	1.706425	0.718895	1.096887
