data_functionalizedCrystal
_audit_creation_method	'MofGen! by Chris Wilmer'
_symmetry_space_group_name_H-M	'P1'
_symmetry_Int_Tables_number	1
_symmetry_cell_setting	triclinic
loop_
_symmetry_equiv_pos_as_xyz
  x,y,z
_cell_length_a	14.044220
_cell_length_b	14.519731
_cell_length_c	12.996460
_cell_angle_alpha	90.001112
_cell_angle_beta	90.007391
_cell_angle_gamma	88.438865
loop_
_atom_site_label
_atom_site_type_symbol
_atom_site_fract_x
_atom_site_fract_y
_atom_site_fract_z
O1	O	0.124370	1.233882	0.085572
O2	O	0.624370	1.733882	0.585572
O3	O	0.138984	0.966587	0.085574
O4	O	0.638984	1.466587	0.585574
O5	O	-0.006314	1.096222	0.085563
O6	O	0.493686	1.596222	0.585563
O7	O	0.269669	1.104246	0.085583
O8	O	0.769669	1.604246	0.585583
O9	O	-0.006324	1.096219	-0.085571
O10	O	0.493676	1.596219	0.414429
O11	O	0.138975	0.966583	-0.085560
O12	O	0.638975	1.466583	0.414440
O13	O	0.124361	1.233879	-0.085562
O14	O	0.624361	1.733879	0.414438
Cu15	Cu	0.131667	1.100231	-0.101187
Cu16	Cu	0.631667	1.600231	0.398813
Cu17	Cu	0.131678	1.100235	0.101199
Cu18	Cu	0.631678	1.600235	0.601199
O19	O	0.269659	1.104243	-0.085551
O20	O	0.769659	1.604243	0.414449
C21	C	0.138295	0.932170	0.000007
C22	C	0.638295	1.432170	0.500007
C23	C	0.136243	0.829625	0.000008
C24	C	0.636243	1.329625	0.500008
C25	C	0.134575	0.746346	0.000012
C26	C	0.634575	1.246346	0.500012
C27	C	0.132492	0.641869	0.000012
C28	C	0.632492	1.141869	0.500012
C29	C	0.130839	0.558597	0.000012
C30	C	0.630839	1.058597	0.500012
C31	C	0.128756	0.454113	0.000014
C32	C	0.628756	0.954113	0.500014
C33	C	-0.041640	1.092708	-0.000004
C34	C	0.458360	1.592708	0.499996
C35	C	-0.146884	1.082231	-0.000006
C36	C	0.353116	1.582231	0.499994
C37	C	-0.339580	1.063077	0.000009
C38	C	0.160420	1.563077	0.500009
C39	C	-0.397081	1.137385	0.000012
C40	C	0.102919	1.637385	0.500012
C41	C	-0.504303	1.126727	0.000020
C42	C	-0.004303	1.626727	0.500020
C43	C	-0.232347	1.073733	0.000001
C44	C	0.267653	1.573733	0.500001
C45	C	0.304985	1.107757	0.000019
C46	C	0.804985	1.607757	0.500019
C47	C	0.410229	1.118234	0.000027
C48	C	0.910229	1.618234	0.500027
C49	C	0.125050	1.268295	0.000007
C50	C	0.625050	1.768295	0.500007
C51	C	0.127102	1.370841	0.000014
C52	C	0.627102	1.870841	0.500014
N53	N	0.131679	1.100237	0.243546
N54	N	0.631679	1.600237	0.743546
N55	N	0.131658	1.100235	-0.243534
N56	N	0.631658	1.600235	0.256466
C57	C	0.131670	1.100232	0.663360
C58	C	0.631670	1.600232	1.163360
C59	C	0.131675	1.100231	0.546555
C60	C	0.631675	1.600231	1.046555
C61	C	0.131674	1.100234	0.453457
C62	C	0.631674	1.600234	0.953457
C63	C	0.131680	1.100234	0.336644
C64	C	0.631680	1.600234	0.836644
H65	H	-0.365783	1.209006	0.000080
H66	H	0.134217	1.709006	0.500080
H67	H	-0.370876	0.991461	0.000012
H68	H	0.129124	1.491461	0.500012
