data_functionalizedCrystal
_audit_creation_method	'MofGen! by Chris Wilmer'
_symmetry_space_group_name_H-M	'P1'
_symmetry_Int_Tables_number	1
_symmetry_cell_setting	triclinic
loop_
_symmetry_equiv_pos_as_xyz
  x,y,z
_cell_length_a	15.995350
_cell_length_b	16.109301
_cell_length_c	15.072220
_cell_angle_alpha	89.990519
_cell_angle_beta	89.998756
_cell_angle_gamma	83.476928
loop_
_atom_site_label
_atom_site_type_symbol
_atom_site_fract_x
_atom_site_fract_y
_atom_site_fract_z
O1	O	1.110956	0.107170	-0.073710
O2	O	1.610956	0.607170	0.426290
O3	O	0.867177	0.120404	-0.073729
O4	O	1.367177	0.620404	0.426271
O5	O	0.995764	-0.007242	-0.073710
O6	O	1.495764	0.492758	0.426290
O7	O	0.982370	0.234816	-0.073729
O8	O	1.482370	0.734816	0.426271
O9	O	0.995753	-0.007254	0.073855
O10	O	1.495753	0.492746	0.573855
O11	O	0.867166	0.120392	0.073836
O12	O	1.367166	0.620392	0.573836
O13	O	1.110945	0.107159	0.073855
O14	O	1.610945	0.607159	0.573855
Zn15	Zn	0.989054	0.113773	0.097275
Zn16	Zn	1.489054	0.613773	0.597275
Zn17	Zn	0.989069	0.113789	-0.097149
Zn18	Zn	1.489069	0.613789	0.402851
O19	O	0.982359	0.234805	0.073836
O20	O	1.482359	0.734805	0.573836
C21	C	0.835977	0.119851	0.000051
C22	C	1.335977	0.619851	0.500051
C23	C	0.743027	0.118211	0.000045
C24	C	1.243027	0.618211	0.500045
C25	C	0.995216	-0.038223	0.000073
C26	C	1.495216	0.461777	0.500073
C27	C	0.993589	-0.130519	0.000074
C28	C	1.493589	0.369481	0.500074
C29	C	1.066107	-0.352771	0.000066
C30	C	1.566107	0.147229	0.500066
C31	C	1.064573	-0.439492	0.000058
C32	C	1.564573	0.060508	0.500058
C33	C	0.912009	-0.419659	0.000050
C34	C	1.412009	0.080341	0.500050
C35	C	0.913545	-0.332940	0.000051
C36	C	1.413545	0.167060	0.500051
C37	C	0.990597	-0.299499	0.000063
C38	C	1.490597	0.200501	0.500063
C39	C	0.987526	-0.472939	0.000055
C40	C	1.487526	0.027061	0.500055
C41	C	0.985861	-0.566965	0.000047
C42	C	1.485861	-0.066965	0.500047
C43	C	0.992262	-0.205466	0.000070
C44	C	1.492262	0.294534	0.500070
C45	C	0.405281	0.112320	0.000064
C46	C	0.905281	0.612320	0.500064
C47	C	0.452740	0.021413	0.000400
C48	C	0.952740	0.521413	0.500400
C49	C	0.549430	0.023054	0.000061
C50	C	1.049430	0.523054	0.500061
C51	C	0.572841	0.115242	0.000055
C52	C	1.072841	0.615242	0.500055
C53	C	0.531748	0.160087	-0.084212
C54	C	1.031748	0.660087	0.415788
C55	C	0.435113	0.157804	-0.084276
C56	C	0.935113	0.657804	0.415724
C57	C	0.434761	0.159669	0.083533
C58	C	0.934761	0.659669	0.583533
C59	C	0.531706	0.159647	0.084640
C60	C	1.031706	0.659647	0.584640
C61	C	0.667538	0.116898	0.000047
C62	C	1.167538	0.616898	0.500047
C63	C	0.310584	0.110667	0.000066
C64	C	0.810584	0.610667	0.500066
C65	C	1.142145	0.107712	0.000073
C66	C	1.642145	0.607712	0.500073
C67	C	1.235095	0.109352	0.000074
C68	C	1.735095	0.609352	0.500074
C69	C	0.982907	0.265786	0.000051
C70	C	1.482907	0.765786	0.500051
C71	C	0.984534	0.358081	0.000044
C72	C	1.484534	0.858081	0.500044
N73	N	0.989050	0.113762	0.229964
N74	N	1.489050	0.613762	0.729964
N75	N	0.989079	0.113794	-0.229837
N76	N	1.489079	0.613794	0.270163
C77	C	0.989060	0.113773	0.410961
C78	C	1.489060	0.613773	0.910961
C79	C	1.057880	0.045496	0.448612
C80	C	1.557880	0.545496	0.948612
C81	C	1.058129	0.045678	0.551438
C82	C	1.558129	0.545678	1.051438
C83	C	0.989069	0.113783	0.589165
C84	C	1.489069	0.613783	1.089165
C85	C	1.007766	0.200639	0.551814
C86	C	1.507766	0.700639	1.051814
C87	C	1.008254	0.200233	0.448957
C88	C	1.508254	0.700233	0.948957
C89	C	0.901337	0.095976	0.448875
C90	C	1.401337	0.595976	0.948875
C91	C	0.901931	0.094011	0.551740
C92	C	1.401931	0.594011	1.051740
C93	C	0.989073	0.113794	0.689878
C94	C	1.489073	0.613794	1.189878
C95	C	0.989058	0.113768	0.310248
C96	C	1.489058	0.613768	0.810248
H97	H	1.126061	-0.482864	0.000058
H98	H	1.626061	0.017136	0.500058
H99	H	0.852051	-0.289563	0.000047
H100	H	1.352051	0.210437	0.500047
N101	N	1.144364	0.060805	0.584037
N102	N	1.644364	0.560805	1.084037
H103	H	1.144885	0.060985	0.651044
H104	H	1.644885	0.560985	1.151044
H105	H	1.187471	0.014999	0.561476
H106	H	1.687471	0.514999	1.061476
H107	H	0.887736	0.030114	0.576153
H108	H	1.387736	0.530114	1.076153
N109	N	0.567891	0.116288	0.167221
N110	N	1.067891	0.616288	0.667221
H111	H	0.556025	0.056034	0.166693
H112	H	1.056025	0.556034	0.666693
H113	H	0.630689	0.118715	0.168839
H114	H	1.130689	0.618715	0.668839
N115	N	1.043470	-0.039832	0.584897
N116	N	1.543470	0.460168	1.084897
H117	H	1.043609	-0.039877	0.651907
H118	H	1.543609	0.460123	1.151907
H119	H	0.987320	-0.054218	0.562659
H120	H	1.487320	0.445782	1.062659
H121	H	0.577864	-0.012196	0.060468
H122	H	1.077864	0.487804	0.560468
H123	H	0.849277	-0.446898	0.000042
H124	H	1.349277	0.053102	0.500042
N125	N	1.043446	-0.040307	0.415891
N126	N	1.543446	0.459693	0.915891
H127	H	0.992159	-0.035755	0.376337
H128	H	1.492159	0.464245	0.876337
H129	H	1.094245	-0.065211	0.381235
H130	H	1.594245	0.434789	0.881235
H131	H	0.414229	0.129944	0.147405
H132	H	0.914229	0.629944	0.647405
N133	N	0.552027	0.248698	0.091377
N134	N	1.052027	0.748698	0.591377
H135	H	0.498118	0.287977	0.090629
H136	H	0.998118	0.787977	0.590629
H137	H	0.583253	0.256129	0.148551
H138	H	1.083253	0.756129	0.648551
N139	N	0.428220	-0.026729	0.080451
N140	N	0.928220	0.473271	0.580451
H141	H	0.386106	0.009918	0.117276
H142	H	0.886106	0.509918	0.617276
H143	H	0.402296	-0.077843	0.060282
H144	H	0.902296	0.422157	0.560282
H145	H	0.433161	-0.014752	-0.059693
H146	H	0.933161	0.485248	0.440307
N147	N	0.410880	0.114489	-0.167703
N148	N	0.910880	0.614489	0.332297
H149	H	0.382964	0.063425	-0.151364
H150	H	0.882964	0.563425	0.348636
H151	H	0.370525	0.154019	-0.203514
H152	H	0.870525	0.654019	0.296486
N153	N	1.143628	0.060336	0.414312
N154	N	1.643628	0.560336	0.914312
H155	H	1.138089	0.111100	0.374498
H156	H	1.638089	0.611100	0.874498
H157	H	1.181613	0.069870	0.465961
H158	H	1.681613	0.569870	0.965961
N159	N	0.392364	0.246209	-0.089313
N160	N	0.892364	0.746209	0.410687
H161	H	0.436319	0.286488	-0.091490
H162	H	0.936319	0.786488	0.408510
H163	H	0.356462	0.252893	-0.144534
H164	H	0.856462	0.752893	0.355466
N165	N	0.586360	-0.023943	-0.080081
N166	N	1.086360	0.476057	0.419919
H167	H	0.539819	-0.045802	-0.115330
H168	H	1.039819	0.454198	0.384670
H169	H	0.616200	0.014856	-0.118419
H170	H	1.116200	0.514856	0.381581
H171	H	0.402981	0.226694	0.084098
H172	H	0.902981	0.726694	0.584098
N173	N	1.149210	-0.316704	0.000072
N174	N	1.649210	0.183296	0.500072
H175	H	1.138728	-0.253683	0.000077
H176	H	1.638728	0.246317	0.500077
H177	H	1.182246	-0.336205	0.054778
H178	H	1.682246	0.163795	0.554778
H179	H	1.072218	0.215865	0.424963
H180	H	1.572218	0.715865	0.924963
N181	N	0.550439	0.249799	-0.088386
N182	N	1.050439	0.749799	0.411614
H183	H	0.585809	0.262263	-0.035565
H184	H	1.085809	0.762263	0.464435
H185	H	0.582089	0.259017	-0.144865
H186	H	1.082089	0.759017	0.355135
N187	N	0.944363	0.269577	0.415952
N188	N	1.444363	0.769577	0.915952
H189	H	0.916008	0.300276	0.468223
H190	H	1.416008	0.800276	0.968223
H191	H	0.973612	0.309749	0.378793
H192	H	1.473612	0.809749	0.878793
H193	H	0.958958	0.252687	0.576250
H194	H	1.458958	0.752687	1.076250
H195	H	0.560136	0.128950	-0.146921
H196	H	1.060136	0.628950	0.353079
H197	H	1.070998	0.216647	0.577572
H198	H	1.570998	0.716647	1.077572
N199	N	0.877407	0.013849	0.414535
N200	N	1.377407	0.513849	0.914535
H201	H	0.923194	-0.012654	0.374046
H202	H	1.423194	0.487346	0.874046
H203	H	0.870164	-0.024694	0.466136
H204	H	1.370164	0.475306	0.966136
N205	N	0.830947	0.155573	0.585759
N206	N	1.330947	0.655573	1.085759
H207	H	0.854373	0.197341	0.626090
H208	H	1.354373	0.697341	1.126090
H209	H	0.801172	0.185828	0.534004
H210	H	1.301172	0.685828	1.034004
H211	H	0.850128	0.145764	0.424524
H212	H	1.350128	0.645764	0.924524
