data_functionalizedCrystal
_audit_creation_method	'MofGen! by Chris Wilmer'
_symmetry_space_group_name_H-M	'P1'
_symmetry_Int_Tables_number	1
_symmetry_cell_setting	triclinic
loop_
_symmetry_equiv_pos_as_xyz
  x,y,z
_cell_length_a	12.759395
_cell_length_b	16.120484
_cell_length_c	12.759387
_cell_angle_alpha	87.136424
_cell_angle_beta	90.020509
_cell_angle_gamma	92.926975
loop_
_atom_site_label
_atom_site_type_symbol
_atom_site_fract_x
_atom_site_fract_y
_atom_site_fract_z
Zn1	Zn	1.584987	-0.331828	0.615167
Zn2	Zn	1.575935	-0.471265	0.448379
Zn3	Zn	1.409282	-0.331874	0.439506
Zn4	Zn	1.400339	-0.471205	0.624015
O5	O	1.492636	-0.401543	0.531767
O6	O	1.730807	-0.350331	0.593052
O7	O	1.553783	-0.452818	0.300184
O8	O	1.440121	-0.215202	0.455392
O9	O	1.724157	-0.452774	0.470514
O10	O	1.569211	-0.215169	0.584449
O11	O	1.431344	-0.350408	0.293665
O12	O	1.261075	-0.350350	0.463971
O13	O	1.424878	-0.452673	0.769859
O14	O	1.254504	-0.452717	0.599529
O15	O	1.560539	-0.350273	0.763359
O16	O	1.545111	-0.587922	0.479094
O17	O	1.416101	-0.587879	0.608132
C18	C	1.219669	-0.401533	0.531748
C19	C	1.102891	-0.401549	0.531766
C20	C	1.478681	-0.618150	0.545559
C21	C	1.472808	-0.710816	0.551495
C22	C	1.096077	-0.508315	0.672716
C23	C	1.037808	-0.561705	0.743194
C24	C	0.928086	-0.561715	0.743207
C25	C	0.876630	-0.508328	0.672737
C26	C	0.934899	-0.454938	0.602259
C27	C	1.044623	-0.454935	0.602251
C28	C	0.941713	-0.348169	0.461316
C29	C	1.051436	-0.348161	0.461296
C30	C	0.890258	-0.294781	0.390846
C31	C	0.948526	-0.241394	0.320361
C32	C	1.058255	-0.241387	0.320350
C33	C	1.109704	-0.294771	0.390818
C34	C	1.462090	-0.880477	0.562353
C35	C	1.523370	-0.921768	0.501198
C36	C	1.517406	-1.016173	0.507239
C37	C	1.468052	-0.786063	0.556313
C38	C	1.766669	-0.401554	0.531786
C39	C	1.883445	-0.401558	0.531794
C40	C	1.492720	-0.401461	0.805795
C41	C	1.492756	-0.401426	0.922570
C42	C	1.506673	-0.184090	0.517944
C43	C	1.512655	-0.091424	0.512053
C44	C	1.492616	-0.401564	0.258801
C45	C	1.492798	-0.401364	0.142012
C46	C	1.634028	-0.294805	0.915821
C47	C	1.704680	-0.241481	0.967306
C48	C	1.704707	-0.241451	1.077026
C49	C	1.634074	-0.294748	1.135263
C50	C	1.563422	-0.348071	1.083777
C51	C	1.563404	-0.348098	0.974055
C52	C	1.422147	-0.454688	1.090526
C53	C	1.422123	-0.454723	0.980807
C54	C	1.351514	-0.507985	1.148763
C55	C	1.280866	-0.561313	1.097278
C56	C	1.280842	-0.561342	0.987551
C57	C	1.351472	-0.508047	0.929321
H58	H	1.185418	-0.508318	0.672704
H59	H	1.199045	-0.294773	0.390812
C60	C	0.756858	-0.609128	0.805803
C61	C	0.864029	-0.620399	0.820678
H62	H	0.717315	-0.645353	0.853635
H63	H	0.738074	-0.621261	0.735967
H64	H	0.742503	-0.553125	0.817736
H65	H	0.878386	-0.676400	0.808737
H66	H	0.882821	-0.608271	0.890530
H67	H	1.105691	-0.197905	0.262965
C68	C	1.767395	-0.194194	0.796114
C69	C	1.782327	-0.182906	0.903291
H70	H	1.815336	-0.158036	0.756599
H71	H	1.697602	-0.181981	0.777347
H72	H	1.779137	-0.250221	0.781708
H73	H	1.770576	-0.126880	0.917699
H74	H	1.852136	-0.195113	0.922065
C75	C	1.702981	-0.894655	0.448456
C76	C	1.600234	-0.873781	0.424386
H77	H	1.750427	-0.865022	0.401038
H78	H	1.709003	-0.952714	0.442486
H79	H	1.719197	-0.880371	0.518164
H80	H	1.584015	-0.888071	0.354680
H81	H	1.594208	-0.815709	0.430346
H82	H	1.351537	-0.507953	1.238102
C83	C	1.711022	-0.236649	1.288760
C84	C	1.634098	-0.294710	1.255869
H85	H	1.711037	-0.236631	1.363218
H86	H	1.696321	-0.182863	1.260519
H87	H	1.777879	-0.251086	1.264864
H88	H	1.567239	-0.280269	1.279758
H89	H	1.648792	-0.348508	1.284122
H90	H	1.223356	-0.604699	1.144702
H91	H	1.079716	-0.605170	0.800571
C92	C	1.141211	-0.666741	1.005254
C93	C	1.203190	-0.619968	0.930963
H94	H	1.093279	-0.702941	0.970320
H95	H	1.103375	-0.630401	1.045724
H96	H	1.184948	-0.698614	1.050092
H97	H	1.159453	-0.588091	0.886130
H98	H	1.241028	-0.656313	0.890475
H99	H	1.351463	-0.508069	0.839981
C100	C	1.765027	-0.100277	1.101860
C101	C	1.782367	-0.182837	1.133624
H102	H	1.812976	-0.064093	1.136797
H103	H	1.695238	-0.088070	1.119060
H104	H	1.775125	-0.092673	1.028180
H105	H	1.772262	-0.190442	1.207303
H106	H	1.852173	-0.195048	1.116431
H107	H	1.405153	-0.916025	0.619241
C108	C	1.535427	-0.273582	0.757280
C109	C	1.634002	-0.294837	0.795215
H110	H	1.535413	-0.273605	0.682823
H111	H	1.520759	-0.219778	0.778680
H112	H	1.483259	-0.312958	0.784598
H113	H	1.686170	-0.255458	0.767903
H114	H	1.648683	-0.348649	0.773805
C115	C	0.966277	-0.135852	0.181040
C116	C	0.891967	-0.182714	0.242909
H117	H	0.931355	-0.099622	0.133228
H118	H	1.006709	-0.172134	0.143076
H119	H	1.011153	-0.104008	0.224858
H120	H	0.847096	-0.214563	0.199091
H121	H	0.851517	-0.146428	0.280876
H122	H	0.787289	-0.508334	0.672763
H123	H	0.800916	-0.294790	0.390866
