data_functionalizedCrystal
_audit_creation_method	'MofGen! by Chris Wilmer'
_symmetry_space_group_name_H-M	'P1'
_symmetry_Int_Tables_number	1
_symmetry_cell_setting	triclinic
loop_
_symmetry_equiv_pos_as_xyz
  x,y,z
_cell_length_a	10.686220
_cell_length_b	12.594516
_cell_length_c	10.686551
_cell_angle_alpha	94.405296
_cell_angle_beta	89.691918
_cell_angle_gamma	94.393406
loop_
_atom_site_label
_atom_site_type_symbol
_atom_site_fract_x
_atom_site_fract_y
_atom_site_fract_z
Zn1	Zn	1.972305	-0.259490	0.562388
Zn2	Zn	1.956088	-0.452139	0.352631
Zn3	Zn	1.746425	-0.286718	0.368706
Zn4	Zn	1.762518	-0.449982	0.578409
O5	O	1.859334	-0.362082	0.465533
O6	O	2.145695	-0.274553	0.521131
O7	O	1.914754	-0.442493	0.179218
O8	O	1.776440	-0.134155	0.394421
O9	O	2.133780	-0.416091	0.367024
O10	O	1.942393	-0.114151	0.536718
O11	O	1.760715	-0.320959	0.191028
O12	O	1.573019	-0.318867	0.409955
O13	O	1.803868	-0.412415	0.751829
O14	O	1.584842	-0.438817	0.564023
O15	O	1.957998	-0.272462	0.740059
O16	O	1.930359	-0.600803	0.382558
O17	O	1.788144	-0.599219	0.548436
C18	C	1.533414	-0.381563	0.490473
C19	C	1.393987	-0.389921	0.501172
C20	C	1.859274	-0.638628	0.465516
C21	C	1.859367	-0.756926	0.465542
C22	C	1.936821	-0.826990	0.375403
C23	C	1.976266	-0.887866	0.487555
C24	C	1.820084	-0.906834	0.353451
C25	C	1.898875	-0.816236	0.577749
C26	C	1.742633	-0.835207	0.443572
C27	C	1.782041	-0.896048	0.555806
C28	C	2.186526	-0.342526	0.440497
C29	C	2.325956	-0.334192	0.429829
C30	C	1.884537	-0.339161	0.792733
C31	C	1.895277	-0.329393	0.932167
C32	C	1.859430	-0.084452	0.465576
C33	C	1.859471	0.033857	0.465594
C34	C	1.834301	-0.384833	0.139601
C35	C	1.823804	-0.394287	0.000150
H36	H	1.345559	-0.444037	0.570434
H37	H	1.932052	-0.776900	0.672655
H38	H	1.754399	-0.457321	0.951682
C39	C	2.109542	-0.973451	0.622481
C40	C	2.109597	-0.919475	0.512710
H41	H	2.191861	-0.992946	0.638012
H42	H	2.053640	-1.035885	0.612733
H43	H	2.083107	-0.928116	0.691147
H44	H	2.136024	-0.964813	0.444042
H45	H	2.165519	-0.857031	0.522450
H46	H	1.374378	-0.280087	0.360563
H47	H	1.964695	-0.266362	0.980640
C48	C	2.147522	-0.812218	0.295936
C49	C	2.025260	-0.785990	0.272585
H50	H	2.202120	-0.786898	0.232468
H51	H	2.148730	-0.887561	0.295731
H52	H	2.174638	-0.779965	0.375438
H53	H	1.998140	-0.818249	0.193087
H54	H	2.024047	-0.710632	0.272777
H55	H	1.716591	-0.926198	0.632138
C56	C	1.568326	-0.849564	0.300874
C57	C	1.609343	-0.803533	0.418397
H58	H	1.486040	-0.830002	0.285321
H59	H	1.567520	-0.925085	0.299948
H60	H	1.623593	-0.824807	0.237649
H61	H	1.554081	-0.828296	0.481623
H62	H	1.610140	-0.727996	0.419333
H63	H	1.786817	-0.946302	0.258635
