data_functionalizedCrystal
_audit_creation_method	'MofGen! by Chris Wilmer'
_symmetry_space_group_name_H-M	'P1'
_symmetry_Int_Tables_number	1
_symmetry_cell_setting	triclinic
loop_
_symmetry_equiv_pos_as_xyz
  x,y,z
_cell_length_a	6.817900
_cell_length_b	16.305681
_cell_length_c	10.943624
_cell_angle_alpha	93.792097
_cell_angle_beta	108.838799
_cell_angle_gamma	103.457389
loop_
_atom_site_label
_atom_site_type_symbol
_atom_site_fract_x
_atom_site_fract_y
_atom_site_fract_z
V1	V	-4.088121	-0.116694	-0.402993
O2	O	-4.074525	0.005630	-0.394867
O3	O	-4.039163	-0.231407	-0.400674
O4	O	-4.066507	-0.114889	-0.578552
O5	O	-4.046991	-0.111694	-0.215757
V6	V	-4.568351	-0.102064	-0.380545
O7	O	-4.356604	-0.148787	-0.452234
O8	O	-4.750065	-0.069971	-0.331303
O9	O	-4.394103	0.012649	-0.382864
O10	O	-4.699344	-0.224388	-0.388671
O11	O	-4.726878	-0.107064	-0.567781
O12	O	-4.366758	-0.103869	-0.204985
C13	C	-3.883161	-0.259372	-0.394429
C14	C	-3.924597	-0.353150	-0.393704
C15	C	-4.000539	-0.524855	-0.392409
C16	C	-3.795079	-0.555385	-0.384329
C17	C	-3.838355	-0.652979	-0.384080
C18	C	-4.075307	-0.693909	-0.391133
C19	C	-4.231093	-0.673663	-0.518968
C20	C	-4.186546	-0.576063	-0.519759
C21	C	-4.068177	-0.550928	-0.273110
C22	C	-4.106396	-0.648249	-0.270600
C23	C	-4.117576	-0.789452	-0.390417
C24	C	-3.958281	-0.429313	-0.393135
C25	C	-3.918040	-0.110741	-0.621329
C26	C	-3.981648	-0.110024	-0.764853
C27	C	-3.827611	-0.105197	-0.841983
C28	C	-4.000163	-0.176838	-0.948244
C29	C	-3.922458	-0.037114	-0.914328
C30	C	-4.153396	-0.181732	-0.869238
C31	C	-4.075626	-0.041944	-0.835299
C32	C	-4.248311	-0.113606	-0.941530
C33	C	-4.213446	0.040609	-0.389105
C34	C	-4.151250	0.134387	-0.389839
C35	C	-4.178566	-0.108020	-0.162201
C36	C	-4.094197	-0.108733	-0.018676
H37	H	-3.653698	-0.520858	-0.292757
H38	H	-3.825443	0.023991	-0.934859
H39	H	-4.406222	-0.701093	-0.528786
H40	H	-3.718611	-0.665877	-0.292207
N41	N	-3.591322	-0.100620	-0.784403
H42	H	-3.549394	-0.100607	-0.687048
H43	H	-3.503843	-0.046545	-0.801783
N44	N	-4.130971	-0.556013	-0.639272
H45	H	-4.135581	-0.610533	-0.690946
H46	H	-3.981764	-0.515837	-0.611378
H47	H	-3.741907	-0.537868	-0.470032
H48	H	-4.250426	-0.242919	-0.848925
H49	H	-4.341049	-0.556775	-0.530925
H50	H	-4.211589	-0.705728	-0.608486
H51	H	-4.426787	-0.117178	-0.984788
H52	H	-3.939785	-0.515113	-0.177018
H53	H	-3.968924	-0.233867	-0.997408
H54	H	-4.106781	0.015087	-0.786099
N55	N	-3.953480	-0.664064	-0.145404
H56	H	-3.864435	-0.700655	-0.166661
H57	H	-4.038401	-0.694330	-0.093377
N58	N	-4.329429	-0.684460	-0.267519
H59	H	-4.353323	-0.747332	-0.261468
H60	H	-4.439632	-0.676340	-0.349937
N61	N	-3.795931	-0.693256	-0.497916
H62	H	-3.749026	-0.647610	-0.548459
H63	H	-3.931778	-0.736322	-0.557081
N64	N	-4.269761	-0.525234	-0.279369
H65	H	-4.317108	-0.496840	-0.359050
H66	H	-4.239424	-0.484090	-0.198190
