data_functionalizedCrystal
_audit_creation_method	'MofGen! by Chris Wilmer'
_symmetry_space_group_name_H-M	'P1'
_symmetry_Int_Tables_number	1
_symmetry_cell_setting	triclinic
loop_
_symmetry_equiv_pos_as_xyz
  x,y,z
_cell_length_a	17.077404
_cell_length_b	11.169409
_cell_length_c	17.077402
_cell_angle_alpha	89.962066
_cell_angle_beta	90.023108
_cell_angle_gamma	89.976185
loop_
_atom_site_label
_atom_site_type_symbol
_atom_site_fract_x
_atom_site_fract_y
_atom_site_fract_z
Zn1	Zn	1.200088	-0.678600	-0.312440
Zn2	Zn	1.199985	-0.477897	-0.443734
Zn3	Zn	1.068810	-0.477923	-0.312487
Zn4	Zn	1.068788	-0.678530	-0.443669
O5	O	1.134418	-0.578237	-0.378082
O6	O	1.309921	-0.651994	-0.329865
O7	O	1.182551	-0.309950	-0.426370
O8	O	1.086277	-0.504583	-0.202633
O9	O	1.309846	-0.504539	-0.426325
O10	O	1.182726	-0.652019	-0.202599
O11	O	1.086177	-0.309969	-0.329943
O12	O	0.958960	-0.504515	-0.329880
O13	O	1.086239	-0.846489	-0.426214
O14	O	0.958944	-0.651901	-0.426259
O15	O	1.182705	-0.846540	-0.329801
O16	O	1.182529	-0.504471	-0.553572
O17	O	1.086139	-0.651876	-0.553524
C18	C	0.930470	-0.578204	-0.378068
C19	C	0.843220	-0.578218	-0.378081
C20	C	0.802242	-0.654839	-0.428341
C21	C	0.720262	-0.654858	-0.428343
C22	C	0.679261	-0.578250	-0.378088
C23	C	0.720245	-0.501626	-0.327822
C24	C	0.802224	-0.501614	-0.327817
C25	C	0.549375	-0.501655	-0.327837
C26	C	0.467390	-0.501665	-0.327843
C27	C	0.467413	-0.654899	-0.428363
C28	C	0.549392	-0.654887	-0.428358
C29	C	0.590370	-0.578261	-0.378093
C30	C	1.134481	-0.891280	-0.377995
C31	C	1.134508	-1.024680	-0.377958
C32	C	1.339162	-0.578271	-0.378097
C33	C	1.426412	-0.578286	-0.378103
C34	C	1.134342	-0.578189	-0.582030
C35	C	1.134381	-0.578209	-0.669280
C36	C	1.134400	-0.266413	-0.378112
C37	C	1.134526	-0.133013	-0.377928
C38	C	1.184623	-0.501538	-0.710269
C39	C	1.184661	-0.501569	-0.792249
C40	C	1.134454	-0.578265	-0.833239
C41	C	1.084210	-0.654945	-0.792245
C42	C	1.084176	-0.654919	-0.710266
C43	C	1.084283	-0.654990	-0.963115
C44	C	1.084315	-0.655015	-1.045099
C45	C	1.184768	-0.501640	-1.045098
C46	C	1.184734	-0.501614	-0.963119
C47	C	1.134489	-0.578292	-0.922130
C48	C	1.134515	-0.578312	-0.173338
C49	C	1.134557	-0.578343	-0.086088
H50	H	0.686855	-0.439255	-0.286900
H51	H	1.043333	-0.717398	-0.825625
C52	C	0.847336	-0.739111	-0.483622
H53	H	0.811186	-0.784754	-0.513549
H54	H	0.879290	-0.693107	-0.517789
H55	H	0.879342	-0.791486	-0.453624
H56	H	0.582772	-0.717262	-0.469285
C57	C	0.422340	-0.739193	-0.483649
H58	H	0.367645	-0.728242	-0.476449
H59	H	0.435749	-0.721481	-0.536377
H60	H	0.435810	-0.819865	-0.472216
C61	C	1.239846	-0.417164	-0.665184
H62	H	1.232625	-0.428118	-0.610489
H63	H	1.292589	-0.434800	-0.678563
H64	H	1.228380	-0.336512	-0.678677
C65	C	1.239923	-0.417224	-0.837334
H66	H	1.269813	-0.371532	-0.801181
H67	H	1.274127	-0.463186	-0.869260
H68	H	1.209919	-0.364898	-0.869368
H69	H	0.434009	-0.439298	-0.286912
H70	H	1.043265	-0.717354	-0.676893
H71	H	0.582736	-0.439269	-0.286899
C72	C	0.847299	-0.417333	-0.272529
H73	H	0.811141	-0.371703	-0.242604
H74	H	0.879305	-0.463338	-0.238361
H75	H	0.879253	-0.364946	-0.302518
H76	H	1.225682	-0.439209	-1.078476
C77	C	0.675189	-0.739067	-0.483677
H78	H	0.711349	-0.784658	-0.513627
H79	H	0.643214	-0.791476	-0.453736
H80	H	0.643206	-0.692992	-0.517833
H81	H	1.225613	-0.439156	-0.929746
C82	C	1.029098	-0.739393	-1.090187
H83	H	0.999178	-0.785071	-1.054036
H84	H	0.994920	-0.693455	-1.122223
H85	H	1.059137	-0.791731	-1.122110
H86	H	1.043370	-0.717434	-0.929744
