data_functionalizedCrystal
_audit_creation_method	'MofGen! by Chris Wilmer'
_symmetry_space_group_name_H-M	'P1'
_symmetry_Int_Tables_number	1
_symmetry_cell_setting	triclinic
loop_
_symmetry_equiv_pos_as_xyz
  x,y,z
_cell_length_a	10.654554
_cell_length_b	23.532357
_cell_length_c	9.130313
_cell_angle_alpha	89.993247
_cell_angle_beta	89.999615
_cell_angle_gamma	83.657518
loop_
_atom_site_label
_atom_site_type_symbol
_atom_site_fract_x
_atom_site_fract_y
_atom_site_fract_z
O1	O	1.665265	0.079996	-0.121824
O2	O	1.299543	0.087614	-0.121828
O3	O	1.493465	0.000944	-0.121796
O4	O	1.471343	0.166667	-0.121856
O5	O	1.493462	0.000946	0.121803
O6	O	1.299540	0.087616	0.121771
O7	O	1.665262	0.079999	0.121774
Cu8	Cu	1.482401	0.083808	0.144015
Cu9	Cu	1.482404	0.083805	-0.144069
O10	O	1.471340	0.166669	0.121742
C11	C	1.252761	0.087055	-0.000029
C12	C	1.113372	0.085380	-0.000029
C13	C	0.901277	0.134839	-0.000050
C14	C	1.032248	0.136413	-0.000051
C15	C	1.063520	0.032770	-0.000021
C16	C	0.932551	0.031196	-0.000031
C17	C	0.883224	0.194676	-0.000061
C18	C	1.014195	0.196250	-0.000062
C19	C	1.492910	-0.020275	0.000008
C20	C	1.491246	-0.083505	0.000022
C21	C	1.480804	-0.475586	-0.132843
C22	C	1.479222	-0.534995	-0.132852
O23	O	1.478363	-0.565718	-0.245781
N24	N	1.478437	-0.564710	-0.000068
C25	C	1.479220	-0.535012	0.132733
O26	O	1.478405	-0.565742	0.245676
C27	C	1.480792	-0.475603	0.132740
C28	C	1.481590	-0.445891	-0.000052
C29	C	1.481600	-0.445874	-0.265625
C30	C	1.483184	-0.386469	-0.265616
C31	C	1.483971	-0.356774	-0.132825
C32	C	1.483174	-0.386486	-0.000044
C33	C	1.481566	-0.445905	0.265539
C34	C	1.483138	-0.386491	0.265535
C35	C	1.483936	-0.356780	0.132742
C36	C	1.485545	-0.297386	0.132756
N37	N	1.486330	-0.267671	-0.000028
C38	C	1.485543	-0.297365	-0.132819
C39	C	1.475915	-0.659775	0.132709
C40	C	1.474352	-0.719184	0.132703
C41	C	1.474352	-0.719163	-0.132882
C42	C	1.475924	-0.659754	-0.132875
C43	C	1.476701	-0.630060	-0.000075
C44	C	1.488871	-0.172609	-0.132790
C45	C	1.490460	-0.113199	-0.132769
C46	C	1.490453	-0.113225	0.132815
C47	C	1.488870	-0.172630	0.132796
C48	C	1.488075	-0.202321	-0.000019
O49	O	1.486400	-0.266625	0.245627
O50	O	1.486342	-0.266627	-0.245742
C51	C	1.712043	0.080557	-0.000028
C52	C	1.851433	0.082232	-0.000038
C53	C	1.471895	0.187888	-0.000065
C54	C	1.473558	0.251118	-0.000088
N55	N	1.482408	0.083809	0.346638
N56	N	1.482407	0.083799	-0.346691
C57	C	1.568298	0.045445	0.423304
C58	C	1.568295	0.045438	0.576641
C59	C	1.396507	0.122165	0.576632
C60	C	1.396506	0.122169	0.423298
C61	C	1.667482	0.001148	0.423310
C62	C	1.667479	0.001142	0.576647
H63	H	1.491112	-0.089011	-0.240909
H64	H	1.129582	-0.008782	-0.000017
Cl65	Cl	1.288510	0.170392	0.326916
H66	H	0.836992	0.212756	0.105109
Cl67	Cl	1.622408	-0.062717	0.650092
Cl68	Cl	1.288521	0.170386	0.673013
Cl69	Cl	0.817648	0.229487	-0.157460
Cl70	Cl	1.473373	-0.756529	0.299650
Cl71	Cl	1.476904	-0.622452	0.299675
H72	H	1.049218	0.215306	-0.105250
H73	H	1.042805	0.219644	0.101888
H74	H	1.488217	-0.196776	-0.240940
H75	H	1.483829	-0.362283	-0.373750
H76	H	1.488232	-0.196823	0.240926
H77	H	1.647444	-0.042624	0.381706
Cl78	Cl	1.480613	-0.483193	-0.432585
H79	H	1.476573	-0.635567	-0.241007
Cl80	Cl	1.807565	0.022571	0.349864
H81	H	1.473707	-0.743350	-0.241008
H82	H	1.480918	-0.470086	0.373674
Cl83	Cl	1.484115	-0.349166	0.432495
Cl84	Cl	1.491442	-0.075884	0.299743
H85	H	0.891974	-0.011641	-0.000039
Cl86	Cl	1.815999	0.016202	0.640906
