data_functionalizedCrystal
_audit_creation_method	'MofGen! by Chris Wilmer'
_symmetry_space_group_name_H-M	'P1'
_symmetry_Int_Tables_number	1
_symmetry_cell_setting	triclinic
loop_
_symmetry_equiv_pos_as_xyz
  x,y,z
_cell_length_a	12.645331
_cell_length_b	25.639239
_cell_length_c	12.645323
_cell_angle_alpha	89.968126
_cell_angle_beta	89.977324
_cell_angle_gamma	90.037665
loop_
_atom_site_label
_atom_site_type_symbol
_atom_site_fract_x
_atom_site_fract_y
_atom_site_fract_z
Zn1	Zn	1.620577	-0.208161	-0.599395
Zn2	Zn	1.620393	-0.295600	-0.422113
Zn3	Zn	1.443291	-0.208179	-0.422139
Zn4	Zn	1.443208	-0.295566	-0.599328
O5	O	1.531867	-0.251876	-0.510744
O6	O	1.768900	-0.219767	-0.575895
O7	O	1.596858	-0.284025	-0.273769
O8	O	1.466920	-0.135011	-0.445691
O9	O	1.768765	-0.284008	-0.445647
O10	O	1.597171	-0.134998	-0.575920
O11	O	1.466742	-0.219797	-0.273788
O12	O	1.294933	-0.219764	-0.445627
O13	O	1.466778	-0.283949	-0.747685
O14	O	1.294872	-0.283967	-0.575807
O15	O	1.597090	-0.219734	-0.747733
O16	O	1.596778	-0.368760	-0.445582
O17	O	1.466600	-0.368735	-0.575782
C18	C	1.256438	-0.251864	-0.510713
C19	C	1.138607	-0.251871	-0.510725
C20	C	0.971047	-0.211295	-0.429281
C21	C	1.093606	-0.211400	-0.428922
C22	C	1.094046	-0.306949	-0.480197
C23	C	0.971448	-0.306727	-0.479641
C24	C	0.971468	-0.237893	-0.623013
C25	C	1.094075	-0.236663	-0.622389
C26	C	1.531689	-0.387719	-0.510695
C27	C	1.531710	-0.445833	-0.510710
C28	C	1.599827	-0.806196	-0.443064
C29	C	1.599869	-0.860801	-0.443079
O30	O	1.657600	-0.889038	-0.385511
N31	N	1.532054	-0.888115	-0.510814
C32	C	1.464201	-0.860823	-0.578547
O33	O	1.406523	-0.889070	-0.636163
C34	C	1.464166	-0.806219	-0.578538
C35	C	1.531978	-0.778908	-0.510790
C36	C	1.667635	-0.778884	-0.375323
C37	C	1.667592	-0.724284	-0.375308
C38	C	1.599742	-0.696995	-0.443034
C39	C	1.531935	-0.724307	-0.510775
C40	C	1.396319	-0.778928	-0.646275
C41	C	1.396290	-0.724321	-0.646260
C42	C	1.464102	-0.697009	-0.578513
C43	C	1.464042	-0.642418	-0.578485
N44	N	1.531857	-0.615103	-0.510750
C45	C	1.599707	-0.642392	-0.443024
C46	C	1.464281	-0.975493	-0.578564
C47	C	1.464309	-1.030096	-0.578569
C48	C	1.599979	-1.030070	-0.443101
C49	C	1.599944	-0.975466	-0.443092
C50	C	1.532096	-0.948179	-0.510828
C51	C	1.599611	-0.527727	-0.442997
C52	C	1.599560	-0.473122	-0.442984
C53	C	1.463894	-0.473152	-0.578455
C54	C	1.463942	-0.527753	-0.578464
C55	C	1.531809	-0.555039	-0.510731
O56	O	1.406343	-0.614146	-0.636027
O57	O	1.657385	-0.614138	-0.385428
C58	C	1.808372	-0.251889	-0.510775
C59	C	1.926203	-0.251895	-0.510788
C60	C	1.531945	-0.251836	-0.787249
C61	C	1.531979	-0.251819	-0.905079
C62	C	1.532075	-0.115503	-0.510816
C63	C	1.532164	-0.057389	-0.510846
C64	C	1.449747	-0.292026	-1.072613
C65	C	1.449962	-0.292225	-0.950053
C66	C	1.643667	-0.266773	-0.949595
C67	C	1.643216	-0.267025	-1.072194
C68	C	1.503578	-0.196432	-1.072291
C69	C	1.501086	-0.196764	-0.949684
C70	C	1.531850	-0.251879	-0.235314
C71	C	1.532023	-0.251749	-0.117485
H72	H	0.942793	-0.318601	-0.397599
C73	C	1.651784	-1.046977	-0.263663
C74	C	1.674571	-1.060096	-0.368700
H75	H	1.697828	-1.065524	-0.217747
H76	H	1.661504	-1.010558	-0.253920
H77	H	1.580567	-1.055960	-0.248084
H78	H	1.745786	-1.051109	-0.384281
H79	H	1.664860	-1.096522	-0.378447
H80	H	0.940192	-0.220447	-0.346607
H81	H	1.722892	-0.801097	-0.320173
C82	C	1.017830	-0.374325	-0.602497
C83	C	0.931389	-0.348944	-0.556286
H84	H	0.993100	-0.400389	-0.649809
H85	H	1.059490	-0.349712	-0.640205
H86	H	1.059514	-0.390097	-0.548816
H87	H	0.889709	-0.333169	-0.609967
H88	H	0.889711	-0.373561	-0.518578
C89	C	1.475669	-0.348035	-0.799726
C90	C	1.475354	-0.347579	-0.910454
H91	H	1.491342	-0.382211	-0.775283
H92	H	1.527764	-0.324423	-0.774491
H93	H	1.408106	-0.337788	-0.774313
H94	H	1.542920	-0.357822	-0.935868
H95	H	1.423257	-0.371200	-0.935700
H96	H	1.123193	-0.338007	-0.537699
C97	C	1.191950	-0.244984	-0.784242
C98	C	1.135436	-0.273670	-0.708760
H99	H	1.217491	-0.267835	-0.837556
H100	H	1.146774	-0.219659	-0.815254
H101	H	1.249924	-0.228012	-0.751106
H102	H	1.077457	-0.290639	-0.741894
H103	H	1.180615	-0.299005	-0.677745
C104	C	1.271386	-0.269688	-1.025902
C105	C	1.337600	-0.279519	-1.112393
H106	H	1.202152	-0.261963	-1.050469
H107	H	1.269087	-0.299585	-0.981573
H108	H	1.298008	-0.240840	-0.987016
H109	H	1.310983	-0.308369	-1.151275
H110	H	1.339896	-0.249617	-1.156740
H111	H	1.367140	-0.282867	-0.919953
C112	C	1.403620	-0.389455	-0.638581
C113	C	1.389321	-0.443149	-0.652902
H114	H	1.357589	-0.370933	-0.684552
H115	H	1.388127	-0.380543	-0.567347
H116	H	1.474841	-0.380476	-0.654151
H117	H	1.318102	-0.452129	-0.637325
H118	H	1.404807	-0.452065	-0.724153
H119	H	0.941613	-0.170330	-0.448212
C120	C	1.777263	-0.333300	-1.073475
C121	C	1.675766	-0.321615	-1.110802
H122	H	1.797354	-0.367004	-1.097300
H123	H	1.826028	-0.308174	-1.099442
H124	H	1.777236	-0.332654	-0.998365
H125	H	1.675796	-0.322257	-1.185913
H126	H	1.626989	-0.346748	-1.084841
H127	H	1.654878	-0.549937	-0.387844
H128	H	0.942468	-0.267464	-0.683743
C129	C	1.780227	-0.206331	-1.025849
C130	C	1.728782	-0.229148	-1.112277
H131	H	1.833056	-0.182952	-1.050594
H132	H	1.730308	-0.187779	-0.984227
H133	H	1.812222	-0.232789	-0.984123
H134	H	1.696779	-0.202691	-1.153999
H135	H	1.778709	-0.247701	-1.153917
C136	C	1.733674	-0.478589	-0.309082
C137	C	1.674108	-0.443101	-0.368516
H138	H	1.779700	-0.460056	-0.263116
H139	H	1.687523	-0.499922	-0.268498
H140	H	1.774210	-0.499851	-0.355328
H141	H	1.633566	-0.421842	-0.322269
H142	H	1.720265	-0.421759	-0.409103
H143	H	1.556637	-0.165168	-0.919071
H144	H	1.706611	-0.238364	-0.920467
C145	C	1.329841	-0.522291	-0.712372
C146	C	1.389403	-0.557777	-0.652932
H147	H	1.283836	-0.540825	-0.758356
H148	H	1.289293	-0.501036	-0.666140
H149	H	1.376003	-0.500951	-0.752947
H150	H	1.343241	-0.579115	-0.612351
H151	H	1.429954	-0.579041	-0.699170
H152	H	1.668196	-0.306787	-0.918897
C153	C	1.363258	-0.132397	-0.950576
C154	C	1.390130	-0.181534	-0.910410
H155	H	1.294755	-0.122999	-0.926330
H156	H	1.413262	-0.107317	-0.926981
H157	H	1.363518	-0.133553	-1.025660
H158	H	1.389878	-0.180377	-0.835325
H159	H	1.340112	-0.206621	-0.933999
C160	C	1.582726	-0.154094	-1.222128
C161	C	1.584464	-0.155917	-1.111471
H162	H	1.632659	-0.129082	-1.246317
H163	H	1.600325	-0.187434	-1.249681
H164	H	1.514017	-0.144520	-1.245431
H165	H	1.653172	-0.165494	-1.088168
H166	H	1.566872	-0.122569	-1.083907
H167	H	1.123737	-0.170558	-0.448058
H168	H	1.655163	-0.953232	-0.387927
C169	C	1.046373	-0.231321	-0.249463
C170	C	1.133132	-0.223896	-0.316659
H171	H	1.070776	-0.239039	-0.180156
H172	H	1.004855	-0.200472	-0.247873
H173	H	1.004658	-0.259493	-0.274784
H174	H	1.174843	-0.195722	-0.291343
H175	H	1.174667	-0.254748	-0.318245
H176	H	1.124693	-0.319027	-0.399035
H177	H	0.940601	-0.198432	-0.650774
H178	H	1.123209	-0.196132	-0.645409
H179	H	1.722813	-0.702050	-0.320146
C180	C	1.330206	-1.024623	-0.712470
C181	C	1.389762	-1.060113	-0.653033
H182	H	1.284191	-1.043154	-0.758450
H183	H	1.289669	-1.003364	-0.666235
H184	H	1.376372	-1.003287	-0.753050
H185	H	1.343597	-1.081447	-0.612447
H186	H	1.430303	-1.081381	-0.699273
C187	C	1.449409	-0.914056	-0.721152
C188	C	1.389684	-0.945501	-0.653016
H189	H	1.403356	-0.895545	-0.767119
H190	H	1.489776	-0.889973	-0.680815
H191	H	1.495589	-0.935327	-0.761743
H192	H	1.343509	-0.924230	-0.612419
H193	H	1.349299	-0.969587	-0.693358
H194	H	1.468338	-0.332779	-1.103422
H195	H	1.341094	-0.801156	-0.701438
H196	H	1.341041	-0.702106	-0.701423
H197	H	1.423555	-0.182801	-1.103198
