data_functionalizedCrystal
_audit_creation_method	'MofGen! by Chris Wilmer'
_symmetry_space_group_name_H-M	'P1'
_symmetry_Int_Tables_number	1
_symmetry_cell_setting	triclinic
loop_
_symmetry_equiv_pos_as_xyz
  x,y,z
_cell_length_a	13.339070
_cell_length_b	14.044220
_cell_length_c	12.376457
_cell_angle_alpha	102.319698
_cell_angle_beta	75.589755
_cell_angle_gamma	104.409086
loop_
_atom_site_label
_atom_site_type_symbol
_atom_site_fract_x
_atom_site_fract_y
_atom_site_fract_z
O1	O	1.404410	0.473359	-0.094060
O2	O	1.104116	0.409471	-0.094052
O3	O	1.249753	0.302247	-0.094045
O4	O	1.258772	0.580583	-0.094067
O5	O	1.213353	0.329006	0.093966
O6	O	1.067716	0.436230	0.093959
O7	O	1.368010	0.500118	0.093950
Zn8	Zn	1.212084	0.472423	0.123805
Zn9	Zn	1.260042	0.437166	-0.123907
O10	O	1.222373	0.607343	0.093943
C11	C	1.047253	0.412059	-0.000045
C12	C	0.932047	0.379891	-0.000042
C13	C	0.589833	0.630012	-0.000080
C14	C	0.698075	0.660238	-0.000087
C15	C	0.756573	0.590154	-0.000075
C16	C	0.706819	0.489838	-0.000057
C17	C	0.598569	0.459608	-0.000059
C18	C	0.765309	0.419750	-0.000054
C19	C	0.715555	0.319434	-0.000037
C20	C	0.607315	0.289209	-0.000038
C21	C	0.548816	0.359293	-0.000049
C22	C	0.873559	0.449980	-0.000053
C23	C	0.882295	0.279576	-0.000032
C24	C	0.774053	0.249350	-0.000025
C25	C	1.227607	0.279274	-0.000039
C26	C	1.215836	0.170953	-0.000037
C27	C	1.194321	-0.027370	-0.000053
C28	C	1.277803	-0.063049	-0.000059
C29	C	1.265831	-0.173403	-0.000068
C30	C	1.206291	0.082993	-0.000044
C31	C	1.424874	0.497530	-0.000059
C32	C	1.540081	0.529697	-0.000070
C33	C	1.244519	0.630315	-0.000065
C34	C	1.256291	0.738635	-0.000074
N35	N	1.179361	0.496486	0.292862
N36	N	1.292772	0.413098	-0.292964
C37	C	1.368731	0.357221	0.647856
C38	C	1.391627	0.340378	0.529517
C39	C	1.338563	0.379403	0.470347
C40	C	1.262597	0.435275	0.529528
C41	C	1.239704	0.452127	0.647878
C42	C	1.209536	0.474309	0.470370
C43	C	1.133571	0.530180	0.529551
C44	C	1.110681	0.547029	0.647889
C45	C	1.163746	0.508003	0.707059
C46	C	1.232429	0.457457	0.352020
C47	C	1.103403	0.552362	0.352042
C48	C	1.080506	0.569206	0.470381
H49	H	0.460676	0.334688	-0.000043
H50	H	1.113864	-0.079699	-0.000053
H51	H	0.844709	0.614769	-0.000084
H52	H	1.294281	0.411966	0.303845
H53	H	1.411935	0.325458	0.696039
C54	C	0.526225	0.705960	-0.000272
C55	C	0.482539	0.679793	-0.096989
C56	C	0.423925	0.749731	-0.097199
H57	H	0.571241	0.770073	-0.000336
H58	H	0.471065	0.707025	0.065254
H59	H	0.537692	0.678739	-0.162499
H60	H	0.437508	0.615692	-0.096946
H61	H	0.368764	0.750796	-0.031672
H62	H	0.468948	0.813840	-0.097260
H63	H	0.394269	0.731982	-0.162814
C64	C	1.139076	0.526229	0.835546
C65	C	1.201823	0.480108	0.874690
C66	C	1.179141	0.496887	0.993046
H67	H	1.066501	0.499301	0.862478
H68	H	1.153722	0.595833	0.862349
H69	H	1.187170	0.410518	0.847899
H70	H	1.274402	0.507027	0.847789
H71	H	1.193786	0.566491	1.019849
H72	H	1.106564	0.469959	1.019967
H73	H	1.221717	0.465605	1.019620
C74	C	1.385119	0.006638	0.000131
C75	C	1.420073	0.003698	0.096847
C76	C	1.518928	0.067875	0.097058
H77	H	1.379148	0.072652	0.000198
H78	H	1.434447	-0.013863	-0.065396
H79	H	1.370757	0.024204	0.162357
H80	H	1.426069	-0.062301	0.096801
H81	H	1.568257	0.047374	0.031530
H82	H	1.512947	0.133885	0.097122
H83	H	1.542661	0.065882	0.162672
H84	H	1.018654	0.614698	0.518581
H85	H	1.048834	0.592532	0.696075
H86	H	1.060194	0.584143	0.303867
C87	C	1.363524	0.360959	0.341865
C88	C	1.441386	0.303654	0.302700
C89	C	1.464396	0.286625	0.184344
H90	H	1.388539	0.422868	0.314936
H91	H	1.301296	0.326352	0.315073
H92	H	1.503602	0.338262	0.329480
H93	H	1.416393	0.241735	0.329598
H94	H	1.402168	0.252018	0.157552
H95	H	1.489407	0.348538	0.157426
H96	H	1.517220	0.247735	0.157756
C97	C	1.474091	0.279649	0.465472
C98	C	1.515642	0.249055	0.542614
C99	C	1.591602	0.193094	0.483656
H100	H	1.529396	0.319281	0.419288
H101	H	1.442116	0.222793	0.419343
H102	H	1.547617	0.305902	0.588724
H103	H	1.460362	0.209409	0.588801
H104	H	1.559627	0.136238	0.437527
H105	H	1.646901	0.232733	0.437474
H106	H	1.619797	0.172321	0.535988
H107	H	0.914057	0.531658	-0.000063
H108	H	0.738578	0.741913	-0.000110
H109	H	0.566811	0.207524	-0.000036
H110	H	0.733530	0.167670	-0.000020
H111	H	0.929925	0.222507	-0.000027
