data_functionalizedCrystal
_audit_creation_method	'MofGen! by Chris Wilmer'
_symmetry_space_group_name_H-M	'P1'
_symmetry_Int_Tables_number	1
_symmetry_cell_setting	triclinic
loop_
_symmetry_equiv_pos_as_xyz
  x,y,z
_cell_length_a	10.908878
_cell_length_b	9.482944
_cell_length_c	16.109301
_cell_angle_alpha	79.569783
_cell_angle_beta	108.226864
_cell_angle_gamma	102.164906
loop_
_atom_site_label
_atom_site_type_symbol
_atom_site_fract_x
_atom_site_fract_y
_atom_site_fract_z
O1	O	1.721849	0.120862	0.119347
O2	O	2.221849	0.620862	0.619347
O3	O	1.347960	0.120874	0.054417
O4	O	1.847960	0.620874	0.554417
O5	O	1.545173	0.120853	0.209333
O6	O	2.045173	0.620853	0.709333
O7	O	1.524636	0.120883	-0.035568
O8	O	2.024636	0.620883	0.464432
O9	O	1.509264	-0.120941	0.227485
O10	O	2.009264	0.379059	0.727485
O11	O	1.312050	-0.120920	0.072570
O12	O	1.812050	0.379080	0.572570
O13	O	1.685939	-0.120932	0.137499
O14	O	2.185939	0.379068	0.637499
Cu15	Cu	1.495716	-0.143004	0.106692
Cu16	Cu	1.995716	0.356996	0.606692
Cu17	Cu	1.538183	0.142946	0.085225
Cu18	Cu	2.038183	0.642946	0.585225
O19	O	1.488726	-0.120911	-0.017416
O20	O	1.988726	0.379089	0.482584
C21	C	1.282161	-0.000021	0.057425
C22	C	1.782161	0.499979	0.557425
C23	C	1.139601	-0.000017	0.039355
C24	C	1.639601	0.499983	0.539355
C25	C	1.090619	-0.000025	0.105291
C26	C	1.590619	0.499975	0.605291
C27	C	0.943277	-0.000020	0.086615
C28	C	1.443277	0.499980	0.586615
N29	N	1.465856	-0.344125	0.121793
N30	N	1.965856	0.155875	0.621793
C31	C	1.529367	-0.416322	0.089678
C32	C	2.029367	0.083678	0.589678
C33	C	1.504533	-0.583740	0.102251
C34	C	2.004533	-0.083740	0.602251
C35	C	1.751739	-0.000033	0.134491
C36	C	2.251739	0.499967	0.634491
C37	C	1.894300	-0.000028	0.152561
C38	C	2.394300	0.499972	0.652561
C39	C	1.526386	-0.000045	0.249269
C40	C	2.026386	0.499955	0.749269
C41	C	1.523891	-0.000047	0.341220
C42	C	2.023891	0.499953	0.841220
N43	N	1.568053	0.344067	0.070132
N44	N	2.068053	0.844067	0.570132
C45	C	1.507513	-0.000010	-0.057352
C46	C	2.007513	0.499990	0.442648
C47	C	1.510010	0.000002	-0.149304
C48	C	2.010010	0.500002	0.350696
C49	C	1.635118	-0.000027	0.578849
C50	C	2.135118	0.499973	1.078849
C51	C	1.632766	-0.000015	0.665244
C52	C	2.132766	0.499985	1.165244
C53	C	1.398775	-0.000013	0.613058
C54	C	1.898775	0.499987	1.113058
C55	C	1.401130	-0.000015	0.526665
C56	C	1.901130	0.499985	1.026665
C57	C	1.519304	-0.000029	0.509564
C58	C	2.019304	0.499971	1.009564
C59	C	1.514597	-0.000016	0.682352
C60	C	2.014597	0.499984	1.182352
C61	C	1.512045	-0.000003	0.776024
C62	C	2.012045	0.499997	1.276024
C63	C	1.521857	-0.000040	0.415885
C64	C	2.021857	0.499960	0.915885
H65	H	1.602131	-0.354187	0.052879
H66	H	2.102131	0.145813	0.552879
H67	H	1.727073	-0.000011	0.721654
H68	H	2.227073	0.499989	1.221654
H69	H	1.306815	-0.000012	0.470247
H70	H	1.806815	0.499988	0.970247
H71	H	1.731343	-0.000036	0.564930
H72	H	2.231343	0.499964	1.064930
H73	H	1.302561	-0.000005	0.626993
H74	H	1.802561	0.499995	1.126993
N75	N	1.408151	-0.666019	0.151007
N76	N	1.908151	-0.166019	0.651007
H77	H	1.437162	-0.639608	0.213014
H78	H	1.937162	-0.139608	0.713014
H79	H	1.404115	-0.773927	0.153013
H80	H	1.904115	-0.273927	0.653013
N81	N	1.664448	-0.573657	0.021385
N82	N	2.164448	-0.073657	0.521385
H83	H	1.668530	-0.465722	0.019313
H84	H	2.168530	0.034278	0.519313
H85	H	1.635386	-0.600181	-0.040596
H86	H	2.135386	-0.100181	0.459404
H87	H	0.876135	-0.000005	0.016334
H88	H	1.376135	0.499995	0.516334
N89	N	1.050694	-0.000012	-0.053744
N90	N	1.550694	0.499988	0.446256
H91	H	1.007745	0.089620	-0.070953
H92	H	1.507745	0.589620	0.429047
H93	H	0.981204	-0.089706	-0.057422
H94	H	1.481204	0.410294	0.442578
N95	N	1.179542	-0.000048	0.198385
N96	N	1.679542	0.499952	0.698385
H97	H	1.176319	0.089580	0.222772
H98	H	1.676319	0.589580	0.722772
H99	H	1.272148	-0.000106	0.198462
H100	H	1.772148	0.499894	0.698462
H101	H	0.961442	-0.000026	0.222842
H102	H	1.461442	0.499974	0.722842
N103	N	1.369483	-0.426417	0.170548
N104	N	1.869483	0.073583	0.670548
H105	H	1.279979	-0.400024	0.139137
H106	H	1.779979	0.099976	0.639137
H107	H	1.398608	-0.399970	0.232548
H108	H	1.898608	0.100030	0.732548
