data_functionalizedCrystal
_audit_creation_method	'MofGen! by Chris Wilmer'
_symmetry_space_group_name_H-M	'P1'
_symmetry_Int_Tables_number	1
_symmetry_cell_setting	triclinic
loop_
_symmetry_equiv_pos_as_xyz
  x,y,z
_cell_length_a	19.288840
_cell_length_b	17.699083
_cell_length_c	18.366186
_cell_angle_alpha	89.992946
_cell_angle_beta	89.983412
_cell_angle_gamma	83.204515
loop_
_atom_site_label
_atom_site_type_symbol
_atom_site_fract_x
_atom_site_fract_y
_atom_site_fract_z
O1	O	0.921476	0.094327	-0.060673
O2	O	1.421476	0.594327	0.439327
O3	O	0.719228	0.107083	-0.060648
O4	O	1.219228	0.607083	0.439352
O5	O	0.826066	-0.009493	-0.060654
O6	O	1.326066	0.490507	0.439346
O7	O	0.814638	0.210903	-0.060666
O8	O	1.314638	0.710903	0.439334
O9	O	0.826047	-0.009498	0.060445
O10	O	1.326047	0.490502	0.560445
O11	O	0.719209	0.107078	0.060452
O12	O	1.219209	0.607078	0.560452
O13	O	0.921457	0.094321	0.060427
O14	O	1.421457	0.594321	0.560427
Zn15	Zn	0.820330	0.100699	0.079666
Zn16	Zn	1.320330	0.600699	0.579666
Zn17	Zn	0.820355	0.100706	-0.079887
Zn18	Zn	1.320355	0.600706	0.420113
O19	O	0.814619	0.210897	0.060433
O20	O	1.314619	0.710897	0.560433
C21	C	0.693341	0.106673	-0.000095
C22	C	1.193341	0.606673	0.499905
C23	C	0.616235	0.105451	-0.000085
C24	C	1.116235	0.605451	0.499915
C25	C	0.580041	0.104866	-0.066098
C26	C	1.080041	0.604866	0.433902
C27	C	0.507593	0.103709	-0.066107
C28	C	1.007593	0.603709	0.433893
C29	C	0.471343	0.103121	-0.000099
C30	C	0.971343	0.603121	0.499901
C31	C	0.507546	0.103710	0.065923
C32	C	1.007546	0.603710	0.565923
C33	C	0.579991	0.104875	0.065930
C34	C	1.079991	0.604875	0.565930
C35	C	0.361953	0.056941	0.050465
C36	C	0.861953	0.556941	0.550465
C37	C	0.289509	0.055772	0.050455
C38	C	0.789509	0.555772	0.550455
C39	C	0.247895	0.099531	-0.000118
C40	C	0.747895	0.599531	0.499882
C41	C	0.278736	0.144451	-0.050693
C42	C	0.778736	0.644451	0.449307
C43	C	0.351182	0.145616	-0.050686
C44	C	0.851182	0.645616	0.449314
C45	C	0.392788	0.101858	-0.000099
C46	C	0.892788	0.601858	0.499901
C47	C	0.133145	0.097693	-0.066145
C48	C	0.633145	0.597693	0.433855
C49	C	0.060694	0.096541	-0.066151
C50	C	0.560694	0.596541	0.433849
C51	C	0.060649	0.096534	0.065881
C52	C	0.560649	0.596534	0.565881
C53	C	0.133097	0.097694	0.065885
C54	C	0.633097	0.597694	0.565885
C55	C	0.169341	0.098270	-0.000130
C56	C	0.669341	0.598270	0.499870
C57	C	0.825647	-0.037692	-0.000105
C58	C	1.325647	0.462308	0.499895
C59	C	0.824418	-0.121708	-0.000104
C60	C	1.324418	0.378292	0.499896
C61	C	0.887130	-0.170423	-0.000111
C62	C	1.387130	0.329577	0.499889
C63	C	0.885972	-0.249365	-0.000117
C64	C	1.385972	0.250635	0.499883
C65	C	0.822101	-0.279590	-0.000112
C66	C	1.322101	0.220410	0.499888
C67	C	0.759384	-0.230868	-0.000107
C68	C	1.259384	0.269132	0.499893
C69	C	0.760544	-0.151928	-0.000106
C70	C	1.260544	0.348072	0.499894
C71	C	0.754708	-0.549224	-0.000112
C72	C	1.254708	-0.049224	0.499888
C73	C	0.753554	-0.628170	-0.000111
C74	C	1.253554	-0.128170	0.499889
C75	C	0.880136	-0.646661	-0.000124
C76	C	1.380136	-0.146661	0.499876
C77	C	0.881296	-0.567721	-0.000123
C78	C	1.381296	-0.067721	0.499877
C79	C	0.818580	-0.519006	-0.000122
C80	C	1.318580	-0.019006	0.499878
C81	C	0.819836	-0.433409	-0.000116
C82	C	1.319836	0.066591	0.499884
C83	C	0.820843	-0.365185	-0.000112
C84	C	1.320843	0.134815	0.499888
C85	C	0.947344	0.094731	-0.000128
C86	C	1.447344	0.594731	0.499872
C87	C	1.024450	0.095954	-0.000142
C88	C	1.524450	0.595954	0.499858
C89	C	0.815038	0.239096	-0.000118
C90	C	1.315038	0.739096	0.499882
C91	C	0.816266	0.323113	-0.000123
C92	C	1.316266	0.823113	0.499877
N93	N	0.820318	0.100693	0.188557
N94	N	1.320318	0.600693	0.688557
C95	C	0.867641	0.049099	0.226655
C96	C	1.367641	0.549099	0.726655
C97	C	0.867645	0.049096	0.302883
C98	C	1.367645	0.549096	0.802883
C99	C	0.820333	0.100700	0.341010
C100	C	1.320333	0.600700	0.841010
C101	C	0.773001	0.152298	0.302904
C102	C	1.273001	0.652298	0.802904
C103	C	0.772994	0.152295	0.226677
C104	C	1.272994	0.652295	0.726677
C105	C	0.811115	0.169663	0.461768
C106	C	1.311115	0.669663	0.961768
C107	C	0.811128	0.169667	0.537993
C108	C	1.311128	0.669667	1.037993
C109	C	0.820351	0.100710	0.576118
C110	C	1.320351	0.600710	1.076118
C111	C	0.829578	0.031745	0.538009
C112	C	1.329578	0.531745	1.038009
C113	C	0.829570	0.031742	0.461782
C114	C	1.329570	0.531742	0.961782
C115	C	0.820335	0.100709	0.423665
C116	C	1.320335	0.600709	0.923665
C117	C	0.867681	0.049108	0.696870
C118	C	1.367681	0.549108	1.196870
C119	C	0.867680	0.049103	0.773099
C120	C	1.367680	0.549103	1.273099
C121	C	0.773039	0.152313	0.773119
C122	C	1.273039	0.652313	1.273119
C123	C	0.773037	0.152310	0.696891
C124	C	1.273037	0.652310	1.196891
C125	C	0.820361	0.100709	0.658771
C126	C	1.320361	0.600709	1.158771
N127	N	0.820367	0.100707	0.811222
N128	N	1.320367	0.600707	1.311222
H129	H	0.478026	0.103233	0.119667
H130	H	0.978026	0.603233	0.619667
H131	H	0.244855	0.180087	-0.091872
H132	H	0.744855	0.680087	0.408128
O133	O	0.913649	-0.000922	0.339978
O134	O	1.413649	0.499078	0.839978
C135	C	1.008573	-0.017291	0.425966
C136	C	1.508573	0.482709	0.925966
C137	C	0.956502	0.039437	0.384020
C138	C	1.456502	0.539437	0.884020
H139	H	1.043243	0.015317	0.461573
H140	H	1.543243	0.515317	0.961573
H141	H	0.978697	-0.055008	0.461723
H142	H	1.478697	0.444992	0.961723
H143	H	1.042360	-0.054185	0.385609
H144	H	1.542360	0.445815	0.885609
H145	H	0.922702	0.076381	0.424325
H146	H	1.422702	0.576381	0.924325
H147	H	0.986420	0.077101	0.348253
H148	H	1.486420	0.577101	0.848253
O149	O	0.025487	0.096109	-0.130262
O150	O	0.525487	0.596109	0.369738
C151	C	-0.064293	0.160328	-0.206885
C152	C	0.435707	0.660328	0.293115
C153	C	-0.024464	0.160920	-0.134261
C154	C	0.475536	0.660920	0.365739
H155	H	-0.104698	0.212714	-0.210136
H156	H	0.395302	0.712714	0.289864
H157	H	-0.025977	0.160987	-0.254091
H158	H	0.474023	0.660987	0.245909
H159	H	-0.091724	0.106804	-0.210173
H160	H	0.408276	0.606804	0.289827
H161	H	0.002968	0.214435	-0.130902
H162	H	0.502968	0.714435	0.369098
H163	H	-0.062813	0.160221	-0.087090
H164	H	0.437187	0.660221	0.412910
O165	O	0.168244	0.098299	-0.130333
O166	O	0.668244	0.598299	0.369667
C167	C	0.160648	0.098155	-0.261289
C168	C	0.660648	0.598155	0.238711
C169	C	0.120813	0.097481	-0.188649
C170	C	0.620813	0.597481	0.311351
H171	H	0.122319	0.097478	-0.308456
H172	H	0.622319	0.597478	0.191544
H173	H	0.188090	0.151670	-0.264632
H174	H	0.688090	0.651670	0.235368
H175	H	0.201039	0.045757	-0.264550
H176	H	0.701039	0.545757	0.235450
H177	H	0.080389	0.149842	-0.185338
H178	H	0.580389	0.649842	0.314662
H179	H	0.093418	0.043932	-0.185337
H180	H	0.593418	0.543932	0.314663
O181	O	0.691524	-0.657568	0.000016
O182	O	1.191524	-0.157568	0.500016
C183	C	0.616756	-0.736009	0.062731
C184	C	1.116756	-0.236009	0.562731
C185	C	0.687017	-0.702752	0.062685
C186	C	1.187017	-0.202752	0.562685
H187	H	0.613096	-0.772561	0.113385
H188	H	1.113096	-0.272561	0.613385
H189	H	0.572101	-0.687663	0.062775
H190	H	1.072101	-0.187663	0.562775
H191	H	0.613077	-0.772469	0.012028
H192	H	1.113077	-0.272469	0.512028
H193	H	0.690764	-0.666301	0.113379
H194	H	1.190764	-0.166301	0.613379
H195	H	0.731638	-0.751135	0.062603
H196	H	1.231638	-0.251135	0.562603
H197	H	0.837088	-0.024407	0.569048
H198	H	1.337088	0.475593	1.069048
H199	H	0.031135	0.096060	0.119626
H200	H	0.531135	0.596060	0.619626
H201	H	0.906214	0.007085	0.804119
H202	H	1.406214	0.507085	1.304119
O203	O	0.802040	0.236674	0.574972
O204	O	1.302040	0.736674	1.074972
C205	C	0.726764	0.352759	0.598265
C206	C	1.226764	0.852759	1.098265
C207	C	0.736960	0.276888	0.556358
C208	C	1.236960	0.776888	1.056358
H209	H	0.674155	0.385301	0.583219
H210	H	1.174155	0.885301	1.083219
H211	H	0.728306	0.340967	0.659304
H212	H	1.228306	0.840967	1.159304
H213	H	0.770313	0.388202	0.583258
H214	H	1.270313	0.888202	1.083258
H215	H	0.693424	0.241408	0.571304
H216	H	1.193424	0.741408	1.071304
H217	H	0.735446	0.288735	0.495330
H218	H	1.235446	0.788735	0.995330
O219	O	0.943322	-0.538325	-0.000001
O220	O	1.443322	-0.038325	0.499999
C221	C	1.018069	-0.459899	0.062700
C222	C	1.518069	0.040101	0.562700
C223	C	0.947806	-0.493152	0.062666
C224	C	1.447806	0.006848	0.562666
H225	H	1.021711	-0.423357	0.113353
H226	H	1.521711	0.076643	0.613353
H227	H	1.062722	-0.508248	0.062738
H228	H	1.562722	-0.008248	0.562738
H229	H	1.021770	-0.423430	0.011995
H230	H	1.521770	0.076570	0.511995
H231	H	0.944038	-0.529612	0.113362
H232	H	1.444038	-0.029612	0.613362
H233	H	0.903187	-0.444768	0.062589
H234	H	1.403187	0.055232	0.562589
O235	O	0.802282	0.236675	0.424766
O236	O	1.302282	0.736675	0.924766
C237	C	0.846027	0.356374	0.401432
C238	C	1.346027	0.856374	0.901432
C239	C	0.856119	0.280512	0.443370
C240	C	1.356119	0.780512	0.943370
H241	H	0.889538	0.391844	0.416469
H242	H	1.389538	0.891844	0.916469
H243	H	0.847646	0.344568	0.340398
H244	H	1.347646	0.844568	0.840398
H245	H	0.793386	0.388895	0.416421
H246	H	1.293386	0.888895	0.916421
H247	H	0.908756	0.247952	0.428442
H248	H	1.408756	0.747952	0.928442
H249	H	0.854457	0.292370	0.504394
H250	H	1.354457	0.792370	1.004394
O251	O	0.168158	0.098218	0.130076
O252	O	0.668158	0.598218	0.630076
C253	C	0.160460	0.098134	0.261030
C254	C	0.660460	0.598134	0.761030
C255	C	0.120671	0.097518	0.188383
C256	C	0.620671	0.597518	0.688383
H257	H	0.122082	0.097585	0.308190
H258	H	0.622082	0.597585	0.808190
H259	H	0.200813	0.045709	0.264386
H260	H	0.700813	0.545709	0.764386
H261	H	0.187942	0.151623	0.264292
H262	H	0.687942	0.651623	0.764292
H263	H	0.093147	0.044064	0.185073
H264	H	0.593147	0.544064	0.685073
H265	H	0.080357	0.149978	0.185058
H266	H	0.580357	0.649978	0.685058
H267	H	0.906174	0.007080	0.195620
H268	H	1.406174	0.507080	0.695620
O269	O	0.381211	0.189301	-0.099707
O270	O	0.881211	0.689301	0.400293
C271	C	0.450584	0.292331	-0.118063
C272	C	0.950584	0.792331	0.381937
C273	C	0.416627	0.242898	-0.062471
C274	C	0.916627	0.742898	0.437529
H275	H	0.479213	0.335686	-0.087979
H276	H	0.979213	0.835686	0.412021
H277	H	0.489233	0.254564	-0.153147
H278	H	0.989233	0.754564	0.346853
H279	H	0.408394	0.323372	-0.154226
H280	H	0.908394	0.823372	0.345774
H281	H	0.458767	0.211848	-0.026260
H282	H	0.958767	0.711848	0.473740
H283	H	0.377962	0.280703	-0.027438
H284	H	0.877962	0.780703	0.472562
H285	H	0.703641	-0.509570	-0.000112
H286	H	1.203641	-0.009570	0.499888
H287	H	0.937038	-0.289026	-0.000121
H288	H	1.437038	0.210974	0.499879
H289	H	0.734505	0.194327	0.665870
H290	H	1.234505	0.694327	1.165870
O291	O	0.727012	0.202471	0.810034
O292	O	1.227012	0.702471	1.310034
C293	C	0.633170	0.304869	0.802008
C294	C	1.133170	0.804869	1.302008
C295	C	0.685251	0.248095	0.760108
C296	C	1.185251	0.748095	1.260108
H297	H	0.599403	0.341782	0.761661
H298	H	1.099403	0.841782	1.261661
H299	H	0.598484	0.272331	0.837694
H300	H	1.098484	0.772331	1.337694
H301	H	0.663108	0.342560	0.837698
H302	H	1.163108	0.842560	1.337698
H303	H	0.655370	0.210389	0.724378
H304	H	1.155370	0.710389	1.224378
H305	H	0.719937	0.280680	0.724468
H306	H	1.219937	0.780680	1.224468
O307	O	0.913754	-0.000895	0.659827
O308	O	1.413754	0.499105	1.159827
C309	C	1.008673	-0.017202	0.573777
C310	C	1.508673	0.482798	1.073777
C311	C	0.956520	0.039494	0.615676
C312	C	1.456520	0.539494	1.115676
H313	H	1.043254	0.015430	0.538059
H314	H	1.543254	0.515430	1.038059
H315	H	1.042541	-0.054041	0.614099
H316	H	1.542541	0.445959	1.114099
H317	H	0.978795	-0.054976	0.538114
H318	H	1.478795	0.445024	1.038114
H319	H	0.986342	0.077318	0.651340
H320	H	1.486342	0.577318	1.151340
H321	H	0.922653	0.076281	0.575315
H322	H	1.422653	0.576281	1.075315
H323	H	0.264405	0.019192	0.091633
H324	H	0.764405	0.519192	0.591633
O325	O	0.949132	-0.140976	-0.000214
O326	O	1.449132	0.359024	0.499786
C327	C	1.023933	-0.062616	-0.062985
C328	C	1.523933	0.437384	0.437015
C329	C	0.953684	-0.095897	-0.062947
C330	C	1.453684	0.404103	0.437053
H331	H	1.027642	-0.026175	-0.113706
H332	H	1.527642	0.473825	0.386294
H333	H	1.027645	-0.026077	-0.012339
H334	H	1.527645	0.473923	0.487661
H335	H	1.068544	-0.111009	-0.062957
H336	H	1.568544	0.388991	0.437043
H337	H	0.909033	-0.047552	-0.063000
H338	H	1.409033	0.452448	0.437000
H339	H	0.950032	-0.132455	-0.113587
H340	H	1.450032	0.367545	0.386413
H341	H	0.837081	-0.024411	0.430757
H342	H	1.337081	0.475589	0.930757
O343	O	0.472363	0.103035	-0.130190
O344	O	0.972363	0.603035	0.369810
C345	C	0.398625	0.036131	-0.206829
C346	C	0.898625	0.536131	0.293171
C347	C	0.438474	0.036809	-0.134222
C348	C	0.938474	0.536809	0.365778
H349	H	0.371228	-0.017415	-0.210120
H350	H	0.871228	0.482585	0.289880
H351	H	0.358210	0.088503	-0.210151
H352	H	0.858210	0.588503	0.289849
H353	H	0.436985	0.036781	-0.253995
H354	H	0.936985	0.536781	0.246005
H355	H	0.400168	0.036132	-0.087015
H356	H	0.900168	0.536132	0.412985
H357	H	0.478899	-0.015559	-0.130963
H358	H	0.978899	0.484441	0.369037
O359	O	0.699561	-0.104711	-0.000067
O360	O	1.199561	0.395289	0.499933
C361	C	0.573882	-0.094697	-0.000105
C362	C	1.073882	0.405303	0.499895
C363	C	0.642894	-0.148255	-0.000126
C364	C	1.142894	0.351745	0.499874
H365	H	0.528048	-0.129880	-0.000168
H366	H	1.028048	0.370120	0.499832
H367	H	0.571200	-0.057293	0.050586
H368	H	1.071200	0.442707	0.550586
H369	H	0.571310	-0.057258	-0.050774
H370	H	1.071310	0.442742	0.449226
H371	H	0.645512	-0.185741	0.050509
H372	H	1.145512	0.314259	0.550509
H373	H	0.645547	-0.185606	-0.050850
H374	H	1.145547	0.314394	0.449150
O375	O	0.727014	0.202324	0.340018
O376	O	1.227014	0.702324	0.840018
C377	C	0.632113	0.218707	0.426087
C378	C	1.132113	0.718707	0.926087
C379	C	0.684169	0.161973	0.384114
C380	C	1.184169	0.661973	0.884114
H381	H	0.597449	0.186106	0.461737
H382	H	1.097449	0.686106	0.961737
H383	H	0.662000	0.256425	0.461803
H384	H	1.162000	0.756425	0.961803
H385	H	0.598317	0.255600	0.385748
H386	H	1.098317	0.755600	0.885748
H387	H	0.717978	0.125030	0.424401
H388	H	1.217978	0.625030	0.924401
H389	H	0.654239	0.124308	0.348387
H390	H	1.154239	0.624308	0.848387
O391	O	0.726998	0.202493	0.189779
O392	O	1.226998	0.702493	0.689779
C393	C	0.633100	0.304829	0.197842
C394	C	1.133100	0.804829	0.697842
C395	C	0.685161	0.248032	0.239722
C396	C	1.185161	0.748032	0.739722
H397	H	0.599252	0.341651	0.238203
H398	H	1.099252	0.841651	0.738203
H399	H	0.662984	0.342606	0.162159
H400	H	1.162984	0.842606	0.662159
H401	H	0.598490	0.272235	0.162151
H402	H	1.098490	0.772235	0.662151
H403	H	0.719785	0.280564	0.275452
H404	H	1.219785	0.780564	0.775452
H405	H	0.655234	0.210255	0.275359
H406	H	1.155234	0.710255	0.775359
O407	O	0.941125	-0.693876	-0.000102
O408	O	1.441125	-0.193876	0.499898
C409	C	1.066805	-0.703882	-0.000157
C410	C	1.566805	-0.203882	0.499843
C411	C	0.997790	-0.650329	-0.000167
C412	C	1.497790	-0.150329	0.499833
H413	H	1.112636	-0.668696	-0.000226
H414	H	1.612636	-0.168696	0.499774
H415	H	1.069468	-0.741298	0.050532
H416	H	1.569468	-0.241298	0.550532
H417	H	1.069399	-0.741309	-0.050828
H418	H	1.569399	-0.241309	0.449172
H419	H	0.995149	-0.612854	0.050469
H420	H	1.495149	-0.112854	0.550469
H421	H	0.995155	-0.612965	-0.050890
H422	H	1.495155	-0.112965	0.449110
O423	O	0.615135	0.105462	-0.130288
O424	O	1.115135	0.605462	0.369712
C425	C	0.607538	0.105290	-0.261243
C426	C	1.107538	0.605290	0.238757
C427	C	0.567704	0.104631	-0.188602
C428	C	1.067704	0.604631	0.311398
H429	H	0.569209	0.104603	-0.308409
H430	H	1.069209	0.604603	0.191591
H431	H	0.634980	0.158804	-0.264598
H432	H	1.134980	0.658804	0.235402
H433	H	0.647929	0.052892	-0.264496
H434	H	1.147929	0.552892	0.235504
H435	H	0.527280	0.156993	-0.185300
H436	H	1.027280	0.656993	0.314700
H437	H	0.540310	0.051083	-0.185278
H438	H	1.040310	0.551083	0.314722
H439	H	0.395830	0.021305	0.091651
H440	H	0.895830	0.521305	0.591651
H441	H	0.707380	-0.255483	-0.000107
H442	H	1.207380	0.244517	0.499893
H443	H	0.609460	0.105351	0.119687
H444	H	1.109460	0.605351	0.619687
