data_functionalizedCrystal
_audit_creation_method	'MofGen! by Chris Wilmer'
_symmetry_space_group_name_H-M	'P1'
_symmetry_Int_Tables_number	1
_symmetry_cell_setting	triclinic
loop_
_symmetry_equiv_pos_as_xyz
  x,y,z
_cell_length_a	17.077404
_cell_length_b	21.295417
_cell_length_c	17.077396
_cell_angle_alpha	89.966808
_cell_angle_beta	89.980499
_cell_angle_gamma	90.030732
loop_
_atom_site_label
_atom_site_type_symbol
_atom_site_fract_x
_atom_site_fract_y
_atom_site_fract_z
Zn1	Zn	1.200013	-0.250605	-0.443817
Zn2	Zn	1.450013	-0.000605	-0.193817
Zn3	Zn	1.700013	0.249395	0.056183
Zn4	Zn	1.950013	0.499395	0.306183
Zn5	Zn	1.199903	-0.355878	-0.312540
Zn6	Zn	1.449903	-0.105878	-0.062540
Zn7	Zn	1.699903	0.144122	0.187460
Zn8	Zn	1.949903	0.394122	0.437460
Zn9	Zn	1.068745	-0.250628	-0.312565
Zn10	Zn	1.318745	-0.000628	-0.062565
Zn11	Zn	1.568745	0.249372	0.187435
Zn12	Zn	1.818745	0.499372	0.437435
Zn13	Zn	1.068695	-0.355841	-0.443764
Zn14	Zn	1.318695	-0.105841	-0.193764
Zn15	Zn	1.568695	0.144159	0.056236
Zn16	Zn	1.818695	0.394159	0.306236
O17	O	1.134339	-0.303238	-0.378171
O18	O	1.384339	-0.053238	-0.128171
O19	O	1.634339	0.196762	0.121829
O20	O	1.884339	0.446762	0.371829
O21	O	1.309845	-0.264577	-0.426415
O22	O	1.559845	-0.014577	-0.176415
O23	O	1.809845	0.235423	0.073585
O24	O	2.059845	0.485423	0.323585
O25	O	1.182479	-0.341942	-0.202697
O26	O	1.432479	-0.091942	0.047303
O27	O	1.682479	0.158058	0.297303
O28	O	1.932479	0.408058	0.547303
O29	O	1.086225	-0.162535	-0.330008
O30	O	1.336225	0.087465	-0.080008
O31	O	1.586225	0.337465	0.169992
O32	O	1.836225	0.587465	0.419992
O33	O	1.309764	-0.341920	-0.329966
O34	O	1.559764	-0.091920	-0.079966
O35	O	1.809764	0.158080	0.170034
O36	O	2.059764	0.408080	0.420034
O37	O	1.182667	-0.162519	-0.426439
O38	O	1.432667	0.087481	-0.176439
O39	O	1.682667	0.337481	0.073561
O40	O	1.932667	0.587481	0.323561
O41	O	1.086118	-0.264614	-0.202715
O42	O	1.336118	-0.014614	0.047285
O43	O	1.586118	0.235386	0.297285
O44	O	1.836118	0.485386	0.547285
O45	O	0.958891	-0.264578	-0.329957
O46	O	1.208891	-0.014578	-0.079957
O47	O	1.458891	0.235422	0.170043
O48	O	1.708891	0.485422	0.420043
O49	O	1.086140	-0.341857	-0.553618
O50	O	1.336140	-0.091857	-0.303618
O51	O	1.586140	0.158143	-0.053618
O52	O	1.836140	0.408143	0.196382
O53	O	0.958855	-0.341878	-0.426348
O54	O	1.208855	-0.091878	-0.176348
O55	O	1.458855	0.158122	0.073652
O56	O	1.708855	0.408122	0.323652
O57	O	1.182619	-0.264540	-0.553657
O58	O	1.432619	-0.014540	-0.303657
O59	O	1.682619	0.235460	-0.053657
O60	O	1.932619	0.485460	0.196343
O61	O	1.182431	-0.443963	-0.329915
O62	O	1.432431	-0.193963	-0.079915
O63	O	1.682431	0.056037	0.170085
O64	O	1.932431	0.306037	0.420085
O65	O	1.086033	-0.443935	-0.426324
O66	O	1.336033	-0.193935	-0.176324
O67	O	1.586033	0.056065	0.073676
O68	O	1.836033	0.306065	0.323676
C69	C	0.930391	-0.303227	-0.378150
C70	C	1.180391	-0.053227	-0.128150
C71	C	1.430391	0.196773	0.121850
C72	C	1.680391	0.446773	0.371850
C73	C	0.843141	-0.303237	-0.378159
C74	C	1.093141	-0.053237	-0.128159
C75	C	1.343141	0.196763	0.121841
C76	C	1.593141	0.446763	0.371841
C77	C	1.134236	-0.466790	-0.378128
C78	C	1.384236	-0.216790	-0.128128
C79	C	1.634236	0.033210	0.121872
C80	C	1.884236	0.283210	0.371872
C81	C	1.134264	-0.536758	-0.378136
C82	C	1.384264	-0.286758	-0.128136
C83	C	1.634264	-0.036758	0.121864
C84	C	1.884264	0.213242	0.371864
C85	C	0.802153	-0.343548	-0.428270
C86	C	1.052153	-0.093548	-0.178270
C87	C	1.302153	0.156452	0.071730
C88	C	1.552153	0.406452	0.321730
C89	C	0.720172	-0.343549	-0.428282
C90	C	0.970172	-0.093549	-0.178282
C91	C	1.220172	0.156451	0.071718
C92	C	1.470172	0.406451	0.321718
C93	C	0.679182	-0.303242	-0.378180
C94	C	0.929182	-0.053242	-0.128180
C95	C	1.179182	0.196758	0.121820
C96	C	1.429182	0.446758	0.371820
C97	C	0.720176	-0.262927	-0.328067
C98	C	0.970176	-0.012927	-0.078067
C99	C	1.220176	0.237073	0.171933
C100	C	1.470176	0.487073	0.421933
C101	C	0.802155	-0.262923	-0.328059
C102	C	1.052155	-0.012923	-0.078059
C103	C	1.302155	0.237077	0.171941
C104	C	1.552155	0.487077	0.421941
C105	C	0.549306	-0.262940	-0.328086
C106	C	0.799306	-0.012940	-0.078086
C107	C	1.049306	0.237060	0.171914
C108	C	1.299306	0.487060	0.421914
C109	C	0.467322	-0.262944	-0.328093
C110	C	0.717322	-0.012944	-0.078093
C111	C	0.967322	0.237056	0.171907
C112	C	1.217322	0.487056	0.421907
C113	C	0.467323	-0.343566	-0.428309
C114	C	0.717323	-0.093566	-0.178309
C115	C	0.967323	0.156434	0.071691
C116	C	1.217323	0.406434	0.321691
C117	C	0.549302	-0.343562	-0.428301
C118	C	0.799302	-0.093562	-0.178301
C119	C	1.049302	0.156438	0.071699
C120	C	1.299302	0.406438	0.321699
C121	C	0.590291	-0.303247	-0.378187
C122	C	0.840291	-0.053247	-0.128187
C123	C	1.090291	0.196753	0.121813
C124	C	1.340291	0.446753	0.371813
C125	C	1.184503	-0.569618	-0.327987
C126	C	1.434503	-0.319618	-0.077987
C127	C	1.684503	-0.069618	0.172013
C128	C	1.934503	0.180382	0.422013
C129	C	1.184539	-0.635360	-0.328004
C130	C	1.434539	-0.385360	-0.078004
C131	C	1.684539	-0.135360	0.171996
C132	C	1.934539	0.114640	0.421996
C133	C	1.134323	-0.668240	-0.378163
C134	C	1.384323	-0.418240	-0.128163
C135	C	1.634323	-0.168240	0.121837
C136	C	1.884323	0.081760	0.371837
C137	C	1.084081	-0.635372	-0.428321
C138	C	1.334081	-0.385372	-0.178321
C139	C	1.584081	-0.135372	0.071679
C140	C	1.834081	0.114628	0.321679
C141	C	1.084051	-0.569631	-0.428308
C142	C	1.334051	-0.319631	-0.178308
C143	C	1.584051	-0.069631	0.071692
C144	C	1.834051	0.180369	0.321692
N145	N	1.065655	-0.771506	-0.384140
N146	N	1.315655	-0.521506	-0.134140
N147	N	1.565655	-0.271506	0.115860
N148	N	1.815655	-0.021506	0.365860
N149	N	1.065685	-0.833958	-0.384148
N150	N	1.315685	-0.583958	-0.134148
N151	N	1.565685	-0.333958	0.115852
N152	N	1.815685	-0.083958	0.365852
C153	C	1.134411	-0.866315	-0.378208
C154	C	1.384411	-0.616315	-0.128208
C155	C	1.634411	-0.366315	0.121792
C156	C	1.884411	-0.116315	0.371792
N157	N	1.203107	-0.833862	-0.372244
N158	N	1.453107	-0.583862	-0.122244
N159	N	1.703107	-0.333862	0.127756
N160	N	1.953107	-0.083862	0.377756
N161	N	1.203076	-0.771405	-0.372231
N162	N	1.453076	-0.521405	-0.122231
N163	N	1.703076	-0.271405	0.127769
N164	N	1.953076	-0.021405	0.377769
C165	C	1.134351	-0.739526	-0.378183
C166	C	1.384351	-0.489526	-0.128183
C167	C	1.634351	-0.239526	0.121817
C168	C	1.884351	0.010474	0.371817
C169	C	1.184694	-0.970461	-0.328075
C170	C	1.434694	-0.720461	-0.078075
C171	C	1.684694	-0.470461	0.171925
C172	C	1.934694	-0.220461	0.421925
C173	C	1.184732	-1.036204	-0.328098
C174	C	1.434732	-0.786204	-0.078098
C175	C	1.684732	-0.536204	0.171902
C176	C	1.934732	-0.286204	0.421902
C177	C	1.084267	-1.036215	-0.428411
C178	C	1.334267	-0.786215	-0.178411
C179	C	1.584267	-0.536215	0.071589
C180	C	1.834267	-0.286215	0.321589
C181	C	1.084236	-0.970473	-0.428392
C182	C	1.334236	-0.720473	-0.178392
C183	C	1.584236	-0.470473	0.071608
C184	C	1.834236	-0.220473	0.321608
C185	C	1.134449	-0.937599	-0.378220
C186	C	1.384449	-0.687599	-0.128220
C187	C	1.634449	-0.437599	0.121780
C188	C	1.884449	-0.187599	0.371780
C189	C	1.339083	-0.303250	-0.378194
C190	C	1.589083	-0.053250	-0.128194
C191	C	1.839083	0.196750	0.121806
C192	C	2.089083	0.446750	0.371806
C193	C	1.426333	-0.303255	-0.378203
C194	C	1.676333	-0.053255	-0.128203
C195	C	1.926333	0.196745	0.121797
C196	C	2.176333	0.446745	0.371797
C197	C	1.134386	-0.303192	-0.582916
C198	C	1.384386	-0.053192	-0.332916
C199	C	1.634386	0.196808	-0.082916
C200	C	1.884386	0.446808	0.167084
C201	C	1.134407	-0.303172	-0.670166
C202	C	1.384407	-0.053172	-0.420166
C203	C	1.634407	0.196828	-0.170166
C204	C	1.884407	0.446828	0.079834
C205	C	1.134464	-0.139048	-0.378232
C206	C	1.384464	0.110952	-0.128232
C207	C	1.634464	0.360952	0.121768
C208	C	1.884464	0.610952	0.371768
C209	C	1.134517	-0.069080	-0.378258
C210	C	1.384517	0.180920	-0.128258
C211	C	1.634517	0.430920	0.121742
C212	C	1.884517	0.680920	0.371742
C213	C	1.184645	-0.262910	-0.711177
C214	C	1.434645	-0.012910	-0.461177
C215	C	1.684645	0.237090	-0.211177
C216	C	1.934645	0.487090	0.038823
C217	C	1.184654	-0.262889	-0.793158
C218	C	1.434654	-0.012889	-0.543158
C219	C	1.684654	0.237111	-0.293158
C220	C	1.934654	0.487111	-0.043158
C221	C	1.134429	-0.303134	-0.834125
C222	C	1.384429	-0.053134	-0.584125
C223	C	1.634429	0.196866	-0.334125
C224	C	1.884429	0.446866	-0.084125
C225	C	1.084185	-0.343397	-0.793108
C226	C	1.334185	-0.093397	-0.543108
C227	C	1.584185	0.156603	-0.293108
C228	C	1.834185	0.406603	-0.043108
C229	C	1.084172	-0.343415	-0.711129
C230	C	1.334172	-0.093415	-0.461129
C231	C	1.584172	0.156585	-0.211129
C232	C	1.834172	0.406585	0.038871
C233	C	1.084217	-0.343360	-0.963978
C234	C	1.334217	-0.093360	-0.713978
C235	C	1.584217	0.156640	-0.463978
C236	C	1.834217	0.406640	-0.213978
C237	C	1.084231	-0.343343	-1.045963
C238	C	1.334231	-0.093343	-0.795963
C239	C	1.584231	0.156657	-0.545963
C240	C	1.834231	0.406657	-0.295963
C241	C	1.184699	-0.262834	-1.046007
C242	C	1.434699	-0.012834	-0.796007
C243	C	1.684699	0.237166	-0.546007
C244	C	1.934699	0.487166	-0.296007
C245	C	1.184686	-0.262851	-0.964028
C246	C	1.434686	-0.012851	-0.714028
C247	C	1.684686	0.237149	-0.464028
C248	C	1.934686	0.487149	-0.214028
C249	C	1.134443	-0.303116	-0.923016
C250	C	1.384443	-0.053116	-0.673016
C251	C	1.634443	0.196884	-0.423016
C252	C	1.884443	0.446884	-0.173016
C253	C	1.134337	-0.303239	-0.174224
C254	C	1.384337	-0.053239	0.075776
C255	C	1.634337	0.196761	0.325776
C256	C	1.884337	0.446761	0.575776
C257	C	1.134469	-0.303081	-0.086974
C258	C	1.384469	-0.053081	0.163026
C259	C	1.634469	0.196919	0.413026
C260	C	1.884469	0.446919	0.663026
H261	H	0.835521	-0.376372	-0.469066
H262	H	1.085521	-0.126372	-0.219066
H263	H	1.335521	0.123628	0.030934
H264	H	1.585521	0.373628	0.280934
H265	H	1.225588	-0.230084	-0.930675
H266	H	1.475588	0.019916	-0.680675
H267	H	1.725588	0.269916	-0.430675
H268	H	1.975588	0.519916	-0.180675
H269	H	1.043291	-0.376138	-0.930589
H270	H	1.293291	-0.126138	-0.680589
H271	H	1.543291	0.123862	-0.430589
H272	H	1.793291	0.373862	-0.180589
H273	H	1.225547	-0.230140	-0.677828
H274	H	1.475547	0.019860	-0.427828
H275	H	1.725547	0.269860	-0.177828
H276	H	1.975547	0.519860	0.072172
H277	H	1.043288	-0.376163	-0.826470
H278	H	1.293288	-0.126163	-0.576470
H279	H	1.543288	0.123837	-0.326470
H280	H	1.793288	0.373837	-0.076470
H281	H	1.043255	-0.376194	-0.677738
H282	H	1.293255	-0.126194	-0.427738
H283	H	1.543255	0.123806	-0.177738
H284	H	1.793255	0.373806	0.072262
H285	H	0.686803	-0.376375	-0.469086
H286	H	0.936803	-0.126375	-0.219086
H287	H	1.186803	0.123625	0.030914
H288	H	1.436803	0.373625	0.280914
H289	H	0.582677	-0.230106	-0.287285
H290	H	0.832677	0.019894	-0.037285
H291	H	1.082677	0.269894	0.212715
H292	H	1.332677	0.519894	0.462715
H293	H	1.225565	-0.230105	-0.826546
H294	H	1.475565	0.019895	-0.576546
H295	H	1.725565	0.269895	-0.326546
H296	H	1.975565	0.519895	-0.076546
H297	H	0.433949	-0.230115	-0.287304
H298	H	0.683949	0.019885	-0.037304
H299	H	0.933949	0.269885	0.212696
H300	H	1.183949	0.519885	0.462696
H301	H	0.686795	-0.230106	-0.287276
H302	H	0.936795	0.019894	-0.037276
H303	H	1.186795	0.269894	0.212724
H304	H	1.436795	0.519894	0.462724
H305	H	0.835527	-0.230095	-0.287258
H306	H	1.085527	0.019905	-0.037258
H307	H	1.335527	0.269905	0.212742
H308	H	1.585527	0.519905	0.462742
H309	H	1.043140	-0.542876	-0.469146
H310	H	1.293140	-0.292876	-0.219146
H311	H	1.543140	-0.042876	0.030854
H312	H	1.793140	0.207124	0.280854
H313	H	0.582674	-0.376386	-0.469094
H314	H	0.832674	-0.126386	-0.219094
H315	H	1.082674	0.123614	0.030906
H316	H	1.332674	0.373614	0.280906
H317	H	1.225607	-0.230048	-1.079403
H318	H	1.475607	0.019952	-0.829403
H319	H	1.725607	0.269952	-0.579403
H320	H	1.975607	0.519952	-0.329403
H321	H	1.225583	-0.943694	-0.287224
H322	H	1.475583	-0.693694	-0.037224
H323	H	1.725583	-0.443694	0.212776
H324	H	1.975583	-0.193694	0.462776
H325	H	1.043331	-0.376113	-1.079316
H326	H	1.293331	-0.126113	-0.829316
H327	H	1.543331	0.123887	-0.579316
H328	H	1.793331	0.373887	-0.329316
H329	H	1.225390	-0.542854	-0.287136
H330	H	1.475390	-0.292854	-0.037136
H331	H	1.725390	-0.042854	0.212864
H332	H	1.975390	0.207146	0.462864
H333	H	1.043196	-0.662147	-0.469162
H334	H	1.293196	-0.412147	-0.219162
H335	H	1.543196	-0.162147	0.030838
H336	H	1.793196	0.087853	0.280838
H337	H	1.225648	-1.062958	-0.287263
H338	H	1.475648	-0.812958	-0.037263
H339	H	1.725648	-0.562958	0.212737
H340	H	1.975648	-0.312958	0.462737
H341	H	0.433946	-0.376389	-0.469116
H342	H	0.683946	-0.126389	-0.219116
H343	H	0.933946	0.123611	0.030884
H344	H	1.183946	0.373611	0.280884
H345	H	1.043324	-0.943716	-0.469225
H346	H	1.293324	-0.693716	-0.219225
H347	H	1.543324	-0.443716	0.030775
H348	H	1.793324	-0.193716	0.280775
H349	H	1.225453	-0.662120	-0.287167
H350	H	1.475453	-0.412120	-0.037167
H351	H	1.725453	-0.162120	0.212833
H352	H	1.975453	0.087880	0.462833
H353	H	1.043384	-1.062985	-0.469255
H354	H	1.293384	-0.812985	-0.219255
H355	H	1.543384	-0.562985	0.030745
H356	H	1.793384	-0.312985	0.280745
