data_functionalizedCrystal
_audit_creation_method	'MofGen! by Chris Wilmer'
_symmetry_space_group_name_H-M	'P1'
_symmetry_Int_Tables_number	1
_symmetry_cell_setting	triclinic
loop_
_symmetry_equiv_pos_as_xyz
  x,y,z
_cell_length_a	17.699097
_cell_length_b	23.532357
_cell_length_c	16.176319
_cell_angle_alpha	89.987656
_cell_angle_beta	89.988988
_cell_angle_gamma	83.058361
loop_
_atom_site_label
_atom_site_type_symbol
_atom_site_fract_x
_atom_site_fract_y
_atom_site_fract_z
O1	O	1.003690	0.072058	-0.068825
O2	O	0.783263	0.081420	-0.068813
O3	O	0.900143	-0.006176	-0.068803
O4	O	0.886810	0.159653	-0.068836
O5	O	0.900127	-0.006181	0.068691
O6	O	0.783247	0.081414	0.068680
O7	O	1.003674	0.072052	0.068668
Cu8	Cu	0.893459	0.076733	0.081228
Cu9	Cu	0.893478	0.076739	-0.081373
O10	O	0.886794	0.159648	0.068657
C11	C	0.755060	0.081080	-0.000065
C12	C	0.671048	0.080070	-0.000059
C13	C	0.155371	0.073881	-0.075039
C14	C	0.234310	0.074826	-0.075035
C15	C	0.273765	0.075297	-0.000084
C16	C	0.234278	0.074816	0.074867
C17	C	0.155341	0.073867	0.074863
C18	C	0.552621	0.078644	0.074888
C19	C	0.631563	0.079595	0.074888
C20	C	0.631591	0.079604	-0.075009
C21	C	0.552654	0.078654	-0.075014
C22	C	0.513174	0.078171	-0.000063
C23	C	0.427579	0.077144	-0.000068
C24	C	0.359357	0.076327	-0.000078
C25	C	0.899802	-0.027396	-0.000053
C26	C	0.898799	-0.090617	-0.000046
C27	C	0.892513	-0.482644	-0.075037
C28	C	0.891559	-0.542046	-0.075042
O29	O	0.891048	-0.572761	-0.138782
N30	N	0.891078	-0.571762	-0.000096
C31	C	0.891542	-0.542071	0.074861
O32	O	0.891044	-0.572801	0.138608
C33	C	0.892490	-0.482670	0.074864
C34	C	0.892979	-0.452958	-0.000087
C35	C	0.893001	-0.452932	-0.149983
C36	C	0.893955	-0.393534	-0.149978
C37	C	0.894422	-0.363848	-0.075027
C38	C	0.893933	-0.393560	-0.000082
C39	C	0.892949	-0.452980	0.149820
C40	C	0.893896	-0.393574	0.149817
C41	C	0.894385	-0.363862	0.074866
C42	C	0.895354	-0.304476	0.074873
N43	N	0.895836	-0.274760	-0.000073
C44	C	0.895369	-0.304446	-0.075024
C45	C	0.889551	-0.666819	0.074847
C46	C	0.888608	-0.726220	0.074844
C47	C	0.888624	-0.726190	-0.075059
C48	C	0.889572	-0.666789	-0.075055
C49	C	0.890032	-0.637103	-0.000100
C50	C	0.897375	-0.179706	-0.075008
C51	C	0.898332	-0.120303	-0.074996
C52	C	0.898312	-0.120338	0.074907
C53	C	0.897359	-0.179736	0.074895
C54	C	0.896887	-0.209418	-0.000068
O55	O	0.895863	-0.273723	0.138581
O56	O	0.895857	-0.273708	-0.138760
C57	C	1.031877	0.072392	-0.000082
C58	C	1.115889	0.073402	-0.000093
C59	C	0.887135	0.180868	-0.000094
C60	C	0.888138	0.244089	-0.000107
N61	N	0.893451	0.076728	0.195593
N62	N	0.893492	0.076740	-0.195739
C63	C	0.945221	0.037956	0.238862
C64	C	0.945225	0.037956	0.325409
C65	C	0.893462	0.076730	0.368686
C66	C	0.841686	0.115503	0.325411
C67	C	0.841680	0.115500	0.238866
C68	C	0.841712	0.115514	0.674439
C69	C	0.841725	0.115514	0.760991
C70	C	0.945258	0.037969	0.760983
C71	C	0.945251	0.037966	0.674438
C72	C	0.893473	0.076737	0.631170
C73	C	0.893469	0.076737	0.537326
C74	C	0.893469	0.076733	0.462529
H75	H	0.266454	0.075212	-0.136064
H76	H	0.799522	0.147071	0.203637
H77	H	0.892618	-0.477096	-0.211020
C78	C	0.111978	0.073362	-0.157492
N79	N	0.079297	0.072969	-0.219599
C80	C	0.674963	0.080108	0.157343
N81	N	0.707652	0.080493	0.219446
H82	H	0.799570	0.147090	0.796225
H83	H	0.799536	0.147072	0.360652
C84	C	1.002192	-0.004689	0.626838
N85	N	1.045079	-0.036821	0.590987
H86	H	0.987379	0.006385	0.360638
C87	C	0.509259	0.078133	-0.157466
N88	N	0.476575	0.077736	-0.219570
H89	H	0.889927	-0.642652	0.135888
C90	C	0.675027	0.080128	-0.157458
N91	N	0.707742	0.080523	-0.219557
C92	C	0.784853	0.158237	0.626857
N93	N	0.742059	0.190444	0.591014
C94	C	0.509200	0.078130	0.157337
N95	N	0.476492	0.077748	0.219442
C96	C	0.277676	0.075358	0.157314
N97	N	0.310361	0.075777	0.219415
H98	H	0.987416	0.006398	0.796221
H99	H	0.896987	-0.203867	-0.136050
C100	C	0.111910	0.073342	0.157309
N101	N	0.079200	0.072946	0.219411
H102	H	0.898732	-0.096115	-0.136033
H103	H	0.894351	-0.369348	-0.211011
H104	H	0.889969	-0.642601	-0.136087
H105	H	0.888242	-0.750371	-0.136088
H106	H	0.888222	-0.750407	0.135877
C107	C	0.896828	-0.212420	0.157345
N108	N	0.896421	-0.237034	0.219448
H109	H	0.892552	-0.477161	0.210853
H110	H	0.894259	-0.369406	0.210856
H111	H	0.898696	-0.096157	0.135929
H112	H	0.987375	0.006384	0.203632
