data_functionalizedCrystal
_audit_creation_method	'MofGen! by Chris Wilmer'
_symmetry_space_group_name_H-M	'P1'
_symmetry_Int_Tables_number	1
_symmetry_cell_setting	triclinic
loop_
_symmetry_equiv_pos_as_xyz
  x,y,z
_cell_length_a	10.654550
_cell_length_b	17.699083
_cell_length_c	9.730223
_cell_angle_alpha	89.997786
_cell_angle_beta	89.996251
_cell_angle_gamma	83.883958
loop_
_atom_site_label
_atom_site_type_symbol
_atom_site_fract_x
_atom_site_fract_y
_atom_site_fract_z
O1	O	1.665973	0.106299	-0.114406
O2	O	1.300318	0.116427	-0.114384
O3	O	1.493476	0.001240	-0.114384
O4	O	1.472815	0.221487	-0.114407
O5	O	1.493474	0.001243	0.114196
O6	O	1.300315	0.116430	0.114196
O7	O	1.665971	0.106302	0.114174
Zn8	Zn	1.483143	0.111366	0.150477
Zn9	Zn	1.483146	0.111363	-0.150687
O10	O	1.472813	0.221490	0.114173
C11	C	1.253531	0.115685	-0.000091
C12	C	1.114127	0.113460	-0.000083
C13	C	1.033454	0.181281	-0.000110
C14	C	0.902470	0.179185	-0.000133
C15	C	0.932845	0.041443	-0.000108
C16	C	1.063826	0.043539	-0.000075
C17	C	1.015917	0.260805	-0.000130
C18	C	0.884933	0.258710	-0.000154
C19	C	1.492735	-0.026961	-0.000093
C20	C	1.490514	-0.110993	-0.000093
C21	C	1.603894	-0.158893	-0.000097
C22	C	1.601799	-0.237850	-0.000109
C23	C	1.486324	-0.268905	-0.000107
C24	C	1.372935	-0.220998	-0.000106
C25	C	1.375031	-0.142043	-0.000104
C26	C	1.364481	-0.539415	-0.000117
C27	C	1.362394	-0.618376	-0.000115
C28	C	1.591249	-0.635222	-0.000122
C29	C	1.593345	-0.556266	-0.000120
C30	C	1.479957	-0.508367	-0.000127
C31	C	1.482229	-0.422753	-0.000116
C32	C	1.484050	-0.354517	-0.000107
C33	C	1.712757	0.107044	-0.000122
C34	C	1.852161	0.109269	-0.000140
C35	C	1.473554	0.249690	-0.000120
C36	C	1.475775	0.333722	-0.000130
N37	N	1.483150	0.111369	0.356013
N38	N	1.483149	0.111355	-0.356223
C39	C	1.568702	0.060381	0.427940
C40	C	1.568699	0.060372	0.571823
C41	C	1.397587	0.162345	0.571840
C42	C	1.397585	0.162349	0.427960
C43	C	1.667496	0.001510	0.427931
C44	C	1.667493	0.001501	0.571814
H45	H	0.838840	0.282744	0.098528
H46	H	1.647071	-0.056663	0.388884
C47	C	0.877515	-0.035465	-0.000108
H48	H	0.944324	-0.075556	-0.000079
H49	H	0.827067	-0.039149	-0.079827
H50	H	0.827034	-0.039142	0.079604
H51	H	1.694125	-0.276847	-0.000110
C52	C	1.720367	-0.522110	-0.000129
H53	H	1.787595	-0.561947	-0.000147
H54	H	1.725946	-0.491660	0.079579
H55	H	1.725935	-0.491660	-0.079853
H56	H	0.842676	0.288672	-0.095824
H57	H	1.697927	-0.133615	-0.000091
C58	C	1.245914	-0.255157	-0.000099
H59	H	1.260902	-0.309040	-0.000086
H60	H	1.199237	-0.238755	-0.079806
H61	H	1.199245	-0.238755	0.079626
C62	C	1.054812	0.302829	0.129085
H63	H	0.981926	0.318682	0.182215
H64	H	1.094841	0.346012	0.102507
H65	H	1.111655	0.269710	0.182264
H66	H	1.129507	-0.011687	-0.000033
C67	C	1.715980	-0.687910	-0.000131
H68	H	1.785050	-0.658105	-0.000116
H69	H	1.719928	-0.719058	-0.079843
H70	H	1.719916	-0.719062	0.079589
C71	C	1.303471	0.218431	0.348845
H72	H	1.252523	0.248795	0.412304
H73	H	1.251290	0.190910	0.292719
H74	H	1.348544	0.250199	0.292718
H75	H	1.268354	-0.643658	-0.000110
H76	H	1.051130	0.286125	-0.098820
C77	C	1.239759	-0.486736	-0.000100
H78	H	1.170690	-0.516542	-0.000080
H79	H	1.235808	-0.455580	-0.079807
H80	H	1.235824	-0.455591	0.079625
C81	C	1.303452	0.218408	0.650979
H82	H	1.252488	0.248768	0.587531
H83	H	1.348495	0.250171	0.707126
H84	H	1.251271	0.190864	0.707088
C85	C	1.250313	-0.089353	-0.000095
H86	H	1.181239	-0.119155	-0.000082
H87	H	1.246376	-0.058200	-0.079805
H88	H	1.246372	-0.058205	0.079626
C89	C	1.790241	0.026403	0.367623
H90	H	1.844905	0.037482	0.440330
H91	H	1.770958	0.070475	0.312673
H92	H	1.830598	-0.013400	0.312675
C93	C	1.627596	-0.072764	0.632107
H94	H	1.609836	-0.105832	0.559394
H95	H	1.554263	-0.061650	0.687068
H96	H	1.694098	-0.096634	0.687043
C97	C	1.797556	0.019021	0.624568
H98	H	1.851043	0.026240	0.548627
H99	H	1.834017	-0.022247	0.678798
H100	H	1.787840	0.063892	0.678812
