data_functionalizedCrystal
_audit_creation_method	'MofGen! by Chris Wilmer'
_symmetry_space_group_name_H-M	'P1'
_symmetry_Int_Tables_number	1
_symmetry_cell_setting	triclinic
loop_
_symmetry_equiv_pos_as_xyz
  x,y,z
_cell_length_a	10.723022
_cell_length_b	10.540539
_cell_length_c	9.198806
_cell_angle_alpha	89.998955
_cell_angle_beta	89.996352
_cell_angle_gamma	84.496359
loop_
_atom_site_label
_atom_site_type_symbol
_atom_site_fract_x
_atom_site_fract_y
_atom_site_fract_z
O1	O	1.657277	0.178036	-0.120876
O2	O	1.294133	0.195081	-0.120880
O3	O	1.483990	0.001848	-0.120876
O4	O	1.467420	0.371270	-0.120880
O5	O	1.483975	0.001847	0.120909
O6	O	1.294118	0.195081	0.120905
O7	O	1.657262	0.178036	0.120909
Cu8	Cu	1.475689	0.186558	0.142984
Cu9	Cu	1.475707	0.186559	-0.142955
O10	O	1.467405	0.371269	0.120905
C11	C	1.247625	0.193841	0.000012
C12	C	1.109069	0.190131	0.000010
C13	C	0.890943	0.294417	0.000006
C14	C	1.034147	0.298254	0.000008
C15	C	1.482740	-0.045455	0.000014
C16	C	1.479022	-0.186401	0.000006
C17	C	1.336564	-0.369754	-0.000538
C18	C	1.340333	-0.223137	0.000006
C19	C	1.545757	-0.248093	0.138078
C20	C	1.541024	-0.394635	0.138194
C21	C	1.543862	-0.395155	-0.136760
C22	C	1.545139	-0.248173	-0.138586
C23	C	1.703770	0.179276	0.000014
C24	C	1.842326	0.182986	0.000007
N25	N	1.475685	0.186557	0.344098
C26	C	1.468655	0.418572	0.000012
C27	C	1.472373	0.559518	0.000011
N28	N	1.475720	0.186550	-0.344069
C29	C	1.555401	0.105066	0.416297
C30	C	1.555420	0.105062	0.583709
H31	H	1.067218	0.094720	-0.000028
Cl32	Cl	0.791529	0.437330	-0.000012
H33	H	1.491691	-0.422810	0.241405
H34	H	0.906723	0.090427	-0.000001
H35	H	1.407447	0.256317	0.406225
H36	H	1.076007	0.393660	0.000016
Cl37	Cl	1.251981	-0.413862	-0.153409
Cl38	Cl	1.259258	-0.157313	-0.152803
H39	H	1.281996	-0.399933	0.097920
Cl40	Cl	1.258668	-0.158617	0.153067
Cl41	Cl	1.695013	-0.468781	0.147888
H42	H	1.647606	-0.225792	0.143213
H43	H	1.499387	-0.205470	0.240826
Cl44	Cl	1.474558	-0.443813	-0.298333
Cl45	Cl	1.470382	-0.184304	-0.296312
Cl46	Cl	1.698521	-0.468150	-0.138197
Cl47	Cl	1.701255	-0.210854	-0.151468
H48	H	1.623630	0.035296	0.354172
H49	H	1.407473	0.256326	0.593853
Cl50	Cl	1.660801	-0.002653	0.679562
