data_functionalizedCrystal
_audit_creation_method	'MofGen! by Chris Wilmer'
_symmetry_space_group_name_H-M	'P1'
_symmetry_Int_Tables_number	1
_symmetry_cell_setting	triclinic
loop_
_symmetry_equiv_pos_as_xyz
  x,y,z
_cell_length_a	10.908878
_cell_length_b	10.723024
_cell_length_c	9.798715
_cell_angle_alpha	90.003391
_cell_angle_beta	89.997232
_cell_angle_gamma	107.723670
loop_
_atom_site_label
_atom_site_type_symbol
_atom_site_fract_x
_atom_site_fract_y
_atom_site_fract_z
O1	O	0.179774	-1.618384	-0.113479
O2	O	0.196982	-1.251517	-0.113483
O3	O	0.001874	-1.483583	-0.113475
O4	O	0.374882	-1.386318	-0.113487
O5	O	0.001874	-1.483569	0.113507
O6	O	0.196982	-1.251503	0.113499
O7	O	0.179774	-1.618370	0.113503
Zn8	Zn	0.188377	-1.434934	0.149539
Zn9	Zn	0.188378	-1.434953	-0.149519
O10	O	0.374881	-1.386304	0.113495
C11	C	0.195730	-1.205281	0.000007
C12	C	0.191983	-1.067535	0.000006
C13	C	-0.045887	-1.492666	0.000014
C14	C	-0.188201	-1.519736	0.000010
N15	N	0.188376	-1.434931	0.353639
C16	C	-0.238080	-1.420962	0.000006
C17	C	-0.385169	-1.448938	0.000002
C18	C	0.422643	-1.377221	0.000003
C19	C	0.564957	-1.350150	-0.000002
C20	C	0.181026	-1.664606	0.000010
C21	C	0.184773	-1.802352	0.000002
C22	C	0.301155	-0.968988	0.000001
C23	C	0.297285	-0.826620	-0.000000
N24	N	0.188369	-1.434968	-0.353619
C25	C	0.106095	-1.532447	0.421419
C26	C	0.106091	-1.532468	0.578582
H27	H	-0.171889	-1.315687	0.000013
C28	C	-0.345643	-1.207921	-0.000012
H29	H	-0.258510	-1.207773	-0.000021
H30	H	-0.361627	-1.164112	0.079135
H31	H	-0.361625	-1.164140	-0.079182
C32	C	0.283546	-1.322174	0.567663
H33	H	0.335171	-1.261012	0.630587
H34	H	0.237067	-1.279781	0.511928
H35	H	0.337137	-1.356148	0.511916
H36	H	-0.451356	-1.554221	0.000007
H37	H	-0.254392	-1.625012	0.000016
C38	C	0.431294	-0.997384	-0.000004
H39	H	0.416823	-1.089346	-0.000012
H40	H	0.478677	-0.960160	0.079145
H41	H	0.478667	-0.960174	-0.079173
H42	H	0.390745	-0.742015	-0.000009
H43	H	0.091308	-0.886951	-0.000003
C44	C	0.061840	-1.039147	0.000010
H45	H	-0.006152	-1.119436	0.000022
H46	H	0.055685	-0.990256	-0.079141
H47	H	0.055687	-0.990253	0.079176
H48	H	0.035648	-1.615916	0.363099
H49	H	0.035651	-1.615959	0.636870
H50	H	0.258813	-1.351455	0.411961
