data_functionalizedCrystal
_audit_creation_method	'MofGen! by Chris Wilmer'
_symmetry_space_group_name_H-M	'P1'
_symmetry_Int_Tables_number	1
_symmetry_cell_setting	triclinic
loop_
_symmetry_equiv_pos_as_xyz
  x,y,z
_cell_length_a	15.995350
_cell_length_b	15.995350
_cell_length_c	15.072220
_cell_angle_alpha	89.998899
_cell_angle_beta	89.991149
_cell_angle_gamma	96.507625
loop_
_atom_site_label
_atom_site_type_symbol
_atom_site_fract_x
_atom_site_fract_y
_atom_site_fract_z
O1	O	1.110996	-0.107921	-0.073703
O2	O	1.610996	0.392079	0.426297
O3	O	0.867221	-0.121249	-0.073721
O4	O	1.367221	0.378751	0.426279
O5	O	0.995772	0.007303	-0.073710
O6	O	1.495772	0.507303	0.426290
O7	O	0.982444	-0.236472	-0.073713
O8	O	1.482444	0.263528	0.426287
O9	O	0.995740	0.007296	0.073855
O10	O	1.495740	0.507296	0.573855
O11	O	0.867189	-0.121256	0.073844
O12	O	1.367189	0.378744	0.573844
O13	O	1.110964	-0.107928	0.073862
O14	O	1.610964	0.392072	0.573862
Zn15	Zn	0.989071	-0.114593	0.097283
Zn16	Zn	1.489071	0.385407	0.597283
Zn17	Zn	0.989113	-0.114584	-0.097141
Zn18	Zn	1.489113	0.385416	0.402859
O19	O	0.982413	-0.236480	0.073852
O20	O	1.482413	0.263520	0.573852
C21	C	0.836010	-0.120701	0.000060
C22	C	1.336010	0.379299	0.500060
C23	C	0.743060	-0.119049	0.000053
C24	C	1.243060	0.380951	0.500053
C25	C	0.405312	-0.113117	0.000071
C26	C	0.905312	0.386883	0.500071
C27	C	0.452746	-0.021565	0.000401
C28	C	0.952746	0.478435	0.500401
C29	C	0.549436	-0.023217	0.000063
C30	C	1.049436	0.476783	0.500063
C31	C	0.572873	-0.116060	0.000063
C32	C	1.072873	0.383940	0.500063
C33	C	0.531804	-0.161212	-0.084201
C34	C	1.031804	0.338788	0.415799
C35	C	0.435168	-0.158912	-0.084266
C36	C	0.935168	0.341088	0.415734
C37	C	0.434793	-0.160812	0.083543
C38	C	0.934793	0.339188	0.583543
C39	C	0.531738	-0.160790	0.084651
C40	C	1.031738	0.339210	0.584651
C41	C	0.667570	-0.117727	0.000055
C42	C	1.167570	0.382273	0.500055
C43	C	0.310614	-0.111452	0.000073
C44	C	0.810614	0.388548	0.500073
C45	C	0.995205	0.038494	0.000070
C46	C	1.495205	0.538494	0.500070
C47	C	0.993553	0.131444	0.000065
C48	C	1.493553	0.631444	0.500065
C49	C	1.142175	-0.108476	0.000080
C50	C	1.642175	0.391524	0.500080
C51	C	1.235125	-0.110127	0.000081
C52	C	1.735125	0.389873	0.500081
C53	C	0.982980	-0.267671	0.000069
C54	C	1.482980	0.232329	0.500069
C55	C	0.984631	-0.360621	0.000069
C56	C	1.484631	0.139379	0.500069
N57	N	0.989049	-0.114599	0.229971
N58	N	1.489049	0.385401	0.729971
C59	C	0.987621	0.469192	0.000068
C60	C	1.487621	0.969192	0.500068
C61	C	0.896069	0.421758	-0.000270
C62	C	1.396069	0.921758	0.499730
C63	C	0.897721	0.325068	0.000063
C64	C	1.397721	0.825068	0.500063
C65	C	0.990564	0.301631	0.000066
C66	C	1.490564	0.801631	0.500066
C67	C	1.035702	0.342705	0.084335
C68	C	1.535702	0.842705	0.584335
C69	C	1.033402	0.439341	0.084405
C70	C	1.533402	0.939341	0.584405
C71	C	1.035330	0.439707	-0.083404
C72	C	1.535330	0.939707	0.416596
C73	C	1.035308	0.342761	-0.084518
C74	C	1.535308	0.842761	0.415482
C75	C	0.992231	0.206934	0.000068
C76	C	1.492231	0.706934	0.500068
C77	C	0.985956	0.563890	0.000072
C78	C	1.485956	1.063890	0.500072
N79	N	0.989142	-0.114571	-0.229830
N80	N	1.489142	0.385429	0.270170
C81	C	0.989112	-0.114580	0.589173
C82	C	1.489112	0.385420	1.089173
C83	C	0.920095	-0.183135	0.551560
C84	C	1.420095	0.316865	1.051560
C85	C	0.920254	-0.183385	0.448735
C86	C	1.420254	0.316615	0.948735
C87	C	0.989080	-0.114590	0.410969
C88	C	1.489080	0.385410	0.910969
C89	C	1.076445	-0.133671	0.448266
C90	C	1.576445	0.366329	0.948266
C91	C	1.076058	-0.134159	0.551124
C92	C	1.576058	0.365841	1.051124
C93	C	0.971542	-0.026741	0.551272
C94	C	1.471542	0.473259	1.051272
C95	C	0.969537	-0.027327	0.448409
C96	C	1.469537	0.472673	0.948409
C97	C	0.989067	-0.114593	0.310255
C98	C	1.489067	0.385407	0.810255
C99	C	0.989130	-0.114579	0.689886
C100	C	1.489130	0.385421	1.189886
H101	H	0.416873	-0.125979	-0.147255
H102	H	0.916873	0.374021	0.352745
N103	N	0.852898	0.290100	0.075976
N104	N	1.352898	0.790100	0.575976
N105	N	0.889707	0.250264	0.132453
N106	N	1.389707	0.750264	0.632453
H107	H	0.858051	0.225568	0.186072
H108	H	1.358051	0.725568	0.686072
N109	N	0.585101	0.021306	0.075832
N110	N	1.085101	0.521306	0.575832
N111	N	0.625327	-0.015758	0.131751
N112	N	1.125327	0.484242	0.631751
H113	H	0.650512	0.015691	0.185265
H114	H	1.150512	0.515691	0.685265
N115	N	0.838708	-0.169221	0.417256
N116	N	1.338708	0.330779	0.917256
N117	N	0.830232	-0.106868	0.369473
N118	N	1.330232	0.393132	0.869473
H119	H	0.772604	-0.096901	0.347310
H120	H	1.272604	0.403099	0.847310
N121	N	0.428191	0.024150	-0.074980
N122	N	0.928191	0.524150	0.425020
N123	N	0.482112	0.052641	-0.130498
N124	N	0.982112	0.552641	0.369502
H125	H	0.464768	0.084930	-0.183735
H126	H	0.964768	0.584930	0.316265
N127	N	0.992076	0.462289	0.163427
N128	N	1.492076	0.962289	0.663427
N129	N	0.965129	0.406960	0.218140
N130	N	1.465129	0.906960	0.718140
H131	H	0.935940	0.423162	0.273951
H132	H	1.435940	0.923162	0.773951
H133	H	1.129019	-0.086195	0.576003
H134	H	1.629019	0.413805	1.076003
H135	H	0.434211	0.015027	0.060830
H136	H	0.934211	0.515027	0.560830
N137	N	1.120014	0.479533	-0.084133
N138	N	1.620014	0.979533	0.415867
N139	N	1.180061	0.435905	-0.082022
N140	N	1.680061	0.935905	0.417978
H141	H	1.239868	0.464033	-0.082533
H142	H	1.739868	0.964033	0.417467
N143	N	0.394712	-0.243229	-0.089098
N144	N	0.894712	0.256771	0.410902
N145	N	0.347097	-0.265158	-0.152725
N146	N	0.847097	0.234842	0.347275
H147	H	0.318529	-0.324706	-0.156147
H148	H	0.818529	0.175294	0.343853
H149	H	0.577307	0.012521	-0.060446
H150	H	1.077307	0.512521	0.439554
H151	H	0.545929	-0.229421	-0.087335
H152	H	1.045929	0.270579	0.412665
N153	N	0.893341	-0.003725	0.583822
N154	N	1.393341	0.496275	1.083822
N155	N	0.868735	0.064446	0.560723
N156	N	1.368735	0.564446	1.060723
H157	H	0.813502	0.080694	0.583710
H158	H	1.313502	0.580694	1.083710
H159	H	1.100617	0.471588	0.088231
H160	H	1.600617	0.971588	0.588231
N161	N	0.567443	-0.121879	-0.162867
N162	N	1.067443	0.378121	0.337133
N163	N	0.623076	-0.060603	-0.157090
N164	N	1.123076	0.439397	0.342910
H165	H	0.648256	-0.032827	-0.212646
H166	H	1.148256	0.467173	0.287354
H167	H	1.016540	0.026078	0.422704
H168	H	1.516540	0.526078	0.922704
H169	H	0.905271	-0.012846	0.424032
H170	H	1.405271	0.487154	0.924032
N171	N	0.853204	0.289423	-0.075718
N172	N	1.353204	0.789423	0.424282
N173	N	0.820693	0.335950	-0.129221
N174	N	1.320693	0.835950	0.370779
H175	H	0.789246	0.310780	-0.182743
H176	H	1.289246	0.810780	0.317257
H177	H	0.859490	0.440293	-0.060701
H178	H	1.359490	0.940293	0.439299
H179	H	0.414244	-0.130885	0.147414
H180	H	0.914244	0.369115	0.647414
H181	H	1.103910	0.328579	0.087471
H182	H	1.603910	0.828579	0.587471
H183	H	0.559041	-0.127829	0.146989
H184	H	1.059041	0.372171	0.646989
H185	H	0.547102	-0.228494	0.089741
H186	H	1.047102	0.271506	0.589741
N187	N	0.996325	0.307106	0.162996
N188	N	1.496325	0.807106	0.662996
N189	N	0.920251	0.313138	0.177215
N190	N	1.420251	0.813138	0.677215
H191	H	0.892434	0.287998	0.232768
H192	H	1.392434	0.787998	0.732768
H193	H	1.092297	-0.197002	0.422498
H194	H	1.592297	0.302998	0.922498
H195	H	1.002306	0.315516	-0.146857
H196	H	1.502306	0.815516	0.353143
N197	N	1.142406	-0.072694	0.417575
N198	N	1.642406	0.427306	0.917575
N199	N	1.125721	-0.014354	0.367751
N200	N	1.625721	0.485646	0.867751
H201	H	1.172305	0.028713	0.346074
H202	H	1.672305	0.528713	0.846074
H203	H	1.005411	0.460250	-0.147274
H204	H	1.505411	0.960250	0.352726
H205	H	1.103014	0.327400	-0.089603
H206	H	1.603014	0.827400	0.410397
H207	H	0.403031	-0.228312	0.084113
H208	H	0.903031	0.271688	0.584113
H209	H	0.854945	-0.171953	0.576317
H210	H	1.354945	0.328047	1.076317
N211	N	1.034683	0.037252	0.581790
N212	N	1.534683	0.537252	1.081790
N213	N	1.092401	0.018366	0.631236
N214	N	1.592401	0.518366	1.131236
H215	H	1.136996	0.063554	0.652795
H216	H	1.636996	0.563554	1.152795
H217	H	0.931160	-0.247952	0.577399
H218	H	1.431160	0.252048	1.077399
N219	N	0.850357	0.446341	0.075111
N220	N	1.350357	0.946341	0.575111
N221	N	0.884912	0.498643	0.129082
N222	N	1.384912	0.998643	0.629082
H223	H	0.852630	0.516007	0.182322
H224	H	1.352630	1.016007	0.682322
H225	H	0.931473	-0.248570	0.424121
H226	H	1.431473	0.251430	0.924121
N227	N	1.095484	-0.214523	0.581202
N228	N	1.595484	0.285477	1.081202
N229	N	1.109231	-0.269860	0.526229
N230	N	1.609231	0.230140	1.026229
H231	H	1.122951	-0.326620	0.547467
H232	H	1.622951	0.173380	1.047467
