data_functionalizedCrystal
_audit_creation_method	'MofGen! by Chris Wilmer'
_symmetry_space_group_name_H-M	'P1'
_symmetry_Int_Tables_number	1
_symmetry_cell_setting	triclinic
loop_
_symmetry_equiv_pos_as_xyz
  x,y,z
_cell_length_a	21.395364
_cell_length_b	21.395361
_cell_length_c	21.395355
_cell_angle_alpha	89.978489
_cell_angle_beta	89.975448
_cell_angle_gamma	90.045659
loop_
_atom_site_label
_atom_site_type_symbol
_atom_site_fract_x
_atom_site_fract_y
_atom_site_fract_z
Zn1	Zn	0.957859	-0.249261	-0.354248
Zn2	Zn	1.291193	0.084072	-0.020915
Zn3	Zn	1.624526	0.417406	0.312418
Zn4	Zn	0.957762	-0.354021	-0.249466
Zn5	Zn	1.291095	-0.020688	0.083868
Zn6	Zn	1.624428	0.312646	0.417201
Zn7	Zn	0.853074	-0.249289	-0.249485
Zn8	Zn	1.186408	0.084045	0.083848
Zn9	Zn	1.519741	0.417378	0.417181
Zn10	Zn	0.853043	-0.354032	-0.354206
Zn11	Zn	1.186377	-0.020699	-0.020872
Zn12	Zn	1.519710	0.312634	0.312461
O13	O	0.905435	-0.301651	-0.301851
O14	O	1.238768	0.031683	0.031482
O15	O	1.572101	0.365016	0.364815
O16	O	1.045524	-0.263142	-0.340358
O17	O	1.378857	0.070192	-0.007025
O18	O	1.712191	0.403525	0.326308
O19	O	0.943847	-0.340135	-0.161790
O20	O	1.277180	-0.006802	0.171543
O21	O	1.610513	0.326532	0.504876
O22	O	0.867028	-0.161607	-0.263408
O23	O	1.200361	0.171726	0.069925
O24	O	1.533695	0.505060	0.403258
O25	O	1.045453	-0.340108	-0.263375
O26	O	1.378786	-0.006775	0.069958
O27	O	1.712119	0.326558	0.403292
O28	O	0.944013	-0.161587	-0.340378
O29	O	1.277346	0.171746	-0.007044
O30	O	1.610680	0.505080	0.326289
O31	O	0.866933	-0.263188	-0.161805
O32	O	1.200267	0.070145	0.171529
O33	O	1.533600	0.403478	0.504862
O34	O	0.765392	-0.263199	-0.263367
O35	O	1.098726	0.070134	0.069966
O36	O	1.432059	0.403467	0.403300
O37	O	0.866975	-0.340127	-0.441889
O38	O	1.200309	-0.006794	-0.108556
O39	O	1.533642	0.326539	0.224777
O40	O	0.765370	-0.340154	-0.340305
O41	O	1.098703	-0.006821	-0.006971
O42	O	1.432036	0.326513	0.326362
O43	O	0.943983	-0.263152	-0.441921
O44	O	1.277316	0.070181	-0.108587
O45	O	1.610650	0.403514	0.224746
O46	O	0.943817	-0.441700	-0.263333
O47	O	1.277150	-0.108367	0.070000
O48	O	1.610484	0.224966	0.403333
O49	O	0.866881	-0.441709	-0.340286
O50	O	1.200214	-0.108375	-0.006952
O51	O	1.533547	0.224958	0.326381
C52	C	0.742647	-0.301681	-0.301834
C53	C	1.075980	0.031652	0.031500
C54	C	1.409314	0.364985	0.364833
C55	C	0.673006	-0.301709	-0.301841
C56	C	1.006339	0.031624	0.031492
C57	C	1.339672	0.364957	0.364826
C58	C	0.640352	-0.261698	-0.341988
C59	C	0.973686	0.071635	-0.008655
C60	C	1.307019	0.404968	0.324678
C61	C	0.574917	-0.261682	-0.341991
C62	C	0.908250	0.071652	-0.008657
C63	C	1.241584	0.404985	0.324676
C64	C	0.542137	-0.301687	-0.301852
C65	C	0.875471	0.031646	0.031481
C66	C	1.208804	0.364979	0.364814
C67	C	0.574799	-0.341701	-0.261697
C68	C	0.908132	-0.008368	0.071636
C69	C	1.241465	0.324966	0.404969
C70	C	0.640233	-0.341712	-0.261692
C71	C	0.973566	-0.008379	0.071642
C72	C	1.306900	0.324955	0.404975
C73	C	0.438413	-0.358112	-0.296812
C74	C	0.771746	-0.024779	0.036522
C75	C	1.105080	0.308555	0.369855
C76	C	0.372980	-0.358102	-0.296822
C77	C	0.706313	-0.024769	0.036511
C78	C	1.039647	0.308565	0.369845
C79	C	0.340317	-0.301653	-0.301866
C80	C	0.673650	0.031681	0.031467
C81	C	1.006983	0.365014	0.364800
C82	C	0.373094	-0.245212	-0.306914
C83	C	0.706428	0.088121	0.026420
C84	C	1.039761	0.421455	0.359753
C85	C	0.438528	-0.245223	-0.306908
C86	C	0.771862	0.088110	0.026425
C87	C	1.105195	0.421444	0.359759
C88	C	0.471185	-0.301679	-0.301854
C89	C	0.804518	0.031654	0.031480
C90	C	1.137852	0.364987	0.364813
C91	C	0.236711	-0.261620	-0.342018
C92	C	0.570044	0.071713	-0.008685
C93	C	0.903377	0.405046	0.324648
C94	C	0.171274	-0.261603	-0.342016
C95	C	0.504607	0.071731	-0.008683
C96	C	0.837941	0.405064	0.324650
C97	C	0.171157	-0.341627	-0.261726
C98	C	0.504491	-0.008294	0.071607
C99	C	0.837824	0.325039	0.404940
C100	C	0.236593	-0.341640	-0.261725
C101	C	0.569926	-0.008306	0.071608
C102	C	0.903259	0.325027	0.404942
C103	C	0.269365	-0.301637	-0.301874
C104	C	0.602699	0.031696	0.031459
C105	C	0.936032	0.365030	0.364792
C106	C	0.905352	-0.464438	-0.301816
C107	C	1.238685	-0.131105	0.031517
C108	C	1.572019	0.202228	0.364850
C109	C	0.905374	-0.534080	-0.301822
C110	C	1.238707	-0.200746	0.031511
C111	C	1.572041	0.132587	0.364844
C112	C	0.945470	-0.566768	-0.261794
C113	C	1.278803	-0.233434	0.071539
C114	C	1.612137	0.099899	0.404872
C115	C	0.945499	-0.632203	-0.261808
C116	C	1.278832	-0.298870	0.071525
C117	C	1.612166	0.034464	0.404858
C118	C	0.905421	-0.664948	-0.301844
C119	C	1.238754	-0.331615	0.031489
C120	C	1.572088	0.001719	0.364823
C121	C	0.865322	-0.632252	-0.341880
C122	C	1.198655	-0.298919	-0.008546
C123	C	1.531989	0.034415	0.324787
C124	C	0.865298	-0.566818	-0.341869
C125	C	1.198632	-0.233485	-0.008536
C126	C	1.531965	0.099849	0.324798
C127	C	0.849006	-0.768678	-0.306754
C128	C	1.182340	-0.435344	0.026580
C129	C	1.515673	-0.102011	0.359913
C130	C	0.849029	-0.834111	-0.306760
C131	C	1.182362	-0.500777	0.026573
C132	C	1.515695	-0.167444	0.359907
C133	C	0.905494	-0.866769	-0.301881
C134	C	1.238827	-0.533435	0.031453
C135	C	1.572161	-0.200102	0.364786
C136	C	0.961938	-0.833986	-0.296982
C137	C	1.295272	-0.500652	0.036352
C138	C	1.628605	-0.167319	0.369685
C139	C	0.961915	-0.768551	-0.296971
C140	C	1.295248	-0.435218	0.036362
C141	C	1.628581	-0.101885	0.369696
C142	C	0.905442	-0.735900	-0.301860
C143	C	1.238776	-0.402567	0.031473
C144	C	1.572109	-0.069234	0.364806
C145	C	0.945625	-0.970409	-0.261866
C146	C	1.278958	-0.637076	0.071468
C147	C	1.612292	-0.303743	0.404801
C148	C	0.945655	-1.035846	-0.261884
C149	C	1.278989	-0.702512	0.071449
C150	C	1.612322	-0.369179	0.404783
C151	C	0.865473	-1.035893	-0.341952
C152	C	1.198806	-0.702560	-0.008619
C153	C	1.532139	-0.369227	0.324715
C154	C	0.865448	-0.970458	-0.341937
C155	C	1.198781	-0.637125	-0.008604
C156	C	1.532115	-0.303791	0.324730
C157	C	0.905523	-0.937720	-0.301890
C158	C	1.238857	-0.604387	0.031443
C159	C	1.572190	-0.271053	0.364776
C160	C	1.068858	-0.301621	-0.301869
C161	C	1.402191	0.031713	0.031464
C162	C	1.735525	0.365046	0.364797
C163	C	1.138499	-0.301608	-0.301877
C164	C	1.471832	0.031726	0.031456
C165	C	1.805166	0.365059	0.364790
C166	C	0.905487	-0.301638	-0.465275
C167	C	1.238820	0.031695	-0.131941
C168	C	1.572153	0.365029	0.201392
C169	C	0.905509	-0.301633	-0.534916
C170	C	1.238842	0.031701	-0.201582
C171	C	1.572175	0.365034	0.131751
C172	C	0.905535	-0.138227	-0.301900
C173	C	1.238868	0.195106	0.031433
C174	C	1.572201	0.528439	0.364767
C175	C	0.905577	-0.068586	-0.301921
C176	C	1.238911	0.264747	0.031413
C177	C	1.572244	0.598081	0.364746
C178	C	0.945605	-0.261550	-0.567646
C179	C	1.278938	0.071783	-0.234313
C180	C	1.612272	0.405117	0.099020
C181	C	0.945604	-0.261523	-0.633082
C182	C	1.278937	0.071810	-0.299748
C183	C	1.612271	0.405143	0.033585
C184	C	0.905514	-0.301590	-0.665784
C185	C	1.238847	0.031743	-0.332451
C186	C	1.572180	0.365077	0.000882
C187	C	0.865410	-0.341675	-0.633046
C188	C	1.198743	-0.008342	-0.299712
C189	C	1.532076	0.324991	0.033621
C190	C	0.865407	-0.341697	-0.567612
C191	C	1.198741	-0.008363	-0.234278
C192	C	1.532074	0.324970	0.099055
C193	C	0.900538	-0.358007	-0.769447
C194	C	1.233871	-0.024673	-0.436113
C195	C	1.567204	0.308660	-0.102780
C196	C	0.900545	-0.357986	-0.834880
C197	C	1.233878	-0.024653	-0.501546
C198	C	1.567211	0.308680	-0.168213
C199	C	0.905518	-0.301524	-0.867605
C200	C	1.238851	0.031810	-0.534272
C201	C	1.572184	0.365143	-0.200938
C202	C	0.910497	-0.245080	-0.834889
C203	C	1.243830	0.088254	-0.501556
C204	C	1.577164	0.421587	-0.168223
C205	C	0.910494	-0.245101	-0.769455
C206	C	1.243828	0.088232	-0.436122
C207	C	1.577161	0.421566	-0.102788
C208	C	0.905512	-0.301571	-0.736737
C209	C	1.238845	0.031762	-0.403403
C210	C	1.572178	0.365096	-0.070070
C211	C	0.945615	-0.261409	-0.971288
C212	C	1.278948	0.071925	-0.637955
C213	C	1.612282	0.405258	-0.304621
C214	C	0.945610	-0.261381	-1.036725
C215	C	1.278943	0.071953	-0.703391
C216	C	1.612276	0.405286	-0.370058
C217	C	0.865419	-0.341538	-1.036688
C218	C	1.198752	-0.008205	-0.703354
C219	C	1.532085	0.325128	-0.370021
C220	C	0.865421	-0.341561	-0.971252
C221	C	1.198754	-0.008227	-0.637919
C222	C	1.532087	0.325106	-0.304586
C223	C	0.905522	-0.301497	-0.938556
C224	C	1.238855	0.031837	-0.605223
C225	C	1.572189	0.365170	-0.271890
C226	C	0.905419	-0.301618	-0.139064
C227	C	1.238752	0.031715	0.194270
C228	C	1.572086	0.365048	0.527603
C229	C	0.905518	-0.301447	-0.069423
C230	C	1.238851	0.031886	0.263911
C231	C	1.572185	0.365220	0.597244
H232	H	0.465002	-0.404083	-0.292703
H233	H	0.798336	-0.070750	0.040630
H234	H	1.131669	0.262584	0.373963
N235	N	0.788103	-0.733452	-0.312009
N236	N	1.121436	-0.400119	0.021324
N237	N	1.454769	-0.066785	0.354657
H238	H	0.788914	-0.706280	-0.350614
H239	H	1.122248	-0.372947	-0.017280
H240	H	1.455581	-0.039614	0.316053
H241	H	0.752381	-0.764183	-0.315081
H242	H	1.085714	-0.430850	0.018253
H243	H	1.419048	-0.097516	0.351586
H244	H	0.465213	-0.199267	-0.311016
H245	H	0.798547	0.134066	0.022318
H246	H	1.131880	0.467400	0.355651
N247	N	0.988870	-0.218209	-0.936013
N248	N	1.322204	0.115124	-0.602680
N249	N	1.655537	0.448457	-0.269346
H250	H	0.963435	-0.189189	-0.908844
H251	H	1.296768	0.144144	-0.575511
H252	H	1.630101	0.477477	-0.242178
H253	H	1.017874	-0.243738	-0.908921
H254	H	1.351207	0.089595	-0.575588
H255	H	1.684541	0.422928	-0.242254
N256	N	0.337881	-0.184318	-0.312355
N257	N	0.671215	0.149015	0.020979
N258	N	1.004548	0.482349	0.354312
H259	H	0.310749	-0.185210	-0.350963
H260	H	0.644082	0.148123	-0.017629
H261	H	0.977415	0.481456	0.315704
H262	H	0.310758	-0.178411	-0.274168
H263	H	0.644092	0.154922	0.059165
H264	H	0.977425	0.488255	0.392498
H265	H	1.007873	-0.741861	-0.292984
H266	H	1.341206	-0.408528	0.040350
H267	H	1.674540	-0.075194	0.373683
H268	H	0.896321	-0.403973	-0.742807
H269	H	1.229654	-0.070640	-0.409474
H270	H	1.562987	0.262693	-0.076141
N271	N	0.822096	-0.667565	-0.385063
N272	N	1.155429	-0.334232	-0.051730
N273	N	1.488763	-0.000898	0.281604
H274	H	0.828193	-0.713978	-0.378995
H275	H	1.161526	-0.380645	-0.045661
H276	H	1.494860	-0.047311	0.287672
H277	H	0.777349	-0.656183	-0.375269
H278	H	1.110683	-0.322849	-0.041936
H279	H	1.444016	0.010484	0.291398
H280	H	0.978152	-0.658823	-0.229213
H281	H	1.311486	-0.325490	0.104120
H282	H	1.644819	0.007844	0.437454
H283	H	0.978260	-0.228737	-1.063373
H284	H	1.311593	0.104596	-0.730040
H285	H	1.644927	0.437930	-0.396706
H286	H	1.007918	-0.860574	-0.293008
H287	H	1.341251	-0.527241	0.040325
H288	H	1.674584	-0.193907	0.373658
H289	H	0.914547	-0.199103	-0.861533
H290	H	1.247881	0.134231	-0.528199
H291	H	1.581214	0.467564	-0.194866
N292	N	0.895173	-0.418861	-0.870164
N293	N	1.228507	-0.085527	-0.536831
N294	N	1.561840	0.247806	-0.203497
H295	H	0.933341	-0.424725	-0.897325
H296	H	1.266674	-0.091392	-0.563991
H297	H	1.600008	0.241941	-0.230658
H298	H	0.891995	-0.454594	-0.839466
H299	H	1.225328	-0.121261	-0.506133
H300	H	1.558661	0.212072	-0.172799
H301	H	0.666819	-0.374295	-0.228998
H302	H	1.000152	-0.040961	0.104336
H303	H	1.333486	0.292372	0.437669
H304	H	0.548325	-0.229097	-0.374682
H305	H	0.881659	0.104236	-0.041349
H306	H	1.214992	0.437570	0.291984
H307	H	0.832774	-0.374204	-0.944603
H308	H	1.166107	-0.040871	-0.611269
H309	H	1.499440	0.292463	-0.277936
N310	N	0.915864	-0.184225	-0.734174
N311	N	1.249197	0.149108	-0.400840
N312	N	1.582531	0.482442	-0.067507
H313	H	0.879652	-0.156188	-0.745547
H314	H	1.212986	0.177145	-0.412214
H315	H	1.546319	0.510478	-0.078881
H316	H	0.915128	-0.192859	-0.687768
H317	H	1.248461	0.140474	-0.354434
H318	H	1.581794	0.473808	-0.021101
H319	H	0.978259	-0.943753	-0.229259
H320	H	1.311592	-0.610419	0.104074
H321	H	1.644926	-0.277086	0.437407
H322	H	0.978310	-1.062459	-0.229290
H323	H	1.311644	-0.729126	0.104044
H324	H	1.644977	-0.395793	0.437377
N325	N	0.539443	-0.384845	-0.218403
N326	N	0.872776	-0.051511	0.114930
N327	N	1.206110	0.281822	0.448263
H328	H	0.512280	-0.413915	-0.243814
H329	H	0.845614	-0.080581	0.089520
H330	H	1.178947	0.252752	0.422853
H331	H	0.570098	-0.410153	-0.192975
H332	H	0.903431	-0.076820	0.140359
H333	H	1.236765	0.256514	0.473692
H334	H	0.832766	-0.374296	-0.659676
H335	H	1.166099	-0.040963	-0.326343
H336	H	1.499432	0.292371	0.006990
N337	N	0.822172	-0.384749	-1.071950
N338	N	1.155505	-0.051416	-0.738616
N339	N	1.488838	0.281917	-0.405283
H340	H	0.828255	-0.378653	-1.118369
H341	H	1.161588	-0.045319	-0.785036
H342	H	1.494922	0.288014	-0.451703
H343	H	0.831894	-0.429500	-1.060516
H344	H	1.165227	-0.096166	-0.727182
H345	H	1.498561	0.237167	-0.393849
H346	H	0.832753	-0.374336	-0.540963
H347	H	1.166087	-0.041002	-0.207629
H348	H	1.499420	0.292331	0.125704
H349	H	0.832843	-1.062554	-0.374552
H350	H	1.166176	-0.729220	-0.041219
H351	H	1.499510	-0.395887	0.292114
H352	H	0.832795	-0.943842	-0.374529
H353	H	1.166129	-0.610508	-0.041195
H354	H	1.499462	-0.277175	0.292138
H355	H	0.832647	-0.540203	-0.374465
H356	H	1.165980	-0.206869	-0.041132
H357	H	1.499313	0.126464	0.292202
N358	N	0.788153	-0.869467	-0.312034
N359	N	1.121486	-0.536134	0.021299
N360	N	1.454819	-0.202801	0.354632
H361	H	0.752379	-0.838851	-0.315130
H362	H	1.085713	-0.505518	0.018203
H363	H	1.419046	-0.172185	0.351537
H364	H	0.789044	-0.896598	-0.350643
H365	H	1.122378	-0.563265	-0.017309
H366	H	1.455711	-0.229931	0.316024
H367	H	0.978258	-0.228926	-0.541029
H368	H	1.311591	0.104407	-0.207696
H369	H	1.644925	0.437740	0.125637
H370	H	0.263396	-0.229044	-0.374706
H371	H	0.596729	0.104289	-0.041373
H372	H	0.930062	0.437623	0.291960
H373	H	0.667032	-0.229125	-0.374681
H374	H	1.000365	0.104209	-0.041347
H375	H	1.333699	0.437542	0.291986
N376	N	0.988852	-0.218290	-0.668395
N377	N	1.322185	0.115044	-0.335061
N378	N	1.655518	0.448377	-0.001728
H379	H	1.014254	-0.192912	-0.637753
H380	H	1.347588	0.140421	-0.304420
H381	H	1.680921	0.473754	0.028914
H382	H	1.017829	-0.243785	-0.695553
H383	H	1.351162	0.089548	-0.362219
H384	H	1.684495	0.422881	-0.028886
H385	H	0.144469	-0.374200	-0.229045
H386	H	0.477802	-0.040867	0.104289
H387	H	0.811136	0.292466	0.437622
N388	N	0.136060	-0.218434	-0.385315
N389	N	0.469393	0.114899	-0.051982
N390	N	0.802727	0.448233	0.281351
H391	H	0.147458	-0.228234	-0.430064
H392	H	0.480791	0.105100	-0.096731
H393	H	0.814125	0.438433	0.236603
H394	H	0.089644	-0.224507	-0.379175
H395	H	0.422978	0.108826	-0.045841
H396	H	0.756311	0.442160	0.287492
N397	N	0.271817	-0.384795	-0.218424
N398	N	0.605150	-0.051462	0.114910
N399	N	0.938483	0.281872	0.448243
H400	H	0.241124	-0.410136	-0.192995
H401	H	0.574457	-0.076803	0.140338
H402	H	0.907791	0.256530	0.473672
H403	H	0.298952	-0.413833	-0.243870
H404	H	0.632285	-0.080500	0.089463
H405	H	0.965619	0.252834	0.422797
H406	H	0.978103	-0.540114	-0.229188
H407	H	1.311437	-0.206781	0.104146
H408	H	1.644770	0.126553	0.437479
N409	N	0.337629	-0.418972	-0.291376
N410	N	0.670962	-0.085639	0.041957
N411	N	1.004295	0.247694	0.375291
H412	H	0.349009	-0.447074	-0.327547
H413	H	0.682342	-0.113740	0.005786
H414	H	1.015676	0.219593	0.339120
H415	H	0.348989	-0.440175	-0.250762
H416	H	0.682322	-0.106842	0.082572
H417	H	1.015656	0.226491	0.415905
