data_functionalizedCrystal
_audit_creation_method	'MofGen! by Chris Wilmer'
_symmetry_space_group_name_H-M	'P1'
_symmetry_Int_Tables_number	1
_symmetry_cell_setting	triclinic
loop_
_symmetry_equiv_pos_as_xyz
  x,y,z
_cell_length_a	17.077404
_cell_length_b	21.295417
_cell_length_c	17.077396
_cell_angle_alpha	89.966808
_cell_angle_beta	89.980499
_cell_angle_gamma	90.030732
loop_
_atom_site_label
_atom_site_type_symbol
_atom_site_fract_x
_atom_site_fract_y
_atom_site_fract_z
Zn1	Zn	1.200013	-0.250605	-0.443817
Zn2	Zn	1.700013	0.249395	0.056183
Zn3	Zn	1.199903	-0.355878	-0.312540
Zn4	Zn	1.699903	0.144122	0.187460
Zn5	Zn	1.068745	-0.250628	-0.312565
Zn6	Zn	1.568745	0.249372	0.187435
Zn7	Zn	1.068695	-0.355841	-0.443764
Zn8	Zn	1.568695	0.144159	0.056236
O9	O	1.134339	-0.303238	-0.378171
O10	O	1.634339	0.196762	0.121829
O11	O	1.309845	-0.264577	-0.426415
O12	O	1.809845	0.235423	0.073585
O13	O	1.182479	-0.341942	-0.202697
O14	O	1.682479	0.158058	0.297303
O15	O	1.086225	-0.162535	-0.330008
O16	O	1.586225	0.337465	0.169992
O17	O	1.309764	-0.341920	-0.329966
O18	O	1.809764	0.158080	0.170034
O19	O	1.182667	-0.162519	-0.426439
O20	O	1.682667	0.337481	0.073561
O21	O	1.086118	-0.264614	-0.202715
O22	O	1.586118	0.235386	0.297285
O23	O	0.958891	-0.264578	-0.329957
O24	O	1.458891	0.235422	0.170043
O25	O	1.086140	-0.341857	-0.553618
O26	O	1.586140	0.158143	-0.053618
O27	O	0.958855	-0.341878	-0.426348
O28	O	1.458855	0.158122	0.073652
O29	O	1.182619	-0.264540	-0.553657
O30	O	1.682619	0.235460	-0.053657
O31	O	1.182431	-0.443963	-0.329915
O32	O	1.682431	0.056037	0.170085
O33	O	1.086033	-0.443935	-0.426324
O34	O	1.586033	0.056065	0.073676
C35	C	0.930391	-0.303227	-0.378150
C36	C	1.430391	0.196773	0.121850
C37	C	0.843141	-0.303237	-0.378159
C38	C	1.343141	0.196763	0.121841
C39	C	1.134236	-0.466790	-0.378128
C40	C	1.634236	0.033210	0.121872
C41	C	1.134264	-0.536758	-0.378136
C42	C	1.634264	-0.036758	0.121864
C43	C	0.802153	-0.343548	-0.428270
C44	C	1.302153	0.156452	0.071730
C45	C	0.720172	-0.343549	-0.428282
C46	C	1.220172	0.156451	0.071718
C47	C	0.679182	-0.303242	-0.378180
C48	C	1.179182	0.196758	0.121820
C49	C	0.720176	-0.262927	-0.328067
C50	C	1.220176	0.237073	0.171933
C51	C	0.802155	-0.262923	-0.328059
C52	C	1.302155	0.237077	0.171941
C53	C	0.549306	-0.262940	-0.328086
C54	C	1.049306	0.237060	0.171914
C55	C	0.467322	-0.262944	-0.328093
C56	C	0.967322	0.237056	0.171907
C57	C	0.467323	-0.343566	-0.428309
C58	C	0.967323	0.156434	0.071691
C59	C	0.549302	-0.343562	-0.428301
C60	C	1.049302	0.156438	0.071699
C61	C	0.590291	-0.303247	-0.378187
C62	C	1.090291	0.196753	0.121813
C63	C	1.184503	-0.569618	-0.327987
C64	C	1.684503	-0.069618	0.172013
C65	C	1.184539	-0.635360	-0.328004
C66	C	1.684539	-0.135360	0.171996
C67	C	1.134323	-0.668240	-0.378163
C68	C	1.634323	-0.168240	0.121837
C69	C	1.084081	-0.635372	-0.428321
C70	C	1.584081	-0.135372	0.071679
C71	C	1.084051	-0.569631	-0.428308
C72	C	1.584051	-0.069631	0.071692
N73	N	1.065655	-0.771506	-0.384140
N74	N	1.565655	-0.271506	0.115860
N75	N	1.065685	-0.833958	-0.384148
N76	N	1.565685	-0.333958	0.115852
C77	C	1.134411	-0.866315	-0.378208
C78	C	1.634411	-0.366315	0.121792
N79	N	1.203107	-0.833862	-0.372244
N80	N	1.703107	-0.333862	0.127756
N81	N	1.203076	-0.771405	-0.372231
N82	N	1.703076	-0.271405	0.127769
C83	C	1.134351	-0.739526	-0.378183
C84	C	1.634351	-0.239526	0.121817
C85	C	1.184694	-0.970461	-0.328075
C86	C	1.684694	-0.470461	0.171925
C87	C	1.184732	-1.036204	-0.328098
C88	C	1.684732	-0.536204	0.171902
C89	C	1.084267	-1.036215	-0.428411
C90	C	1.584267	-0.536215	0.071589
C91	C	1.084236	-0.970473	-0.428392
C92	C	1.584236	-0.470473	0.071608
C93	C	1.134449	-0.937599	-0.378220
C94	C	1.634449	-0.437599	0.121780
C95	C	1.339083	-0.303250	-0.378194
C96	C	1.839083	0.196750	0.121806
C97	C	1.426333	-0.303255	-0.378203
C98	C	1.926333	0.196745	0.121797
C99	C	1.134386	-0.303192	-0.582916
C100	C	1.634386	0.196808	-0.082916
C101	C	1.134407	-0.303172	-0.670166
C102	C	1.634407	0.196828	-0.170166
C103	C	1.134464	-0.139048	-0.378232
C104	C	1.634464	0.360952	0.121768
C105	C	1.134517	-0.069080	-0.378258
C106	C	1.634517	0.430920	0.121742
C107	C	1.184645	-0.262910	-0.711177
C108	C	1.684645	0.237090	-0.211177
C109	C	1.184654	-0.262889	-0.793158
C110	C	1.684654	0.237111	-0.293158
C111	C	1.134429	-0.303134	-0.834125
C112	C	1.634429	0.196866	-0.334125
C113	C	1.084185	-0.343397	-0.793108
C114	C	1.584185	0.156603	-0.293108
C115	C	1.084172	-0.343415	-0.711129
C116	C	1.584172	0.156585	-0.211129
C117	C	1.084217	-0.343360	-0.963978
C118	C	1.584217	0.156640	-0.463978
C119	C	1.084231	-0.343343	-1.045963
C120	C	1.584231	0.156657	-0.545963
C121	C	1.184699	-0.262834	-1.046007
C122	C	1.684699	0.237166	-0.546007
C123	C	1.184686	-0.262851	-0.964028
C124	C	1.684686	0.237149	-0.464028
C125	C	1.134443	-0.303116	-0.923016
C126	C	1.634443	0.196884	-0.423016
C127	C	1.134337	-0.303239	-0.174224
C128	C	1.634337	0.196761	0.325776
C129	C	1.134469	-0.303081	-0.086974
C130	C	1.634469	0.196919	0.413026
H131	H	0.835521	-0.376372	-0.469066
H132	H	1.335521	0.123628	0.030934
Cl133	Cl	1.021011	-0.394030	-0.659571
Cl134	Cl	1.521011	0.105970	-0.159571
Cl135	Cl	0.415792	-0.212275	-0.265102
Cl136	Cl	0.915792	0.287725	0.234898
Cl137	Cl	0.853684	-0.212243	-0.265062
Cl138	Cl	1.353684	0.287757	0.234938
Cl139	Cl	1.247817	-0.929131	-0.265003
Cl140	Cl	1.747817	-0.429131	0.234997
Cl141	Cl	0.415795	-0.394238	-0.491320
Cl142	Cl	0.915795	0.105762	0.008680
H143	H	0.582677	-0.230106	-0.287285
H144	H	1.082677	0.269894	0.212715
Cl145	Cl	0.668647	-0.394228	-0.491281
Cl146	Cl	1.168647	0.105772	0.008719
H147	H	0.582674	-0.376386	-0.469094
H148	H	1.082674	0.123614	0.030906
H149	H	1.225390	-0.542854	-0.287136
H150	H	1.725390	-0.042854	0.212864
Cl151	Cl	1.247862	-0.212216	-1.097564
Cl152	Cl	1.747862	0.287784	-0.597564
Cl153	Cl	1.247700	-0.676679	-0.264954
Cl154	Cl	1.747700	-0.176679	0.235046
Cl155	Cl	1.247902	-1.077515	-0.265054
Cl156	Cl	1.747902	-0.577515	0.234946
Cl157	Cl	1.021143	-1.077544	-0.491474
Cl158	Cl	1.521143	-0.577544	0.008526
Cl159	Cl	1.021071	-0.929160	-0.491437
Cl160	Cl	1.521071	-0.429160	0.008563
Cl161	Cl	0.668645	-0.212251	-0.265086
Cl162	Cl	1.168645	0.287749	0.234914
H163	H	1.043196	-0.662147	-0.469162
H164	H	1.543196	-0.162147	0.030838
H165	H	1.043140	-0.542876	-0.469146
H166	H	1.543140	-0.042876	0.030854
H167	H	1.225547	-0.230140	-0.677828
H168	H	1.725547	0.269860	-0.177828
H169	H	1.225565	-0.230105	-0.826546
H170	H	1.725565	0.269895	-0.326546
H171	H	1.225588	-0.230084	-0.930675
H172	H	1.725588	0.269916	-0.430675
H173	H	1.043331	-0.376113	-1.079316
H174	H	1.543331	0.123887	-0.579316
H175	H	1.043291	-0.376138	-0.930589
H176	H	1.543291	0.123862	-0.430589
Cl177	Cl	1.021041	-0.393989	-0.844610
Cl178	Cl	1.521041	0.106011	-0.344610
