data_functionalizedCrystal
_audit_creation_method	'MofGen! by Chris Wilmer'
_symmetry_space_group_name_H-M	'P1'
_symmetry_Int_Tables_number	1
_symmetry_cell_setting	triclinic
loop_
_symmetry_equiv_pos_as_xyz
  x,y,z
_cell_length_a	6.817900
_cell_length_b	19.551136
_cell_length_c	16.256277
_cell_angle_alpha	95.884898
_cell_angle_beta	103.500353
_cell_angle_gamma	101.650842
loop_
_atom_site_label
_atom_site_type_symbol
_atom_site_fract_x
_atom_site_fract_y
_atom_site_fract_z
V1	V	-4.017725	-0.097242	-0.264293
O2	O	-4.014701	0.004092	-0.258833
O3	O	-3.960368	-0.192256	-0.262898
O4	O	-3.969459	-0.096001	-0.379372
O5	O	-4.005547	-0.092829	-0.141553
V6	V	-4.502496	-0.085091	-0.249562
O7	O	-4.276245	-0.123896	-0.296606
O8	O	-4.694172	-0.058437	-0.217249
O9	O	-4.336646	0.009923	-0.250957
O10	O	-4.622917	-0.186425	-0.255022
O11	O	-4.632071	-0.089504	-0.372303
O12	O	-4.327555	-0.086332	-0.134483
C13	C	-3.803186	-0.215410	-0.258835
C14	C	-3.837578	-0.293087	-0.258461
C15	C	-3.814426	-0.319411	-0.180728
C16	C	-3.846812	-0.392395	-0.180351
C17	C	-3.902311	-0.439051	-0.257711
C18	C	-3.925475	-0.412720	-0.335454
C19	C	-3.893108	-0.339738	-0.335830
C20	C	-3.866887	-0.560182	-0.313803
C21	C	-3.899239	-0.633162	-0.313424
C22	C	-4.002150	-0.664153	-0.256557
C23	C	-4.072672	-0.622152	-0.200054
C24	C	-4.040306	-0.549170	-0.200429
C25	C	-3.937412	-0.518189	-0.257313
C26	C	-4.014116	-0.769613	-0.178410
C27	C	-4.046516	-0.842599	-0.178037
C28	C	-4.125159	-0.862923	-0.333141
C29	C	-4.092778	-0.789939	-0.333513
C30	C	-4.037247	-0.743288	-0.256145
C31	C	-3.814782	-0.092627	-0.407408
C32	C	-3.856544	-0.092241	-0.501489
C33	C	-4.147234	-0.094938	-0.733321
C34	C	-4.046324	-0.034969	-0.776153
C35	C	-3.932909	-0.091515	-0.673732
C36	C	-4.108188	-0.150753	-0.798526
C37	C	-4.006690	-0.090817	-0.840112
C38	C	-3.831422	-0.031504	-0.715315
C39	C	-3.893339	-0.147341	-0.737694
C40	C	-3.792271	-0.087356	-0.780495
C41	C	-3.890411	-0.091917	-0.577885
C42	C	-4.049169	-0.090410	-0.935956
C43	C	-4.157170	0.033073	-0.255018
C44	C	-4.102016	0.110749	-0.255397
C45	C	-4.145574	-0.089709	-0.106442
C46	C	-4.083051	-0.090091	-0.012361
H47	H	-4.027674	-0.864030	-0.114735
C48	C	-4.266837	-0.218830	-0.847298
N49	N	-4.386341	-0.270103	-0.884029
H50	H	-3.911970	-0.318307	-0.399131
C51	C	-3.805541	-0.211537	-0.714449
N52	N	-3.739429	-0.259896	-0.696941
C53	C	-4.134189	0.029228	-0.799357
N54	N	-4.200373	0.077582	-0.816827
C55	C	-3.753352	-0.268099	-0.095621
N56	N	-3.707351	-0.229450	-0.031517
C57	C	-4.118206	-0.760981	-0.419025
N58	N	-4.137358	-0.739171	-0.483438
C59	C	-3.589867	-0.082995	-0.808466
N60	N	-3.437418	-0.079708	-0.829535
C61	C	-3.821328	-0.421358	-0.094836
N62	N	-3.802125	-0.443170	-0.030424
H63	H	-4.097733	-0.514976	-0.154424
C64	C	-3.753676	-0.526101	-0.376365
N65	N	-3.668408	-0.500431	-0.423486
H66	H	-3.841808	-0.667354	-0.359430
C67	C	-4.349298	-0.099172	-0.705109
N68	N	-4.501484	-0.102358	-0.683857
C69	C	-4.185867	-0.656235	-0.137491
N70	N	-4.271114	-0.681909	-0.090367
H71	H	-3.968898	-0.731628	-0.115412
H72	H	-4.170348	-0.900910	-0.396129
C73	C	-3.672930	0.036647	-0.666672
N74	N	-3.553564	0.087979	-0.630032
C75	C	-3.986507	-0.464043	-0.420550
N76	N	-4.032478	-0.502700	-0.484646
