data_functionalizedCrystal
_audit_creation_method	'MofGen! by Chris Wilmer'
_symmetry_space_group_name_H-M	'P1'
_symmetry_Int_Tables_number	1
_symmetry_cell_setting	triclinic
loop_
_symmetry_equiv_pos_as_xyz
  x,y,z
_cell_length_a	19.805404
_cell_length_b	11.169417
_cell_length_c	11.169409
_cell_angle_alpha	90.021683
_cell_angle_beta	89.962334
_cell_angle_gamma	89.971469
loop_
_atom_site_label
_atom_site_type_symbol
_atom_site_fract_x
_atom_site_fract_y
_atom_site_fract_z
Zn1	Zn	-0.269428	-1.834802	-0.678558
Zn2	Zn	-0.382637	-1.834624	-0.477856
Zn3	Zn	-0.269465	-1.634088	-0.477886
Zn4	Zn	-0.382578	-1.634028	-0.678494
O5	O	-0.326027	-1.734385	-0.578198
O6	O	-0.284454	-2.002728	-0.651948
O7	O	-0.367665	-1.807973	-0.309910
O8	O	-0.174743	-1.660812	-0.504544
O9	O	-0.367628	-2.002597	-0.504494
O10	O	-0.174716	-1.808276	-0.651977
O11	O	-0.284518	-1.660640	-0.309932
O12	O	-0.284461	-1.466130	-0.504483
O13	O	-0.367528	-1.660710	-0.846453
O14	O	-0.367564	-1.466086	-0.651869
O15	O	-0.284397	-1.808218	-0.846499
O16	O	-0.477346	-1.807915	-0.504432
O17	O	-0.477302	-1.660538	-0.651840
C18	C	-0.326011	-1.422561	-0.578173
C19	C	-0.326020	-1.289161	-0.578190
C20	C	-0.501883	-1.734233	-0.578152
C21	C	-0.577115	-1.734277	-0.578173
C22	C	-1.038906	-1.811419	-0.501611
C23	C	-0.968217	-1.811363	-0.501588
C24	C	-0.932876	-1.734543	-0.578262
C25	C	-0.968228	-1.657765	-0.654956
C26	C	-1.038915	-1.657816	-0.654973
C27	C	-0.683154	-1.657556	-0.654890
C28	C	-0.612462	-1.657513	-0.654870
C29	C	-0.612457	-1.811103	-0.501505
C30	C	-0.683144	-1.811154	-0.501522
C31	C	-0.718489	-1.734372	-0.578211
C32	C	-0.795138	-1.734433	-0.578234
C33	C	-0.856229	-1.734487	-0.578246
C34	C	-0.149484	-1.734571	-0.578271
C35	C	-0.074252	-1.734650	-0.578302
C36	C	-0.325952	-1.734477	-0.891241
C37	C	-0.325920	-1.734517	-1.024641
C38	C	-0.326038	-1.047427	-0.578215
C39	C	-0.326028	-1.180827	-0.578198
C40	C	-0.326053	-1.734362	-0.266374
C41	C	-0.325894	-1.734556	-0.132974
H42	H	-0.939439	-1.873873	-0.439139
C43	C	-0.533035	-1.827812	-0.340041
C44	C	-0.573604	-1.895493	-0.417190
H45	H	-0.509054	-1.879912	-0.287989
H46	H	-0.501873	-1.782065	-0.385700
H47	H	-0.560667	-1.775570	-0.294098
H48	H	-0.545971	-1.947729	-0.463140
H49	H	-0.604770	-1.941260	-0.371527
C50	C	-1.118482	-1.828270	-0.340234
C51	C	-1.077759	-1.895876	-0.417353
H52	H	-1.142471	-1.880416	-0.288227
H53	H	-1.090958	-1.776006	-0.294253
H54	H	-1.149643	-1.782551	-0.385927
H55	H	-1.046594	-1.941588	-0.371660
H56	H	-1.105285	-1.948161	-0.463339
H57	H	-0.583689	-1.594953	-0.717310
H58	H	-0.939449	-1.595210	-0.717382
H59	H	-0.711915	-1.873713	-0.439090
C60	C	-0.676049	-1.505739	-0.806493
C61	C	-0.722000	-1.573167	-0.739194
H62	H	-0.700035	-1.453645	-0.858546
H63	H	-0.648526	-1.459844	-0.754154
H64	H	-0.648432	-1.558004	-0.852438
H65	H	-0.749614	-1.520903	-0.693243
H66	H	-0.749534	-1.619066	-0.791541
C67	C	-1.118351	-1.641115	-0.816410
C68	C	-1.077773	-1.573433	-0.739275
H69	H	-1.142342	-1.589014	-0.868447
H70	H	-1.090728	-1.693348	-0.862360
H71	H	-1.149510	-1.686869	-0.770732
H72	H	-1.046610	-1.527686	-0.784952
H73	H	-1.105398	-1.521179	-0.693321
