data_functionalizedCrystal
_audit_creation_method	'MofGen! by Chris Wilmer'
_symmetry_space_group_name_H-M	'P1'
_symmetry_Int_Tables_number	1
_symmetry_cell_setting	triclinic
loop_
_symmetry_equiv_pos_as_xyz
  x,y,z
_cell_length_a	17.038272
_cell_length_b	14.044191
_cell_length_c	13.101039
_cell_angle_alpha	86.337551
_cell_angle_beta	86.388703
_cell_angle_gamma	87.848334
loop_
_atom_site_label
_atom_site_type_symbol
_atom_site_fract_x
_atom_site_fract_y
_atom_site_fract_z
O1	O	-0.185617	1.277886	-0.085138
O2	O	0.314383	1.777886	0.414862
O3	O	-0.178770	1.001365	-0.085152
O4	O	0.321230	1.501365	0.414848
O5	O	-0.068263	1.137983	-0.085154
O6	O	0.431737	1.637983	0.414846
O7	O	-0.296125	1.141269	-0.085136
O8	O	0.203875	1.641269	0.414864
O9	O	-0.076206	1.128182	0.085276
O10	O	0.423794	1.628182	0.585276
O11	O	-0.186714	0.991564	0.085278
O12	O	0.313286	1.491564	0.585278
O13	O	-0.193560	1.268085	0.085292
O14	O	0.306440	1.768085	0.585292
Zn15	Zn	-0.191398	1.128269	0.112344
Zn16	Zn	0.308602	1.628269	0.612344
Zn17	Zn	-0.180933	1.141182	-0.112205
Zn18	Zn	0.319067	1.641182	0.387795
O19	O	-0.304068	1.131468	0.085294
O20	O	0.195932	1.631468	0.585294
C21	C	-0.179747	0.960909	0.000061
C22	C	0.320253	1.460909	0.500061
C23	C	-0.170813	0.854963	0.000055
C24	C	0.329187	1.354963	0.500055
C25	C	-0.217840	0.608468	0.000069
C26	C	0.282160	1.108468	0.500069
C27	C	-0.154494	0.660989	0.000062
C28	C	0.345506	1.160989	0.500062
C29	C	-0.163576	0.768926	0.000058
C30	C	0.336424	1.268926	0.500058
C31	C	-0.208759	0.500521	0.000073
C32	C	0.291241	1.000521	0.500073
C33	C	-0.329434	1.139358	0.000081
C34	C	0.170566	1.639358	0.500081
C35	C	-0.416851	1.148276	0.000088
C36	C	0.083149	1.648276	0.500088
C37	C	-0.461235	1.066388	0.000084
C38	C	0.038765	1.566388	0.500084
C39	C	-0.543372	1.074775	0.000071
C40	C	-0.043372	1.574775	0.500071
C41	C	-0.581124	1.165051	0.000071
C42	C	-0.081124	1.665051	0.500071
C43	C	-0.536734	1.246945	0.000072
C44	C	-0.036734	1.746945	0.500072
C45	C	-0.454598	1.238558	0.000077
C46	C	0.045402	1.738558	0.500077
C47	C	-0.828954	1.194682	0.000049
C48	C	-0.328954	1.694682	0.500049
C49	C	-0.911096	1.203063	0.000047
C50	C	-0.411096	1.703063	0.500047
C51	C	-0.917728	1.030892	0.000044
C52	C	-0.417728	1.530892	0.500044
C53	C	-0.835590	1.022512	0.000055
C54	C	-0.335590	1.522512	0.500055
C55	C	-0.791208	1.104407	0.000051
C56	C	-0.291208	1.604407	0.500051
C57	C	-0.665081	1.173625	0.000061
C58	C	-0.165081	1.673625	0.500061
C59	C	-0.707252	1.095832	0.000053
C60	C	-0.207252	1.595832	0.500053
C61	C	-0.042897	1.130093	0.000056
C62	C	0.457103	1.630093	0.500056
C63	C	0.044521	1.121175	0.000042
C64	C	0.544521	1.621175	0.500042
C65	C	-0.192584	1.308542	0.000076
C66	C	0.307416	1.808542	0.500076
C67	C	-0.201517	1.414488	0.000076
C68	C	0.298483	1.914488	0.500076
N69	N	-0.198540	1.119463	0.265593
N70	N	0.301460	1.619463	0.765593
N71	N	-0.173785	1.149995	-0.265453
N72	N	0.326215	1.649995	0.234547
C73	C	-0.208265	1.107482	0.474636
C74	C	0.291735	1.607482	0.974636
C75	C	-0.164062	1.161973	0.525510
C76	C	0.335938	1.661973	1.025510
C77	C	-0.169473	1.155307	0.641829
C78	C	0.330527	1.655307	1.141829
C79	C	-0.202855	1.114147	0.358306
C80	C	0.297145	1.614147	0.858306
H81	H	-0.430504	0.992875	0.000096
H82	H	0.069496	1.492875	0.500096
H83	H	-0.093436	0.624895	-0.000015
H84	H	0.406564	1.124895	0.499985
H85	H	-0.278890	0.644564	0.000070
H86	H	0.221110	1.144564	0.500070
H87	H	-0.579505	1.008093	0.000064
H88	H	-0.079505	1.508093	0.500064
H89	H	-0.804858	0.949001	0.000044
H90	H	-0.304858	1.449001	0.500044
H91	H	-0.953873	0.964218	0.000046
H92	H	-0.453873	1.464218	0.500046
H93	H	-0.941831	1.276580	0.000047
H94	H	-0.441831	1.776580	0.500047
H95	H	-0.676510	1.022330	0.000048
H96	H	-0.176510	1.522330	0.500048
H97	H	-0.792828	1.261367	0.000052
H98	H	-0.292828	1.761367	0.500052
H99	H	-0.695829	1.247126	0.000095
H100	H	-0.195829	1.747126	0.500095
H101	H	-0.122156	1.213630	0.481707
H102	H	0.377844	1.713630	0.981707
H103	H	-0.567478	1.320450	0.000074
H104	H	-0.067478	1.820450	0.500074
H105	H	-0.418462	1.305241	0.000077
H106	H	0.081538	1.805241	0.500077
H107	H	-0.250170	1.055830	0.518433
H108	H	0.249830	1.555830	1.018433
