data_functionalizedCrystal
_audit_creation_method	'MofGen! by Chris Wilmer'
_symmetry_space_group_name_H-M	'P1'
_symmetry_Int_Tables_number	1
_symmetry_cell_setting	triclinic
loop_
_symmetry_equiv_pos_as_xyz
  x,y,z
_cell_length_a	19.077105
_cell_length_b	19.121063
_cell_length_c	19.076919
_cell_angle_alpha	94.606347
_cell_angle_beta	90.076224
_cell_angle_gamma	90.263052
loop_
_atom_site_label
_atom_site_type_symbol
_atom_site_fract_x
_atom_site_fract_y
_atom_site_fract_z
Zn1	Zn	1.043169	-0.339734	-0.454309
Zn2	Zn	1.376503	-0.006401	-0.120976
Zn3	Zn	1.709836	0.326933	0.212357
Zn4	Zn	1.042790	-0.452646	-0.341419
Zn5	Zn	1.376124	-0.119312	-0.008086
Zn6	Zn	1.709457	0.214021	0.325247
Zn7	Zn	0.930805	-0.330327	-0.331718
Zn8	Zn	1.264139	0.003007	0.001615
Zn9	Zn	1.597472	0.336340	0.334949
Zn10	Zn	0.920631	-0.452222	-0.454155
Zn11	Zn	1.253964	-0.118889	-0.120821
Zn12	Zn	1.587297	0.214445	0.212512
O13	O	0.984349	-0.393732	-0.395400
O14	O	1.317682	-0.060399	-0.062067
O15	O	1.651015	0.272935	0.271266
O16	O	1.141268	-0.358826	-0.443459
O17	O	1.474601	-0.025493	-0.110126
O18	O	1.807934	0.307840	0.223208
O19	O	1.032035	-0.432660	-0.241647
O20	O	1.365368	-0.099327	0.091686
O21	O	1.698701	0.234007	0.425019
O22	O	0.950127	-0.233307	-0.343985
O23	O	1.283460	0.100026	-0.010651
O24	O	1.616794	0.433360	0.322682
O25	O	1.140989	-0.441782	-0.360519
O26	O	1.474323	-0.108449	-0.027186
O27	O	1.807656	0.224885	0.306147
O28	O	1.032681	-0.240219	-0.434052
O29	O	1.366014	0.093115	-0.100719
O30	O	1.699347	0.426448	0.232615
O31	O	0.949760	-0.342793	-0.234520
O32	O	1.283093	-0.009459	0.098813
O33	O	1.616426	0.323874	0.432147
O34	O	0.831307	-0.342382	-0.343835
O35	O	1.164640	-0.009049	-0.010501
O36	O	1.497973	0.324285	0.322832
O37	O	0.932786	-0.441060	-0.552660
O38	O	1.266120	-0.107727	-0.219327
O39	O	1.599453	0.225607	0.114007
O40	O	0.823831	-0.431938	-0.433788
O41	O	1.157165	-0.098605	-0.100455
O42	O	1.490498	0.234729	0.232878
O43	O	1.022815	-0.358416	-0.552774
O44	O	1.356148	-0.025082	-0.219440
O45	O	1.689481	0.308251	0.113893
O46	O	1.022169	-0.550857	-0.360369
O47	O	1.355502	-0.217524	-0.027036
O48	O	1.688836	0.115810	0.306297
O49	O	0.932419	-0.550546	-0.443195
O50	O	1.265752	-0.217212	-0.109862
O51	O	1.599085	0.116121	0.223471
C52	C	0.802120	-0.386094	-0.387742
C53	C	1.135453	-0.052760	-0.054409
C54	C	1.468787	0.280573	0.278924
C55	C	0.724160	-0.382844	-0.384484
C56	C	1.057494	-0.049510	-0.051150
C57	C	1.390827	0.283823	0.282183
C58	C	0.683661	-0.428009	-0.429719
C59	C	1.016995	-0.094676	-0.096386
C60	C	1.350328	0.238658	0.236948
C61	C	0.610410	-0.424946	-0.426660
C62	C	0.943743	-0.091613	-0.093327
C63	C	1.277077	0.241721	0.240007
C64	C	0.577659	-0.376721	-0.378362
C65	C	0.910993	-0.043387	-0.045029
C66	C	1.244326	0.289946	0.288305
C67	C	0.618164	-0.331551	-0.333125
C68	C	0.951497	0.001783	0.000208
C69	C	1.284831	0.335116	0.333542
C70	C	0.691414	-0.334611	-0.336188
C71	C	1.024747	-0.001277	-0.002854
C72	C	1.358081	0.332056	0.330479
C73	C	0.359002	-0.362559	-0.364190
C74	C	0.692335	-0.029225	-0.030857
C75	C	1.025668	0.304108	0.302476
C76	C	0.285746	-0.359503	-0.361130
C77	C	0.619080	-0.026170	-0.027796
C78	C	0.952413	0.307163	0.305537
C79	C	0.277998	-0.452898	-0.454666
C80	C	0.611331	-0.119565	-0.121333
C81	C	0.944664	0.213769	0.212001
C82	C	0.351249	-0.455957	-0.457722
C83	C	0.684582	-0.122623	-0.124388
C84	C	1.017916	0.210710	0.208945
C85	C	0.391747	-0.410784	-0.412487
C86	C	0.725081	-0.077451	-0.079154
C87	C	1.058414	0.255882	0.254180
N88	N	0.502785	-0.373590	-0.375233
N89	N	0.836118	-0.040257	-0.041899
N90	N	1.169452	0.293076	0.291434
N91	N	0.466620	-0.413912	-0.415620
N92	N	0.799954	-0.080578	-0.082287
N93	N	1.133287	0.252755	0.251046
C94	C	0.976167	-0.576182	-0.402834
C95	C	1.309500	-0.242849	-0.069501
C96	C	1.642834	0.090484	0.263832
C97	C	0.972730	-0.654239	-0.406041
C98	C	1.306063	-0.320906	-0.072708
C99	C	1.639397	0.012428	0.260626
C100	C	1.017877	-0.691052	-0.364463
C101	C	1.351210	-0.357718	-0.031130
C102	C	1.684543	-0.024385	0.302204
C103	C	1.014648	-0.764395	-0.367483
C104	C	1.347981	-0.431061	-0.034150
C105	C	1.681315	-0.097728	0.299184
C106	C	0.966269	-0.800923	-0.412078
C107	C	1.299602	-0.467590	-0.078745
C108	C	1.632936	-0.134256	0.254589
C109	C	0.921120	-0.764105	-0.453660
C110	C	1.254454	-0.430772	-0.120327
C111	C	1.587787	-0.097439	0.213006
C112	C	0.924353	-0.690764	-0.450644
C113	C	1.257686	-0.357431	-0.117310
C114	C	1.591020	-0.024097	0.216023
C115	C	0.954173	-1.022359	-0.423346
C116	C	1.287506	-0.689026	-0.090012
C117	C	1.620840	-0.355693	0.243321
C118	C	0.950942	-1.095705	-0.426358
C119	C	1.284276	-0.762372	-0.093025
C120	C	1.617609	-0.429039	0.240309
C121	C	1.044471	-1.095990	-0.340181
C122	C	1.377805	-0.762656	-0.006848
C123	C	1.711138	-0.429323	0.326486
C124	C	1.047697	-1.022647	-0.337165
C125	C	1.381030	-0.689314	-0.003832
C126	C	1.714363	-0.355980	0.329502
C127	C	1.002551	-0.985836	-0.378750
C128	C	1.335884	-0.652502	-0.045417
C129	C	1.669217	-0.319169	0.287916
C130	C	0.962966	-0.875891	-0.415164
C131	C	1.296300	-0.542558	-0.081831
C132	C	1.629633	-0.209224	0.251502
C133	C	1.005857	-0.910869	-0.375667
C134	C	1.339191	-0.577536	-0.042334
C135	C	1.672524	-0.244203	0.291000
C136	C	1.167289	-0.401401	-0.403088
C137	C	1.500622	-0.068067	-0.069755
C138	C	1.833956	0.265266	0.263578
C139	C	1.245247	-0.404669	-0.406365
C140	C	1.578581	-0.071335	-0.073031
C141	C	1.911914	0.261998	0.260302
C142	C	0.976708	-0.400740	-0.578967
C143	C	1.310041	-0.067407	-0.245634
C144	C	1.643375	0.265927	0.087700
C145	C	0.973452	-0.403726	-0.657192
C146	C	1.306785	-0.070393	-0.323859
C147	C	1.640118	0.262940	0.009474
C148	C	0.992581	-0.210571	-0.387953
C149	C	1.325914	0.122763	-0.054620
C150	C	1.659248	0.456096	0.278713
C151	C	0.996089	-0.132518	-0.384780
C152	C	1.329422	0.200815	-0.051447
C153	C	1.662756	0.534149	0.281887
C154	C	1.018793	-0.362103	-0.694003
C155	C	1.352126	-0.028769	-0.360670
C156	C	1.685459	0.304564	-0.027336
C157	C	1.015725	-0.364906	-0.767503
C158	C	1.349058	-0.031572	-0.434170
C159	C	1.682391	0.301761	-0.100837
C160	C	0.967319	-0.409336	-0.804192
C161	C	1.300652	-0.076003	-0.470859
C162	C	1.633986	0.257330	-0.137525
C163	C	0.921973	-0.450962	-0.767376
C164	C	1.255306	-0.117628	-0.434043
C165	C	1.588640	0.215705	-0.100709
C166	C	0.925038	-0.448154	-0.693877
C167	C	1.258371	-0.114821	-0.360543
C168	C	1.591705	0.218512	-0.027210
C169	C	0.953123	-0.422342	-1.024005
C170	C	1.286456	-0.089009	-0.690672
C171	C	1.619789	0.244325	-0.357338
C172	C	0.950063	-0.425148	-1.097510
C173	C	1.283396	-0.091814	-0.764176
C174	C	1.616729	0.241519	-0.430843
C175	C	1.043814	-0.339090	-1.097632
C176	C	1.377147	-0.005757	-0.764298
C177	C	1.710480	0.327576	-0.430965
C178	C	1.046877	-0.336290	-1.024131
C179	C	1.380211	-0.002957	-0.690798
C180	C	1.713544	0.330376	-0.357464
C181	C	1.001529	-0.377913	-0.987321
C182	C	1.334862	-0.044579	-0.653988
C183	C	1.668196	0.288754	-0.320655
N184	N	0.964183	-0.412204	-0.879321
N185	N	1.297517	-0.078871	-0.545988
N186	N	1.630850	0.254463	-0.212655
N187	N	1.004662	-0.375041	-0.912193
N188	N	1.337995	-0.041707	-0.578860
N189	N	1.671328	0.291626	-0.245526
C190	C	0.992003	-0.386702	-0.212547
C191	C	1.325336	-0.053369	0.120786
C192	C	1.658669	0.279964	0.454119
C193	C	0.995403	-0.383524	-0.134320
C194	C	1.328737	-0.050191	0.199013
C195	C	1.662070	0.283143	0.532347
H196	H	0.377909	-0.495228	-0.497049
H197	H	0.711243	-0.161895	-0.163716
H198	H	1.044576	0.171438	0.169617
H199	H	0.245016	-0.489674	-0.491494
H200	H	0.578350	-0.156340	-0.158161
H201	H	0.911683	0.176993	0.175172
Cl202	Cl	0.861117	-0.506815	-0.813499
Cl203	Cl	1.194450	-0.173482	-0.480166
Cl204	Cl	1.527784	0.159852	-0.146832
H205	H	0.888110	-0.482041	-0.663906
H206	H	1.221443	-0.148708	-0.330573
H207	H	1.554777	0.184625	0.002761
Cl208	Cl	0.867597	-0.644485	-0.502918
Cl209	Cl	1.200930	-0.311152	-0.169585
Cl210	Cl	1.534263	0.022182	0.163749
Cl211	Cl	0.244575	-0.298878	-0.300402
Cl212	Cl	0.577909	0.034455	0.032931
Cl213	Cl	0.911242	0.367789	0.366264
Cl214	Cl	1.079652	-0.306247	-0.647887
Cl215	Cl	1.412986	0.027086	-0.314554
Cl216	Cl	1.746319	0.360419	0.018779
Cl217	Cl	0.897416	-0.976092	-0.475624
Cl218	Cl	1.230749	-0.642758	-0.142290
Cl219	Cl	1.564083	-0.309425	0.191043
H220	H	0.391967	-0.325781	-0.327352
H221	H	0.725300	0.007552	0.005981
H222	H	1.058633	0.340886	0.339315
Cl223	Cl	0.576992	-0.270920	-0.272412
Cl224	Cl	0.910325	0.062413	0.060922
Cl225	Cl	1.243658	0.395747	0.394255
H226	H	1.057269	-0.661315	-0.328146
H227	H	1.390602	-0.327982	0.005187
H228	H	1.723936	0.005352	0.338521
Cl229	Cl	1.071409	-0.810671	-0.315213
Cl230	Cl	1.404742	-0.477337	0.018120
Cl231	Cl	1.738076	-0.144004	0.351453
H232	H	1.087091	-0.992907	-0.300852
H233	H	1.420424	-0.659574	0.032481
H234	H	1.753757	-0.326240	0.365814
Cl235	Cl	0.742328	-0.277828	-0.279320
Cl236	Cl	1.075661	0.055506	0.054013
Cl237	Cl	1.408994	0.388839	0.387347
H238	H	1.081228	-1.125969	-0.306326
H239	H	1.414561	-0.792636	0.027008
H240	H	1.747894	-0.459303	0.360341
Cl241	Cl	1.072757	-0.312608	-0.813779
Cl242	Cl	1.406091	0.020725	-0.480446
Cl243	Cl	1.739424	0.354058	-0.147112
Cl244	Cl	0.890110	-1.141625	-0.482415
Cl245	Cl	1.223443	-0.808292	-0.149081
Cl246	Cl	1.556776	-0.474959	0.184252
H247	H	1.086296	-0.300112	-0.994264
H248	H	1.419630	0.033221	-0.660931
H249	H	1.752963	0.366555	-0.327598
H250	H	0.881732	-0.793853	-0.489974
H251	H	1.215065	-0.460519	-0.156640
H252	H	1.548399	-0.127186	0.176693
H253	H	0.577438	-0.461725	-0.463495
H254	H	0.910772	-0.128391	-0.130161
H255	H	1.244105	0.204942	0.203172
H256	H	0.710321	-0.467281	-0.469046
H257	H	1.043654	-0.133948	-0.135713
H258	H	1.376988	0.199385	0.197621
Cl259	Cl	1.066677	-0.864947	-0.319610
Cl260	Cl	1.400010	-0.531614	0.013723
Cl261	Cl	1.733344	-0.198280	0.347057
Cl262	Cl	0.902148	-0.921819	-0.471224
Cl263	Cl	1.235481	-0.588485	-0.137891
Cl264	Cl	1.568815	-0.255152	0.195443
H265	H	1.080733	-0.305203	-1.127610
H266	H	1.414066	0.028131	-0.794277
H267	H	1.747399	0.361464	-0.460943
Cl268	Cl	0.889201	-0.481004	-1.143631
Cl269	Cl	1.222534	-0.147670	-0.810298
Cl270	Cl	1.555868	0.185663	-0.476965
H271	H	0.916207	-0.456245	-0.994044
H272	H	1.249540	-0.122911	-0.660711
H273	H	1.582874	0.210422	-0.327377
