data_functionalizedCrystal
_audit_creation_method	'MofGen! by Chris Wilmer'
_symmetry_space_group_name_H-M	'P1'
_symmetry_Int_Tables_number	1
_symmetry_cell_setting	triclinic
loop_
_symmetry_equiv_pos_as_xyz
  x,y,z
_cell_length_a	16.109301
_cell_length_b	10.654541
_cell_length_c	15.186229
_cell_angle_alpha	89.996481
_cell_angle_beta	89.999362
_cell_angle_gamma	83.972705
loop_
_atom_site_label
_atom_site_type_symbol
_atom_site_fract_x
_atom_site_fract_y
_atom_site_fract_z
O1	O	1.104089	0.161419	-0.073172
O2	O	0.862147	0.181508	-0.073186
O3	O	0.988682	-0.011352	-0.073174
O4	O	0.977554	0.354278	-0.073185
O5	O	0.988673	-0.011354	0.073284
O6	O	0.862138	0.181505	0.073271
O7	O	1.104081	0.161416	0.073285
Zn8	Zn	0.983108	0.171460	0.096531
Zn9	Zn	0.983119	0.171464	-0.096433
O10	O	0.977546	0.354276	0.073272
C11	C	0.831163	0.180692	0.000040
C12	C	0.738853	0.178253	0.000035
C13	C	0.987861	-0.058140	0.000054
C14	C	0.985418	-0.197550	0.000053
C15	C	0.517227	0.287019	0.000042
C16	C	0.430493	0.284717	0.000048
C17	C	0.449008	0.055896	0.000051
C18	C	0.535740	0.058200	0.000052
C19	C	0.569847	0.173765	0.000043
C20	C	0.396381	0.169159	0.000048
C21	C	0.302340	0.166662	0.000054
C22	C	0.663894	0.176262	0.000038
C23	C	1.136725	-0.227574	0.000073
C24	C	1.211227	-0.308079	0.000084
C25	C	1.208926	-0.439066	0.000081
C26	C	1.132115	-0.489549	0.000064
C27	C	1.057613	-0.409044	0.000053
C28	C	1.059922	-0.278056	0.000058
C29	C	0.906308	-0.379021	0.000026
C30	C	0.908607	-0.248034	0.000036
C31	C	0.829496	-0.429504	0.000009
C32	C	0.754992	-0.348998	0.000004
C33	C	0.757296	-0.218004	0.000008
C34	C	0.834104	-0.167529	0.000024
C35	C	1.135065	0.162231	0.000056
C36	C	1.227375	0.164671	0.000055
C37	C	0.978367	0.401064	0.000042
C38	C	0.980810	0.540474	0.000038
N39	N	0.983107	0.171457	0.228224
N40	N	0.983128	0.171457	-0.228125
C41	C	1.039156	0.086088	0.453952
C42	C	1.039158	0.086085	0.546142
C43	C	0.927072	0.256830	0.546140
C44	C	0.927066	0.256826	0.453952
C45	C	0.983113	0.171456	0.407860
C46	C	0.983121	0.171458	0.592238
C47	C	0.983124	0.171455	0.692194
C48	C	0.983110	0.171457	0.307898
H49	H	0.387652	0.376940	0.000049
H50	H	0.827628	-0.536161	0.000001
H51	H	0.421227	-0.038193	0.000064
C52	C	0.578238	-0.136125	-0.075240
C53	C	0.593589	-0.066299	0.000049
H54	H	0.613956	-0.212976	-0.075241
H55	H	0.521710	-0.154038	-0.075235
H56	H	0.588651	-0.088720	-0.126307
H57	H	0.583170	-0.113700	0.051116
H58	H	0.650130	-0.048389	0.000051
C59	C	0.604015	0.422371	-0.075254
C60	C	0.554716	0.414048	0.000037
H61	H	0.627152	0.500800	-0.075256
H62	H	0.647767	0.355263	-0.075247
H63	H	0.570555	0.416716	-0.126319
H64	H	0.588177	0.419694	0.051103
H65	H	0.510958	0.481175	0.000039
H66	H	1.273765	-0.266961	0.000106
C67	C	1.086695	-0.131309	0.425629
C68	C	1.100752	-0.007789	0.403309
H69	H	1.124719	-0.189275	0.394368
H70	H	1.094707	-0.143484	0.487126
H71	H	1.031128	-0.144942	0.410513
H72	H	1.156318	0.005847	0.418431
H73	H	1.092747	0.004391	0.341798
C74	C	0.625301	-0.363755	0.075263
C75	C	0.670567	-0.404485	-0.000019
H76	H	0.573177	-0.398008	0.075244
H77	H	0.655999	-0.391409	0.126329
H78	H	0.616015	-0.274222	0.075261
H79	H	0.679858	-0.494019	-0.000014
H80	H	0.639862	-0.376838	-0.051098
C81	C	1.222404	-0.056281	0.000102
C82	C	1.139256	-0.083592	0.000083
H83	H	1.223965	0.032608	0.000103
H84	H	1.249805	-0.091462	0.051176
H85	H	1.249827	-0.091453	-0.050971
H86	H	1.111834	-0.048428	0.051159
H87	H	1.111843	-0.048395	-0.050996
C88	C	1.358724	-0.455601	0.000109
C89	C	1.290819	-0.527564	0.000095
H90	H	1.409280	-0.510239	0.000122
H91	H	1.356487	-0.403887	-0.050960
H92	H	1.356465	-0.403888	0.051186
H93	H	1.293074	-0.579271	-0.050985
H94	H	1.293057	-0.579301	0.051170
C95	C	0.877319	0.332663	0.687457
C96	C	0.865477	0.350678	0.596807
H97	H	0.839296	0.390610	0.718734
H98	H	0.867805	0.248857	0.702570
H99	H	0.932888	0.346324	0.702548
H100	H	0.809910	0.337007	0.581715
H101	H	0.874984	0.434503	0.581689
H102	H	1.130248	-0.596207	0.000051
H103	H	0.696627	-0.152463	-0.000006
H104	H	1.084792	0.016568	0.583667
C105	C	0.796209	0.028277	0.075313
C106	C	0.836641	-0.023547	0.000032
H107	H	0.797783	0.117163	0.075318
H108	H	0.739809	0.009743	0.075294
H109	H	0.823625	-0.006918	0.126385
H110	H	0.809221	0.011641	-0.051040
H111	H	0.893051	-0.005003	0.000043
C112	C	0.816276	0.425618	0.463202
C113	C	0.865461	0.350675	0.403281
H114	H	0.778249	0.483555	0.431918
H115	H	0.786073	0.373335	0.499163
H116	H	0.851152	0.470807	0.499154
H117	H	0.830586	0.305478	0.367333
H118	H	0.895667	0.402965	0.367304
