data_functionalizedCrystal
_audit_creation_method	'MofGen! by Chris Wilmer'
_symmetry_space_group_name_H-M	'P1'
_symmetry_Int_Tables_number	1
_symmetry_cell_setting	triclinic
loop_
_symmetry_equiv_pos_as_xyz
  x,y,z
_cell_length_a	12.827893
_cell_length_b	12.759399
_cell_length_c	12.759393
_cell_angle_alpha	89.973195
_cell_angle_beta	90.020760
_cell_angle_gamma	89.985780
loop_
_atom_site_label
_atom_site_type_symbol
_atom_site_fract_x
_atom_site_fract_y
_atom_site_fract_z
Zn1	Zn	1.597693	0.418216	0.594042
Zn2	Zn	1.597586	0.593932	0.418374
Zn3	Zn	1.422930	0.418267	0.418378
Zn4	Zn	1.422923	0.593854	0.594011
O5	O	1.510283	0.506067	0.506201
O6	O	1.743915	0.441537	0.570750
O7	O	1.574376	0.570684	0.271353
O8	O	1.446160	0.271240	0.441695
O9	O	1.743837	0.570634	0.441687
O10	O	1.574558	0.271202	0.570755
O11	O	1.446057	0.441624	0.271356
O12	O	1.276693	0.441548	0.441665
O13	O	1.446149	0.570501	0.741036
O14	O	1.276688	0.570550	0.570702
O15	O	1.574552	0.441461	0.741059
O16	O	1.574369	0.740943	0.441658
O17	O	1.446045	0.740885	0.570698
C18	C	1.238773	0.506047	0.506181
C19	C	1.122620	0.506064	0.506198
C20	C	1.510223	0.779035	0.506197
C21	C	1.510293	0.895811	0.506230
C22	C	1.510361	0.505966	0.780235
C23	C	1.510395	0.505923	0.897011
C24	C	1.070861	0.569998	0.569951
C25	C	0.950810	0.570017	0.569969
C26	C	1.782853	0.506088	0.506222
C27	C	1.899006	0.506097	0.506231
C28	C	1.577189	0.950668	0.439119
C29	C	1.577257	1.060392	0.439162
C30	C	1.443526	1.060393	0.573430
C31	C	1.443464	0.950671	0.573392
C32	C	1.510376	1.232034	0.506247
C33	C	1.510425	1.115257	0.506312
C34	C	1.510266	0.506092	0.233234
C35	C	1.510435	0.505839	0.116458
C36	C	1.577259	0.438722	0.951887
C37	C	1.577277	0.438676	1.061611
C38	C	1.443563	0.573044	1.061575
C39	C	1.443541	0.573083	0.951852
H40	H	1.115424	0.624717	0.624522
C41	C	1.369874	0.890321	0.647220
C42	C	1.251087	0.905504	0.638552
C43	C	1.177505	0.845154	0.712381
C44	C	1.222710	0.769622	0.794878
C45	C	1.341503	0.754436	0.803549
C46	C	1.415085	0.814785	0.729720
H47	H	1.217618	0.961420	0.577480
H48	H	1.089567	0.856396	0.705962
H49	H	1.168241	0.724947	0.849531
H50	H	1.374972	0.698519	0.864621
H51	H	1.503024	0.803543	0.736140
H52	H	1.631607	0.906004	0.384434
C53	C	0.959123	0.432144	0.432486
C54	C	0.944156	0.440565	0.313025
C55	C	1.004281	0.366612	0.239281
C56	C	1.079374	0.284238	0.284998
C57	C	1.094345	0.275814	0.404466
C58	C	1.034220	0.349767	0.478210
H59	H	0.888564	0.501546	0.279177
H60	H	0.993198	0.372849	0.150843
H61	H	1.123883	0.229494	0.230408
H62	H	1.149937	0.214833	0.438314
H63	H	1.045302	0.343530	0.566648
H64	H	1.389135	0.627725	1.106239
C65	C	1.650843	1.120735	0.365338
C66	C	1.724352	1.060387	0.291470
C67	C	1.797944	1.120730	0.217644
C68	C	1.798026	1.241419	0.217688
C69	C	1.724515	1.301774	0.291559
C70	C	1.650923	1.241432	0.365384
H71	H	1.724294	0.971039	0.291435
H72	H	1.852362	1.076051	0.162960
H73	H	1.852503	1.286088	0.163038
H74	H	1.724573	1.391122	0.291594
H75	H	1.596505	1.286111	0.420069
H76	H	1.631723	0.383952	1.106286
C77	C	1.370008	1.120741	0.647296
C78	C	1.296424	1.060396	0.721119
C79	C	1.222900	1.120742	0.794983
C80	C	1.222960	1.241431	0.795024
C81	C	1.296546	1.301783	0.721199
C82	C	1.370070	1.241438	0.647334
H83	H	1.296378	0.971048	0.721090
H84	H	1.168427	1.076065	0.849634
H85	H	1.168533	1.286103	0.849703
H86	H	1.296592	1.391131	0.721227
H87	H	1.424543	1.286114	0.592684
H88	H	0.906298	0.624756	0.624548
H89	H	1.389085	0.627806	0.907172
H90	H	1.078057	0.451337	0.451634
H91	H	1.631693	0.384033	0.907238
