data_functionalizedCrystal
_audit_creation_method	'MofGen! by Chris Wilmer'
_symmetry_space_group_name_H-M	'P1'
_symmetry_Int_Tables_number	1
_symmetry_cell_setting	triclinic
loop_
_symmetry_equiv_pos_as_xyz
  x,y,z
_cell_length_a	15.944499
_cell_length_b	15.021413
_cell_length_c	10.489716
_cell_angle_alpha	89.991904
_cell_angle_beta	84.003373
_cell_angle_gamma	90.009905
loop_
_atom_site_label
_atom_site_type_symbol
_atom_site_fract_x
_atom_site_fract_y
_atom_site_fract_z
O1	O	1.115533	0.074077	0.164173
O2	O	0.871099	0.074067	0.184524
O3	O	0.998889	0.074075	-0.011330
O4	O	0.987743	0.074069	0.360027
O5	O	0.998869	-0.073989	-0.011302
O6	O	0.871079	-0.073998	0.184552
O7	O	1.115513	-0.073987	0.164201
Zn8	Zn	0.993293	-0.097501	0.174381
Zn9	Zn	0.993319	0.097580	0.174344
O10	O	0.987723	-0.073996	0.360055
C11	C	0.839789	0.000033	0.183705
C12	C	0.746526	0.000029	0.181207
C13	C	0.455667	0.000041	0.294993
C14	C	0.516354	0.073047	0.235830
C15	C	0.410835	0.000050	0.172132
C16	C	0.516320	-0.072933	0.235825
C17	C	0.575771	0.000038	0.176597
C18	C	0.470294	0.073117	0.112935
C19	C	0.470253	-0.072929	0.112947
C20	C	0.530922	0.000095	0.053695
C21	C	0.315820	0.000058	0.169563
C22	C	0.670785	0.000037	0.179157
N23	N	0.993280	-0.230638	0.174405
C24	C	0.934181	-0.470326	0.264926
C25	C	1.010230	-0.529657	0.289667
C26	C	0.993302	-0.412245	0.174373
C27	C	0.917273	-0.529655	0.149661
C28	C	0.993316	-0.587669	0.174346
C29	C	1.069390	-0.470270	0.199172
C30	C	0.976382	-0.470263	0.059116
C31	C	1.052486	-0.529568	0.083808
C32	C	0.993293	-0.311188	0.174393
C33	C	0.993333	-0.688724	0.174325
C34	C	1.146823	0.000049	0.165020
C35	C	1.240086	0.000058	0.167518
C36	C	0.998041	0.000046	-0.058836
C37	C	0.995536	0.000054	-0.200432
N38	N	0.993338	0.230718	0.174310
C39	C	1.073901	0.000049	-0.299214
C40	C	1.032501	0.073049	-0.376003
C41	C	1.032463	-0.072931	-0.375939
C42	C	0.954169	0.073114	-0.275356
C43	C	0.954142	-0.072932	-0.275287
C44	C	0.912685	0.000085	-0.352025
C45	C	0.988571	0.000036	0.407562
C46	C	0.991076	0.000034	0.549157
H47	H	0.536770	0.134762	0.287788
H48	H	0.563492	0.000136	-0.048359
O49	O	1.155251	0.000039	-0.271073
C50	C	1.196835	-0.076204	-0.324476
H51	H	1.162887	-0.101409	-0.407821
H52	H	1.196527	-0.130345	-0.248255
C53	C	1.330230	-0.021347	-0.270825
C54	C	1.288539	-0.052300	-0.373197
H55	H	1.386798	-0.006604	-0.300873
H56	H	1.302214	0.030018	-0.234841
H57	H	1.329965	-0.066470	-0.207315
H58	H	1.288796	-0.007174	-0.436696
H59	H	1.316557	-0.103657	-0.409192
H60	H	0.422944	0.000109	0.396955
O61	O	1.072049	-0.146468	-0.428427
C62	C	1.139767	-0.120261	-0.517799
H63	H	1.160484	-0.050043	-0.494273
H64	H	1.118811	-0.121349	-0.618422
C65	C	1.188614	-0.271262	-0.540172
C66	C	1.214064	-0.185021	-0.511271
H67	H	1.234443	-0.311210	-0.536151
H68	H	1.142989	-0.288919	-0.479965
H69	H	1.171150	-0.272155	-0.624023
H70	H	1.231517	-0.184126	-0.427416
H71	H	1.259693	-0.167365	-0.571465
H72	H	0.852971	-0.555743	0.128772
H73	H	0.921082	-0.134654	-0.231289
O74	O	1.072109	0.146613	-0.428443
C75	C	1.157024	0.146373	-0.402072
H76	H	1.177185	0.075333	-0.382206
H77	H	1.164034	0.189644	-0.314537
C78	C	1.188317	0.270875	-0.542748
C79	C	1.213080	0.183620	-0.518359
H80	H	1.222895	0.293854	-0.614476
H81	H	1.131107	0.271039	-0.560512
H82	H	1.194159	0.306923	-0.469794
H83	H	1.207228	0.147572	-0.591306
H84	H	1.270291	0.183451	-0.500611
O85	O	0.445961	0.146807	0.051070
C86	C	0.357655	0.145931	0.049438
H87	H	0.327923	0.102661	0.131316
H88	H	0.341354	0.117714	-0.045805
C89	C	0.359899	0.294689	-0.034857
C90	C	0.323380	0.241550	0.065715
H91	H	0.338755	0.353671	-0.024822
H92	H	0.419392	0.295279	-0.033762
H93	H	0.346311	0.271164	-0.114216
H94	H	0.336977	0.265069	0.145070
H95	H	0.263887	0.240966	0.064634
O96	O	0.914681	0.146856	-0.223366
C97	C	0.884681	0.198434	-0.321341
H98	H	0.876572	0.154235	-0.407534
H99	H	0.931861	0.253587	-0.350963
C100	C	0.809093	0.294263	-0.166052
C101	C	0.799126	0.239975	-0.271912
H102	H	0.756321	0.319892	-0.135562
H103	H	0.829307	0.259517	-0.100044
H104	H	0.848412	0.340217	-0.190752
H105	H	0.759816	0.194016	-0.247208
H106	H	0.778903	0.274715	-0.337916
O107	O	0.445892	-0.146649	0.051202
C108	C	0.469109	-0.223474	0.116306
H109	H	0.476470	-0.205987	0.220299
H110	H	0.531470	-0.250108	0.068082
C111	C	0.391247	-0.316516	-0.015638
C112	C	0.400281	-0.295039	0.112090
H113	H	0.348794	-0.360663	-0.018243
H114	H	0.375608	-0.264758	-0.059504
H115	H	0.443219	-0.338706	-0.055810
H116	H	0.348314	-0.272839	0.152255
H117	H	0.415911	-0.346795	0.155963
O118	O	0.540517	-0.146540	0.298020
C119	C	0.501850	-0.146251	0.425196
H120	H	0.442491	-0.103513	0.431286
H121	H	0.547482	-0.117759	0.491358
C122	C	0.551059	-0.294647	0.459032
C123	C	0.478150	-0.242162	0.466511
H124	H	0.536443	-0.353809	0.484521
H125	H	0.577113	-0.294841	0.373354
H126	H	0.589079	-0.270894	0.514168
H127	H	0.440137	-0.265909	0.411364
H128	H	0.452089	-0.241974	0.552182
O129	O	0.874688	-0.439324	0.356515
C130	C	0.892850	-0.469608	0.477861
H131	H	0.962814	-0.486238	0.474248
H132	H	0.853975	-0.531727	0.505191
C133	C	0.784759	-0.375884	0.582812
C134	C	0.870693	-0.396303	0.578377
H135	H	0.771089	-0.330669	0.644817
H136	H	0.772521	-0.355484	0.501059
H137	H	0.752374	-0.427656	0.605582
H138	H	0.903077	-0.344534	0.555591
H139	H	0.882936	-0.416693	0.660129
O140	O	1.027437	-0.560688	0.405925
C141	C	1.107032	-0.529155	0.432671
H142	H	1.123429	-0.466201	0.374649
H143	H	1.156810	-0.582266	0.405734
C144	C	1.084446	-0.585328	0.647919
C145	C	1.104582	-0.508002	0.576663
H146	H	1.082938	-0.572283	0.736739
H147	H	1.030823	-0.606575	0.629898
H148	H	1.125931	-0.629580	0.625456
H149	H	1.063092	-0.463756	0.599114
H150	H	1.158199	-0.486747	0.594690
O151	O	1.146181	-0.439440	0.224199
C152	C	1.199897	-0.511984	0.241712
H153	H	1.176603	-0.573290	0.191901
H154	H	1.199825	-0.526100	0.348511
C155	C	1.318744	-0.414048	0.245036
C156	C	1.290138	-0.489344	0.183849
H157	H	1.374410	-0.400082	0.209350
H158	H	1.282554	-0.365173	0.233243
H159	H	1.318677	-0.425821	0.334033
H160	H	1.290195	-0.477566	0.094858
H161	H	1.326330	-0.538217	0.195626
H162	H	1.102544	-0.555417	0.007214
O163	O	0.959317	-0.438957	-0.057054
C164	C	0.960297	-0.345106	-0.055729
H165	H	0.999942	-0.320916	0.021755
H166	H	0.893100	-0.319108	-0.034789
C167	C	0.949894	-0.340095	-0.282402
C168	C	0.998592	-0.310384	-0.187242
H169	H	0.973513	-0.318676	-0.363527
H170	H	0.949231	-0.403324	-0.283295
H171	H	0.893900	-0.318428	-0.264935
H172	H	1.054582	-0.332061	-0.204701
H173	H	0.999266	-0.247158	-0.186355
H174	H	0.844470	0.000122	-0.375491
