data_functionalizedCrystal
_audit_creation_method	'MofGen! by Chris Wilmer'
_symmetry_space_group_name_H-M	'P1'
_symmetry_Int_Tables_number	1
_symmetry_cell_setting	triclinic
loop_
_symmetry_equiv_pos_as_xyz
  x,y,z
_cell_length_a	16.992694
_cell_length_b	16.992695
_cell_length_c	15.455313
_cell_angle_alpha	92.847427
_cell_angle_beta	87.142206
_cell_angle_gamma	90.668223
loop_
_atom_site_label
_atom_site_type_symbol
_atom_site_fract_x
_atom_site_fract_y
_atom_site_fract_z
O1	O	1.054080	0.163694	-0.072023
O2	O	0.825681	0.161862	-0.072048
O3	O	0.938965	0.048579	-0.072029
O4	O	0.940797	0.276978	-0.072042
O5	O	0.932485	0.055028	0.072232
O6	O	0.819202	0.168312	0.072213
O7	O	1.047601	0.170144	0.072238
Cu8	Cu	0.932809	0.169817	0.085398
Cu9	Cu	0.940473	0.162189	-0.085207
O10	O	0.934317	0.283428	0.072219
C11	C	0.793081	0.162731	0.000079
C12	C	0.705597	0.155702	0.000070
C13	C	0.659607	0.223520	0.000066
C14	C	0.577405	0.216911	0.000079
C15	C	0.541197	0.142484	0.000088
C16	C	0.587193	0.074661	0.000094
C17	C	0.669393	0.081271	0.000088
C18	C	0.295881	0.115091	0.000113
C19	C	0.213676	0.108486	0.000116
C20	C	0.203893	0.250737	0.000103
C21	C	0.286095	0.257340	0.000091
C22	C	0.332084	0.189517	0.000102
N23	N	0.457174	0.135727	0.000098
N24	N	0.416105	0.196275	0.000098
C25	C	0.933369	0.022443	0.000102
C26	C	0.926341	-0.065041	0.000101
C27	C	0.994158	-0.111032	0.000109
C28	C	0.987550	-0.193233	0.000100
C29	C	0.913123	-0.229442	0.000089
C30	C	0.845300	-0.183445	0.000078
C31	C	0.851910	-0.101246	0.000081
C32	C	0.885729	-0.474757	0.000074
C33	C	0.879124	-0.556962	0.000074
C34	C	1.021375	-0.566744	0.000094
C35	C	1.027977	-0.484543	0.000102
C36	C	0.960155	-0.438554	0.000087
N37	N	0.906366	-0.313464	0.000082
N38	N	0.966913	-0.354533	0.000087
C39	C	1.080201	0.169275	0.000109
C40	C	1.167685	0.176304	0.000113
C41	C	0.939913	0.309563	0.000087
C42	C	0.946942	0.397047	0.000082
N43	N	0.927425	0.175181	0.205392
N44	N	0.945863	0.156819	-0.205202
C45	C	0.975571	0.127074	0.250795
C46	C	0.971507	0.131139	0.341602
C47	C	0.919301	0.183315	0.387005
C48	C	0.871149	0.231424	0.341596
C49	C	0.875210	0.227355	0.250791
C50	C	0.901772	0.200858	0.658584
C51	C	0.897717	0.204926	0.749395
C52	C	0.998074	0.104639	0.749395
C53	C	1.002133	0.100578	0.658588
C54	C	0.953979	0.148684	0.613187
N55	N	0.915147	0.187473	0.479825
N56	N	0.958129	0.144522	0.520369
H57	H	0.706838	0.026046	0.000090
O58	O	1.044803	0.057791	0.793405
C59	C	1.028097	-0.021936	0.771245
H60	H	1.000712	-0.026707	0.705317
H61	H	0.985099	-0.046464	0.822359
C62	C	1.138562	-0.063588	0.848026
C63	C	1.104933	-0.069449	0.767048
H64	H	1.185957	-0.092898	0.845441
H65	H	1.149816	-0.009875	0.862959
H66	H	1.102722	-0.084027	0.890612
H67	H	1.140768	-0.049001	0.724466
H68	H	1.093687	-0.123160	0.752108
H69	H	0.689081	0.284126	0.000058
O70	O	0.772952	-0.218520	0.000180
C71	C	0.727947	-0.192134	0.074898
H72	H	0.751852	-0.132732	0.099812
H73	H	0.731733	-0.236739	0.127216
C74	C	0.612022	-0.256258	0.021589
C75	C	0.641377	-0.183296	0.052184
H76	H	0.558620	-0.250809	0.007580
H77	H	0.642342	-0.274037	-0.028749
H78	H	0.615184	-0.293421	0.065192
H79	H	0.638224	-0.146136	0.008577
H80	H	0.611054	-0.165510	0.102514
H81	H	1.054764	-0.081557	0.000124
H82	H	1.076591	-0.604197	0.000106
O83	O	0.552054	0.002351	0.000255
C84	C	0.571786	-0.035971	0.074959
H85	H	0.589177	0.009795	0.127179
H86	H	0.623309	-0.077236	0.058068
C87	C	0.478887	-0.140124	0.044703
C88	C	0.500242	-0.083912	0.108843
H89	H	0.434758	-0.169700	0.065603
H90	H	0.465595	-0.114308	-0.005628
H91	H	0.521829	-0.174503	0.030633
H92	H	0.457304	-0.049528	0.122904
H93	H	0.513525	-0.109724	0.159178
H94	H	1.042774	-0.230675	0.000109
H95	H	1.018087	0.084591	0.213834
H96	H	0.184198	0.047876	0.000123
H97	H	0.539963	0.272136	0.000075
H98	H	1.088584	-0.455068	0.000112
H99	H	0.796685	-0.063801	0.000073
H100	H	0.818513	-0.586440	0.000079
O101	O	0.819794	-0.430181	-0.000047
C102	C	0.778276	-0.450618	-0.074774
H103	H	0.794827	-0.512801	-0.099684
H104	H	0.794196	-0.407367	-0.127090
C105	C	0.668730	-0.370994	-0.021489
C106	C	0.689054	-0.447371	-0.052079
H107	H	0.613694	-0.368988	-0.007491
H108	H	0.696703	-0.357222	0.028855
H109	H	0.682003	-0.334960	-0.065090
H110	H	0.675790	-0.483402	-0.008474
H111	H	0.661077	-0.461148	-0.102416
H112	H	1.010711	0.091966	0.378568
O113	O	1.052550	0.049535	0.614585
C114	C	1.009397	-0.004031	0.562370
H115	H	0.950554	0.023102	0.548583
H116	H	0.998466	-0.060746	0.597714
C117	C	1.128788	-0.055909	0.493147
C118	C	1.056518	-0.022580	0.476207
H119	H	1.157854	-0.067354	0.439999
H120	H	1.157861	-0.019822	0.528328
H121	H	1.119667	-0.103167	0.522603
H122	H	1.065639	0.024682	0.446763
H123	H	1.027447	-0.058659	0.441020
O124	O	0.321364	0.329594	0.000177
C125	C	0.365274	0.341036	0.074884
H126	H	0.380708	0.281393	0.099821
H127	H	0.328857	0.375957	0.127195
C128	C	0.422629	0.460185	0.021515
C129	C	0.441590	0.386930	0.052138
H130	H	0.469702	0.488497	0.007486
H131	H	0.393043	0.452478	-0.028815
H132	H	0.392280	0.489275	0.065112
H133	H	0.471930	0.357837	0.008537
H134	H	0.471183	0.394633	0.102461
H135	H	0.166440	0.305954	0.000096
H136	H	0.862564	0.240030	0.621625
O137	O	0.846923	0.255623	0.793367
C138	C	0.805301	0.297220	0.733825
H139	H	0.805291	0.261993	0.669099
H140	H	0.834941	0.356889	0.724156
C141	C	0.719825	0.352909	0.848775
C142	C	0.719806	0.309639	0.769280
H143	H	0.667089	0.360573	0.870646
H144	H	0.747868	0.324886	0.888891
H145	H	0.744529	0.402628	0.840708
H146	H	0.695112	0.259917	0.777351
H147	H	0.691757	0.337654	0.729166
H148	H	0.836004	0.266527	0.213825
O149	O	0.340433	0.049128	0.000081
C150	C	0.290844	-0.017976	0.000110
H151	H	0.232040	-0.003054	-0.027204
H152	H	0.280502	-0.037450	0.069322
C153	C	0.402302	-0.103455	-0.022910
C154	C	0.330081	-0.085129	-0.056463
H155	H	0.426506	-0.144880	-0.057803
H156	H	0.435712	-0.058246	-0.022926
H157	H	0.393674	-0.119679	0.034766
H158	H	0.338711	-0.068897	-0.114134
H159	H	0.296673	-0.130337	-0.056458
O160	O	0.820504	0.282089	0.385833
C161	C	0.827230	0.275355	0.475716
H162	H	0.887417	0.250447	0.488115
H163	H	0.779050	0.234210	0.501501
C164	C	0.744434	0.387815	0.507093
C165	C	0.818360	0.357229	0.522321
H166	H	0.738959	0.438318	0.535843
H167	H	0.739899	0.392351	0.446537
H168	H	0.704292	0.353521	0.528581
H169	H	0.858499	0.391519	0.500824
H170	H	0.822901	0.352701	0.582875
