data_functionalizedCrystal
_audit_creation_method	'MofGen! by Chris Wilmer'
_symmetry_space_group_name_H-M	'P1'
_symmetry_Int_Tables_number	1
_symmetry_cell_setting	triclinic
loop_
_symmetry_equiv_pos_as_xyz
  x,y,z
_cell_length_a	8.597340
_cell_length_b	8.559649
_cell_length_c	7.681481
_cell_angle_alpha	85.068589
_cell_angle_beta	103.474906
_cell_angle_gamma	77.625114
loop_
_atom_site_label
_atom_site_type_symbol
_atom_site_fract_x
_atom_site_fract_y
_atom_site_fract_z
O1	O	2.072798	0.220972	0.168058
O2	O	1.605620	0.246432	0.097176
O3	O	1.880368	0.001097	0.138866
O4	O	1.798050	0.466307	0.126368
O5	O	1.914193	-0.029168	0.436857
O6	O	1.639446	0.216167	0.395167
O7	O	2.106623	0.190707	0.466049
Zn8	Zn	1.878405	0.198632	0.477920
Zn9	Zn	1.833839	0.238507	0.085305
O10	O	1.831875	0.436042	0.424359
C11	C	1.563278	0.230251	0.237181
C12	C	1.386718	0.227109	0.210393
C13	C	1.903519	-0.073565	0.288805
C14	C	1.922087	-0.250946	0.291615
C15	C	2.148965	0.206888	0.326040
C16	C	2.325523	0.210032	0.352817
C17	C	1.808724	0.510704	0.274416
C18	C	1.790155	0.688086	0.271595
N19	N	1.908832	0.171417	0.745871
N20	N	1.803426	0.265709	-0.182644
H21	H	2.049246	-0.334450	0.310914
H22	H	1.662990	-0.228403	0.252314
H23	H	1.304026	0.239326	0.067947
O24	O	1.674867	0.380440	0.708344
C25	C	1.525345	0.349978	0.730571
H26	H	1.548350	0.274672	0.867964
H27	H	1.473780	0.281125	0.619036
C28	C	1.372339	0.603931	0.551173
C29	C	1.400592	0.511451	0.719929
H30	H	1.295381	0.703534	0.544601
H31	H	1.473073	0.624452	0.536191
H32	H	1.329375	0.546535	0.458246
H33	H	1.443574	0.568838	0.812851
H34	H	1.299862	0.490943	0.734926
O35	O	2.037146	0.056393	0.854856
C36	C	2.025194	-0.097135	0.808166
H37	H	1.948361	-0.083160	0.662619
H38	H	1.963712	-0.157097	0.902576
C39	C	2.293349	-0.219885	1.005003
C40	C	2.198992	-0.202722	0.826235
H41	H	2.400554	-0.285020	1.016156
H42	H	2.301399	-0.116452	1.036466
H43	H	2.242094	-0.269848	1.083658
H44	H	2.250236	-0.152742	0.747587
H45	H	2.190954	-0.306150	0.794760
H46	H	1.408209	0.197804	0.495254
