data_functionalizedCrystal
_audit_creation_method	'MofGen! by Chris Wilmer'
_symmetry_space_group_name_H-M	'P1'
_symmetry_Int_Tables_number	1
_symmetry_cell_setting	triclinic
loop_
_symmetry_equiv_pos_as_xyz
  x,y,z
_cell_length_a	10.489716
_cell_length_b	11.026607
_cell_length_c	9.482900
_cell_angle_alpha	78.599815
_cell_angle_beta	80.615688
_cell_angle_gamma	83.442424
loop_
_atom_site_label
_atom_site_type_symbol
_atom_site_fract_x
_atom_site_fract_y
_atom_site_fract_z
O1	O	1.747323	-0.152544	-0.120879
O2	O	2.247323	0.347456	0.379121
O3	O	1.379673	-0.168677	-0.120884
O4	O	1.879673	0.331323	0.379116
O5	O	1.533027	0.016306	-0.120877
O6	O	2.033027	0.516306	0.379123
O7	O	1.593969	-0.337526	-0.120886
O8	O	2.093969	0.162474	0.379114
O9	O	1.501912	-0.021421	0.120914
O10	O	2.001912	0.478579	0.620914
O11	O	1.348558	-0.206403	0.120907
O12	O	1.848558	0.293597	0.620907
O13	O	1.716208	-0.190270	0.120912
O14	O	2.216208	0.309730	0.620912
Cu15	Cu	1.529542	-0.201781	0.142987
Cu16	Cu	2.029542	0.298219	0.642987
Cu17	Cu	1.566339	-0.157166	-0.142959
Cu18	Cu	2.066339	0.342834	0.357041
O19	O	1.562855	-0.375253	0.120904
O20	O	2.062855	0.124747	0.620904
C21	C	1.316317	-0.186328	0.000011
C22	C	1.816317	0.313672	0.500011
C23	C	1.173888	-0.182701	0.000009
C24	C	1.673888	0.317299	0.500009
C25	C	1.101169	-0.296137	0.000002
C26	C	1.601169	0.203863	0.500002
C27	C	0.995295	-0.254797	0.119226
C28	C	1.495295	0.245203	0.619226
C29	C	1.025972	-0.217575	-0.119161
C30	C	1.525972	0.282425	0.380839
C31	C	1.069878	-0.141423	0.119331
C32	C	1.569878	0.358577	0.619331
C33	C	1.100578	-0.104201	-0.119163
C34	C	1.600578	0.395799	0.380837
C35	C	0.994731	-0.062782	0.000090
C36	C	1.494731	0.437218	0.500090
C37	C	1.506227	0.042751	0.000017
C38	C	2.006227	0.542751	0.500017
C39	C	1.472714	0.177756	0.000011
C40	C	1.972714	0.677756	0.500011
C41	C	1.779565	-0.172619	0.000014
C42	C	2.279565	0.327381	0.500014
C43	C	1.921995	-0.176244	0.000006
C44	C	2.421995	0.323756	0.500006
C45	C	1.589655	-0.401698	0.000008
C46	C	2.089655	0.098302	0.500008
C47	C	1.623170	-0.536701	0.000004
C48	C	2.123170	-0.036701	0.500004
N49	N	1.503671	-0.233161	0.344106
N50	N	2.003671	0.266839	0.844106
C51	C	1.565253	0.250761	0.000010
C52	C	2.065253	0.750761	0.500010
C53	C	1.530617	0.390296	0.000005
C54	C	2.030617	0.890296	0.500005
N55	N	1.592219	-0.125776	-0.344078
N56	N	2.092219	0.374224	0.155922
C57	C	1.558698	-0.166415	0.416308
C58	C	2.058698	0.333585	0.916308
C59	C	1.537184	-0.192533	0.583724
C60	C	2.037184	0.307467	1.083724
H61	H	1.147530	-0.394828	0.000111
H62	H	1.647530	0.105172	0.500111
F63	F	0.935273	-0.337941	0.250966
F64	F	1.435273	0.162059	0.750966
F65	F	1.702327	0.197441	0.000004
F66	F	2.202327	0.697441	0.500004
H67	H	1.440627	-0.309636	0.406233
H68	H	1.940627	0.190364	0.906233
F69	F	1.760252	0.409988	-0.000001
F70	F	2.260252	0.909988	0.499999
H71	H	1.621731	-0.089930	0.354183
H72	H	2.121731	0.410070	0.854183
H73	H	1.655256	-0.049287	0.593801
H74	H	2.155256	0.450713	1.093801
H75	H	0.948570	0.035953	0.000161
H76	H	1.448570	0.535953	0.500161
F77	F	1.095759	-0.099446	0.251209
F78	F	1.595759	0.400554	0.751209
F79	F	1.335642	0.231079	-0.000004
F80	F	1.835642	0.731079	0.499996
H81	H	1.146519	-0.040624	-0.219959
H82	H	1.646519	0.459376	0.280041
F83	F	0.999862	-0.259641	-0.250888
F84	F	1.499862	0.240359	0.249112
H85	H	1.474135	-0.269013	0.645845
H86	H	1.974135	0.230987	1.145845
H87	H	1.425743	0.431091	-0.000006
H88	H	1.925743	0.931091	0.499994
