data_functionalizedCrystal
_audit_creation_method	'MofGen! by Chris Wilmer'
_symmetry_space_group_name_H-M	'P1'
_symmetry_Int_Tables_number	1
_symmetry_cell_setting	triclinic
loop_
_symmetry_equiv_pos_as_xyz
  x,y,z
_cell_length_a	15.995350
_cell_length_b	15.944551
_cell_length_c	14.472310
_cell_angle_alpha	89.997979
_cell_angle_beta	89.990621
_cell_angle_gamma	83.495557
loop_
_atom_site_label
_atom_site_type_symbol
_atom_site_fract_x
_atom_site_fract_y
_atom_site_fract_z
O1	O	1.111003	0.108264	-0.076765
O2	O	0.867228	0.121634	-0.076784
O3	O	0.995772	-0.007326	-0.076765
O4	O	0.982458	0.237224	-0.076783
O5	O	0.995739	-0.007319	0.076917
O6	O	0.867195	0.121641	0.076898
O7	O	1.110969	0.108272	0.076917
Cu8	Cu	0.989079	0.114957	0.090940
Cu9	Cu	0.989118	0.114948	-0.090807
O10	O	0.982425	0.237232	0.076899
C11	C	0.836017	0.121085	0.000055
C12	C	0.743066	0.119428	0.000048
C13	C	0.405318	0.113477	0.000067
C14	C	0.452747	0.021634	0.000417
C15	C	0.549438	0.023291	0.000064
C16	C	0.572879	0.116429	0.000058
C17	C	0.531813	0.161724	-0.087701
C18	C	0.435178	0.159417	-0.087768
C19	C	0.434801	0.161323	0.086997
C20	C	0.531746	0.161302	0.088150
C21	C	0.667577	0.118102	0.000050
C22	C	0.310620	0.111806	0.000069
C23	C	0.995203	-0.038616	0.000076
C24	C	0.993546	-0.131862	0.000076
C25	C	0.909908	-0.346714	0.000057
C26	C	0.948730	-0.407730	0.075834
C27	C	0.990548	-0.302588	0.000069
C28	C	0.948782	-0.407721	-0.075684
C29	C	0.987647	-0.467501	0.000058
C30	C	1.029393	-0.362376	0.075909
C31	C	1.029433	-0.362360	-0.075678
C32	C	1.068315	-0.423358	0.000119
C33	C	0.992217	-0.207586	0.000076
C34	C	0.985984	-0.562502	0.000057
C35	C	1.142181	0.108821	0.000077
C36	C	1.235131	0.110478	0.000078
C37	C	0.982995	0.268522	0.000056
C38	C	0.984652	0.361768	0.000049
N39	N	0.989058	0.114963	0.218771
N40	N	0.989146	0.114936	-0.218638
C41	C	0.989117	0.114945	0.592862
C42	C	0.920105	0.183717	0.553686
C43	C	0.920264	0.183968	0.446598
C44	C	0.989087	0.114954	0.407271
C45	C	1.076453	0.134096	0.446114
C46	C	1.076065	0.134585	0.553235
C47	C	0.971543	0.026826	0.553396
C48	C	0.969539	0.027414	0.446269
C49	C	0.989075	0.114957	0.302383
C50	C	0.989135	0.114943	0.697750
H51	H	0.402934	0.226847	-0.091755
N52	N	0.903527	-0.434360	0.160682
H53	H	0.903221	-0.497668	0.160359
H54	H	0.933400	-0.417002	0.217869
H55	H	1.016539	-0.026162	0.419502
H56	H	0.931173	0.248741	0.580592
H57	H	0.854954	0.172500	0.579470
H58	H	0.547114	0.229221	0.093447
H59	H	1.063458	-0.342384	0.140043
H60	H	0.545943	0.230150	-0.090969
H61	H	0.414250	0.131301	0.153516
N62	N	0.392741	0.251020	0.087783
H63	H	0.354770	0.260653	0.032135
H64	H	0.358292	0.261055	0.146043
H65	H	0.931487	0.249360	0.420961
N66	N	0.410933	0.115654	-0.174656
H67	H	0.462998	0.098039	-0.212553
H68	H	0.382977	0.064101	-0.157567
H69	H	0.577851	-0.012314	0.062974
N70	N	0.834243	0.168886	0.411796
H71	H	0.839093	0.115974	0.372884
H72	H	0.795918	0.162050	0.466088
H73	H	0.842972	-0.313403	0.000127
N74	N	1.096577	0.219707	0.586324
H75	H	1.105785	0.256560	0.531323
H76	H	1.048326	0.247316	0.624649
N77	N	0.884403	0.008200	0.412636
H78	H	0.891040	-0.045883	0.375687
H79	H	0.846545	0.001668	0.467408
H80	H	0.434210	-0.015075	0.063353
H81	H	0.433165	-0.014912	-0.062167
N82	N	0.569398	0.120051	-0.174220
H83	H	0.632006	0.123780	-0.175227
H84	H	0.558745	0.058820	-0.175035
N85	N	1.157053	-0.467291	0.000173
H86	H	1.187382	-0.450816	0.057433
H87	H	1.155386	-0.530419	-0.000406
N88	N	1.074600	-0.335701	-0.160530
H89	H	1.044097	-0.352004	-0.217742
H90	H	1.075850	-0.272520	-0.159489
H91	H	1.021870	-0.024352	0.578730
H92	H	0.577307	-0.012561	-0.062951
N93	N	0.903607	-0.434340	-0.160538
H94	H	0.843781	-0.406171	-0.160471
H95	H	0.933536	-0.417031	-0.217723
H96	H	1.129023	0.086470	0.579148
N97	N	1.146109	0.069513	0.412380
H98	H	1.121643	0.027124	0.371494
H99	H	1.188262	0.098776	0.376044
N100	N	1.097459	0.218250	0.410561
H101	H	1.052661	0.264228	0.431090
H102	H	1.153802	0.229926	0.435949
N103	N	0.888974	0.002457	0.589217
H104	H	0.841720	0.046312	0.569732
H105	H	0.879019	-0.054277	0.563026
H106	H	0.559047	0.128236	0.153074
