data_functionalizedCrystal
_audit_creation_method	'MofGen! by Chris Wilmer'
_symmetry_space_group_name_H-M	'P1'
_symmetry_Int_Tables_number	1
_symmetry_cell_setting	triclinic
loop_
_symmetry_equiv_pos_as_xyz
  x,y,z
_cell_length_a	14.519731
_cell_length_b	9.065218
_cell_length_c	12.996460
_cell_angle_alpha	90.006701
_cell_angle_beta	90.005861
_cell_angle_gamma	95.647631
loop_
_atom_site_label
_atom_site_type_symbol
_atom_site_fract_x
_atom_site_fract_y
_atom_site_fract_z
O1	O	0.135227	-1.957859	0.085572
O2	O	0.385227	-1.707859	0.335572
O3	O	0.635227	-1.457859	0.585572
O4	O	0.885227	-1.207859	0.835572
O5	O	0.146319	-1.528368	0.085574
O6	O	0.396319	-1.278368	0.335574
O7	O	0.646319	-1.028368	0.585574
O8	O	0.896319	-0.778368	0.835574
O9	O	0.006619	-1.754485	0.085564
O10	O	0.256619	-1.504485	0.335564
O11	O	0.506619	-1.254485	0.585564
O12	O	0.756619	-1.004485	0.835564
O13	O	0.274927	-1.731743	0.085582
O14	O	0.524927	-1.481743	0.335582
O15	O	0.774927	-1.231743	0.585582
O16	O	1.024927	-0.981743	0.835582
O17	O	0.006611	-1.754514	-0.085570
O18	O	0.256611	-1.504514	0.164430
O19	O	0.506611	-1.254514	0.414430
O20	O	0.756611	-1.004514	0.664430
O21	O	0.146311	-1.528397	-0.085560
O22	O	0.396311	-1.278397	0.164440
O23	O	0.646311	-1.028397	0.414440
O24	O	0.896311	-0.778397	0.664440
O25	O	0.135219	-1.957889	-0.085562
O26	O	0.385219	-1.707889	0.164438
O27	O	0.635219	-1.457889	0.414438
O28	O	0.885219	-1.207889	0.664438
Cu29	Cu	0.140764	-1.743146	-0.101187
Cu30	Cu	0.390764	-1.493146	0.148813
Cu31	Cu	0.640764	-1.243146	0.398813
Cu32	Cu	0.890764	-0.993146	0.648813
Cu33	Cu	0.140774	-1.743111	0.101199
Cu34	Cu	0.390774	-1.493111	0.351199
Cu35	Cu	0.640774	-1.243111	0.601199
Cu36	Cu	0.890774	-0.993111	0.851199
O37	O	0.274919	-1.731772	-0.085551
O38	O	0.524919	-1.481772	0.164449
O39	O	0.774919	-1.231772	0.414449
O40	O	1.024919	-0.981772	0.664449
C41	C	0.145249	-1.473416	0.000007
C42	C	0.395249	-1.223416	0.250007
C43	C	0.645249	-0.973416	0.500007
C44	C	0.895249	-0.723416	0.750007
C45	C	0.142062	-1.309632	0.000007
C46	C	0.392062	-1.059632	0.250007
C47	C	0.642062	-0.809632	0.500007
C48	C	0.892062	-0.559632	0.750007
N49	N	0.140757	-1.743181	-0.243534
N50	N	0.390757	-1.493181	0.006466
N51	N	0.640757	-1.243181	0.256466
N52	N	0.890757	-0.993181	0.506466
C53	C	-0.027752	-1.753434	-0.000003
C54	C	0.222248	-1.503434	0.249997
C55	C	0.472248	-1.253434	0.499997
C56	C	0.722248	-1.003434	0.749997
C57	C	-0.130156	-1.750241	-0.000004
C58	C	0.119844	-1.500241	0.249996
C59	C	0.369844	-1.250241	0.499996
C60	C	0.619844	-1.000241	0.749996
C61	C	-0.213319	-1.747646	-0.000002
C62	C	0.036681	-1.497646	0.249998
C63	C	0.286681	-1.247646	0.499998
C64	C	0.536681	-0.997646	0.749998
C65	C	-0.317651	-1.744404	0.000006
C66	C	-0.067651	-1.494404	0.250006
C67	C	0.182349	-1.244404	0.500006
C68	C	0.432349	-0.994404	0.750006
C69	C	-0.400809	-1.741831	0.000013
C70	C	-0.150809	-1.491831	0.250013
C71	C	0.099191	-1.241831	0.500013
C72	C	0.349191	-0.991831	0.750013
C73	C	-0.505148	-1.738589	0.000019
C74	C	-0.255148	-1.488589	0.250019
C75	C	-0.005148	-1.238589	0.500019
C76	C	0.244852	-0.988589	0.750019
C77	C	0.309290	-1.732823	0.000018
C78	C	0.559290	-1.482823	0.250018
C79	C	0.809290	-1.232823	0.500018
C80	C	1.059290	-0.982823	0.750018
C81	C	0.411694	-1.736016	0.000025
C82	C	0.661694	-1.486016	0.250025
C83	C	0.911694	-1.236016	0.500025
C84	C	1.161694	-0.986016	0.750025
C85	C	0.136289	-2.012841	0.000007
C86	C	0.386289	-1.762841	0.250007
C87	C	0.636289	-1.512841	0.500007
C88	C	0.886289	-1.262841	0.750007
C89	C	0.139476	-2.176624	0.000014
C90	C	0.389476	-1.926624	0.250014
C91	C	0.639476	-1.676624	0.500014
C92	C	0.889476	-1.426624	0.750014
N93	N	0.140773	-1.743088	0.243546
N94	N	0.390773	-1.493088	0.493546
N95	N	0.640773	-1.243088	0.743546
N96	N	0.890773	-0.993088	0.993546
C97	C	0.140775	-1.743092	0.336652
C98	C	0.390775	-1.493092	0.586652
C99	C	0.640775	-1.243092	0.836652
C100	C	0.890775	-0.993092	1.086652
C101	C	0.140773	-1.743113	0.453457
C102	C	0.390773	-1.493113	0.703457
C103	C	0.640773	-1.243113	0.953457
C104	C	0.890773	-0.993113	1.203457
C105	C	0.140767	-1.743137	0.546555
C106	C	0.390767	-1.493137	0.796555
C107	C	0.640767	-1.243137	1.046555
C108	C	0.890767	-0.993137	1.296555
C109	C	0.140763	-1.743156	0.663368
C110	C	0.390763	-1.493156	0.913368
C111	C	0.640763	-1.243156	1.163368
C112	C	0.890763	-0.993156	1.413368
