data_functionalizedCrystal
_audit_creation_method	'MofGen! by Chris Wilmer'
_symmetry_space_group_name_H-M	'P1'
_symmetry_Int_Tables_number	1
_symmetry_cell_setting	triclinic
loop_
_symmetry_equiv_pos_as_xyz
  x,y,z
_cell_length_a	10.654550
_cell_length_b	14.519731
_cell_length_c	9.130313
_cell_angle_alpha	89.997760
_cell_angle_beta	89.996220
_cell_angle_gamma	84.086878
loop_
_atom_site_label
_atom_site_type_symbol
_atom_site_fract_x
_atom_site_fract_y
_atom_site_fract_z
O1	O	1.666602	0.129527	-0.121923
O2	O	1.301006	0.141868	-0.121900
O3	O	1.493484	0.001510	-0.121899
O4	O	1.474125	0.269884	-0.121925
O5	O	1.493481	0.001514	0.121700
O6	O	1.301004	0.141872	0.121699
O7	O	1.666600	0.129531	0.121675
Cu8	Cu	1.483802	0.135701	0.143930
Cu9	Cu	1.483804	0.135697	-0.144154
O10	O	1.474122	0.269888	0.121674
C11	C	1.254216	0.140964	-0.000098
C12	C	1.114798	0.138253	-0.000088
C13	C	1.492575	-0.032852	-0.000099
C14	C	1.489857	-0.135246	-0.000098
C15	C	1.034527	0.220893	-0.000118
C16	C	0.903530	0.218340	-0.000143
C17	C	0.933090	0.050499	-0.000116
C18	C	1.064084	0.053053	-0.000080
C19	C	1.017459	0.317794	-0.000140
C20	C	0.886463	0.315241	-0.000165
C21	C	1.487649	-0.218402	-0.000102
C22	C	1.484889	-0.322725	-0.000113
C23	C	1.482699	-0.405875	-0.000122
C24	C	1.479939	-0.510205	-0.000130
C25	C	1.713390	0.130435	-0.000130
C26	C	1.852808	0.133146	-0.000149
C27	C	1.475031	0.304250	-0.000129
C28	C	1.477749	0.406645	-0.000139
N29	N	1.483809	0.135704	0.346552
N30	N	1.483807	0.135687	-0.346777
C31	C	1.569059	0.073575	0.423205
C32	C	1.569056	0.073564	0.576541
C33	C	1.398547	0.197819	0.576560
C34	C	1.398546	0.197825	0.423226
C35	C	1.667505	0.001840	0.423195
C36	C	1.667502	0.001829	0.576532
H37	H	1.129437	-0.014241	-0.000035
C38	C	0.829612	0.364555	-0.137908
N39	N	0.786793	0.401694	-0.241654
H40	H	1.646736	-0.069045	0.381584
H41	H	1.329117	0.248407	0.360817
C42	C	0.877291	-0.043215	-0.000114
N43	N	0.835265	-0.113803	-0.000116
C44	C	1.056603	0.368992	0.137586
N45	N	1.086086	0.407551	0.241322
C46	C	1.304761	0.266147	0.660915
N47	N	1.234119	0.317613	0.724450
H48	H	1.052822	0.348647	-0.105314
C49	C	0.824375	0.354825	0.141891
N50	N	0.777608	0.384645	0.248881
C51	C	1.790404	0.032178	0.358928
N52	N	1.882972	0.055029	0.310520
H53	H	1.637626	-0.065156	0.624088
H54	H	1.763863	0.017630	0.618141
