data_functionalizedCrystal
_audit_creation_method	'MofGen! by Chris Wilmer'
_symmetry_space_group_name_H-M	'P1'
_symmetry_Int_Tables_number	1
_symmetry_cell_setting	triclinic
loop_
_symmetry_equiv_pos_as_xyz
  x,y,z
_cell_length_a	16.959455
_cell_length_b	16.959454
_cell_length_c	16.959447
_cell_angle_alpha	89.973182
_cell_angle_beta	90.026267
_cell_angle_gamma	89.984932
loop_
_atom_site_label
_atom_site_type_symbol
_atom_site_fract_x
_atom_site_fract_y
_atom_site_fract_z
Zn1	Zn	-1.208404	-0.314771	-0.447125
Zn2	Zn	-1.208321	-0.446963	-0.314955
Zn3	Zn	-1.076227	-0.314791	-0.314941
Zn4	Zn	-1.076197	-0.446900	-0.447072
O5	O	-1.142287	-0.380856	-0.381023
O6	O	-1.319004	-0.332325	-0.429620
O7	O	-1.190775	-0.429466	-0.204342
O8	O	-1.093808	-0.204178	-0.332492
O9	O	-1.318943	-0.429446	-0.332515
O10	O	-1.190918	-0.204163	-0.429607
O11	O	-1.093727	-0.332359	-0.204332
O12	O	-0.965612	-0.332298	-0.332440
O13	O	-1.093758	-0.429337	-0.557690
O14	O	-0.965590	-0.429357	-0.429516
O15	O	-1.190889	-0.332263	-0.557729
O16	O	-1.190747	-0.557566	-0.332464
O17	O	-1.093677	-0.557519	-0.429530
C18	C	-0.936921	-0.380823	-0.380972
C19	C	-0.849064	-0.380828	-0.380968
C20	C	-0.477546	-0.431354	-0.330397
C21	C	-0.477631	-0.330377	-0.431670
C22	C	-0.560177	-0.330367	-0.431655
C23	C	-0.601411	-0.380852	-0.381012
C24	C	-0.560100	-0.431347	-0.330382
C25	C	-0.601495	-0.279879	-0.482289
C26	C	-0.684046	-0.279868	-0.482277
C27	C	-0.725282	-0.330349	-0.431629
C28	C	-0.683965	-0.380845	-0.380997
C29	C	-0.725199	-0.431330	-0.330354
C30	C	-0.683884	-0.481823	-0.279717
C31	C	-0.601335	-0.481828	-0.279734
C32	C	-0.807830	-0.330343	-0.431612
C33	C	-0.807753	-0.431323	-0.330339
C34	C	-1.142221	-0.586223	-0.381010
C35	C	-1.142265	-0.674079	-0.381030
C36	C	-0.348455	-0.380881	-0.381061
C37	C	-0.436312	-0.380869	-0.381040
C38	C	-1.091816	-1.045560	-0.431560
C39	C	-1.192979	-1.045549	-0.330567
C40	C	-1.192951	-0.963003	-0.330560
C41	C	-1.142354	-0.921732	-0.381052
C42	C	-1.091785	-0.963007	-0.431553
C43	C	-1.243514	-0.921722	-0.280055
C44	C	-1.243487	-0.839171	-0.280045
C45	C	-1.192894	-0.797899	-0.330542
C46	C	-1.142324	-0.839179	-0.381045
C47	C	-1.091727	-0.797907	-0.431538
C48	C	-1.041160	-0.839186	-0.482045
C49	C	-1.041192	-0.921734	-0.482050
C50	C	-1.192862	-0.715350	-0.330538
C51	C	-1.091696	-0.715354	-0.431530
C52	C	-1.142330	-0.380791	-0.587191
C53	C	-1.142348	-0.380763	-0.675048
C54	C	-1.142375	-0.174688	-0.381054
C55	C	-1.142413	-0.086831	-0.381067
C56	C	-1.091888	-0.330121	-1.046525
C57	C	-1.192946	-0.431238	-1.046523
C58	C	-1.192932	-0.431257	-0.963977
C59	C	-1.142395	-0.380707	-0.922701
C60	C	-1.091871	-0.330139	-0.963971
C61	C	-1.243450	-0.481829	-0.922701
C62	C	-1.243437	-0.481850	-0.840150
C63	C	-1.192903	-0.431296	-0.798872
C64	C	-1.142378	-0.380726	-0.840148
C65	C	-1.091841	-0.330176	-0.798872
C66	C	-1.041319	-0.279601	-0.840146
C67	C	-1.041338	-0.279585	-0.922694
C68	C	-1.192885	-0.431312	-0.716324
C69	C	-1.091824	-0.330195	-0.716318
C70	C	-1.142291	-0.380865	-0.175657
C71	C	-1.142426	-0.380670	-0.087801
H72	H	-0.443904	-0.472462	-0.289168
H73	H	-1.284662	-0.805568	-0.238920
Br74	Br	-1.312180	-0.977736	-0.211537
Br75	Br	-1.261471	-0.659333	-0.261987
Br76	Br	-1.023240	-0.261581	-0.660307
Br77	Br	-0.972735	-0.211001	-0.784119
H78	H	-1.050648	-1.079173	-0.472684
Br79	Br	-0.863898	-0.261830	-0.500333
H80	H	-1.234168	-1.079157	-0.289453
H81	H	-1.000204	-0.238410	-0.956306
H82	H	-1.050757	-0.288941	-1.080134
Br83	Br	-1.023032	-0.659349	-0.500067
H84	H	-1.000022	-0.955350	-0.523169
Br85	Br	-0.545532	-0.211382	-0.551029
H86	H	-1.234085	-0.472399	-1.080135
Br87	Br	-1.312021	-0.550439	-0.978720
Br88	Br	-1.312003	-0.550484	-0.784142
Br89	Br	-1.261436	-0.499952	-0.660312
H90	H	-0.717467	-0.522932	-0.238487
Br91	Br	-0.863707	-0.499835	-0.261598
H92	H	-0.567689	-0.522936	-0.238508
Br93	Br	-0.421671	-0.261877	-0.500408
H94	H	-0.717678	-0.238753	-0.523508
H95	H	-0.999960	-0.805573	-0.523153
