data_functionalizedCrystal
_audit_creation_method	'MofGen! by Chris Wilmer'
_symmetry_space_group_name_H-M	'P1'
_symmetry_Int_Tables_number	1
_symmetry_cell_setting	triclinic
loop_
_symmetry_equiv_pos_as_xyz
  x,y,z
_cell_length_a	21.295418
_cell_length_b	21.295418
_cell_length_c	11.169409
_cell_angle_alpha	89.957636
_cell_angle_beta	89.962757
_cell_angle_gamma	90.044200
loop_
_atom_site_label
_atom_site_type_symbol
_atom_site_fract_x
_atom_site_fract_y
_atom_site_fract_z
Zn1	Zn	-0.250292	0.962357	-0.679224
Zn2	Zn	-0.355581	0.962265	-0.478524
Zn3	Zn	-0.250358	0.857082	-0.478479
Zn4	Zn	-0.355557	0.857053	-0.679089
O5	O	-0.302947	0.909689	-0.578829
O6	O	-0.264241	1.050434	-0.652675
O7	O	-0.341660	0.948287	-0.310568
O8	O	-0.162260	0.871098	-0.505146
O9	O	-0.341596	1.050367	-0.505222
O10	O	-0.162212	0.948442	-0.652632
O11	O	-0.264354	0.871009	-0.310535
O12	O	-0.264331	0.768989	-0.505016
O13	O	-0.341556	0.871048	-0.847057
O14	O	-0.341620	0.768968	-0.652403
O15	O	-0.264218	0.948414	-0.847156
O16	O	-0.443667	0.948258	-0.505091
O17	O	-0.443649	0.870959	-0.652446
C18	C	-0.302980	0.746138	-0.578691
C19	C	-0.303009	0.676170	-0.578660
C20	C	-0.343307	0.643308	-0.655290
C21	C	-0.343292	0.577566	-0.655344
C22	C	-0.302985	0.544687	-0.578747
C23	C	-0.262680	0.577556	-0.502111
C24	C	-0.262692	0.643298	-0.502068
N25	N	-0.298077	0.441412	-0.473774
N26	N	-0.298069	0.378961	-0.473818
C27	C	-0.302945	0.346612	-0.578874
N28	N	-0.307841	0.379075	-0.683886
N29	N	-0.307852	0.441532	-0.683840
C30	C	-0.302967	0.473402	-0.578785
C31	C	-0.343228	0.242466	-0.655569
C32	C	-0.343208	0.176722	-0.655625
C33	C	-0.262599	0.176714	-0.502381
C34	C	-0.262616	0.242456	-0.502336
C35	C	-0.302933	0.275328	-0.578928
C36	C	-0.466499	0.909613	-0.578785
C37	C	-0.536467	0.909638	-0.578807
C38	C	-1.035846	0.950041	-0.655779
C39	C	-0.970104	0.950023	-0.655760
C40	C	-0.937306	0.909775	-0.578904
C41	C	-0.970256	0.869555	-0.502039
C42	C	-1.035998	0.869579	-0.502052
N43	N	-0.834153	0.854638	-0.569544
N44	N	-0.771701	0.854617	-0.569539
C45	C	-0.739231	0.909701	-0.578859
N46	N	-0.771572	0.964809	-0.588208
N47	N	-0.834029	0.964829	-0.588219
C48	C	-0.866021	0.909745	-0.578881
C49	C	-0.635003	0.949902	-0.655692
C50	C	-0.569260	0.949885	-0.655665
C51	C	-0.569414	0.869411	-0.501950
C52	C	-0.635156	0.869434	-0.501972
C53	C	-0.667947	0.909679	-0.578849
C54	C	-0.138757	0.909783	-0.578899
C55	C	-0.068789	0.909823	-0.578929
C56	C	-0.302877	0.909738	-0.891872
C57	C	-0.302847	0.909758	-1.025272
C58	C	-0.302914	1.073880	-0.578968
C59	C	-0.302900	1.143848	-0.579028
C60	C	-0.302971	0.909677	-0.267004
C61	C	-0.302824	0.909779	-0.133605
H62	H	-0.229875	0.670053	-0.439667
H63	H	-0.542438	0.982639	-0.718241
N64	N	-0.221507	0.543965	-0.423884
N65	N	-0.221501	0.485268	-0.423932
H66	H	-0.192419	0.461544	-0.368687
H67	H	-0.376106	0.550805	-0.717750
H68	H	-0.229804	0.269212	-0.439929
N69	N	-0.384366	0.143140	-0.733900
N70	N	-0.362260	0.106521	-0.810481
H71	H	-0.391328	0.082801	-0.865763
N72	N	-0.221435	0.143136	-0.424122
N73	N	-0.225549	0.150408	-0.313357
H74	H	-0.196475	0.126691	-0.258085
N75	N	-0.668494	0.991015	-0.734219
N76	N	-0.639069	1.026928	-0.802823
H77	H	-0.662719	1.055965	-0.858284
N78	N	-1.069330	0.991152	-0.734314
N79	N	-1.039904	1.027058	-0.802926
H80	H	-1.063553	1.056093	-0.858393
N81	N	-0.936454	0.991112	-0.734267
N82	N	-0.965739	1.027043	-0.802894
H83	H	-0.941977	1.056062	-0.858341
H84	H	-0.943549	0.836785	-0.439460
N85	N	-0.384490	0.676892	-0.733513
N86	N	-0.424584	0.713511	-0.691118
H87	H	-0.453671	0.737231	-0.746362
N88	N	-1.069641	0.828495	-0.423534
N89	N	-1.040354	0.792566	-0.354905
H90	H	-1.064115	0.763550	-0.299449
H91	H	-0.542710	0.836643	-0.439368
N92	N	-0.384413	0.276038	-0.733808
N93	N	-0.420388	0.246686	-0.802232
H94	H	-0.449477	0.270395	-0.857489
H95	H	-0.661978	0.836682	-0.439397
