data_functionalizedCrystal
_audit_creation_method	'MofGen! by Chris Wilmer'
_symmetry_space_group_name_H-M	'P1'
_symmetry_Int_Tables_number	1
_symmetry_cell_setting	triclinic
loop_
_symmetry_equiv_pos_as_xyz
  x,y,z
_cell_length_a	9.065218
_cell_length_b	14.853567
_cell_length_c	7.540329
_cell_angle_alpha	90.000203
_cell_angle_beta	89.996962
_cell_angle_gamma	84.325408
loop_
_atom_site_label
_atom_site_type_symbol
_atom_site_fract_x
_atom_site_fract_y
_atom_site_fract_z
O1	O	1.957778	0.132191	-0.147470
O2	O	2.457778	0.632191	0.352530
O3	O	1.528279	0.143034	-0.147471
O4	O	2.028279	0.643034	0.352529
O5	O	1.754501	0.006468	-0.147476
O6	O	2.254501	0.506468	0.352524
O7	O	1.731556	0.268757	-0.147465
O8	O	2.231556	0.768757	0.352535
O9	O	1.754488	0.006466	0.147489
O10	O	2.254488	0.506466	0.647489
O11	O	1.528265	0.143032	0.147494
O12	O	2.028265	0.643032	0.647494
O13	O	1.957765	0.132189	0.147495
O14	O	2.457765	0.632189	0.647495
Cu15	Cu	1.743014	0.137611	0.174427
Cu16	Cu	2.243014	0.637611	0.674427
Cu17	Cu	1.743030	0.137613	-0.174403
Cu18	Cu	2.243030	0.637613	0.325597
O19	O	1.731542	0.268756	0.147500
O20	O	2.231542	0.768756	0.647500
C21	C	1.473306	0.141991	0.000011
C22	C	1.973306	0.641991	0.500011
C23	C	1.309525	0.138875	0.000010
C24	C	1.809525	0.638875	0.500010
C25	C	1.753455	-0.027130	0.000001
C26	C	2.253455	0.472870	0.500001
C27	C	1.750339	-0.127236	-0.000014
C28	C	2.250339	0.372764	0.499986
C29	C	1.602788	-0.540862	0.000019
C30	C	2.102788	-0.040862	0.500019
C31	C	1.871546	-0.560154	0.000020
C32	C	2.371546	-0.060154	0.500020
C33	C	1.874475	-0.466099	0.000010
C34	C	2.374475	0.033901	0.500010
C35	C	1.741559	-0.409421	0.000007
C36	C	2.241559	0.090579	0.500007
C37	C	1.605714	-0.446798	0.000014
C38	C	2.105714	0.053202	0.500014
C39	C	2.010318	-0.428714	0.000020
C40	C	2.510318	0.071286	0.500020
C41	C	2.013253	-0.334654	0.000012
C42	C	2.513253	0.165346	0.500012
C43	C	1.880335	-0.277974	-0.000004
C44	C	2.380335	0.222026	0.499996
C45	C	1.744484	-0.315356	0.000002
C46	C	2.244484	0.184644	0.500002
C47	C	1.611568	-0.258678	-0.000001
C48	C	2.111568	0.241322	0.499999
C49	C	1.475716	-0.296059	-0.000008
C50	C	1.975716	0.203941	0.499992
C51	C	1.472796	-0.390118	-0.000001
C52	C	1.972796	0.109882	0.499999
C53	C	1.883255	-0.183915	-0.000011
C54	C	2.383255	0.316085	0.499989
C55	C	1.614494	-0.164614	-0.000006
C56	C	2.114494	0.335386	0.499994
C57	C	2.012738	0.133232	0.000009
C58	C	2.512738	0.633232	0.500009
C59	C	2.176519	0.136348	-0.000002
C60	C	2.676519	0.636348	0.499998
C61	C	1.732589	0.302353	0.000019
C62	C	2.232589	0.802353	0.500019
C63	C	1.735704	0.402460	0.000022
C64	C	2.235704	0.902460	0.500022
N65	N	1.743013	0.137609	0.419776
N66	N	2.243013	0.637609	0.919776
N67	N	1.743042	0.137608	-0.419752
N68	N	2.243042	0.637608	0.080248
H69	H	1.506255	-0.118471	-0.000016
H70	H	2.006255	0.381529	0.499984
C71	C	1.455446	-0.581614	0.000105
C72	C	1.955446	-0.081614	0.500105
C73	C	1.481320	-0.676118	0.000147
C74	C	1.981320	-0.176118	0.500147
C75	C	1.345624	-0.713690	0.000250
C76	C	1.845624	-0.213690	0.500250
H77	H	1.400604	-0.562334	-0.102727
H78	H	1.900604	-0.062334	0.397273
H79	H	1.400695	-0.562285	0.103008
H80	H	1.900695	-0.062285	0.603008
H81	H	1.536048	-0.695440	-0.102746
H82	H	2.036048	-0.195440	0.397254
H83	H	1.536139	-0.695424	0.102971
H84	H	2.036139	-0.195424	0.602971
H85	H	1.290873	-0.694361	0.103153
H86	H	1.790873	-0.194361	0.603153
H87	H	1.290792	-0.694403	-0.102584
H88	H	1.790792	-0.194403	0.397416
H89	H	1.363161	-0.777814	0.000295
H90	H	1.863161	-0.277814	0.500295
H91	H	1.979760	-0.606307	0.000037
H92	H	2.479760	-0.106307	0.500037
H93	H	2.118531	-0.474868	0.000039
H94	H	2.618531	0.025132	0.500039
H95	H	2.123872	-0.304227	0.000015
H96	H	2.623872	0.195773	0.500015
H97	H	1.362192	-0.420562	-0.000005
H98	H	1.862192	0.079438	0.499995
C99	C	1.331570	-0.234366	-0.000098
C100	C	1.831570	0.265634	0.499902
C101	C	1.363222	-0.143995	-0.000134
C102	C	1.863222	0.356005	0.499866
C103	C	1.230477	-0.087135	-0.000240
C104	C	1.730477	0.412865	0.499760
H105	H	1.275758	-0.245697	0.102730
H106	H	1.775758	0.254303	0.602730
H107	H	1.275870	-0.245757	-0.103005
H108	H	1.775870	0.254243	0.396995
H109	H	1.418897	-0.132608	0.102762
H110	H	1.918897	0.367392	0.602762
H111	H	1.419012	-0.132635	-0.102955
H112	H	1.919012	0.367365	0.397045
H113	H	1.174778	-0.098527	-0.103146
H114	H	1.674778	0.401473	0.396854
H115	H	1.174676	-0.098475	0.102590
H116	H	1.674676	0.401525	0.602590
H117	H	1.251935	-0.025813	-0.000280
H118	H	1.751935	0.474187	0.499720
H119	H	1.993864	-0.153483	0.000006
H120	H	2.493864	0.346517	0.500006
