data_functionalizedCrystal
_audit_creation_method	'MofGen! by Chris Wilmer'
_symmetry_space_group_name_H-M	'P1'
_symmetry_Int_Tables_number	1
_symmetry_cell_setting	triclinic
loop_
_symmetry_equiv_pos_as_xyz
  x,y,z
_cell_length_a	29.839131
_cell_length_b	12.827893
_cell_length_c	12.827885
_cell_angle_alpha	90.019272
_cell_angle_beta	90.036821
_cell_angle_gamma	90.041391
loop_
_atom_site_label
_atom_site_type_symbol
_atom_site_fract_x
_atom_site_fract_y
_atom_site_fract_z
Zn1	Zn	-0.178832	1.597481	0.590798
Zn2	Zn	-0.253969	1.597295	0.416036
Zn3	Zn	-0.178854	1.422722	0.416071
Zn4	Zn	-0.253936	1.422628	0.590736
O5	O	-0.216398	1.510031	0.503410
O6	O	-0.188804	1.743692	0.567626
O7	O	-0.244028	1.574100	0.269805
O8	O	-0.115984	1.446021	0.439289
O9	O	-0.244007	1.743556	0.439230
O10	O	-0.115968	1.574415	0.567660
O11	O	-0.188841	1.445841	0.269830
O12	O	-0.188809	1.276473	0.439230
O13	O	-0.243950	1.445861	0.736981
O14	O	-0.243971	1.276404	0.567556
O15	O	-0.188771	1.574324	0.737026
O16	O	-0.316832	1.574008	0.439170
O17	O	-0.316807	1.445681	0.567522
C18	C	-0.333120	1.509843	0.503359
C19	C	-0.383055	1.509858	0.503371
C20	C	-0.216389	1.238522	0.503390
C21	C	-0.216396	1.122368	0.503407
C22	C	-0.243735	1.070577	0.566808
C23	C	-0.243743	0.950527	0.566827
C24	C	-0.692698	1.576973	0.436675
C25	C	-0.880371	1.577102	0.436716
O26	O	-0.904636	1.634016	0.379969
N27	N	-0.903840	1.510248	0.503489
C28	C	-0.880387	1.443362	0.570262
O29	O	-0.904655	1.386509	0.627065
C30	C	-0.692715	1.443239	0.570226
C31	C	-0.669249	1.510090	0.503441
C32	C	-0.669232	1.643819	0.369897
C33	C	-0.622317	1.643782	0.369883
C34	C	-0.598867	1.576899	0.436648
C35	C	-0.622333	1.510053	0.503427
C36	C	-0.669263	1.376359	0.637003
C37	C	-0.622342	1.376336	0.636990
C38	C	-0.598876	1.443187	0.570205
C39	C	-0.551969	1.443133	0.570179
N40	N	-0.528500	1.509987	0.503406
C41	C	-0.551949	1.576870	0.436641
C42	C	-0.978918	1.443430	0.570274
C43	C	-1.025835	1.443459	0.570282
C44	C	-1.025816	1.577201	0.436738
C45	C	-0.978898	1.577165	0.436725
C46	C	-0.955449	1.510284	0.503501
C47	C	-0.453424	1.576787	0.436617
C48	C	-0.406504	1.576741	0.436606
C49	C	-0.406527	1.443004	0.570154
C50	C	-0.453443	1.443045	0.570161
C51	C	-0.476890	1.509945	0.503389
O52	O	-0.527675	1.386257	0.626905
O53	O	-0.527674	1.633731	0.379862
C54	C	-0.739614	1.577010	0.436689
C55	C	-0.763080	1.510164	0.503468
C56	C	-0.739630	1.443281	0.570233
C57	C	-0.809997	1.510193	0.503476
C58	C	-0.833447	1.577076	0.436710
C59	C	-0.809978	1.643930	0.369937
C60	C	-0.763063	1.643893	0.369924
C61	C	-0.763099	1.376427	0.637006
C62	C	-0.810014	1.376468	0.637013
C63	C	-0.833464	1.443351	0.570248
C64	C	-0.099219	1.510249	0.503485
C65	C	-0.049285	1.510342	0.503517
C66	C	-0.216354	1.510103	0.775981
C67	C	-0.216336	1.510133	0.892134
C68	C	-0.216407	1.782602	0.503431
C69	C	-0.216410	1.898755	0.503440
C70	C	-0.216408	1.510021	0.231900
C71	C	-0.216300	1.510193	0.115748
C72	C	-0.189027	1.573708	0.943941
C73	C	-0.189007	1.573740	1.063991
H74	H	-0.267133	1.115113	0.621079
H75	H	-0.193005	0.943287	0.449153
O76	O	-0.161129	1.638472	0.890719
C77	C	-0.132138	1.578958	0.827615
H78	H	-0.147987	1.499712	0.811359
H79	H	-0.098820	1.567594	0.869633
C80	C	-0.104600	1.733678	0.743850
C81	C	-0.124068	1.636350	0.723877
H82	H	-0.099620	1.769081	0.679861
H83	H	-0.124131	1.773775	0.786367
H84	H	-0.076838	1.724194	0.778868
H85	H	-0.151832	1.645835	0.688872
H86	H	-0.104541	1.596255	0.681352
H87	H	-0.267150	0.905987	0.621104
O88	O	-0.188501	1.069368	0.438512
C89	C	-0.198265	1.095885	0.334292
H90	H	-0.215500	1.175133	0.331977
H91	H	-0.221371	1.034430	0.299060
C92	C	-0.133267	1.003482	0.274010
C93	C	-0.154432	1.100820	0.271166
H94	H	-0.106230	1.006522	0.235069
H95	H	-0.126690	0.985613	0.344225
H96	H	-0.152527	0.952279	0.244652
H97	H	-0.135174	1.152018	0.300535
H98	H	-0.161005	1.118698	0.200954
O99	O	-0.476249	1.641632	0.371716
C100	C	-0.503433	1.582209	0.304153
H101	H	-0.510487	1.502995	0.340929
H102	H	-0.485384	1.570764	0.226691
C103	C	-0.539314	1.737054	0.240139
C104	C	-0.547981	1.639765	0.285313
H105	H	-0.566793	1.772558	0.228513
H106	H	-0.520998	1.777089	0.285655
H107	H	-0.524272	1.727503	0.175593
H108	H	-0.563018	1.649318	0.349864
H109	H	-0.566300	1.599733	0.239808
O110	O	-0.383779	1.641783	0.371696
C111	C	-0.414541	1.700805	0.312757
H112	H	-0.447969	1.704422	0.355577
H113	H	-0.419575	1.662584	0.233358
C114	C	-0.355130	1.807579	0.245194
C115	C	-0.396186	1.812029	0.297791
H116	H	-0.343807	1.876186	0.235957
H117	H	-0.334405	1.767813	0.284899
H118	H	-0.359331	1.775724	0.179034
H119	H	-0.391983	1.843871	0.363954
H120	H	-0.416910	1.851803	0.258096
H121	H	-0.165628	1.628173	1.108544
H122	H	-0.603213	1.698221	0.315504
O123	O	-1.048558	1.378479	0.635248
C124	C	-1.017794	1.319428	0.694152
H125	H	-0.984331	1.362214	0.697794
H126	H	-1.012850	1.240079	0.655813
C127	C	-1.077172	1.251767	0.800894
C128	C	-1.036073	1.304321	0.805375
H129	H	-1.088448	1.242443	0.869500
H130	H	-1.097899	1.291547	0.761207
H131	H	-1.073046	1.185648	0.768941
H132	H	-1.040201	1.370442	0.837316
H133	H	-1.015348	1.264551	0.845070
O134	O	-0.956093	1.378400	0.634993
C135	C	-0.929010	1.310900	0.575433
H136	H	-0.921985	1.347799	0.496274
H137	H	-0.947132	1.233481	0.563875
C138	C	-0.893066	1.246581	0.730138
C139	C	-0.884434	1.291906	0.632917
H140	H	-0.865569	1.234860	0.765597
H141	H	-0.911313	1.292054	0.770266
H142	H	-0.908168	1.182070	0.720493
H143	H	-0.869336	1.356421	0.642563
H144	H	-0.866183	1.246443	0.592791
H145	H	-0.829079	1.698386	0.315572
O146	O	-0.244218	1.445401	1.062495
C147	C	-0.273229	1.504890	0.999367
H148	H	-0.257382	1.584124	0.983143
H149	H	-0.306531	1.516281	1.041348
C150	C	-0.300800	1.350133	0.915544
C151	C	-0.281336	1.447447	0.895610
H152	H	-0.305803	1.314699	0.851543
H153	H	-0.281256	1.310053	0.958076
H154	H	-0.328550	1.359640	0.950530
H155	H	-0.253584	1.437939	0.860636
H156	H	-0.300875	1.487524	0.853069
H157	H	-0.239699	1.455722	0.936657
H158	H	-0.959794	1.631602	0.382344
O159	O	-0.691937	1.708826	0.304934
C160	C	-0.661155	1.767829	0.246022
H161	H	-0.627732	1.724997	0.242379
H162	H	-0.656119	1.847174	0.284354
C163	C	-0.720535	1.835566	0.139281
C164	C	-0.679484	1.782954	0.134800
H165	H	-0.731841	1.844901	0.070676
H166	H	-0.741273	1.795817	0.178974
H167	H	-0.716332	1.901681	0.171230
H168	H	-0.683689	1.716836	0.102864
H169	H	-0.658747	1.822692	0.095100
H170	H	-1.044917	1.631660	0.382375
H171	H	-0.688361	1.321917	0.691381
H172	H	-0.603252	1.321874	0.691370
H173	H	-0.472550	1.388613	0.624546
H174	H	-0.387427	1.388545	0.624511
H175	H	-0.743960	1.698329	0.315541
H176	H	-0.829116	1.322021	0.691397
O177	O	-0.740393	1.311349	0.701893
C178	C	-0.771173	1.252376	0.760842
H179	H	-0.804633	1.248825	0.718039
H180	H	-0.776119	1.290596	0.840248
C181	C	-0.711820	1.145486	0.828359
C182	C	-0.752915	1.141117	0.775784
H183	H	-0.700557	1.076857	0.837582
H184	H	-0.691083	1.185219	0.788648
H185	H	-0.715948	1.177341	0.894526
H186	H	-0.748786	1.109275	0.709615
H187	H	-0.773651	1.101375	0.815485
