data_functionalizedCrystal
_audit_creation_method	'MofGen! by Chris Wilmer'
_symmetry_space_group_name_H-M	'P1'
_symmetry_Int_Tables_number	1
_symmetry_cell_setting	triclinic
loop_
_symmetry_equiv_pos_as_xyz
  x,y,z
_cell_length_a	11.792241
_cell_length_b	10.489741
_cell_length_c	10.268362
_cell_angle_alpha	89.995004
_cell_angle_beta	89.999626
_cell_angle_gamma	84.366295
loop_
_atom_site_label
_atom_site_type_symbol
_atom_site_fract_x
_atom_site_fract_y
_atom_site_fract_z
O1	O	1.507380	0.174833	-0.108173
O2	O	1.177088	0.192851	-0.108203
O3	O	1.349750	-0.001782	-0.108180
O4	O	1.334719	0.369465	-0.108197
O5	O	1.349735	-0.001790	0.108421
O6	O	1.177073	0.192843	0.108397
O7	O	1.507365	0.174825	0.108428
Cu8	Cu	1.342218	0.183833	0.128190
Cu9	Cu	1.342236	0.183843	-0.127965
O10	O	1.334703	0.369457	0.108404
C11	C	1.134786	0.191715	0.000093
C12	C	1.008764	0.188327	0.000082
C13	C	0.778035	0.182098	0.000120
C14	C	0.906429	0.185559	0.000099
C15	C	1.348607	-0.049314	0.000120
C16	C	1.345210	-0.190931	0.000117
C17	C	1.235351	-0.258697	0.000098
C18	C	1.287240	-0.351001	0.106898
C19	C	1.287281	-0.350967	-0.106654
C20	C	1.397145	-0.281370	0.107005
C21	C	1.397171	-0.281327	-0.106642
C22	C	1.449140	-0.373603	0.000184
C23	C	1.549667	0.175960	0.000128
C24	C	1.675690	0.179348	0.000131
C25	C	1.335846	0.416989	0.000102
C26	C	1.339243	0.558607	0.000096
N27	N	1.342213	0.183825	0.308356
N28	N	1.342249	0.183840	-0.308131
C29	C	1.342230	0.183840	0.574026
C30	C	1.342217	0.183836	0.426188
H31	H	1.240749	-0.381857	0.197181
C32	C	1.569673	-0.439954	-0.000028
C33	C	1.586181	-0.515652	-0.112007
C34	C	1.697211	-0.576763	-0.112261
H35	H	1.580747	-0.492608	0.075055
H36	H	1.622722	-0.377396	0.000652
H37	H	1.533148	-0.578203	-0.112675
H38	H	1.575131	-0.463029	-0.187107
H39	H	1.750260	-0.514205	-0.111581
H40	H	1.708274	-0.629410	-0.037174
H41	H	1.708429	-0.628122	-0.188242
C42	C	1.458977	-0.240225	0.227492
C43	C	1.461373	-0.107047	0.226141
C44	C	1.518304	-0.069093	0.337119
H45	H	1.534736	-0.280470	0.227922
H46	H	1.420194	-0.264557	0.303268
H47	H	1.500158	-0.082727	0.150385
H48	H	1.385631	-0.066770	0.225730
H49	H	1.479521	-0.093426	0.412895
H50	H	1.594059	-0.109347	0.337540
H51	H	1.519928	0.021271	0.336224
C52	C	1.458915	-0.240167	-0.227184
C53	C	1.401020	-0.275015	-0.338713
C54	C	1.457847	-0.237100	-0.449790
H55	H	1.534437	-0.281069	-0.228128
H56	H	1.461194	-0.149892	-0.225942
H57	H	1.398754	-0.365272	-0.339955
H58	H	1.325501	-0.234116	-0.337813
H59	H	1.460125	-0.146825	-0.448549
H60	H	1.533367	-0.278005	-0.450721
H61	H	1.418568	-0.260728	-0.525476
H62	H	1.240789	-0.381769	-0.196954
H63	H	1.145025	-0.208738	0.000197
