data_functionalizedCrystal
_audit_creation_method	'MofGen! by Chris Wilmer'
_symmetry_space_group_name_H-M	'P1'
_symmetry_Int_Tables_number	1
_symmetry_cell_setting	triclinic
loop_
_symmetry_equiv_pos_as_xyz
  x,y,z
_cell_length_a	16.625548
_cell_length_b	16.625546
_cell_length_c	16.625539
_cell_angle_alpha	90.028532
_cell_angle_beta	90.018832
_cell_angle_gamma	90.022327
loop_
_atom_site_label
_atom_site_type_symbol
_atom_site_fract_x
_atom_site_fract_y
_atom_site_fract_z
Zn1	Zn	-1.232653	0.321018	-0.455936
Zn2	Zn	-0.982653	0.571018	-0.205936
Zn3	Zn	-0.732653	0.821018	0.044064
Zn4	Zn	-0.482653	1.071018	0.294064
Zn5	Zn	-1.232564	0.455857	-0.321098
Zn6	Zn	-0.982564	0.705857	-0.071098
Zn7	Zn	-0.732564	0.955857	0.178902
Zn8	Zn	-0.482564	1.205857	0.428902
Zn9	Zn	-1.097823	0.321042	-0.321112
Zn10	Zn	-0.847823	0.571042	-0.071112
Zn11	Zn	-0.597823	0.821042	0.178888
Zn12	Zn	-0.347823	1.071042	0.428888
Zn13	Zn	-1.097785	0.455812	-0.455884
Zn14	Zn	-0.847785	0.705812	-0.205884
Zn15	Zn	-0.597785	0.955812	0.044116
Zn16	Zn	-0.347785	1.205812	0.294116
O17	O	-1.165206	0.388432	-0.388507
O18	O	-0.915206	0.638432	-0.138507
O19	O	-0.665206	0.888432	0.111493
O20	O	-0.415206	1.138432	0.361493
O21	O	-1.345473	0.338914	-0.438065
O22	O	-1.095473	0.588914	-0.188065
O23	O	-0.845473	0.838914	0.061935
O24	O	-0.595473	1.088914	0.311935
O25	O	-1.214669	0.438002	-0.208268
O26	O	-0.964669	0.688002	0.041732
O27	O	-0.714669	0.938002	0.291732
O28	O	-0.464669	1.188002	0.541732
O29	O	-1.115761	0.208206	-0.339024
O30	O	-0.865761	0.458206	-0.089024
O31	O	-0.615761	0.708206	0.160976
O32	O	-0.365761	0.958206	0.410976
O33	O	-1.345408	0.437979	-0.339001
O34	O	-1.095408	0.687979	-0.089001
O35	O	-0.845408	0.937979	0.160999
O36	O	-0.595408	1.187979	0.410999
O37	O	-1.214820	0.208189	-0.438079
O38	O	-0.964820	0.458189	-0.188079
O39	O	-0.714820	0.708189	0.061921
O40	O	-0.464820	0.958189	0.311921
O41	O	-1.115675	0.338954	-0.208278
O42	O	-0.865675	0.588954	0.041722
O43	O	-0.615675	0.838954	0.291722
O44	O	-0.365675	1.088954	0.541722
O45	O	-0.984985	0.338910	-0.338974
O46	O	-0.734985	0.588910	-0.088974
O47	O	-0.484985	0.838910	0.161026
O48	O	-0.234985	1.088910	0.411026
O49	O	-1.115696	0.437903	-0.568723
O50	O	-0.865696	0.687903	-0.318723
O51	O	-0.615696	0.937903	-0.068723
O52	O	-0.365696	1.187903	0.181277
O53	O	-0.984957	0.437926	-0.437990
O54	O	-0.734957	0.687926	-0.187990
O55	O	-0.484957	0.937926	0.062010
O56	O	-0.234957	1.187926	0.312010
O57	O	-1.214783	0.338870	-0.568761
O58	O	-0.964783	0.588870	-0.318761
O59	O	-0.714783	0.838870	-0.068761
O60	O	-0.464783	1.088870	0.181239
O61	O	-1.214632	0.568683	-0.338950
O62	O	-0.964632	0.818683	-0.088950
O63	O	-0.714632	1.068683	0.161050
O64	O	-0.464632	1.318683	0.411050
O65	O	-1.115611	0.568650	-0.437977
O66	O	-0.865611	0.818650	-0.187977
O67	O	-0.615611	1.068650	0.062023
O68	O	-0.365611	1.318650	0.312023
C69	C	-0.955715	0.388416	-0.388478
C70	C	-0.705715	0.638416	-0.138478
C71	C	-0.455715	0.888416	0.111522
C72	C	-0.205715	1.138416	0.361522
C73	C	-0.866094	0.388429	-0.388485
C74	C	-0.616094	0.638429	-0.138485
C75	C	-0.366094	0.888429	0.111515
C76	C	-0.116094	1.138429	0.361515
C77	C	-1.165245	0.388379	-0.598816
C78	C	-0.915245	0.638379	-0.348816
C79	C	-0.665245	0.888379	-0.098816
C80	C	-0.415245	1.138379	0.151184
C81	C	-1.165262	0.388356	-0.688438
C82	C	-0.915262	0.638356	-0.438438
C83	C	-0.665262	0.888356	-0.188438
C84	C	-0.415262	1.138356	0.061562
C85	C	-1.165130	0.597923	-0.388474
C86	C	-0.915130	0.847923	-0.138474
C87	C	-0.665130	1.097923	0.111526
C88	C	-0.415130	1.347923	0.361526
C89	C	-1.165171	0.687544	-0.388486
C90	C	-0.915171	0.937544	-0.138486
C91	C	-0.665171	1.187544	0.111514
C92	C	-0.415171	1.437544	0.361514
C93	C	-0.537918	0.388427	-0.388509
C94	C	-0.287918	0.638427	-0.138509
C95	C	-0.037918	0.888427	0.111491
C96	C	0.212082	1.138427	0.361491
C97	C	-0.629227	0.388425	-0.388500
C98	C	-0.379227	0.638425	-0.138500
C99	C	-0.129227	0.888425	0.111500
C100	C	0.120773	1.138425	0.361500
C101	C	-0.702003	0.388428	-0.388497
C102	C	-0.452003	0.638428	-0.138497
C103	C	-0.202003	0.888428	0.111503
C104	C	0.047997	1.138428	0.361503
C105	C	-0.793318	0.388426	-0.388489
C106	C	-0.543318	0.638426	-0.138489
C107	C	-0.293318	0.888426	0.111511
C108	C	-0.043318	1.138426	0.361511
C109	C	-0.375515	0.388443	-0.388529
C110	C	-0.125515	0.638443	-0.138529
C111	C	0.124485	0.888443	0.111471
C112	C	0.374485	1.138443	0.361471
C113	C	-0.465136	0.388435	-0.388519
C114	C	-0.215136	0.638435	-0.138519
C115	C	0.034864	0.888435	0.111481
C116	C	0.284864	1.138435	0.361481
C117	C	-1.165305	0.178123	-0.388559
C118	C	-0.915305	0.428123	-0.138559
C119	C	-0.665305	0.678123	0.111441
C120	C	-0.415305	0.928123	0.361441
C121	C	-1.165347	0.088502	-0.388581
C122	C	-0.915347	0.338502	-0.138581
C123	C	-0.665347	0.588502	0.111419
C124	C	-0.415347	0.838502	0.361419
C125	C	-1.165311	1.015720	-0.388570
C126	C	-0.915311	1.265720	-0.138570
C127	C	-0.665311	1.515720	0.111430
C128	C	-0.415311	1.765720	0.361430
C129	C	-1.165270	0.924411	-0.388549
C130	C	-0.915270	1.174411	-0.138549
C131	C	-0.665270	1.424411	0.111451
C132	C	-0.415270	1.674411	0.361451
C133	C	-1.165240	0.851635	-0.388528
C134	C	-0.915240	1.101635	-0.138528
C135	C	-0.665240	1.351635	0.111472
C136	C	-0.415240	1.601635	0.361472
C137	C	-1.165200	0.760321	-0.388508
C138	C	-0.915200	1.010321	-0.138508
C139	C	-0.665200	1.260321	0.111492
C140	C	-0.415200	1.510321	0.361492
C141	C	-1.165275	0.388338	-0.761220
C142	C	-0.915275	0.638338	-0.511220
C143	C	-0.665275	0.888338	-0.261220
C144	C	-0.415275	1.138338	-0.011220
C145	C	-1.165294	0.388308	-0.852529
C146	C	-0.915294	0.638308	-0.602529
C147	C	-0.665294	0.888308	-0.352529
C148	C	-0.415294	1.138308	-0.102529
C149	C	-1.165313	0.388280	-0.925305
C150	C	-0.915313	0.638280	-0.675305
C151	C	-0.665313	0.888280	-0.425305
C152	C	-0.415313	1.138280	-0.175305
C153	C	-1.165333	0.388251	-1.016620
C154	C	-0.915333	0.638251	-0.766620
C155	C	-0.665333	0.888251	-0.516620
C156	C	-0.415333	1.138251	-0.266620
C157	C	-1.165213	0.388427	-0.179017
C158	C	-0.915213	0.638427	0.070983
C159	C	-0.665213	0.888427	0.320983
C160	C	-0.415213	1.138427	0.570983
C161	C	-1.165352	0.388222	-0.089396
C162	C	-0.915352	0.638222	0.160604
C163	C	-0.665352	0.888222	0.410604
C164	C	-0.415352	1.138222	0.660604
