data_functionalizedCrystal
_audit_creation_method	'MofGen! by Chris Wilmer'
_symmetry_space_group_name_H-M	'P1'
_symmetry_Int_Tables_number	1
_symmetry_cell_setting	triclinic
loop_
_symmetry_equiv_pos_as_xyz
  x,y,z
_cell_length_a	18.101398
_cell_length_b	18.101395
_cell_length_c	18.101389
_cell_angle_alpha	89.983159
_cell_angle_beta	90.009745
_cell_angle_gamma	89.973339
loop_
_atom_site_label
_atom_site_type_symbol
_atom_site_fract_x
_atom_site_fract_y
_atom_site_fract_z
Zn1	Zn	1.132121	0.294995	0.418559
Zn2	Zn	1.632121	0.794995	0.918559
Zn3	Zn	1.132017	0.418821	0.294721
Zn4	Zn	1.632017	0.918821	0.794721
Zn5	Zn	1.008280	0.294988	0.294751
Zn6	Zn	1.508280	0.794988	0.794751
Zn7	Zn	1.008231	0.418790	0.418541
Zn8	Zn	1.508231	0.918790	0.918541
O9	O	1.070162	0.356898	0.356643
O10	O	1.570162	0.856898	0.856643
O11	O	1.235740	0.311437	0.402126
O12	O	1.735740	0.811437	0.902126
O13	O	1.115580	0.402404	0.191092
O14	O	1.615580	0.902404	0.691092
O15	O	1.024772	0.191356	0.311195
O16	O	1.524772	0.691356	0.811195
O17	O	1.235663	0.402411	0.311143
O18	O	1.735663	0.902411	0.811143
O19	O	1.115757	0.191361	0.402156
O20	O	1.615757	0.691361	0.902156
O21	O	1.024671	0.311425	0.191114
O22	O	1.524671	0.811425	0.691114
O23	O	0.904640	0.311395	0.311178
O24	O	1.404640	0.811395	0.811178
O25	O	1.024688	0.402358	0.522176
O26	O	1.524688	0.902358	1.022176
O27	O	0.904604	0.402351	0.402125
O28	O	1.404604	0.902351	0.902125
O29	O	1.115710	0.311407	0.522189
O30	O	1.615710	0.811407	1.022189
O31	O	1.115532	0.522450	0.311125
O32	O	1.615532	1.022450	0.811125
O33	O	1.024587	0.522427	0.402095
O34	O	1.524587	1.022427	0.902095
C35	C	0.877751	0.356869	0.356653
C36	C	1.377751	0.856869	0.856653
C37	C	0.795437	0.356875	0.356675
C38	C	1.295437	0.856875	0.856675
C39	C	0.496346	0.356918	0.356644
C40	C	0.996346	0.856918	0.856644
C41	C	0.527674	0.414422	0.413583
C42	C	1.027674	0.914422	0.913583
C43	C	0.613292	0.414242	0.413817
C44	C	1.113292	0.914242	0.913817
C45	C	0.644729	0.356897	0.356660
C46	C	1.144729	0.856897	0.856660
C47	C	0.613675	0.278899	0.377985
C48	C	1.113675	0.778899	0.877985
C49	C	0.528029	0.279244	0.378390
C50	C	1.028029	0.779244	0.878390
C51	C	0.527894	0.376725	0.278242
C52	C	1.027894	0.876725	0.778242
C53	C	0.613544	0.378437	0.278661
C54	C	1.113544	0.878437	0.778661
C55	C	0.728588	0.356881	0.356667
C56	C	1.228588	0.856881	0.856667
C57	C	0.412487	0.356930	0.356639
C58	C	0.912487	0.856930	0.856639
C59	C	1.070063	0.549309	0.356621
C60	C	1.570063	1.049309	0.856621
C61	C	1.070088	0.631623	0.356637
C62	C	1.570088	1.131623	0.856637
C63	C	1.070205	0.356880	0.549805
C64	C	1.570205	0.856880	1.049805
C65	C	1.070223	0.356872	0.632119
C66	C	1.570223	0.856872	1.132119
C67	C	1.263324	0.356928	0.356633
C68	C	1.763324	0.856928	0.856633
C69	C	1.345638	0.356941	0.356629
C70	C	1.845638	0.856941	0.856629
C71	C	1.070282	0.163736	0.356681
C72	C	1.570282	0.663736	0.856681
C73	C	1.070333	0.081422	0.356697
C74	C	1.570333	0.581422	0.856697
C75	C	1.070251	0.930714	0.356676
C76	C	1.570251	1.430714	0.856676
C77	C	1.013163	0.899405	0.414054
C78	C	1.513163	1.399405	0.914054
C79	C	1.012892	0.813787	0.413875
C80	C	1.512892	1.313787	0.913875
C81	C	1.070170	0.782331	0.356657
C82	C	1.570170	1.282331	0.856657
C83	C	1.049041	0.813467	0.278611
C84	C	1.549041	1.313467	0.778611
C85	C	1.048673	0.899112	0.278955
C86	C	1.548673	1.399112	0.778955
C87	C	1.148592	0.899067	0.376658
C88	C	1.648592	1.399067	0.876658
C89	C	1.148132	0.813417	0.378369
C90	C	1.648132	1.313417	0.878369
C91	C	1.070126	0.698472	0.356642
C92	C	1.570126	1.198472	0.856642
C93	C	1.070293	1.014573	0.356687
C94	C	1.570293	1.514573	0.856687
C95	C	1.070162	0.356864	0.164232
C96	C	1.570162	0.856864	0.664232
C97	C	1.070287	0.356663	0.081919
C98	C	1.570287	0.856663	0.581919
C99	C	1.070266	0.356733	0.931210
C100	C	1.570266	0.856733	1.431210
C101	C	1.012801	0.413775	0.899877
C102	C	1.512801	0.913775	1.399877
C103	C	1.012956	0.414040	0.814258
C104	C	1.512956	0.914040	1.314258
C105	C	1.070244	0.356802	0.782827
C106	C	1.570244	0.856802	1.282827
C107	C	1.148270	0.377992	0.813914
C108	C	1.648270	0.877992	1.313914
C109	C	1.147949	0.378366	0.899559
C110	C	1.647949	0.878366	1.399559
C111	C	1.050385	0.278374	0.899637
C112	C	1.550385	0.778374	1.399637
C113	C	1.048649	0.278826	0.813987
C114	C	1.548649	0.778826	1.313987
C115	C	1.070236	0.356839	0.698968
C116	C	1.570236	0.856839	1.198968
C117	C	1.070279	0.356697	1.015070
C118	C	1.570279	0.856697	1.515070
H119	H	0.634944	0.339594	0.233959
H120	H	1.134944	0.839594	0.733959
H121	H	0.634039	0.234893	0.337807
H122	H	1.134039	0.734893	0.837807
N123	N	1.030487	0.926641	0.490962
N124	N	1.530487	1.426641	0.990962
H125	H	1.081672	0.909883	0.505580
H126	H	1.581672	1.409883	1.005580
H127	H	1.028152	0.982380	0.491860
H128	H	1.528152	1.482380	0.991860
H129	H	0.954823	0.793357	0.400641
H130	H	1.454823	1.293357	0.900641
N131	N	1.100043	0.219536	0.785655
N132	N	1.600043	0.719536	1.285655
H133	H	1.097450	0.217722	0.729948
H134	H	1.597450	0.717722	1.229948
H135	H	1.152272	0.231096	0.801501
H136	H	1.652272	0.731096	1.301501
N137	N	0.936709	0.927984	0.396751
N138	N	1.436709	1.427984	0.896751
H139	H	0.938893	0.961123	0.351906
H140	H	1.438893	1.461123	0.851906
H141	H	0.902711	0.884973	0.386470
H142	H	1.402711	1.384973	0.886470
H143	H	1.026082	0.472122	0.793774
H144	H	1.526082	0.972122	1.293774
N145	N	0.499255	0.450766	0.252557
N146	N	0.999255	0.950766	0.752557
H147	H	0.465536	0.472221	0.291489
H148	H	0.965536	0.972221	0.791489
H149	H	0.542201	0.485329	0.244025
H150	H	1.042201	0.985329	0.744025
N151	N	1.204932	0.925882	0.321303
N152	N	1.704932	1.425882	0.821303
H153	H	1.206814	0.981639	0.322169
H154	H	1.706814	1.481639	0.822169
H155	H	1.255121	0.905324	0.334449
H156	H	1.755121	1.405324	0.834449
N157	N	0.641110	0.490856	0.396112
N158	N	1.141110	0.990856	0.896112
H159	H	0.597736	0.525049	0.388086
H160	H	1.097736	1.025049	0.888086
H161	H	0.672028	0.509636	0.438584
H162	H	1.172028	1.009636	0.938584
H163	H	1.025796	0.471503	0.921400
H164	H	1.525796	0.971503	1.421400
H165	H	1.088449	0.919824	0.234746
H166	H	1.588449	1.419824	0.734746
H167	H	0.507058	0.472452	0.400367
H168	H	1.007058	0.972452	0.900367
N169	N	0.972820	0.925659	0.256530
N170	N	1.472820	1.425659	0.756530
H171	H	0.939936	0.881726	0.246517
H172	H	1.439936	1.381726	0.746517
H173	H	0.950936	0.956292	0.297704
H174	H	1.450936	1.456292	0.797704
H175	H	0.506163	0.401485	0.471339
H176	H	1.006163	0.901485	0.971339
N177	N	1.102381	0.786483	0.220433
N178	N	1.602381	1.286483	0.720433
H179	H	1.140847	0.753737	0.244166
H180	H	1.640847	1.253737	0.744166
H181	H	1.074548	0.757490	0.181746
H182	H	1.574548	1.257490	0.681746
H183	H	1.164804	0.435648	0.919540
H184	H	1.664804	0.935648	1.419540
H185	H	0.633794	0.401138	0.471908
H186	H	1.133794	0.901138	0.971908
N187	N	0.972595	0.257648	0.787069
N188	N	1.472595	0.757648	1.287069
H189	H	0.938833	0.249942	0.830813
H190	H	1.438833	0.749942	1.330813
H191	H	0.952273	0.298408	0.754815
H192	H	1.452273	0.798408	1.254815
N193	N	0.936315	0.396484	0.786412
N194	N	1.436315	0.896484	1.286412
H195	H	0.936269	0.396628	0.730616
H196	H	1.436269	0.896628	1.230616
H197	H	0.920937	0.346150	0.804927
H198	H	1.420937	0.846150	1.304927
H199	H	1.192236	0.337751	0.793556
H200	H	1.692236	0.837751	1.293556
N201	N	0.501580	0.256918	0.454286
N202	N	1.001580	0.756918	0.954286
H203	H	0.545556	0.246954	0.487168
H204	H	1.045556	0.746954	0.987168
H205	H	0.470921	0.298102	0.476135
H206	H	0.970921	0.798102	0.976135
N207	N	0.500573	0.220569	0.325858
N208	N	1.000573	0.720569	0.825858
H209	H	0.544107	0.194592	0.302543
H210	H	1.044107	0.694592	0.802543
H211	H	0.469656	0.183555	0.353900
H212	H	0.969656	0.683555	0.853900
N213	N	1.170982	0.453064	0.785518
N214	N	1.670982	0.953064	1.285518
H215	H	1.221257	0.466207	0.805829
H216	H	1.721257	0.966207	1.305829
H217	H	1.173116	0.451981	0.729775
H218	H	1.673116	0.951981	1.229775
N219	N	0.640495	0.454432	0.257316
N220	N	1.140495	0.954432	0.757316
H221	H	0.672764	0.474832	0.298000
H222	H	1.172764	0.974832	0.798000
H223	H	0.669989	0.451056	0.210080
H224	H	1.169989	0.951056	0.710080
H225	H	1.192217	0.338623	0.920287
H226	H	1.692217	0.838623	1.420287
N227	N	1.207461	0.785066	0.327046
N228	N	1.707461	1.285066	0.827046
H229	H	1.245443	0.756575	0.356385
H230	H	1.745443	1.256575	0.856385
H231	H	1.184485	0.751549	0.288830
H232	H	1.684485	1.251549	0.788830
H233	H	0.994478	0.259069	0.921237
H234	H	1.494478	0.759069	1.421237
H235	H	1.092240	0.235875	0.919901
H236	H	1.592240	0.735875	1.419901
H237	H	0.635139	0.261794	0.434677
H238	H	1.135139	0.761794	0.934677
N239	N	0.501063	0.321248	0.222041
N240	N	1.001063	0.821248	0.722041
H241	H	0.468631	0.283464	0.247201
H242	H	0.968631	0.783464	0.747201
H243	H	0.471775	0.347561	0.182486
H244	H	0.971775	0.847561	0.682486
N245	N	1.030396	0.785893	0.490530
N246	N	1.530396	1.285893	0.990530
H247	H	1.038359	0.829233	0.524741
H248	H	1.538359	1.329233	1.024741
H249	H	0.987862	0.755010	0.509210
H250	H	1.487862	1.255010	1.009210
N251	N	0.973988	0.785132	0.255787
N252	N	1.473988	1.285132	0.755787
H253	H	0.935774	0.801554	0.292976
H254	H	1.435774	1.301554	0.792976
H255	H	0.960948	0.805479	0.205487
H256	H	1.460948	1.305479	0.705487
H257	H	0.954768	0.400650	0.920477
H258	H	1.454768	0.900650	1.420477
H259	H	1.164065	0.793065	0.435807
H260	H	1.664065	1.293065	0.935807
N261	N	1.174116	0.927623	0.450755
N262	N	1.674116	1.427623	0.950755
H263	H	1.135149	0.961368	0.472123
H264	H	1.635149	1.461368	0.972123
H265	H	1.182549	0.884642	0.485337
H266	H	1.682549	1.384642	0.985337
