data_functionalizedCrystal
_audit_creation_method	'MofGen! by Chris Wilmer'
_symmetry_space_group_name_H-M	'P1'
_symmetry_Int_Tables_number	1
_symmetry_cell_setting	triclinic
loop_
_symmetry_equiv_pos_as_xyz
  x,y,z
_cell_length_a	19.188930
_cell_length_b	16.992695
_cell_length_c	16.053802
_cell_angle_alpha	87.258926
_cell_angle_beta	92.586369
_cell_angle_gamma	86.906501
loop_
_atom_site_label
_atom_site_type_symbol
_atom_site_fract_x
_atom_site_fract_y
_atom_site_fract_z
O1	O	-0.934644	-0.094549	-0.069701
O2	O	-0.434644	0.405451	0.430299
O3	O	-0.732101	-0.107727	-0.069644
O4	O	-0.232101	0.392273	0.430356
O5	O	-0.832560	0.013002	-0.069666
O6	O	-0.332560	0.513002	0.430334
O7	O	-0.834185	-0.215277	-0.069679
O8	O	-0.334185	0.284723	0.430321
O9	O	-0.827029	0.006384	0.069194
O10	O	-0.327029	0.506384	0.569194
O11	O	-0.726570	-0.114345	0.069216
O12	O	-0.226570	0.385655	0.569216
O13	O	-0.929113	-0.101167	0.069159
O14	O	-0.429113	0.398833	0.569159
Zn15	Zn	-0.826963	-0.108807	0.091235
Zn16	Zn	-0.326963	0.391193	0.591235
Zn17	Zn	-0.834250	-0.100087	-0.091720
Zn18	Zn	-0.334250	0.399913	0.408280
O19	O	-0.828653	-0.221895	0.069181
O20	O	-0.328653	0.278105	0.569181
C21	C	-0.703299	-0.110610	-0.000207
C22	C	-0.203299	0.389390	0.499793
C23	C	-0.625719	-0.109330	-0.000185
C24	C	-0.125719	0.390670	0.499815
C25	C	-0.827705	0.038898	-0.000235
C26	C	-0.327705	0.538898	0.499765
C27	C	-0.821472	0.125921	-0.000234
C28	C	-0.321472	0.625921	0.499766
C29	C	-0.957914	-0.098284	-0.000280
C30	C	-0.457914	0.401716	0.499720
C31	C	-1.035495	-0.099564	-0.000308
C32	C	-0.535495	0.400436	0.499692
C33	C	-0.584941	-0.180168	-0.000202
C34	C	-0.084941	0.319832	0.499798
C35	C	-0.512047	-0.178964	-0.000211
C36	C	-0.012047	0.321036	0.499789
C37	C	-0.479935	-0.106918	-0.000220
C38	C	0.020065	0.393082	0.499780
C39	C	-0.520722	-0.036070	-0.000198
C40	C	-0.020722	0.463930	0.499802
C41	C	-0.593614	-0.037276	-0.000180
C42	C	-0.093614	0.462724	0.499820
N43	N	-0.370616	-0.049593	-0.047510
N44	N	0.129384	0.450407	0.452490
N45	N	-0.301371	-0.048452	-0.047528
N46	N	0.198629	0.451548	0.452472
C47	C	-0.260316	-0.103279	-0.000271
C48	C	0.239684	0.396721	0.499729
N49	N	-0.291120	-0.159302	0.046996
N50	N	0.208880	0.340698	0.546996
N51	N	-0.360371	-0.160445	0.047011
N52	N	0.139629	0.339555	0.547011
C53	C	-0.400896	-0.105602	-0.000238
C54	C	0.099104	0.394398	0.499762
C55	C	-0.140497	-0.172817	-0.000297
C56	C	0.359503	0.327183	0.499703
C57	C	-0.067602	-0.171611	-0.000300
C58	C	0.432398	0.328389	0.499700
C59	C	-0.076279	-0.028714	-0.000295
C60	C	0.423721	0.471286	0.499705
C61	C	-0.149172	-0.029923	-0.000283
C62	C	0.350828	0.470077	0.499717
C63	C	-0.181277	-0.101977	-0.000288
C64	C	0.318723	0.398023	0.499712
C65	C	-0.833508	-0.247792	-0.000252
C66	C	-0.333508	0.252208	0.499748
C67	C	-0.839741	-0.334814	-0.000259
C68	C	-0.339741	0.165186	0.499741
N69	N	-0.821995	-0.114757	0.216096
N70	N	-0.321995	0.385243	0.716096
C71	C	-0.881613	0.176368	-0.000250
C72	C	-0.381613	0.676368	0.499750
C73	C	-0.875752	0.258135	-0.000256
C74	C	-0.375752	0.758135	0.499744
C75	C	-0.809751	0.289453	-0.000240
C76	C	-0.309751	0.789453	0.499760
C77	C	-0.749606	0.238999	-0.000227
C78	C	-0.249606	0.738999	0.499773
C79	C	-0.755467	0.157234	-0.000226
C80	C	-0.255467	0.657234	0.499774
C81	C	-0.785458	0.532967	-0.000245
C82	C	-0.285458	1.032967	0.499755
C83	C	-0.779601	0.614738	-0.000243
C84	C	-0.279601	1.114738	0.499757
C85	C	-0.905748	0.633869	-0.000273
C86	C	-0.405748	1.133869	0.499727
C87	C	-0.911603	0.552102	-0.000268
C88	C	-0.411603	1.052102	0.499732
C89	C	-0.851459	0.501655	-0.000259
C90	C	-0.351459	1.001655	0.499741
N91	N	-0.803759	0.373031	-0.000244
N92	N	-0.303759	0.873031	0.499756
N93	N	-0.857452	0.418079	-0.000261
N94	N	-0.357452	0.918079	0.499739
N95	N	-0.839224	-0.094131	-0.216581
N96	N	-0.339224	0.405869	0.283419
C97	C	-0.864758	-0.063405	0.259781
C98	C	-0.364758	0.436595	0.759781
C99	C	-0.861289	-0.067575	0.347188
C100	C	-0.361289	0.432425	0.847188
C101	C	-0.815061	-0.123101	0.390909
C102	C	-0.315061	0.376899	0.890909
C103	C	-0.772293	-0.174455	0.347219
C104	C	-0.272293	0.325545	0.847219
C105	C	-0.775758	-0.170281	0.259813
C106	C	-0.275758	0.329719	0.759813
C107	C	-0.799922	-0.141311	0.652322
C108	C	-0.299922	0.358689	1.152322
C109	C	-0.796461	-0.145483	0.739734
C110	C	-0.296461	0.354517	1.239734
C111	C	-0.885457	-0.038601	0.739698
C112	C	-0.385457	0.461399	1.239698
C113	C	-0.888921	-0.034435	0.652290
C114	C	-0.388921	0.465565	1.152290
C115	C	-0.846151	-0.085786	0.608607
C116	C	-0.346151	0.414214	1.108607
N117	N	-0.811516	-0.127366	0.480254
N118	N	-0.311516	0.372634	0.980254
N119	N	-0.849693	-0.081517	0.519264
N120	N	-0.349693	0.418483	1.019264
H121	H	-0.611076	-0.238839	-0.000207
H122	H	-0.111076	0.261161	0.499793
H123	H	-0.924725	0.299207	-0.000267
H124	H	-0.424725	0.799207	0.499733
C125	C	-0.932494	0.017889	0.787747
C126	C	-0.432494	0.517889	1.287747
H127	H	-0.960524	0.051553	0.749189
H128	H	-0.460524	0.551553	1.249189
H129	H	-0.904211	0.048824	0.821864
H130	H	-0.404211	0.548824	1.321864
H131	H	-0.961778	-0.011860	0.821822
H132	H	-0.461778	0.488140	1.321822
C133	C	-0.954213	0.141922	-0.000264
C134	C	-0.454213	0.641922	0.499736
H135	H	-0.949092	0.086000	-0.000253
H136	H	-0.449092	0.586000	0.499747
H137	H	-0.981098	0.161558	-0.048694
H138	H	-0.481098	0.661558	0.451306
H139	H	-0.977235	0.156950	0.048159
H140	H	-0.477235	0.656950	0.548159
H141	H	-0.758814	-0.190702	0.775328
H142	H	-0.258814	0.309298	1.275328
C143	C	-0.040965	0.050536	-0.000310
C144	C	0.459035	0.550536	0.499690
H145	H	0.008288	0.041110	-0.000329
H146	H	0.508288	0.541110	0.499671
H147	H	-0.052746	0.077391	0.048115
H148	H	0.447254	0.577391	0.548115
H149	H	-0.056640	0.081996	-0.048738
H150	H	0.443360	0.581996	0.451262
H151	H	-0.896110	-0.025759	0.382756
H152	H	-0.396110	0.474241	0.882756
H153	H	-0.034401	-0.229298	-0.000310
H154	H	0.465599	0.270702	0.499690
H155	H	-0.706495	0.116159	-0.000213
H156	H	-0.206495	0.616159	0.499787
H157	H	-0.182375	0.027761	-0.000273
H158	H	0.317625	0.527761	0.499727
H159	H	-0.965348	0.526610	-0.000281
H160	H	-0.465348	1.026610	0.499719
H161	H	-0.954714	0.674951	-0.000282
H162	H	-0.454714	1.174951	0.499718
C163	C	-0.706997	0.649187	-0.000240
C164	C	-0.206997	1.149187	0.499760
H165	H	-0.672016	0.607433	-0.000245
H166	H	-0.172016	1.107433	0.499755
H167	H	-0.700153	0.678382	0.048183
H168	H	-0.200153	1.178382	0.548183
H169	H	-0.704030	0.682990	-0.048671
H170	H	-0.204030	1.182990	0.451329
C171	C	-0.721419	-0.235510	0.395306
C172	C	-0.221419	0.264490	0.895306
H173	H	-0.696436	-0.265484	0.356768
H174	H	-0.196436	0.234516	0.856768
H175	H	-0.746976	-0.269713	0.429395
H176	H	-0.246976	0.230287	0.929395
H177	H	-0.689442	-0.208990	0.429411
H178	H	-0.189442	0.291010	0.929411
C179	C	-0.638472	0.040649	-0.000171
C180	C	-0.138472	0.540649	0.499829
H181	H	-0.608910	0.083732	-0.000182
H182	H	-0.108910	0.583732	0.499818
H183	H	-0.665146	0.040843	0.048256
H184	H	-0.165146	0.540843	0.548256
H185	H	-0.669029	0.045453	-0.048598
H186	H	-0.169029	0.545453	0.451402
C187	C	-0.752882	-0.197802	0.604282
C188	C	-0.252882	0.302198	1.104282
H189	H	-0.724862	-0.231474	0.642841
H190	H	-0.224862	0.268526	1.142841
H191	H	-0.723601	-0.168058	0.570206
H192	H	-0.223601	0.331942	1.070206
H193	H	-0.781169	-0.228741	0.570165
H194	H	-0.281169	0.271259	1.070165
H195	H	-0.736484	0.491903	-0.000237
H196	H	-0.236484	0.991903	0.499763
H197	H	-0.478839	-0.236651	-0.000223
H198	H	0.021161	0.263349	0.499777
C199	C	-0.939768	0.026648	0.604203
C200	C	-0.439768	0.526648	1.104203
H201	H	-0.964736	0.056640	0.642739
H202	H	-0.464736	0.556640	1.142739
H203	H	-0.971751	0.000159	0.570082
H204	H	-0.471751	0.500159	1.070082
H205	H	-0.914183	0.060842	0.570129
H206	H	-0.414183	0.560842	1.070129
C207	C	-0.915609	-0.002324	0.211695
C208	C	-0.415609	0.497676	0.711695
H209	H	-0.940575	0.027666	0.250234
H210	H	-0.440575	0.527666	0.750234
H211	H	-0.947593	-0.028813	0.177574
H212	H	-0.447593	0.471187	0.677574
H213	H	-0.890024	0.031870	0.177621
H214	H	-0.390024	0.531870	0.677621
H215	H	-0.695866	0.264504	-0.000219
H216	H	-0.195866	0.764504	0.499781
H217	H	-0.740935	-0.212096	0.224245
H218	H	-0.240935	0.287904	0.724245
C219	C	-0.485402	0.043179	-0.000212
C220	C	0.014598	0.543179	0.499788
H221	H	-0.436150	0.033753	-0.000234
H222	H	0.063850	0.533753	0.499766
H223	H	-0.497181	0.070032	0.048215
H224	H	0.002819	0.570032	0.548215
H225	H	-0.501079	0.074642	-0.048638
H226	H	-0.001079	0.574642	0.451362
H227	H	-0.166638	-0.231488	-0.000288
H228	H	0.333362	0.268512	0.499712
