data_functionalizedCrystal
_audit_creation_method	'MofGen! by Chris Wilmer'
_symmetry_space_group_name_H-M	'P1'
_symmetry_Int_Tables_number	1
_symmetry_cell_setting	triclinic
loop_
_symmetry_equiv_pos_as_xyz
  x,y,z
_cell_length_a	12.759395
_cell_length_b	13.897448
_cell_length_c	12.759387
_cell_angle_alpha	90.032712
_cell_angle_beta	90.020509
_cell_angle_gamma	90.019229
loop_
_atom_site_label
_atom_site_type_symbol
_atom_site_fract_x
_atom_site_fract_y
_atom_site_fract_z
Zn1	Zn	1.606247	-0.383924	0.593991
Zn2	Zn	1.606128	-0.545252	0.418306
Zn3	Zn	1.430545	-0.383977	0.418328
Zn4	Zn	1.430528	-0.545184	0.593945
O5	O	1.518362	-0.464584	0.506142
O6	O	1.753252	-0.405332	0.570696
O7	O	1.582794	-0.523909	0.271287
O8	O	1.453909	-0.248988	0.441659
O9	O	1.753165	-0.523858	0.441621
O10	O	1.582996	-0.248950	0.570718
O11	O	1.453794	-0.405421	0.271304
O12	O	1.283522	-0.405355	0.441614
O13	O	1.453880	-0.523741	0.740972
O14	O	1.283509	-0.523792	0.570639
O15	O	1.582980	-0.405265	0.741006
O16	O	1.582778	-0.680225	0.441576
O17	O	1.453765	-0.680174	0.570617
C18	C	1.245395	-0.464573	0.506124
C19	C	1.128618	-0.464591	0.506142
C20	C	1.518285	-0.715199	0.506112
C21	C	1.518349	-0.822413	0.506134
C22	C	1.128644	-0.588119	0.640278
C23	C	1.073796	-0.649891	0.707349
C24	C	0.964074	-0.649903	0.707362
C25	C	0.909198	-0.588134	0.640299
C26	C	0.964046	-0.526362	0.573227
C27	C	1.073770	-0.526359	0.573220
C28	C	0.964020	-0.402830	0.439098
C29	C	1.073742	-0.402822	0.439078
C30	C	0.909144	-0.341061	0.372035
C31	C	0.963992	-0.279293	0.304957
C32	C	1.073720	-0.279284	0.304946
C33	C	1.128590	-0.341050	0.372007
C34	C	1.518459	-1.018708	0.506200
C35	C	1.518395	-0.909475	0.506167
C36	C	1.792395	-0.464597	0.506161
C37	C	1.909172	-0.464602	0.506169
C38	C	1.518441	-0.464490	0.780176
C39	C	1.518475	-0.464449	0.896953
C40	C	1.518468	-0.212991	0.506196
C41	C	1.518513	-0.105777	0.506219
C42	C	1.518344	-0.464609	0.233175
C43	C	1.518513	-0.464377	0.116399
C44	C	1.652916	-0.341088	0.897008
C45	C	1.720151	-0.279393	0.951896
C46	C	1.720176	-0.279358	1.061618
C47	C	1.652958	-0.341022	1.116454
C48	C	1.585723	-0.402718	1.061565
C49	C	1.585707	-0.402748	0.951841
C50	C	1.451278	-0.526072	1.061510
C51	C	1.451256	-0.526114	0.951789
C52	C	1.384059	-0.587737	1.116346
C53	C	1.316828	-0.649438	1.061458
C54	C	1.316806	-0.649472	0.951729
C55	C	1.384021	-0.587809	0.896900
H56	H	1.217985	-0.588123	0.640266
O57	O	0.904943	-0.716584	0.779666
H58	H	0.926038	-0.700182	0.862166
O59	O	1.383993	-0.587857	0.778557
H60	H	1.362786	-0.515111	0.749638
O61	O	1.132979	-0.716490	0.779705
H62	H	1.218491	-0.706106	0.768435
H63	H	1.118371	-0.228975	0.250335
O64	O	1.244331	-0.715935	1.120605
H65	H	1.197571	-0.758840	1.064008
H66	H	1.217931	-0.341052	0.372002
O67	O	1.384077	-0.587695	1.234689
H68	H	1.405265	-0.660446	1.263605
H69	H	0.819857	-0.588141	0.640324
O70	O	1.792686	-0.212798	1.120809
H71	H	1.745685	-0.163699	1.170789
O72	O	1.792660	-0.212893	0.892756
H73	H	1.781360	-0.223287	0.807238
O74	O	1.652890	-0.341132	0.778665
H75	H	1.710919	-0.287887	0.749756
O76	O	1.244264	-0.716001	0.892538
H77	H	1.262233	-0.791706	0.913574
O78	O	0.790801	-0.341106	0.372001
H79	H	0.761878	-0.394456	0.429882
O80	O	0.904810	-0.212696	0.232607
H81	H	0.819300	-0.223090	0.243877
H82	H	1.652975	-0.340980	1.205795
