data_functionalizedCrystal
_audit_creation_method	'MofGen! by Chris Wilmer'
_symmetry_space_group_name_H-M	'P1'
_symmetry_Int_Tables_number	1
_symmetry_cell_setting	triclinic
loop_
_symmetry_equiv_pos_as_xyz
  x,y,z
_cell_length_a	19.805407
_cell_length_b	12.594516
_cell_length_c	19.805399
_cell_angle_alpha	90.020797
_cell_angle_beta	90.019573
_cell_angle_gamma	90.016053
loop_
_atom_site_label
_atom_site_type_symbol
_atom_site_fract_x
_atom_site_fract_y
_atom_site_fract_z
Zn1	Zn	1.034784	-0.423767	0.382752
Zn2	Zn	1.034720	-0.601760	0.269577
Zn3	Zn	0.921599	-0.423796	0.269576
Zn4	Zn	0.921583	-0.601704	0.382723
O5	O	0.978172	-0.512757	0.326157
O6	O	1.129492	-0.447389	0.367751
O7	O	1.019694	-0.578189	0.174860
O8	O	0.936647	-0.274846	0.284601
O9	O	1.129445	-0.578160	0.284602
O10	O	1.019804	-0.274825	0.367750
O11	O	0.936584	-0.447439	0.174860
O12	O	0.826880	-0.447385	0.284573
O13	O	0.936620	-0.578064	0.477444
O14	O	0.826869	-0.578092	0.367702
O15	O	1.019788	-0.447335	0.477464
O16	O	1.019678	-0.750698	0.284574
O17	O	0.936557	-0.750657	0.367703
C18	C	0.802316	-0.512736	0.326135
C19	C	0.727084	-0.512753	0.326142
C20	C	0.691751	-0.580915	0.369357
C21	C	0.621063	-0.580917	0.369366
C22	C	0.585708	-0.512762	0.326157
C23	C	0.621045	-0.444592	0.282940
C24	C	0.691733	-0.444586	0.282934
C25	C	0.335972	-0.444615	0.282962
C26	C	0.265280	-0.444629	0.282970
C27	C	0.265302	-0.580947	0.369394
C28	C	0.335989	-0.580941	0.369389
C29	C	0.371321	-0.512768	0.326175
C30	C	0.447969	-0.512765	0.326166
C31	C	0.509061	-0.512769	0.326162
C32	C	0.978127	-0.789298	0.326150
C33	C	0.978170	-0.907603	0.326170
C34	C	0.932956	-0.976872	0.371352
C35	C	0.916467	-1.047728	0.309590
C36	C	0.994721	-1.047546	0.387943
C37	C	0.961649	-0.976901	0.264375
C38	C	1.039931	-0.976712	0.342770
C39	C	1.023465	-1.047536	0.280965
C40	C	1.154714	-0.512778	0.326179
C41	C	1.229946	-0.512787	0.326189
C42	C	0.978209	-0.512690	0.502700
C43	C	0.978226	-0.512661	0.577932
C44	C	0.978235	-0.235136	0.326178
C45	C	0.978261	-0.116830	0.326188
C46	C	0.978173	-0.512747	0.150301
C47	C	0.978288	-0.512475	0.075069
C48	C	1.021533	-0.444587	0.613288
C49	C	1.021539	-0.444556	0.683976
C50	C	0.978242	-0.512605	0.719307
C51	C	0.934931	-0.580683	0.683947
C52	C	0.934921	-0.580707	0.613259
C53	C	0.934969	-0.580583	0.969020
C54	C	0.934984	-0.580556	1.039712
C55	C	1.021588	-0.444432	1.039737
C56	C	1.021578	-0.444457	0.969050
C57	C	0.978264	-0.512530	0.933695
C58	C	0.978256	-0.512561	0.857046
C59	C	0.978253	-0.512580	0.795955
H60	H	0.592298	-0.636423	0.404556
H61	H	0.894652	-0.945843	0.409505
H62	H	0.899710	-0.636028	0.940243
H63	H	1.092106	-0.945498	0.356826
O64	O	0.945030	-0.940095	0.202001
C65	C	0.992501	-0.976962	0.154426
H66	H	1.041788	-0.997157	0.181245
H67	H	1.002142	-0.912554	0.115164
H68	H	0.971960	-1.050985	0.128397
O69	O	0.725987	-0.647157	0.411396
C70	C	0.679640	-0.707334	0.449529
H71	H	0.629259	-0.663746	0.451921
H72	H	0.700083	-0.718794	0.502845
H73	H	0.672100	-0.788123	0.424659
H74	H	1.056806	-0.389126	0.712760
H75	H	0.899649	-0.636130	0.584473
O76	O	1.011462	-1.084694	0.450203
C77	C	1.070780	-1.146139	0.445608
H78	H	1.076823	-1.176692	0.391761
H79	H	1.067223	-1.216283	0.481798
H80	H	1.116261	-1.095132	0.459551
O81	O	1.063662	-0.378632	0.578939
C82	C	1.107349	-0.439242	0.538039
H83	H	1.111519	-0.523066	0.559333
H84	H	1.159445	-0.400746	0.537250
H85	H	1.086412	-0.442926	0.484462
H86	H	1.056837	-0.389047	0.940287
H87	H	1.061740	-1.078369	0.242720
O88	O	1.063594	-0.378328	1.074186
C89	C	1.054332	-0.392907	1.144153
H90	H	1.002090	-0.427754	1.153796
H91	H	1.058946	-0.313169	1.171022
H92	H	1.094469	-0.449585	1.164218
H93	H	0.364771	-0.636444	0.404572
O94	O	0.230875	-0.647064	0.411358
C95	C	0.160904	-0.632477	0.402091
H96	H	0.151249	-0.550290	0.380015
H97	H	0.134062	-0.639808	0.452786
H98	H	0.140818	-0.695536	0.365981
H99	H	0.236496	-0.389122	0.247783
O100	O	0.370182	-0.378361	0.240922
C101	C	0.323817	-0.318191	0.202800
H102	H	0.273425	-0.361797	0.200410
H103	H	0.344220	-0.306712	0.149483
H104	H	0.316314	-0.237411	0.227678
O105	O	0.586600	-0.378479	0.240991
C106	C	0.516632	-0.393080	0.250274
H107	H	0.506975	-0.475271	0.272350
H108	H	0.489746	-0.385750	0.199585
H109	H	0.496598	-0.330027	0.286391
O110	O	0.892952	-0.646807	1.073958
C111	C	0.907721	-0.752902	1.056691
H112	H	0.933729	-0.755133	1.005370
H113	H	0.858858	-0.800616	1.054261
H114	H	0.942518	-0.788747	1.096476
O115	O	0.725952	-0.378345	0.240887
C116	C	0.679592	-0.318174	0.202760
H117	H	0.629196	-0.361769	0.200376
H118	H	0.699994	-0.306712	0.149442
H119	H	0.672097	-0.237387	0.227631
O120	O	0.892934	-0.646750	0.718370
C121	C	0.902217	-0.632116	0.788342
H122	H	0.954462	-0.597263	0.798010
H123	H	0.897610	-0.711832	0.815198
H124	H	0.862086	-0.575421	0.808399
O125	O	0.854166	-1.084897	0.292953
C126	C	0.806597	-1.048879	0.340694
H127	H	0.833475	-1.028937	0.390003
H128	H	0.767547	-1.113702	0.350152
H129	H	0.780303	-0.974877	0.320534
