data_functionalizedCrystal
_audit_creation_method	'MofGen! by Chris Wilmer'
_symmetry_space_group_name_H-M	'P1'
_symmetry_Int_Tables_number	1
_symmetry_cell_setting	triclinic
loop_
_symmetry_equiv_pos_as_xyz
  x,y,z
_cell_length_a	10.723024
_cell_length_b	10.723024
_cell_length_c	9.198806
_cell_angle_alpha	89.997988
_cell_angle_beta	89.996352
_cell_angle_gamma	84.467869
loop_
_atom_site_label
_atom_site_type_symbol
_atom_site_fract_x
_atom_site_fract_y
_atom_site_fract_z
O1	O	1.657188	0.175024	-0.120879
O2	O	1.294035	0.191778	-0.120884
O3	O	1.483988	0.001825	-0.120876
O4	O	1.467235	0.364977	-0.120887
O5	O	1.483973	0.001824	0.120909
O6	O	1.294020	0.191777	0.120901
O7	O	1.657173	0.175024	0.120906
Cu8	Cu	1.475595	0.183401	0.142981
Cu9	Cu	1.475613	0.183401	-0.142958
O10	O	1.467220	0.364977	0.120898
C11	C	1.247528	0.190558	0.000008
C12	C	1.108974	0.186911	0.000007
C13	C	1.482762	-0.044675	0.000015
C14	C	1.479114	-0.183229	0.000010
C15	C	1.033991	0.293198	0.000002
C16	C	0.890788	0.289431	0.000001
C17	C	1.585401	-0.258212	0.000009
C18	C	1.581634	-0.401415	0.000004
C19	C	1.703680	0.176243	0.000011
C20	C	1.842234	0.179891	0.000003
C21	C	1.468447	0.411477	0.000004
C22	C	1.472094	0.550031	-0.000000
N23	N	1.475592	0.183399	0.344095
N24	N	1.475626	0.183393	-0.344072
C25	C	1.555347	0.103292	0.416295
C26	C	1.555367	0.103288	0.583707
H27	H	1.075814	0.386984	0.000008
H28	H	1.407319	0.251975	0.406220
H29	H	1.672624	-0.465848	0.000010
Br30	Br	1.741727	-0.188520	-0.000004
H31	H	1.381099	-0.385544	0.000010
Br32	Br	1.322788	-0.252921	-0.000013
H33	H	1.067152	0.093125	-0.000028
Br34	Br	1.668820	-0.011335	0.312762
Br35	Br	1.361818	0.297723	0.552459
H36	H	1.623653	0.034709	0.645796
H37	H	0.826355	0.380421	-0.000009
H38	H	0.906659	0.088896	-0.000003
