data_functionalizedCrystal
_audit_creation_method	'MofGen! by Chris Wilmer'
_symmetry_space_group_name_H-M	'P1'
_symmetry_Int_Tables_number	1
_symmetry_cell_setting	triclinic
loop_
_symmetry_equiv_pos_as_xyz
  x,y,z
_cell_length_a	13.339070
_cell_length_b	15.944551
_cell_length_c	12.376457
_cell_angle_alpha	101.276265
_cell_angle_beta	75.589755
_cell_angle_gamma	99.564016
loop_
_atom_site_label
_atom_site_type_symbol
_atom_site_fract_x
_atom_site_fract_y
_atom_site_fract_z
O1	O	1.361721	0.409519	-0.094056
O2	O	1.067189	0.354248	-0.094048
O3	O	1.222496	0.261484	-0.094042
O4	O	1.206414	0.502283	-0.094062
O5	O	1.183683	0.284634	0.093969
O6	O	1.028376	0.377398	0.093963
O7	O	1.322908	0.432670	0.093955
Zn8	Zn	1.169480	0.408710	0.123810
Zn9	Zn	1.220618	0.378208	-0.123903
O10	O	1.167601	0.525433	0.093949
C11	C	1.010092	0.356487	-0.000041
C12	C	0.897788	0.328657	-0.000038
C13	C	0.533017	0.545045	-0.000074
C14	C	0.638533	0.571195	-0.000081
C15	C	0.703352	0.510563	-0.000069
C16	C	0.662645	0.423776	-0.000053
C17	C	0.557120	0.397623	-0.000055
C18	C	0.727455	0.363140	-0.000050
C19	C	0.686748	0.276354	-0.000033
C20	C	0.581233	0.250205	-0.000035
C21	C	0.516415	0.310837	-0.000046
C22	C	0.832979	0.389294	-0.000048
C23	C	0.857082	0.241871	-0.000029
C24	C	0.751566	0.215722	-0.000022
C25	C	1.202422	0.241610	-0.000036
C26	C	1.200420	0.147897	-0.000036
C27	C	1.099369	-0.090507	-0.000048
C28	C	1.127158	-0.129176	0.092651
C29	C	1.196799	-0.023674	-0.000044
C30	C	1.165448	-0.151979	-0.092713
C31	C	1.193296	-0.189405	-0.000057
C32	C	1.224599	-0.061099	0.092732
C33	C	1.262892	-0.083908	-0.092715
C34	C	1.290747	-0.122540	0.000007
C35	C	1.198814	0.071800	-0.000036
C36	C	1.191287	-0.284874	-0.000058
C37	C	1.380005	0.430431	-0.000054
C38	C	1.492311	0.458260	-0.000065
C39	C	1.187676	0.545308	-0.000059
C40	C	1.189680	0.639019	-0.000067
N41	N	1.134587	0.429527	0.292867
N42	N	1.255518	0.357386	-0.292960
C43	C	1.336516	0.309045	0.647859
C44	C	1.360931	0.294473	0.529520
C45	C	1.304347	0.328235	0.470351
C46	C	1.223343	0.376572	0.529532
C47	C	1.198930	0.391151	0.647883
C48	C	1.166762	0.410341	0.470375
C49	C	1.085758	0.458678	0.529556
C50	C	1.061349	0.473254	0.647895
C51	C	1.117933	0.439492	0.707064
C52	C	1.191175	0.395762	0.352024
C53	C	1.053590	0.477868	0.352048
C54	C	1.029174	0.492440	0.470387
H55	H	0.671671	0.641855	-0.000103
H56	H	0.789267	0.531859	-0.000078
H57	H	0.995399	0.512620	0.696080
H58	H	0.548096	0.179536	-0.000034
H59	H	1.426885	0.255119	0.481339
H60	H	1.320246	-0.063834	-0.171092
H61	H	1.018478	-0.076032	0.000046
O62	O	0.920035	0.182909	-0.000216
C63	C	0.921672	0.119676	-0.097571
H64	H	0.899664	0.147234	-0.165634
H65	H	0.863395	0.061245	-0.075554
C66	C	1.058941	0.058459	-0.058119
C67	C	1.031920	0.092309	-0.141719
H68	H	1.126946	0.041574	-0.085350
H69	H	1.057837	0.101058	0.007473
H70	H	1.010369	0.009771	-0.039779
H71	H	1.080484	0.141001	-0.160047
H72	H	1.033035	0.049717	-0.207315
H73	H	1.140405	-0.191311	-0.171088
H74	H	1.382585	0.281565	0.696043
H75	H	1.098051	0.451353	0.803425
H76	H	1.249577	-0.021853	0.171188
H77	H	1.257129	0.356407	0.303849
O78	O	1.387334	-0.139643	-0.000160
C79	C	1.422970	-0.198425	-0.097977
H80	H	1.380508	-0.194947	-0.166035
H81	H	1.406799	-0.266507	-0.076728
C82	C	1.593257	-0.179637	-0.058008
C83	C	1.541109	-0.175360	-0.141602
H84	H	1.666131	-0.165414	-0.084916
H85	H	1.569247	-0.140037	0.007896
H86	H	1.579769	-0.236374	-0.040308
H87	H	1.554587	-0.118622	-0.159290
H88	H	1.565124	-0.214951	-0.207510
O89	O	0.950426	0.539287	0.528008
C90	C	0.873888	0.488150	0.596460
H91	H	0.910527	0.434013	0.614177
H92	H	0.808526	0.459368	0.550874
C93	C	0.784082	0.610791	0.687121
C94	C	0.829085	0.544304	0.708889
H95	H	0.756441	0.645429	0.756471
H96	H	0.835645	0.645243	0.641001
H97	H	0.729620	0.586796	0.649130
H98	H	0.883554	0.568299	0.746867
H99	H	0.777530	0.509856	0.755019
O100	O	0.998693	0.510577	0.294409
C101	C	1.037625	0.487362	0.177266
H102	H	1.078764	0.427417	0.161104
H103	H	1.095296	0.542615	0.143666
C104	C	0.896149	0.541967	0.136375
C105	C	0.946669	0.468337	0.116524
H106	H	0.840045	0.530235	0.098905
H107	H	0.869921	0.557610	0.215296
H108	H	0.944219	0.588004	0.108375
H109	H	0.898602	0.422305	0.144537
H110	H	0.972886	0.452686	0.037606
O111	O	0.469901	0.603830	-0.000037
C112	C	0.368048	0.562130	-0.000069
H113	H	0.356650	0.499595	0.035534
H114	H	0.356161	0.547092	-0.090270
C115	C	0.302241	0.698173	0.029919
C116	C	0.288240	0.621370	0.073657
H117	H	0.253011	0.734715	0.075392
H118	H	0.370862	0.726267	0.029937
H119	H	0.292337	0.685629	-0.045248
H120	H	0.298157	0.633913	0.148816
H121	H	0.219618	0.593279	0.073654
H122	H	1.324230	0.316368	0.373994
O123	O	0.712028	0.131433	0.000184
C124	C	0.725060	0.104962	0.097546
H125	H	0.732966	0.163658	0.165601
H126	H	0.798368	0.071466	0.075536
C127	C	0.619880	-0.030087	0.058114
C128	C	0.629581	0.042004	0.141704
H129	H	0.560988	-0.068925	0.085350
H130	H	0.611103	-0.012255	-0.007483
H131	H	0.680976	-0.057989	0.039780
H132	H	0.568492	0.069911	0.160026
H133	H	0.638346	0.024175	0.207305
O134	O	0.872424	0.473598	-0.000210
C135	C	0.859431	0.500048	-0.097603
H136	H	0.792952	0.456099	-0.130065
H137	H	0.934569	0.496157	-0.165784
C138	C	0.915192	0.647547	-0.028167
C139	C	0.833535	0.593571	-0.068032
H140	H	0.899223	0.705237	-0.009929
H141	H	0.923950	0.629727	0.037447
H142	H	0.977800	0.644294	-0.084991
H143	H	0.770933	0.596817	-0.011203
H144	H	0.824767	0.611394	-0.133636
H145	H	1.069769	-0.149237	0.171023
H146	H	0.430494	0.289550	-0.000040
