data_functionalizedCrystal
_audit_creation_method	'MofGen! by Chris Wilmer'
_symmetry_space_group_name_H-M	'P1'
_symmetry_Int_Tables_number	1
_symmetry_cell_setting	triclinic
loop_
_symmetry_equiv_pos_as_xyz
  x,y,z
_cell_length_a	15.944551
_cell_length_b	10.654550
_cell_length_c	9.130313
_cell_angle_alpha	90.000110
_cell_angle_beta	89.995572
_cell_angle_gamma	96.008180
loop_
_atom_site_label
_atom_site_type_symbol
_atom_site_fract_x
_atom_site_fract_y
_atom_site_fract_z
O1	O	1.115457	-0.161961	-0.121938
O2	O	0.871023	-0.181929	-0.121909
O3	O	0.998860	0.010867	-0.121919
O4	O	0.987620	-0.354757	-0.121928
O5	O	0.998858	0.010862	0.121680
O6	O	0.871021	-0.181935	0.121690
O7	O	1.115455	-0.161966	0.121661
Cu8	Cu	0.993238	-0.171951	0.143918
Cu9	Cu	0.993240	-0.171945	-0.144166
O10	O	0.987618	-0.354762	0.121670
C11	C	0.839723	-0.181103	-0.000106
C12	C	0.746463	-0.178618	-0.000095
C13	C	1.146755	-0.162792	-0.000145
C14	C	1.240015	-0.165278	-0.000166
C15	C	0.998034	0.057652	-0.000121
C16	C	0.995565	0.197063	-0.000126
C17	C	1.455598	-0.290722	-0.000136
C18	C	1.516282	-0.232467	-0.120240
C19	C	1.410767	-0.169774	-0.000145
C20	C	1.516258	-0.232444	0.119929
C21	C	1.575705	-0.174126	-0.000118
C22	C	1.470222	-0.111486	-0.120348
C23	C	1.470192	-0.111479	0.119929
C24	C	1.530858	-0.053136	-0.000205
C25	C	1.315750	-0.167270	-0.000162
C26	C	1.670721	-0.176620	-0.000112
C27	C	0.988444	-0.401547	-0.000131
C28	C	0.990913	-0.540958	-0.000135
N29	N	0.993243	-0.171954	0.346540
C30	C	1.070833	0.277523	-0.000130
C31	C	1.068508	0.408513	-0.000140
C32	C	0.915639	0.378572	-0.000135
C33	C	0.917965	0.247584	-0.000136
C34	C	1.159090	0.294810	-0.000127
C35	C	1.156765	0.425801	-0.000137
N36	N	0.993242	-0.171931	-0.346789
C37	C	1.049864	-0.086613	0.423188
C38	C	1.049861	-0.086598	0.576525
C39	C	0.936615	-0.257277	0.576553
C40	C	0.936614	-0.257285	0.423219
C41	C	1.115248	0.011924	0.423173
C42	C	1.115246	0.011939	0.576510
H43	H	1.422873	-0.391116	-0.000258
H44	H	1.193612	0.265901	-0.102069
H45	H	1.449763	-0.060369	0.221477
O46	O	0.844907	0.169295	0.000046
C47	C	0.758780	0.004072	0.126267
C48	C	0.841561	0.092644	0.126231
H49	H	0.756040	-0.057904	0.228292
H50	H	0.756049	-0.058083	0.024387
H51	H	0.702934	0.062708	0.126189
H52	H	0.897454	0.034108	0.126361
H53	H	0.844218	0.154804	0.228103
O54	O	1.192623	0.252920	0.125437
C55	C	1.313618	0.262781	0.284746
C56	C	1.275847	0.310235	0.142373
H57	H	1.380903	0.309120	0.298500
H58	H	1.314055	0.155955	0.279239
H59	H	1.273826	0.288201	0.381962
H60	H	1.315607	0.284904	0.045083
H61	H	1.275395	0.417052	0.148008
O62	O	1.090948	0.120565	0.633011
C63	C	1.045182	0.324602	0.582110
C64	C	1.072689	0.201656	0.517925
H65	H	1.030396	0.390186	0.489094
H66	H	1.098221	0.372897	0.652306
H67	H	0.986504	0.301696	0.652465
H68	H	1.131349	0.224452	0.447503
H69	H	1.019601	0.153394	0.447812
H70	H	1.563429	0.047348	-0.000262
O71	O	1.098276	0.126899	0.373432
C72	C	1.146929	0.310776	0.231266
C73	C	1.166272	0.180612	0.287532
H74	H	1.201884	0.354230	0.161779
H75	H	1.137401	0.375108	0.328307
H76	H	1.087143	0.299310	0.161970
H77	H	1.226066	0.191958	0.356803
H78	H	1.175747	0.116327	0.190425
H79	H	0.890501	-0.326765	0.360814
O80	O	1.188652	0.480484	-0.125671
C81	C	1.250841	0.449036	-0.361642
C82	C	1.214770	0.386946	-0.219542
H83	H	1.271950	0.373436	-0.437589
H84	H	1.307086	0.520249	-0.334337
H85	H	1.200127	0.499393	-0.418241
H86	H	1.265423	0.336520	-0.162873
H87	H	1.158506	0.315801	-0.246942
H88	H	1.179794	-0.008744	0.618118
H89	H	1.536638	-0.283624	0.221468
H90	H	0.852460	0.419722	-0.000144
H91	H	1.536693	-0.283624	-0.221778
O92	O	1.445884	-0.050593	-0.241582
C93	C	1.330137	0.020123	-0.377561
C94	C	1.357584	-0.048882	-0.240220
H95	H	1.258747	0.021552	-0.376490
H96	H	1.349448	-0.031087	-0.479841
H97	H	1.361914	0.121079	-0.377978
H98	H	1.325821	-0.149841	-0.239661
H99	H	1.338288	0.002426	-0.138003
H100	H	1.190019	0.467989	0.101803
O101	O	0.881494	-0.340039	0.650978
C102	C	0.735871	-0.413518	0.697848
C103	C	0.798203	-0.319699	0.613501
H104	H	0.668517	-0.397123	0.667555
H105	H	0.745521	-0.398851	0.820623
H106	H	0.747437	-0.514109	0.667730
H107	H	0.786674	-0.219071	0.643495
H108	H	0.788537	-0.334476	0.490745
H109	H	1.176233	-0.017876	0.375607
