data_functionalizedCrystal
_audit_creation_method	'MofGen! by Chris Wilmer'
_symmetry_space_group_name_H-M	'P1'
_symmetry_Int_Tables_number	1
_symmetry_cell_setting	triclinic
loop_
_symmetry_equiv_pos_as_xyz
  x,y,z
_cell_length_a	10.654541
_cell_length_b	15.944551
_cell_length_c	9.730217
_cell_angle_alpha	89.995798
_cell_angle_beta	89.999932
_cell_angle_gamma	83.991333
loop_
_atom_site_label
_atom_site_type_symbol
_atom_site_fract_x
_atom_site_fract_y
_atom_site_fract_z
O1	O	1.666312	0.117965	-0.114251
O2	O	1.300688	0.129208	-0.114263
O3	O	1.493484	0.001369	-0.114245
O4	O	1.473516	0.245804	-0.114270
O5	O	1.493478	0.001368	0.114335
O6	O	1.300682	0.129206	0.114317
O7	O	1.666306	0.117964	0.114329
Zn8	Zn	1.483493	0.123585	0.150615
Zn9	Zn	1.483501	0.123587	-0.150549
O10	O	1.473510	0.245802	0.114310
C11	C	1.253897	0.128382	0.000025
C12	C	1.114486	0.125914	0.000021
C13	C	1.084537	0.278779	-0.000012
C14	C	1.004069	0.354048	-0.000034
C15	C	0.873081	0.351724	-0.000035
C16	C	0.822560	0.274122	-0.000010
C17	C	0.903028	0.198852	0.000012
C18	C	1.034017	0.201185	0.000009
C19	C	0.932976	0.045989	0.000055
C20	C	1.063965	0.048311	0.000046
C21	C	0.882455	-0.031613	0.000080
C22	C	0.962924	-0.106885	0.000092
C23	C	1.093919	-0.104557	0.000091
C24	C	1.144433	-0.026958	0.000068
C25	C	1.492652	-0.029930	0.000046
C26	C	1.490167	-0.123190	0.000046
C27	C	1.364722	-0.338772	0.000023
C28	C	1.422972	-0.399453	0.112729
C29	C	1.485671	-0.293942	0.000036
C30	C	1.423006	-0.399436	-0.112633
C31	C	1.481319	-0.458880	0.000019
C32	C	1.543954	-0.353395	0.112834
C33	C	1.543971	-0.353371	-0.112629
C34	C	1.602309	-0.414034	0.000104
C35	C	1.488175	-0.198925	0.000046
C36	C	1.478825	-0.553896	0.000019
C37	C	1.713097	0.118790	0.000037
C38	C	1.852508	0.121258	0.000033
C39	C	1.474342	0.277102	0.000017
C40	C	1.476827	0.370362	0.000007
N41	N	1.483497	0.123584	0.356151
N42	N	1.483507	0.123582	-0.356086
C43	C	1.654288	0.010416	0.356159
C44	C	1.739691	-0.046165	0.428102
C45	C	1.739704	-0.046166	0.571982
C46	C	1.654302	0.010420	0.643921
C47	C	1.568898	0.067001	0.571978
C48	C	1.568897	0.066997	0.428095
C49	C	1.398103	0.180163	0.571971
C50	C	1.398094	0.180169	0.428091
C51	C	1.312700	0.236748	0.643910
C52	C	1.227301	0.293335	0.571967
C53	C	1.227292	0.293334	0.428078
C54	C	1.312691	0.236750	0.356147
H55	H	1.191193	0.280679	-0.000042
F56	F	1.057846	0.436634	-0.000061
H57	H	1.371813	-0.419858	0.208009
F58	F	1.830594	-0.106390	0.648550
H59	H	1.157766	0.339399	0.630549
F60	F	1.136385	0.353552	0.351522
H61	H	1.595086	-0.332944	-0.207914
F62	F	1.356116	-0.426082	-0.237166
H63	H	1.654296	0.010418	0.239004
H64	H	0.715901	0.272236	0.000005
F65	F	1.233502	-0.295996	0.000159
F66	F	1.830576	-0.106388	0.351533
H67	H	0.807563	0.413015	-0.000043
F68	F	0.909147	-0.189465	0.000129
F69	F	1.654304	0.010408	0.797052
H70	H	0.775797	-0.033501	0.000086
F71	F	1.179551	-0.184671	0.000125
H72	H	1.251088	-0.025055	0.000051
H73	H	1.595065	-0.333109	0.208223
H74	H	1.702790	-0.446611	0.000171
F75	F	1.312708	0.236744	0.797040
H76	H	1.312696	0.236747	0.238993
