data_functionalizedCrystal
_audit_creation_method	'MofGen! by Chris Wilmer'
_symmetry_space_group_name_H-M	'P1'
_symmetry_Int_Tables_number	1
_symmetry_cell_setting	triclinic
loop_
_symmetry_equiv_pos_as_xyz
  x,y,z
_cell_length_a	13.897448
_cell_length_b	13.897449
_cell_length_c	14.908854
_cell_angle_alpha	86.725954
_cell_angle_beta	86.672404
_cell_angle_gamma	89.982380
loop_
_atom_site_label
_atom_site_type_symbol
_atom_site_fract_x
_atom_site_fract_y
_atom_site_fract_z
Zn1	Zn	-0.352517	-1.443205	-0.510204
Zn2	Zn	0.147483	-0.943205	-0.010204
Zn3	Zn	-0.523143	-1.452412	-0.359347
Zn4	Zn	-0.023143	-0.952412	0.140653
Zn5	Zn	-0.361864	-1.291207	-0.359349
Zn6	Zn	0.138136	-0.791207	0.140651
Zn7	Zn	-0.513775	-1.281879	-0.510147
Zn8	Zn	-0.013775	-0.781879	-0.010147
O9	O	-0.437825	-1.367176	-0.434762
O10	O	0.062175	-0.867176	0.065238
O11	O	-0.375160	-1.579406	-0.490216
O12	O	0.124840	-1.079406	0.009784
O13	O	-0.509582	-1.438785	-0.233104
O14	O	-0.009582	-0.938785	0.266896
O15	O	-0.225641	-1.311420	-0.379385
O16	O	0.274359	-0.811420	0.120615
O17	O	-0.500518	-1.586171	-0.379382
O18	O	-0.000518	-1.086171	0.120618
O19	O	-0.218774	-1.423093	-0.490218
O20	O	0.281226	-0.923093	0.009782
O21	O	-0.391090	-1.320348	-0.233105
O22	O	0.108910	-0.820348	0.266895
O23	O	-0.382006	-1.154990	-0.379330
O24	O	0.117994	-0.654990	0.120670
O25	O	-0.484551	-1.295522	-0.636399
O26	O	0.015449	-0.795522	-0.136399
O27	O	-0.493615	-1.148136	-0.490121
O28	O	0.006385	-0.648136	0.009879
O29	O	-0.366076	-1.414048	-0.636441
O30	O	0.133924	-0.914048	-0.136441
O31	O	-0.656884	-1.429740	-0.379327
O32	O	-0.156884	-0.929740	0.120673
O33	O	-0.650001	-1.304450	-0.490119
O34	O	-0.150001	-0.804450	0.009881
C35	C	-0.437809	-1.116564	-0.434720
C36	C	0.062191	-0.616564	0.065280
C37	C	-0.437824	-1.009350	-0.434723
C38	C	0.062176	-0.509350	0.065277
C39	C	-0.437825	-0.922280	-0.434734
C40	C	0.062175	-0.422280	0.065266
C41	C	-0.437828	-0.813046	-0.434757
C42	C	0.062172	-0.313046	0.065243
C43	C	-0.688441	-1.367107	-0.434736
C44	C	-0.188441	-0.867107	0.065264
C45	C	-0.795653	-1.367164	-0.434755
C46	C	-0.295653	-0.867164	0.065245
C47	C	-0.991945	-1.367262	-0.434812
C48	C	-0.491945	-0.867262	0.065188
C49	C	-0.882714	-1.367205	-0.434783
C50	C	-0.382714	-0.867205	0.065217
C51	C	-0.186229	-1.367270	-0.434808
C52	C	0.313771	-0.867270	0.065192
C53	C	-0.079014	-1.367310	-0.434828
C54	C	0.420986	-0.867310	0.065172
C55	C	-0.423226	-1.352717	-0.670068
C56	C	0.076774	-0.852717	-0.170068
C57	C	-0.417005	-1.346556	-0.770342
C58	C	0.082995	-0.846556	-0.270342
C59	C	-0.437838	-0.618767	-0.434794
C60	C	0.062162	-0.118767	0.065206
C61	C	-0.437836	-0.725982	-0.434780
C62	C	0.062164	-0.225982	0.065220
C63	C	-0.528697	-1.458329	-0.958767
C64	C	-0.028697	-0.958329	-0.458767
C65	C	-0.522855	-1.452543	-1.052983
C66	C	-0.022855	-0.952543	-0.552983
C67	C	-0.399474	-1.329204	-1.052991
C68	C	0.100526	-0.829204	-0.552991
C69	C	-0.405316	-1.334990	-0.958775
C70	C	0.094684	-0.834990	-0.458775
C71	C	-0.469931	-1.399553	-0.911667
C72	C	0.030069	-0.899553	-0.411667
C73	C	-0.475777	-1.405334	-0.817449
C74	C	0.024223	-0.905334	-0.317449
C75	C	-0.352392	-1.282000	-0.817459
C76	C	0.147608	-0.782000	-0.317459
C77	C	-0.346550	-1.276215	-0.911675
C78	C	0.153450	-0.776215	-0.411675
C79	C	-0.452297	-1.381633	-0.200371
C80	C	0.047703	-0.881633	0.299629
C81	C	-0.458246	-1.387982	-0.100098
C82	C	0.041754	-0.887982	0.399902
H83	H	-0.528386	-1.457909	-0.779094
H84	H	-0.028386	-0.957909	-0.279094
H85	H	-0.304541	-1.234140	-0.779100
H86	H	0.195459	-0.734140	-0.279100
H87	H	-0.346862	-1.276645	-1.091364
H88	H	0.153138	-0.776645	-0.591364
Br89	Br	-0.616400	-1.545932	-0.894829
Br90	Br	-0.116400	-1.045932	-0.394829
H91	H	-0.570707	-1.500405	-1.091328
H92	H	-0.070707	-1.000405	-0.591328
H93	H	-0.293940	-1.223651	-0.950044
H94	H	0.206060	-0.723651	-0.450044
