data_functionalizedCrystal
_audit_creation_method	'MofGen! by Chris Wilmer'
_symmetry_space_group_name_H-M	'P1'
_symmetry_Int_Tables_number	1
_symmetry_cell_setting	triclinic
loop_
_symmetry_equiv_pos_as_xyz
  x,y,z
_cell_length_a	16.959455
_cell_length_b	19.121063
_cell_length_c	19.121605
_cell_angle_alpha	90.075163
_cell_angle_beta	87.545906
_cell_angle_gamma	92.465894
loop_
_atom_site_label
_atom_site_type_symbol
_atom_site_fract_x
_atom_site_fract_y
_atom_site_fract_z
Zn1	Zn	1.215354	-0.262268	-0.408276
Zn2	Zn	1.715354	0.237732	0.091724
Zn3	Zn	1.204000	-0.384509	-0.296033
Zn4	Zn	1.704000	0.115491	0.203967
Zn5	Zn	1.077313	-0.267282	-0.291055
Zn6	Zn	1.577313	0.232718	0.208945
Zn7	Zn	1.077741	-0.379465	-0.413232
Zn8	Zn	1.577741	0.120535	0.086768
O9	O	1.143602	-0.323381	-0.352149
O10	O	1.643602	0.176619	0.147851
O11	O	1.324459	-0.278496	-0.393396
O12	O	1.824459	0.221504	0.106604
O13	O	1.182264	-0.373168	-0.197267
O14	O	1.682264	0.126832	0.302733
O15	O	1.100197	-0.168510	-0.302447
O16	O	1.600197	0.331490	0.197553
O17	O	1.316117	-0.368306	-0.310932
O18	O	1.816117	0.131694	0.189068
O19	O	1.201615	-0.164826	-0.388569
O20	O	1.701615	0.335174	0.111431
O21	O	1.089188	-0.287042	-0.193609
O22	O	1.589188	0.212958	0.306391
O23	O	0.966759	-0.282151	-0.307252
O24	O	1.466759	0.217849	0.192748
O25	O	1.100926	-0.359709	-0.510680
O26	O	1.600926	0.140291	-0.010680
O27	O	0.967073	-0.364571	-0.397015
O28	O	1.467073	0.135429	0.102985
O29	O	1.202030	-0.273605	-0.507039
O30	O	1.702030	0.226395	-0.007039
O31	O	1.182679	-0.481947	-0.315737
O32	O	1.682679	0.018053	0.184263
O33	O	1.089917	-0.478241	-0.401842
O34	O	1.589917	0.021759	0.098158
C35	C	0.938236	-0.323359	-0.352132
C36	C	1.438236	0.176641	0.147868
C37	C	0.850380	-0.323365	-0.352142
C38	C	1.350380	0.176635	0.147858
C39	C	0.478722	-0.280424	-0.305501
C40	C	0.978722	0.219576	0.194499
C41	C	0.479084	-0.366394	-0.398839
C42	C	0.979084	0.133606	0.101161
C43	C	0.561631	-0.366384	-0.398834
C44	C	1.061631	0.133616	0.101166
C45	C	0.602726	-0.323394	-0.352162
C46	C	1.102726	0.176606	0.147838
C47	C	0.561276	-0.280415	-0.305494
C48	C	1.061276	0.219585	0.194506
C49	C	0.603087	-0.409368	-0.445496
C50	C	1.103087	0.090632	0.054504
C51	C	0.685638	-0.409361	-0.445493
C52	C	1.185638	0.090639	0.054507
C53	C	0.726735	-0.366367	-0.398823
C54	C	1.226735	0.133633	0.101177
C55	C	0.685280	-0.323385	-0.352154
C56	C	1.185280	0.176615	0.147846
C57	C	0.726375	-0.280395	-0.305482
C58	C	1.226375	0.219605	0.194518
C59	C	0.684922	-0.237409	-0.258815
C60	C	1.184922	0.262591	0.241185
C61	C	0.602373	-0.237421	-0.258824
C62	C	1.102373	0.262579	0.241176
C63	C	0.809284	-0.366355	-0.398814
C64	C	1.309284	0.133645	0.101186
C65	C	0.808929	-0.280385	-0.305474
C66	C	1.308929	0.219615	0.194526
C67	C	1.135134	-0.505532	-0.359883
C68	C	1.635134	-0.005532	0.140117
C69	C	1.131585	-0.583455	-0.363215
C70	C	1.631585	-0.083455	0.136785
C71	C	1.178256	-0.621969	-0.319987
C72	C	1.678256	-0.121969	0.180013
C73	C	1.174923	-0.695186	-0.323124
C74	C	1.674923	-0.195186	0.176876
C75	C	1.124915	-0.729889	-0.369487
C76	C	1.624915	-0.229889	0.130513
C77	C	1.078243	-0.691370	-0.412720
C78	C	1.578243	-0.191370	0.087280
C79	C	1.081580	-0.618154	-0.409585
C80	C	1.581580	-0.118154	0.090415
C81	C	1.112423	-0.950859	-0.381196
C82	C	1.612423	-0.450859	0.118804
C83	C	1.109087	-1.024080	-0.384326
C84	C	1.609087	-0.524080	0.115674
C85	C	1.205768	-1.027891	-0.294731
C86	C	1.705768	-0.527891	0.205269
C87	C	1.209098	-0.954673	-0.291598
C88	C	1.709098	-0.454673	0.208402
C89	C	1.162429	-0.916161	-0.334833
C90	C	1.662429	-0.416161	0.165167
C91	C	1.121505	-0.804729	-0.372694
C92	C	1.621505	-0.304729	0.127306
C93	C	1.165844	-0.841322	-0.331629
C94	C	1.665844	-0.341322	0.168371
C95	C	1.349770	-0.323404	-0.352166
C96	C	1.849770	0.176596	0.147834
C97	C	1.437626	-0.323414	-0.352174
C98	C	1.937626	0.176586	0.147826
C99	C	1.152792	-0.315535	-0.535009
C100	C	1.652792	0.184465	-0.035009
C101	C	1.156708	-0.312192	-0.612933
C102	C	1.656708	0.187808	-0.112933
C103	C	1.152125	-0.140519	-0.344400
C104	C	1.652125	0.359481	0.155600
C105	C	1.155757	-0.062594	-0.341098
C106	C	1.655757	0.437406	0.158902
C107	C	1.181538	-0.291036	-1.053560
C108	C	1.681538	0.208964	-0.553560
C109	C	1.177853	-0.294180	-0.980342
C110	C	1.677853	0.205820	-0.480342
C111	C	1.123368	-0.340579	-0.945632
C112	C	1.623368	0.159421	-0.445632
C113	C	1.072569	-0.383840	-0.984144
C114	C	1.572569	0.116160	-0.484144
C115	C	1.076258	-0.380698	-1.057361
C116	C	1.576258	0.119302	-0.557361
C117	C	1.109599	-0.352311	-0.724661
C118	C	1.609599	0.147689	-0.224661
C119	C	1.105912	-0.355448	-0.651439
C120	C	1.605912	0.144552	-0.151439
C121	C	1.211197	-0.265789	-0.647642
C122	C	1.711197	0.234211	-0.147642
C123	C	1.214879	-0.262648	-0.720860
C124	C	1.714879	0.237352	-0.220860
C125	C	1.164083	-0.305912	-0.759366
C126	C	1.664083	0.194088	-0.259366
C127	C	1.119598	-0.343793	-0.870792
C128	C	1.619598	0.156207	-0.370792
C129	C	1.167857	-0.302701	-0.834205
C130	C	1.667857	0.197299	-0.334205
C131	C	1.134496	-0.331146	-0.169998
C132	C	1.634496	0.168854	0.330002
C133	C	1.130742	-0.334292	-0.092066
C134	C	1.630742	0.165708	0.407934
H135	H	0.719383	-0.444362	-0.483492
H136	H	1.219383	0.055638	0.016508
F137	F	1.047919	-0.404834	-0.614500
F138	F	1.547919	0.095166	-0.114500
H139	H	1.243765	-1.059255	-0.259533
H140	H	1.743765	-0.559255	0.240467
F141	F	1.225845	-0.253325	-0.871147
F142	F	1.725845	0.246675	-0.371147
H143	H	0.568614	-0.202424	-0.220830
H144	H	1.068614	0.297576	0.279170
F145	F	0.434605	-0.234674	-0.255842
F146	F	0.934605	0.265326	0.244158
F147	F	1.265250	-0.219744	-0.606657
F148	F	1.765250	0.280256	-0.106657
F149	F	1.224598	-0.736171	-0.277117
F150	F	1.724598	-0.236171	0.222883
H151	H	0.718392	-0.202410	-0.220812
H152	H	1.218392	0.297590	0.279188
H153	H	0.445619	-0.401398	-0.436834
H154	H	0.945619	0.098602	0.063166
H155	H	0.569620	-0.444373	-0.483490
H156	H	1.069620	0.055627	0.016510
H157	H	1.037529	-0.719631	-0.450473
H158	H	1.537529	-0.219631	0.049527
F159	F	0.853398	-0.412105	-0.448473
F160	F	1.353398	0.087895	0.051527
H161	H	1.218974	-0.593719	-0.282230
H162	H	1.718974	-0.093719	0.217770
H163	H	1.249818	-0.926420	-0.253846
H164	H	1.749818	-0.426420	0.246154
H165	H	1.068374	-1.052333	-0.422093
H166	H	1.568374	-0.552333	0.077907
H167	H	1.075235	-0.381569	-0.842523
H168	H	1.575235	0.118431	-0.342523
F169	F	1.031910	-0.577166	-0.455596
F170	F	1.531910	-0.077166	0.044404
H171	H	1.074421	-0.919508	-0.416399
H172	H	1.574421	-0.419508	0.083601
F173	F	1.239522	-0.241645	-1.090494
F174	F	1.739522	0.258355	-0.590494
H175	H	1.206563	-0.813065	-0.293883
H176	H	1.706563	-0.313065	0.206117
H177	H	1.068236	-0.387538	-0.756003
H178	H	1.568236	0.112462	-0.256003
H179	H	1.080787	-0.832992	-0.410441
H180	H	1.580787	-0.332992	0.089559
F181	F	1.014583	-0.433223	-0.947201
F182	F	1.514583	0.066777	-0.447201
F183	F	1.231919	-0.248141	-0.939364
F184	F	1.731919	0.251859	-0.439364
F185	F	1.272903	-0.213296	-0.757797
F186	F	1.772903	0.286704	-0.257797
F187	F	1.022195	-0.426739	-1.098342
F188	F	1.522195	0.073261	-0.598342
H189	H	0.842384	-0.245373	-0.267471
H190	H	1.342384	0.254627	0.232529
