data_functionalizedCrystal
_audit_creation_method	'MofGen! by Chris Wilmer'
_symmetry_space_group_name_H-M	'P1'
_symmetry_Int_Tables_number	1
_symmetry_cell_setting	triclinic
loop_
_symmetry_equiv_pos_as_xyz
  x,y,z
_cell_length_a	10.685661
_cell_length_b	10.685194
_cell_length_c	11.169409
_cell_angle_alpha	85.594584
_cell_angle_beta	85.611991
_cell_angle_gamma	89.666413
loop_
_atom_site_label
_atom_site_type_symbol
_atom_site_fract_x
_atom_site_fract_y
_atom_site_fract_z
Zn1	Zn	1.879773	-0.646591	-0.768233
Zn2	Zn	2.213106	-0.313258	-0.434899
Zn3	Zn	2.546440	0.020076	-0.101566
Zn4	Zn	1.863577	-0.856427	-0.551058
Zn5	Zn	2.196911	-0.523093	-0.217725
Zn6	Zn	2.530244	-0.189760	0.115609
Zn7	Zn	1.669965	-0.630561	-0.553460
Zn8	Zn	2.003298	-0.297228	-0.220127
Zn9	Zn	2.336632	0.036106	0.113207
Zn10	Zn	1.653912	-0.840229	-0.737618
Zn11	Zn	1.987245	-0.506895	-0.404285
Zn12	Zn	2.320579	-0.173562	-0.070952
O13	O	1.766807	-0.743452	-0.652592
O14	O	2.100140	-0.410119	-0.319259
O15	O	2.433474	-0.076785	0.014074
O16	O	2.053176	-0.687914	-0.751231
O17	O	2.386509	-0.354580	-0.417898
O18	O	2.719842	-0.021247	-0.084565
O19	O	1.837835	-0.826536	-0.383417
O20	O	2.171168	-0.493202	-0.050084
O21	O	2.504501	-0.159869	0.283249
O22	O	1.711293	-0.457124	-0.595768
O23	O	2.044626	-0.123791	-0.262434
O24	O	2.377960	0.209543	0.070899
O25	O	2.041277	-0.842079	-0.591674
O26	O	2.374610	-0.508746	-0.258340
O27	O	2.707944	-0.175412	0.074993
O28	O	1.865438	-0.468901	-0.753560
O29	O	2.198771	-0.135568	-0.420227
O30	O	2.532105	0.197766	-0.086894
O31	O	1.695589	-0.660593	-0.385182
O32	O	2.028922	-0.327260	-0.051849
O33	O	2.362255	0.006074	0.281485
O34	O	1.492285	-0.644886	-0.566082
O35	O	1.825618	-0.311553	-0.232749
O36	O	2.158951	0.021780	0.100585
O37	O	1.683933	-0.814472	-0.909639
O38	O	2.017266	-0.481138	-0.576305
O39	O	2.350599	-0.147805	-0.242972
O40	O	1.480490	-0.798928	-0.701382
O41	O	1.813824	-0.465595	-0.368049
O42	O	2.147157	-0.132262	-0.034716
O43	O	1.849872	-0.672207	-0.932131
O44	O	2.183205	-0.338874	-0.598798
O45	O	2.516538	-0.005540	-0.265464
O46	O	1.822269	-1.029842	-0.561988
O47	O	2.155602	-0.696508	-0.228655
O48	O	2.488935	-0.363175	0.104679
O49	O	1.668228	-1.017941	-0.699053
O50	O	2.001562	-0.684608	-0.365720
O51	O	2.334895	-0.351274	-0.032386
C52	C	1.440869	-0.718411	-0.630671
C53	C	1.774202	-0.385078	-0.297338
C54	C	2.107536	-0.051744	0.035995
C55	C	1.301429	-0.707729	-0.621319
C56	C	1.634762	-0.374395	-0.287986
C57	C	1.968096	-0.041062	0.045347
C58	C	1.741783	-1.069416	-0.626966
C59	C	2.075116	-0.736082	-0.293633
C60	C	2.408450	-0.402749	0.039700
C61	C	1.731193	-1.208873	-0.616051
C62	C	2.064526	-0.875540	-0.282718
C63	C	2.397859	-0.542206	0.050615
C64	C	2.094017	-0.768591	-0.674600
C65	C	2.427351	-0.435258	-0.341266
C66	C	2.760684	-0.101925	-0.007933
C67	C	2.233455	-0.779304	-0.683978
C68	C	2.566788	-0.445971	-0.350644
C69	C	2.900122	-0.112637	-0.017311
C70	C	1.766918	-0.743321	-0.965653
C71	C	2.100251	-0.409987	-0.632319
C72	C	2.433585	-0.076654	-0.298986
C73	C	1.766965	-0.743265	-1.099060
C74	C	2.100299	-0.409931	-0.765727
C75	C	2.433632	-0.076598	-0.432393
C76	C	1.791963	-0.416218	-0.678347
C77	C	2.125296	-0.082885	-0.345013
C78	C	2.458629	0.250449	-0.011680
C79	C	1.802682	-0.276770	-0.689322
C80	C	2.136016	0.056563	-0.355989
C81	C	2.469349	0.389896	-0.022655
C82	C	1.766775	-0.743498	-0.340762
C83	C	2.100109	-0.410164	-0.007429
C84	C	2.433442	-0.076831	0.325905
C85	C	1.766998	-0.743219	-0.207399
C86	C	2.100331	-0.409885	0.125934
C87	C	2.433665	-0.076552	0.459268
H88	H	1.252949	-0.638269	-0.560529
H89	H	1.586283	-0.304936	-0.227196
H90	H	1.919616	0.028397	0.106137
O91	O	1.648419	-1.266930	-0.531396
O92	O	1.981752	-0.933597	-0.198063
O93	O	2.315085	-0.600263	0.135271
C94	C	1.561641	-1.336494	-0.588348
C95	C	1.894974	-1.003160	-0.255015
C96	C	2.228307	-0.669827	0.078319
H97	H	1.604381	-1.359285	-0.680807
H98	H	1.937714	-1.025952	-0.347474
H99	H	2.271048	-0.692618	-0.014141
H100	H	1.537919	-1.427466	-0.531181
H101	H	1.871252	-1.094133	-0.197848
H102	H	2.204585	-0.760800	0.135485
H103	H	1.472452	-1.278983	-0.599107
H104	H	1.805786	-0.945650	-0.265774
H105	H	2.139119	-0.612317	0.067559
H106	H	1.281942	-0.848757	-0.744783
H107	H	1.615275	-0.515424	-0.411450
H108	H	1.948609	-0.182091	-0.078117
H109	H	1.871992	-1.228213	-0.760409
H110	H	2.205325	-0.894879	-0.427075
H111	H	2.538659	-0.561546	-0.093742
