data_functionalizedCrystal
_audit_creation_method	'MofGen! by Chris Wilmer'
_symmetry_space_group_name_H-M	'P1'
_symmetry_Int_Tables_number	1
_symmetry_cell_setting	triclinic
loop_
_symmetry_equiv_pos_as_xyz
  x,y,z
_cell_length_a	15.944551
_cell_length_b	15.944493
_cell_length_c	14.421503
_cell_angle_alpha	90.010165
_cell_angle_beta	90.003141
_cell_angle_gamma	96.513109
loop_
_atom_site_label
_atom_site_type_symbol
_atom_site_fract_x
_atom_site_fract_y
_atom_site_fract_z
O1	O	1.114507	-0.108323	0.077003
O2	O	1.614507	0.391677	0.577003
O3	O	0.869954	-0.121680	0.077024
O4	O	1.369954	0.378320	0.577024
O5	O	0.998934	0.007276	0.077021
O6	O	1.498934	0.507276	0.577021
O7	O	0.985527	-0.237280	0.077006
O8	O	1.485527	0.262720	0.577006
O9	O	0.998913	0.007257	-0.077203
O10	O	1.498913	0.507257	0.422797
O11	O	0.869933	-0.121699	-0.077199
O12	O	1.369933	0.378301	0.422801
O13	O	1.114485	-0.108343	-0.077221
O14	O	1.614485	0.391657	0.422779
Cu15	Cu	0.992207	-0.115023	-0.091292
Cu16	Cu	1.492207	0.384977	0.408708
Cu17	Cu	0.992232	-0.115000	0.091095
Cu18	Cu	1.492232	0.385000	0.591095
O19	O	0.985506	-0.237299	-0.077217
O20	O	1.485506	0.262701	0.422783
C21	C	0.838650	-0.121135	-0.000084
C22	C	1.338650	0.378865	0.499916
C23	C	0.745404	-0.119473	-0.000076
C24	C	1.245404	0.380527	0.499924
C25	C	0.530565	-0.035566	-0.000089
C26	C	1.030565	0.464434	0.499911
C27	C	0.469547	-0.074520	0.075949
C28	C	0.969547	0.425480	0.575949
C29	C	0.574679	-0.116465	-0.000086
C30	C	1.074679	0.383535	0.499914
C31	C	0.469548	-0.074558	-0.076103
C32	C	0.969548	0.425442	0.423897
C33	C	0.409767	-0.113555	-0.000101
C34	C	0.909767	0.386445	0.499899
C35	C	0.514889	-0.155442	0.076014
C36	C	1.014889	0.344558	0.576014
C37	C	0.514897	-0.155468	-0.076106
C38	C	1.014897	0.344532	0.423894
C39	C	0.453897	-0.194481	-0.000050
C40	C	0.953897	0.305519	0.499950
C41	C	0.669681	-0.118140	-0.000077
C42	C	1.169681	0.381860	0.499923
C43	C	0.314766	-0.111886	-0.000103
C44	C	0.814766	0.388114	0.499897
C45	C	0.998375	0.038562	-0.000087
C46	C	1.498375	0.538562	0.499913
C47	C	0.996733	0.131810	-0.000075
C48	C	1.496733	0.631810	0.499925
C49	C	1.145790	-0.108888	-0.000110
C50	C	1.645790	0.391112	0.499890
C51	C	1.239036	-0.110550	-0.000113
C52	C	1.739036	0.389450	0.499887
C53	C	0.986064	-0.268584	-0.000107
C54	C	1.486064	0.231416	0.499893
C55	C	0.987707	-0.361833	-0.000113
C56	C	1.487707	0.138167	0.499887
C57	C	1.072653	0.367570	-0.000099
C58	C	1.572653	0.867570	0.499901
C59	C	1.031722	0.418148	0.075944
C60	C	1.531722	0.918148	0.575944
C61	C	0.993688	0.302531	-0.000086
C62	C	1.493688	0.802531	0.499914
C63	C	1.031683	0.418105	-0.076108
C64	C	1.531683	0.918105	0.423892
C65	C	0.990754	0.467441	-0.000101
C66	C	1.490754	0.967441	0.499899
C67	C	0.952779	0.351881	0.076020
C68	C	1.452779	0.851881	0.576020
C69	C	0.952751	0.351834	-0.076101
C70	C	1.452751	0.851834	0.423899
C71	C	0.911763	0.402379	-0.000039
C72	C	1.411763	0.902379	0.499961
C73	C	0.995381	0.207531	-0.000077
C74	C	1.495381	0.707531	0.499923
C75	C	0.989055	0.562438	-0.000104
C76	C	1.489055	1.062438	0.499896
N77	N	0.992196	-0.115038	-0.219573
N78	N	1.492196	0.384962	0.280427
C79	C	0.932545	-0.174641	-0.469225
C80	C	1.432545	0.325359	0.030775
C81	C	1.008441	-0.190949	-0.531036
C82	C	1.508441	0.309051	-0.031036
C83	C	0.992216	-0.115018	-0.408734
C84	C	1.492216	0.384982	0.091266
C85	C	0.916339	-0.098730	-0.531018
C86	C	1.416339	0.401270	-0.031018
C87	C	0.992229	-0.115001	-0.591456
C88	C	1.492229	0.384999	-0.091456
C89	C	1.068151	-0.131364	-0.469184
C90	C	1.568151	0.368636	0.030816
C91	C	0.975998	-0.039112	-0.469161
C92	C	1.475998	0.460888	0.030839
C93	C	1.051950	-0.055388	-0.530944
C94	C	1.551950	0.444612	-0.030944
C95	C	0.992207	-0.115030	-0.303473
C96	C	1.492207	0.384970	0.196527
C97	C	0.992246	-0.114988	-0.696715
C98	C	1.492246	0.385012	-0.196715
N99	N	0.992251	-0.114978	0.219377
N100	N	1.492251	0.385022	0.719377
H101	H	0.535012	-0.189665	-0.140398
H102	H	1.035012	0.310335	0.359602
H103	H	0.449460	-0.040334	-0.140385
H104	H	0.949460	0.459666	0.359615
H105	H	0.919459	0.323069	0.140377
H106	H	1.419459	0.823069	0.640377
Cl107	Cl	0.901313	0.307085	-0.175355
Cl108	Cl	1.401313	0.807085	0.324645
H109	H	0.852166	-0.084961	-0.558181
H110	H	1.352166	0.415039	-0.058181
Cl111	Cl	1.083221	0.462854	0.175192
Cl112	Cl	1.583221	0.962854	0.675192
Cl113	Cl	0.582012	0.068107	0.000030
Cl114	Cl	1.082012	0.568107	0.500030
Cl115	Cl	1.083178	0.462758	-0.175360
Cl116	Cl	1.583178	0.962758	0.324640
H117	H	1.140671	0.351942	-0.000029
H118	H	1.640671	0.851942	0.499971
Cl119	Cl	0.402676	-0.298244	0.000007
Cl120	Cl	0.902676	0.201756	0.500007
H121	H	0.962246	0.025052	-0.441962
H122	H	1.462246	0.525052	0.058038
Cl123	Cl	0.854716	-0.252545	-0.427378
Cl124	Cl	1.354716	0.247455	0.072622
H125	H	0.449453	-0.040295	0.140238
H126	H	0.949453	0.459705	0.640238
Cl127	Cl	1.029640	-0.290042	-0.572998
Cl128	Cl	1.529640	0.209958	-0.072998
H129	H	1.132338	-0.145209	-0.442138
H130	H	1.632338	0.354791	0.057862
H131	H	1.102473	-0.004956	-0.557873
H132	H	1.602473	0.495044	-0.057873
H133	H	0.534879	-0.189625	0.140369
H134	H	1.034879	0.310375	0.640369
H135	H	0.843692	0.417845	0.000009
H136	H	1.343692	0.917845	0.500009
