data_functionalizedCrystal
_audit_creation_method	'MofGen! by Chris Wilmer'
_symmetry_space_group_name_H-M	'P1'
_symmetry_Int_Tables_number	1
_symmetry_cell_setting	triclinic
loop_
_symmetry_equiv_pos_as_xyz
  x,y,z
_cell_length_a	9.616153
_cell_length_b	16.109301
_cell_length_c	10.540539
_cell_angle_alpha	96.006514
_cell_angle_beta	89.999906
_cell_angle_gamma	90.004145
loop_
_atom_site_label
_atom_site_type_symbol
_atom_site_fract_x
_atom_site_fract_y
_atom_site_fract_z
O1	O	-0.115551	-1.104133	0.163155
O2	O	-0.115572	-0.862195	0.183460
O3	O	-0.115559	-0.988684	-0.011478
O4	O	-0.115564	-0.977644	0.358093
O5	O	0.115732	-0.988666	-0.011473
O6	O	0.115719	-0.862178	0.183464
O7	O	0.115740	-1.104115	0.163160
Zn8	Zn	0.152452	-0.983144	0.173313
Zn9	Zn	-0.152284	-0.983167	0.173307
O10	O	0.115728	-0.977627	0.358097
C11	C	0.000071	-0.831206	0.182640
C12	C	0.000062	-0.738896	0.180174
N13	N	0.360427	-0.983134	0.173316
N14	N	-0.360259	-0.983183	0.173294
C15	C	0.580790	-0.915264	0.277251
C16	C	0.419622	-0.915414	0.277634
C17	C	0.418884	-1.070058	0.202210
C18	C	0.580101	-1.069688	0.202944
C19	C	0.580338	-0.964945	0.040136
C20	C	0.419111	-0.962950	0.041030
C21	C	0.000084	-0.987847	-0.058767
C22	C	0.000076	-0.985370	-0.199679
C23	C	0.000094	-1.135104	0.163980
C24	C	0.000094	-1.227414	0.166446
C25	C	0.000077	-0.517296	0.290112
C26	C	0.000086	-0.430561	0.287785
C27	C	0.000083	-0.449021	0.056499
C28	C	0.000084	-0.535754	0.058827
C29	C	0.000074	-0.569889	0.175637
C30	C	0.000082	-0.396421	0.170982
C31	C	0.000092	-0.302380	0.168459
C32	C	0.000067	-0.663936	0.178162
C33	C	-0.000451	-0.890460	-0.381753
C34	C	0.000069	-0.892971	-0.235171
C35	C	0.132159	-1.029827	-0.261968
C36	C	0.132270	-1.026673	-0.408468
C37	C	-0.130752	-1.028572	-0.409018
C38	C	-0.132498	-1.029423	-0.262048
C39	C	0.000081	-0.978463	0.405386
C40	C	0.000080	-0.980940	0.546299
H41	H	0.380102	-0.850827	0.260424
H42	H	0.230998	-0.993803	-0.436197
H43	H	0.000085	-0.578578	-0.034398
H44	H	-0.094613	-0.857990	-0.192071
C45	C	0.145142	-1.172718	-0.382059
C46	C	0.140392	-1.116376	-0.474512
H47	H	0.150171	-1.228094	-0.422830
H48	H	0.063706	-1.166731	-0.330927
H49	H	0.224788	-1.161547	-0.329732
H50	H	0.060740	-1.127544	-0.526834
H51	H	0.221837	-1.122367	-0.525666
H52	H	0.230445	-0.998930	-0.218927
H53	H	0.618459	-1.014466	-0.037224
C54	C	0.711108	-0.861231	0.461992
C55	C	0.635455	-0.930883	0.409899
H56	H	0.744864	-0.870880	0.543878
H57	H	0.652500	-0.813512	0.469647
H58	H	0.787284	-0.852075	0.407787
H59	H	0.559273	-0.940036	0.464100
H60	H	0.694066	-0.978616	0.402251
H61	H	-0.095170	-0.853968	-0.409835
H62	H	0.093731	-0.854102	-0.411441
C63	C	0.288422	-1.166550	0.314131
C64	C	0.364371	-1.092073	0.331816
H65	H	0.254765	-1.180132	0.394147
H66	H	0.346809	-1.210188	0.277437
H67	H	0.212169	-1.159832	0.258828
H68	H	0.440630	-1.098793	0.387112
H69	H	0.305981	-1.048424	0.368528
H70	H	0.619095	-1.121848	0.130211
H71	H	0.137075	-1.097682	-0.240582
H72	H	-0.230862	-0.998675	-0.440146
C73	C	0.222001	-0.876470	0.007233
C74	C	0.367540	-0.876625	0.011422
H75	H	0.190162	-0.823177	-0.011048
H76	H	0.186179	-0.888325	0.087358
H77	H	0.190962	-0.917797	-0.057471
H78	H	0.398579	-0.835301	0.076132
H79	H	0.403377	-0.864761	-0.068714
C80	C	-0.118829	-0.362202	-0.080293
C81	C	0.000075	-0.411498	-0.071896
H82	H	-0.118839	-0.339043	-0.159564
H83	H	-0.118818	-0.318469	-0.012457
H84	H	-0.199473	-0.395669	-0.074573
H85	H	0.080719	-0.378029	-0.077607
H86	H	0.000076	-0.455236	-0.139750
C87	C	0.419420	-1.005114	-0.184303
C88	C	0.364724	-1.025300	-0.068300
H89	H	0.385836	-1.043608	-0.251796
H90	H	0.518031	-1.007811	-0.181598
H91	H	0.391466	-0.950235	-0.198196
H92	H	0.392687	-1.080177	-0.054402
H93	H	0.266092	-1.022610	-0.071004
H94	H	-0.230209	-0.996895	-0.220728
H95	H	0.000091	-0.387743	0.381003
C96	C	-0.030419	-1.138606	-0.154327
C97	C	-0.143261	-1.120370	-0.230661
H98	H	-0.037053	-1.194757	-0.134961
H99	H	-0.031545	-1.102151	-0.077442
H100	H	0.053872	-1.131290	-0.198822
H101	H	-0.227552	-1.127680	-0.186163
H102	H	-0.142147	-1.156836	-0.307559
C103	C	-0.136970	-1.117395	-0.606606
C104	C	-0.131964	-1.118666	-0.474059
H105	H	-0.137720	-1.173013	-0.646760
H106	H	-0.057692	-1.088933	-0.633963
H107	H	-0.218909	-1.089387	-0.628986
H108	H	-0.050019	-1.146669	-0.451678
H109	H	-0.211249	-1.147140	-0.446692
H110	H	0.619595	-0.850476	0.260321
H111	H	0.617690	-1.085639	0.300054
C112	C	0.416539	-0.868065	0.501308
C113	C	0.367535	-0.931245	0.411031
H114	H	0.384390	-0.877847	0.583664
H115	H	0.383143	-0.815586	0.480907
H116	H	0.515322	-0.867926	0.500589
H117	H	0.268751	-0.931381	0.411743
H118	H	0.400923	-0.983738	0.431438
H119	H	0.380536	-1.121833	0.128508
C120	C	0.204647	-0.814549	-0.275991
C121	C	0.128106	-0.845413	-0.178112
H122	H	0.283702	-0.785195	-0.240764
H123	H	0.148082	-0.777822	-0.318496
H124	H	0.234086	-0.859702	-0.335084
H125	H	0.098658	-0.800260	-0.119024
H126	H	0.184682	-0.882143	-0.135587
H127	H	0.621070	-0.902900	0.012341
H128	H	0.000079	-0.545085	0.385227
