data_functionalizedCrystal
_audit_creation_method	'MofGen! by Chris Wilmer'
_symmetry_space_group_name_H-M	'P1'
_symmetry_Int_Tables_number	1
_symmetry_cell_setting	triclinic
loop_
_symmetry_equiv_pos_as_xyz
  x,y,z
_cell_length_a	23.532407
_cell_length_b	14.421503
_cell_length_c	15.944551
_cell_angle_alpha	89.996660
_cell_angle_beta	83.173708
_cell_angle_gamma	90.002238
loop_
_atom_site_label
_atom_site_type_symbol
_atom_site_fract_x
_atom_site_fract_y
_atom_site_fract_z
O1	O	0.755658	0.076998	0.101953
O2	O	0.589852	0.077025	0.116706
O3	O	0.677283	0.077003	-0.012983
O4	O	0.668227	0.077021	0.231642
O5	O	0.677268	-0.077221	-0.012964
O6	O	0.589837	-0.077198	0.116726
O7	O	0.755643	-0.077225	0.101972
Cu8	Cu	0.672739	-0.091294	0.109351
Cu9	Cu	0.672756	0.091094	0.109328
O10	O	0.668213	-0.077203	0.231662
C11	C	0.568627	-0.000083	0.116340
C12	C	0.505406	-0.000073	0.115211
N13	N	0.672731	-0.219575	0.109366
C14	C	0.632296	-0.469218	0.169308
C15	C	0.683757	-0.531028	0.185182
C16	C	0.672745	-0.408736	0.109346
C17	C	0.621298	-0.531020	0.093492
C18	C	0.672754	-0.591458	0.109328
C19	C	0.724232	-0.469185	0.125257
C20	C	0.661739	-0.469172	0.033535
C21	C	0.713237	-0.530954	0.049376
C22	C	0.672739	-0.303475	0.109358
C23	C	0.672766	-0.696717	0.109315
C24	C	0.106572	-0.000109	0.184874
C25	C	0.047168	-0.000115	0.183824
O26	O	0.010674	-0.000144	0.248403
N27	N	0.024243	-0.000119	0.106724
C28	C	0.060726	-0.000127	0.030668
O29	O	0.035772	-0.000132	-0.035009
C30	C	0.120129	-0.000128	0.031718
C31	C	0.143051	-0.000114	0.108823
C32	C	0.129494	-0.000097	0.261973
C33	C	0.188894	-0.000089	0.263022
C34	C	0.225373	-0.000094	0.186971
C35	C	0.202451	-0.000107	0.109872
C36	C	0.156611	-0.000143	-0.044337
C37	C	0.216018	-0.000144	-0.043281
C38	C	0.238939	-0.000131	0.033825
C39	C	0.298329	-0.000105	0.034871
N40	N	0.321254	-0.000100	0.111971
C41	C	0.284776	-0.000095	0.188022
C42	C	-0.064025	-0.000127	0.028468
C43	C	-0.123427	-0.000119	0.027417
C44	C	-0.136981	-0.000109	0.180574
C45	C	-0.077578	-0.000110	0.181624
C46	C	-0.041100	-0.000123	0.105569
C47	C	0.409521	-0.000079	0.190219
C48	C	0.468927	-0.000067	0.191261
C49	C	0.482476	-0.000083	0.038104
C50	C	0.423075	-0.000089	0.037062
C51	C	0.386599	-0.000090	0.113126
O52	O	0.334859	-0.000080	-0.029673
O53	O	0.309738	-0.000103	0.253687
C54	C	0.776868	-0.000115	0.102338
C55	C	0.840090	-0.000119	0.103468
C56	C	0.676899	-0.000109	-0.044265
C57	C	0.675772	-0.000110	-0.137501
N58	N	0.672769	0.219375	0.109306
C59	C	0.618885	-0.000087	-0.351879
C60	C	0.645294	-0.076133	-0.413109
C61	C	0.673733	-0.000102	-0.308210
C62	C	0.645322	0.075919	-0.413111
C63	C	0.671760	-0.000091	-0.473106
C64	C	0.700158	-0.076211	-0.368212
C65	C	0.700178	0.075910	-0.368208
C66	C	0.726627	-0.000155	-0.429421
C67	C	0.674869	-0.000109	-0.213217
C68	C	0.670629	-0.000090	-0.568097
C69	C	0.668596	-0.000089	0.262943
C70	C	0.669723	-0.000082	0.356179
H71	H	0.598124	-0.442111	0.220056
O72	O	-0.145716	0.000043	-0.047462
C73	C	-0.179682	0.079902	-0.052659
H74	H	-0.165632	0.135733	-0.008889
H75	H	-0.226525	0.061840	-0.032888
C76	C	-0.189745	0.047541	-0.197925
C77	C	-0.172484	0.116117	-0.144172
H78	H	-0.185307	0.069879	-0.254375
H79	H	-0.166863	-0.006263	-0.194424
H80	H	-0.228779	0.032496	-0.181439
H81	H	-0.133449	0.131152	-0.160651
H82	H	-0.195360	0.169925	-0.147678
O83	O	0.727895	-0.152929	-0.344654
C84	C	0.784508	-0.153127	-0.385191
H85	H	0.797820	-0.079262	-0.403897
H86	H	0.787058	-0.198380	-0.444143
C87	C	0.808571	-0.282715	-0.301594
C88	C	0.824923	-0.191991	-0.324562
H89	H	0.833501	-0.306692	-0.264198
H90	H	0.770429	-0.282584	-0.274285
H91	H	0.810696	-0.320414	-0.350726
H92	H	0.822790	-0.154291	-0.275432
H93	H	0.863065	-0.192116	-0.351862
H94	H	0.577786	-0.558184	0.080090
O95	O	0.781025	-0.000261	-0.469300
C96	C	0.820058	-0.001044	-0.408715
H97	H	0.798237	-0.030599	-0.346794
H98	H	0.834982	0.072744	-0.397922
C99	C	0.898814	-0.025348	-0.516815
C100	C	0.872014	-0.061657	-0.440764
H101	H	0.930864	-0.062733	-0.536584
H102	H	0.872517	-0.024818	-0.557633
H103	H	0.911246	0.036141	-0.507810
H104	H	0.859576	-0.123140	-0.449772
H105	H	0.898310	-0.062199	-0.399948
H106	H	-0.166693	-0.000109	0.242498
H107	H	0.622089	-0.140416	-0.433014
O108	O	0.694777	-0.563406	0.261714
C109	C	0.652036	-0.531939	0.324765
H110	H	0.611629	-0.514593	0.294984
H111	H	0.667798	-0.467266	0.356015
C112	C	0.688270	-0.629665	0.428232
C113	C	0.638639	-0.608368	0.391655
H114	H	0.680007	-0.676807	0.469496
H115	H	0.717066	-0.650863	0.385755
H116	H	0.701399	-0.575765	0.454268
H117	H	0.625515	-0.662265	0.365612
H118	H	0.609840	-0.587181	0.434130
O119	O	0.727755	0.152695	-0.344450
C120	C	0.698703	0.232718	-0.367070
H121	H	0.652271	0.214507	-0.373442
H122	H	0.720246	0.260458	-0.429895
C123	C	0.757619	0.329625	-0.290479
C124	C	0.700588	0.307259	-0.298298
H125	H	0.758783	0.375608	-0.248060
H126	H	0.777193	0.275713	-0.275242
H127	H	0.775565	0.352736	-0.342838
H128	H	0.682646	0.284138	-0.245943
H129	H	0.681011	0.361170	-0.313525
O130	O	0.491097	-0.000098	0.266239
C131	C	0.446158	-0.000075	0.333135
H132	H	0.405802	-0.029280	0.309936
H133	H	0.437754	0.073915	0.356559
C134	C	0.512500	-0.024679	0.434395
C135	C	0.462936	-0.060555	0.405904
H136	H	0.522850	-0.061982	0.479285
H137	H	0.542777	-0.024691	0.389327
H138	H	0.505490	0.036979	0.453910
H139	H	0.469948	-0.122207	0.386380
H140	H	0.432660	-0.060555	0.450971
H141	H	0.099799	-0.000096	0.323906
H142	H	0.622122	0.140214	-0.433001
O143	O	0.776100	-0.436771	0.141422
C144	C	0.775459	-0.339011	0.141280
H145	H	0.729444	-0.313442	0.154811
H146	H	0.794944	-0.312503	0.076850
C147	C	0.867113	-0.333973	0.193262
C148	C	0.810597	-0.302569	0.209889
H149	H	0.888790	-0.311493	0.235580
H150	H	0.867546	-0.399836	0.193355
H151	H	0.883343	-0.311881	0.139569
H152	H	0.794367	-0.324670	0.263576
H153	H	0.810162	-0.236708	0.209807
O154	O	0.134424	-0.000040	-0.119293
C155	C	0.153059	0.079835	-0.165630
H156	H	0.194257	0.106477	-0.143084
H157	H	0.118686	0.135764	-0.155634
C158	C	0.113598	0.022826	-0.287895
C159	C	0.164201	0.055543	-0.260209
H160	H	0.120469	0.007843	-0.346237
H161	H	0.101041	-0.030986	-0.256677
H162	H	0.084959	0.069438	-0.279558
H163	H	0.192837	0.008926	-0.268537
H164	H	0.176763	0.109347	-0.291432
H165	H	-0.034327	-0.000129	-0.033470
O166	O	0.211229	-0.000194	0.337865
C167	C	0.245175	-0.080072	0.343086
H168	H	0.259961	-0.106716	0.276764
H169	H	0.218937	-0.135997	0.380486
C170	C	0.279565	-0.023062	0.469317
C171	C	0.297729	-0.055782	0.387858
H172	H	0.311982	-0.008082	0.496938
H173	H	0.256693	0.030751	0.465802
H174	H	0.257700	-0.069672	0.500473
H175	H	0.319588	-0.009168	0.356701
H176	H	0.320606	-0.109588	0.391369
O177	O	0.400740	-0.000219	-0.037785
C178	C	0.366802	-0.080114	-0.042976
H179	H	0.352016	-0.106739	0.023357
H180	H	0.393047	-0.136043	-0.080350
C181	C	0.332413	-0.023172	-0.169235
C182	C	0.314248	-0.055868	-0.087764
H183	H	0.299996	-0.008218	-0.196866
H184	H	0.355279	0.030654	-0.165740
H185	H	0.354284	-0.069784	-0.200369
H186	H	0.292384	-0.009251	-0.056628
H187	H	0.291377	-0.109685	-0.091254
O188	O	0.517998	-0.000132	-0.035690
C189	C	0.575342	-0.000105	-0.018221
H190	H	0.577622	-0.029288	0.047743
H191	H	0.592524	0.073883	-0.021567
C192	C	0.608890	-0.024758	-0.164741
C193	C	0.611691	-0.060608	-0.083726
H194	H	0.631314	-0.062075	-0.205149
H195	H	0.570257	-0.024772	-0.176512
H196	H	0.623208	0.036898	-0.167517
H197	H	0.597368	-0.122258	-0.080947
H198	H	0.650323	-0.060605	-0.071956
O199	O	0.754134	-0.562942	-0.011144
C200	C	0.782977	-0.487295	-0.052973
H201	H	0.778330	-0.423696	-0.010252
H202	H	0.763668	-0.472042	-0.113783
C203	C	0.852554	-0.589293	-0.126698
C204	C	0.846850	-0.511181	-0.074224
H205	H	0.891953	-0.604027	-0.139811
H206	H	0.833120	-0.640259	-0.098520
H207	H	0.836459	-0.576572	-0.177367
H208	H	0.862937	-0.523908	-0.023552
H209	H	0.866288	-0.460218	-0.102394
O210	O	0.650505	-0.436768	-0.042881
C211	C	0.596197	-0.468238	-0.059349
H212	H	0.569168	-0.485617	0.002803
H213	H	0.601402	-0.532891	-0.100687
C214	C	0.599552	-0.370455	-0.181790
C215	C	0.566353	-0.391793	-0.105453
H216	H	0.581143	-0.323304	-0.210232
H217	H	0.636141	-0.349256	-0.170697
H218	H	0.603887	-0.424339	-0.216228
H219	H	0.562024	-0.337913	-0.071011
H220	H	0.529762	-0.412982	-0.116540
H221	H	0.379828	-0.000083	0.252157
H222	H	-0.058920	-0.000104	0.244410
H223	H	0.245716	-0.000155	-0.105216
O224	O	0.564564	-0.000327	-0.311717
C225	C	0.535845	-0.080637	-0.334463
H226	H	0.568532	-0.136401	-0.356722
H227	H	0.509231	-0.063283	-0.387630
C228	C	0.456122	-0.047988	-0.230081
C229	C	0.496269	-0.116481	-0.257414
H230	H	0.431708	-0.070096	-0.182556
H231	H	0.475469	0.006121	-0.214758
H232	H	0.433950	-0.033532	-0.274394
H233	H	0.518445	-0.130927	-0.213105
H234	H	0.476925	-0.170593	-0.272727
