data_functionalizedCrystal
_audit_creation_method	'MofGen! by Chris Wilmer'
_symmetry_space_group_name_H-M	'P1'
_symmetry_Int_Tables_number	1
_symmetry_cell_setting	triclinic
loop_
_symmetry_equiv_pos_as_xyz
  x,y,z
_cell_length_a	25.639239
_cell_length_b	12.645331
_cell_length_c	12.645324
_cell_angle_alpha	89.984586
_cell_angle_beta	89.960676
_cell_angle_gamma	90.042177
loop_
_atom_site_label
_atom_site_type_symbol
_atom_site_fract_x
_atom_site_fract_y
_atom_site_fract_z
Zn1	Zn	-0.208071	1.620575	-0.599177
Zn2	Zn	-0.295520	1.620389	-0.421894
Zn3	Zn	-0.208105	1.443289	-0.421945
Zn4	Zn	-0.295481	1.443205	-0.599133
O5	O	-0.251794	1.531864	-0.510537
O6	O	-0.219673	1.768898	-0.575657
O7	O	-0.283955	1.596854	-0.273553
O8	O	-0.134935	1.466919	-0.445495
O9	O	-0.283922	1.768761	-0.445408
O10	O	-0.134910	1.597171	-0.575707
O11	O	-0.219731	1.466739	-0.273591
O12	O	-0.219694	1.294930	-0.445452
O13	O	-0.283856	1.466776	-0.747486
O14	O	-0.283889	1.294869	-0.575631
O15	O	-0.219636	1.597089	-0.747519
O16	O	-0.368680	1.596772	-0.445365
O17	O	-0.368652	1.466596	-0.575581
C18	C	-0.251791	1.256435	-0.510543
C19	C	-0.251802	1.138605	-0.510570
C20	C	-0.387637	1.531683	-0.510486
C21	C	-0.445751	1.531703	-0.510499
C22	C	-0.251737	1.531944	-0.787043
C23	C	-0.251713	1.531978	-0.904873
C24	C	-0.696942	1.464069	-0.578319
C25	C	-0.642338	1.464029	-0.578307
O26	O	-0.614099	1.406350	-0.635934
N27	N	-0.615025	1.531836	-0.510555
C28	C	-0.642319	1.599694	-0.442818
O29	O	-0.614073	1.657366	-0.385189
C30	C	-0.696922	1.599738	-0.442837
C31	C	-0.724232	1.531919	-0.510586
C32	C	-0.724252	1.396256	-0.646064
C33	C	-0.778853	1.396294	-0.646074
C34	C	-0.806143	1.464145	-0.578341
C35	C	-0.778833	1.531957	-0.510596
C36	C	-0.724216	1.667601	-0.375106
C37	C	-0.778823	1.667639	-0.375131
C38	C	-0.806133	1.599820	-0.442880
C39	C	-0.860724	1.599846	-0.442873
N40	N	-0.888037	1.532039	-0.510625
C41	C	-0.860746	1.464189	-0.578359
C42	C	-0.527648	1.599598	-0.442786
C43	C	-0.473046	1.599550	-0.442761
C44	C	-0.473069	1.463886	-0.578252
C45	C	-0.527672	1.463930	-0.578270
C46	C	-0.554961	1.531792	-0.510538
C47	C	-0.975411	1.464273	-0.578376
C48	C	-1.030017	1.464314	-0.578377
C49	C	-1.029990	1.599982	-0.442891
C50	C	-0.975389	1.599937	-0.442885
C51	C	-0.948101	1.532079	-0.510636
O52	O	-0.888997	1.657499	-0.385278
O53	O	-0.888999	1.406536	-0.635988
C54	C	-0.115421	1.532075	-0.510612
C55	C	-0.057307	1.532165	-0.510643
C56	C	-0.251798	1.808370	-0.510532
C57	C	-0.251799	1.926200	-0.510530
C58	C	-0.292222	1.970996	-0.428591
C59	C	-0.292382	2.093555	-0.428856
C60	C	-0.266554	2.094099	-0.622359
C61	C	-0.266845	1.971500	-0.621862
C62	C	-0.196524	1.971459	-0.481665
C63	C	-0.196822	2.094064	-0.479224
C64	C	-0.211429	1.614277	-1.072457
C65	C	-0.211284	1.614013	-0.949897
C66	C	-0.236743	1.420307	-0.949369
C67	C	-0.236438	1.420807	-1.071968
C68	C	-0.307026	1.560443	-1.072052
C69	C	-0.306748	1.562887	-0.949446
C70	C	-0.251813	1.531846	-0.235107
C71	C	-0.251690	1.532018	-0.117278
H72	H	-0.953200	1.409019	-0.633546
N73	N	-0.557083	1.672774	-0.369710
H74	H	-0.579694	1.721904	-0.412826
H75	H	-0.531460	1.715645	-0.326800
H76	H	-0.283173	2.123645	-0.345973
N77	N	-0.223687	1.723705	-0.910041
H78	H	-0.223612	1.723744	-0.830170
H79	H	-0.259213	1.745714	-0.936525
N80	N	-0.319483	2.134677	-0.655294
H81	H	-0.316057	2.176329	-0.723109
H82	H	-0.333954	2.181837	-0.597911
H83	H	-0.195988	1.396707	-1.100591
H84	H	-0.170664	1.595702	-1.103294
N85	N	-1.059431	1.673170	-0.369850
H86	H	-1.033848	1.716130	-0.326928
H87	H	-1.082132	1.630065	-0.320763
H88	H	-1.052250	1.409086	-0.633549
H89	H	-0.264486	1.357434	-1.101616
N90	N	-0.228759	2.132754	-0.705468
H91	H	-0.211038	2.070218	-0.739744
H92	H	-0.201675	2.179619	-0.671303
N93	N	-0.280169	1.931966	-0.318437
H94	H	-0.248390	1.884862	-0.320575
H95	H	-0.310922	1.890607	-0.290381
N96	N	-0.178684	1.930522	-0.375508
H97	H	-0.206255	1.882215	-0.345049
H98	H	-0.172793	1.992020	-0.325981
H99	H	-0.338359	1.507325	-0.918793
H100	H	-0.549904	1.408712	-0.633443
H101	H	-0.332947	1.940128	-0.447486
H102	H	-0.333342	2.122830	-0.447997
N103	N	-0.182075	2.132602	-0.370255
H104	H	-0.210884	2.178722	-0.341306
H105	H	-0.148708	2.174877	-0.374678
N106	N	-0.694821	1.323059	-0.719114
H107	H	-0.672120	1.366080	-0.768278
H108	H	-0.720447	1.280127	-0.761954
H109	H	-0.165109	2.124735	-0.534536
H110	H	-0.801084	1.341068	-0.701241
N111	N	-0.156630	1.933099	-0.560708
H112	H	-0.174246	1.886631	-0.614956
H113	H	-0.128809	1.891230	-0.522781
H114	H	-0.801039	1.722905	-0.319977
H115	H	-0.450839	1.408640	-0.633406
N116	N	-0.320357	1.933542	-0.654207
H117	H	-0.343535	1.996450	-0.668653
H118	H	-0.335910	1.889672	-0.595334
H119	H	-0.337025	1.500534	-1.101045
N120	N	-0.229533	1.932242	-0.705515
H121	H	-0.240926	1.959061	-0.777099
H122	H	-0.229449	1.852375	-0.705751
H123	H	-0.953153	1.655150	-0.387707
H124	H	-0.450814	1.654762	-0.387582
H125	H	-0.701987	1.722825	-0.319940
N126	N	-0.223686	1.724334	-1.111499
H127	H	-0.255455	1.721943	-1.158623
H128	H	-0.192981	1.752629	-1.152839
N129	N	-0.156985	1.589114	-0.911074
H130	H	-0.133051	1.578257	-0.973601
H131	H	-0.157906	1.522617	-0.866853
N132	N	-0.274389	1.336906	-0.910742
H133	H	-0.301574	1.370791	-0.863913
H134	H	-0.254737	1.281587	-0.869189
N135	N	-0.183761	1.387790	-0.908741
H136	H	-0.169379	1.445224	-0.861523
H137	H	-0.159376	1.376399	-0.970448
N138	N	-0.325065	1.666456	-1.113003
H139	H	-0.297545	1.697132	-1.161295
H140	H	-0.331058	1.715938	-1.051511
N141	N	-0.321706	1.671741	-0.910925
H142	H	-0.292957	1.700920	-0.864791
H143	H	-0.355069	1.667062	-0.868671
