data_functionalizedCrystal
_audit_creation_method	'MofGen! by Chris Wilmer'
_symmetry_space_group_name_H-M	'P1'
_symmetry_Int_Tables_number	1
_symmetry_cell_setting	triclinic
loop_
_symmetry_equiv_pos_as_xyz
  x,y,z
_cell_length_a	15.944551
_cell_length_b	16.109301
_cell_length_c	15.021413
_cell_angle_alpha	89.995406
_cell_angle_beta	89.996935
_cell_angle_gamma	96.519891
loop_
_atom_site_label
_atom_site_type_symbol
_atom_site_fract_x
_atom_site_fract_y
_atom_site_fract_z
O1	O	0.107956	-1.103171	0.073978
O2	O	0.121392	-0.861114	0.073992
O3	O	-0.007603	-0.988753	0.073976
O4	O	0.236951	-0.975533	0.073993
O5	O	-0.007584	-0.988732	-0.074088
O6	O	0.121411	-0.861094	-0.074072
O7	O	0.107975	-1.103151	-0.074087
Zn8	Zn	0.114696	-0.982119	-0.097588
Zn9	Zn	0.114671	-0.982146	0.097493
O10	O	0.236970	-0.975512	-0.074071
C11	C	-0.038887	-0.988194	-0.000056
C12	C	-0.132133	-0.986548	-0.000056
C13	C	0.120857	-0.830129	-0.000038
C14	C	0.119226	-0.737833	-0.000033
C15	C	0.108510	-1.134136	-0.000054
C16	C	0.110141	-1.226432	-0.000054
C17	C	-0.346962	-0.903499	-0.000039
C18	C	-0.407983	-0.942054	-0.073046
C19	C	-0.302858	-0.983572	-0.000049
C20	C	-0.407985	-0.942093	0.072934
C21	C	-0.467769	-0.980691	-0.000039
C22	C	-0.362650	-1.022149	-0.073116
C23	C	-0.362646	-1.022177	0.072929
C24	C	-0.423649	-1.060790	-0.000096
C25	C	-0.207856	-0.985229	-0.000056
C26	C	-0.562770	-0.979039	-0.000038
C27	C	0.268254	-0.976071	-0.000037
C28	C	0.361500	-0.977717	-0.000031
N29	N	0.114712	-0.982107	-0.230725
C30	C	0.191975	-0.515584	-0.000038
C31	C	0.190435	-0.428863	-0.000044
C32	C	0.037387	-0.448688	-0.000051
C33	C	0.038927	-0.535407	-0.000052
C34	C	0.116224	-0.568853	-0.000041
C35	C	0.113143	-0.395412	-0.000046
C36	C	0.111473	-0.301386	-0.000052
C37	C	0.117894	-0.662885	-0.000036
C38	C	0.174331	-0.923078	-0.470401
C39	C	0.190613	-0.998205	-0.529739
C40	C	0.114691	-0.982128	-0.412332
C41	C	0.098427	-0.907022	-0.529736
C42	C	0.114672	-0.982142	-0.587756
C43	C	0.131011	-1.057293	-0.470363
C44	C	0.038792	-0.966061	-0.470356
C45	C	0.055042	-1.041242	-0.529666
C46	C	0.114703	-0.982119	-0.311275
C47	C	0.114659	-0.982160	-0.688812
N48	N	0.114649	-0.982165	0.230631
H49	H	-0.313632	-0.837035	-0.000108
H50	H	0.252119	-0.385495	-0.000044
O51	O	-0.432047	-0.901565	-0.146580
C52	C	-0.472741	-0.832237	-0.120371
H53	H	-0.498644	-0.842703	-0.050030
H54	H	-0.425615	-0.773472	-0.121768
C55	C	-0.514046	-0.808899	-0.271267
C56	C	-0.545868	-0.821756	-0.184876
H57	H	-0.559152	-0.802430	-0.311058
H58	H	-0.486627	-0.855604	-0.288926
H59	H	-0.474774	-0.759928	-0.272419
H60	H	-0.585130	-0.870731	-0.183723
H61	H	-0.573295	-0.775058	-0.167218
H62	H	-0.022762	-0.578781	-0.000056
H63	H	-0.342663	-1.055980	-0.134906
O64	O	-0.037622	-0.416059	-0.000015
C65	C	-0.022741	-0.328095	-0.000034
H66	H	0.042812	-0.307735	0.028000
H67	H	-0.026799	-0.303948	-0.071067
C68	C	-0.170065	-0.317137	0.023600
C69	C	-0.089555	-0.292130	0.058039
H70	H	-0.211281	-0.294951	0.059418
H71	H	-0.180092	-0.376400	0.023610
H72	H	-0.173435	-0.297012	-0.035594
H73	H	-0.086183	-0.312264	0.117227
H74	H	-0.079529	-0.232870	0.058041
O75	O	-0.431920	-0.901811	0.146660
C76	C	-0.407670	-0.943326	0.223507
H77	H	-0.400061	-1.010999	0.206363
H78	H	-0.345144	-0.910843	0.249321
C79	C	-0.485269	-0.858023	0.316795
C80	C	-0.475930	-0.941141	0.295740
H81	H	-0.527372	-0.856672	0.361354
H82	H	-0.501604	-0.830051	0.265023
H83	H	-0.433159	-0.830963	0.338302
H84	H	-0.528036	-0.968197	0.274223
H85	H	-0.459605	-0.969118	0.347511
O86	O	-0.463204	-1.140162	-0.000303
C87	C	-0.440077	-1.182051	-0.077366
H88	H	-0.418149	-1.134312	-0.130917
H89	H	-0.386604	-1.220765	-0.060647
C90	C	-0.543600	-1.298632	-0.046015
C91	C	-0.516675	-1.239998	-0.111791
H92	H	-0.590848	-1.334380	-0.067250
H93	H	-0.559180	-1.270412	0.005905
H94	H	-0.499033	-1.330885	-0.032089
H95	H	-0.561238	-1.207739	-0.125708
H96	H	-0.501105	-1.268214	-0.163715
O97	O	0.266984	-0.548212	0.000006
C98	C	0.252104	-0.636176	-0.000015
H99	H	0.186548	-0.656542	0.028015
H100	H	0.256176	-0.660310	-0.071048
C101	C	0.399425	-0.647135	0.023627
C102	C	0.318910	-0.672149	0.058061
H103	H	0.440635	-0.669326	0.059447
H104	H	0.409451	-0.587872	0.023638
H105	H	0.402806	-0.667249	-0.035566
H106	H	0.315527	-0.652027	0.117249
H107	H	0.308885	-0.731410	0.058062
H108	H	0.224808	-0.873191	-0.444380
O109	O	-0.037816	-0.949909	-0.439310
C110	C	-0.100760	-1.011448	-0.470798
H111	H	-0.077505	-1.041070	-0.533748
H112	H	-0.115196	-1.061572	-0.417663
C113	C	-0.209989	-0.934566	-0.414619
C114	C	-0.181430	-0.970943	-0.491940
H115	H	-0.259752	-0.909583	-0.427657
H116	H	-0.167583	-0.893107	-0.393402
H117	H	-0.222014	-0.976342	-0.370347
H118	H	-0.169396	-0.929166	-0.536206
H119	H	-0.223836	-1.012395	-0.513166
H120	H	0.254791	-1.011807	-0.555823
H121	H	0.144835	-1.120829	-0.444393
O122	O	-0.005052	-1.100992	-0.560483
C123	C	0.012395	-1.180030	-0.530047
H124	H	0.082400	-1.177656	-0.513488
H125	H	-0.026574	-1.197709	-0.467852
C126	C	-0.096454	-1.248609	-0.623520
C127	C	-0.010471	-1.245695	-0.603189
H128	H	-0.110561	-1.289116	-0.668635
H129	H	-0.108211	-1.195360	-0.644023
H130	H	-0.128917	-1.263339	-0.571685
H131	H	0.021991	-1.230955	-0.655021
H132	H	0.001291	-1.298943	-0.582697
O133	O	-0.338528	-1.062444	0.146582
C134	C	-0.281419	-1.007767	0.196616
H135	H	-0.250138	-0.956483	0.151368
H136	H	-0.316881	-0.978479	0.252187
C137	C	-0.251808	-1.119866	0.292902
C138	C	-0.213383	-1.056882	0.237325
H139	H	-0.209842	-1.150162	0.318017
H140	H	-0.290286	-1.156703	0.259196
H141	H	-0.281358	-1.095450	0.339203
H142	H	-0.183842	-1.081299	0.191020
H143	H	-0.174898	-1.020049	0.271025
H144	H	0.084680	-0.843500	-0.555819
