data_functionalizedCrystal
_audit_creation_method	'MofGen! by Chris Wilmer'
_symmetry_space_group_name_H-M	'P1'
_symmetry_Int_Tables_number	1
_symmetry_cell_setting	triclinic
loop_
_symmetry_equiv_pos_as_xyz
  x,y,z
_cell_length_a	23.532361
_cell_length_b	23.532407
_cell_length_c	10.268362
_cell_angle_alpha	89.990068
_cell_angle_beta	89.999693
_cell_angle_gamma	82.839173
loop_
_atom_site_label
_atom_site_type_symbol
_atom_site_fract_x
_atom_site_fract_y
_atom_site_fract_z
O1	O	0.755277	0.069009	-0.108183
O2	O	1.255277	0.569009	0.391817
O3	O	0.589410	0.079040	-0.108216
O4	O	1.089410	0.579040	0.391784
O5	O	0.677345	-0.008908	-0.108174
O6	O	1.177345	0.491092	0.391826
O7	O	0.667341	0.156957	-0.108224
O8	O	1.167341	0.656957	0.391776
O9	O	0.677337	-0.008912	0.108426
O10	O	1.177337	0.491088	0.608426
O11	O	0.589402	0.079036	0.108385
O12	O	1.089402	0.579036	0.608385
O13	O	0.755269	0.069005	0.108418
O14	O	1.255269	0.569005	0.608418
Cu15	Cu	0.672335	0.074021	0.128179
Cu16	Cu	1.172335	0.574021	0.628179
Cu17	Cu	0.672344	0.074025	-0.127977
Cu18	Cu	1.172344	0.574025	0.372023
O19	O	0.667334	0.156953	0.108376
O20	O	1.167334	0.656953	0.608376
C21	C	0.568189	0.078787	0.000081
C22	C	1.068189	0.578787	0.500081
C23	C	0.504971	0.078032	0.000069
C24	C	1.004971	0.578032	0.500069
C25	C	0.231731	0.074730	-0.117991
C26	C	0.731731	0.574730	0.382009
C27	C	0.291131	0.075445	-0.117995
C28	C	0.791131	0.575445	0.382005
O29	O	0.321860	0.075797	-0.218406
O30	O	0.821860	0.575797	0.281594
N31	N	0.320832	0.075804	0.000075
N32	N	0.820832	0.575804	0.500075
C33	C	0.291132	0.075443	0.118155
C34	C	0.791132	0.575443	0.618155
O35	O	0.321850	0.075813	0.218582
O36	O	0.821850	0.575813	0.718582
C37	C	0.231734	0.074724	0.118157
C38	C	0.731734	0.574724	0.618157
C39	C	0.202035	0.074370	0.000080
C40	C	0.702035	0.574370	0.500080
C41	C	0.202032	0.074376	-0.236059
C42	C	0.702032	0.574376	0.263941
C43	C	0.142636	0.073662	-0.236055
C44	C	0.642636	0.573662	0.263945
C45	C	0.112940	0.073303	-0.117983
C46	C	0.612940	0.573303	0.382017
C47	C	0.142639	0.073657	0.000084
C48	C	0.642639	0.573657	0.500084
C49	C	0.202035	0.074358	0.236236
C50	C	0.702035	0.574358	0.736236
C51	C	0.142633	0.073639	0.236228
C52	C	0.642633	0.573639	0.736228
C53	C	0.112934	0.073285	0.118151
C54	C	0.612934	0.573285	0.618151
C55	C	0.053546	0.072583	0.118159
C56	C	0.553546	0.572583	0.618159
N57	N	0.023845	0.072224	0.000090
N58	N	0.523845	0.572224	0.500090
C59	C	0.053541	0.072584	-0.117981
C60	C	0.553541	0.572584	0.382019
C61	C	0.415872	0.076952	0.118142
C62	C	0.915872	0.576952	0.618142
C63	C	0.475269	0.077675	0.118141
C64	C	0.975269	0.577675	0.618141
C65	C	0.475264	0.077676	-0.118009
C66	C	0.975264	0.577676	0.381991
C67	C	0.415866	0.076957	-0.118007
C68	C	0.915866	0.576957	0.381993
C69	C	0.386171	0.076593	0.000073
C70	C	0.886171	0.576593	0.500073
C71	C	-0.071194	0.071085	-0.117964
C72	C	0.428806	0.571085	0.382036
C73	C	-0.130595	0.070373	-0.117950
C74	C	0.369405	0.570373	0.382050
C75	C	-0.130585	0.070369	0.118200
C76	C	0.369415	0.570369	0.618200
C77	C	-0.071189	0.071084	0.118186
C78	C	0.428811	0.571084	0.618186
C79	C	-0.041495	0.071440	0.000094
C80	C	0.458505	0.571440	0.500094
O81	O	0.022780	0.072228	0.218519
O82	O	0.522780	0.572228	0.718519
O83	O	0.022817	0.072205	-0.218391
O84	O	0.522817	0.572205	0.281609
C85	C	0.677086	-0.030126	0.000129
C86	C	1.177086	0.469874	0.500129
C87	C	0.676320	-0.093343	0.000139
C88	C	1.176320	0.406657	0.500139
C89	C	0.723555	-0.492454	0.000077
C90	C	1.223555	0.007546	0.500077
C91	C	0.722844	-0.551854	0.000067
C92	C	1.222844	-0.051854	0.500067
O93	O	0.766630	-0.588606	0.000028
O94	O	1.266630	-0.088606	0.500028
N95	N	0.670566	-0.574471	0.000058
N96	N	1.170566	-0.074471	0.500058
C97	C	0.618997	-0.537685	0.000045
C98	C	1.118997	-0.037685	0.500045
O99	O	0.574465	-0.562377	0.000035
O100	O	1.074465	-0.062377	0.500035
C101	C	0.619709	-0.478286	0.000046
C102	C	1.119709	0.021714	0.500046
C103	C	0.671990	-0.455672	0.000068
C104	C	1.171990	0.044328	0.500068
C105	C	0.775832	-0.469839	0.000098
C106	C	1.275832	0.030161	0.500098
C107	C	0.776543	-0.410443	0.000111
C108	C	1.276543	0.089557	0.500111
C109	C	0.724977	-0.373662	0.000102
C110	C	1.224977	0.126338	0.500102
C111	C	0.672701	-0.396276	0.000081
C112	C	1.172701	0.103724	0.500081
C113	C	0.568140	-0.441501	0.000024
C114	C	1.068140	0.058499	0.500024
C115	C	0.568857	-0.382099	0.000023
C116	C	1.068857	0.117901	0.500023
C117	C	0.621137	-0.359485	0.000046
C118	C	1.121137	0.140515	0.500046
C119	C	0.621847	-0.300099	0.000084
C120	C	1.121847	0.199901	0.500084
N121	N	0.674124	-0.277481	0.000094
N122	N	1.174124	0.222519	0.500094
C123	C	0.725690	-0.314263	0.000103
C124	C	1.225690	0.185737	0.500103
C125	C	0.617505	-0.662427	0.000041
C126	C	1.117505	-0.162427	0.500041
C127	C	0.616793	-0.721825	0.000050
C128	C	1.116793	-0.221825	0.500050
C129	C	0.720640	-0.735990	0.000069
C130	C	1.220640	-0.235990	0.500069
C131	C	0.721352	-0.676591	0.000070
C132	C	1.221352	-0.176591	0.500070
C133	C	0.669783	-0.639810	0.000051
C134	C	1.169783	-0.139810	0.500051
C135	C	0.727179	-0.189526	0.000130
C136	C	1.227179	0.310474	0.500130
C137	C	0.727886	-0.130124	0.000148
C138	C	1.227886	0.369876	0.500148
C139	C	0.624039	-0.115965	0.000121
C140	C	1.124039	0.384035	0.500121
C141	C	0.623332	-0.175361	0.000110
C142	C	1.123332	0.324639	0.500110
C143	C	0.674907	-0.212141	0.000110
C144	C	1.174907	0.287859	0.500110
O145	O	0.578083	-0.263312	0.000118
O146	O	1.078083	0.236688	0.500118
O147	O	0.770214	-0.289562	0.000096
O148	O	1.270214	0.210438	0.500096
C149	C	0.776489	0.069258	0.000119
C150	C	1.276489	0.569258	0.500119
C151	C	0.839708	0.070014	0.000122
C152	C	1.339708	0.570014	0.500122
C153	C	0.667592	0.178171	0.000070
C154	C	1.167592	0.678171	0.500070
C155	C	0.668358	0.241388	0.000052
C156	C	1.168358	0.741388	0.500052
N157	N	0.672333	0.074017	0.308345
N158	N	1.172333	0.574017	0.808345
N159	N	0.672351	0.074024	-0.308143
N160	N	1.172351	0.574024	0.191857
C161	C	0.672341	0.074024	0.574015
C162	C	1.172341	0.574024	1.074015
C163	C	0.672335	0.074022	0.426177
C164	C	1.172335	0.574022	0.926177
H165	H	0.118458	0.073347	0.332385
H166	H	0.618458	0.573347	0.832385
N167	N	0.505611	0.078036	0.238743
N168	N	1.005611	0.578036	0.738743
N169	N	0.558645	0.078672	0.238741
N170	N	1.058645	0.578672	0.738741
H171	H	0.580074	0.078923	0.323919
H172	H	1.080074	0.578923	0.823919
H173	H	0.770461	-0.111716	0.000170
H174	H	1.270461	0.388284	0.500170
N175	N	0.828504	-0.507413	0.000133
N176	N	1.328504	-0.007413	0.500133
N177	N	0.827874	-0.560448	0.000145
N178	N	1.327874	-0.060448	0.500145
H179	H	0.865077	-0.586983	0.000182
H180	H	1.365077	-0.086983	0.500182
H181	H	0.580761	-0.193774	0.000128
H182	H	1.080761	0.306226	0.500128
N183	N	0.779866	-0.227082	0.000126
N184	N	1.279866	0.272918	0.500126
N185	N	0.826534	-0.206873	0.000146
N186	N	1.326534	0.293127	0.500146
H187	H	0.863744	-0.233396	0.000150
H188	H	1.363744	0.266604	0.500150
N189	N	-0.160921	0.070004	-0.238581
N190	N	0.339079	0.570004	0.261419
N191	N	-0.148803	0.029933	-0.317621
N192	N	0.351197	0.529933	0.182379
H193	H	-0.170218	0.029671	-0.402816
H194	H	0.329782	0.529671	0.097184
H195	H	0.391697	0.076662	0.214303
H196	H	0.891697	0.576662	0.714303
H197	H	0.118461	0.073372	-0.332205
H198	H	0.618461	0.573372	0.167795
H199	H	0.226205	0.074667	-0.332212
H200	H	0.726205	0.574667	0.167788
N201	N	0.774749	-0.653484	0.000096
N202	N	1.274749	-0.153484	0.500096
N203	N	0.786730	-0.621925	0.091400
N204	N	1.286730	-0.121925	0.591400
H205	H	0.824444	-0.605608	0.091418
H206	H	1.324444	-0.105608	0.591418
H207	H	-0.047024	0.071376	-0.214126
H208	H	0.452976	0.571376	0.285874
H209	H	0.226206	0.074644	0.332388
H210	H	0.726206	0.574644	0.832388
N211	N	0.514736	-0.464592	-0.000038
N212	N	1.014736	0.035408	0.499962
N213	N	0.502758	-0.496142	-0.091359
N214	N	1.002758	0.003858	0.408641
H215	H	0.465039	-0.512450	-0.091408
H216	H	0.965039	-0.012450	0.408592
N217	N	0.564824	-0.624859	0.000069
N218	N	1.064824	-0.124859	0.500069
N219	N	0.553631	-0.590144	0.091378
N220	N	1.053631	-0.090144	0.591378
H221	H	0.516425	-0.563614	0.091399
H222	H	1.016425	-0.063614	0.591399
N223	N	0.385540	0.076597	-0.238630
N224	N	0.885540	0.576597	0.261370
N225	N	0.412069	0.076921	-0.344036
N226	N	0.912069	0.576921	0.155964
H227	H	0.390654	0.076665	-0.429233
H228	H	0.890654	0.576665	0.070767
H229	H	0.819115	-0.392037	0.000124
H230	H	1.319115	0.107963	0.500124
N231	N	0.505612	0.078026	-0.238613
N232	N	1.005612	0.578026	0.261387
N233	N	0.544236	0.038269	-0.264918
N234	N	1.044236	0.538269	0.235082
H235	H	0.565671	0.038513	-0.350090
H236	H	1.065671	0.538513	0.149910
H237	H	-0.047008	0.071383	0.214334
H238	H	0.452992	0.571383	0.714334
H239	H	0.762627	-0.765949	0.000072
H240	H	1.262627	-0.265949	0.500072
H241	H	-0.154775	0.070079	0.214330
H242	H	0.345225	0.570079	0.714330
H243	H	0.574220	-0.740232	0.000054
H244	H	1.074220	-0.240232	0.500054
N245	N	0.516173	-0.344537	-0.000012
N246	N	1.016173	0.155463	0.499988
N247	N	0.469502	-0.364741	-0.000040
N248	N	0.969502	0.135259	0.499960
H249	H	0.432294	-0.338214	-0.000066
H250	H	0.932294	0.161786	0.499934
H251	H	0.582056	-0.086007	0.000119
H252	H	1.082056	0.413993	0.500119
