data_functionalizedCrystal
_audit_creation_method	'MofGen! by Chris Wilmer'
_symmetry_space_group_name_H-M	'P1'
_symmetry_Int_Tables_number	1
_symmetry_cell_setting	triclinic
loop_
_symmetry_equiv_pos_as_xyz
  x,y,z
_cell_length_a	17.699083
_cell_length_b	17.699092
_cell_length_c	15.072220
_cell_angle_alpha	89.999035
_cell_angle_beta	90.003658
_cell_angle_gamma	83.284691
loop_
_atom_site_label
_atom_site_type_symbol
_atom_site_fract_x
_atom_site_fract_y
_atom_site_fract_z
O1	O	-1.004077	-0.095709	0.073655
O2	O	-0.504077	0.404291	0.573655
O3	O	-0.783699	-0.108161	0.073683
O4	O	-0.283699	0.391839	0.573683
O5	O	-0.900111	0.008254	0.073666
O6	O	-0.400111	0.508254	0.573666
O7	O	-0.887665	-0.212124	0.073672
O8	O	-0.387665	0.287876	0.573672
O9	O	-0.900105	0.008253	-0.073899
O10	O	-0.400105	0.508253	0.426101
O11	O	-0.783693	-0.108162	-0.073882
O12	O	-0.283693	0.391838	0.426118
O13	O	-1.004071	-0.095709	-0.073910
O14	O	-0.504071	0.404291	0.426090
Zn15	Zn	-0.893881	-0.101936	-0.097325
Zn16	Zn	-0.393881	0.398064	0.402675
Zn17	Zn	-0.893888	-0.101935	0.097098
Zn18	Zn	-0.393888	0.398065	0.597098
O19	O	-0.887659	-0.212124	-0.073893
O20	O	-0.387659	0.287876	0.426107
C21	C	-0.755499	-0.107715	-0.000095
C22	C	-0.255499	0.392285	0.499905
C23	C	-0.671480	-0.106377	-0.000084
C24	C	-0.171480	0.393623	0.499916
C25	C	-0.899661	0.036450	-0.000115
C26	C	-0.399661	0.536450	0.499885
C27	C	-0.898319	0.120468	-0.000111
C28	C	-0.398319	0.620468	0.499889
C29	C	-0.888109	-0.240321	-0.000110
C30	C	-0.388109	0.259679	0.499890
C31	C	-0.889450	-0.324339	-0.000108
C32	C	-0.389450	0.175661	0.499892
C33	C	-1.032271	-0.096155	-0.000129
C34	C	-0.532271	0.403845	0.499871
C35	C	-1.116289	-0.097494	-0.000135
C36	C	-0.616289	0.402506	0.499865
C37	C	-0.622862	-0.174710	-0.000083
C38	C	-0.122862	0.325290	0.499917
C39	C	-0.543918	-0.173448	-0.000094
C40	C	-0.043918	0.326552	0.499906
C41	C	-0.513595	-0.103851	-0.000101
C42	C	-0.013595	0.396149	0.499899
C43	C	-0.562220	-0.035513	-0.000105
C44	C	-0.062220	0.464487	0.499895
C45	C	-0.641162	-0.036776	-0.000100
C46	C	-0.141162	0.463224	0.499900
C47	C	-0.243857	-0.030418	-0.000127
C48	C	0.256143	0.469582	0.499873
C49	C	-0.164909	-0.029160	-0.000130
C50	C	0.335091	0.470840	0.499870
C51	C	-0.146613	-0.167089	-0.000122
C52	C	0.353387	0.332911	0.499878
C53	C	-0.225555	-0.168352	-0.000116
C54	C	0.274445	0.331648	0.499884
C55	C	-0.274173	-0.100014	-0.000125
C56	C	0.225827	0.399986	0.499875
C57	C	-0.359772	-0.101384	-0.000114
C58	C	0.140228	0.398616	0.499886
C59	C	-0.427998	-0.102481	-0.000106
C60	C	0.072002	0.397519	0.499894
C61	C	-0.897694	0.159936	0.080328
C62	C	-0.397694	0.659936	0.580328
C63	C	-0.896429	0.238879	0.080329
C64	C	-0.396429	0.738879	0.580329
C65	C	-0.895795	0.278353	-0.000109
C66	C	-0.395795	0.778353	0.499891
C67	C	-0.896418	0.238880	-0.080554
C68	C	-0.396418	0.738880	0.419446
C69	C	-0.897677	0.159938	-0.080554
C70	C	-0.397677	0.659938	0.419446
C71	C	-0.891338	0.557245	-0.080555
C72	C	-0.391338	1.057245	0.419445
C73	C	-0.890080	0.636193	-0.080548
C74	C	-0.390080	1.136193	0.419452
C75	C	-0.890090	0.636186	0.080329
C76	C	-0.390090	1.136186	0.580329
C77	C	-0.891349	0.557244	0.080329
C78	C	-0.391349	1.057244	0.580329
C79	C	-0.891968	0.517777	-0.000116
C80	C	-0.391968	1.017777	0.499884
C81	C	-0.893338	0.432178	-0.000116
C82	C	-0.393338	0.932178	0.499884
C83	C	-0.894430	0.363952	-0.000110
C84	C	-0.394430	0.863952	0.499890
N85	N	-0.893881	-0.101936	-0.230014
N86	N	-0.393881	0.398064	0.269986
N87	N	-0.893894	-0.101929	0.229787
N88	N	-0.393894	0.398071	0.729787
C89	C	-0.893885	-0.101934	0.588989
C90	C	-0.393885	0.398066	1.088989
C91	C	-0.956106	-0.039579	0.551345
C92	C	-0.456106	0.460421	1.051345
C93	C	-0.956329	-0.039737	0.448519
C94	C	-0.456329	0.460263	0.948519
C95	C	-0.893890	-0.101931	0.410785
C96	C	-0.393890	0.398069	0.910785
C97	C	-0.910791	-0.180932	0.448112
C98	C	-0.410791	0.319068	0.948112
C99	C	-0.911235	-0.180568	0.550969
C100	C	-0.411235	0.319432	1.050969
C101	C	-0.814576	-0.085998	0.551090
C102	C	-0.314576	0.414002	1.051090
C103	C	-0.815111	-0.084200	0.448226
C104	C	-0.315111	0.415800	0.948226
C105	C	-0.893891	-0.101934	0.310071
C106	C	-0.393891	0.398066	0.810071
C107	C	-0.893886	-0.101936	0.689702
C108	C	-0.393886	0.398064	1.189702
H109	H	-0.647544	-0.231383	-0.000077
H110	H	-0.147544	0.268617	0.499923
C111	C	-0.895745	0.282294	0.168810
C112	C	-0.395745	0.782294	0.668810
H113	H	-0.894895	0.334962	0.157292
H114	H	-0.394895	0.834962	0.657292
H115	H	-0.940074	0.275210	0.201853
H116	H	-0.440074	0.775210	0.701853
H117	H	-0.851830	0.263501	0.201868
H118	H	-0.351830	0.763501	0.701868
C119	C	-0.694646	0.038388	-0.000101
C120	C	-0.194646	0.538388	0.499899
H121	H	-0.746004	0.027669	-0.000106
H122	H	-0.246004	0.527669	0.499894
H123	H	-0.685466	0.066936	0.051355
H124	H	-0.185466	0.566936	0.551355
H125	H	-0.685472	0.066928	-0.051570
H126	H	-0.185472	0.566928	0.448430
C127	C	-0.752027	-0.147413	0.583994
C128	C	-0.252027	0.352587	1.083994
H129	H	-0.774096	-0.182600	0.620649
H130	H	-0.274096	0.317400	1.120649
H131	H	-0.728014	-0.173432	0.534549
H132	H	-0.228014	0.326568	1.034549
H133	H	-0.715390	-0.124091	0.617107
H134	H	-0.215390	0.375909	1.117107
H135	H	-0.504335	-0.229091	-0.000092
H136	H	-0.004335	0.270909	0.499908
C137	C	-0.093131	-0.242261	-0.000124
C138	C	0.406869	0.257739	0.499876
H139	H	-0.041773	-0.231545	-0.000138
H140	H	0.458227	0.268455	0.499862
H141	H	-0.102303	-0.270803	0.051338
H142	H	0.397697	0.229197	0.551338
H143	H	-0.102318	-0.270804	-0.051587
H144	H	0.397682	0.229196	0.448413
H145	H	-0.891869	0.525108	0.145830
H146	H	-0.391869	1.025108	0.645830
H147	H	-0.891857	0.525122	-0.146058
H148	H	-0.391857	1.025122	0.353942
H149	H	-0.866662	-0.228451	0.423670
H150	H	-0.366662	0.271549	0.923670
C151	C	-0.898367	0.116523	-0.169037
C152	C	-0.398367	0.616523	0.330963
H153	H	-0.897815	0.151339	-0.216944
H154	H	-0.397815	0.651339	0.283056
H155	H	-0.854739	0.079876	-0.172374
H156	H	-0.354739	0.579876	0.327626
H157	H	-0.942982	0.091581	-0.172387
H158	H	-0.442982	0.591581	0.327613
C159	C	-0.942823	0.039596	0.414420
C160	C	-0.442823	0.539596	0.914420
H161	H	-0.937152	0.072213	0.463431
H162	H	-0.437152	0.572213	0.963431
H163	H	-0.897974	0.035480	0.379286
H164	H	-0.397974	0.535480	0.879286
H165	H	-0.985030	0.060051	0.379520
H166	H	-0.485030	0.560051	0.879520
C167	C	-0.895723	0.282300	-0.169035
C168	C	-0.395723	0.782300	0.330965
H169	H	-0.894892	0.334969	-0.157516
H170	H	-0.394892	0.834969	0.342484
H171	H	-0.851810	0.263513	-0.202084
H172	H	-0.351810	0.763513	0.297916
H173	H	-0.940053	0.275213	-0.202088
H174	H	-0.440053	0.775213	0.297912
H175	H	-0.537525	0.021154	-0.000123
H176	H	-0.037525	0.521154	0.499877
C177	C	-0.989357	-0.199521	0.583371
C178	C	-0.489357	0.300479	1.083371
H179	H	-1.020525	-0.207367	0.533673
H180	H	-0.520525	0.292633	1.033673
H181	H	-0.982785	-0.244385	0.618476
H182	H	-0.482785	0.255615	1.118476
H183	H	-1.012965	-0.158492	0.617941
H184	H	-0.512965	0.341508	1.117941
C185	C	-0.942809	0.040017	0.584759
C186	C	-0.442809	0.540017	1.084759
H187	H	-0.899196	0.035937	0.621973
H188	H	-0.399196	0.535937	1.121973
H189	H	-0.935038	0.071735	0.535544
H190	H	-0.435038	0.571735	1.035544
H191	H	-0.985989	0.061481	0.617395
H192	H	-0.485989	0.561481	1.117395
C193	C	-1.035174	-0.053128	0.586262
C194	C	-0.535174	0.446872	1.086262
H195	H	-1.030432	-0.096624	0.623677
H196	H	-0.530432	0.403376	1.123677
H197	H	-1.056411	-0.009913	0.618986
H198	H	-0.556411	0.490087	1.118986
H199	H	-1.067455	-0.061218	0.537666
H200	H	-0.567455	0.438782	1.037666
C201	C	-0.131556	0.047399	-0.000146
C202	C	0.368444	0.547399	0.499854
H203	H	-0.171817	0.087919	-0.000160
H204	H	0.328183	0.587919	0.499840
H205	H	-0.101136	0.050763	0.051311
H206	H	0.398864	0.550763	0.551311
H207	H	-0.101145	0.050749	-0.051614
H208	H	0.398855	0.550749	0.448386
H209	H	-0.898215	0.127802	0.145831
H210	H	-0.398215	0.627802	0.645831
C211	C	-0.797775	-0.005685	0.415291
C212	C	-0.297775	0.494315	0.915291
H213	H	-0.750054	0.004718	0.438173
H214	H	-0.250054	0.504718	0.938173
H215	H	-0.796076	-0.005591	0.352298
H216	H	-0.296076	0.494409	0.852298
H217	H	-0.836503	0.032264	0.435103
H218	H	-0.336503	0.532264	0.935103
C219	C	-0.889398	0.679601	0.168818
C220	C	-0.389398	1.179601	0.668818
H221	H	-0.888548	0.732268	0.157302
H222	H	-0.388548	1.232268	0.657302
H223	H	-0.933725	0.672516	0.201863
H224	H	-0.433725	1.172516	0.701863
H225	H	-0.845482	0.660806	0.201873
H226	H	-0.345482	1.160806	0.701873
H227	H	-0.889562	0.668331	-0.146055
H228	H	-0.389562	1.168331	0.353945
C229	C	-1.035841	-0.053506	0.415259
C230	C	-0.535841	0.446494	0.915259
H231	H	-1.068129	-0.059033	0.464610
H232	H	-0.568129	0.440967	0.964610
H233	H	-1.056581	-0.011483	0.380258
H234	H	-0.556581	0.488517	0.880258
H235	H	-1.031866	-0.098515	0.380399
H236	H	-0.531866	0.401485	0.880399
C237	C	-0.852328	-0.245140	0.584616
C238	C	-0.352328	0.254860	1.084616
H239	H	-0.828236	-0.271483	0.535420
H240	H	-0.328236	0.228517	1.035420
H241	H	-0.815234	-0.224303	0.619644
H242	H	-0.315234	0.275697	1.119644
H243	H	-0.877183	-0.279486	0.619529
H244	H	-0.377183	0.220514	1.119529
C245	C	-0.988017	-0.200357	0.413307
C246	C	-0.488017	0.299643	0.913307
H247	H	-1.010059	-0.160430	0.376040
H248	H	-0.510059	0.339570	0.876040
H249	H	-0.980684	-0.246433	0.380454
H250	H	-0.480684	0.253567	0.880454
H251	H	-1.020962	-0.206175	0.461963
H252	H	-0.520962	0.293825	0.961963
H253	H	-0.250239	-0.225025	-0.000107
H254	H	0.249761	0.274975	0.499893
C255	C	-0.297327	0.044751	-0.000131
C256	C	0.202673	0.544751	0.499869
H257	H	-0.267959	0.086378	-0.000126
H258	H	0.232041	0.586378	0.499874
H259	H	-0.328507	0.047128	-0.051589
H260	H	0.171493	0.547128	0.448411
H261	H	-0.328498	0.047128	0.051336
H262	H	0.171502	0.547128	0.551336
H263	H	-0.798250	-0.029621	0.577037
H264	H	-0.298250	0.470379	1.077037
H265	H	-0.766665	-0.126670	0.422544
H266	H	-0.266665	0.373330	0.922544
