data_functionalizedCrystal
_audit_creation_method	'MofGen! by Chris Wilmer'
_symmetry_space_group_name_H-M	'P1'
_symmetry_Int_Tables_number	1
_symmetry_cell_setting	triclinic
loop_
_symmetry_equiv_pos_as_xyz
  x,y,z
_cell_length_a	17.699099
_cell_length_b	16.109301
_cell_length_c	15.186229
_cell_angle_alpha	90.005167
_cell_angle_beta	89.997239
_cell_angle_gamma	96.624584
loop_
_atom_site_label
_atom_site_type_symbol
_atom_site_fract_x
_atom_site_fract_y
_atom_site_fract_z
O1	O	1.004217	-0.105198	-0.073219
O2	O	1.504217	0.394802	0.426781
O3	O	0.783860	-0.118863	-0.073224
O4	O	1.283860	0.381137	0.426776
O5	O	0.900092	0.009010	-0.073212
O6	O	1.400092	0.509010	0.426788
O7	O	0.887985	-0.233072	-0.073230
O8	O	1.387985	0.266928	0.426770
O9	O	0.900084	0.009012	0.073245
O10	O	1.400084	0.509012	0.573245
O11	O	0.783852	-0.118861	0.073233
O12	O	1.283852	0.381139	0.573233
O13	O	1.004210	-0.105196	0.073238
O14	O	1.504210	0.394804	0.573238
Zn15	Zn	0.894030	-0.112029	0.096489
Zn16	Zn	1.394030	0.387971	0.596489
Zn17	Zn	0.894040	-0.112031	-0.096475
Zn18	Zn	1.394040	0.387969	0.403525
O19	O	0.887978	-0.233070	0.073227
O20	O	1.387978	0.266930	0.573227
C21	C	0.755659	-0.118371	0.000004
C22	C	1.255659	0.381629	0.500004
C23	C	0.671639	-0.116895	0.000003
C24	C	1.171639	0.383105	0.500003
C25	C	1.032411	-0.105689	0.000008
C26	C	1.532411	0.394311	0.500008
C27	C	1.116431	-0.107164	0.000004
C28	C	1.616431	0.392836	0.500004
C29	C	1.155903	-0.107860	-0.079831
C30	C	1.655903	0.392140	0.420169
C31	C	1.234849	-0.109239	-0.079832
C32	C	1.734849	0.390761	0.420168
C33	C	1.274321	-0.109929	0.000003
C34	C	1.774321	0.390071	0.500003
C35	C	1.234843	-0.109232	0.079844
C36	C	1.734843	0.390768	0.579844
C37	C	1.155899	-0.107846	0.079844
C38	C	1.655899	0.392154	0.579844
C39	C	1.553216	-0.114818	0.079845
C40	C	2.053216	0.385182	0.579845
C41	C	1.632165	-0.116206	0.079839
C42	C	2.132165	0.383794	0.579839
C43	C	1.632165	-0.116211	-0.079831
C44	C	2.132165	0.383789	0.420169
C45	C	1.553221	-0.114825	-0.079831
C46	C	2.053221	0.385175	0.420169
C47	C	1.513751	-0.114123	0.000010
C48	C	2.013751	0.385877	0.500010
C49	C	1.428149	-0.112626	0.000010
C50	C	1.928149	0.387374	0.500010
C51	C	1.359921	-0.111433	0.000004
C52	C	1.859921	0.388567	0.500004
C53	C	0.899598	0.039985	0.000017
C54	C	1.399598	0.539985	0.500017
C55	C	0.898128	0.132278	0.000018
C56	C	1.398128	0.632278	0.500018
C57	C	0.888472	-0.264045	-0.000004
C58	C	1.388472	0.235955	0.499996
C59	C	0.889942	-0.356338	-0.000011
C60	C	1.389942	0.143662	0.499989
N61	N	0.894028	-0.112026	0.228182
N62	N	1.394028	0.387974	0.728182
C63	C	0.963679	0.354660	0.000006
C64	C	1.463679	0.854660	0.500006
C65	C	0.962291	0.441378	-0.000002
C66	C	1.462291	0.941378	0.499998
C67	C	0.824386	0.421274	-0.000001
C68	C	1.324386	0.921274	0.499999
C69	C	0.825774	0.334558	-0.000000
C70	C	1.325774	0.834558	0.500000
C71	C	0.895423	0.301253	0.000008
C72	C	1.395423	0.801253	0.500008
C73	C	0.892647	0.474688	-0.000001
C74	C	1.392647	0.974688	0.499999
C75	C	0.891142	0.568711	-0.000009
C76	C	1.391142	1.068711	0.499991
C77	C	0.896928	0.207224	0.000014
C78	C	1.396928	0.707224	0.500014
N79	N	0.894047	-0.112026	-0.228167
N80	N	1.394047	0.387974	0.271833
C81	C	0.945513	-0.055423	0.453910
C82	C	1.445513	0.444577	0.953910
C83	C	0.945516	-0.055421	0.546099
C84	C	1.445516	0.444579	1.046099
C85	C	0.842557	-0.168633	0.546098
C86	C	1.342557	0.331367	1.046098
C87	C	0.842551	-0.168630	0.453910
C88	C	1.342551	0.331370	0.953910
C89	C	0.894034	-0.112026	0.407818
C90	C	1.394034	0.387974	0.907818
C91	C	0.894042	-0.112027	0.592196
C92	C	1.394042	0.387973	1.092196
C93	C	0.894044	-0.112025	0.692152
C94	C	1.394044	0.387975	1.192152
C95	C	0.894031	-0.112026	0.307856
C96	C	1.394031	0.387974	0.807856
H97	H	1.123770	-0.107303	-0.144842
H98	H	1.623770	0.392697	0.355158
H99	H	1.017872	0.484858	-0.000005
H100	H	1.517872	0.984858	0.499995
Br101	Br	1.288417	-0.110175	-0.188184
Br102	Br	1.788417	0.389825	0.311816
H103	H	0.800627	-0.214723	0.416380
H104	H	1.300627	0.285277	0.916380
H105	H	0.987433	-0.009331	0.416384
H106	H	1.487433	0.490669	0.916384
Br107	Br	0.772692	-0.245451	0.608654
Br108	Br	1.272692	0.254549	1.108654
Br109	Br	1.288412	-0.110164	0.188193
Br110	Br	1.788412	0.389836	0.688193
Br111	Br	0.733134	0.262071	-0.000010
Br112	Br	1.233134	0.762071	0.499990
H113	H	0.767680	0.448402	-0.000006
H114	H	1.267680	0.948402	0.499994
Br115	Br	1.058201	0.309462	0.000017
Br116	Br	1.558201	0.809462	0.500017
Br117	Br	1.102330	-0.106891	0.188196
Br118	Br	1.602330	0.393109	0.688196
H119	H	0.987434	-0.009329	0.583625
H120	H	1.487434	0.490671	1.083625
H121	H	1.521087	-0.114267	-0.144841
H122	H	2.021087	0.385733	0.355159
H123	H	1.664312	-0.116779	-0.144841
H124	H	2.164312	0.383221	0.355159
H125	H	1.521090	-0.114234	0.144856
H126	H	2.021090	0.385766	0.644856
Br127	Br	1.685734	-0.117144	0.188193
Br128	Br	2.185734	0.382856	0.688193
