data_functionalizedCrystal
_audit_creation_method	'MofGen! by Chris Wilmer'
_symmetry_space_group_name_H-M	'P1'
_symmetry_Int_Tables_number	1
_symmetry_cell_setting	triclinic
loop_
_symmetry_equiv_pos_as_xyz
  x,y,z
_cell_length_a	12.759395
_cell_length_b	12.759394
_cell_length_c	19.805399
_cell_angle_alpha	90.022273
_cell_angle_beta	90.016240
_cell_angle_gamma	90.015393
loop_
_atom_site_label
_atom_site_type_symbol
_atom_site_fract_x
_atom_site_fract_y
_atom_site_fract_z
Zn1	Zn	1.606231	-0.418248	0.382684
Zn2	Zn	1.606137	-0.593941	0.269507
Zn3	Zn	1.430542	-0.418281	0.269516
Zn4	Zn	1.430524	-0.593890	0.382660
O5	O	1.518358	-0.506090	0.326092
O6	O	1.753239	-0.441561	0.367678
O7	O	1.582812	-0.570675	0.174791
O8	O	1.453894	-0.271256	0.284542
O9	O	1.753170	-0.570642	0.284526
O10	O	1.582972	-0.271231	0.367686
O11	O	1.453803	-0.441619	0.174798
O12	O	1.283518	-0.441569	0.284518
O13	O	1.453863	-0.570555	0.477380
O14	O	1.283505	-0.570588	0.367645
O15	O	1.582954	-0.441512	0.477398
O16	O	1.582795	-0.740956	0.284503
O17	O	1.453772	-0.740918	0.367636
C18	C	1.245391	-0.506077	0.326080
C19	C	1.128614	-0.506097	0.326091
C20	C	1.518300	-0.779058	0.326081
C21	C	1.518371	-0.895834	0.326098
C22	C	1.128639	-0.640662	0.412511
C23	C	1.073790	-0.707952	0.455723
C24	C	0.964069	-0.707965	0.455731
C25	C	0.909193	-0.640678	0.412524
C26	C	0.964041	-0.573387	0.369312
C27	C	1.073766	-0.573384	0.369307
C28	C	0.964017	-0.438819	0.282897
C29	C	1.073738	-0.438810	0.282884
C30	C	0.909141	-0.371532	0.239690
C31	C	0.963990	-0.304245	0.196474
C32	C	1.073718	-0.304236	0.196467
C33	C	1.128587	-0.371519	0.239672
C34	C	1.652679	-0.895650	0.412742
C35	C	1.719866	-0.950419	0.456069
C36	C	1.719929	-1.060141	0.456083
C37	C	1.652794	-1.115096	0.412768
C38	C	1.585607	-1.060327	0.369441
C39	C	1.585554	-0.950603	0.369430
C40	C	1.451296	-1.060511	0.282802
C41	C	1.451237	-0.950790	0.282783
C42	C	1.384161	-1.115466	0.239487
C43	C	1.316978	-1.060698	0.196155
C44	C	1.316919	-0.950969	0.196142
C45	C	1.384050	-0.896021	0.239456
C46	C	1.792392	-0.506104	0.326104
C47	C	1.909168	-0.506110	0.326109
C48	C	1.518417	-0.506024	0.502634
C49	C	1.518442	-0.505996	0.577867
C50	C	1.518445	-0.232057	0.326118
C51	C	1.518483	-0.115280	0.326129
C52	C	1.518360	-0.506080	0.150236
C53	C	1.518538	-0.505812	0.075004
C54	C	1.585662	-0.438799	0.613221
C55	C	1.585672	-0.438769	0.683910
C56	C	1.518468	-0.505941	0.719242
C57	C	1.451242	-0.573140	0.683883
C58	C	1.451226	-0.573165	0.613195
C59	C	1.451301	-0.573042	0.968956
C60	C	1.451324	-0.573015	1.039648
C61	C	1.585747	-0.438647	1.039670
C62	C	1.585732	-0.438671	0.968983
C63	C	1.518502	-0.505866	0.933630
C64	C	1.518489	-0.505897	0.856981
C65	C	1.518485	-0.505916	0.795889
H66	H	1.217980	-0.640666	0.412504
H67	H	1.262318	-1.105451	0.160895
H68	H	1.384013	-0.806680	0.239447
C69	C	1.134156	-0.781966	0.503248
C70	C	1.209553	-0.864380	0.473818
C71	C	1.269915	-0.938390	0.521344
C72	C	1.254880	-0.929986	0.598300
C73	C	1.179479	-0.847568	0.627734
C74	C	1.119117	-0.773558	0.580208
H75	H	1.220686	-0.870604	0.416846
H76	H	1.325732	-0.999401	0.499554
H77	H	1.299564	-0.984773	0.633482
H78	H	1.168346	-0.841344	0.684706
H79	H	1.063301	-0.712547	0.601998
H80	H	1.396479	-0.627872	0.584411
H81	H	1.774524	-0.905665	0.491337
C82	C	0.903627	-0.230236	0.148952
C83	C	0.782937	-0.230241	0.148964
C84	C	0.722571	-0.156231	0.101440
C85	C	0.782894	-0.082217	0.053903
C86	C	0.903591	-0.082209	0.053889
C87	C	0.963958	-0.156218	0.101413
H88	H	0.738276	-0.285033	0.184156
H89	H	0.633223	-0.156238	0.101451
H90	H	0.738207	-0.027431	0.018723
H91	H	0.948252	-0.027416	0.018697
H92	H	1.053306	-0.156212	0.101402
H93	H	1.640485	-0.383929	1.068463
H94	H	1.396594	-0.627716	1.068414
H95	H	0.919411	-0.762754	0.490921
C96	C	1.134048	-0.230212	0.148933
C97	C	1.118985	-0.110790	0.154600
C98	C	1.179311	-0.036765	0.107066
C99	C	1.254701	-0.082161	0.053865
C100	C	1.269768	-0.201589	0.048197
C101	C	1.209442	-0.275615	0.095731
H102	H	1.063174	-0.077179	0.193983
H103	H	1.168158	0.051644	0.111262
H104	H	1.299358	-0.027363	0.018678
H105	H	1.325579	-0.235200	0.008813
H106	H	1.220595	-0.364023	0.091535
C107	C	1.243010	-0.890727	0.148481
C108	C	1.251648	-0.905880	0.071542
C109	C	1.177738	-0.845642	0.023880
C110	C	1.095190	-0.770251	0.053158
C111	C	1.086548	-0.755094	0.130100
C112	C	1.160459	-0.815332	0.177762
H113	H	1.312758	-0.961692	0.049866
H114	H	1.184135	-0.856862	-0.033078
H115	H	1.040477	-0.725659	0.017875
H116	H	1.025438	-0.699282	0.151777
H117	H	1.154061	-0.804112	0.234720
C118	C	1.659588	-0.364908	0.574358
C119	C	1.651051	-0.245468	0.584089
C120	C	1.724976	-0.171571	0.545228
C121	C	1.807439	-0.217114	0.496636
C122	C	1.815980	-0.336560	0.486904
C123	C	1.742054	-0.410457	0.525764
H124	H	1.590004	-0.211749	0.620061
H125	H	1.718654	-0.083149	0.552433
H126	H	1.862164	-0.162412	0.467869
H127	H	1.877027	-0.370280	0.450931
H128	H	1.748377	-0.498879	0.518559
C129	C	1.659612	-0.364849	0.722800
C130	C	1.733538	-0.290964	0.683936
C131	C	1.807478	-0.217037	0.722826
C132	C	1.807491	-0.216994	0.800579
C133	C	1.733562	-0.290881	0.839447
C134	C	1.659623	-0.364809	0.800557
H135	H	1.733531	-0.290993	0.626375
H136	H	1.862204	-0.162340	0.694053
H137	H	1.862225	-0.162268	0.829368
H138	H	1.733570	-0.290852	0.897008
H139	H	1.604896	-0.419505	0.829330
H140	H	1.640460	-0.383976	0.940219
C141	C	1.377339	-0.646962	0.930088
C142	C	1.257914	-0.638365	0.939824
C143	C	1.183940	-0.712290	0.900960
C144	C	1.229392	-0.794813	0.852359
C145	C	1.348822	-0.803414	0.842620
C146	C	1.422796	-0.729489	0.881485
H147	H	1.224263	-0.577273	0.975804
H148	H	1.095530	-0.705922	0.908170
H149	H	1.174632	-0.849537	0.823589
H150	H	1.382474	-0.864505	0.806641
H151	H	1.511207	-0.735856	0.874275
H152	H	1.396519	-0.627829	0.712656
H153	H	1.652842	-1.204437	0.412789
H154	H	0.819852	-0.640685	0.412541
H155	H	0.819800	-0.371542	0.239703
H156	H	1.217928	-0.371521	0.239669
H157	H	1.652645	-0.806309	0.412728
H158	H	1.774627	-1.104733	0.491371
H159	H	1.384213	-1.204808	0.239504
