data_functionalizedCrystal
_audit_creation_method	'MofGen! by Chris Wilmer'
_symmetry_space_group_name_H-M	'P1'
_symmetry_Int_Tables_number	1
_symmetry_cell_setting	triclinic
loop_
_symmetry_equiv_pos_as_xyz
  x,y,z
_cell_length_a	18.215407
_cell_length_b	19.077068
_cell_length_c	19.077579
_cell_angle_alpha	90.063424
_cell_angle_beta	87.686539
_cell_angle_gamma	92.327501
loop_
_atom_site_label
_atom_site_type_symbol
_atom_site_fract_x
_atom_site_fract_y
_atom_site_fract_z
Zn1	Zn	1.131110	-0.263793	-0.408544
Zn2	Zn	1.631110	0.236207	0.091456
Zn3	Zn	1.121148	-0.386024	-0.295750
Zn4	Zn	1.621148	0.113976	0.204250
Zn5	Zn	1.002916	-0.268535	-0.291050
Zn6	Zn	1.502916	0.231465	0.208950
Zn7	Zn	1.003264	-0.381268	-0.413217
Zn8	Zn	1.503264	0.118732	0.086783
O9	O	1.064609	-0.324905	-0.352141
O10	O	1.564609	0.175095	0.147859
O11	O	1.232773	-0.280013	-0.393593
O12	O	1.732773	0.219987	0.106407
O13	O	1.101149	-0.374414	-0.196795
O14	O	1.601149	0.125586	0.303205
O15	O	1.023945	-0.169572	-0.302714
O16	O	1.523945	0.330428	0.197286
O17	O	1.225454	-0.369816	-0.310724
O18	O	1.725454	0.130184	0.189276
O19	O	1.118128	-0.166088	-0.389036
O20	O	1.618128	0.333912	0.110964
O21	O	1.014285	-0.288095	-0.193342
O22	O	1.514285	0.211905	0.306658
O23	O	0.899978	-0.283483	-0.307245
O24	O	1.399978	0.216517	0.192755
O25	O	1.024537	-0.361709	-0.510930
O26	O	1.524537	0.138291	-0.010930
O27	O	0.900233	-0.366307	-0.397000
O28	O	1.400233	0.133693	0.103000
O29	O	1.118465	-0.275401	-0.507496
O30	O	1.618465	0.224599	-0.007496
O31	O	1.101487	-0.483727	-0.315255
O32	O	1.601487	0.016273	0.184745
O33	O	1.014878	-0.480232	-0.401558
O34	O	1.514878	0.019768	0.098442
C35	C	0.873403	-0.324894	-0.352120
C36	C	1.373403	0.175106	0.147880
C37	C	0.791604	-0.324905	-0.352128
C38	C	1.291604	0.175095	0.147872
C39	C	0.603557	-0.368105	-0.398811
C40	C	1.103557	0.131895	0.101189
C41	C	0.526698	-0.368107	-0.398820
C42	C	1.026698	0.131893	0.101180
C43	C	0.526414	-0.281717	-0.305486
C44	C	1.026414	0.218283	0.194514
C45	C	0.603271	-0.281712	-0.305482
C46	C	1.103271	0.218288	0.194518
C47	C	0.641841	-0.324910	-0.352143
C48	C	1.141841	0.175090	0.147857
C49	C	0.488125	-0.324917	-0.352156
C50	C	0.988125	0.175083	0.147844
C51	C	0.404791	-0.324918	-0.352166
C52	C	0.904791	0.175082	0.147834
C53	C	0.725179	-0.324907	-0.352135
C54	C	1.225179	0.175093	0.147865
C55	C	1.057160	-0.507476	-0.359439
C56	C	1.557160	-0.007476	0.140561
C57	C	1.054041	-0.585580	-0.362584
C58	C	1.554041	-0.085580	0.137416
C59	C	1.097706	-0.624068	-0.319166
C60	C	1.597706	-0.124068	0.180834
C61	C	1.094778	-0.697454	-0.322129
C62	C	1.594778	-0.197454	0.177871
C63	C	1.048179	-0.732351	-0.368507
C64	C	1.548179	-0.232351	0.131493
C65	C	1.004512	-0.693858	-0.411930
C66	C	1.504512	-0.193858	0.088070
C67	C	1.007445	-0.620473	-0.408970
C68	C	1.507445	-0.120473	0.091030
C69	C	1.034571	-0.951637	-0.382177
C70	C	1.534571	-0.451637	0.117823
C71	C	1.031639	-1.025027	-0.385132
C72	C	1.531639	-0.525027	0.114868
C73	C	1.121907	-1.028618	-0.295332
C74	C	1.621907	-0.528618	0.204668
C75	C	1.124832	-0.955232	-0.292373
C76	C	1.624832	-0.455232	0.207627
C77	C	1.081168	-0.916745	-0.335798
C78	C	1.581168	-0.416745	0.164202
N79	N	1.045182	-0.807364	-0.371535
N80	N	1.545182	-0.307364	0.128465
N81	N	1.084169	-0.841733	-0.332773
N82	N	1.584169	-0.341733	0.167227
C83	C	1.256563	-0.324917	-0.352162
C84	C	1.756563	0.175083	0.147838
C85	C	1.338362	-0.324922	-0.352171
C86	C	1.838362	0.175078	0.147829
C87	C	1.072651	-0.317496	-0.535422
C88	C	1.572651	0.182504	-0.035422
C89	C	1.076079	-0.314338	-0.613526
C90	C	1.576079	0.185662	-0.113526
C91	C	1.072109	-0.141620	-0.344829
C92	C	1.572109	0.358380	0.155171
C93	C	1.075305	-0.063515	-0.341714
C94	C	1.575305	0.436485	0.158286
C95	C	1.100657	-0.291744	-1.052976
C96	C	1.600657	0.208256	-0.552976
C97	C	1.097432	-0.294714	-0.979589
C98	C	1.597432	0.205286	-0.479589
C99	C	1.046913	-0.341131	-0.944687
C100	C	1.546913	0.158869	-0.444687
C101	C	0.999620	-0.384586	-0.983175
C102	C	1.499620	0.115414	-0.483175
C103	C	1.002849	-0.381619	-1.056560
C104	C	1.502849	0.118381	-0.556560
C105	C	1.032015	-0.354826	-0.725400
C106	C	1.532015	0.145174	-0.225400
C107	C	1.028788	-0.357788	-0.652009
C108	C	1.528788	0.142212	-0.152009
C109	C	1.126601	-0.267917	-0.648428
C110	C	1.626601	0.232083	-0.148428
C111	C	1.129822	-0.264951	-0.721815
C112	C	1.629822	0.235049	-0.221815
C113	C	1.082533	-0.308408	-0.760297
C114	C	1.582533	0.191592	-0.260297
N115	N	1.043614	-0.344166	-0.869674
N116	N	1.543614	0.155834	-0.369674
N117	N	1.085836	-0.305376	-0.835309
N118	N	1.585836	0.194624	-0.335309
C119	C	1.056643	-0.332235	-0.169570
C120	C	1.556643	0.167765	0.330430
C121	C	1.053366	-0.335194	-0.091459
C122	C	1.553366	0.164806	0.408541
H123	H	1.135649	-0.595659	-0.281398
H124	H	1.635649	-0.095659	0.218602
C125	C	1.178620	-0.220121	-0.606093
C126	C	1.678620	0.279879	-0.106093
N127	N	1.217805	-0.184121	-0.574205
N128	N	1.717805	0.315879	-0.074205
H129	H	0.634958	-0.403277	-0.436807
H130	H	1.134958	0.096723	0.063193
H131	H	0.634443	-0.246533	-0.267479
H132	H	1.134443	0.253467	0.232521
H133	H	1.130334	-0.728788	-0.286773
H134	H	1.630334	-0.228788	0.213227
H135	H	0.495531	-0.403279	-0.436822
H136	H	0.995531	0.096721	0.063178
C137	C	1.176075	-0.916851	-0.241336
C138	C	1.676075	-0.416851	0.258664
N139	N	1.214663	-0.887943	-0.202886
N140	N	1.714663	-0.387943	0.297114
H141	H	1.157457	-1.059962	-0.259978
H142	H	1.657457	-0.559962	0.240022
C143	C	0.979988	-0.402624	-0.767720
C144	C	1.479988	0.097376	-0.267720
N145	N	0.940796	-0.438626	-0.799598
N146	N	1.440796	0.061374	-0.299598
C147	C	0.483981	-0.234206	-0.254158
C148	C	0.983981	0.265794	0.245842
N149	N	0.452020	-0.198421	-0.215495
N150	N	0.952020	0.301579	0.284505
H151	H	1.135943	-0.259334	-0.948259
H152	H	1.635943	0.240666	-0.448259
C153	C	0.980380	-1.063412	-0.436158
C154	C	1.480380	-0.563412	0.063842
N155	N	0.941774	-1.092324	-0.474589
N156	N	1.441774	-0.592324	0.025411
H157	H	0.999016	-0.920306	-0.417534
H158	H	1.499016	-0.420306	0.082466
C159	C	0.950825	-0.429416	-1.098891
C160	C	1.450825	0.070584	-0.598891
N161	N	0.911639	-0.465420	-1.130774
N162	N	1.411639	0.034580	-0.630774
C163	C	0.953250	-0.732248	-0.462944
C164	C	1.453250	-0.232248	0.037056
N165	N	0.914635	-0.761162	-0.501365
N166	N	1.414635	-0.261162	-0.001365
H167	H	0.971889	-0.589136	-0.444326
H168	H	1.471889	-0.089136	0.055674
C169	C	0.944047	-0.435644	-0.944779
C170	C	1.444047	0.064356	-0.444779
N171	N	0.902186	-0.474100	-0.915860
N172	N	1.402186	0.025900	-0.415860
C173	C	1.156232	-0.240681	-1.091362
C174	C	1.656232	0.259319	-0.591362
N175	N	1.198096	-0.202221	-1.120272
N176	N	1.698096	0.297779	-0.620272
C177	C	1.185398	-0.213889	-0.760203
C178	C	1.685398	0.286111	-0.260203
N179	N	1.227258	-0.175428	-0.789116
N180	N	1.727258	0.324572	-0.289116
H181	H	0.987632	-0.395574	-0.623593
H182	H	1.487632	0.104426	-0.123593
