data_functionalizedCrystal
_audit_creation_method	'MofGen! by Chris Wilmer'
_symmetry_space_group_name_H-M	'P1'
_symmetry_Int_Tables_number	1
_symmetry_cell_setting	triclinic
loop_
_symmetry_equiv_pos_as_xyz
  x,y,z
_cell_length_a	12.759401
_cell_length_b	16.120484
_cell_length_c	12.759393
_cell_angle_alpha	92.864008
_cell_angle_beta	89.979062
_cell_angle_gamma	92.926992
loop_
_atom_site_label
_atom_site_type_symbol
_atom_site_fract_x
_atom_site_fract_y
_atom_site_fract_z
Zn1	Zn	1.584985	-0.331832	-0.615183
Zn2	Zn	1.575933	-0.471268	-0.448395
Zn3	Zn	1.409280	-0.331877	-0.439521
Zn4	Zn	1.400336	-0.471209	-0.624029
O5	O	1.492634	-0.401546	-0.531782
O6	O	1.730804	-0.350334	-0.593070
O7	O	1.553781	-0.452820	-0.300200
O8	O	1.440119	-0.215205	-0.455406
O9	O	1.724154	-0.452777	-0.470532
O10	O	1.569208	-0.215173	-0.584465
O11	O	1.431342	-0.350410	-0.293680
O12	O	1.261073	-0.350354	-0.463984
O13	O	1.424875	-0.452678	-0.769874
O14	O	1.254502	-0.452721	-0.599541
O15	O	1.560535	-0.350278	-0.763375
O16	O	1.545108	-0.587925	-0.479110
O17	O	1.416098	-0.587883	-0.608147
C18	C	1.219667	-0.401536	-0.531760
C19	C	1.102889	-0.401552	-0.531777
C20	C	1.044628	-0.454936	-0.602261
C21	C	0.934904	-0.454939	-0.602282
C22	C	0.941712	-0.348172	-0.461326
C23	C	1.051434	-0.348166	-0.461311
C24	C	0.783089	-0.484854	-0.728051
C25	C	0.724823	-0.538250	-0.798527
C26	C	0.755203	-0.619612	-0.819663
C27	C	0.843846	-0.647593	-0.770310
C28	C	0.902106	-0.594200	-0.699827
C29	C	0.871728	-0.512828	-0.678709
C30	C	1.203250	-0.318259	-0.335542
C31	C	1.261512	-0.264871	-0.265053
C32	C	1.231134	-0.183508	-0.243905
C33	C	1.142488	-0.155530	-0.293240
C34	C	1.084226	-0.208919	-0.363729
C35	C	1.114611	-0.290280	-0.384878
C36	C	1.478679	-0.618154	-0.545574
C37	C	1.472805	-0.710820	-0.551509
C38	C	1.462088	-0.880481	-0.562368
C39	C	1.523367	-0.921772	-0.501213
C40	C	1.517404	-1.016177	-0.507255
C41	C	1.468050	-0.786067	-0.556327
C42	C	1.766666	-0.401557	-0.531804
C43	C	1.883442	-0.401562	-0.531814
C44	C	1.492717	-0.401466	-0.805810
C45	C	1.492753	-0.401432	-0.922585
C46	C	1.506671	-0.184093	-0.517959
C47	C	1.512653	-0.091427	-0.512068
C48	C	1.563397	-0.348104	-0.974064
C49	C	1.563417	-0.348068	-1.083786
C50	C	1.422146	-0.454696	-1.090540
C51	C	1.422122	-0.454727	-0.980820
C52	C	1.607337	-0.249705	-1.227491
C53	C	1.677997	-0.196384	-1.278974
C54	C	1.781330	-0.183600	-1.242567
C55	C	1.814023	-0.224149	-1.154680
C56	C	1.743368	-0.277476	-1.103203
C57	C	1.640022	-0.290244	-1.139607
C58	C	1.378212	-0.553091	-0.837113
C59	C	1.307561	-0.606423	-0.785634
C60	C	1.204226	-0.619216	-0.822039
C61	C	1.171536	-0.578681	-0.909931
C62	C	1.242187	-0.525350	-0.961410
C63	C	1.345521	-0.512556	-0.924997
C64	C	1.492614	-0.401566	-0.258816
C65	C	1.492797	-0.401365	-0.142027
H66	H	1.086519	-0.498404	-0.659642
H67	H	0.707755	-0.663087	-0.877047
H68	H	1.580308	-0.886221	-0.444319
H69	H	1.838862	-0.140184	-1.284492
C70	C	0.776537	-0.300775	-0.398761
C71	C	0.885148	-0.289495	-0.383868
H72	H	0.741621	-0.264552	-0.350935
H73	H	0.759378	-0.288643	-0.468600
H74	H	0.754952	-0.356779	-0.386831
H75	H	0.906735	-0.233493	-0.395806
H76	H	0.902314	-0.301621	-0.314013
H77	H	1.651369	-0.163370	-1.350532
H78	H	1.769988	-0.310493	-1.031650
H79	H	1.405150	-0.916029	-0.619256
C80	C	0.898731	-0.748779	-0.900725
C81	C	0.877236	-0.737032	-0.793538
H82	H	0.919353	-0.803995	-0.915064
H83	H	0.837606	-0.739763	-0.940192
H84	H	0.953825	-0.710554	-0.919607
H85	H	0.822135	-0.775253	-0.774658
H86	H	0.938368	-0.746057	-0.754058
H87	H	1.620907	-0.304706	-0.926651
H88	H	0.652651	-0.515460	-0.838710
C89	C	1.282361	-0.627824	-0.602271
C90	C	1.343494	-0.650977	-0.689018
H91	H	1.304541	-0.655332	-0.542627
H92	H	1.290369	-0.569367	-0.588750
H93	H	1.210711	-0.643085	-0.616602
H94	H	1.415144	-0.635710	-0.674690
H95	H	1.335495	-0.709446	-0.702540
H96	H	0.974276	-0.616982	-0.659644
H97	H	1.012051	-0.186130	-0.403907
C98	C	1.178951	-0.025138	-0.197719
C99	C	1.109091	-0.066092	-0.270002
H100	H	1.158336	0.030078	-0.183376
H101	H	1.178112	-0.053975	-0.134579
H102	H	1.247784	-0.023733	-0.226193
H103	H	1.040260	-0.067503	-0.241525
H104	H	1.109919	-0.037248	-0.333154
C105	C	1.379393	-0.166558	-0.127566
C106	C	1.295174	-0.124822	-0.166417
H107	H	1.418927	-0.130324	-0.079736
H108	H	1.353351	-0.213942	-0.092503
H109	H	1.423027	-0.183700	-0.184114
H110	H	1.251536	-0.107685	-0.109870
H111	H	1.321216	-0.077423	-0.201479
H112	H	1.898170	-0.213741	-1.125050
H113	H	1.146707	-0.662650	-0.780121
C114	C	1.338116	-0.405607	-0.400731
C115	C	1.236643	-0.407699	-0.358790
H116	H	1.358730	-0.460824	-0.415074
H117	H	1.338947	-0.376774	-0.463873
H118	H	1.385489	-0.377817	-0.351679
H119	H	1.189268	-0.435484	-0.407846
H120	H	1.235804	-0.436545	-0.295639
C121	C	1.359460	-0.501998	-1.261734
C122	C	1.344518	-0.513282	-1.154557
H123	H	1.311540	-0.538172	-1.301252
H124	H	1.347703	-0.445983	-1.276149
H125	H	1.429270	-0.514199	-1.280490
H126	H	1.274710	-0.501074	-1.135799
H127	H	1.356268	-0.569309	-1.140136
H128	H	1.523194	-0.260103	-1.257136
H129	H	1.215562	-0.492345	-1.032977
C130	C	1.037829	-0.677221	-0.977504
C131	C	1.057947	-0.592740	-0.949955
H132	H	0.967701	-0.685902	-1.002206
H133	H	1.084937	-0.694067	-1.031196
H134	H	1.047189	-0.708985	-0.917784
H135	H	1.048594	-0.560976	-1.009677
H136	H	1.010824	-0.575885	-0.896258
H137	H	0.758353	-0.418600	-0.710858
C138	C	1.540566	-0.614996	-0.800442
C139	C	1.491817	-0.539037	-0.797124
H140	H	1.610705	-0.606322	-0.775768
H141	H	1.503183	-0.652547	-0.757193
H142	H	1.540886	-0.637625	-0.870620
H143	H	1.491490	-0.516410	-0.726944
H144	H	1.529209	-0.501472	-0.840372
H145	H	1.333692	-0.287658	-0.224881
