data_functionalizedCrystal
_audit_creation_method	'MofGen! by Chris Wilmer'
_symmetry_space_group_name_H-M	'P1'
_symmetry_Int_Tables_number	1
_symmetry_cell_setting	triclinic
loop_
_symmetry_equiv_pos_as_xyz
  x,y,z
_cell_length_a	17.699097
_cell_length_b	26.210047
_cell_length_c	27.732064
_cell_angle_alpha	89.991443
_cell_angle_beta	97.031088
_cell_angle_gamma	89.986704
loop_
_atom_site_label
_atom_site_type_symbol
_atom_site_fract_x
_atom_site_fract_y
_atom_site_fract_z
O1	O	-1.003542	0.042475	0.061149
O2	O	-0.783096	0.042464	0.069095
O3	O	-0.900159	0.042472	-0.005250
O4	O	-0.886479	0.042467	0.135493
O5	O	-0.900137	-0.042386	-0.005238
O6	O	-0.783073	-0.042394	0.069106
O7	O	-1.003520	-0.042383	0.061160
Cu8	Cu	-0.893295	-0.050137	0.065134
Cu9	Cu	-0.893321	0.050218	0.065121
O10	O	-0.886457	-0.042391	0.135505
C11	C	-0.754890	0.000034	0.068815
C12	C	-0.670880	0.000030	0.067957
C13	C	-0.155220	0.046303	0.062695
C14	C	-0.234157	0.046301	0.063498
C15	C	-0.273607	0.000043	0.063906
C16	C	-0.234117	-0.046216	0.063507
C17	C	-0.155183	-0.046214	0.062701
C18	C	-0.552453	-0.046227	0.066756
C19	C	-0.631393	-0.046226	0.067563
C20	C	-0.631428	0.046287	0.067552
C21	C	-0.552493	0.046290	0.066747
C22	C	-0.513011	0.000031	0.066345
C23	C	-0.427418	0.000034	0.065474
C24	C	-0.359198	0.000040	0.064780
N25	N	-0.893281	-0.120721	0.065144
C26	C	-0.945151	-0.473231	0.032208
C27	C	-0.945168	-0.686890	0.032202
O28	O	-0.989241	-0.714509	0.004201
N29	N	-0.893325	-0.713615	0.065110
C30	C	-0.841471	-0.686921	0.098020
O31	O	-0.797371	-0.714555	0.126007
C32	C	-0.841452	-0.473264	0.098024
C33	C	-0.893303	-0.446542	0.065117
C34	C	-0.996998	-0.446509	-0.000697
C35	C	-0.996996	-0.393098	-0.000693
C36	C	-0.945148	-0.366409	0.032216
C37	C	-0.893301	-0.393130	0.065121
C38	C	-0.789595	-0.446572	0.130932
C39	C	-0.789593	-0.393154	0.130929
C40	C	-0.841444	-0.366432	0.098022
C41	C	-0.841451	-0.313029	0.098033
N42	N	-0.893293	-0.286305	0.065125
C43	C	-0.945142	-0.312994	0.032216
C44	C	-0.841486	-0.799095	0.098016
C45	C	-0.841492	-0.852509	0.098016
C46	C	-0.945188	-0.852474	0.032197
C47	C	-0.945185	-0.799059	0.032200
C48	C	-0.893329	-0.772370	0.065108
C49	C	-0.945134	-0.200826	0.032227
C50	C	-0.945130	-0.147410	0.032235
C51	C	-0.841431	-0.147450	0.098052
C52	C	-0.841438	-0.200862	0.098046
C53	C	-0.893293	-0.227548	0.065130
O54	O	-0.797395	-0.285378	0.126016
O55	O	-0.989224	-0.285352	0.004226
C56	C	-0.945153	-0.526643	0.032205
C57	C	-0.893307	-0.553365	0.065110
C58	C	-0.841458	-0.526675	0.098018
C59	C	-0.893313	-0.606779	0.065109
C60	C	-0.945161	-0.633468	0.032200
C61	C	-0.997004	-0.606744	-0.000708
C62	C	-0.997002	-0.553332	-0.000704
C63	C	-0.789616	-0.553400	0.130927
C64	C	-0.789622	-0.606811	0.130920
C65	C	-0.841471	-0.633501	0.098012
C66	C	-0.031725	0.000046	0.061440
C67	C	-0.115735	0.000047	0.062298
C68	C	-0.899859	0.000044	-0.023252
C69	C	-0.898988	0.000049	-0.076909
N70	N	-0.893341	0.120802	0.065107
C71	C	-0.823884	0.000047	-0.454254
C72	C	-0.827088	0.000048	-0.252583
O73	O	-0.768809	0.000066	-0.221541
N74	N	-0.896504	0.000052	-0.233203
C75	C	-0.965124	0.000058	-0.264246
O76	O	-1.024241	0.000066	-0.243135
C77	C	-0.961920	0.000061	-0.465916
C78	C	-0.892499	0.000052	-0.485293
C79	C	-0.754469	0.000039	-0.473631
C80	C	-0.753668	0.000036	-0.524046
C81	C	-0.822283	0.000041	-0.555084
C82	C	-0.891699	0.000049	-0.535708
C83	C	-1.030539	0.000071	-0.496958
C84	C	-1.029732	0.000073	-0.547378
C85	C	-0.960311	0.000065	-0.566754
C86	C	-0.959513	0.000051	-0.617161
N87	N	-0.890097	0.000048	-0.636540
C88	C	-0.821482	0.000043	-0.605502
C89	C	-0.966802	0.000056	-0.158365
C90	C	-0.967603	0.000054	-0.107948
C91	C	-0.829566	0.000045	-0.096288
C92	C	-0.828766	0.000043	-0.146706
C93	C	-0.897386	0.000052	-0.177744
C94	C	-0.819807	0.000036	-0.711378
C95	C	-0.819012	0.000031	-0.761797
C96	C	-0.957049	0.000043	-0.773453
C97	C	-0.957844	0.000045	-0.723037
C98	C	-0.889216	0.000044	-0.692000
O99	O	-1.017761	0.000040	-0.648231
O100	O	-0.762374	0.000046	-0.626622
C101	C	-0.824684	0.000050	-0.403839
C102	C	-0.894099	0.000058	-0.384463
C103	C	-0.962714	0.000063	-0.415501
C104	C	-0.894901	0.000057	-0.334045
C105	C	-0.826286	0.000052	-0.303007
C106	C	-0.756869	0.000048	-0.322386
C107	C	-0.756069	0.000045	-0.372801
C108	C	-1.032131	0.000067	-0.396122
C109	C	-1.032925	0.000069	-0.345706
C110	C	-0.964310	0.000064	-0.314668
C111	C	-0.886757	0.000038	0.153507
C112	C	-0.887627	0.000036	0.207164
H113	H	-0.987356	-0.125655	0.005438
Cl114	Cl	-0.670612	0.000040	-0.283357
H115	H	-0.123105	0.083971	0.062366
Cl116	Cl	-1.116002	0.000087	-0.586394
H117	H	-0.663585	0.083953	0.067877
Cl118	Cl	-0.283712	-0.104369	0.064019
H119	H	-0.987406	-0.874213	0.005402
Cl120	Cl	-0.731734	0.000020	-0.786152
Cl121	Cl	-0.105545	-0.104366	0.062197
H122	H	-1.039224	-0.628483	-0.027502
Cl123	Cl	-1.118399	0.000071	-0.435134
H124	H	-0.266303	0.083967	0.063818
Cl125	Cl	-0.680987	-0.104383	0.068076
H126	H	-0.799258	-0.777368	0.124816
Cl127	Cl	-0.724434	-0.640399	0.172296
Cl128	Cl	-0.502902	0.104445	0.066236
Cl129	Cl	-1.045116	0.000038	-0.698678
Cl130	Cl	-1.010325	-0.234367	-0.009154
H131	H	-1.087069	0.000079	-0.481191
Cl132	Cl	-0.502825	-0.104381	0.066264
Cl133	Cl	-1.062178	-0.359511	-0.042067
Cl134	Cl	-0.666392	0.000032	-0.548397
Cl135	Cl	-0.724396	-0.359606	0.172302
H136	H	-1.039219	-0.468235	-0.027497
H137	H	-0.772237	0.000034	-0.162479
H138	H	-0.987407	-0.777305	0.005404
H139	H	-0.799278	-0.874262	0.124817
H140	H	-0.799223	-0.222619	0.124847
Cl141	Cl	-0.724429	-0.519854	0.172302
Cl142	Cl	-0.724405	-0.480154	0.172302
Cl143	Cl	-0.668197	0.000034	-0.434620
Cl144	Cl	-0.776253	-0.113889	0.139422
Cl145	Cl	-1.043303	0.000046	-0.812481
Cl146	Cl	-0.743308	0.000039	-0.057259
H147	H	-1.039224	-0.531579	-0.027500
Cl148	Cl	-0.733531	0.000033	-0.672367
H149	H	-1.024133	0.000053	-0.092176
H150	H	-1.022684	0.000062	-0.183632
Cl151	Cl	-0.668792	0.000036	-0.397152
H152	H	-1.089460	0.000072	-0.329935
