data_functionalizedCrystal
_audit_creation_method	'MofGen! by Chris Wilmer'
_symmetry_space_group_name_H-M	'P1'
_symmetry_Int_Tables_number	1
_symmetry_cell_setting	triclinic
loop_
_symmetry_equiv_pos_as_xyz
  x,y,z
_cell_length_a	21.395364
_cell_length_b	16.959453
_cell_length_c	21.395355
_cell_angle_alpha	90.017325
_cell_angle_beta	90.024552
_cell_angle_gamma	90.034939
loop_
_atom_site_label
_atom_site_type_symbol
_atom_site_fract_x
_atom_site_fract_y
_atom_site_fract_z
Zn1	Zn	0.957906	-0.314458	0.354267
Zn2	Zn	1.457906	0.185542	0.854267
Zn3	Zn	0.957828	-0.446619	0.249491
Zn4	Zn	1.457828	0.053381	0.749491
Zn5	Zn	0.853121	-0.314492	0.249503
Zn6	Zn	1.353121	0.185508	0.749503
Zn7	Zn	0.853110	-0.446633	0.354232
Zn8	Zn	1.353110	0.053367	0.854232
O9	O	0.905491	-0.380550	0.301873
O10	O	1.405491	0.119450	0.801873
O11	O	1.045573	-0.331969	0.340378
O12	O	1.545573	0.168031	0.840378
O13	O	0.943910	-0.429100	0.161815
O14	O	1.443910	0.070900	0.661815
O15	O	0.867058	-0.203877	0.263420
O16	O	1.367058	0.296123	0.763420
O17	O	1.045516	-0.429067	0.263400
O18	O	1.545516	0.070933	0.763400
O19	O	0.944043	-0.203851	0.340389
O20	O	1.444043	0.296149	0.840389
O21	O	0.866983	-0.332028	0.161824
O22	O	1.366983	0.167972	0.661824
O23	O	0.765441	-0.332041	0.263386
O24	O	1.265441	0.167959	0.763386
O25	O	0.867039	-0.429091	0.441914
O26	O	1.367039	0.070909	0.941914
O27	O	0.765433	-0.429124	0.340329
O28	O	1.265433	0.070876	0.840329
O29	O	0.944032	-0.331982	0.441940
O30	O	1.444032	0.168018	0.941940
O31	O	0.943900	-0.557231	0.263366
O32	O	1.443900	-0.057231	0.763366
O33	O	0.866963	-0.557242	0.340318
O34	O	1.366963	-0.057242	0.840318
C35	C	0.742703	-0.380589	0.301856
C36	C	1.242703	0.119411	0.801856
C37	C	0.673062	-0.380624	0.301863
C38	C	1.173062	0.119376	0.801863
C39	C	0.640401	-0.330148	0.342007
C40	C	1.140401	0.169852	0.842007
C41	C	0.574966	-0.330127	0.342010
C42	C	1.074966	0.169873	0.842010
C43	C	0.542194	-0.380596	0.301874
C44	C	1.042194	0.119404	0.801874
C45	C	0.574863	-0.431076	0.261722
C46	C	1.074863	0.068924	0.761722
C47	C	0.640297	-0.431090	0.261717
C48	C	1.140297	0.068910	0.761717
C49	C	0.438480	-0.451779	0.296838
C50	C	0.938480	0.048221	0.796838
C51	C	0.373047	-0.451767	0.296848
C52	C	0.873047	0.048233	0.796848
C53	C	0.340373	-0.380553	0.301888
C54	C	0.840373	0.119447	0.801888
C55	C	0.373140	-0.309349	0.306932
C56	C	0.873140	0.190651	0.806932
C57	C	0.438574	-0.309363	0.306926
C58	C	0.938574	0.190637	0.806926
C59	C	0.471242	-0.380586	0.301876
C60	C	0.971242	0.119414	0.801876
C61	C	0.236760	-0.330050	0.342037
C62	C	0.736760	0.169950	0.842037
C63	C	0.171323	-0.330027	0.342036
C64	C	0.671323	0.169973	0.842036
C65	C	0.171221	-0.430983	0.261751
C66	C	0.671221	0.069017	0.761751
C67	C	0.236657	-0.430999	0.261750
C68	C	0.736657	0.069001	0.761750
C69	C	0.269422	-0.380533	0.301896
C70	C	0.769422	0.119467	0.801896
C71	C	0.905439	-0.585917	0.301850
C72	C	1.405439	-0.085917	0.801850
C73	C	0.905474	-0.673773	0.301861
C74	C	1.405474	-0.173773	0.801861
C75	C	0.945629	-1.045177	0.342027
C76	C	1.445629	-0.545177	0.842027
C77	C	0.865529	-1.045320	0.261813
C78	C	1.365529	-0.545320	0.761813
C79	C	0.865505	-0.962775	0.261798
C80	C	1.365505	-0.462775	0.761798
C81	C	0.905544	-0.921426	0.301899
C82	C	1.405544	-0.421426	0.801899
C83	C	0.945605	-0.962623	0.342015
C84	C	1.445605	-0.462623	0.842015
C85	C	0.825440	-0.921571	0.221688
C86	C	1.325440	-0.421571	0.721688
C87	C	0.825415	-0.839020	0.221673
C88	C	1.325415	-0.339020	0.721673
C89	C	0.865457	-0.797670	0.261771
C90	C	1.365457	-0.297670	0.761771
C91	C	0.905520	-0.838873	0.301888
C92	C	1.405520	-0.338873	0.801888
C93	C	0.945559	-0.797524	0.341989
C94	C	1.445559	-0.297524	0.841989
C95	C	0.985626	-0.838725	0.382103
C96	C	1.485626	-0.338725	0.882103
C97	C	0.985647	-0.921273	0.382113
C98	C	1.485647	-0.421273	0.882113
C99	C	0.865435	-0.715122	0.261760
C100	C	1.365435	-0.215122	0.761760
C101	C	0.945535	-0.714971	0.341977
C102	C	1.445535	-0.214971	0.841977
C103	C	1.068914	-0.380512	0.301891
C104	C	1.568914	0.119488	0.801891
C105	C	1.138556	-0.380496	0.301899
C106	C	1.638556	0.119504	0.801899
C107	C	0.905543	-0.380534	0.465297
C108	C	1.405543	0.119466	0.965297
C109	C	0.905565	-0.380527	0.534938
C110	C	1.405565	0.119473	1.034938
C111	C	0.905561	-0.174382	0.301910
C112	C	1.405561	0.325618	0.801910
C113	C	0.905590	-0.086525	0.301926
C114	C	1.405590	0.413475	0.801926
C115	C	0.905475	-0.380509	0.139086
C116	C	1.405475	0.119491	0.639086
C117	C	0.905575	-0.380293	0.069445
C118	C	1.405575	0.119707	0.569445
C119	C	0.945654	-0.329961	0.567665
C120	C	1.445654	0.170039	1.067665
C121	C	0.945653	-0.329927	0.633101
C122	C	1.445653	0.170073	1.133101
C123	C	0.905570	-0.380474	0.665806
C124	C	1.405570	0.119526	1.165806
C125	C	0.865474	-0.431044	0.633071
C126	C	1.365474	0.068956	1.133071
C127	C	0.865471	-0.431071	0.567637
C128	C	1.365471	0.068929	1.067637
C129	C	0.900605	-0.451647	0.769473
C130	C	1.400605	0.048353	1.269473
C131	C	0.900612	-0.451621	0.834906
C132	C	1.400612	0.048379	1.334906
C133	C	0.905574	-0.380390	0.867627
C134	C	1.405574	0.119610	1.367627
C135	C	0.910543	-0.309183	0.834907
C136	C	1.410543	0.190817	1.334907
C137	C	0.910540	-0.309210	0.769473
C138	C	1.410540	0.190790	1.269473
C139	C	0.905568	-0.380450	0.736759
C140	C	1.405568	0.119550	1.236759
C141	C	0.945664	-0.329783	0.971307
C142	C	1.445664	0.170217	1.471307
C143	C	0.945659	-0.329747	1.036744
C144	C	1.445659	0.170253	1.536744
C145	C	0.865482	-0.430871	1.036713
C146	C	1.365482	0.069129	1.536713
C147	C	0.865484	-0.430899	0.971277
C148	C	1.365484	0.069101	1.471277
C149	C	0.905578	-0.380356	0.938578
C150	C	1.405578	0.119644	1.438578
H151	H	0.144732	-0.288919	0.374725
H152	H	0.644732	0.211081	0.874725
Cl153	Cl	0.681589	-0.266704	0.392476
Cl154	Cl	1.181589	0.233296	0.892476
H155	H	0.896570	-0.509602	0.861541
H156	H	1.396570	-0.009602	1.361541
H157	H	0.978301	-0.288804	0.541046
H158	H	1.478301	0.211196	1.041046
H159	H	0.144539	-0.472076	0.229072
H160	H	0.644539	0.027924	0.729072
Cl161	Cl	0.894385	-0.541205	0.728345
Cl162	Cl	1.394385	-0.041205	1.228345
Cl163	Cl	1.036009	-0.973073	0.432540
Cl164	Cl	1.536009	-0.473073	0.932540
Cl165	Cl	0.479765	-0.219855	0.313262
Cl166	Cl	0.979765	0.280145	0.813262
Cl167	Cl	0.815086	-0.494409	1.077822
Cl168	Cl	1.315086	0.005591	1.577822
Cl169	Cl	0.479549	-0.541314	0.290493
Cl170	Cl	0.979549	-0.041314	0.790493
Cl171	Cl	0.995998	-1.096970	0.392451
Cl172	Cl	1.495998	-0.596970	0.892451
H173	H	0.914584	-0.251230	0.742835
H174	H	1.414584	0.248770	1.242835
H175	H	0.832836	-0.472196	0.659704
H176	H	1.332836	0.027804	1.159704
Cl177	Cl	0.996063	-0.266240	0.930197
Cl178	Cl	1.496063	0.233760	1.430197
Cl179	Cl	0.815189	-1.097302	0.211412
Cl180	Cl	1.315189	-0.597302	0.711412
H181	H	1.018223	-0.805050	0.414756
H182	H	1.518223	-0.305050	0.914756
Cl183	Cl	0.775098	-0.973555	0.171291
Cl184	Cl	1.275098	-0.473555	0.671291
Cl185	Cl	0.331861	-0.541279	0.290518
Cl186	Cl	0.831861	-0.041279	0.790518
H187	H	0.548368	-0.289019	0.374699
H188	H	1.048368	0.210981	0.874699
Cl189	Cl	0.996071	-0.266184	1.077888
Cl190	Cl	1.496071	0.233816	1.577888
H191	H	0.792791	-0.805479	0.189010
H192	H	1.292791	-0.305479	0.689010
Cl193	Cl	0.815068	-0.663330	0.211337
Cl194	Cl	1.315068	-0.163330	0.711337
Cl195	Cl	0.996042	-0.266337	0.674253
Cl196	Cl	1.496042	0.233663	1.174253
Cl197	Cl	0.277718	-0.494455	0.211277
Cl198	Cl	0.777718	0.005545	0.711277
H199	H	0.832844	-0.472081	0.944630
H200	H	1.332844	0.027919	1.444630
Cl201	Cl	0.332072	-0.219817	0.313267
Cl202	Cl	0.832072	0.280183	0.813267
Cl203	Cl	0.916784	-0.219629	0.876035
Cl204	Cl	1.416784	0.280371	1.376035
H205	H	0.263439	-0.288952	0.374723
H206	H	0.763439	0.211048	0.874723
Cl207	Cl	0.533665	-0.494520	0.211263
Cl208	Cl	1.033665	0.005480	0.711263
Cl209	Cl	0.815070	-0.494646	0.526491
Cl210	Cl	1.315070	0.005354	1.026491
Cl211	Cl	0.681359	-0.494549	0.211244
Cl212	Cl	1.181359	0.005451	0.711244
H213	H	0.978142	-0.681310	0.374630
H214	H	1.478142	-0.181310	0.874630
