data_functionalizedCrystal
_audit_creation_method	'MofGen! by Chris Wilmer'
_symmetry_space_group_name_H-M	'P1'
_symmetry_Int_Tables_number	1
_symmetry_cell_setting	triclinic
loop_
_symmetry_equiv_pos_as_xyz
  x,y,z
_cell_length_a	10.685880
_cell_length_b	19.077105
_cell_length_c	19.077068
_cell_angle_alpha	89.884684
_cell_angle_beta	96.799122
_cell_angle_gamma	96.507081
loop_
_atom_site_label
_atom_site_type_symbol
_atom_site_fract_x
_atom_site_fract_y
_atom_site_fract_z
Zn1	Zn	-0.818184	-1.096551	-0.359252
Zn2	Zn	-0.614027	-1.083364	-0.467710
Zn3	Zn	-0.597050	-0.969973	-0.344743
Zn4	Zn	-0.817421	-0.974255	-0.471960
O5	O	-0.711671	-1.031036	-0.410917
O6	O	-0.798526	-1.193438	-0.377933
O7	O	-0.434109	-1.061011	-0.443548
O8	O	-0.619599	-0.990490	-0.248037
O9	O	-0.648533	-1.183749	-0.457617
O10	O	-0.782064	-1.083487	-0.258697
O11	O	-0.421636	-0.977703	-0.353205
O12	O	-0.618859	-0.871905	-0.357325
O13	O	-0.995188	-0.997789	-0.464860
O14	O	-0.780764	-0.875051	-0.450791
O15	O	-0.995749	-1.087639	-0.382054
O16	O	-0.647793	-1.065163	-0.566905
O17	O	-0.797226	-0.985001	-0.570027
C18	C	-0.697888	-0.847903	-0.402945
C19	C	-0.692022	-0.769558	-0.399554
C20	C	-0.724298	-1.024136	-0.594042
C21	C	-0.729748	-1.021251	-0.672388
C22	C	-1.042823	-1.044663	-0.425549
C23	C	-1.183941	-1.050470	-0.431785
C24	C	-0.381806	-1.017504	-0.396292
C25	C	-0.240685	-1.011841	-0.389864
C26	C	-0.725508	-1.214884	-0.418919
C27	C	-0.731405	-1.293229	-0.422330
C28	C	-0.773439	-0.734400	-0.446685
C29	C	-0.767934	-0.660788	-0.443489
C30	C	-0.681004	-0.622334	-0.393165
C31	C	-0.599584	-0.657497	-0.346028
C32	C	-0.605096	-0.731109	-0.349222
C33	C	-0.655497	-0.402003	-0.378386
C34	C	-0.649988	-0.328386	-0.375198
C35	C	-0.818341	-0.331682	-0.472659
C36	C	-0.823840	-0.405295	-0.475850
C37	C	-0.742424	-0.440452	-0.428711
N38	N	-0.675372	-0.547090	-0.389898
N39	N	-0.748064	-0.515694	-0.431975
C40	C	-0.654576	-1.061669	-0.707551
C41	C	-0.659710	-1.058960	-0.781167
C42	C	-0.740009	-1.015828	-0.819617
C43	C	-0.815188	-0.975408	-0.784450
C44	C	-0.810061	-0.978122	-0.710836
C45	C	-0.763685	-1.003236	-1.039956
C46	C	-0.768804	-1.000524	-1.113574
C47	C	-0.613327	-1.084077	-1.110286
C48	C	-0.608201	-1.086783	-1.036671
C49	C	-0.683386	-1.046367	-1.001510
N50	N	-0.745255	-1.013056	-0.894864
N51	N	-0.678145	-1.049143	-0.926265
C52	C	-0.699023	-1.037982	-0.227078
C53	C	-0.693633	-1.040942	-0.148737
H54	H	-1.181307	-0.974320	-0.349205
F55	F	-0.843703	-0.960220	-1.002544
H56	H	-0.880575	-0.940293	-0.815763
H57	H	-0.884627	-0.303050	-0.511035
F58	F	-1.261556	-1.099509	-0.484940
H59	H	-0.894625	-0.436599	-0.516831
F60	F	-0.890072	-0.935105	-0.673414
H61	H	-0.844223	-0.765704	-0.487667
H62	H	-0.834231	-0.632166	-0.481869
F63	F	-0.557454	-0.287462	-0.321637
H64	H	-0.589193	-0.430618	-0.340008
H65	H	-0.528809	-0.626183	-0.305050
F66	F	-0.518443	-0.768526	-0.299057
F67	F	-0.569102	-1.107572	-0.666635
F68	F	-0.579705	-1.101981	-0.818587
F69	F	-0.522750	-1.132698	-0.995755
F70	F	-0.854260	-0.954607	-1.154494
H71	H	-0.552118	-1.116983	-1.138923
