data_functionalizedCrystal
_audit_creation_method	'MofGen! by Chris Wilmer'
_symmetry_space_group_name_H-M	'P1'
_symmetry_Int_Tables_number	1
_symmetry_cell_setting	triclinic
loop_
_symmetry_equiv_pos_as_xyz
  x,y,z
_cell_length_a	18.101398
_cell_length_b	21.295417
_cell_length_c	18.101398
_cell_angle_alpha	90.004117
_cell_angle_beta	89.998121
_cell_angle_gamma	90.026064
loop_
_atom_site_label
_atom_site_type_symbol
_atom_site_fract_x
_atom_site_fract_y
_atom_site_fract_z
Zn1	Zn	1.132039	-0.250864	0.418529
Zn2	Zn	1.131961	-0.356084	0.294679
Zn3	Zn	1.008223	-0.250825	0.294722
Zn4	Zn	1.008150	-0.356092	0.418499
O5	O	1.070093	-0.303466	0.356607
O6	O	1.235662	-0.264836	0.402095
O7	O	1.115545	-0.342101	0.191051
O8	O	1.024711	-0.162740	0.311176
O9	O	1.235604	-0.342140	0.311102
O10	O	1.115678	-0.162770	0.402136
O11	O	1.024635	-0.264768	0.191083
O12	O	0.904581	-0.264775	0.311146
O13	O	1.024586	-0.342153	0.522135
O14	O	0.904527	-0.342114	0.402085
O15	O	1.115607	-0.264843	0.522158
O16	O	1.115474	-0.444174	0.311073
O17	O	1.024511	-0.444180	0.402043
C18	C	0.877683	-0.303441	0.356617
C19	C	0.795369	-0.303446	0.356639
C20	C	1.069996	-0.467018	0.356566
C21	C	1.070022	-0.536986	0.356573
C22	C	0.496278	-0.303483	0.356608
C23	C	0.527594	-0.352378	0.413542
C24	C	0.613212	-0.352225	0.413776
C25	C	0.644660	-0.303465	0.356624
C26	C	0.613601	-0.237171	0.377957
C27	C	0.527956	-0.237465	0.378362
C28	C	0.527841	-0.320298	0.278204
C29	C	0.613491	-0.321753	0.278623
C30	C	0.728520	-0.303451	0.356631
C31	C	0.412418	-0.303493	0.356603
C32	C	1.117429	-0.569829	0.309254
C33	C	1.117464	-0.635571	0.309270
C34	C	1.070079	-0.668468	0.356599
C35	C	1.022669	-0.635618	0.403927
C36	C	1.022640	-0.569876	0.403915
N37	N	1.005293	-0.771732	0.362248
N38	N	1.005322	-0.834184	0.362256
C39	C	1.070162	-0.866543	0.356641
N40	N	1.134973	-0.834092	0.351004
N41	N	1.134943	-0.771635	0.350992
C42	C	1.070104	-0.739754	0.356618
C43	C	1.117610	-0.970672	0.309337
C44	C	1.117646	-1.036415	0.309359
C45	C	1.022844	-1.036460	0.404012
C46	C	1.022815	-0.970718	0.403994
C47	C	1.070197	-0.937827	0.356653
C48	C	1.263255	-0.303491	0.356597
C49	C	1.345569	-0.303502	0.356593
C50	C	1.070097	-0.303503	0.549769
C51	C	1.070098	-0.303519	0.632083
C52	C	1.070211	-0.139276	0.356664
C53	C	1.070261	-0.069308	0.356689
C54	C	1.070081	-0.303483	0.931174
C55	C	1.012622	-0.351961	0.899835
C56	C	1.012795	-0.352162	0.814216
C57	C	1.070089	-0.303501	0.782791
C58	C	1.148108	-0.321521	0.813876
C59	C	1.147771	-0.321863	0.899521
C60	C	1.050205	-0.236868	0.899609
C61	C	1.048486	-0.237229	0.813958
C62	C	1.070098	-0.303510	0.698932
C63	C	1.070077	-0.303475	1.015033
C64	C	1.070081	-0.303453	1.164196
C65	C	1.070071	-0.303465	1.081882
H66	H	0.506982	-0.401700	0.400320
H67	H	1.192078	-0.287310	0.793521
H68	H	0.954585	-0.340810	0.920436
C69	C	0.970924	-0.218866	0.786519
H70	H	0.958169	-0.178737	0.805563
H71	H	0.970755	-0.217457	0.734067
H72	H	0.935990	-0.249076	0.803011
C73	C	0.498645	-0.384478	0.252005
H74	H	0.518354	-0.393729	0.204595
H75	H	0.513306	-0.416078	0.286009
H76	H	0.446258	-0.383218	0.249240
C77	C	1.171278	-0.386592	0.784908
H78	H	1.133515	-0.402864	0.753879
H79	H	1.215848	-0.382844	0.757553
H80	H	1.178748	-0.414218	0.825428
H81	H	0.633703	-0.341102	0.471868
C82	C	1.169796	-1.072543	0.257304
H83	H	1.198003	-1.043536	0.229105
H84	H	1.202056	-1.098159	0.285659
H85	H	1.141495	-1.098215	0.225022
C86	C	1.030568	-0.418841	0.786527
H87	H	1.030727	-0.419193	0.734045
H88	H	1.077760	-0.431186	0.804280
H89	H	0.994168	-0.447280	0.804166
C90	C	0.640933	-0.387648	0.256878
H91	H	0.671260	-0.403952	0.295169
H92	H	0.599774	-0.414636	0.249589
H93	H	0.668716	-0.385004	0.212460
C94	C	1.169531	-0.533650	0.257166
H95	H	1.162716	-0.489792	0.263924
H96	H	1.219292	-0.544379	0.268022
H97	H	1.158709	-0.544451	0.207407
H98	H	0.984265	-1.063244	0.442551
H99	H	0.984088	-0.662407	0.442464
H100	H	1.164622	-0.370558	0.919496
H101	H	1.192033	-0.288086	0.920253
C102	C	0.970657	-0.934589	0.456037
H103	H	0.942435	-0.963595	0.484223
H104	H	0.998946	-0.908915	0.488321
H105	H	0.938399	-0.908974	0.427670
C106	C	0.500969	-0.218202	0.455792
H107	H	0.542349	-0.210274	0.486706
H108	H	0.471753	-0.181290	0.452121
H109	H	0.472169	-0.251169	0.476327
C110	C	0.641104	-0.186622	0.323683
H111	H	0.621663	-0.146913	0.337597
H112	H	0.693538	-0.185050	0.324819
H113	H	0.625060	-0.196715	0.275142
H114	H	0.507241	-0.199731	0.338796
C115	C	1.169608	-0.671706	0.257211
H116	H	1.197818	-0.642702	0.229011
H117	H	1.201865	-0.697327	0.285563
H118	H	1.141302	-0.697374	0.224929
H119	H	0.635054	-0.222647	0.434651
H120	H	0.994293	-0.220464	0.921210
C121	C	1.100911	-0.185826	0.785070
H122	H	1.136823	-0.204192	0.753487
H123	H	1.073342	-0.155446	0.758322
H124	H	1.124926	-0.166136	0.825587
H125	H	0.984035	-0.543135	0.442449
H126	H	0.506072	-0.341397	0.471298
H127	H	1.092056	-0.200748	0.919877
H128	H	0.954940	-0.340885	0.793199
C129	C	1.030162	-0.418256	0.928909
H130	H	1.072352	-0.416520	0.960060
H131	H	0.989147	-0.433696	0.956158
H132	H	1.039821	-0.445451	0.888443
C133	C	0.642403	-0.277131	0.218237
H134	H	0.673998	-0.246625	0.239903
H135	H	0.669145	-0.300528	0.182451
H136	H	0.601897	-0.256697	0.195113
C137	C	0.500485	-0.272192	0.220892
H138	H	0.519744	-0.282596	0.173629
H139	H	0.448041	-0.272897	0.219162
H140	H	0.516804	-0.231401	0.234529
C141	C	0.641583	-0.418638	0.395721
H142	H	0.600766	-0.445955	0.388181
H143	H	0.670843	-0.417245	0.352186
H144	H	0.670634	-0.433693	0.435673
C145	C	1.169735	-0.934489	0.257273
H146	H	1.197983	-0.963468	0.229101
H147	H	1.141422	-0.908871	0.224977
H148	H	1.201969	-0.908815	0.285627
