data_functionalizedCrystal
_audit_creation_method	'MofGen! by Chris Wilmer'
_symmetry_space_group_name_H-M	'P1'
_symmetry_Int_Tables_number	1
_symmetry_cell_setting	triclinic
loop_
_symmetry_equiv_pos_as_xyz
  x,y,z
_cell_length_a	23.532355
_cell_length_b	23.532407
_cell_length_c	22.610064
_cell_angle_alpha	89.999397
_cell_angle_beta	89.997644
_cell_angle_gamma	82.838088
loop_
_atom_site_label
_atom_site_type_symbol
_atom_site_fract_x
_atom_site_fract_y
_atom_site_fract_z
O1	O	0.755283	0.068986	-0.049110
O2	O	1.005283	0.318986	0.200890
O3	O	1.255283	0.568986	0.450890
O4	O	1.505283	0.818986	0.700890
O5	O	0.589415	0.079020	-0.049130
O6	O	0.839415	0.329020	0.200870
O7	O	1.089415	0.579020	0.450870
O8	O	1.339415	0.829020	0.700870
O9	O	0.677351	-0.008929	-0.049108
O10	O	0.927351	0.241071	0.200892
O11	O	1.177351	0.491071	0.450892
O12	O	1.427351	0.741071	0.700892
O13	O	0.667347	0.156936	-0.049131
O14	O	0.917347	0.406936	0.200869
O15	O	1.167347	0.656936	0.450869
O16	O	1.417347	0.906936	0.700869
O17	O	0.677335	-0.008916	0.049261
O18	O	0.927335	0.241084	0.299261
O19	O	1.177335	0.491084	0.549261
O20	O	1.427335	0.741084	0.799261
O21	O	0.589400	0.079033	0.049239
O22	O	0.839400	0.329033	0.299239
O23	O	1.089400	0.579033	0.549239
O24	O	1.339400	0.829033	0.799239
O25	O	0.755267	0.068999	0.049259
O26	O	1.005267	0.318999	0.299259
O27	O	1.255267	0.568999	0.549259
O28	O	1.505267	0.818999	0.799259
Zn29	Zn	0.672331	0.074018	0.064868
Zn30	Zn	0.922331	0.324018	0.314868
Zn31	Zn	1.172331	0.574018	0.564868
Zn32	Zn	1.422331	0.824018	0.814868
Zn33	Zn	0.672351	0.074001	-0.064738
Zn34	Zn	0.922351	0.324001	0.185262
Zn35	Zn	1.172351	0.574001	0.435262
Zn36	Zn	1.422351	0.824001	0.685262
O37	O	0.667332	0.156949	0.049238
O38	O	0.917332	0.406949	0.299238
O39	O	1.167332	0.656949	0.549238
O40	O	1.417332	0.906949	0.799238
C41	C	0.568191	0.078776	0.000052
C42	C	0.818191	0.328776	0.250052
C43	C	1.068191	0.578776	0.500052
C44	C	1.318191	0.828776	0.750052
C45	C	0.504972	0.078022	0.000045
C46	C	0.754972	0.328022	0.250045
C47	C	1.004972	0.578022	0.500045
C48	C	1.254972	0.828022	0.750045
C49	C	0.112950	0.073291	0.053692
C50	C	0.362950	0.323291	0.303692
C51	C	0.612950	0.573291	0.553692
C52	C	0.862950	0.823291	0.803692
C53	C	0.053550	0.072573	0.053694
C54	C	0.303550	0.322573	0.303694
C55	C	0.553550	0.572573	0.553694
C56	C	0.803550	0.822573	0.803694
O57	O	0.022825	0.072189	0.099296
O58	O	0.272825	0.322189	0.349296
O59	O	0.522825	0.572189	0.599296
O60	O	0.772825	0.822189	0.849296
N61	N	0.023850	0.072211	0.000074
N62	N	0.273850	0.322211	0.250074
N63	N	0.523850	0.572211	0.500074
N64	N	0.773850	0.822211	0.750074
C65	C	0.053554	0.072560	-0.053553
C66	C	0.303554	0.322560	0.196447
C67	C	0.553554	0.572560	0.446447
C68	C	0.803554	0.822560	0.696447
O69	O	0.022837	0.072185	-0.099162
O70	O	0.272837	0.322185	0.150838
O71	O	0.522837	0.572185	0.400838
O72	O	0.772837	0.822185	0.650838
C73	C	0.112953	0.073273	-0.053555
C74	C	0.362953	0.323273	0.196445
C75	C	0.612953	0.573273	0.446445
C76	C	0.862953	0.823273	0.696445
C77	C	0.142649	0.073641	0.000069
C78	C	0.392649	0.323641	0.250069
C79	C	0.642649	0.573641	0.500069
C80	C	0.892649	0.823641	0.750069
C81	C	0.142646	0.073659	0.107312
C82	C	0.392646	0.323659	0.357312
C83	C	0.642646	0.573659	0.607312
C84	C	0.892646	0.823659	0.857312
C85	C	0.202041	0.074377	0.107309
C86	C	0.452041	0.324377	0.357309
C87	C	0.702041	0.574377	0.607309
C88	C	0.952041	0.824377	0.857309
C89	C	0.231740	0.074728	0.053687
C90	C	0.481740	0.324728	0.303687
C91	C	0.731740	0.574728	0.553687
C92	C	0.981740	0.824728	0.803687
C93	C	0.202044	0.074360	0.000067
C94	C	0.452044	0.324360	0.250067
C95	C	0.702044	0.574360	0.500067
C96	C	0.952044	0.824360	0.750067
C97	C	0.142655	0.073618	-0.107181
C98	C	0.392655	0.323618	0.142819
C99	C	0.642655	0.573618	0.392819
C100	C	0.892655	0.823618	0.642819
C101	C	0.202058	0.074331	-0.107178
C102	C	0.452058	0.324331	0.142822
C103	C	0.702058	0.574331	0.392822
C104	C	0.952058	0.824331	0.642822
C105	C	0.231754	0.074699	-0.053554
C106	C	0.481754	0.324699	0.196446
C107	C	0.731754	0.574699	0.446446
C108	C	0.981754	0.824699	0.696446
C109	C	0.291138	0.075429	-0.053558
C110	C	0.541138	0.325429	0.196442
C111	C	0.791138	0.575429	0.446442
C112	C	1.041138	0.825429	0.696442
N113	N	0.320838	0.075792	0.000062
N114	N	0.570838	0.325792	0.250062
N115	N	0.820838	0.575792	0.500062
N116	N	1.070838	0.825792	0.750062
C117	C	0.291139	0.075441	0.053685
C118	C	0.541139	0.325441	0.303685
C119	C	0.791139	0.575441	0.553685
C120	C	1.041139	0.825441	0.803685
C121	C	-0.071188	0.071061	-0.053545
C122	C	0.178812	0.321061	0.196455
C123	C	0.428812	0.571061	0.446455
C124	C	0.678812	0.821061	0.696455
C125	C	-0.130586	0.070351	-0.053544
C126	C	0.119414	0.320351	0.196456
C127	C	0.369414	0.570351	0.446456
C128	C	0.619414	0.820351	0.696456
C129	C	-0.130585	0.070364	0.053703
C130	C	0.119415	0.320364	0.303703
C131	C	0.369415	0.570364	0.553703
C132	C	0.619415	0.820364	0.803703
C133	C	-0.071186	0.071077	0.053702
C134	C	0.178814	0.321077	0.303702
C135	C	0.428814	0.571077	0.553702
C136	C	0.678814	0.821077	0.803702
C137	C	-0.041488	0.071423	0.000075
C138	C	0.208512	0.321423	0.250075
C139	C	0.458512	0.571423	0.500075
C140	C	0.708512	0.821423	0.750075
C141	C	0.415873	0.076951	0.053675
C142	C	0.665873	0.326951	0.303675
C143	C	0.915873	0.576951	0.553675
C144	C	1.165873	0.826951	0.803675
C145	C	0.475273	0.077671	0.053668
C146	C	0.725273	0.327671	0.303668
C147	C	0.975273	0.577671	0.553668
C148	C	1.225273	0.827671	0.803668
C149	C	0.475267	0.077656	-0.053579
C150	C	0.725267	0.327656	0.196421
C151	C	0.975267	0.577656	0.446421
C152	C	1.225267	0.827656	0.696421
C153	C	0.415872	0.076938	-0.053572
C154	C	0.665872	0.326938	0.196428
C155	C	0.915872	0.576938	0.446428
C156	C	1.165872	0.826938	0.696428
C157	C	0.386177	0.076583	0.000060
C158	C	0.636177	0.326583	0.250060
C159	C	0.886177	0.576583	0.500060
C160	C	1.136177	0.826583	0.750060
O161	O	0.321902	0.075812	-0.099137
O162	O	0.571902	0.325812	0.150863
O163	O	0.821902	0.575812	0.400863
O164	O	1.071902	0.825812	0.650863
O165	O	0.321864	0.075809	0.099286
O166	O	0.571864	0.325809	0.349286
O167	O	0.821864	0.575809	0.599286
O168	O	1.071864	0.825809	0.849286
C169	C	0.677088	-0.030139	0.000078
C170	C	0.927088	0.219861	0.250078
C171	C	1.177088	0.469861	0.500078
C172	C	1.427088	0.719861	0.750078
C173	C	0.676322	-0.093356	0.000082
C174	C	0.926322	0.156644	0.250082
C175	C	1.176322	0.406644	0.500082
C176	C	1.426322	0.656644	0.750082
C177	C	0.723557	-0.492468	0.000055
C178	C	0.973557	-0.242468	0.250055
C179	C	1.223557	0.007532	0.500055
C180	C	1.473557	0.257532	0.750055
C181	C	0.722845	-0.551868	0.000051
C182	C	0.972845	-0.301868	0.250051
C183	C	1.222845	-0.051868	0.500051
C184	C	1.472845	0.198132	0.750051
O185	O	0.766632	-0.588620	0.000034
O186	O	1.016632	-0.338620	0.250034
O187	O	1.266632	-0.088620	0.500034
O188	O	1.516632	0.161380	0.750034
N189	N	0.670568	-0.574484	0.000045
N190	N	0.920568	-0.324484	0.250045
N191	N	1.170568	-0.074484	0.500045
N192	N	1.420568	0.175516	0.750045
C193	C	0.618998	-0.537697	0.000038
C194	C	0.868998	-0.287697	0.250038
C195	C	1.118998	-0.037697	0.500038
C196	C	1.368998	0.212303	0.750038
O197	O	0.574467	-0.562388	0.000032
O198	O	0.824467	-0.312388	0.250032
O199	O	1.074467	-0.062388	0.500032
O200	O	1.324467	0.187612	0.750032
C201	C	0.619710	-0.478298	0.000038
C202	C	0.869710	-0.228298	0.250038
C203	C	1.119710	0.021702	0.500038
C204	C	1.369710	0.271702	0.750038
C205	C	0.671991	-0.455685	0.000050
C206	C	0.921991	-0.205685	0.250050
C207	C	1.171991	0.044315	0.500050
C208	C	1.421991	0.294315	0.750050
C209	C	0.775834	-0.469854	0.000066
C210	C	1.025834	-0.219854	0.250066
C211	C	1.275834	0.030146	0.500066
C212	C	1.525834	0.280146	0.750066
C213	C	0.776545	-0.410458	0.000072
C214	C	1.026545	-0.160458	0.250072
C215	C	1.276545	0.089542	0.500072
C216	C	1.526545	0.339542	0.750072
C217	C	0.724979	-0.373676	0.000067
C218	C	0.974979	-0.123676	0.250067
C219	C	1.224979	0.126324	0.500067
C220	C	1.474979	0.376324	0.750067
C221	C	0.672703	-0.396289	0.000055
C222	C	0.922703	-0.146289	0.250055
C223	C	1.172703	0.103711	0.500055
C224	C	1.422703	0.353711	0.750055
C225	C	0.568141	-0.441512	0.000027
C226	C	0.818141	-0.191512	0.250027
C227	C	1.068141	0.058488	0.500027
C228	C	1.318141	0.308488	0.750027
C229	C	0.568858	-0.382110	0.000026
C230	C	0.818858	-0.132110	0.250026
C231	C	1.068858	0.117890	0.500026
C232	C	1.318858	0.367890	0.750026
C233	C	0.621139	-0.359497	0.000038
C234	C	0.871139	-0.109497	0.250038
C235	C	1.121139	0.140503	0.500038
C236	C	1.371139	0.390503	0.750038
C237	C	0.621848	-0.300110	0.000056
C238	C	0.871848	-0.050110	0.250056
C239	C	1.121848	0.199890	0.500056
C240	C	1.371848	0.449890	0.750056
N241	N	0.674126	-0.277494	0.000061
N242	N	0.924126	-0.027494	0.250061
N243	N	1.174126	0.222506	0.500061
N244	N	1.424126	0.472506	0.750061
C245	C	0.725691	-0.314277	0.000067
C246	C	0.975691	-0.064277	0.250067
C247	C	1.225691	0.185723	0.500067
C248	C	1.475691	0.435723	0.750067
C249	C	0.617507	-0.662439	0.000036
C250	C	0.867507	-0.412439	0.250036
C251	C	1.117507	-0.162439	0.500036
C252	C	1.367507	0.087561	0.750036
C253	C	0.616794	-0.721837	0.000040
C254	C	0.866794	-0.471837	0.250040
C255	C	1.116794	-0.221837	0.500040
C256	C	1.366794	0.028163	0.750040
C257	C	0.720642	-0.736004	0.000052
C258	C	0.970642	-0.486004	0.250052
C259	C	1.220642	-0.236004	0.500052
C260	C	1.470642	0.013996	0.750052
C261	C	0.721354	-0.676605	0.000052
C262	C	0.971354	-0.426605	0.250052
C263	C	1.221354	-0.176605	0.500052
C264	C	1.471354	0.073395	0.750052
C265	C	0.669784	-0.639823	0.000042
C266	C	0.919784	-0.389823	0.250042
C267	C	1.169784	-0.139823	0.500042
C268	C	1.419784	0.110177	0.750042
C269	C	0.727181	-0.189540	0.000079
C270	C	0.977181	0.060460	0.250079
C271	C	1.227181	0.310460	0.500079
C272	C	1.477181	0.560460	0.750079
C273	C	0.727888	-0.130138	0.000087
C274	C	0.977888	0.119862	0.250087
C275	C	1.227888	0.369862	0.500087
C276	C	1.477888	0.619862	0.750087
C277	C	0.624041	-0.115977	0.000072
C278	C	0.874041	0.134023	0.250072
C279	C	1.124041	0.384023	0.500072
C280	C	1.374041	0.634023	0.750072
C281	C	0.623334	-0.175373	0.000067
C282	C	0.873334	0.074627	0.250067
C283	C	1.123334	0.324627	0.500067
C284	C	1.373334	0.574627	0.750067
C285	C	0.674909	-0.212154	0.000069
C286	C	0.924909	0.037846	0.250069
C287	C	1.174909	0.287846	0.500069
C288	C	1.424909	0.537846	0.750069
O289	O	0.578084	-0.263323	0.000070
O290	O	0.828084	-0.013323	0.250070
O291	O	1.078084	0.236677	0.500070
O292	O	1.328084	0.486677	0.750070
O293	O	0.770216	-0.289577	0.000065
O294	O	1.020216	-0.039577	0.250065
O295	O	1.270216	0.210423	0.500065
O296	O	1.520216	0.460423	0.750065
C297	C	0.776491	0.069244	0.000076
C298	C	1.026491	0.319244	0.250076
C299	C	1.276491	0.569244	0.500076
C300	C	1.526491	0.819244	0.750076
C301	C	0.839710	0.069998	0.000079
C302	C	1.089710	0.319998	0.250079
C303	C	1.339710	0.569998	0.500079
C304	C	1.589710	0.819998	0.750079
C305	C	0.667594	0.178158	0.000050
C306	C	0.917594	0.428158	0.250050
C307	C	1.167594	0.678158	0.500050
C308	C	1.417594	0.928158	0.750050
C309	C	0.668360	0.241375	0.000042
C310	C	0.918360	0.491375	0.250042
C311	C	1.168360	0.741375	0.500042
C312	C	1.418360	0.991375	0.750042
N313	N	0.672321	0.074029	0.153320
N314	N	0.922321	0.324029	0.403320
N315	N	1.172321	0.574029	0.653320
N316	N	1.422321	0.824029	0.903320
N317	N	0.672366	0.073986	-0.153191
N318	N	0.922366	0.323986	0.096809
N319	N	1.172366	0.573986	0.346809
N320	N	1.422366	0.823986	0.596809
C321	C	0.711291	0.035063	0.561971
C322	C	0.961291	0.285063	0.811971
C323	C	1.211291	0.535063	1.061971
C324	C	1.461291	0.785063	1.311971
C325	C	0.711294	0.035059	0.623891
C326	C	0.961294	0.285059	0.873891
C327	C	1.211294	0.535059	1.123891
C328	C	1.461294	0.785059	1.373891
O329	O	0.744403	0.001937	0.655917
O330	O	0.994403	0.251937	0.905917
O331	O	1.244403	0.501937	1.155917
O332	O	1.494403	0.751937	1.405917
N333	N	0.672351	0.073990	0.654857
N334	N	0.922351	0.323990	0.904857
N335	N	1.172351	0.573990	1.154857
N336	N	1.422351	0.823990	1.404857
C337	C	0.633399	0.112923	0.623900
C338	C	0.883399	0.362923	0.873900
C339	C	1.133399	0.612923	1.123900
C340	C	1.383399	0.862923	1.373900
O341	O	0.600275	0.146036	0.655926
O342	O	0.850275	0.396036	0.905926
O343	O	1.100275	0.646036	1.155926
O344	O	1.350275	0.896036	1.405926
C345	C	0.633394	0.112924	0.561982
C346	C	0.883394	0.362924	0.811982
C347	C	1.133394	0.612924	1.061982
C348	C	1.383394	0.862924	1.311982
C349	C	0.672343	0.073995	0.531018
C350	C	0.922343	0.323995	0.781018
C351	C	1.172343	0.573995	1.031018
C352	C	1.422343	0.823995	1.281018
C353	C	0.750237	-0.003863	0.531007
C354	C	1.000237	0.246137	0.781007
C355	C	1.250237	0.496137	1.031007
C356	C	1.500237	0.746137	1.281007
C357	C	0.750234	-0.003858	0.469092
C358	C	1.000234	0.246142	0.719092
C359	C	1.250234	0.496142	0.969092
C360	C	1.500234	0.746142	1.219092
C361	C	0.711286	0.035073	0.438139
C362	C	0.961286	0.285073	0.688139
C363	C	1.211286	0.535073	0.938139
C364	C	1.461286	0.785073	1.188139
C365	C	0.672340	0.074000	0.469103
C366	C	0.922340	0.324000	0.719103
C367	C	1.172340	0.574000	0.969103
C368	C	1.422340	0.824000	1.219103
C369	C	0.594439	0.151854	0.531026
C370	C	0.844439	0.401854	0.781026
C371	C	1.094439	0.651854	1.031026
C372	C	1.344439	0.901854	1.281026
C373	C	0.594437	0.151851	0.469103
C374	C	0.844437	0.401851	0.719103
C375	C	1.094437	0.651851	0.969103
C376	C	1.344437	0.901851	1.219103
C377	C	0.633386	0.112922	0.438140
C378	C	0.883386	0.362922	0.688140
C379	C	1.133386	0.612922	0.938140
C380	C	1.383386	0.862922	1.188140
C381	C	0.633390	0.112936	0.376235
C382	C	0.883390	0.362936	0.626235
C383	C	1.133390	0.612936	0.876235
C384	C	1.383390	0.862936	1.126235
N385	N	0.672333	0.074006	0.345268
N386	N	0.922333	0.324006	0.595268
N387	N	1.172333	0.574006	0.845268
N388	N	1.422333	0.824006	1.095268
C389	C	0.711281	0.035074	0.376221
C390	C	0.961281	0.285074	0.626221
C391	C	1.211281	0.535074	0.876221
C392	C	1.461281	0.785074	1.126221
C393	C	0.633412	0.112917	0.753934
C394	C	0.883412	0.362917	1.003934
C395	C	1.133412	0.612917	1.253934
C396	C	1.383412	0.862917	1.503934
C397	C	0.633419	0.112919	0.815852
C398	C	0.883419	0.362919	1.065852
C399	C	1.133419	0.612919	1.315852
C400	C	1.383419	0.862919	1.565852
C401	C	0.711314	0.035055	0.815838
C402	C	0.961314	0.285055	1.065838
C403	C	1.211314	0.535055	1.315838
C404	C	1.461314	0.785055	1.565838
C405	C	0.711309	0.035056	0.753919
C406	C	0.961309	0.285056	1.003919
C407	C	1.211309	0.535056	1.253919
C408	C	1.461309	0.785056	1.503919
C409	C	0.672355	0.073987	0.722968
C410	C	0.922355	0.323987	0.972968
C411	C	1.172355	0.573987	1.222968
C412	C	1.422355	0.823987	1.472968
C413	C	0.711273	0.035088	0.246193
C414	C	0.961273	0.285088	0.496193
C415	C	1.211273	0.535088	0.746193
C416	C	1.461273	0.785088	0.996193
C417	C	0.711269	0.035098	0.184272
C418	C	0.961269	0.285098	0.434272
C419	C	1.211269	0.535098	0.684272
C420	C	1.461269	0.785098	0.934272
C421	C	0.633373	0.112960	0.184292
C422	C	0.883373	0.362960	0.434292
C423	C	1.133373	0.612960	0.684292
C424	C	1.383373	0.862960	0.934292
C425	C	0.633379	0.112953	0.246207
C426	C	0.883379	0.362953	0.496207
C427	C	1.133379	0.612953	0.746207
C428	C	1.383379	0.862953	0.996207
C429	C	0.672331	0.074012	0.277157
C430	C	0.922331	0.324012	0.527157
C431	C	1.172331	0.574012	0.777157
C432	C	1.422331	0.824012	1.027157
O433	O	0.600296	0.146040	0.344169
O434	O	0.850296	0.396040	0.594169
O435	O	1.100296	0.646040	0.844169
O436	O	1.350296	0.896040	1.094169
O437	O	0.744395	0.001962	0.344188
O438	O	0.994395	0.251962	0.594188
O439	O	1.244395	0.501962	0.844188
O440	O	1.494395	0.751962	1.094188
H441	H	0.391691	0.076647	-0.097238
H442	H	0.641691	0.326647	0.152762
H443	H	0.891691	0.576647	0.402762
H444	H	1.141691	0.826647	0.652762
H445	H	0.742991	0.003378	0.271385
H446	H	0.992991	0.253378	0.521385
H447	H	1.242991	0.503378	0.771385
H448	H	1.492991	0.753378	1.021385
H449	H	0.580762	-0.193785	0.000074
H450	H	0.830762	0.056215	0.250074
H451	H	1.080762	0.306215	0.500074
H452	H	1.330762	0.556215	0.750074
F453	F	0.111063	0.073224	-0.164256
F454	F	0.361063	0.323224	0.085744
F455	F	0.611063	0.573224	0.335744
F456	F	0.861063	0.823224	0.585744
F457	F	0.783535	-0.106076	0.000100
F458	F	1.033535	0.143924	0.250100
F459	F	1.283535	0.393924	0.500100
F460	F	1.533535	0.643924	0.750100
F461	F	-0.162203	0.069989	0.110774
F462	F	0.087797	0.319989	0.360774
F463	F	0.337797	0.569989	0.610774
F464	F	0.587797	0.819989	0.860774
H465	H	0.781953	-0.035569	0.556203
H466	H	1.031953	0.214431	0.806203
H467	H	1.281953	0.464431	1.056203
H468	H	1.531953	0.714431	1.306203
H469	H	0.743027	0.003354	0.841050
H470	H	0.993027	0.253354	1.091050
H471	H	1.243027	0.503354	1.341050
H472	H	1.493027	0.753354	1.591050
F473	F	0.591971	0.154360	0.848799
F474	F	0.841971	0.404360	1.098799
F475	F	1.091971	0.654360	1.348799
F476	F	1.341971	0.904360	1.598799
H477	H	-0.047012	0.071378	0.097367
H478	H	0.202988	0.321378	0.347367
H479	H	0.452988	0.571378	0.597367
H480	H	0.702988	0.821378	0.847367
F481	F	0.233639	0.074767	0.164384
F482	F	0.483639	0.324767	0.414384
F483	F	0.733639	0.574767	0.664384
F484	F	0.983639	0.824767	0.914384
F485	F	0.552983	0.193287	0.563968
F486	F	0.802983	0.443287	0.813968
F487	F	1.052983	0.693287	1.063968
F488	F	1.302983	0.943287	1.313968
H489	H	0.525569	-0.459912	0.000013
H490	H	0.775569	-0.209912	0.250013
H491	H	1.025569	0.040088	0.500013
H492	H	1.275569	0.290088	0.750013
H493	H	0.562714	0.183553	0.443906
H494	H	0.812714	0.433553	0.693906
H495	H	1.062714	0.683553	0.943906
H496	H	1.312714	0.933553	1.193906
F497	F	-0.162186	0.069970	-0.110619
F498	F	0.087814	0.319970	0.139381
F499	F	0.337814	0.569970	0.389381
F500	F	0.587814	0.819970	0.639381
F501	F	0.513969	-0.342966	0.000014
F502	F	0.763969	-0.092966	0.250014
F503	F	1.013969	0.157034	0.500014
F504	F	1.263969	0.407034	0.750014
F505	F	0.233662	0.074697	-0.164256
F506	F	0.483662	0.324697	0.085744
F507	F	0.733662	0.574697	0.335744
F508	F	0.983662	0.824697	0.585744
H509	H	0.769178	-0.219481	0.000078
H510	H	1.019178	0.030519	0.250078
H511	H	1.269178	0.280519	0.500078
H512	H	1.519178	0.530519	0.750078
H513	H	0.742988	0.003397	0.159064
H514	H	0.992988	0.253397	0.409064
H515	H	1.242988	0.503397	0.659064
H516	H	1.492988	0.753397	0.909064
F517	F	0.506886	0.078027	-0.110645
F518	F	0.756886	0.328027	0.139355
F519	F	1.006886	0.578027	0.389355
F520	F	1.256886	0.828027	0.639355
F521	F	-0.039586	0.071434	-0.110626
F522	F	0.210414	0.321434	0.139374
F523	F	0.460414	0.571434	0.389374
F524	F	0.710414	0.821434	0.639374
H525	H	0.601668	0.144658	0.271418
H526	H	0.851668	0.394658	0.521418
H527	H	1.101668	0.644658	0.771418
H528	H	1.351668	0.894658	1.021418
F529	F	0.832190	-0.386400	0.000072
F530	F	1.082190	-0.136400	0.250072
F531	F	1.332190	0.113600	0.500072
F532	F	1.582190	0.363600	0.750072
H533	H	0.499449	0.077973	0.097337
H534	H	0.749449	0.327973	0.347337
H535	H	0.999449	0.577973	0.597337
H536	H	1.249449	0.827973	0.847337
H537	H	0.574222	-0.740243	0.000040
H538	H	0.824222	-0.490243	0.250040
H539	H	1.074222	-0.240243	0.500040
H540	H	1.324222	0.009757	0.750040
H541	H	0.601663	0.144660	0.159081
H542	H	0.851663	0.394660	0.409081
H543	H	1.101663	0.644660	0.659081
H544	H	1.351663	0.894660	0.909081
H545	H	0.118472	0.073372	0.150980
H546	H	0.368472	0.323372	0.400980
H547	H	0.618472	0.573372	0.650980
H548	H	0.868472	0.823372	0.900980
H549	H	0.391701	0.076667	0.097348
H550	H	0.641701	0.326667	0.347348
H551	H	0.891701	0.576667	0.597348
H552	H	1.141701	0.826667	0.847348
H553	H	0.817827	-0.499797	0.000069
H554	H	1.067827	-0.249797	0.250069
H555	H	1.317827	0.000203	0.500069
H556	H	1.567827	0.250203	0.750069
H557	H	0.781948	-0.035559	0.443885
H558	H	1.031948	0.214441	0.693885
H559	H	1.281948	0.464441	0.943885
H560	H	1.531948	0.714441	1.193885
H561	H	0.763925	-0.658198	0.000061
H562	H	1.013925	-0.408198	0.250061
H563	H	1.263925	-0.158198	0.500061
H564	H	1.513925	0.091802	0.750061
F565	F	0.775523	-0.775161	0.000054
F566	F	1.025523	-0.525161	0.250054
F567	F	1.275523	-0.275161	0.500054
F568	F	1.525523	-0.025161	0.750054
F569	F	0.562616	-0.623297	0.000030
F570	F	0.812616	-0.373297	0.250030
F571	F	1.062616	-0.123297	0.500030
F572	F	1.312616	0.126703	0.750030
F573	F	0.752763	-0.006378	0.720971
F574	F	1.002763	0.243622	0.970971
F575	F	1.252763	0.493622	1.220971
F576	F	1.502763	0.743622	1.470971
H577	H	0.582057	-0.086018	0.000070
H578	H	0.832057	0.163982	0.250070
H579	H	1.082057	0.413982	0.500070
H580	H	1.332057	0.663982	0.750070
H581	H	0.601692	0.144624	0.728736
H582	H	0.851692	0.394624	0.978736
H583	H	1.101692	0.644624	1.228736
H584	H	1.351692	0.894624	1.478736
