data_functionalizedCrystal
_audit_creation_method	'MofGen! by Chris Wilmer'
_symmetry_space_group_name_H-M	'P1'
_symmetry_Int_Tables_number	1
_symmetry_cell_setting	triclinic
loop_
_symmetry_equiv_pos_as_xyz
  x,y,z
_cell_length_a	11.026607
_cell_length_b	15.021413
_cell_length_c	11.026607
_cell_angle_alpha	89.998856
_cell_angle_beta	108.586017
_cell_angle_gamma	89.993779
loop_
_atom_site_label
_atom_site_type_symbol
_atom_site_fract_x
_atom_site_fract_y
_atom_site_fract_z
O1	O	1.726712	0.074030	0.533610
O2	O	1.360132	0.074031	0.472847
O3	O	1.513040	0.074027	0.319938
O4	O	1.573803	0.074034	0.686518
O5	O	1.513065	-0.074037	0.319956
O6	O	1.360157	-0.074033	0.472864
O7	O	1.726737	-0.074034	0.533627
Zn8	Zn	1.543451	-0.097542	0.503248
Zn9	Zn	1.543418	0.097539	0.503226
O10	O	1.573829	-0.074031	0.686535
C11	C	1.312485	-0.000001	0.461645
C12	C	1.170471	-0.000000	0.428228
N13	N	1.543483	-0.230680	0.503265
C14	C	1.116821	0.000002	0.520498
C15	C	0.970043	0.000003	0.485962
C16	C	1.614201	-0.470341	0.432543
C17	C	1.493648	-0.529670	0.382641
C18	C	1.543450	-0.412287	0.503242
C19	C	1.663959	-0.529699	0.553064
C20	C	1.543428	-0.587711	0.503220
C21	C	1.422826	-0.470309	0.453270
C22	C	1.593224	-0.470333	0.623760
C23	C	1.472598	-0.529636	0.573888
C24	C	1.543464	-0.311229	0.503252
C25	C	1.543401	-0.688766	0.503208
C26	C	1.774384	-0.000000	0.544828
C27	C	1.916398	0.000005	0.578245
C28	C	1.501843	-0.000004	0.272287
C29	C	1.468426	-0.000000	0.130273
N30	N	1.543393	0.230677	0.503201
C31	C	1.560695	0.000001	0.076624
C32	C	1.526160	0.000004	-0.070155
C33	C	1.585026	0.000002	0.734187
C34	C	1.618443	0.000005	0.876200
H35	H	0.907314	0.000024	0.381393
H36	H	1.320857	-0.444331	0.411009
N37	N	0.999472	-0.000002	0.716763
H38	H	1.092550	-0.000003	0.721804
H39	H	0.980650	0.054888	0.760561
N40	N	1.387647	0.000001	-0.153245
H41	H	1.343776	-0.054889	-0.134536
H42	H	1.343854	0.054923	-0.134508
N43	N	1.087390	-0.000013	0.289718
H44	H	0.994312	-0.000015	0.284681
H45	H	1.106190	0.054874	0.245904
H46	H	1.673944	-0.444305	0.372696
N47	N	1.699204	-0.000012	0.159709
H48	H	1.743088	0.054874	0.141008
H49	H	1.704127	-0.000049	0.252752
H50	H	1.723013	0.000071	-0.061072
N51	N	1.437856	-0.564202	0.247629
H52	H	1.491367	-0.542640	0.194297
H53	H	1.437491	-0.631429	0.248815
N54	N	1.393235	-0.563911	0.653060
H55	H	1.302248	-0.542189	0.615269
H56	H	1.394365	-0.631141	0.653204
N57	N	1.649040	-0.435774	0.758746
H58	H	1.740130	-0.457338	0.796324
H59	H	1.647758	-0.368547	0.757703
H60	H	1.363863	0.000006	0.067540
N61	N	1.199903	-0.000002	0.659008
H62	H	1.292980	-0.000003	0.664046
H63	H	1.181080	0.054889	0.702803
N64	N	1.798960	-0.564263	0.608897
H65	H	1.852326	-0.542694	0.555424
H66	H	1.837015	-0.541746	0.699428
