data_functionalizedCrystal
_audit_creation_method	'MofGen! by Chris Wilmer'
_symmetry_space_group_name_H-M	'P1'
_symmetry_Int_Tables_number	1
_symmetry_cell_setting	triclinic
loop_
_symmetry_equiv_pos_as_xyz
  x,y,z
_cell_length_a	15.624803
_cell_length_b	14.044190
_cell_length_c	14.750779
_cell_angle_alpha	76.178157
_cell_angle_beta	85.131014
_cell_angle_gamma	88.485257
loop_
_atom_site_label
_atom_site_type_symbol
_atom_site_fract_x
_atom_site_fract_y
_atom_site_fract_z
O1	O	1.102197	0.242994	-0.463618
O2	O	0.859829	0.236039	-0.379230
O3	O	0.977376	0.101196	-0.420139
O4	O	0.984650	0.377837	-0.422709
O5	O	1.010605	0.063082	-0.272053
O6	O	0.893058	0.197925	-0.231144
O7	O	1.135426	0.204880	-0.315532
Zn8	Zn	1.019518	0.195351	-0.249827
Zn9	Zn	0.975737	0.245568	-0.444936
O10	O	1.017879	0.339723	-0.274624
C11	C	0.845238	0.213520	-0.294322
C12	C	0.752255	0.203194	-0.261946
C13	C	0.355950	0.273081	-0.559162
C14	C	0.268580	0.263358	-0.528739
C15	C	0.304784	0.221805	-0.367295
C16	C	0.392159	0.231520	-0.397704
C17	C	0.417735	0.257159	-0.493639
C18	C	0.453944	0.215598	-0.332181
C19	C	0.541311	0.225317	-0.362589
C20	C	0.566894	0.250958	-0.458520
C21	C	0.505102	0.266878	-0.524047
C22	C	0.428367	0.189966	-0.236247
C23	C	0.490151	0.174044	-0.170724
C24	C	0.577521	0.183756	-0.201131
C25	C	0.603103	0.209397	-0.297062
C26	C	0.639313	0.167836	-0.135604
C27	C	0.726680	0.177555	-0.166011
C28	C	0.690471	0.219116	-0.327469
C29	C	0.990805	0.046535	-0.344984
C30	C	0.981305	-0.059558	-0.341668
C31	C	1.031318	-0.305286	-0.359119
C32	C	0.963939	-0.253787	-0.335653
C33	C	0.973604	-0.145708	-0.339000
C34	C	1.021654	-0.413375	-0.355772
C35	C	1.150017	0.227400	-0.400443
C36	C	1.242998	0.237728	-0.432824
C37	C	1.004449	0.394386	-0.349780
C38	C	1.013949	0.500479	-0.353102
N39	N	1.049404	0.161080	-0.116672
N40	N	0.945857	0.279833	-0.578093
C41	C	0.862388	0.375506	0.300232
C42	C	0.883336	0.351498	0.393440
C43	C	0.987451	0.232144	0.357169
C44	C	0.966508	0.256140	0.263956
C45	C	0.903977	0.327822	0.235496
C46	C	1.008098	0.208455	0.199220
C47	C	0.987159	0.232452	0.106015
C48	C	0.924632	0.304134	0.077545
C49	C	0.883039	0.351819	0.142290
C50	C	1.070633	0.136778	0.227681
C51	C	1.112222	0.089094	0.162945
C52	C	1.091280	0.113086	0.069739
C53	C	1.028753	0.184767	0.041270
C54	C	1.132873	0.065400	0.004994
C55	C	1.111935	0.089397	-0.088211
C56	C	1.007815	0.208764	-0.051936
H57	H	0.357225	0.182059	-0.211492
F58	F	1.199430	-0.010878	0.035293
H59	H	1.096256	-0.268209	-0.381719
F60	F	1.156202	0.038647	-0.157110
F61	F	0.795825	0.451791	0.269943
F62	F	0.839066	0.402261	0.462334
H63	H	0.956889	0.267128	-0.075106
H64	H	1.038368	0.173782	0.380352
F65	F	0.532326	0.294154	-0.626153
F66	F	0.717695	0.246392	-0.429575
F67	F	0.383174	0.300357	-0.661268
H68	H	0.618475	0.146970	-0.057493
F69	F	0.879055	-0.302251	-0.306100
F70	F	0.902352	0.329677	-0.021655
F71	F	0.816476	0.428103	0.112002
F72	F	0.462922	0.146762	-0.068626
H73	H	1.163139	0.030732	0.186128
F74	F	0.659879	0.261305	-0.490883
F75	F	1.092918	0.111246	0.326880
H76	H	0.283948	0.200933	-0.289184
F77	F	0.792439	0.160611	-0.096275
F78	F	0.202824	0.280310	-0.598486
