data_functionalizedCrystal
_audit_creation_method	'MofGen! by Chris Wilmer'
_symmetry_space_group_name_H-M	'P1'
_symmetry_Int_Tables_number	1
_symmetry_cell_setting	triclinic
loop_
_symmetry_equiv_pos_as_xyz
  x,y,z
_cell_length_a	18.101398
_cell_length_b	14.908520
_cell_length_c	14.908308
_cell_angle_alpha	83.639235
_cell_angle_beta	93.272964
_cell_angle_gamma	86.683700
loop_
_atom_site_label
_atom_site_type_symbol
_atom_site_fract_x
_atom_site_fract_y
_atom_site_fract_z
Zn1	Zn	1.088449	0.389993	-0.532704
Zn2	Zn	1.088365	0.532638	-0.390074
Zn3	Zn	0.972193	0.381283	-0.381347
Zn4	Zn	0.957000	0.541297	-0.541367
O5	O	1.026502	0.461303	-0.461373
O6	O	1.192069	0.408937	-0.513810
O7	O	1.079278	0.505292	-0.262257
O8	O	0.994008	0.255774	-0.394147
O9	O	1.192007	0.513738	-0.409021
O10	O	1.079421	0.262174	-0.505348
O11	O	0.993927	0.394092	-0.255845
O12	O	0.866547	0.402487	-0.402547
O13	O	0.968114	0.528495	-0.666877
O14	O	0.855385	0.520049	-0.520113
O15	O	1.064689	0.417333	-0.660513
O16	O	1.064546	0.660451	-0.417421
O17	O	0.968032	0.666812	-0.528575
C18	C	1.014650	0.696475	-0.474905
C19	C	1.009647	0.797085	-0.480724
C20	C	0.834095	0.461263	-0.461323
C21	C	0.751781	0.461269	-0.461325
C22	C	1.014716	0.474851	-0.697455
C23	C	1.009694	0.480625	-0.798059
C24	C	0.452683	0.461330	-0.461404
C25	C	0.491007	0.387034	-0.387756
C26	C	0.576631	0.387205	-0.387470
C27	C	0.601069	0.461299	-0.461365
C28	C	0.566492	0.555147	-0.440802
C29	C	0.480890	0.554728	-0.440295
C30	C	0.480707	0.442618	-0.555827
C31	C	0.566490	0.440465	-0.555182
C32	C	0.684930	0.461288	-0.461345
C33	C	0.368822	0.461348	-0.461423
C34	C	1.219659	0.461343	-0.461423
C35	C	1.301972	0.461360	-0.461444
C36	C	1.038419	0.225213	-0.447808
C37	C	1.043497	0.124606	-0.442027
C38	C	1.100836	0.979461	-0.376008
C39	C	1.096137	1.073993	-0.381473
C40	C	0.995554	1.080681	-0.497123
C41	C	1.000253	0.986150	-0.491658
C42	C	1.052895	0.935543	-0.431097
C43	C	1.057590	0.841009	-0.425629
C44	C	0.957010	0.847700	-0.541282
C45	C	0.952312	0.942232	-0.546747
C46	C	1.100819	0.375700	-0.980477
C47	C	1.096103	0.381122	-1.075004
C48	C	0.995541	0.496885	-1.081639
C49	C	1.000258	0.491463	-0.987113
C50	C	1.052899	0.430870	-0.936535
C51	C	1.057619	0.425453	-0.842007
C52	C	0.957054	0.541211	-0.848644
C53	C	0.952338	0.546633	-0.943170
C54	C	1.038288	0.447742	-0.226206
C55	C	1.043466	0.441713	-0.125588
H56	H	0.600387	0.317441	-0.399729
H57	H	0.909478	0.595965	-0.984363
O58	O	0.905296	0.800318	-0.600691
H59	H	0.847062	0.817626	-0.586126
O60	O	1.147776	0.321609	-1.122407
H61	H	1.181258	0.364589	-1.167822
O62	O	0.905361	0.600720	-0.801252
H63	H	0.917480	0.586769	-0.727024
H64	H	0.599842	0.399134	-0.317392
O65	O	1.114391	0.360101	-0.787450
H66	H	1.146914	0.322642	-0.833890
H67	H	0.463362	0.571244	-0.371431
O68	O	0.938756	0.562221	-1.136195
H69	H	0.943527	0.556716	-1.209306
H70	H	0.461362	0.375665	-0.575583
O71	O	0.467339	0.294326	-0.403684
H72	H	0.428010	0.300206	-0.464263
O73	O	0.598073	0.577551	-0.350612
H74	H	0.626526	0.641555	-0.360549
H75	H	1.143685	0.326367	-0.939296
H76	H	0.455033	0.611663	-0.491897
H77	H	0.589356	0.371431	-0.570787
O78	O	0.586643	0.630126	-0.509949
H79	H	0.617830	0.679819	-0.475435
O80	O	0.466125	0.402633	-0.295454
H81	H	0.426580	0.463071	-0.301804
H82	H	0.455293	0.496800	-0.610634
O83	O	0.588044	0.507521	-0.631179
H84	H	0.623898	0.556969	-0.603143
H85	H	1.143695	0.938256	-0.326691
O86	O	1.114372	0.786417	-0.360326
H87	H	1.104379	0.800519	-0.290319
O88	O	1.147842	1.121374	-0.322062
H89	H	1.139638	1.099202	-0.249959
O90	O	0.938776	1.135281	-0.562425
H91	H	0.967449	1.180953	-0.610999
O92	O	0.895525	0.996814	-0.612052
H93	H	0.900305	1.069926	-0.606591
