data_functionalizedCrystal
_audit_creation_method	'MofGen! by Chris Wilmer'
_symmetry_space_group_name_H-M	'P1'
_symmetry_Int_Tables_number	1
_symmetry_cell_setting	triclinic
loop_
_symmetry_equiv_pos_as_xyz
  x,y,z
_cell_length_a	15.944551
_cell_length_b	15.944480
_cell_length_c	13.101039
_cell_angle_alpha	93.356021
_cell_angle_beta	86.632575
_cell_angle_gamma	83.484293
loop_
_atom_site_label
_atom_site_type_symbol
_atom_site_fract_x
_atom_site_fract_y
_atom_site_fract_z
O1	O	-0.103414	-1.119180	-0.085182
O2	O	-0.116832	-0.874623	-0.085187
O3	O	0.012154	-1.003580	-0.085190
O4	O	-0.232400	-0.990223	-0.085179
O5	O	0.002884	-0.994327	0.085240
O6	O	-0.126102	-0.865370	0.085243
O7	O	-0.112684	-1.109928	0.085248
Zn8	Zn	-0.120865	-0.986180	0.112305
Zn9	Zn	-0.108651	-0.998370	-0.112244
O10	O	-0.241670	-0.980970	0.085251
C11	C	-0.120920	-0.838701	0.000027
C12	C	-0.119282	-0.745452	0.000024
C13	C	-0.195213	-0.509691	0.000025
C14	C	-0.158845	-0.454570	0.084058
C15	C	-0.116245	-0.574730	0.000025
C16	C	-0.149687	-0.463697	-0.083972
C17	C	-0.113318	-0.409820	0.000021
C18	C	-0.079903	-0.520834	0.084127
C19	C	-0.070752	-0.529968	-0.083979
C20	C	-0.034327	-0.474879	0.000075
C21	C	-0.117934	-0.669731	0.000028
C22	C	-0.111624	-0.314822	0.000025
C23	C	-0.268329	-0.986151	0.000038
C24	C	-0.361575	-0.987813	0.000042
C25	C	-0.576409	-1.071721	0.000029
C26	C	-0.642006	-1.028195	0.084060
C27	C	-0.532299	-0.990821	0.000033
C28	C	-0.632852	-1.037298	-0.083971
C29	C	-0.697210	-0.993732	0.000020
C30	C	-0.596671	-0.947269	0.084134
C31	C	-0.587507	-0.956388	-0.083973
C32	C	-0.653087	-0.912802	0.000079
C33	C	-0.437298	-0.989146	0.000042
C34	C	-0.792211	-0.995401	0.000019
C35	C	0.038813	-0.998399	0.000021
C36	C	0.132059	-0.996738	0.000010
N37	N	-0.129200	-0.977866	0.265554
C38	C	-0.108607	-0.145847	0.000030
C39	C	-0.110279	-0.239093	0.000020
N40	N	-0.100310	-1.006691	-0.265493
C41	C	-0.140547	-0.966555	0.474597
C42	C	-0.088965	-1.017999	0.525471
C43	C	-0.095279	-1.011705	0.641790
C44	C	-0.134234	-0.972848	0.358268
H45	H	-0.263236	-0.525310	0.000107
Br46	Br	-0.007811	-1.099640	0.452470
H47	H	-0.196059	-0.421776	0.155104
Br48	Br	-0.030798	-0.562441	0.202658
Br49	Br	-0.520873	-1.183634	0.000162
Br50	Br	-0.681954	-1.078797	0.202465
H51	H	-0.563523	-0.926056	-0.155020
H52	H	-0.580557	-0.909217	0.155252
Br53	Br	-0.708378	-0.800776	0.000140
H54	H	-0.649069	-1.075387	-0.155009
H55	H	0.033741	-0.459411	0.000120
H56	H	-0.189447	-0.917790	0.518395
H57	H	-0.179189	-0.438615	-0.155006
Br58	Br	-0.008776	-0.584659	-0.202400
