data_functionalizedCrystal
_audit_creation_method	'MofGen! by Chris Wilmer'
_symmetry_space_group_name_H-M	'P1'
_symmetry_Int_Tables_number	1
_symmetry_cell_setting	triclinic
loop_
_symmetry_equiv_pos_as_xyz
  x,y,z
_cell_length_a	14.853567
_cell_length_b	13.101018
_cell_length_c	14.853567
_cell_angle_alpha	93.367354
_cell_angle_beta	96.365070
_cell_angle_gamma	93.364098
loop_
_atom_site_label
_atom_site_type_symbol
_atom_site_fract_x
_atom_site_fract_y
_atom_site_fract_z
O1	O	1.201319	0.085135	-0.112743
O2	O	1.701319	0.585135	0.387257
O3	O	0.938861	0.085152	-0.126763
O4	O	1.438861	0.585152	0.373237
O5	O	1.077101	0.085146	0.011477
O6	O	1.577101	0.585146	0.511477
O7	O	1.063079	0.085141	-0.250983
O8	O	1.563079	0.585141	0.249017
O9	O	1.067171	-0.085284	0.001549
O10	O	1.567171	0.414716	0.501549
O11	O	0.928931	-0.085278	-0.136691
O12	O	1.428931	0.414722	0.363309
O13	O	1.191389	-0.085295	-0.122670
O14	O	1.691389	0.414705	0.377330
Zn15	Zn	1.058583	-0.112346	-0.131257
Zn16	Zn	1.558583	0.387654	0.368743
Zn17	Zn	1.071666	0.112203	-0.118177
Zn18	Zn	1.571666	0.612203	0.381823
O19	O	1.053149	-0.085289	-0.260910
O20	O	1.553149	0.414711	0.239090
C21	C	0.900307	-0.000061	-0.131092
C22	C	1.400307	0.499939	0.368908
C23	C	0.800224	-0.000054	-0.129187
C24	C	1.300224	0.499946	0.370813
C25	C	0.387689	-0.000075	-0.039023
C26	C	0.887689	0.499925	0.460977
C27	C	0.366408	-0.000078	-0.203256
C28	C	0.866408	0.499922	0.296744
C29	C	0.460441	-0.000074	-0.205046
C30	C	0.960441	0.499926	0.294954
C31	C	0.518104	-0.000070	-0.123823
C32	C	1.018104	0.499930	0.376177
C33	C	0.481732	-0.000069	-0.040810
C34	C	0.981732	0.499931	0.459190
C35	C	0.496821	-0.000065	-0.288057
C36	C	0.996821	0.499935	0.211943
C37	C	0.590860	-0.000061	-0.289850
C38	C	1.090860	0.499939	0.210150
C39	C	0.648524	-0.000064	-0.208626
C40	C	1.148524	0.499936	0.291374
C41	C	0.612147	-0.000064	-0.125610
C42	C	1.112147	0.499936	0.374390
C43	C	0.669809	-0.000059	-0.044387
C44	C	1.169809	0.499941	0.455613
C45	C	0.633433	-0.000067	0.038629
C46	C	1.133433	0.499933	0.538629
C47	C	0.539395	-0.000072	0.040413
C48	C	1.039395	0.499928	0.540413
C49	C	0.742562	-0.000058	-0.210410
C50	C	1.242562	0.499942	0.289590
C51	C	0.763852	-0.000053	-0.046175
C52	C	1.263852	0.499947	0.453825
N53	N	1.049661	-0.265594	-0.140183
N54	N	1.549661	0.234406	0.359817
C55	C	1.092730	-0.525506	-0.097096
C56	C	1.592730	-0.025506	0.402904
C57	C	1.037529	-0.474631	-0.152327
C58	C	1.537529	0.025369	0.347673
C59	C	1.044281	-0.358312	-0.145568
C60	C	1.544281	0.141688	0.354432
C61	C	1.085980	-0.641835	-0.103854
C62	C	1.585980	-0.141835	0.396146
C63	C	1.229943	-0.000080	-0.118342
C64	C	1.729943	0.499920	0.381658
C65	C	1.330027	-0.000080	-0.120246
C66	C	1.830027	0.499920	0.379754
C67	C	1.071501	-0.000066	0.040102
C68	C	1.571501	0.499934	0.540102
C69	C	1.069597	-0.000057	0.140186
C70	C	1.569597	0.499943	0.640186
N71	N	1.080596	0.265452	-0.109244
N72	N	1.580596	0.765452	0.390756
C73	C	1.058749	-0.000075	-0.289536
C74	C	1.558749	0.499925	0.210464
C75	C	1.060653	-0.000077	-0.389619
C76	C	1.560653	0.499923	0.110381
C77	C	0.979431	-0.000070	0.552719
C78	C	1.479431	0.499930	1.052719
C79	C	1.143663	-0.000081	0.574000
C80	C	1.643663	0.499919	1.074000
C81	C	1.145453	-0.000075	0.479966
C82	C	1.645453	0.499925	0.979966
C83	C	1.064231	-0.000068	0.422305
C84	C	1.564231	0.499932	0.922305
C85	C	0.981219	-0.000068	0.458677
C86	C	1.481219	0.499932	0.958677
C87	C	1.228464	-0.000086	0.443586
C88	C	1.728464	0.499914	0.943586
C89	C	1.230258	-0.000081	0.349548
C90	C	1.730258	0.499919	0.849548
C91	C	1.149035	-0.000067	0.291885
C92	C	1.649035	0.499933	0.791885
C93	C	1.066019	-0.000065	0.328262
C94	C	1.566019	0.499935	0.828262
C95	C	0.984797	-0.000059	0.270601
C96	C	1.484797	0.499941	0.770601
C97	C	0.901780	-0.000050	0.306977
C98	C	1.401780	0.499950	0.806977
C99	C	0.899996	-0.000054	0.401014
C100	C	1.399996	0.499946	0.901014
C101	C	1.150819	-0.000063	0.197848
C102	C	1.650819	0.499937	0.697848
C103	C	0.986585	-0.000056	0.176558
C104	C	1.486585	0.499944	0.676558
H105	H	0.449867	-0.000058	-0.354183
H106	H	0.949867	0.499942	0.145817
H107	H	0.620469	-0.000054	-0.357447
H108	H	1.120469	0.499946	0.142553
H109	H	1.294590	-0.000101	0.490540
H110	H	1.794590	0.499899	0.990540
F111	F	1.161127	-0.468258	-0.028663
F112	F	1.661127	0.031742	0.471337
F113	F	0.815340	-0.000051	0.245598
F114	F	1.315340	0.499949	0.745598
H115	H	0.358067	-0.000085	0.028567
H116	H	0.858067	0.499915	0.528567
F117	F	0.900135	-0.000042	0.115197
F118	F	1.400135	0.499958	0.615197
H119	H	0.832408	-0.000047	0.430640
H120	H	1.332408	0.499953	0.930640
H121	H	0.509768	-0.000102	0.107999
H122	H	1.009768	0.499898	0.607999
H123	H	0.911841	-0.000059	0.582341
H124	H	1.411841	0.499941	1.082341
F125	F	0.969132	-0.531883	-0.220768
F126	F	1.469132	-0.031883	0.279232
F127	F	0.781272	-0.000043	-0.298755
F128	F	1.281272	0.499957	0.201245
H129	H	0.810795	-0.000054	0.019968
H130	H	1.310795	0.499946	0.519968
F131	F	1.230099	-0.000102	0.635368
F132	F	1.730099	0.499898	1.135368
F133	F	1.318610	-0.000078	0.310843
F134	F	1.818610	0.499922	0.810843
F135	F	0.305039	-0.000070	-0.289693
F136	F	0.805039	0.499930	0.210307
H137	H	0.680394	-0.000056	0.104761
H138	H	1.180394	0.499944	0.604761
H139	H	1.218410	-0.000077	0.168234
H140	H	1.718410	0.499923	0.668234
