data_functionalizedCrystal
_audit_creation_method	'MofGen! by Chris Wilmer'
_symmetry_space_group_name_H-M	'P1'
_symmetry_Int_Tables_number	1
_symmetry_cell_setting	triclinic
loop_
_symmetry_equiv_pos_as_xyz
  x,y,z
_cell_length_a	27.435584
_cell_length_b	27.434948
_cell_length_c	27.431174
_cell_angle_alpha	60.005483
_cell_angle_beta	60.011353
_cell_angle_gamma	59.993028
loop_
_atom_site_label
_atom_site_type_symbol
_atom_site_fract_x
_atom_site_fract_y
_atom_site_fract_z
O1	O	0.067437	-0.712144	0.595551
O2	O	0.567437	-0.212144	1.095551
O3	O	0.025356	-0.554453	0.479848
O4	O	0.525356	-0.054453	0.979848
O5	O	0.125206	-0.654236	0.479781
O6	O	0.625206	-0.154236	0.979781
O7	O	-0.032412	-0.612361	0.595618
O8	O	0.467588	-0.112361	1.095618
O9	O	0.158328	-0.621117	0.512835
O10	O	0.658328	-0.121117	1.012835
O11	O	0.058479	-0.521333	0.512902
O12	O	0.558479	-0.021333	1.012902
O13	O	0.100560	-0.679025	0.628605
O14	O	0.600560	-0.179025	1.128605
Zn15	Zn	0.084778	-0.594921	0.576001
Zn16	Zn	0.584778	-0.094921	1.076001
Zn17	Zn	0.041138	-0.638557	0.532452
Zn18	Zn	0.541138	-0.138557	1.032452
O19	O	0.000710	-0.579241	0.628672
O20	O	0.500710	-0.079241	1.128672
N21	N	0.114563	-0.565144	0.605726
N22	N	0.614563	-0.065144	1.105726
N23	N	0.011358	-0.668338	0.502727
N24	N	0.511358	-0.168338	1.002727
C25	C	0.156385	-0.523520	0.904506
C26	C	0.656385	-0.023520	1.404506
C27	C	0.413419	-0.523497	0.647322
C28	C	0.913419	-0.023497	1.147322
C29	C	0.156253	-0.523488	0.647384
C30	C	0.656253	-0.023488	1.147384
C31	C	0.156238	-0.266354	0.647407
C32	C	0.656238	0.233646	1.147407
C33	C	0.197637	-0.390463	0.688753
C34	C	0.697637	0.109537	1.188753
C35	C	0.197646	-0.482126	0.688741
C36	C	0.697646	0.017874	1.188741
C37	C	0.220575	-0.459215	0.711654
C38	C	0.720575	0.040785	1.211654
C39	C	0.320555	-0.441991	0.659023
C40	C	0.820555	0.058009	1.159023
C41	C	0.383051	-0.462825	0.638179
C42	C	0.883051	0.037175	1.138179
C43	C	0.383069	-0.563942	0.676737
C44	C	0.883069	-0.063942	1.176737
C45	C	0.320575	-0.543107	0.697583
C46	C	0.820575	-0.043107	1.197583
C47	C	0.212704	-0.359206	0.627313
C48	C	0.712704	0.140794	1.127313
C49	C	0.191849	-0.296705	0.606496
C50	C	0.691849	0.203295	1.106496
C51	C	0.140866	-0.296722	0.708562
C52	C	0.640866	0.203278	1.208562
C53	C	0.161721	-0.359223	0.729379
C54	C	0.661721	0.140777	1.229379
C55	C	0.136200	-0.467030	0.703858
C56	C	0.636200	0.032970	1.203858
C57	C	0.115361	-0.487857	0.683021
C58	C	0.615361	0.012143	1.183021
C59	C	0.217408	-0.538877	0.631968
C60	C	0.717408	-0.038877	1.131968
C61	C	0.238249	-0.518050	0.652796
C62	C	0.738249	-0.018050	1.152796
C63	C	0.136259	-0.467047	0.811668
C64	C	0.636259	0.032953	1.311668
C65	C	0.115461	-0.487892	0.874167
C66	C	0.615461	0.012108	1.374167
C67	C	0.217537	-0.538923	0.874131
C68	C	0.717537	-0.038923	1.374131
C69	C	0.238333	-0.518080	0.811631
C70	C	0.738333	-0.018080	1.311631
C71	C	0.197693	-0.482140	0.780401
C72	C	0.697693	0.017860	1.280401
C73	C	0.289320	-0.482131	0.688723
C74	C	0.789320	0.017869	1.188723
C75	C	0.132699	-0.546027	0.973247
C76	C	0.632699	-0.046027	1.473247
C77	C	0.482158	-0.545613	0.624075
C78	C	0.982158	-0.045613	1.124075
C79	C	0.132521	-0.546006	0.624886
C80	C	0.632521	-0.046006	1.124886
C81	C	0.132917	-0.197607	0.625310
C82	C	0.632917	0.302393	1.125310
C83	C	-0.098217	-0.686189	0.484419
C84	C	0.401783	-0.186189	0.984419
C85	C	-0.006438	-0.686322	0.392891
C86	C	0.493562	-0.186322	0.892891
C87	C	-0.006621	-0.777944	0.484592
C88	C	0.493379	-0.277944	0.984592
C89	C	-0.006606	-0.686315	0.484649
C90	C	0.493394	-0.186315	0.984649
C91	C	-0.029470	-0.709193	0.461638
C92	C	0.470530	-0.209193	0.961638
N93	N	0.538410	-0.565162	0.605628
N94	N	1.038410	-0.065162	1.105628
O95	O	0.742647	-0.575135	0.458625
O96	O	1.242647	-0.075135	0.958625
O97	O	0.742821	-0.691181	0.616169
O98	O	1.242821	-0.191181	1.116169
O99	O	0.742757	-0.690917	0.516248
O100	O	1.242757	-0.190917	1.016248
O101	O	0.742711	-0.575399	0.558546
O102	O	1.242711	-0.075399	1.058546
O103	O	0.643472	-0.657878	0.549405
O104	O	1.143472	-0.157878	1.049405
O105	O	0.643536	-0.658142	0.649326
O106	O	1.143536	-0.158142	1.149326
O107	O	0.643362	-0.542096	0.491782
O108	O	1.143362	-0.042096	0.991782
Zn109	Zn	0.627685	-0.594873	0.575818
Zn110	Zn	1.127685	-0.094873	1.075818
Zn111	Zn	0.758498	-0.638404	0.532133
Zn112	Zn	1.258498	-0.138404	1.032133
O113	O	0.643426	-0.542360	0.591702
O114	O	1.143426	-0.042360	1.091702
N115	N	0.847774	-0.668115	0.502317
N116	N	1.347774	-0.168115	1.002317
N117	N	0.114542	-0.141354	0.605766
N118	N	0.614542	0.358646	1.105766
O119	O	-0.032397	0.062987	0.595660
O120	O	0.467603	0.562987	1.095660
O121	O	0.125155	0.062987	0.479633
O122	O	0.625155	0.562987	0.979633
O123	O	0.025219	0.062974	0.479910
O124	O	0.525219	0.562974	0.979910
O125	O	0.067539	0.063001	0.595383
O126	O	0.567539	0.563001	1.095383
O127	O	0.058343	-0.036320	0.513009
O128	O	0.558343	0.463680	1.013009
O129	O	0.158279	-0.036306	0.512732
O130	O	0.658279	0.463694	1.012732
O131	O	0.000728	-0.036306	0.628759
O132	O	0.500728	0.463694	1.128759
Zn133	Zn	0.084763	-0.052071	0.576000
Zn134	Zn	0.584763	0.447929	1.076000
Zn135	Zn	0.041120	0.078752	0.532392
Zn136	Zn	0.541120	0.578752	1.032392
O137	O	0.100664	-0.036292	0.628482
O138	O	0.600664	0.463708	1.128482
N139	N	0.011333	0.168036	0.502628
N140	N	0.511333	0.668036	1.002628
N141	N	0.114782	-0.565197	1.029501
N142	N	0.614782	-0.065197	1.529501
O143	O	0.104681	-0.712124	1.233827
O144	O	0.604681	-0.212124	1.733827
O145	O	-0.011334	-0.554523	1.233839
O146	O	0.488666	-0.054523	1.733839
O147	O	-0.011066	-0.654443	1.233797
O148	O	0.488934	-0.154443	1.733797
O149	O	0.104414	-0.612204	1.233869
O150	O	0.604414	-0.112204	1.733869
O151	O	0.022028	-0.621336	1.134509
O152	O	0.522028	-0.121336	1.634509
O153	O	0.021760	-0.521417	1.134551
O154	O	0.521760	-0.021417	1.634551
O155	O	0.137775	-0.679018	1.134539
O156	O	0.637775	-0.179018	1.634539
Zn157	Zn	0.085022	-0.594961	1.118780
Zn158	Zn	0.585022	-0.094961	1.618780
Zn159	Zn	0.041420	-0.638580	1.249597
Zn160	Zn	0.541420	-0.138580	1.749597
O161	O	0.137508	-0.579098	1.134580
O162	O	0.637508	-0.079098	1.634580
N163	N	0.011658	-0.668350	1.338876
N164	N	0.511658	-0.168350	1.838876
C165	C	0.037974	-0.518023	0.480435
C166	C	0.537974	-0.018023	0.980435
C167	C	0.161625	-0.641592	0.480351
C168	C	0.661625	-0.141592	0.980351
C169	C	0.087941	-0.715455	0.628017
C170	C	0.587941	-0.215455	1.128017
C171	C	-0.035710	-0.591885	0.628101
C172	C	0.464290	-0.091885	1.128101
C173	C	0.693199	-0.690642	0.652596
C174	C	1.193199	-0.190642	1.152596
C175	C	0.693122	-0.690315	0.528855
C176	C	1.193122	-0.190315	1.028855
C177	C	0.692981	-0.542634	0.455356
C178	C	1.192981	-0.042634	0.955356
C179	C	0.693062	-0.542961	0.579095
C180	C	1.193062	-0.042961	1.079095
C181	C	0.161524	0.013463	0.480164
C182	C	0.661524	0.513463	0.980164
C183	C	0.037807	0.013324	0.480547
C184	C	0.537807	0.513324	0.980547
C185	C	-0.035683	0.013341	0.628188
C186	C	0.464317	0.513341	1.128188
C187	C	0.088076	0.013357	0.627845
C188	C	0.588076	0.513357	1.127845
C189	C	-0.010764	-0.518114	1.184196
C190	C	0.489236	-0.018114	1.684196
C191	C	-0.010426	-0.641846	1.184125
C192	C	0.489574	-0.141846	1.684125
C193	C	0.137205	-0.715426	1.184182
C194	C	0.637205	-0.215426	1.684182
C195	C	0.136875	-0.591687	1.184231
C196	C	0.636875	-0.091687	1.684231
H197	H	0.065433	-0.475593	0.899616
H198	H	0.565433	0.024407	1.399616
H199	H	-0.047187	-0.472851	1.184199
H200	H	0.452813	0.027149	1.684199
H201	H	0.173631	-0.760687	1.184171
H202	H	0.673631	-0.260687	1.684171
O203	O	-0.089740	-0.581133	0.671444
O204	O	0.410260	-0.081133	1.171444
C205	C	-0.188059	-0.510399	0.699023
C206	C	0.311941	-0.010399	1.199023
C207	C	-0.126894	-0.522492	0.649889
C208	C	0.373106	-0.022492	1.149889
H209	H	-0.218119	-0.462994	0.681610
H210	H	0.281881	0.037006	1.181610
H211	H	-0.181844	-0.515742	0.739739
H212	H	0.318156	-0.015742	1.239739
H213	H	-0.209510	-0.543532	0.712085
H214	H	0.290490	-0.043532	1.212085
H215	H	-0.105409	-0.489370	0.636776
H216	H	0.394591	0.010630	1.136776
H217	H	-0.133148	-0.517171	0.609205
H218	H	0.366852	-0.017171	1.109205
H219	H	0.693140	-0.726605	0.519802
H220	H	1.193140	-0.226605	1.019802
H221	H	-0.046689	-0.650868	1.184063
H222	H	0.453311	-0.150868	1.684063
H223	H	0.206895	-0.650521	0.443974
H224	H	0.706895	-0.150521	0.943974
H225	H	0.173154	-0.582650	1.184245
H226	H	0.673154	-0.082650	1.684245
H227	H	0.206679	0.013739	0.443646
H228	H	0.706679	0.513739	0.943646
O229	O	-0.089619	0.013240	0.671697
O230	O	0.410381	0.513240	1.171697
C231	C	-0.142907	-0.038167	0.771279
C232	C	0.357093	0.461833	1.271279
C233	C	-0.081787	-0.038136	0.722053
C234	C	0.418213	0.461864	1.222053
H235	H	-0.136594	-0.079694	0.812008
H236	H	0.363406	0.420306	1.312008
H237	H	-0.173031	-0.038212	0.754025
H238	H	0.326969	0.461788	1.254025
H239	H	-0.164341	0.003412	0.784258
H240	H	0.335659	0.503412	1.284258
H241	H	-0.060301	-0.079708	0.709052
H242	H	0.439699	0.420292	1.209052
H243	H	-0.051705	-0.038060	0.739334
H244	H	0.448295	0.461940	1.239334
O245	O	0.692940	-0.499239	0.401340
O246	O	1.192940	0.000761	0.901340
C247	C	0.692812	-0.471465	0.303021
C248	C	1.192812	0.028535	0.803021
C249	C	0.692874	-0.520666	0.364161
C250	C	1.192874	-0.020666	0.864161
H251	H	0.692746	-0.488766	0.272949
H252	H	1.192746	0.011234	0.772949
H253	H	0.734349	-0.458418	0.281522
H254	H	1.234349	0.041582	0.781522
H255	H	0.651248	-0.430764	0.309347
H256	H	1.151248	0.069236	0.809347
H257	H	0.734410	-0.561399	0.357888
H258	H	1.234410	-0.061399	0.857888
H259	H	0.651310	-0.533663	0.385640
H260	H	1.151310	-0.033663	0.885640
H261	H	0.028745	0.013321	0.444270
H262	H	0.528745	0.513321	0.944270
H263	H	0.693053	-0.506675	0.588146
H264	H	1.193053	-0.006675	1.088146
H265	H	0.103160	-0.437777	0.786243
H266	H	0.603160	0.062223	1.286243
H267	H	0.097136	0.013366	0.664120
H268	H	0.597136	0.513366	1.164120
O269	O	0.027193	-0.464011	0.437063
O270	O	0.527193	0.035989	0.937063
C271	C	-0.033325	-0.392096	0.374205
C272	C	0.466675	0.107904	0.874205
C273	C	-0.021170	-0.453281	0.423314
C274	C	0.478830	0.046719	0.923314
H275	H	-0.072434	-0.383395	0.363082
H276	H	0.427566	0.116605	0.863082
H277	H	0.008081	-0.391882	0.332512
H278	H	0.508081	0.108118	0.832512
H279	H	-0.044643	-0.355691	0.390695
H280	H	0.455357	0.144309	0.890695
H281	H	-0.009867	-0.489719	0.406880
H282	H	0.490133	0.010281	0.906880
H283	H	-0.062585	-0.453444	0.464997
H284	H	0.437415	0.046556	0.964997
H285	H	0.288361	-0.530376	0.786177
H286	H	0.788361	-0.030376	1.286177
O287	O	0.257040	-0.573909	0.904436
O288	O	0.757040	-0.073909	1.404436
C289	C	0.337958	-0.665874	0.923488
C290	C	0.837958	-0.165874	1.423488
C291	C	0.293242	-0.626318	0.889142
C292	C	0.793242	-0.126318	1.389142
H293	H	0.367248	-0.708249	0.911126
H294	H	0.867248	-0.208249	1.411126
H295	H	0.312577	-0.678232	0.973536
H296	H	0.812577	-0.178232	1.473536
H297	H	0.367182	-0.640399	0.911199
H298	H	0.867182	-0.140399	1.411199
H299	H	0.264007	-0.651756	0.901382
H300	H	0.764007	-0.151756	1.401382
H301	H	0.318660	-0.613957	0.839103
H302	H	0.818660	-0.113957	1.339103
O303	O	0.096733	-0.432047	0.738681
O304	O	0.596733	0.067953	1.238681
C305	C	0.015840	-0.340075	0.746708
C306	C	0.515840	0.159925	1.246708
C307	C	0.060515	-0.379628	0.707200
C308	C	0.560515	0.120372	1.207200
H309	H	-0.013462	-0.297692	0.721277
H310	H	0.486538	0.202308	1.221277
H311	H	0.041256	-0.327732	0.758994
H312	H	0.541256	0.172268	1.258994
H313	H	-0.013376	-0.365547	0.789126
H314	H	0.486624	0.134453	1.289126
H315	H	0.089742	-0.354193	0.664757
H316	H	0.589742	0.145807	1.164757
H317	H	0.035062	-0.391975	0.694963
H318	H	0.535062	0.108025	1.194963
O319	O	0.055669	-0.473271	0.697805
O320	O	0.555669	0.026729	1.197805
C321	C	-0.037905	-0.478031	0.777064
C322	C	0.462095	0.021969	1.277064
C323	C	0.029689	-0.494597	0.760404
C324	C	0.529689	0.005403	1.260404
H325	H	-0.058932	-0.495254	0.827676
H326	H	0.441068	0.004746	1.327676
H327	H	-0.045855	-0.499107	0.756044
H328	H	0.454145	0.000893	1.256044
H329	H	-0.058976	-0.427423	0.759802
H330	H	0.441024	0.072577	1.259802
H331	H	0.050805	-0.545196	0.777663
H332	H	0.550805	-0.045196	1.277663
H333	H	0.037597	-0.473477	0.781416
H334	H	0.537597	0.026523	1.281416
H335	H	0.096930	-0.760753	0.664356
H336	H	0.596930	-0.260753	1.164356
O337	O	0.693361	-0.734123	0.706548
O338	O	1.193361	-0.234123	1.206548
C339	C	0.744858	-0.797196	0.778429
C340	C	1.244858	-0.297196	1.278429
C341	C	0.744755	-0.747964	0.717312
C342	C	1.244755	-0.247964	1.217312
H343	H	0.786398	-0.808393	0.787157
H344	H	1.286398	-0.308393	1.287157
H345	H	0.744922	-0.838825	0.778515
H346	H	1.244922	-0.338825	1.278515
H347	H	0.703299	-0.780786	0.814885
H348	H	1.203299	-0.280786	1.314885
H349	H	0.786306	-0.764318	0.680822
H350	H	1.286306	-0.264318	1.180822
H351	H	0.744659	-0.706345	0.717277
H352	H	1.244659	-0.206345	1.217277
O353	O	0.256884	-0.573682	0.596967
O354	O	0.756884	-0.073682	1.096967
C355	C	0.337741	-0.581650	0.504983
C356	C	0.837741	-0.081650	1.004983
C357	C	0.293051	-0.542170	0.544561
C358	C	0.793051	-0.042170	1.044561
H359	H	0.367002	-0.556193	0.462610
H360	H	0.867002	-0.056193	0.962610
H361	H	0.312337	-0.593938	0.492627
H362	H	0.812337	-0.093938	0.992627
H363	H	0.366996	-0.624070	0.530438
H364	H	0.866996	-0.124070	1.030438
H365	H	0.263785	-0.499725	0.519143
H366	H	0.763785	0.000275	1.019143
H367	H	0.318491	-0.529930	0.556920
H368	H	0.818491	-0.029930	1.056920
O369	O	0.290324	-0.582178	0.726398
O370	O	0.790324	-0.082178	1.226398
C371	C	0.296941	-0.684676	0.762470
C372	C	0.796941	-0.184676	1.262470
C373	C	0.331273	-0.640492	0.729815
C374	C	0.831273	-0.140492	1.229815
H375	H	0.330033	-0.731834	0.765254
H376	H	0.830033	-0.231834	1.265254
H377	H	0.267680	-0.672172	0.736925
H378	H	0.767680	-0.172172	1.236925
H379	H	0.267685	-0.682733	0.809448
H380	H	0.767685	-0.182733	1.309448
H381	H	0.360561	-0.642412	0.682836
H382	H	0.860561	-0.142412	1.182836
H383	H	0.360496	-0.653010	0.755405
H384	H	0.860496	-0.153010	1.255405
O385	O	0.413302	-0.423750	0.609315
O386	O	0.913302	0.076250	1.109315
C387	C	0.406690	-0.321261	0.573297
C388	C	0.906690	0.178739	1.073297
C389	C	0.372355	-0.365447	0.605982
C390	C	0.872355	0.134553	1.105982
H391	H	0.373599	-0.274115	0.570603
H392	H	0.873599	0.225885	1.070603
H393	H	0.435915	-0.323127	0.526288
H394	H	0.935915	0.176873	1.026288
H395	H	0.435981	-0.333841	0.598841
H396	H	0.935981	0.166159	1.098841
H397	H	0.343031	-0.352898	0.580488
H398	H	0.843031	0.147102	1.080488
H399	H	0.343167	-0.363574	0.652994
H400	H	0.843167	0.136426	1.152994
O401	O	0.413464	-0.623155	0.685231
O402	O	0.913464	-0.123155	1.185231
C403	C	0.484046	-0.698771	0.639172
C404	C	0.984046	-0.198771	1.139172
C405	C	0.449651	-0.631698	0.629467
C406	C	0.949651	-0.131698	1.129467
H407	H	0.513321	-0.705698	0.594095
H408	H	1.013321	-0.205698	1.094095
H409	H	0.451015	-0.723911	0.663947
H410	H	0.951015	-0.223911	1.163947
H411	H	0.513297	-0.716355	0.666667
H412	H	1.013297	-0.216355	1.166667
H413	H	0.420400	-0.614060	0.601957
H414	H	0.920400	-0.114060	1.101957
H415	H	0.482715	-0.606599	0.604718
H416	H	0.982715	-0.106599	1.104718
O417	O	0.206558	-0.266431	0.546791
O418	O	0.706558	0.233569	1.046791
C419	C	0.259294	-0.273006	0.447749
C420	C	0.759294	0.226994	0.947749
C421	C	0.242692	-0.307365	0.515348
C422	C	0.742692	0.192635	1.015348
H423	H	0.288499	-0.306086	0.422308
H424	H	0.788499	0.193914	0.922308
H425	H	0.284769	-0.243761	0.435410
H426	H	0.784769	0.256239	0.935410
H427	H	0.216861	-0.243728	0.435487
H428	H	0.716861	0.256272	0.935487
H429	H	0.285093	-0.336675	0.527659
H430	H	0.785093	0.163325	1.027659
H431	H	0.217194	-0.336572	0.527651
H432	H	0.717194	0.163428	1.027651
O433	O	0.290131	-0.382783	0.650522
O434	O	0.790131	0.117217	1.150522
C435	C	0.219614	-0.307153	0.696575
C436	C	0.719614	0.192847	1.196575
C437	C	0.254022	-0.374224	0.706287
C438	C	0.754022	0.125776	1.206287
H439	H	0.190422	-0.300210	0.741652
H440	H	0.690422	0.199790	1.241652
H441	H	0.190296	-0.289532	0.669136
H442	H	0.690296	0.210468	1.169136
H443	H	0.252689	-0.282055	0.671740
H444	H	0.752689	0.217945	1.171740
H445	H	0.220990	-0.399371	0.731138
H446	H	0.720990	0.100629	1.231138
H447	H	0.283349	-0.391798	0.733701
H448	H	0.783349	0.108202	1.233701
H449	H	0.288283	-0.530335	0.640482
H450	H	0.788283	-0.030335	1.140482
H451	H	0.241946	-0.384640	0.594232
H452	H	0.741946	0.115360	1.094232
H453	H	0.149444	-0.384673	0.779411
H454	H	0.649444	0.115327	1.279411
O455	O	0.105967	-0.266465	0.748105
O456	O	0.605967	0.233535	1.248105
C457	C	0.057646	-0.273075	0.851538
C458	C	0.557646	0.226925	1.351538
C459	C	0.097162	-0.307414	0.806822
C460	C	0.597162	0.192586	1.306822
H461	H	0.050526	-0.306167	0.899021
H462	H	0.550526	0.193833	1.399021
H463	H	0.012653	-0.243834	0.844403
H464	H	0.512653	0.256166	1.344403
H465	H	0.080543	-0.243794	0.844289
H466	H	0.580543	0.256206	1.344289
H467	H	0.074318	-0.336727	0.814044
H468	H	0.574318	0.163273	1.314044
H469	H	0.142154	-0.336617	0.813968
H470	H	0.642154	0.163383	1.313968
