data_functionalizedCrystal
_audit_creation_method	'MofGen! by Chris Wilmer'
_symmetry_space_group_name_H-M	'P1'
_symmetry_Int_Tables_number	1
_symmetry_cell_setting	triclinic
loop_
_symmetry_equiv_pos_as_xyz
  x,y,z
_cell_length_a	12.759401
_cell_length_b	12.827892
_cell_length_c	12.759393
_cell_angle_alpha	90.029972
_cell_angle_beta	90.020938
_cell_angle_gamma	90.016917
loop_
_atom_site_label
_atom_site_type_symbol
_atom_site_fract_x
_atom_site_fract_y
_atom_site_fract_z
Zn1	Zn	1.606261	-0.415940	0.594024
Zn2	Zn	1.606150	-0.590717	0.418346
Zn3	Zn	1.430560	-0.415996	0.418359
Zn4	Zn	1.430550	-0.590644	0.593983
O5	O	1.518380	-0.503324	0.506178
O6	O	1.753268	-0.439132	0.570731
O7	O	1.582816	-0.567594	0.271326
O8	O	1.453918	-0.269752	0.441684
O9	O	1.753186	-0.567540	0.441661
O10	O	1.583005	-0.269711	0.570744
O11	O	1.453810	-0.439227	0.271336
O12	O	1.283538	-0.439156	0.441644
O13	O	1.453900	-0.567416	0.741009
O14	O	1.283530	-0.567469	0.570674
O15	O	1.582995	-0.439061	0.741040
O16	O	1.582806	-0.736944	0.441622
O17	O	1.453793	-0.736890	0.570661
C18	C	1.245413	-0.503312	0.506157
C19	C	1.128636	-0.503331	0.506173
C20	C	1.518315	-0.774834	0.506158
C21	C	1.518383	-0.890987	0.506185
C22	C	1.073798	-0.570246	0.573253
C23	C	0.964074	-0.570250	0.573274
C24	C	0.964036	-0.436422	0.439125
C25	C	1.073758	-0.436413	0.439111
C26	C	1.582231	-0.942668	0.570106
C27	C	1.582302	-1.062719	0.570135
C28	C	1.792414	-0.503338	0.506199
C29	C	1.909190	-0.503344	0.506209
C30	C	1.518459	-0.503224	0.780211
C31	C	1.518492	-0.503181	0.896988
C32	C	1.518475	-0.230754	0.506220
C33	C	1.518515	-0.114601	0.506239
C34	C	1.518363	-0.503349	0.233211
C35	C	1.518533	-0.503097	0.116434
C36	C	1.585717	-0.436336	0.951867
C37	C	1.585735	-0.436291	1.061592
C38	C	1.451301	-0.569945	1.061547
C39	C	1.451278	-0.569984	0.951825
H40	H	1.118476	-0.624732	0.627862
O41	O	1.453406	-1.061642	0.440797
C42	C	1.402461	-1.028274	0.262066
C43	C	1.476278	-1.088305	0.336056
H44	H	1.420911	-1.049825	0.177369
H45	H	1.414025	-0.940887	0.273583
H46	H	1.317736	-1.049722	0.280484
H47	H	1.561031	-1.066944	0.317684
H48	H	1.464624	-1.175677	0.324526
O49	O	1.647419	-1.115894	0.635391
C50	C	1.706940	-1.284033	0.694843
C51	C	1.633122	-1.223941	0.620902
H52	H	1.695422	-1.371399	0.683138
H53	H	1.688449	-1.262666	0.779580
H54	H	1.791661	-1.262509	0.676496
H55	H	1.548377	-1.245432	0.639154
H56	H	1.651703	-1.245313	0.536187
O57	O	1.127151	-0.371555	0.373891
C58	C	1.250922	-0.357322	0.232017
C59	C	1.190539	-0.430889	0.305819
H60	H	1.302169	-0.405265	0.176948
H61	H	1.302397	-0.302752	0.280286
H62	H	1.192834	-0.309478	0.184131
H63	H	1.248551	-0.478801	0.353721
H64	H	1.139048	-0.485390	0.257490
O65	O	1.453176	-0.944335	0.441069
C66	C	1.311476	-1.067775	0.426958
C67	C	1.385276	-1.007448	0.500821
H68	H	1.256545	-1.118800	0.475239
H69	H	1.359757	-1.118949	0.372141
H70	H	1.263441	-1.010172	0.378803
H71	H	1.433326	-1.064977	0.549044
H72	H	1.336935	-0.956260	0.555569
O73	O	1.647266	-0.889478	0.635523
C74	C	1.698150	-0.855742	0.814242
C75	C	1.624417	-0.916024	0.740274
H76	H	1.679718	-0.877199	0.898948
H77	H	1.686474	-0.768395	0.802682
H78	H	1.782904	-0.877061	0.795843
H79	H	1.539635	-0.894793	0.758627
H80	H	1.636183	-1.003357	0.751849
O81	O	1.386120	-0.634974	0.898392
C82	C	1.371915	-0.776140	0.774526
C83	C	1.445822	-0.702598	0.834955
H84	H	1.420155	-0.830847	0.723240
H85	H	1.317005	-0.728230	0.723086
H86	H	1.323861	-0.823838	0.832584
H87	H	1.493944	-0.654885	0.776973
H88	H	1.500662	-0.750568	0.886411
H89	H	0.919341	-0.381941	0.384524
O90	O	1.651032	-0.371342	0.898760
C91	C	1.784412	-0.238809	0.910390
C92	C	1.710480	-0.312349	0.970660
H93	H	1.832511	-0.191110	0.968495
H94	H	1.736236	-0.184112	0.859051
H95	H	1.839277	-0.286823	0.858994
H96	H	1.655601	-0.264419	1.022113
H97	H	1.758722	-0.367049	1.021933
O98	O	1.650887	-0.371244	1.114945
C99	C	1.665097	-0.230140	1.238882
C100	C	1.591193	-0.303732	1.178510
H101	H	1.616866	-0.175552	1.290305
H102	H	1.713107	-0.182328	1.180881
H103	H	1.720047	-0.278119	1.290211
H104	H	1.536180	-0.255834	1.127179
H105	H	1.543257	-0.351547	1.236567
H106	H	1.396580	-0.624336	1.106209
O107	O	0.910642	-0.635155	0.638400
C108	C	0.741629	-0.694524	0.697838
C109	C	0.802008	-0.620947	0.624043
H110	H	0.653788	-0.683079	0.686241
H111	H	0.763174	-0.676275	0.782606
H112	H	0.763235	-0.778752	0.679246
H113	H	0.780434	-0.536695	0.642541
H114	H	0.780457	-0.639286	0.539297
