data_functionalizedCrystal
_audit_creation_method	'MofGen! by Chris Wilmer'
_symmetry_space_group_name_H-M	'P1'
_symmetry_Int_Tables_number	1
_symmetry_cell_setting	triclinic
loop_
_symmetry_equiv_pos_as_xyz
  x,y,z
_cell_length_a	8.497374
_cell_length_b	21.395362
_cell_length_c	21.395355
_cell_angle_alpha	90.043940
_cell_angle_beta	89.999406
_cell_angle_gamma	89.983023
loop_
_atom_site_label
_atom_site_type_symbol
_atom_site_fract_x
_atom_site_fract_y
_atom_site_fract_z
Zn1	Zn	0.627570	0.957988	0.354664
Zn2	Zn	1.127570	1.457988	0.854664
Zn3	Zn	0.891343	0.957945	0.249919
Zn4	Zn	1.391343	1.457945	0.749919
Zn5	Zn	0.627643	0.853203	0.249865
Zn6	Zn	1.127643	1.353203	0.749865
Zn7	Zn	0.891375	0.853227	0.354624
Zn8	Zn	1.391375	1.353227	0.854624
O9	O	0.759483	0.905591	0.302268
O10	O	1.259483	1.405591	0.802268
O11	O	0.662516	1.045661	0.340808
O12	O	1.162516	1.545661	0.840808
O13	O	0.856379	0.944023	0.162234
O14	O	1.356379	1.444023	0.662234
O15	O	0.406871	0.867112	0.263761
O16	O	0.906871	1.367112	0.763761
O17	O	0.856308	1.045629	0.263853
O18	O	1.356308	1.545629	0.763853
O19	O	0.406817	0.944097	0.340756
O20	O	0.906817	1.444097	0.840756
O21	O	0.662641	0.867070	0.162194
O22	O	1.162641	1.367070	0.662194
O23	O	0.662672	0.765529	0.263722
O24	O	1.162672	1.265529	0.763722
O25	O	0.856364	0.867151	0.442307
O26	O	1.356364	1.367151	0.942307
O27	O	0.856435	0.765546	0.340688
O28	O	1.356435	1.265546	0.840688
O29	O	0.662547	0.944119	0.442336
O30	O	1.162547	1.444119	0.942336
O31	O	1.112109	0.944046	0.263814
O32	O	1.612109	1.444046	0.763814
O33	O	1.112133	0.867109	0.340740
O34	O	1.612133	1.367109	0.840740
C35	C	0.759566	0.742803	0.302195
C36	C	1.259566	1.242803	0.802195
C37	C	0.759640	0.673162	0.302179
C38	C	1.259640	1.173162	0.802179
C39	C	0.860666	0.640474	0.342195
C40	C	1.360666	1.140474	0.842195
C41	C	0.860627	0.575039	0.342223
C42	C	1.360627	1.075039	0.842223
C43	C	0.759579	0.542294	0.302224
C44	C	1.259579	1.042294	0.802224
C45	C	0.658534	0.574989	0.262205
C46	C	1.158534	1.074989	0.762205
C47	C	0.658564	0.640423	0.262182
C48	C	1.158564	1.140423	0.762182
C49	C	0.746870	0.438566	0.245817
C50	C	1.246870	0.938566	0.745817
C51	C	0.746851	0.373133	0.245838
C52	C	1.246851	0.873133	0.745838
C53	C	0.759476	0.340473	0.302293
C54	C	1.259476	0.840473	0.802293
C55	C	0.772154	0.373253	0.358728
C56	C	1.272154	0.873253	0.858728
C57	C	0.772184	0.438688	0.358706
C58	C	1.272184	0.938688	0.858706
C59	C	0.759534	0.471341	0.302244
C60	C	1.259534	0.971341	0.802244
C61	C	0.860465	0.236833	0.342342
C62	C	1.360465	0.736833	0.842342
C63	C	0.860416	0.171396	0.342371
C64	C	1.360416	0.671396	0.842371
C65	C	0.658331	0.171348	0.262348
C66	C	1.158331	0.671348	0.762348
C67	C	0.658372	0.236783	0.262324
C68	C	1.158372	0.736783	0.762324
C69	C	0.759448	0.269522	0.302321
C70	C	1.259448	0.769522	0.802321
C71	C	1.169363	0.905583	0.302277
C72	C	1.669363	1.405583	0.802277
C73	C	1.348007	0.905600	0.302267
C74	C	1.848007	1.405600	0.802267
C75	C	0.759451	0.905643	0.465691
C76	C	1.259451	1.405643	0.965691
C77	C	0.759437	0.905665	0.535332
C78	C	1.259437	1.405665	1.035332
C79	C	0.759400	1.069014	0.302341
C80	C	1.259400	1.569014	0.802341
C81	C	0.759365	1.138655	0.302372
C82	C	1.259365	1.638655	0.802372
C83	C	0.759401	0.905575	0.139480
C84	C	1.259401	1.405575	0.639480
C85	C	0.758970	0.905674	0.069839
C86	C	1.258970	1.405674	0.569839
C87	C	0.658513	0.945740	0.568062
C88	C	1.158513	1.445740	1.068062
C89	C	0.658445	0.945740	0.633497
C90	C	1.158445	1.445740	1.133497
C91	C	0.759330	0.905670	0.666201
C92	C	1.259330	1.405670	1.166201
C93	C	0.860261	0.865587	0.633464
C94	C	1.360261	1.365587	1.133464
C95	C	0.860315	0.865584	0.568029
C96	C	1.360315	1.365584	1.068029
C97	C	0.901380	0.900723	0.769882
C98	C	1.401380	1.400723	1.269882
C99	C	0.901329	0.900730	0.835315
C100	C	1.401329	1.400730	1.335315
C101	C	0.759163	0.905674	0.868022
C102	C	1.259163	1.405674	1.368022
C103	C	0.617044	0.910624	0.835287
C104	C	1.117044	1.410624	1.335287
C105	C	0.617097	0.910621	0.769853
C106	C	1.117097	1.410621	1.269853
C107	C	0.759282	0.905668	0.737153
C108	C	1.259282	1.405668	1.237153
C109	C	0.658156	0.945750	0.971704
C110	C	1.158156	1.445750	1.471704
C111	C	0.658086	0.945745	1.037140
C112	C	1.158086	1.445745	1.537140
C113	C	0.859916	0.865595	1.037105
C114	C	1.359916	1.365595	1.537105
C115	C	0.859973	0.865597	0.971670
C116	C	1.359973	1.365597	1.471670
C117	C	0.759095	0.905678	0.938973
C118	C	1.259095	1.405678	1.438973
H119	H	0.576257	0.548324	0.229638
H120	H	1.076257	1.048324	0.729638
H121	H	0.942894	0.548419	0.374811
H122	H	1.442894	1.048419	0.874811
H123	H	0.736538	0.346448	0.199885
H124	H	1.236538	0.846448	0.699885
H125	H	0.942498	0.832947	0.541381
H126	H	1.442498	1.332947	1.041381
H127	H	0.942967	0.667126	0.374764
H128	H	1.442967	1.167126	0.874764
H129	H	0.501279	0.914651	0.861915
H130	H	1.001279	1.414651	1.361915
H131	H	1.017051	0.896703	0.861963
H132	H	1.517051	1.396703	1.361963
H133	H	0.576292	0.667037	0.229596
H134	H	1.076292	1.167037	0.729596
H135	H	0.782432	0.346663	0.404699
H136	H	1.282432	0.846663	0.904699
H137	H	0.942680	0.144783	0.374961
H138	H	1.442680	0.644783	0.874961
H139	H	1.017119	0.896530	0.743258
H140	H	1.517119	1.396530	1.243258
H141	H	0.942166	0.832967	0.945021
H142	H	1.442166	1.332967	1.445021
H143	H	0.575892	0.978378	1.063788
H144	H	1.075892	1.478378	1.563788
H145	H	0.736582	0.465153	0.199841
H146	H	1.236582	0.965153	0.699841
H147	H	0.576368	0.978377	0.541444
H148	H	1.076368	1.478377	1.041444
H149	H	0.576251	0.978373	0.660151
H150	H	1.076251	1.478373	1.160151
H151	H	0.576007	0.978383	0.945080
H152	H	1.076007	1.478383	1.445080
H153	H	0.942043	0.832963	1.063732
H154	H	1.442043	1.332963	1.563732
H155	H	0.942759	0.263490	0.374913
H156	H	1.442759	0.763490	0.874913
H157	H	0.942397	0.832960	0.660095
H158	H	1.442397	1.332960	1.160095
H159	H	0.782502	0.465375	0.404657
H160	H	1.282502	0.965375	0.904657
H161	H	0.576048	0.144687	0.229782
H162	H	1.076048	0.644687	0.729782
H163	H	0.576114	0.263398	0.229736
H164	H	1.076114	0.763398	0.729736
H165	H	0.501379	0.914650	0.743203
H166	H	1.001379	1.414650	1.243203
