data_functionalizedCrystal
_audit_creation_method	'MofGen! by Chris Wilmer'
_symmetry_space_group_name_H-M	'P1'
_symmetry_Int_Tables_number	1
_symmetry_cell_setting	triclinic
loop_
_symmetry_equiv_pos_as_xyz
  x,y,z
_cell_length_a	12.759395
_cell_length_b	16.120484
_cell_length_c	12.759387
_cell_angle_alpha	87.136424
_cell_angle_beta	90.020509
_cell_angle_gamma	92.926975
loop_
_atom_site_label
_atom_site_type_symbol
_atom_site_fract_x
_atom_site_fract_y
_atom_site_fract_z
Zn1	Zn	1.584987	-0.331828	0.615167
Zn2	Zn	2.084987	0.168172	1.115167
Zn3	Zn	1.575935	-0.471265	0.448379
Zn4	Zn	2.075935	0.028735	0.948379
Zn5	Zn	1.409282	-0.331874	0.439506
Zn6	Zn	1.909282	0.168126	0.939506
Zn7	Zn	1.400339	-0.471205	0.624015
Zn8	Zn	1.900339	0.028795	1.124015
O9	O	1.492636	-0.401543	0.531767
O10	O	1.992636	0.098457	1.031767
O11	O	1.730807	-0.350331	0.593052
O12	O	2.230807	0.149669	1.093052
O13	O	1.553783	-0.452818	0.300184
O14	O	2.053783	0.047182	0.800184
O15	O	1.440121	-0.215202	0.455392
O16	O	1.940121	0.284798	0.955392
O17	O	1.724157	-0.452774	0.470514
O18	O	2.224157	0.047226	0.970514
O19	O	1.569211	-0.215169	0.584449
O20	O	2.069211	0.284831	1.084449
O21	O	1.431344	-0.350408	0.293665
O22	O	1.931344	0.149592	0.793665
O23	O	1.261075	-0.350350	0.463971
O24	O	1.761075	0.149650	0.963971
O25	O	1.424878	-0.452673	0.769859
O26	O	1.924878	0.047327	1.269859
O27	O	1.254504	-0.452717	0.599529
O28	O	1.754504	0.047283	1.099529
O29	O	1.560539	-0.350273	0.763359
O30	O	2.060539	0.149727	1.263359
O31	O	1.545111	-0.587922	0.479094
O32	O	2.045111	-0.087922	0.979094
O33	O	1.416101	-0.587879	0.608132
O34	O	1.916101	-0.087879	1.108132
C35	C	1.219669	-0.401533	0.531748
C36	C	1.719669	0.098467	1.031748
C37	C	1.102891	-0.401549	0.531766
C38	C	1.602891	0.098451	1.031766
C39	C	1.096077	-0.508315	0.672716
C40	C	1.596077	-0.008315	1.172716
C41	C	1.037808	-0.561705	0.743194
C42	C	1.537808	-0.061705	1.243194
C43	C	0.928086	-0.561715	0.743207
C44	C	1.428086	-0.061715	1.243207
C45	C	0.876630	-0.508328	0.672737
C46	C	1.376630	-0.008328	1.172737
C47	C	0.934899	-0.454938	0.602259
C48	C	1.434899	0.045062	1.102259
C49	C	1.044623	-0.454935	0.602251
C50	C	1.544623	0.045065	1.102251
C51	C	0.941713	-0.348169	0.461316
C52	C	1.441713	0.151831	0.961316
C53	C	1.051436	-0.348161	0.461296
C54	C	1.551436	0.151839	0.961296
C55	C	0.890258	-0.294781	0.390846
C56	C	1.390258	0.205219	0.890846
C57	C	0.948526	-0.241394	0.320361
C58	C	1.448526	0.258606	0.820361
C59	C	1.058255	-0.241387	0.320350
C60	C	1.558255	0.258613	0.820350
C61	C	1.109704	-0.294771	0.390818
C62	C	1.609704	0.205229	0.890818
C63	C	1.478681	-0.618150	0.545559
C64	C	1.978681	-0.118150	1.045559
C65	C	1.472808	-0.710816	0.551495
C66	C	1.972808	-0.210816	1.051495
C67	C	1.462090	-0.880477	0.562353
C68	C	1.962090	-0.380477	1.062353
C69	C	1.523370	-0.921768	0.501198
C70	C	2.023370	-0.421768	1.001198
C71	C	1.517406	-1.016173	0.507239
C72	C	2.017406	-0.516173	1.007239
C73	C	1.468052	-0.786063	0.556313
C74	C	1.968052	-0.286063	1.056313
C75	C	1.766669	-0.401554	0.531786
C76	C	2.266669	0.098446	1.031786
C77	C	1.883445	-0.401558	0.531794
C78	C	2.383445	0.098442	1.031794
C79	C	1.492720	-0.401461	0.805795
C80	C	1.992720	0.098539	1.305795
C81	C	1.492756	-0.401426	0.922570
C82	C	1.992756	0.098574	1.422570
C83	C	1.506673	-0.184090	0.517944
C84	C	2.006673	0.315910	1.017944
C85	C	1.512655	-0.091424	0.512053
C86	C	2.012655	0.408576	1.012053
C87	C	1.492616	-0.401564	0.258801
C88	C	1.992616	0.098436	0.758801
C89	C	1.492798	-0.401364	0.142012
C90	C	1.992798	0.098636	0.642012
C91	C	1.634028	-0.294805	0.915821
C92	C	2.134028	0.205195	1.415821
C93	C	1.704680	-0.241481	0.967306
C94	C	2.204680	0.258519	1.467306
C95	C	1.704707	-0.241451	1.077026
C96	C	2.204707	0.258549	1.577026
C97	C	1.634074	-0.294748	1.135263
C98	C	2.134074	0.205252	1.635263
C99	C	1.563422	-0.348071	1.083777
C100	C	2.063422	0.151929	1.583777
C101	C	1.563404	-0.348098	0.974055
C102	C	2.063404	0.151902	1.474055
C103	C	1.422147	-0.454688	1.090526
C104	C	1.922147	0.045312	1.590526
C105	C	1.422123	-0.454723	0.980807
C106	C	1.922123	0.045277	1.480807
C107	C	1.351514	-0.507985	1.148763
C108	C	1.851514	-0.007985	1.648763
C109	C	1.280866	-0.561313	1.097278
C110	C	1.780866	-0.061313	1.597278
C111	C	1.280842	-0.561342	0.987551
C112	C	1.780842	-0.061342	1.487551
C113	C	1.351472	-0.508047	0.929321
C114	C	1.851472	-0.008047	1.429321
H115	H	0.880644	-0.605185	0.800602
H116	H	1.380644	-0.105185	1.300602
N117	N	0.893030	-0.183829	0.244349
N118	N	1.393030	0.316171	0.744349
H119	H	0.814681	-0.191938	0.255051
H120	H	1.314681	0.308062	0.755051
H121	H	0.911346	-0.196745	0.170112
H122	H	1.411346	0.303255	0.670112
N123	N	1.634093	-0.294689	1.253601
N124	N	2.134093	0.205311	1.753601
H125	H	1.705177	-0.310007	1.281028
H126	H	2.205177	0.189993	1.781028
H127	H	1.578583	-0.336531	1.282607
H128	H	2.078583	0.163469	1.782607
H129	H	1.351537	-0.507953	1.238102
H130	H	1.851537	-0.007953	1.738102
N131	N	1.780878	-0.184020	0.904487
N132	N	2.280878	0.315980	1.404487
H133	H	1.740690	-0.145391	0.856488
H134	H	2.240690	0.354609	1.356488
H135	H	1.827331	-0.218002	0.861204
H136	H	2.327331	0.281998	1.361204
N137	N	1.204697	-0.618796	1.160090
N138	N	1.704697	-0.118796	1.660090
H139	H	1.159939	-0.652586	1.110829
H140	H	1.659939	-0.152586	1.610829
H141	H	1.158279	-0.584840	1.203446
H142	H	1.658279	-0.084840	1.703446
H143	H	1.634022	-0.294832	0.826481
H144	H	2.134022	0.205168	1.326481
H145	H	1.105691	-0.197905	0.262965
H146	H	1.605691	0.302095	0.762965
H147	H	1.079716	-0.605170	0.800571
H148	H	1.579716	-0.105170	1.300571
N149	N	1.780898	-0.183933	1.132565
N150	N	2.280898	0.316067	1.632565
H151	H	1.825637	-0.150171	1.079028
H152	H	2.325637	0.349829	1.579028
H153	H	1.827332	-0.217862	1.180253
H154	H	2.327332	0.282138	1.680253
H155	H	1.223298	-0.604756	0.945638
H156	H	1.723298	-0.104756	1.445638
H157	H	1.351463	-0.508069	0.839981
H158	H	1.851463	-0.008069	1.339981
N159	N	0.758288	-0.508336	0.672750
N160	N	1.258288	-0.008336	1.172750
H161	H	0.729183	-0.550258	0.728091
H162	H	1.229183	-0.050258	1.228091
H163	H	0.730935	-0.523567	0.601580
H164	H	1.230935	-0.023567	1.101580
H165	H	0.800916	-0.294790	0.390866
H166	H	1.300916	0.205210	0.890866
N167	N	1.228046	-0.294772	0.390806
N168	N	1.728046	0.205228	0.890806
H169	H	1.255488	-0.279522	0.461940
H170	H	1.755488	0.220478	0.961940
H171	H	1.257072	-0.252858	0.335422
H172	H	1.757072	0.247142	0.835422
N173	N	1.598797	-0.874687	0.425832
N174	N	2.098797	-0.374687	0.925832
H175	H	1.592419	-0.812943	0.432142
H176	H	2.092419	-0.312943	0.932142
H177	H	1.581535	-0.889917	0.351741
H178	H	2.081535	-0.389917	0.851741
N179	N	1.386664	-0.927558	0.637709
N180	N	1.886664	-0.427558	1.137709
H181	H	1.393044	-0.989301	0.631390
H182	H	1.893044	-0.489301	1.131390
H183	H	1.312575	-0.912457	0.620334
H184	H	1.812575	-0.412457	1.120334
H185	H	1.185418	-0.508318	0.672704
H186	H	1.685418	-0.008318	1.172704
