data_functionalizedCrystal
_audit_creation_method	'MofGen! by Chris Wilmer'
_symmetry_space_group_name_H-M	'P1'
_symmetry_Int_Tables_number	1
_symmetry_cell_setting	triclinic
loop_
_symmetry_equiv_pos_as_xyz
  x,y,z
_cell_length_a	21.295418
_cell_length_b	21.295417
_cell_length_c	21.295411
_cell_angle_alpha	89.978356
_cell_angle_beta	90.043738
_cell_angle_gamma	89.953681
loop_
_atom_site_label
_atom_site_type_symbol
_atom_site_fract_x
_atom_site_fract_y
_atom_site_fract_z
Zn1	Zn	0.962356	0.250415	0.356234
Zn2	Zn	1.212356	0.500415	0.606234
Zn3	Zn	1.462356	0.750415	0.856234
Zn4	Zn	1.712356	1.000415	1.106234
Zn5	Zn	0.962258	0.355667	0.250959
Zn6	Zn	1.212258	0.605667	0.500959
Zn7	Zn	1.462258	0.855667	0.750959
Zn8	Zn	1.712258	1.105667	1.000959
Zn9	Zn	0.857079	0.250445	0.250943
Zn10	Zn	1.107079	0.500445	0.500943
Zn11	Zn	1.357079	0.750445	0.750943
Zn12	Zn	1.607079	1.000445	1.000943
Zn13	Zn	0.857048	0.355680	0.356155
Zn14	Zn	1.107048	0.605680	0.606155
Zn15	Zn	1.357048	0.855680	0.856155
Zn16	Zn	1.607048	1.105680	1.106155
O17	O	0.909685	0.303052	0.303573
O18	O	1.159685	0.553052	0.553573
O19	O	1.409685	0.803052	0.803573
O20	O	1.659685	1.053052	1.053573
O21	O	1.050432	0.264360	0.342308
O22	O	1.300432	0.514360	0.592308
O23	O	1.550432	0.764360	0.842308
O24	O	1.800432	1.014360	1.092308
O25	O	0.948278	0.341716	0.162867
O26	O	1.198278	0.591716	0.412867
O27	O	1.448278	0.841716	0.662867
O28	O	1.698278	1.091716	0.912867
O29	O	0.871098	0.162351	0.264937
O30	O	1.121098	0.412351	0.514937
O31	O	1.371098	0.662351	0.764937
O32	O	1.621098	0.912351	1.014937
O33	O	1.050361	0.341688	0.264963
O34	O	1.300361	0.591688	0.514963
O35	O	1.550361	0.841688	0.764963
O36	O	1.800361	1.091688	1.014963
O37	O	0.948444	0.162330	0.342293
O38	O	1.198444	0.412330	0.592293
O39	O	1.448444	0.662330	0.842293
O40	O	1.698444	0.912330	1.092293
O41	O	0.871003	0.264410	0.162856
O42	O	1.121003	0.514410	0.412856
O43	O	1.371003	0.764410	0.662856
O44	O	1.621003	1.014410	0.912856
O45	O	0.768985	0.264422	0.264861
O46	O	1.018985	0.514422	0.514861
O47	O	1.268985	0.764422	0.764861
O48	O	1.518985	1.014422	1.014861
O49	O	0.871046	0.341709	0.444255
O50	O	1.121046	0.591709	0.694255
O51	O	1.371046	0.841709	0.944255
O52	O	1.621046	1.091709	1.194255
O53	O	0.768963	0.341738	0.342160
O54	O	1.018963	0.591738	0.592160
O55	O	1.268963	0.841738	0.842160
O56	O	1.518963	1.091738	1.092160
O57	O	0.948415	0.264372	0.444313
O58	O	1.198415	0.514372	0.694313
O59	O	1.448415	0.764372	0.944313
O60	O	1.698415	1.014372	1.194313
O61	O	0.948248	0.443758	0.264887
O62	O	1.198248	0.693758	0.514887
O63	O	1.448248	0.943758	0.764887
O64	O	1.698248	1.193758	1.014887
O65	O	0.870951	0.443767	0.342175
O66	O	1.120951	0.693767	0.592175
O67	O	1.370951	0.943767	0.842175
O68	O	1.620951	1.193767	1.092175
C69	C	0.909603	0.466603	0.303538
C70	C	1.159603	0.716603	0.553538
C71	C	1.409603	0.966603	0.803538
C72	C	1.659603	1.216603	1.053538
C73	C	0.909625	0.536571	0.303544
C74	C	1.159625	0.786571	0.553544
C75	C	1.409625	1.036571	0.803544
C76	C	1.659625	1.286571	1.053544
C77	C	0.746134	0.303085	0.303500
C78	C	0.996134	0.553085	0.553500
C79	C	1.246134	0.803085	0.803500
C80	C	1.496134	1.053085	1.053500
C81	C	0.676166	0.303114	0.303484
C82	C	0.926166	0.553114	0.553484
C83	C	1.176166	0.803114	0.803484
C84	C	1.426166	1.053114	1.053484
C85	C	0.909738	0.303038	0.467763
C86	C	1.159738	0.553038	0.717763
C87	C	1.409738	0.803038	0.967763
C88	C	1.659738	1.053038	1.217763
C89	C	0.909760	0.303033	0.537731
C90	C	1.159760	0.553033	0.787731
C91	C	1.409760	0.803033	1.037731
C92	C	1.659760	1.053033	1.287731
C93	C	0.643304	0.343426	0.343674
C94	C	0.893304	0.593426	0.593674
C95	C	1.143304	0.843426	0.843674
C96	C	1.393304	1.093426	1.093674
C97	C	0.577561	0.343410	0.343702
C98	C	0.827561	0.593410	0.593702
C99	C	1.077561	0.843410	0.843702
C100	C	1.327561	1.093410	1.093702
C101	C	0.544683	0.303090	0.303530
C102	C	0.794683	0.553090	0.553530
C103	C	1.044683	0.803090	0.803530
C104	C	1.294683	1.053090	1.053530
C105	C	0.577553	0.262770	0.263337
C106	C	0.827553	0.512770	0.513337
C107	C	1.077553	0.762770	0.763337
C108	C	1.327553	1.012770	1.013337
C109	C	0.643294	0.262783	0.263315
C110	C	0.893294	0.512783	0.513315
C111	C	1.143294	0.762783	0.763315
C112	C	1.393294	1.012783	1.013315
N113	N	0.441407	0.298163	0.248472
N114	N	0.691407	0.548163	0.498472
N115	N	0.941407	0.798163	0.748472
N116	N	1.191407	1.048163	0.998472
N117	N	0.378956	0.298155	0.248495
N118	N	0.628956	0.548155	0.498495
N119	N	0.878956	0.798155	0.748495
N120	N	1.128956	1.048155	0.998495
C121	C	0.346608	0.303050	0.303596
C122	C	0.596608	0.553050	0.553596
C123	C	0.846608	0.803050	0.803596
C124	C	1.096608	1.053050	1.053596
N125	N	0.379072	0.307965	0.358675
N126	N	0.629072	0.557965	0.608675
N127	N	0.879072	0.807965	0.858675
N128	N	1.129072	1.057965	1.108675
N129	N	0.441529	0.307976	0.358650
N130	N	0.691529	0.557976	0.608650
N131	N	0.941529	0.807976	0.858650
N132	N	1.191529	1.057976	1.108650
C133	C	0.473398	0.303072	0.303550
C134	C	0.723398	0.553072	0.553550
C135	C	0.973398	0.803072	0.803550
C136	C	1.223398	1.053072	1.053550
C137	C	0.242461	0.343346	0.343820
C138	C	0.492461	0.593346	0.593820
C139	C	0.742461	0.843346	0.843820
C140	C	0.992461	1.093346	1.093820
C141	C	0.176717	0.343326	0.343849
C142	C	0.426717	0.593326	0.593849
C143	C	0.676717	0.843326	0.843849
C144	C	0.926717	1.093326	1.093849
C145	C	0.176710	0.262690	0.263479
C146	C	0.426710	0.512690	0.513479
C147	C	0.676710	0.762690	0.763479
C148	C	0.926710	1.012690	1.013479
C149	C	0.242453	0.262707	0.263455
C150	C	0.492453	0.512707	0.513455
C151	C	0.742453	0.762707	0.763455
C152	C	0.992453	1.012707	1.013455
C153	C	0.275324	0.303038	0.303625
C154	C	0.525324	0.553038	0.553625
C155	C	0.775324	0.803038	0.803625
C156	C	1.025324	1.053038	1.053625
C157	C	1.073876	0.303019	0.303646
C158	C	1.323876	0.553019	0.553646
C159	C	1.573876	0.803019	0.803646
C160	C	1.823876	1.053019	1.053646
C161	C	1.143844	0.303005	0.303677
C162	C	1.393844	0.553005	0.553677
C163	C	1.643844	0.803005	0.803677
C164	C	1.893844	1.053005	1.053677
C165	C	0.909785	0.138861	0.303622
C166	C	1.159785	0.388861	0.553622
C167	C	1.409785	0.638861	0.803622
C168	C	1.659785	0.888861	1.053622
C169	C	0.909828	0.068893	0.303642
C170	C	1.159828	0.318893	0.553642
C171	C	1.409828	0.568893	0.803642
C172	C	1.659828	0.818893	1.053642
C173	C	0.949910	0.569412	0.263342
C174	C	1.199910	0.819412	0.513342
C175	C	1.449910	1.069412	0.763342
C176	C	1.699910	1.319412	1.013342
C177	C	0.949939	0.635155	0.263356
C178	C	1.199939	0.885155	0.513356
C179	C	1.449939	1.135155	0.763356
C180	C	1.699939	1.385155	1.013356
C181	C	0.909673	0.668054	0.303566
C182	C	1.159673	0.918054	0.553566
C183	C	1.409673	1.168054	0.803566
C184	C	1.659673	1.418054	1.053566
C185	C	0.869386	0.635205	0.343776
C186	C	1.119386	0.885205	0.593776
C187	C	1.369386	1.135205	0.843776
C188	C	1.619386	1.385205	1.093776
C189	C	0.869362	0.569464	0.343765
C190	C	1.119362	0.819464	0.593765
C191	C	1.369362	1.069464	0.843765
C192	C	1.619362	1.319464	1.093765
N193	N	0.854606	0.771336	0.308340
N194	N	1.104606	1.021336	0.558340
N195	N	1.354606	1.271336	0.808340
N196	N	1.604606	1.521336	1.058340
N197	N	0.854630	0.833787	0.308347
N198	N	1.104630	1.083787	0.558347
N199	N	1.354630	1.333787	0.808347
N200	N	1.604630	1.583787	1.058347
C201	C	0.909743	0.866129	0.303602
C202	C	1.159743	1.116129	0.553602
C203	C	1.409743	1.366129	0.803602
C204	C	1.659743	1.616129	1.053602
N205	N	0.964832	0.833659	0.298838
N206	N	1.214832	1.083659	0.548838
N207	N	1.464832	1.333659	0.798838
N208	N	1.714832	1.583659	1.048838
N209	N	0.964807	0.771202	0.298828
N210	N	1.214807	1.021202	0.548828
N211	N	1.464807	1.271202	0.798828
N212	N	1.714807	1.521202	1.048828
C213	C	0.909695	0.739339	0.303582
C214	C	1.159695	0.989339	0.553582
C215	C	1.409695	1.239339	0.803582
C216	C	1.659695	1.489339	1.053582
C217	C	0.950063	0.970255	0.263413
C218	C	1.200063	1.220255	0.513413
C219	C	1.450063	1.470255	0.763413
C220	C	1.700063	1.720255	1.013413
C221	C	0.950094	1.035999	0.263431
C222	C	1.200094	1.285999	0.513431
C223	C	1.450094	1.535999	0.763431
C224	C	1.700094	1.785999	1.013431
C225	C	0.869535	1.036048	0.343848
C226	C	1.119535	1.286048	0.593848
C227	C	1.369535	1.536048	0.843848
C228	C	1.619535	1.786048	1.093848
C229	C	0.869510	0.970305	0.343833
C230	C	1.119510	1.220305	0.593833
C231	C	1.369510	1.470305	0.843833
C232	C	1.619510	1.720305	1.093833
C233	C	0.909773	0.937413	0.303612
C234	C	1.159773	1.187413	0.553612
C235	C	1.409773	1.437413	0.803612
C236	C	1.659773	1.687413	1.053612
C237	C	0.909670	0.303019	0.140021
C238	C	1.159670	0.553019	0.390021
C239	C	1.409670	0.803019	0.640021
C240	C	1.659670	1.053019	0.890021
C241	C	0.909769	0.302848	0.070054
C242	C	1.159769	0.552848	0.320054
C243	C	1.409769	0.802848	0.570054
C244	C	1.659769	1.052848	0.820054
C245	C	0.950044	0.262761	0.570629
C246	C	1.200044	0.512761	0.820629
C247	C	1.450044	0.762761	1.070629
C248	C	1.700044	1.012761	1.320629
C249	C	0.950043	0.262734	0.636371
C250	C	1.200043	0.512734	0.886371
C251	C	1.450043	0.762734	1.136371
C252	C	1.700043	1.012734	1.386371
C253	C	0.909765	0.302989	0.669214
C254	C	1.159765	0.552989	0.919214
C255	C	1.409765	0.802989	1.169214
C256	C	1.659765	1.052989	1.419214
C257	C	0.869473	0.343263	0.636308
C258	C	1.119473	0.593263	0.886308
C259	C	1.369473	0.843263	1.136308
C260	C	1.619473	1.093263	1.386308
C261	C	0.869470	0.343285	0.570567
C262	C	1.119470	0.593285	0.820567
C263	C	1.369470	0.843285	1.070567
C264	C	1.619470	1.093285	1.320567
N265	N	0.904908	0.358058	0.772428
N266	N	1.154908	0.608058	1.022428
N267	N	1.404908	0.858058	1.272428
N268	N	1.654908	1.108058	1.522428
N269	N	0.904914	0.358036	0.834879
N270	N	1.154914	0.608036	1.084879
N271	N	1.404914	0.858036	1.334879
N272	N	1.654914	1.108036	1.584879
C273	C	0.909769	0.302926	0.867289
C274	C	1.159769	0.552926	1.117289
C275	C	1.409769	0.802926	1.367289
C276	C	1.659769	1.052926	1.617289
N277	N	0.914629	0.247837	0.834888
N278	N	1.164629	0.497837	1.084888
N279	N	1.414629	0.747837	1.334888
N280	N	1.664629	0.997837	1.584888
N281	N	0.914627	0.247860	0.772430
N282	N	1.164627	0.497860	1.022430
N283	N	1.414627	0.747860	1.272430
N284	N	1.664627	0.997860	1.522430
C285	C	0.909763	0.302970	0.740499
C286	C	1.159763	0.552970	0.990499
C287	C	1.409763	0.802970	1.240499
C288	C	1.659763	1.052970	1.490499
C289	C	0.950054	0.262621	0.971472
C290	C	1.200054	0.512621	1.221472
C291	C	1.450054	0.762621	1.471472
C292	C	1.700054	1.012621	1.721472
C293	C	0.950049	0.262593	1.037216
C294	C	1.200049	0.512593	1.287216
C295	C	1.450049	0.762593	1.537216
C296	C	1.700049	1.012593	1.787216
C297	C	0.869482	0.343128	1.037151
C298	C	1.119482	0.593128	1.287151
C299	C	1.369482	0.843128	1.537151
C300	C	1.619482	1.093128	1.787151
C301	C	0.869484	0.343151	0.971409
C302	C	1.119484	0.593151	1.221409
C303	C	1.369484	0.843151	1.471409
C304	C	1.619484	1.093151	1.721409
C305	C	0.909773	0.302898	0.938573
C306	C	1.159773	0.552898	1.188573
C307	C	1.409773	0.802898	1.438573
C308	C	1.659773	1.052898	1.688573
H309	H	0.670063	0.376266	0.376384
H310	H	0.920063	0.626266	0.626384
H311	H	1.170063	0.876266	0.876384
H312	H	1.420063	1.126266	1.126384
Br313	Br	1.004720	0.208131	0.526069
Br314	Br	1.254720	0.458131	0.776069
Br315	Br	1.504720	0.708131	1.026069
Br316	Br	1.754720	0.958131	1.276069
Br317	Br	0.814686	0.524891	0.398331
Br318	Br	1.064686	0.774891	0.648331
Br319	Br	1.314686	1.024891	0.898331
Br320	Br	1.564686	1.274891	1.148331
H321	H	0.269226	0.376183	0.376531
H322	H	0.519226	0.626183	0.626531
H323	H	0.769226	0.876183	0.876531
H324	H	1.019226	1.126183	1.126531
H325	H	0.836602	0.661996	0.376516
H326	H	1.086602	0.911996	0.626516
H327	H	1.336602	1.161996	0.876516
H328	H	1.586602	1.411996	1.126516
H329	H	0.982846	0.229937	0.663162
H330	H	1.232846	0.479937	0.913162
H331	H	1.482846	0.729937	1.163162
H332	H	1.732846	0.979937	1.413162
Br333	Br	1.004777	1.080570	0.208873
Br334	Br	1.254777	1.330570	0.458873
Br335	Br	1.504777	1.580570	0.708873
Br336	Br	1.754777	1.830570	0.958873
Br337	Br	0.814804	0.397892	0.680878
Br338	Br	1.064804	0.647892	0.930878
Br339	Br	1.314804	0.897892	1.180878
Br340	Br	1.564804	1.147892	1.430878
Br341	Br	1.004561	0.524775	0.208765
Br342	Br	1.254561	0.774775	0.458765
Br343	Br	1.504561	1.024775	0.708765
Br344	Br	1.754561	1.274775	0.958765
H345	H	0.269209	0.229884	0.230726
H346	H	0.519209	0.479884	0.480726
H347	H	0.769209	0.729884	0.730726
H348	H	1.019209	0.979884	0.980726
H349	H	0.982746	0.661899	0.230619
H350	H	1.232746	0.911899	0.480619
H351	H	1.482746	1.161899	0.730619
H352	H	1.732746	1.411899	0.980619
H353	H	0.670050	0.229954	0.230588
H354	H	0.920050	0.479954	0.480588
H355	H	1.170050	0.729954	0.730588
H356	H	1.420050	0.979954	0.980588
Br357	Br	0.132117	0.398035	0.398402
Br358	Br	0.382117	0.648035	0.648402
Br359	Br	0.632117	0.898035	0.898402
Br360	Br	0.882117	1.148035	1.148402
Br361	Br	1.004703	0.925612	0.208827
Br362	Br	1.254703	1.175612	0.458827
Br363	Br	1.504703	1.425612	0.708827
Br364	Br	1.754703	1.675612	0.958827
Br365	Br	0.532935	0.208044	0.208823
Br366	Br	0.782935	0.458044	0.458823
Br367	Br	1.032935	0.708044	0.708823
Br368	Br	1.282935	0.958044	0.958823
H369	H	0.149942	0.229857	0.230773
H370	H	0.399942	0.479857	0.480773
H371	H	0.649942	0.729857	0.730773
H372	H	0.899942	0.979857	0.980773
H373	H	0.836663	0.376078	0.543782
H374	H	1.086663	0.626078	0.793782
H375	H	1.336663	0.876078	1.043782
H376	H	1.586663	1.126078	1.293782
Br377	Br	0.814809	0.397753	1.081716
Br378	Br	1.064809	0.647753	1.331716
Br379	Br	1.314809	0.897753	1.581716
Br380	Br	1.564809	1.147753	1.831716
Br381	Br	0.814893	1.080689	0.398426
Br382	Br	1.064893	1.330689	0.648426
Br383	Br	1.314893	1.580689	0.898426
Br384	Br	1.564893	1.830689	1.148426
H385	H	0.836704	0.943564	0.376567
H386	H	1.086704	1.193564	0.626567
H387	H	1.336704	1.443564	0.876567
H388	H	1.586704	1.693564	1.126567
Br389	Br	0.814810	0.397809	0.926759
Br390	Br	1.064810	0.647809	1.176759
Br391	Br	1.314810	0.897809	1.426759
Br392	Br	1.564810	1.147809	1.676759
Br393	Br	1.004729	0.207992	0.926905
Br394	Br	1.254729	0.457992	1.176905
Br395	Br	1.504729	0.707992	1.426905
Br396	Br	1.754729	0.957992	1.676905
H397	H	0.550800	0.376236	0.376431
H398	H	0.800800	0.626236	0.626431
H399	H	1.050800	0.876236	0.876431
H400	H	1.300800	1.126236	1.126431
Br401	Br	1.004735	0.207943	1.081864
Br402	Br	1.254735	0.457943	1.331864
Br403	Br	1.504735	0.707943	1.581864
Br404	Br	1.754735	0.957943	1.831864
