data_functionalizedCrystal
_audit_creation_method	'MofGen! by Chris Wilmer'
_symmetry_space_group_name_H-M	'P1'
_symmetry_Int_Tables_number	1
_symmetry_cell_setting	triclinic
loop_
_symmetry_equiv_pos_as_xyz
  x,y,z
_cell_length_a	14.853567
_cell_length_b	14.971486
_cell_length_c	14.048226
_cell_angle_alpha	90.006640
_cell_angle_beta	90.003486
_cell_angle_gamma	83.624530
loop_
_atom_site_label
_atom_site_type_symbol
_atom_site_fract_x
_atom_site_fract_y
_atom_site_fract_z
O1	O	-1.196346	-0.116781	-0.079095
O2	O	-0.933884	-0.130693	-0.079112
O3	O	-1.072149	0.006462	-0.079096
O4	O	-1.058080	-0.253936	-0.079111
O5	O	-1.072133	0.006470	0.079225
O6	O	-0.933867	-0.130685	0.079210
O7	O	-1.196329	-0.116773	0.079226
Zn8	Zn	-1.065095	-0.123728	0.104355
Zn9	Zn	-1.065117	-0.123738	-0.104241
O10	O	-1.058063	-0.253928	0.079210
C11	C	-1.071512	0.039791	0.000064
C12	C	-1.069626	0.139088	0.000063
C13	C	-0.900287	-0.130058	0.000047
C14	C	-0.800203	-0.128169	0.000041
C15	C	-1.229926	-0.117408	0.000065
C16	C	-1.330009	-0.119297	0.000065
C17	C	-0.387686	-0.038712	0.000067
C18	C	-0.366375	-0.201655	0.000057
C19	C	-0.460408	-0.203431	0.000054
C20	C	-0.518085	-0.122846	0.000056
C21	C	-0.481728	-0.040486	0.000061
C22	C	-0.496772	-0.285790	0.000039
C23	C	-0.590811	-0.287569	0.000035
C24	C	-0.648490	-0.206984	0.000044
C25	C	-0.612127	-0.124620	0.000050
C26	C	-0.669804	-0.044035	0.000052
C27	C	-0.633444	0.038330	0.000065
C28	C	-0.539407	0.040100	0.000070
C29	C	-0.742527	-0.208754	0.000039
C30	C	-0.763847	-0.045809	0.000046
C31	C	-1.058701	-0.287257	0.000048
C32	C	-1.060586	-0.386554	0.000043
N33	N	-1.065087	-0.123720	0.246715
C34	C	-1.150854	0.196299	0.000069
C35	C	-1.149076	0.289598	0.000059
C36	C	-1.066071	0.325686	0.000050
C37	C	-0.984838	0.268468	0.000042
C38	C	-0.986616	0.175170	0.000045
C39	C	-0.981137	0.462931	0.000038
C40	C	-0.979359	0.556235	0.000037
C41	C	-1.143598	0.577360	0.000052
C42	C	-1.145376	0.484062	0.000055
C43	C	-1.064142	0.426850	0.000049
N44	N	-1.065133	-0.123739	-0.246601
C45	C	-1.126330	-0.063013	0.296540
C46	C	-1.126336	-0.063012	0.396198
C47	C	-1.065103	-0.123724	0.446029
C48	C	-1.003853	-0.184434	0.396197
C49	C	-1.003843	-0.184429	0.296541
C50	C	-1.003879	-0.184440	0.603911
C51	C	-1.003889	-0.184446	0.703574
C52	C	-1.126372	-0.063023	0.703568
C53	C	-1.126362	-0.063019	0.603912
C54	C	-1.065113	-0.123730	0.554087
H55	H	-0.810802	0.019814	0.000051
C56	C	-1.236680	0.444360	0.000066
C57	C	-1.260488	0.383111	-0.082142
C58	C	-1.351792	0.343408	-0.082134
C59	C	-1.419288	0.364955	0.000081
C60	C	-1.395482	0.426207	0.082295
C61	C	-1.304178	0.465910	0.082287
H62	H	-1.210522	0.367158	-0.143008
H63	H	-1.369414	0.298065	-0.142994
H64	H	-1.486876	0.335564	0.000087
H65	H	-1.445448	0.442160	0.143161
H66	H	-1.286555	0.511254	0.143148
H67	H	-0.772127	-0.275814	0.000030
C68	C	-0.893527	0.308157	0.000031
C69	C	-0.826037	0.286603	-0.082188
C70	C	-0.734724	0.326288	-0.082196
C71	C	-0.710901	0.387527	0.000014
C72	C	-0.778393	0.409084	0.082239
C73	C	-0.869706	0.369399	0.082248
H74	H	-0.843671	0.241268	-0.143051
H75	H	-0.684762	0.310330	-0.143065
H76	H	-0.643305	0.416904	0.000008
H77	H	-0.760759	0.454420	0.143102
H78	H	-0.919668	0.385358	0.143117
H79	H	-0.358077	0.028347	0.000081
H80	H	-0.319409	-0.267263	0.000047
C81	C	-1.193743	0.003763	0.758374
C82	C	-1.192135	0.105624	0.744687
C83	C	-1.259506	0.172403	0.799499
C84	C	-1.328485	0.137321	0.867997
C85	C	-1.330096	0.035454	0.881686
C86	C	-1.262725	-0.031325	0.826875
H87	H	-1.141070	0.131599	0.693978
H88	H	-1.258313	0.247812	0.789365
H89	H	-1.378357	0.186755	0.908572
H90	H	-1.381161	0.009479	0.932396
H91	H	-1.263918	-0.106734	0.837009
H92	H	-0.680417	0.103941	0.000060
H93	H	-1.218446	0.166924	0.000082
H94	H	-0.920472	0.128589	0.000040
H95	H	-0.954026	-0.233882	0.744141
C96	C	-1.193690	0.003772	0.241731
C97	C	-1.261052	0.070552	0.296543
C98	C	-1.328411	0.137342	0.241738
C99	C	-1.328408	0.137351	0.132120
C100	C	-1.261044	0.070569	0.077302
C101	C	-1.193684	0.003779	0.132108
H102	H	-1.261056	0.070547	0.377694
H103	H	-1.378279	0.186778	0.282319
H104	H	-1.378272	0.186793	0.091550
H105	H	-1.261039	0.070574	-0.003849
H106	H	-1.143817	-0.045657	0.091527
H107	H	-0.509793	0.107157	0.000103
H108	H	-0.449806	-0.351397	0.000028
C109	C	-1.193718	0.003761	0.549093
C110	C	-1.192105	0.105622	0.562804
C111	C	-1.259460	0.172404	0.507983
C112	C	-1.328427	0.137325	0.439451
C113	C	-1.330043	0.035459	0.425737
C114	C	-1.262689	-0.031323	0.480558
H115	H	-1.141049	0.131595	0.613538
H116	H	-1.258263	0.247813	0.518136
H117	H	-1.378287	0.186761	0.398870
H118	H	-1.381100	0.009486	0.375003
H119	H	-1.263885	-0.106732	0.470405
H120	H	-0.911769	0.585614	0.000045
H121	H	-1.176205	-0.013580	0.436765
C122	C	-0.936476	-0.251210	0.241731
C123	C	-0.869151	-0.318023	0.296539
C124	C	-0.801778	-0.384803	0.241731
C125	C	-0.801730	-0.384769	0.132113
C126	C	-0.869057	-0.317953	0.077298
C127	C	-0.936430	-0.251174	0.132107
H128	H	-0.869184	-0.318050	0.377690
H129	H	-0.751938	-0.434264	0.282309
H130	H	-0.751856	-0.434203	0.091540
H131	H	-0.869024	-0.317926	-0.003853
H132	H	-0.986270	-0.201712	0.091529
H133	H	-0.620407	-0.354635	0.000024
H134	H	-1.215220	0.336176	0.000066
H135	H	-0.954000	-0.233875	0.563347
H136	H	-1.209742	0.623946	0.000055
H137	H	-0.914988	0.416351	0.000030
H138	H	-0.953991	-0.233863	0.436775
