data_functionalizedCrystal
_audit_creation_method	'MofGen! by Chris Wilmer'
_symmetry_space_group_name_H-M	'P1'
_symmetry_Int_Tables_number	1
_symmetry_cell_setting	triclinic
loop_
_symmetry_equiv_pos_as_xyz
  x,y,z
_cell_length_a	15.538191
_cell_length_b	27.732048
_cell_length_c	14.185569
_cell_angle_alpha	76.951782
_cell_angle_beta	97.875798
_cell_angle_gamma	64.957374
loop_
_atom_site_label
_atom_site_type_symbol
_atom_site_fract_x
_atom_site_fract_y
_atom_site_fract_z
O1	O	1.230624	-0.142649	-0.083403
O2	O	1.730624	0.357351	0.416597
O3	O	0.955548	-0.086692	-0.083413
O4	O	1.455548	0.413308	0.416587
O5	O	1.101634	-0.186537	-0.083389
O6	O	1.601634	0.313463	0.416611
O7	O	1.084538	-0.042804	-0.083428
O8	O	1.584538	0.457196	0.416572
O9	O	1.144789	-0.216030	0.083453
O10	O	1.644789	0.283970	0.583453
O11	O	0.998703	-0.116185	0.083429
O12	O	1.498703	0.383815	0.583429
O13	O	1.273779	-0.172142	0.083438
O14	O	1.773779	0.327858	0.583438
Cu15	Cu	1.140181	-0.146856	0.098667
Cu16	Cu	1.640181	0.353144	0.598667
Cu17	Cu	1.089145	-0.111978	-0.098642
Cu18	Cu	1.589145	0.388022	0.401358
O19	O	1.127693	-0.072297	0.083414
O20	O	1.627693	0.427703	0.583414
C21	C	0.941944	-0.095584	0.000007
C22	C	1.441944	0.404416	0.500007
C23	C	0.837116	-0.078145	0.000004
C24	C	1.337116	0.421855	0.500004
C25	C	0.551856	-0.251395	0.000035
C26	C	1.051856	0.248605	0.500035
C27	C	0.453350	-0.234996	0.000030
C28	C	0.953350	0.265004	0.500030
C29	C	0.429558	-0.142756	0.000005
C30	C	0.929558	0.357244	0.500005
C31	C	0.528065	-0.159148	0.000015
C32	C	1.028065	0.340852	0.500015
C33	C	0.589206	-0.213468	0.000029
C34	C	1.089206	0.286532	0.500029
C35	C	0.565415	-0.121222	0.000009
C36	C	1.065415	0.378778	0.500009
C37	C	0.663913	-0.137612	0.000014
C38	C	1.163913	0.362388	0.500014
C39	C	0.725059	-0.191928	0.000025
C40	C	1.225059	0.308072	0.500025
C41	C	0.687703	-0.229858	0.000034
C42	C	1.187703	0.270142	0.500034
C43	C	0.504271	-0.066901	-0.000012
C44	C	1.004271	0.433099	0.499988
C45	C	0.541621	-0.028974	-0.000018
C46	C	1.041621	0.471026	0.499982
C47	C	0.640122	-0.045365	-0.000006
C48	C	1.140122	0.454635	0.499994
C49	C	0.701268	-0.099682	0.000005
C50	C	1.201268	0.400318	0.500005
C51	C	0.677478	-0.007436	-0.000015
C52	C	1.177478	0.492564	0.499985
C53	C	0.775975	-0.023826	-0.000010
C54	C	1.275975	0.476174	0.499990
C55	C	0.799766	-0.116072	0.000010
C56	C	1.299766	0.383928	0.500010
C57	C	1.122854	-0.219229	0.000035
C58	C	1.622854	0.280771	0.500035
C59	C	1.121776	-0.272700	0.000043
C60	C	1.621776	0.227300	0.500043
C61	C	1.201288	-0.625155	-0.000006
C62	C	1.701288	-0.125155	0.499994
C63	C	1.197277	-0.826124	-0.000020
C64	C	1.697277	-0.326124	0.499980
O65	O	1.269986	-0.869853	-0.000061
O66	O	1.769986	-0.369853	0.499939
N67	N	1.110657	-0.830382	-0.000022
N68	N	1.610657	-0.330382	0.499978
C69	C	1.025032	-0.784391	-0.000027
C70	C	1.525032	-0.284391	0.499973
O71	O	0.951262	-0.792622	-0.000040
O72	O	1.451262	-0.292622	0.499960
C73	C	1.029042	-0.583422	-0.000020
C74	C	1.529042	-0.083422	0.499980
C75	C	1.115670	-0.579170	-0.000008
C76	C	1.615670	-0.079170	0.499992
C77	C	1.287908	-0.620901	0.000005
C78	C	1.787908	-0.120901	0.500005
C79	C	1.288912	-0.570663	0.000014
C80	C	1.788912	-0.070663	0.500014
C81	C	1.203294	-0.524678	0.000012
C82	C	1.703294	-0.024678	0.500012
C83	C	1.116673	-0.528931	0.000001
C84	C	1.616673	-0.028931	0.500001
C85	C	0.943416	-0.537431	-0.000033
C86	C	1.443416	-0.037431	0.499967
C87	C	0.944426	-0.487187	-0.000033
C88	C	1.444426	0.012813	0.499967
C89	C	1.031054	-0.482935	-0.000021
C90	C	1.531054	0.017065	0.499979
C91	C	1.032059	-0.432708	0.000008
C92	C	1.532059	0.067292	0.500008
N93	N	1.118679	-0.428450	0.000010
N94	N	1.618679	0.071550	0.500010
C95	C	1.204296	-0.474435	0.000012
C96	C	1.704296	0.025565	0.500012
C97	C	1.022933	-0.889905	-0.000029
C98	C	1.522933	-0.389905	0.499971
C99	C	1.021931	-0.940147	-0.000029
C100	C	1.521931	-0.440147	0.499971
C101	C	1.194176	-0.981877	-0.000023
C102	C	1.694176	-0.481877	0.499977
C103	C	1.195179	-0.931634	-0.000016
C104	C	1.695179	-0.431634	0.499984
C105	C	1.109553	-0.885647	-0.000027
C106	C	1.609553	-0.385647	0.499973
C107	C	1.206397	-0.368929	0.000032
C108	C	1.706397	0.131071	0.500032
C109	C	1.207393	-0.318685	0.000045
C110	C	1.707393	0.181315	0.500045
C111	C	1.035148	-0.276959	0.000034
C112	C	1.535148	0.223041	0.500034
C113	C	1.034152	-0.327200	0.000027
C114	C	1.534152	0.172800	0.500027
C115	C	1.119783	-0.373185	0.000022
C116	C	1.619783	0.126815	0.500022
O117	O	0.959386	-0.388955	0.000038
O118	O	1.459386	0.111045	0.500038
O119	O	1.278050	-0.466190	0.000002
O120	O	1.778050	0.033810	0.500002
C121	C	1.200284	-0.675394	-0.000015
C122	C	1.700284	-0.175394	0.499985
C123	C	1.113664	-0.679647	-0.000026
C124	C	1.613664	-0.179647	0.499974
C125	C	1.028046	-0.633662	-0.000028
C126	C	1.528046	-0.133662	0.499972
C127	C	1.112661	-0.729890	-0.000026
C128	C	1.612661	-0.229890	0.499974
C129	C	1.198279	-0.775875	-0.000024
C130	C	1.698279	-0.275875	0.499976
C131	C	1.284899	-0.771617	-0.000022
C132	C	1.784899	-0.271617	0.499978
C133	C	1.285902	-0.721379	-0.000013
C134	C	1.785902	-0.221379	0.499987
C135	C	0.941426	-0.637919	-0.000030
C136	C	1.441426	-0.137919	0.499970
C137	C	0.940430	-0.688160	-0.000038
C138	C	1.440430	-0.188160	0.499962
C139	C	1.026048	-0.734145	-0.000036
C140	C	1.526048	-0.234145	0.499964
C141	C	1.287382	-0.163249	0.000016
C142	C	1.787382	0.336751	0.500016
C143	C	1.392208	-0.180687	0.000012
C144	C	1.892208	0.319313	0.500012
C145	C	1.106473	-0.039604	-0.000012
C146	C	1.606473	0.460396	0.499988
C147	C	1.107549	0.013868	-0.000027
C148	C	1.607549	0.513868	0.499973
N149	N	1.176084	-0.171389	0.237444
N150	N	1.676084	0.328611	0.737444
N151	N	1.053250	-0.087450	-0.237419
N152	N	1.553250	0.412550	0.262581
C153	C	0.947768	-0.015393	0.605056
C154	C	1.447768	0.484607	1.105056
C155	C	0.974970	-0.033974	0.710083
C156	C	1.474970	0.466026	1.210083
C157	C	1.104355	-0.122366	0.710065
C158	C	1.604355	0.377634	1.210065
C159	C	1.077161	-0.103793	0.605037
C160	C	1.577161	0.396207	1.105037
C161	C	0.998867	-0.050306	0.552541
C162	C	1.498867	0.449694	1.052541
C163	C	1.128260	-0.138707	0.552521
C164	C	1.628260	0.361293	1.052521
C165	C	1.101070	-0.120134	0.447502
C166	C	1.601070	0.379866	0.947502
C167	C	1.022782	-0.066648	0.394999
C168	C	1.522782	0.433352	0.894999
C169	C	0.971678	-0.031733	0.447522
C170	C	1.471678	0.468267	0.947522
C171	C	1.206558	-0.192193	0.605019
C172	C	1.706558	0.307807	1.105019
C173	C	1.257657	-0.227106	0.552503
C174	C	1.757657	0.272894	1.052503
C175	C	1.230463	-0.208535	0.447482
C176	C	1.730463	0.291465	0.947482
C177	C	1.152174	-0.155049	0.394979
C178	C	1.652174	0.344951	0.894979
C179	C	1.281567	-0.243450	0.394959
C180	C	1.781567	0.256550	0.894959
C181	C	1.254378	-0.224877	0.289940
C182	C	1.754378	0.275123	0.789940
C183	C	1.124985	-0.136476	0.289960
C184	C	1.624985	0.363524	0.789960
H185	H	0.805258	-0.205270	0.000015
H186	H	1.305258	0.294730	0.500015
H187	H	0.601643	-0.295628	0.000052
H188	H	1.101643	0.204372	0.500052
C189	C	1.302686	-0.314009	0.000059
C190	C	1.802686	0.185991	0.500059
H191	H	1.291030	-0.277504	0.000074
H192	H	1.791030	0.222496	0.500074
H193	H	1.322861	-0.320527	-0.058120
H194	H	1.822861	0.179473	0.441880
H195	H	1.352952	-0.341110	0.058250
H196	H	1.852952	0.158890	0.558250
H197	H	1.321407	-0.270656	0.595258
H198	H	1.821407	0.229344	1.095258
H199	H	1.345321	-0.286998	0.437715
H200	H	1.845321	0.213002	0.937715
H201	H	1.357632	-0.658340	0.000003
H202	H	1.857632	-0.158340	0.500003
H203	H	1.276125	-0.406366	0.000024
H204	H	1.776125	0.093634	0.500024
C205	C	0.754971	-0.289610	0.000059
C206	C	1.254971	0.210390	0.500059
H207	H	0.818983	-0.293939	0.000068
H208	H	1.318983	0.206061	0.500068
H209	H	0.728675	-0.295597	-0.058113
H210	H	1.228675	0.204403	0.441887
H211	H	0.758769	-0.316159	0.058257
H212	H	1.258769	0.183841	0.558257
C213	C	0.885554	0.027102	0.389770
C214	C	1.385554	0.527102	0.889770
H215	H	0.859013	0.045239	0.436085
H216	H	1.359013	0.545239	0.936085
H217	H	0.835898	0.023797	0.348810
H218	H	1.335898	0.523797	0.848810
H219	H	0.908629	0.048572	0.348794
H220	H	1.408629	0.548572	0.848794
C221	C	0.918713	0.004420	0.767847
C222	C	1.418713	0.504420	1.267847
H223	H	0.868176	0.038928	0.721538
H224	H	1.368176	0.538928	1.221538
H225	H	0.962957	0.011411	0.808829
H226	H	1.462957	0.511411	1.308829
H227	H	0.890272	-0.013396	0.808801
H228	H	1.390272	0.486604	1.308801
C229	C	1.310581	-0.263281	0.232169
C230	C	1.810581	0.236719	0.732169
H231	H	1.361096	-0.297798	0.278474
H232	H	1.861096	0.202202	0.778474
H233	H	1.339026	-0.245486	0.191188
H234	H	1.839026	0.254514	0.691188
H235	H	1.266292	-0.270259	0.191214
H236	H	1.766292	0.229741	0.691214
C237	C	0.850238	-0.436601	-0.000044
C238	C	1.350238	0.063399	0.499956
H239	H	0.863233	-0.406067	-0.000046
H240	H	1.363233	0.093933	0.499954
H241	H	0.829731	-0.446551	0.058131
H242	H	1.329731	0.053449	0.558131
H243	H	0.799644	-0.425973	-0.058239
H244	H	1.299644	0.074027	0.441761
H245	H	1.354613	-0.809069	-0.000015
H246	H	1.854613	-0.309069	0.499985
H247	H	0.963620	-0.330666	0.000044
H248	H	1.463620	0.169334	0.500044
C249	C	0.362300	-0.083010	-0.000004
C250	C	0.862300	0.416990	0.499996
H251	H	0.298291	-0.078681	0.000001
H252	H	0.798291	0.421319	0.500001
H253	H	0.358507	-0.056457	-0.058184
H254	H	0.858507	0.443543	0.441816
H255	H	0.388607	-0.077037	0.058186
H256	H	0.888607	0.422963	0.558186
H257	H	1.263889	-1.019327	-0.000021
H258	H	1.763889	-0.519327	0.499979
C259	C	1.190469	-0.181200	0.767816
C260	C	1.690469	0.318800	1.267816
H261	H	1.199341	-0.187263	0.837883
H262	H	1.699341	0.312737	1.337883
H263	H	1.248961	-0.183935	0.750589
H264	H	1.748961	0.316065	1.250589
H265	H	1.176219	-0.208703	0.750612
H266	H	1.676219	0.291297	1.250612
C267	C	1.290466	-0.926960	-0.000012
C268	C	1.790466	-0.426960	0.499988
H269	H	1.341307	-0.961545	-0.000016
H270	H	1.841307	-0.461545	0.499984
H271	H	1.309491	-0.918516	0.058166
H272	H	1.809491	-0.418516	0.558166
H273	H	1.279389	-0.897941	-0.058204
H274	H	1.779389	-0.397941	0.441796
H275	H	1.228695	-0.207312	0.690532
H276	H	1.728695	0.292688	1.190532
H277	H	0.422944	-0.265884	0.000033
H278	H	0.922944	0.234116	0.500033
H279	H	0.951394	-0.943606	-0.000021
H280	H	1.451394	-0.443606	0.499979
H281	H	1.359452	-0.567207	0.000020
H282	H	1.859452	-0.067207	0.500020
H283	H	0.953202	-0.852463	-0.000037
H284	H	1.453202	-0.352463	0.499963
C285	C	0.848122	-0.542095	-0.000055
C286	C	1.348122	-0.042095	0.499945
H287	H	0.797280	-0.507505	-0.000069
H288	H	1.297280	-0.007505	0.499931
H289	H	0.859180	-0.571113	0.058121
H290	H	1.359180	-0.071113	0.558121
H291	H	0.829100	-0.550533	-0.058249
H292	H	1.329100	-0.050533	0.441751
H293	H	0.424068	-0.053557	-0.000019
H294	H	0.924068	0.446443	0.499981
C295	C	0.867034	-0.175824	0.000035
C296	C	1.367034	0.324176	0.500035
H297	H	0.931045	-0.180153	0.000044
H298	H	1.431045	0.319847	0.500044
H299	H	0.840737	-0.181811	-0.058137
H300	H	1.340737	0.318189	0.441863
H301	H	0.870832	-0.202373	0.058233
H302	H	1.370832	0.297627	0.558233
H303	H	0.965441	-0.239510	0.000036
H304	H	1.465441	0.260490	0.500036
H305	H	0.884007	0.028160	0.562312
H306	H	1.384007	0.528160	1.062312
C307	C	0.474364	0.030772	-0.000026
C308	C	0.974364	0.530772	0.499974
H309	H	0.410354	0.035101	-0.000022
H310	H	0.910354	0.535101	0.499978
H311	H	0.470571	0.057325	-0.058206
H312	H	0.970571	0.557325	0.441794
H313	H	0.500671	0.036745	0.058164
H314	H	1.000671	0.536745	0.558164
H315	H	0.806388	0.007056	-0.000005
H316	H	1.306388	0.507056	0.499995
C317	C	0.610216	0.052312	-0.000034
C318	C	1.110216	0.552312	0.499966
H319	H	0.546206	0.056641	-0.000033
H320	H	1.046206	0.556641	0.499967
H321	H	0.606426	0.078862	-0.058216
H322	H	1.106426	0.578862	0.441784
H323	H	0.636515	0.058290	0.058154
H324	H	1.136515	0.558290	0.558154
C325	C	1.381191	-0.716707	-0.000009
C326	C	1.881191	-0.216707	0.499991
H327	H	1.432028	-0.751292	-0.000018
H328	H	1.932028	-0.251292	0.499982
H329	H	1.400222	-0.708265	0.058171
H330	H	1.900222	-0.208265	0.558171
H331	H	1.370114	-0.687686	-0.058199
H332	H	1.870114	-0.187686	0.441801
C333	C	1.038853	-0.077644	0.232203
C334	C	1.538853	0.422356	0.732203
H335	H	1.029977	-0.071587	0.162137
H336	H	1.529977	0.428413	0.662137
H337	H	1.053074	-0.050133	0.249400
H338	H	1.553074	0.449867	0.749400
H339	H	0.980363	-0.074922	0.249429
H340	H	1.480363	0.425078	0.749429
C341	C	0.845132	-0.692829	-0.000055
C342	C	1.345132	-0.192829	0.499945
H343	H	0.794287	-0.658241	-0.000065
H344	H	1.294287	-0.158241	0.499935
H345	H	0.856194	-0.721850	0.058118
H346	H	1.356194	-0.221850	0.558118
H347	H	0.826113	-0.701265	-0.058252
H348	H	1.326113	-0.201265	0.441748
H349	H	0.871704	-0.600480	-0.000034
H350	H	1.371704	-0.100480	0.499966
H351	H	1.000648	-0.051526	0.309485
H352	H	1.500648	0.448474	0.809485
