data_functionalizedCrystal
_audit_creation_method	'MofGen! by Chris Wilmer'
_symmetry_space_group_name_H-M	'P1'
_symmetry_Int_Tables_number	1
_symmetry_cell_setting	triclinic
loop_
_symmetry_equiv_pos_as_xyz
  x,y,z
_cell_length_a	16.109301
_cell_length_b	10.540510
_cell_length_c	14.586319
_cell_angle_alpha	89.998684
_cell_angle_beta	89.999213
_cell_angle_gamma	83.987396
loop_
_atom_site_label
_atom_site_type_symbol
_atom_site_fract_x
_atom_site_fract_y
_atom_site_fract_z
O1	O	1.104117	0.163161	-0.076177
O2	O	1.604117	0.663161	0.423823
O3	O	0.862178	0.183466	-0.076191
O4	O	1.362178	0.683466	0.423809
O5	O	0.988680	-0.011474	-0.076184
O6	O	1.488680	0.488526	0.423816
O7	O	0.977615	0.358101	-0.076185
O8	O	1.477615	0.858101	0.423815
O9	O	0.988671	-0.011477	0.076297
O10	O	1.488671	0.488523	0.576297
O11	O	0.862169	0.183463	0.076290
O12	O	1.362169	0.683463	0.576290
O13	O	1.104108	0.163158	0.076304
O14	O	1.604108	0.663158	0.576304
Cu15	Cu	0.983138	0.173311	0.090219
Cu16	Cu	1.483138	0.673311	0.590219
Cu17	Cu	0.983148	0.173314	-0.090107
Cu18	Cu	1.483148	0.673314	0.409893
O19	O	0.977606	0.358099	0.076296
O20	O	1.477606	0.858099	0.576296
C21	C	0.831194	0.182642	0.000047
C22	C	1.331194	0.682642	0.500047
C23	C	0.738883	0.180176	0.000042
C24	C	1.238883	0.680176	0.500042
C25	C	0.517276	0.290116	0.000052
C26	C	1.017276	0.790116	0.500052
C27	C	0.430541	0.287789	0.000058
C28	C	0.930541	0.787789	0.500058
C29	C	0.449017	0.056499	0.000055
C30	C	0.949017	0.556499	0.500055
C31	C	0.535750	0.058828	0.000056
C32	C	1.035750	0.558828	0.500056
C33	C	0.569877	0.175640	0.000050
C34	C	1.069877	0.675640	0.500050
C35	C	0.396409	0.170985	0.000055
C36	C	0.896409	0.670985	0.500055
C37	C	0.302368	0.168461	0.000061
C38	C	0.802368	0.668461	0.500061
C39	C	0.663924	0.178164	0.000045
C40	C	1.163924	0.678164	0.500045
C41	C	0.987851	-0.058767	0.000055
C42	C	1.487851	0.441233	0.500055
C43	C	0.985384	-0.199682	0.000049
C44	C	1.485384	0.300318	0.500049
C45	C	1.073265	-0.418390	0.000404
C46	C	1.573265	0.081610	0.500404
C47	C	1.075896	-0.271832	0.000055
C48	C	1.575896	0.228168	0.500055
C49	C	0.939056	-0.243779	-0.087026
C50	C	1.439056	0.256221	0.412974
C51	C	0.937065	-0.390511	-0.087094
C52	C	1.437065	0.109489	0.412906
C53	C	0.935170	-0.390296	0.086305
C54	C	1.435170	0.109704	0.586305
C55	C	0.939463	-0.244016	0.087452
C56	C	1.439463	0.255984	0.587452
C57	C	1.135093	0.163982	0.000063
C58	C	1.635093	0.663982	0.500063
C59	C	1.227403	0.166448	0.000062
C60	C	1.727403	0.666448	0.500062
C61	C	0.978435	0.405392	0.000055
C62	C	1.478435	0.905392	0.500055
C63	C	0.980902	0.546307	0.000055
C64	C	1.480902	1.046307	0.500055
N65	N	0.983136	0.173307	0.217051
N66	N	1.483136	0.673307	0.717051
N67	N	0.983156	0.173307	-0.216939
N68	N	1.483156	0.673307	0.283061
C69	C	1.039171	0.087017	0.452061
C70	C	1.539171	0.587017	0.952061
C71	C	1.039173	0.087014	0.548042
C72	C	1.539173	0.587014	1.048042
C73	C	0.927116	0.259602	0.548045
C74	C	1.427116	0.759602	1.048045
C75	C	0.927110	0.259598	0.452065
C76	C	1.427110	0.759598	0.952065
C77	C	0.983142	0.173307	0.404076
C78	C	1.483142	0.673307	0.904076
C79	C	0.983150	0.173308	0.596037
C80	C	1.483150	0.673308	1.096037
C81	C	0.983153	0.173305	0.700104
C82	C	1.483153	0.673305	1.200104
C83	C	0.983139	0.173307	0.300002
C84	C	1.483139	0.673307	0.800002
H85	H	1.112145	-0.243006	0.062473
H86	H	1.612145	0.256994	0.562473
C87	C	1.056142	-0.085786	0.344180
C88	C	1.556142	0.414214	0.844180
C89	C	1.100732	-0.007901	0.399332
C90	C	1.600732	0.492099	0.899332
H91	H	1.094143	-0.144400	0.311633
H92	H	1.594143	0.355600	0.811633
H93	H	1.021255	-0.131393	0.381645
H94	H	1.521255	0.368607	0.881645
H95	H	1.022799	-0.034384	0.301847
H96	H	1.522799	0.465616	0.801847
H97	H	1.134071	-0.059303	0.441670
H98	H	1.634071	0.440697	0.941670
H99	H	1.135633	0.037709	0.361863
H100	H	1.635633	0.537709	0.861863
C101	C	0.922973	-0.508019	-0.226257
C102	C	1.422973	-0.008019	0.273743
C103	C	0.979820	-0.445418	-0.174953
C104	C	1.479820	0.054582	0.325047
H105	H	0.949370	-0.541904	-0.280501
H106	H	1.449370	-0.041904	0.219499
H107	H	0.904551	-0.575388	-0.190918
H108	H	1.404551	-0.075388	0.309082
H109	H	0.876451	-0.449210	-0.242160
H110	H	1.376451	0.050790	0.257840
H111	H	1.026340	-0.504230	-0.159044
H112	H	1.526340	-0.004230	0.340956
H113	H	0.998254	-0.378041	-0.210299
H114	H	1.498254	0.121959	0.289701
H115	H	0.867213	-0.411477	0.086888
H116	H	1.367213	0.088523	0.586888
H117	H	1.084795	0.016747	0.587109
H118	H	1.584795	0.516747	1.087109
C119	C	0.834151	-0.097649	-0.015721
C120	C	1.334151	0.402351	0.484279
C121	C	0.849105	-0.178517	-0.091415
C122	C	1.349105	0.321483	0.408585
H123	H	0.778621	-0.057353	-0.018435
H124	H	1.278621	0.442647	0.481565
H125	H	0.841470	-0.146088	0.039133
H126	H	1.341470	0.353912	0.539133
H127	H	0.872212	-0.034646	-0.016537
H128	H	1.372212	0.465354	0.483463
H129	H	0.811047	-0.241526	-0.090596
H130	H	1.311047	0.258474	0.409404
H131	H	0.841777	-0.130075	-0.146284
H132	H	1.341777	0.369925	0.353716
H133	H	0.963930	-0.432889	0.152308
H134	H	1.463930	0.067111	0.652308
H135	H	0.869368	-0.412541	-0.091043
H136	H	1.369368	0.087459	0.408957
H137	H	0.545058	0.385232	0.000054
H138	H	1.045058	0.885232	0.500054
H139	H	1.108328	-0.462395	-0.061685
H140	H	1.608328	0.037605	0.438315
C141	C	0.814146	0.287104	0.656001
C142	C	1.314146	0.787104	1.156001
C143	C	0.865536	0.354456	0.600803
C144	C	1.365536	0.854456	1.100803
H145	H	0.776134	0.345668	0.688575
H146	H	1.276134	0.845668	1.188575
H147	H	0.783928	0.234265	0.618565
H148	H	1.283928	0.734265	1.118565
H149	H	0.847527	0.235716	0.698311
H150	H	1.347527	0.735716	1.198311
H151	H	0.832155	0.405837	0.558488
H152	H	1.332155	0.905837	1.058488
H153	H	0.895756	0.407317	0.638243
H154	H	1.395756	0.907317	1.138243
H155	H	0.971237	-0.213380	-0.151823
H156	H	1.471237	0.286620	0.348177
H157	H	0.881481	0.329866	0.412993
H158	H	1.381481	0.829866	0.912993
H159	H	0.387716	0.381008	0.000062
H160	H	0.887716	0.881008	0.500062
H161	H	0.421221	-0.038605	0.000065
H162	H	0.921221	0.461395	0.500065
H163	H	0.578580	-0.034399	0.000056
H164	H	1.078580	0.465601	0.500056
H165	H	1.108524	-0.460849	0.062850
H166	H	1.608524	0.039151	0.562850
H167	H	0.973174	-0.215886	0.151869
H168	H	1.473174	0.284114	0.651869
H169	H	1.112363	-0.243946	-0.062467
H170	H	1.612363	0.256054	0.437533
H171	H	0.873382	-0.194008	0.092706
H172	H	1.373382	0.305992	0.592706
