data_functionalizedCrystal
_audit_creation_method	'MofGen! by Chris Wilmer'
_symmetry_space_group_name_H-M	'P1'
_symmetry_Int_Tables_number	1
_symmetry_cell_setting	triclinic
loop_
_symmetry_equiv_pos_as_xyz
  x,y,z
_cell_length_a	10.967926
_cell_length_b	15.944493
_cell_length_c	10.065875
_cell_angle_alpha	98.793649
_cell_angle_beta	93.120479
_cell_angle_gamma	84.105668
loop_
_atom_site_label
_atom_site_type_symbol
_atom_site_fract_x
_atom_site_fract_y
_atom_site_fract_z
O1	O	1.612854	0.146480	0.265864
O2	O	1.262810	0.148879	0.183534
O3	O	1.447429	0.025700	0.226945
O4	O	1.428235	0.269658	0.222453
O5	O	1.412225	0.049288	0.445656
O6	O	1.227605	0.172466	0.402244
O7	O	1.577650	0.170067	0.484575
Zn8	Zn	1.397038	0.175011	0.478135
Zn9	Zn	1.443422	0.143934	0.189974
O10	O	1.393031	0.293245	0.441164
C11	C	1.200415	0.158715	0.282353
C12	C	1.066946	0.152875	0.250961
C13	C	0.989204	0.162490	0.350263
C14	C	0.851257	0.156453	0.317820
C15	C	1.429043	0.006174	0.336110
C16	C	1.426695	-0.087150	0.335540
C17	C	1.535361	-0.319505	0.361125
C18	C	1.494116	-0.383537	0.239506
C19	C	1.422335	-0.258006	0.334532
C20	C	1.459381	-0.360259	0.455132
C21	C	1.418131	-0.423045	0.333565
C22	C	1.381135	-0.320818	0.212831
C23	C	1.346401	-0.297526	0.428558
C24	C	1.305078	-0.361531	0.306894
C25	C	1.424760	-0.162931	0.335088
C26	C	1.415698	-0.518117	0.332997
C27	C	1.640046	0.160230	0.385752
C28	C	1.773516	0.166070	0.417137
C29	C	1.411417	0.312772	0.331996
C30	C	1.413767	0.406095	0.332557
N31	N	1.365392	0.196220	0.674799
N32	N	1.475078	0.122719	-0.006688
C33	C	1.432403	0.151308	0.758335
C34	C	1.408056	0.167638	0.909777
H35	H	1.632737	-0.300841	0.383915
H36	H	1.332651	0.218179	0.950368
H37	H	1.556524	-0.420821	0.159565
O38	O	1.275514	0.256616	0.723085
C39	C	1.300750	0.336742	0.694237
H40	H	1.363100	0.327296	0.605108
H41	H	1.348321	0.372803	0.785811
C42	C	1.103252	0.399917	0.768892
C43	C	1.179823	0.388315	0.659414
H44	H	1.028659	0.431732	0.747418
H45	H	1.086250	0.345936	0.788333
H46	H	1.142909	0.429965	0.845194
H47	H	1.140171	0.358259	0.583120
H48	H	1.196814	0.442293	0.639960
H49	H	1.207653	-0.380053	0.283918
H50	H	0.815694	0.143750	0.208777
H51	H	1.348120	-0.303334	0.110347
O52	O	1.272151	-0.253055	0.524115
C53	C	1.313794	-0.272875	0.651683
H54	H	1.415181	-0.297223	0.648715
H55	H	1.259025	-0.324207	0.679636
C56	C	1.171784	-0.162389	0.760926
C57	C	1.296312	-0.192287	0.757283
H58	H	1.160995	-0.112680	0.826067
H59	H	1.143724	-0.149038	0.674981
H60	H	1.126157	-0.205173	0.784216
H61	H	1.341934	-0.149507	0.733977
H62	H	1.324379	-0.205629	0.843227
O63	O	0.815895	0.181075	0.547256
C64	C	0.787255	0.115300	0.615849
H65	H	0.773450	0.055753	0.540247
H66	H	0.699482	0.136489	0.672462
C67	C	0.910140	0.168405	0.809281
C68	C	0.893195	0.095266	0.716427
H69	H	0.975485	0.156049	0.871327
H70	H	0.929432	0.212721	0.763072
H71	H	0.836988	0.186055	0.856444
H72	H	0.966340	0.077624	0.669254
H73	H	0.873917	0.050946	0.762631
O74	O	1.499011	-0.381172	0.577292
C75	C	1.620406	-0.360067	0.605392
H76	H	1.639311	-0.308527	0.544319
H77	H	1.686958	-0.419146	0.577359
C78	C	1.614356	-0.390131	0.831465
C79	C	1.637571	-0.326824	0.756463
H80	H	1.624947	-0.369629	0.924654
H81	H	1.532571	-0.404353	0.812533
H82	H	1.669819	-0.439359	0.808090
H83	H	1.582099	-0.277602	0.779827
H84	H	1.719347	-0.312593	0.775403
H85	H	1.507795	0.100764	0.717738
O86	O	1.564880	0.062245	0.945065
C87	C	1.539500	-0.017796	0.974141
H88	H	1.437113	-0.016912	0.989362
H89	H	1.593187	-0.031858	1.069716
C90	C	1.703317	-0.088514	0.837538
C91	C	1.577562	-0.087430	0.856221
H92	H	1.726800	-0.131469	0.764803
H93	H	1.720420	-0.034589	0.817953
H94	H	1.748040	-0.100230	0.917192
H95	H	1.532840	-0.075705	0.776574
H96	H	1.560452	-0.141356	0.875790
O97	O	1.031793	0.177526	0.480297
C98	C	1.116818	0.109172	0.507601
H99	H	1.156690	0.074725	0.409516
H100	H	1.068621	0.062804	0.557396
C101	C	1.171966	0.185984	0.723124
C102	C	1.220947	0.143679	0.602656
H103	H	1.236196	0.207267	0.781764
H104	H	1.114681	0.232034	0.704733
H105	H	1.131803	0.147336	0.764604
H106	H	1.261095	0.182329	0.561171
H107	H	1.278242	0.097636	0.621043
H108	H	1.031377	0.140172	0.141925
