data_functionalizedCrystal
_audit_creation_method	'MofGen! by Chris Wilmer'
_symmetry_space_group_name_H-M	'P1'
_symmetry_Int_Tables_number	1
_symmetry_cell_setting	triclinic
loop_
_symmetry_equiv_pos_as_xyz
  x,y,z
_cell_length_a	19.121063
_cell_length_b	19.121102
_cell_length_c	19.120904
_cell_angle_alpha	90.088173
_cell_angle_beta	85.258387
_cell_angle_gamma	89.873098
loop_
_atom_site_label
_atom_site_type_symbol
_atom_site_fract_x
_atom_site_fract_y
_atom_site_fract_z
Zn1	Zn	-0.343506	-1.039579	0.456040
Zn2	Zn	-0.010172	-0.706246	0.789373
Zn3	Zn	0.323161	-0.372913	1.122706
Zn4	Zn	-0.456149	-1.039493	0.343386
Zn5	Zn	-0.122815	-0.706159	0.676720
Zn6	Zn	0.210518	-0.372826	1.010053
Zn7	Zn	-0.333518	-0.927792	0.333417
Zn8	Zn	-0.000184	-0.594459	0.666750
Zn9	Zn	0.333149	-0.261125	1.000084
Zn10	Zn	-0.455677	-0.917325	0.455570
Zn11	Zn	-0.122343	-0.583992	0.788903
Zn12	Zn	0.210990	-0.250658	1.122236
O13	O	-0.397212	-0.981047	0.397103
O14	O	-0.063879	-0.647714	0.730436
O15	O	0.269454	-0.314381	1.063770
O16	O	-0.362826	-1.137479	0.445465
O17	O	-0.029492	-0.804145	0.778798
O18	O	0.303841	-0.470812	1.112131
O19	O	-0.435899	-1.029020	0.243797
O20	O	-0.102566	-0.695686	0.577130
O21	O	0.230768	-0.362353	0.910464
O22	O	-0.236577	-0.947038	0.345708
O23	O	0.096756	-0.613704	0.679041
O24	O	0.430090	-0.280371	1.012374
O25	O	-0.445584	-1.137415	0.362699
O26	O	-0.112251	-0.804082	0.696032
O27	O	0.221083	-0.470748	1.029366
O28	O	-0.243915	-1.029167	0.435798
O29	O	0.089418	-0.695834	0.769131
O30	O	0.422752	-0.362501	1.102465
O31	O	-0.345802	-0.946954	0.236473
O32	O	-0.012469	-0.613620	0.569806
O33	O	0.320864	-0.280287	0.903139
O34	O	-0.345345	-0.828493	0.345252
O35	O	-0.012011	-0.495159	0.678585
O36	O	0.321322	-0.161826	1.011919
O37	O	-0.444780	-0.929198	0.553899
O38	O	-0.111446	-0.595865	0.887232
O39	O	0.221887	-0.262532	1.220566
O40	O	-0.435094	-0.820803	0.434997
O41	O	-0.101761	-0.487469	0.768330
O42	O	0.231572	-0.154136	1.101663
O43	O	-0.362368	-1.019018	0.554244
O44	O	-0.029035	-0.685684	0.887577
O45	O	0.304299	-0.352351	1.220911
O46	O	-0.554352	-1.018870	0.362243
O47	O	-0.221018	-0.685537	0.695577
O48	O	0.112315	-0.352204	1.028910
O49	O	-0.554005	-0.929114	0.444664
O50	O	-0.220672	-0.595781	0.777997
O51	O	0.112662	-0.262448	1.111330
C52	C	-0.389085	-0.799261	0.388992
C53	C	-0.055752	-0.465927	0.722325
C54	C	0.277582	-0.132594	1.055659
C55	C	-0.385626	-0.721490	0.385539
C56	C	-0.052292	-0.388157	0.718873
C57	C	0.281041	-0.054823	1.052206
C58	C	-0.579659	-0.972865	0.404501
C59	C	-0.246326	-0.639532	0.737834
C60	C	0.087008	-0.306199	1.071167
C61	C	-0.657714	-0.969428	0.407691
C62	C	-0.324381	-0.636095	0.741025
C63	C	0.008952	-0.302761	1.074358
C64	C	-0.404635	-0.972950	0.580263
C65	C	-0.071302	-0.639617	0.913597
C66	C	0.262031	-0.306283	1.246930
C67	C	-0.407799	-0.969500	0.658315
C68	C	-0.074465	-0.636166	0.991649
C69	C	0.258868	-0.302833	1.324982
C70	C	-0.694545	-1.014577	0.366317
C71	C	-0.361212	-0.681244	0.699651
C72	C	-0.027879	-0.347911	1.032984
C73	C	-0.767887	-1.011348	0.369323
C74	C	-0.434554	-0.678015	0.702656
C75	C	-0.101220	-0.344682	1.035990
C76	C	-0.804396	-0.962966	0.413699
C77	C	-0.471063	-0.629633	0.747032
C78	C	-0.137729	-0.296300	1.080366
C79	C	-0.767560	-0.917815	0.455078
C80	C	-0.434227	-0.584482	0.788411
C81	C	-0.100893	-0.251148	1.121744
C82	C	-0.694220	-0.921048	0.452076
C83	C	-0.360887	-0.587714	0.785409
C84	C	-0.027553	-0.254381	1.118742
C85	C	-1.025828	-0.950869	0.424912
C86	C	-0.692494	-0.617536	0.758245
C87	C	-0.359161	-0.284202	1.091579
C88	C	-1.099173	-0.947638	0.427909
C89	C	-0.765839	-0.614305	0.761243
C90	C	-0.432506	-0.280972	1.094576
C91	C	-1.099494	-1.041173	0.342155
C92	C	-0.766161	-0.707840	0.675488
C93	C	-0.432828	-0.374507	1.008822
C94	C	-1.026153	-1.044399	0.339154
C95	C	-0.692819	-0.711065	0.672487
C96	C	-0.359486	-0.377732	1.005820
C97	C	-0.989323	-0.999250	0.380535
C98	C	-0.655990	-0.665917	0.713869
C99	C	-0.322657	-0.332583	1.047202
C100	C	-0.879363	-0.959663	0.416770
C101	C	-0.546029	-0.626330	0.750104
C102	C	-0.212696	-0.292997	1.083437
C103	C	-0.914358	-1.002557	0.377467
C104	C	-0.581025	-0.669224	0.710800
C105	C	-0.247692	-0.335890	1.044134
C106	C	-0.214054	-0.989280	0.389693
C107	C	0.119279	-0.655946	0.723026
C108	C	0.452612	-0.322613	1.056360
C109	C	-0.136003	-0.992788	0.386535
C110	C	0.197330	-0.659454	0.719869
C111	C	0.530663	-0.326121	1.053202
C112	C	-0.405372	-1.163544	0.405246
C113	C	-0.072038	-0.830211	0.738580
C114	C	0.261295	-0.496877	1.071913
C115	C	-0.408849	-1.241313	0.408717
C116	C	-0.075515	-0.907980	0.742050
C117	C	0.257818	-0.574646	1.075383
C118	C	-0.430793	-0.680968	0.430575
C119	C	-0.097460	-0.347634	0.763908
C120	C	0.235873	-0.014301	1.097242
C121	C	-0.427534	-0.607894	0.427334
C122	C	-0.094201	-0.274561	0.760667
C123	C	0.239133	0.058772	1.094000
C124	C	-0.379110	-0.575344	0.379053
C125	C	-0.045776	-0.242011	0.712386
C126	C	0.287557	0.091323	1.045720
C127	C	-0.333937	-0.615872	0.334016
C128	C	-0.000604	-0.282538	0.667349
C129	C	0.332729	0.050795	1.000682
C130	C	-0.337194	-0.688944	0.337261
C131	C	-0.003860	-0.355611	0.670594
C132	C	0.329473	-0.022277	1.003927
C133	C	-0.366933	-0.354913	0.366924
C134	C	-0.033599	-0.021579	0.700257
C135	C	0.299734	0.311754	1.033591
C136	C	-0.363681	-0.281835	0.363681
C137	C	-0.030348	0.051498	0.697014
C138	C	0.302986	0.384831	1.030348
C139	C	-0.457277	-0.273863	0.457000
C140	C	-0.123944	0.059471	0.790334
C141	C	0.209389	0.392804	1.123667
C142	C	-0.460532	-0.346937	0.460238
C143	C	-0.127199	-0.013603	0.793572
C144	C	0.206134	0.319730	1.126905
C145	C	-0.415357	-0.387458	0.415203
C146	C	-0.082024	-0.054124	0.748537
C147	C	0.251309	0.279209	1.081870
C148	C	-0.375778	-0.500651	0.375738
C149	C	-0.042445	-0.167318	0.709071
C150	C	0.290888	0.166015	1.042404
C151	C	-0.418686	-0.462149	0.418523
C152	C	-0.085353	-0.128816	0.751856
C153	C	0.247981	0.204517	1.085190
C154	C	-0.389769	-0.989156	0.214655
C155	C	-0.056436	-0.655822	0.547988
C156	C	0.276898	-0.322489	0.881322
C157	C	-0.386414	-0.992751	0.136602
C158	C	-0.053081	-0.659417	0.469935
C159	C	0.280253	-0.326084	0.803268
C160	C	-0.366379	-1.014640	0.695165
C161	C	-0.033046	-0.681307	1.028499
C162	C	0.300287	-0.347974	1.361832
C163	C	-0.369348	-1.011390	0.768503
C164	C	-0.036015	-0.678056	1.101836
C165	C	0.297318	-0.344723	1.435170
C166	C	-0.413741	-0.963001	0.804990
C167	C	-0.080408	-0.629668	1.138323
C168	C	0.252926	-0.296335	1.471656
C169	C	-0.455162	-0.917856	0.768135
C170	C	-0.121828	-0.584522	1.101468
C171	C	0.211505	-0.251189	1.434801
C172	C	-0.452188	-0.921103	0.694798
C173	C	-0.118855	-0.587770	1.028131
C174	C	0.214478	-0.254437	1.361465
C175	C	-0.424862	-0.950853	1.026410
C176	C	-0.091528	-0.617519	1.359743
C177	C	0.241805	-0.284186	1.693076
C178	C	-0.427833	-0.947610	1.099752
C179	C	-0.094500	-0.614276	1.433085
C180	C	0.238833	-0.280943	1.766418
C181	C	-0.342019	-1.041143	1.100115
C182	C	-0.008685	-0.707810	1.433448
C183	C	0.324648	-0.374477	1.766782
C184	C	-0.339052	-1.044390	1.026777
C185	C	-0.005719	-0.711056	1.360110
C186	C	0.327614	-0.377723	1.693444
C187	C	-0.380470	-0.999242	0.989928
C188	C	-0.047137	-0.665908	1.323261
C189	C	0.286196	-0.332575	1.656595
C190	C	-0.416779	-0.959679	0.879953
C191	C	-0.083445	-0.626346	1.213286
C192	C	0.249888	-0.293012	1.546619
C193	C	-0.377429	-1.002561	0.914966
C194	C	-0.044095	-0.669228	1.248299
C195	C	0.289238	-0.335894	1.581633
H196	H	-0.664824	-1.053972	0.330178
H197	H	-0.331491	-0.720639	0.663512
H198	H	0.001843	-0.387306	0.996845
H199	H	-0.464315	-0.574904	0.464006
H200	H	-0.130982	-0.241571	0.797339
H201	H	0.202352	0.091763	1.130672
H202	H	-1.128897	-0.908248	0.464059
H203	H	-0.795564	-0.574914	0.797392
H204	H	-0.462230	-0.241581	1.130725
H205	H	-0.341281	-1.041956	0.885255
H206	H	-0.007948	-0.708622	1.218589
H207	H	0.325385	-0.375289	1.551922
Cl208	Cl	-0.491676	-0.721880	0.491270
Cl209	Cl	-0.158343	-0.388547	0.824604
Cl210	Cl	0.174991	-0.055214	1.157937
H211	H	-0.300410	-0.721937	0.300591
H212	H	0.032923	-0.388603	0.633925
H213	H	0.366257	-0.055270	0.967258
Cl214	Cl	-0.317308	-1.068171	0.814828
Cl215	Cl	0.016025	-0.734837	1.148162
Cl216	Cl	0.349358	-0.401504	1.481495
Cl217	Cl	-0.273056	-0.574952	0.273324
Cl218	Cl	0.060277	-0.241618	0.606657
Cl219	Cl	0.393610	0.091715	0.939991
Cl220	Cl	-0.283243	-1.105224	0.980913
Cl221	Cl	0.050091	-0.771890	1.314247
Cl222	Cl	0.383424	-0.438557	1.647580
H223	H	-0.336353	-0.474141	0.336426
H224	H	-0.003019	-0.140808	0.669759
H225	H	0.330314	0.192526	1.003093
Cl226	Cl	-0.476931	-0.894095	0.980095
Cl227	Cl	-0.143598	-0.560762	1.313428
Cl228	Cl	0.189736	-0.227428	1.646761
H229	H	-0.491305	-0.878454	0.797848
H230	H	-0.157971	-0.545121	1.131181
H231	H	0.175362	-0.211788	1.464514
H232	H	-0.324240	-0.255336	0.324369
H233	H	0.009093	0.077998	0.657703
H234	H	0.342426	0.411331	0.991036
H235	H	-0.308298	-1.077899	1.130125
H236	H	0.025036	-0.744566	1.463458
H237	H	0.358369	-0.411233	1.796792
Cl238	Cl	-0.310139	-0.405844	0.310310
Cl239	Cl	0.023194	-0.072511	0.643643
Cl240	Cl	0.356528	0.260822	0.976977
H241	H	-0.330232	-1.054046	0.665463
H242	H	0.003101	-0.720712	0.998797
H243	H	0.336434	-0.387379	1.332130
H244	H	-0.463985	-0.908204	1.129457
H245	H	-0.130651	-0.574870	1.462790
H246	H	0.202682	-0.241537	1.796124
H247	H	-0.494055	-0.240863	0.493666
H248	H	-0.160722	0.092471	0.827000
H249	H	0.172612	0.425804	1.160333
Cl250	Cl	-0.479560	-0.503070	0.479216
Cl251	Cl	-0.146226	-0.169737	0.812550
Cl252	Cl	0.187107	0.163596	1.145883
H253	H	-0.499966	-0.373433	0.499552
H254	H	-0.166633	-0.040100	0.832885
H255	H	0.166701	0.293233	1.166219
Cl256	Cl	-0.814186	-1.068113	0.317309
Cl257	Cl	-0.480852	-0.734779	0.650643
Cl258	Cl	-0.147519	-0.401446	0.983976
Cl259	Cl	-0.813458	-0.856995	0.510870
Cl260	Cl	-0.480124	-0.523662	0.844203
Cl261	Cl	-0.146791	-0.190329	1.177536
Cl262	Cl	-0.504258	-0.864350	0.648472
Cl263	Cl	-0.170925	-0.531017	0.981805
Cl264	Cl	0.162408	-0.197684	1.315139
Cl265	Cl	-0.980262	-1.105234	0.283375
Cl266	Cl	-0.646928	-0.771901	0.616708
Cl267	Cl	-0.313595	-0.438567	0.950041
Cl268	Cl	-0.472588	-0.898852	0.925828
Cl269	Cl	-0.139255	-0.565519	1.259162
Cl270	Cl	0.194079	-0.232186	1.592495
Cl271	Cl	-1.145798	-1.097932	0.290141
Cl272	Cl	-0.812465	-0.764599	0.623474
Cl273	Cl	-0.479132	-0.431266	0.956808
H274	H	-0.995847	-0.914106	0.458605
H275	H	-0.662513	-0.580773	0.791938
H276	H	-0.329180	-0.247439	1.125272
Cl277	Cl	-0.647918	-0.864288	0.504093
Cl278	Cl	-0.314585	-0.530955	0.837427
Cl279	Cl	0.018748	-0.197622	1.170760
H280	H	-0.884631	-1.041952	0.341339
H281	H	-0.551297	-0.708619	0.674672
H282	H	-0.217964	-0.375286	1.008005
H283	H	-0.909097	-0.920269	0.452900
H284	H	-0.575763	-0.586936	0.786234
H285	H	-0.242430	-0.253602	1.119567
