data_functionalizedCrystal
_audit_creation_method	'MofGen! by Chris Wilmer'
_symmetry_space_group_name_H-M	'P1'
_symmetry_Int_Tables_number	1
_symmetry_cell_setting	triclinic
loop_
_symmetry_equiv_pos_as_xyz
  x,y,z
_cell_length_a	14.519731
_cell_length_b	17.699092
_cell_length_c	13.596369
_cell_angle_alpha	90.004304
_cell_angle_beta	90.005416
_cell_angle_gamma	83.487610
loop_
_atom_site_label
_atom_site_type_symbol
_atom_site_fract_x
_atom_site_fract_y
_atom_site_fract_z
O1	O	1.223438	0.099291	0.081790
O2	O	1.723438	0.599291	0.581790
O3	O	0.954914	0.110958	0.081791
O4	O	1.454914	0.610958	0.581791
O5	O	1.096759	-0.005042	0.081788
O6	O	1.596759	0.494958	0.581788
O7	O	1.081594	0.215291	0.081793
O8	O	1.581594	0.715291	0.581793
O9	O	1.096745	-0.005048	-0.081795
O10	O	1.596745	0.494952	0.418205
O11	O	0.954900	0.110952	-0.081792
O12	O	1.454900	0.610952	0.418208
O13	O	1.223424	0.099285	-0.081793
O14	O	1.723424	0.599285	0.418207
Zn15	Zn	1.089160	0.105118	-0.107765
Zn16	Zn	1.589160	0.605118	0.392235
Zn17	Zn	1.089178	0.105126	0.107763
Zn18	Zn	1.589178	0.605126	0.607763
O19	O	1.081580	0.215285	-0.081790
O20	O	1.581580	0.715285	0.418210
C21	C	0.920550	0.110408	-0.000001
C22	C	1.420550	0.610408	0.499999
C23	C	0.818177	0.108770	-0.000000
C24	C	1.318177	0.608770	0.500000
C25	C	0.735038	0.107439	0.000004
C26	C	1.235038	0.607439	0.500004
C27	C	0.630737	0.105776	0.000004
C28	C	1.130737	0.605776	0.500004
C29	C	0.547603	0.104456	0.000004
C30	C	1.047603	0.604456	0.500004
C31	C	0.443295	0.102793	0.000006
C32	C	0.943295	0.602793	0.500006
C33	C	1.096207	-0.033243	-0.000002
C34	C	1.596207	0.466757	0.499998
C35	C	1.094573	-0.117266	0.000003
C36	C	1.594573	0.382734	0.500003
C37	C	1.093815	-0.156732	0.089173
C38	C	1.593815	0.343268	0.589173
C39	C	1.092274	-0.235680	0.089174
C40	C	1.592274	0.264320	0.589174
C41	C	1.091497	-0.275160	0.000004
C42	C	1.591497	0.224840	0.500004
C43	C	1.092252	-0.235688	-0.089173
C44	C	1.592252	0.264312	0.410827
C45	C	1.093787	-0.156741	-0.089173
C46	C	1.593787	0.343259	0.410827
C47	C	1.086062	-0.554071	-0.089175
C48	C	1.586062	-0.054071	0.410825
C49	C	1.084530	-0.633024	-0.089168
C50	C	1.584530	-0.133024	0.410832
C51	C	1.084549	-0.633010	0.089173
C52	C	1.584549	-0.133010	0.589173
C53	C	1.086083	-0.554063	0.089172
C54	C	1.586083	-0.054063	0.589172
C55	C	1.086834	-0.514597	-0.000004
C56	C	1.586834	-0.014597	0.499996
C57	C	1.088503	-0.428993	-0.000004
C58	C	1.588503	0.071007	0.499996
C59	C	1.089834	-0.360763	0.000003
C60	C	1.589834	0.139237	0.500003
C61	C	1.257788	0.099835	0.000000
C62	C	1.757788	0.599835	0.500000
C63	C	1.360161	0.101473	0.000006
C64	C	1.860161	0.601473	0.500006
C65	C	1.082131	0.243487	0.000002
C66	C	1.582131	0.743487	0.500002
C67	C	1.083765	0.327509	0.000004
C68	C	1.583765	0.827509	0.500004
N69	N	1.089154	0.105112	-0.254857
N70	N	1.589154	0.605112	0.245143
C71	C	1.089177	0.105126	-0.656148
C72	C	1.589177	0.605126	-0.156148
C73	C	1.089168	0.105125	-0.544496
C74	C	1.589168	0.605125	-0.044496
C75	C	1.089166	0.105120	-0.455506
C76	C	1.589166	0.605120	0.044494
C77	C	1.089156	0.105117	-0.343847
C78	C	1.589156	0.605117	0.156153
N79	N	1.089192	0.105126	0.254854
N80	N	1.589192	0.605126	0.754854
H81	H	1.094452	-0.124594	0.161785
H82	H	1.594452	0.375406	0.661785
H83	H	1.083933	-0.665152	0.161784
H84	H	1.583933	-0.165152	0.661784
H85	H	1.091660	-0.267810	0.161785
H86	H	1.591660	0.232190	0.661785
Br87	Br	1.094810	-0.103178	-0.210195
Br88	Br	1.594810	0.396822	0.289805
Br89	Br	1.083477	-0.686605	-0.210192
Br90	Br	1.583477	-0.186605	0.289808
Br91	Br	1.091183	-0.289266	-0.210192
Br92	Br	1.591183	0.210734	0.289808
Br93	Br	1.087145	-0.500487	0.210193
Br94	Br	1.587145	-0.000487	0.710193
H95	H	1.086691	-0.521950	-0.161788
H96	H	1.586691	-0.021950	0.338212
