data_functionalizedCrystal
_audit_creation_method	'MofGen! by Chris Wilmer'
_symmetry_space_group_name_H-M	'P1'
_symmetry_Int_Tables_number	1
_symmetry_cell_setting	triclinic
loop_
_symmetry_equiv_pos_as_xyz
  x,y,z
_cell_length_a	25.639239
_cell_length_b	18.050590
_cell_length_c	18.050582
_cell_angle_alpha	90.000767
_cell_angle_beta	89.975362
_cell_angle_gamma	90.027853
loop_
_atom_site_label
_atom_site_type_symbol
_atom_site_fract_x
_atom_site_fract_y
_atom_site_fract_z
Zn1	Zn	-0.208335	1.135238	-0.419591
Zn2	Zn	0.124998	1.468572	-0.086258
Zn3	Zn	0.458331	1.801905	0.247076
Zn4	Zn	-0.295763	1.135126	-0.295396
Zn5	Zn	0.037570	1.468460	0.037937
Zn6	Zn	0.370904	1.801793	0.371270
Zn7	Zn	-0.208327	1.011058	-0.295449
Zn8	Zn	0.125006	1.344391	0.037884
Zn9	Zn	0.458340	1.677724	0.371218
Zn10	Zn	-0.295725	1.010983	-0.419579
Zn11	Zn	0.037608	1.344316	-0.086246
Zn12	Zn	0.370942	1.677650	0.247088
O13	O	-0.252037	1.073101	-0.357504
O14	O	0.081296	1.406435	-0.024171
O15	O	0.414629	1.739768	0.309163
O16	O	-0.219952	1.239148	-0.403099
O17	O	0.113381	1.572481	-0.069766
O18	O	0.446715	1.905815	0.263567
O19	O	-0.284177	1.118653	-0.191479
O20	O	0.049156	1.451986	0.141855
O21	O	0.382490	1.785319	0.475188
O22	O	-0.135163	1.027609	-0.311944
O23	O	0.198171	1.360942	0.021390
O24	O	0.531504	1.694275	0.354723
O25	O	-0.284185	1.239066	-0.311854
O26	O	0.049148	1.572399	0.021479
O27	O	0.382482	1.905732	0.354813
O28	O	-0.135169	1.118844	-0.403150
O29	O	0.198164	1.452177	-0.069817
O30	O	0.531498	1.785510	0.263516
O31	O	-0.219938	1.027500	-0.191517
O32	O	0.113395	1.360833	0.141816
O33	O	0.446729	1.694167	0.475149
O34	O	-0.219901	0.907123	-0.311932
O35	O	0.113432	1.240456	0.021401
O36	O	0.446766	1.573790	0.354735
O37	O	-0.284120	1.027481	-0.523505
O38	O	0.049213	1.360815	-0.190172
O39	O	0.382547	1.694148	0.143161
O40	O	-0.284112	0.907068	-0.403130
O41	O	0.049221	1.240402	-0.069797
O42	O	0.382555	1.573735	0.263537
O43	O	-0.219915	1.118771	-0.523514
O44	O	0.113418	1.452105	-0.190181
O45	O	0.446751	1.785438	0.143153
O46	O	-0.368923	1.118580	-0.311843
O47	O	-0.035590	1.451914	0.021491
O48	O	0.297744	1.785247	0.354824
O49	O	-0.368895	1.027373	-0.403079
O50	O	-0.035562	1.360706	-0.069746
O51	O	0.297771	1.694039	0.263588
C52	C	-0.252002	0.880149	-0.357536
C53	C	0.081332	1.213483	-0.024203
C54	C	0.414665	1.546816	0.309131
C55	C	-0.251999	0.797603	-0.357567
C56	C	0.081334	1.130937	-0.024234
C57	C	0.414668	1.464270	0.309100
C58	C	-0.287017	0.598144	-0.407043
C59	C	0.046316	0.931478	-0.073709
C60	C	0.379650	1.264811	0.259624
C61	C	-0.239344	0.548764	-0.425320
C62	C	0.093989	0.882097	-0.091987
C63	C	0.427322	1.215430	0.241346
C64	C	-0.252028	0.646473	-0.357531
C65	C	0.081305	0.979806	-0.024198
C66	C	0.414638	1.313140	0.309136
C67	C	-0.299728	0.548772	-0.339253
C68	C	0.033605	0.882105	-0.005919
C69	C	0.366938	1.215439	0.327414
C70	C	-0.252061	0.500488	-0.357497
C71	C	0.081273	0.833821	-0.024164
C72	C	0.414606	1.167155	0.309169
C73	C	-0.204330	0.598180	-0.375844
C74	C	0.129003	0.931513	-0.042511
C75	C	0.462337	1.264846	0.290823
C76	C	-0.264747	0.598192	-0.289745
C77	C	0.068587	0.931526	0.043589
C78	C	0.401920	1.264859	0.376922
C79	C	-0.217041	0.548834	-0.307997
C80	C	0.116293	0.882167	0.025337
C81	C	0.449626	1.215501	0.358670
C82	C	-0.252010	0.730571	-0.357552
C83	C	0.081323	1.063905	-0.024219
C84	C	0.414656	1.397238	0.309115
C85	C	-0.252073	0.416391	-0.357476
C86	C	0.081260	0.749725	-0.024142
C87	C	0.414593	1.083058	0.309191
C88	C	-0.387880	1.072976	-0.357470
C89	C	-0.054547	1.406310	-0.024137
C90	C	0.278787	1.739643	0.309197
C91	C	-0.445994	1.072991	-0.357480
C92	C	-0.112661	1.406324	-0.024147
C93	C	0.220673	1.739658	0.309187
C94	C	-0.806359	1.120717	-0.310078
C95	C	-0.473026	1.454050	0.023255
C96	C	-0.139692	1.787384	0.356589
C97	C	-0.860963	1.120746	-0.310088
C98	C	-0.527630	1.454079	0.023245
C99	C	-0.194297	1.787412	0.356579
O100	O	-0.889202	1.161195	-0.269748
O101	O	-0.555869	1.494528	0.063586
O102	O	-0.222535	1.827861	0.396919
N103	N	-0.888277	1.073232	-0.357553
N104	N	-0.554943	1.406565	-0.024220
N105	N	-0.221610	1.739898	0.309114
C106	C	-0.860982	1.025691	-0.405017
C107	C	-0.527649	1.359025	-0.071683
C108	C	-0.194316	1.692358	0.261650
O109	O	-0.889228	0.985280	-0.445391
O110	O	-0.555895	1.318613	-0.112058
O111	O	-0.222562	1.651947	0.221276
C112	C	-0.806379	1.025667	-0.405010
C113	C	-0.473046	1.359000	-0.071677
C114	C	-0.139713	1.692333	0.261657
C115	C	-0.779069	1.073179	-0.357536
C116	C	-0.445736	1.406512	-0.024203
C117	C	-0.112402	1.739845	0.309130
C118	C	-0.779049	1.168226	-0.262609
C119	C	-0.445715	1.501559	0.070724
C120	C	-0.112382	1.834892	0.404058
C121	C	-0.724448	1.168196	-0.262598
C122	C	-0.391115	1.501529	0.070735
C123	C	-0.057782	1.834862	0.404068
C124	C	-0.697158	1.120657	-0.310057
C125	C	-0.363825	1.453990	0.023277
C126	C	-0.030491	1.787324	0.356610
C127	C	-0.724468	1.073149	-0.357526
C128	C	-0.391135	1.406482	-0.024192
C129	C	-0.057802	1.739815	0.309141
C130	C	-0.779086	0.978131	-0.452477
C131	C	-0.445753	1.311464	-0.119143
C132	C	-0.112419	1.644797	0.214190
C133	C	-0.724479	0.978111	-0.452466
C134	C	-0.391146	1.311444	-0.119133
C135	C	-0.057812	1.644777	0.214200
C136	C	-0.697169	1.025622	-0.404993
C137	C	-0.363836	1.358956	-0.071659
C138	C	-0.030502	1.692289	0.261674
C139	C	-0.642578	1.025580	-0.404973
C140	C	-0.309244	1.358914	-0.071640
C141	C	0.024089	1.692247	0.261693
N142	N	-0.615265	1.073094	-0.357508
N143	N	-0.281931	1.406428	-0.024175
N144	N	0.051402	1.739761	0.309158
C145	C	-0.642555	1.120633	-0.310050
C146	C	-0.309221	1.453966	0.023284
C147	C	0.024112	1.787299	0.356617
C148	C	-0.975653	1.025747	-0.405028
C149	C	-0.642320	1.359081	-0.071695
C150	C	-0.308986	1.692414	0.261639
C151	C	-1.030255	1.025767	-0.405032
C152	C	-0.696922	1.359101	-0.071698
C153	C	-0.363589	1.692434	0.261635
C154	C	-1.030233	1.120823	-0.310104
C155	C	-0.696899	1.454156	0.023230
C156	C	-0.363566	1.787490	0.356563
C157	C	-0.975629	1.120799	-0.310097
C158	C	-0.642296	1.454132	0.023236
C159	C	-0.308963	1.787465	0.356570
C160	C	-0.948340	1.073261	-0.357563
C161	C	-0.615007	1.406595	-0.024230
C162	C	-0.281673	1.739928	0.309104
C163	C	-0.527890	1.120566	-0.310030
C164	C	-0.194556	1.453899	0.023303
C165	C	0.138777	1.787232	0.356636
C166	C	-0.473284	1.120529	-0.310022
C167	C	-0.139951	1.453863	0.023312
C168	C	0.193382	1.787196	0.356645
C169	C	-0.473312	1.025477	-0.404952
C170	C	-0.139979	1.358810	-0.071619
C171	C	0.193355	1.692143	0.261715
C172	C	-0.527913	1.025510	-0.404958
C173	C	-0.194579	1.358843	-0.071625
C174	C	0.138754	1.692177	0.261708
C175	C	-0.555200	1.073061	-0.357495
C176	C	-0.221867	1.406394	-0.024162
C177	C	0.111467	1.739727	0.309172
O178	O	-0.614305	0.985154	-0.445295
O179	O	-0.280971	1.318487	-0.111962
O180	O	0.052362	1.651821	0.221371
O181	O	-0.614302	1.161044	-0.269689
O182	O	-0.280969	1.494377	0.063644
O183	O	0.052364	1.827711	0.396977
C184	C	-0.115664	1.073247	-0.357554
C185	C	0.217669	1.406580	-0.024221
C186	C	0.551002	1.739914	0.309112
C187	C	-0.057550	1.073309	-0.357576
C188	C	0.275783	1.406642	-0.024242
C189	C	0.609116	1.739976	0.309091
C190	C	-0.252014	1.073130	-0.551210
C191	C	0.081319	1.406464	-0.217876
C192	C	0.414652	1.739797	0.115457
C193	C	-0.252004	1.073143	-0.633755
C194	C	0.081329	1.406476	-0.300422
C195	C	0.414662	1.739809	0.032911
C196	C	-0.252074	1.266807	-0.357472
C197	C	0.081260	1.600140	-0.024139
C198	C	0.414593	1.933474	0.309195
C199	C	-0.252089	1.349353	-0.357459
C200	C	0.081244	1.682686	-0.024125
C201	C	0.414578	2.016019	0.309208
C202	C	-0.286871	1.023537	-0.833201
C203	C	0.046462	1.356871	-0.499868
C204	C	0.379795	1.690204	-0.166535
C205	C	-0.299661	1.091289	-0.882573
C206	C	0.033673	1.424623	-0.549240
C207	C	0.367006	1.757956	-0.215907
C208	C	-0.251965	1.073179	-0.784886
C209	C	0.081369	1.406513	-0.451552
C210	C	0.414702	1.739846	-0.118219
C211	C	-0.239161	1.005465	-0.882595
C212	C	0.094173	1.338798	-0.549262
C213	C	0.427506	1.672131	-0.215929
C214	C	-0.251927	1.073209	-0.930871
C215	C	0.081406	1.406542	-0.597538
C216	C	0.414740	1.739876	-0.264204
C217	C	-0.264779	1.140967	-0.833171
C218	C	0.068554	1.474300	-0.499837
C219	C	0.401888	1.807634	-0.166504
C220	C	-0.204257	1.055097	-0.833188
C221	C	0.129077	1.388430	-0.499855
C222	C	0.462410	1.721763	-0.166522
C223	C	-0.217028	1.122895	-0.882538
C224	C	0.116305	1.456229	-0.549205
C225	C	0.449639	1.789562	-0.215871
C226	C	-0.251988	1.073162	-0.700787
C227	C	0.081346	1.406495	-0.367454
C228	C	0.414679	1.739828	-0.034121
C229	C	-0.251904	1.073234	-1.014968
C230	C	0.081429	1.406568	-0.681634
C231	C	0.414763	1.739901	-0.348301
C232	C	-0.252023	1.073115	-0.164552
C233	C	0.081310	1.406448	0.168782
C234	C	0.414644	1.739782	0.502115
C235	C	-0.251885	1.073247	-0.082006
C236	C	0.081448	1.406580	0.251327
C237	C	0.414781	1.739913	0.584660
H238	H	-0.275508	0.619920	-0.232450
H239	H	0.057826	0.953253	0.100883
H240	H	0.391159	1.286587	0.434217
H241	H	-0.228597	0.527052	-0.482631
H242	H	0.104736	0.860386	-0.149298
H243	H	0.438069	1.193719	0.184035
H244	H	-0.702263	0.939401	-0.491121
H245	H	-0.368929	1.272734	-0.157788
H246	H	-0.035596	1.606067	0.175545
F247	F	-0.151606	0.626424	-0.396118
F248	F	0.181728	0.959758	-0.062785
F249	F	0.515061	1.293091	0.270548
H250	H	-0.187432	0.527319	-0.266112
H251	H	0.145902	0.860652	0.067221
H252	H	0.479235	1.193985	0.400555
H253	H	-0.340054	0.527066	-0.323809
H254	H	-0.006721	0.860400	0.009525
H255	H	0.326613	1.193733	0.342858
F256	F	-0.444222	1.171100	-0.259491
F257	F	-0.110888	1.504433	0.073842
F258	F	0.222445	1.837766	0.407175
F259	F	-0.556923	1.171174	-0.259514
F260	F	-0.223590	1.504507	0.073819
F261	F	0.109743	1.837841	0.407152
F262	F	-1.059286	1.171417	-0.259593
F263	F	-0.725953	1.504751	0.073741
F264	F	-0.392620	1.838084	0.407074
H265	H	-0.702215	1.206886	-0.223943
H266	H	-0.368882	1.540219	0.109390
H267	H	-0.035549	1.873553	0.442723
F268	F	-0.808085	1.218828	-0.212094
F269	F	-0.474752	1.552162	0.121240
F270	F	-0.141418	1.885495	0.454573
H271	H	-0.228347	0.948187	-0.904306
H272	H	0.104987	1.281520	-0.570972
H273	H	0.438320	1.614854	-0.237639
F274	F	-0.946569	1.171367	-0.259570
F275	F	-0.613235	1.504700	0.073763
F276	F	-0.279902	1.838034	0.407097
F277	F	-1.059315	0.975191	-0.455551
F278	F	-0.725982	1.308524	-0.122218
F279	F	-0.392649	1.641857	0.211116
F280	F	-0.352374	1.111305	-0.910929
F281	F	-0.019040	1.444638	-0.577595
F282	F	0.314293	1.777971	-0.244262
F283	F	-0.946614	0.975143	-0.455546
F284	F	-0.613281	1.308476	-0.122213
F285	F	-0.279948	1.641810	0.211120
F286	F	-0.808140	0.927567	-0.503012
F287	F	-0.474807	1.260901	-0.169679
F288	F	-0.141473	1.594234	0.163655
H289	H	-0.316554	0.619799	-0.448960
H290	H	0.016779	0.953132	-0.115627
H291	H	0.350113	1.286465	0.217707
F292	F	-0.444258	0.974887	-0.455460
F293	F	-0.110925	1.308221	-0.122127
F294	F	0.222409	1.641554	0.211206
H295	H	-0.550150	0.986824	-0.443618
H296	H	-0.216816	1.320158	-0.110284
H297	H	0.116517	1.653491	0.223049
F298	F	-0.325504	0.968717	-0.804884
F299	F	0.007829	1.302050	-0.471551
F300	F	0.341162	1.635384	-0.138217
H301	H	-0.275639	1.198261	-0.811552
H302	H	0.057695	1.531595	-0.478219
H303	H	0.391028	1.864928	-0.144885
H304	H	-0.187492	1.164937	-0.904064
H305	H	0.145841	1.498271	-0.570731
H306	H	0.479174	1.831604	-0.237398
F307	F	-0.151558	1.035057	-0.804811
F308	F	0.181776	1.368390	-0.471478
F309	F	0.515109	1.701724	-0.138144
