data_functionalizedCrystal
_audit_creation_method	'MofGen! by Chris Wilmer'
_symmetry_space_group_name_H-M	'P1'
_symmetry_Int_Tables_number	1
_symmetry_cell_setting	triclinic
loop_
_symmetry_equiv_pos_as_xyz
  x,y,z
_cell_length_a	13.635800
_cell_length_b	9.170285
_cell_length_c	9.582880
_cell_angle_alpha	97.329273
_cell_angle_beta	111.207034
_cell_angle_gamma	67.539845
loop_
_atom_site_label
_atom_site_type_symbol
_atom_site_fract_x
_atom_site_fract_y
_atom_site_fract_z
V1	V	2.073838	-0.215213	0.438183
O2	O	2.050398	0.011019	0.459174
O3	O	2.064615	-0.427382	0.406975
O4	O	2.068965	-0.211605	0.642160
O5	O	2.046019	-0.206252	0.222361
V6	V	2.311207	-0.188188	0.415796
O7	O	2.214103	-0.274494	0.487291
O8	O	2.396041	-0.128907	0.366688
O9	O	2.208827	0.023982	0.447004
O10	O	2.393346	-0.414420	0.394805
O11	O	2.397725	-0.197149	0.631618
O12	O	2.204477	-0.191796	0.211819
V13	V	2.573838	-0.215213	0.438183
O14	O	2.550398	0.011019	0.459174
O15	O	2.564615	-0.427382	0.406975
O16	O	2.568965	-0.211605	0.642160
O17	O	2.546019	-0.206252	0.222361
V18	V	2.811207	-0.188188	0.415796
O19	O	2.714103	-0.274494	0.487291
O20	O	2.896041	-0.128907	0.366688
O21	O	2.708827	0.023982	0.447004
O22	O	2.893346	-0.414420	0.394805
O23	O	2.897725	-0.197149	0.631618
O24	O	2.704477	-0.191796	0.211819
C25	C	1.990134	-0.479114	0.392784
C26	C	2.023365	-0.652564	0.368627
C27	C	1.995681	-0.203867	0.692784
C28	C	2.032438	-0.202321	0.859351
C29	C	2.114980	0.075705	0.461190
C30	C	2.071368	0.249153	0.485356
C31	C	2.109431	-0.199539	0.161187
C32	C	2.062294	-0.201077	-0.005381
C33	C	2.490134	-0.479114	0.392784
C34	C	2.523365	-0.652564	0.368627
C35	C	2.495681	-0.203867	0.692784
C36	C	2.532438	-0.202321	0.859351
C37	C	2.614980	0.075705	0.461190
C38	C	2.571368	0.249153	0.485356
C39	C	2.609431	-0.199539	0.161187
C40	C	2.562294	-0.201077	-0.005381
C41	C	2.631331	-0.741962	0.363711
C42	C	2.662576	-0.904941	0.341036
C43	C	2.585850	-0.978517	0.323267
C44	C	2.477876	-0.889107	0.328189
C45	C	2.446636	-0.726132	0.350874
C46	C	2.635897	0.338551	0.490276
C47	C	2.594925	0.501528	0.512958
C48	C	2.489428	0.575104	0.530731
C49	C	2.424894	0.485695	0.525805
C50	C	2.465863	0.322722	0.503113
H51	H	2.087006	-0.702290	0.603738
N52	N	2.714096	-0.662627	0.382876
H53	H	2.787231	-0.744012	0.376325
H54	H	2.728898	-0.610373	0.483791
H55	H	2.415414	-0.949037	0.313718
N56	N	2.779032	-1.001355	0.335728
H57	H	2.822885	-0.930003	0.350411
H58	H	2.772275	-1.054308	0.235376
H59	H	2.456082	0.707808	0.549207
H60	H	2.721801	0.278668	0.475809
N61	N	2.664546	0.597938	0.518292
H62	H	2.737599	0.526585	0.503612
H63	H	2.681599	0.650874	0.618653
H64	H	2.338994	0.545625	0.540277
N65	N	2.330183	-0.629717	0.356174
H66	H	2.286327	-0.701068	0.341472
H67	H	2.289454	-0.546741	0.274083
H68	H	2.007715	-0.701126	0.250237
N69	N	2.396259	0.226306	0.497813
H70	H	2.323215	0.297657	0.512520
H71	H	2.439908	0.143328	0.579902
H72	H	2.611302	-1.111222	0.304796
