data_functionalizedCrystal
_audit_creation_method	'MofGen! by Chris Wilmer'
_symmetry_space_group_name_H-M	'P1'
_symmetry_Int_Tables_number	1
_symmetry_cell_setting	triclinic
loop_
_symmetry_equiv_pos_as_xyz
  x,y,z
_cell_length_a	13.897449
_cell_length_b	13.897447
_cell_length_c	19.076919
_cell_angle_alpha	87.725848
_cell_angle_beta	87.720573
_cell_angle_gamma	90.020357
loop_
_atom_site_label
_atom_site_type_symbol
_atom_site_fract_x
_atom_site_fract_y
_atom_site_fract_z
Zn1	Zn	1.452731	-0.405928	0.397992
Zn2	Zn	1.459113	-0.560755	0.280304
Zn3	Zn	1.297913	-0.399478	0.280308
Zn4	Zn	1.291399	-0.567183	0.397956
O5	O	1.375289	-0.483336	0.339140
O6	O	1.588558	-0.426476	0.382394
O7	O	1.443127	-0.533971	0.181815
O8	O	1.318506	-0.265353	0.295936
O9	O	1.593248	-0.540226	0.295929
O10	O	1.432249	-0.270092	0.382398
O11	O	1.324694	-0.415482	0.181818
O12	O	1.162068	-0.421715	0.295901
O13	O	1.307402	-0.551183	0.496450
O14	O	1.157282	-0.544928	0.382336
O15	O	1.425932	-0.432709	0.496477
O16	O	1.436810	-0.696588	0.295894
O17	O	1.313591	-0.701311	0.382332
C18	C	1.124676	-0.483320	0.339116
C19	C	1.017462	-0.483337	0.339122
C20	C	0.930391	-0.483341	0.339133
C21	C	0.821158	-0.483349	0.339155
C22	C	1.375212	-0.733950	0.339124
C23	C	1.375265	-0.841164	0.339140
C24	C	1.375311	-0.928235	0.339156
C25	C	1.375378	-1.037468	0.339174
C26	C	1.626881	-0.483353	0.339165
C27	C	1.734094	-0.483360	0.339176
C28	C	1.365229	-0.493383	0.522714
C29	C	1.360942	-0.497664	0.600943
C30	C	1.375392	-0.231745	0.339172
C31	C	1.375436	-0.124532	0.339185
C32	C	1.385366	-0.473259	0.156280
C33	C	1.389840	-0.468706	0.078052
C34	C	1.420637	-0.437995	0.637710
C35	C	1.416597	-0.442014	0.711214
C36	C	1.352866	-0.505707	0.747949
C37	C	1.293164	-0.565378	0.711177
C38	C	1.297200	-0.561354	0.637675
C39	C	1.334174	-0.524353	0.967777
C40	C	1.330145	-0.528375	1.041285
C41	C	1.453576	-0.405009	1.041316
C42	C	1.457611	-0.400994	0.967812
C43	C	1.397905	-0.460662	0.931047
N44	N	1.348737	-0.509819	0.823082
N45	N	1.402030	-0.456544	0.855915
H46	H	1.472536	-0.386132	0.607805
H47	H	1.509510	-0.349131	0.937907
H48	H	1.465209	-0.393428	0.741146
Br49	Br	1.243644	-0.614818	1.091140
Br50	Br	1.534598	-0.324035	1.091216
Br51	Br	1.206665	-0.651814	0.761032
Br52	Br	1.253143	-0.605329	0.917890
Br53	Br	1.216176	-0.642330	0.587776
