data_functionalizedCrystal
_audit_creation_method	'MofGen! by Chris Wilmer'
_symmetry_space_group_name_H-M	'P1'
_symmetry_Int_Tables_number	1
_symmetry_cell_setting	triclinic
loop_
_symmetry_equiv_pos_as_xyz
  x,y,z
_cell_length_a	18.215407
_cell_length_b	21.395361
_cell_length_c	21.395356
_cell_angle_alpha	90.030681
_cell_angle_beta	89.976270
_cell_angle_gamma	89.968844
loop_
_atom_site_label
_atom_site_type_symbol
_atom_site_fract_x
_atom_site_fract_y
_atom_site_fract_z
Zn1	Zn	1.125070	0.249447	-0.354251
Zn2	Zn	1.625070	0.749447	0.145749
Zn3	Zn	1.124958	0.354224	-0.249468
Zn4	Zn	1.624958	0.854224	0.250532
Zn5	Zn	1.001995	0.249465	-0.249487
Zn6	Zn	1.501995	0.749465	0.250513
Zn7	Zn	1.001956	0.354191	-0.354208
Zn8	Zn	1.501956	0.854191	0.145792
O9	O	1.063495	0.301832	-0.301853
O10	O	1.563495	0.801832	0.198147
O11	O	1.228040	0.263352	-0.340361
O12	O	1.728040	0.763352	0.159639
O13	O	1.108616	0.340348	-0.161792
O14	O	1.608616	0.840348	0.338208
O15	O	1.018384	0.161784	-0.263410
O16	O	1.518384	0.661784	0.236590
O17	O	1.227957	0.340331	-0.263377
O18	O	1.727957	0.840331	0.236623
O19	O	1.108807	0.161771	-0.340380
O20	O	1.608807	0.661771	0.159620
O21	O	1.018275	0.263382	-0.161807
O22	O	1.518275	0.763382	0.338193
O23	O	0.899005	0.263351	-0.263369
O24	O	1.399005	0.763351	0.236631
O25	O	1.018319	0.340276	-0.441891
O26	O	1.518319	0.840276	0.058109
O27	O	0.898977	0.340293	-0.340306
O28	O	1.398977	0.840293	0.159694
O29	O	1.108770	0.263321	-0.441923
O30	O	1.608770	0.763321	0.058077
O31	O	1.108578	0.441897	-0.263336
O32	O	1.608578	0.941897	0.236664
O33	O	1.018210	0.441874	-0.340288
O34	O	1.518210	0.941874	0.159712
C35	C	0.872289	0.301821	-0.301835
C36	C	1.372289	0.801821	0.198165
C37	C	0.790490	0.301831	-0.301842
C38	C	1.290490	0.801831	0.198158
C39	C	1.063398	0.464619	-0.301818
C40	C	1.563398	0.964619	0.198182
C41	C	1.063423	0.534261	-0.301824
C42	C	1.563423	1.034261	0.198176
C43	C	1.063553	0.301793	-0.465277
C44	C	1.563553	0.801793	0.034723
C45	C	1.063577	0.301776	-0.534918
C46	C	1.563577	0.801776	-0.034918
C47	C	0.602300	0.341958	-0.341854
C48	C	1.102300	0.841958	0.158146
C49	C	0.525442	0.341960	-0.341861
C50	C	1.025442	0.841960	0.158139
C51	C	0.525441	0.261716	-0.261867
C52	C	1.025441	0.761716	0.238133
C53	C	0.602299	0.261712	-0.261862
C54	C	1.102299	0.761712	0.238138
C55	C	0.640726	0.301836	-0.301855
C56	C	1.140726	0.801836	0.198145
C57	C	0.487010	0.301843	-0.301867
C58	C	0.987010	0.801843	0.198133
C59	C	0.403676	0.301845	-0.301875
C60	C	0.903676	0.801845	0.198125
C61	C	0.724065	0.301834	-0.301848
C62	C	1.224065	0.801834	0.198152
C63	C	1.255448	0.301843	-0.301872
C64	C	1.755448	0.801843	0.198128
C65	C	1.337247	0.301848	-0.301880
C66	C	1.837247	0.801848	0.198120
C67	C	1.063612	0.138408	-0.301902
C68	C	1.563612	0.638408	0.198098
C69	C	1.063663	0.068767	-0.301923
C70	C	1.563663	0.568767	0.198077
C71	C	1.110520	0.566965	-0.261797
C72	C	1.610520	1.066965	0.238203
C73	C	1.110554	0.632400	-0.261811
C74	C	1.610554	1.132400	0.238189
C75	C	1.063479	0.665129	-0.301846
C76	C	1.563479	1.165129	0.198154
C77	C	1.016379	0.632416	-0.341882
C78	C	1.516379	1.132416	0.158118
C79	C	1.016351	0.566982	-0.341871
C80	C	1.516351	1.066982	0.158129
C81	C	0.997215	0.768844	-0.306756
C82	C	1.497215	1.268844	0.193244
C83	C	0.997242	0.834277	-0.306762
C84	C	1.497242	1.334277	0.193238
C85	C	1.063565	0.866950	-0.301883
C86	C	1.563565	1.366950	0.198117
C87	C	1.129863	0.834181	-0.296984
C88	C	1.629863	1.334181	0.203016
C89	C	1.129835	0.768747	-0.296973
C90	C	1.629835	1.268747	0.203027
C91	C	1.063504	0.736081	-0.301862
C92	C	1.563504	1.236081	0.198138
C93	C	1.110702	0.970607	-0.261868
C94	C	1.610702	1.470607	0.238132
C95	C	1.110738	1.036043	-0.261886
C96	C	1.610738	1.536043	0.238114
C97	C	1.016556	1.036058	-0.341954
C98	C	1.516556	1.536058	0.158046
C99	C	1.016527	0.970622	-0.341939
C100	C	1.516527	1.470622	0.158061
C101	C	1.063599	0.937901	-0.301892
C102	C	1.563599	1.437901	0.198108
C103	C	1.016550	0.261696	-0.567629
C104	C	1.516550	0.761696	-0.067629
C105	C	1.016547	0.261684	-0.633064
C106	C	1.516547	0.761684	-0.133064
C107	C	1.063586	0.301746	-0.665786
C108	C	1.563586	0.801746	-0.165786
C109	C	1.110617	0.341835	-0.633068
C110	C	1.610617	0.841835	-0.133068
C111	C	1.110613	0.341850	-0.567634
C112	C	1.610613	0.841850	-0.067634
C113	C	1.129893	0.306672	-0.769473
C114	C	1.629893	0.806672	-0.269473
C115	C	1.129898	0.306653	-0.834906
C116	C	1.629898	0.806653	-0.334906
C117	C	1.063598	0.301704	-0.867607
C118	C	1.563598	0.801704	-0.367607
C119	C	0.997290	0.296762	-0.834868
C120	C	1.497290	0.796762	-0.334868
C121	C	0.997286	0.296777	-0.769434
C122	C	1.497286	0.796777	-0.269434
C123	C	1.063595	0.301735	-0.736739
C124	C	1.563595	0.801735	-0.236739
C125	C	1.016563	0.261609	-0.971270
C126	C	1.516563	0.761609	-0.471270
C127	C	1.016559	0.261602	-1.036707
C128	C	1.516559	0.761602	-0.536707
C129	C	1.110636	0.341749	-1.036710
C130	C	1.610636	0.841749	-0.536710
C131	C	1.110633	0.341760	-0.971274
C132	C	1.610633	0.841760	-0.471274
C133	C	1.063598	0.301686	-0.938559
C134	C	1.563598	0.801686	-0.438559
C135	C	1.063480	0.301825	-0.139066
C136	C	1.563480	0.801825	0.360934
C137	C	1.063598	0.301665	-0.069425
C138	C	1.563598	0.801665	0.430575
H139	H	0.633586	0.374629	-0.374420
H140	H	1.133586	0.874629	0.125580
H141	H	0.494144	0.229049	-0.229305
H142	H	0.994144	0.729049	0.270695
Cl143	Cl	0.913897	0.875464	-0.312919
Cl144	Cl	1.413897	1.375464	0.187081
Cl145	Cl	0.957201	0.673559	-0.392215
Cl146	Cl	1.457201	1.173559	0.107785
Cl147	Cl	1.169708	0.525833	-0.211462
Cl148	Cl	1.669708	1.025833	0.288538
Cl149	Cl	0.957379	1.077196	-0.392289
Cl150	Cl	1.457379	1.577196	0.107711
H151	H	0.633586	0.229036	-0.229291
H152	H	1.133586	0.729036	0.270709
H153	H	0.978247	0.229067	-0.540996
H154	H	1.478247	0.729067	-0.040996
H155	H	0.978264	0.228979	-0.944632
H156	H	1.478264	0.728979	-0.444632
Cl157	Cl	1.169765	0.673524	-0.211485
Cl158	Cl	1.669765	1.173524	0.288515
H159	H	1.183817	0.742069	-0.292986
H160	H	1.683817	1.242069	0.207014
Cl161	Cl	1.169747	0.392202	-0.674203
Cl162	Cl	1.669747	0.892202	-0.174203
Cl163	Cl	1.213245	0.875248	-0.290843
Cl164	Cl	1.713245	1.375248	0.209157
H165	H	1.149034	0.943964	-0.229262
H166	H	1.649034	1.443964	0.270738
Cl167	Cl	1.169956	1.077158	-0.211565
Cl168	Cl	1.669956	1.577158	0.288435
Cl169	Cl	0.957312	0.929506	-0.392260
Cl170	Cl	1.457312	1.429506	0.107740
Cl171	Cl	0.477138	0.392401	-0.392149
Cl172	Cl	0.977138	0.892401	0.107851
Cl173	Cl	0.957138	0.525866	-0.392195
Cl174	Cl	1.457138	1.025866	0.107805
Cl175	Cl	0.913830	0.727776	-0.312891
Cl176	Cl	1.413830	1.227776	0.187109
H177	H	0.978253	0.229042	-0.659702
H178	H	1.478253	0.729042	-0.159702
Cl179	Cl	0.913932	0.290568	-0.728278
Cl180	Cl	1.413932	0.790568	-0.228278
Cl181	Cl	0.913935	0.290537	-0.875971
Cl182	Cl	1.413935	0.790537	-0.375971
H183	H	0.978258	0.228965	-1.063339
H184	H	1.478258	0.728965	-0.563339
H185	H	1.148937	0.374368	-1.063351
H186	H	1.648937	0.874368	-0.563351
H187	H	1.148930	0.374396	-0.944641
H188	H	1.648930	0.874396	-0.444641
H189	H	1.183890	0.310674	-0.861557
H190	H	1.683890	0.810674	-0.361557
H191	H	1.183887	0.310696	-0.742852
H192	H	1.683887	0.810696	-0.242852
Cl193	Cl	1.169740	0.392240	-0.526509
Cl194	Cl	1.669740	0.892240	-0.026509
