data_functionalizedCrystal
_audit_creation_method	'MofGen! by Chris Wilmer'
_symmetry_space_group_name_H-M	'P1'
_symmetry_Int_Tables_number	1
_symmetry_cell_setting	triclinic
loop_
_symmetry_equiv_pos_as_xyz
  x,y,z
_cell_length_a	29.839134
_cell_length_b	12.759399
_cell_length_c	12.759393
_cell_angle_alpha	89.969094
_cell_angle_beta	90.032473
_cell_angle_gamma	89.990022
loop_
_atom_site_label
_atom_site_type_symbol
_atom_site_fract_x
_atom_site_fract_y
_atom_site_fract_z
Zn1	Zn	0.686848	0.418359	0.594340
Zn2	Zn	0.686801	0.594075	0.418659
Zn3	Zn	0.611717	0.418395	0.418640
Zn4	Zn	0.611713	0.593981	0.594261
O5	O	0.649270	0.506203	0.506475
O6	O	0.749709	0.441693	0.571077
O7	O	0.676823	0.570825	0.271636
O8	O	0.621705	0.271369	0.441972
O9	O	0.749675	0.570790	0.442005
O10	O	0.676903	0.271343	0.571059
O11	O	0.621659	0.441753	0.271622
O12	O	0.548850	0.441662	0.441896
O13	O	0.621698	0.570630	0.741293
O14	O	0.548847	0.570665	0.570923
O15	O	0.676900	0.441602	0.741351
O16	O	0.676819	0.741083	0.441928
O17	O	0.621652	0.741015	0.570942
C18	C	0.649243	0.779170	0.506451
C19	C	0.649272	0.895947	0.506476
C20	C	0.532547	0.506158	0.506399
C21	C	0.482613	0.506164	0.506392
C22	C	0.649304	0.506102	0.780509
C23	C	0.649318	0.506059	0.897285
C24	C	0.172978	0.573474	0.573578
C25	C	-0.014695	0.573503	0.573624
O26	O	-0.038954	0.630682	0.630703
N27	N	-0.038172	0.506241	0.506554
C28	C	-0.014727	0.438962	0.439473
O29	O	-0.039002	0.381745	0.382434
C30	C	0.172945	0.438928	0.439432
C31	C	0.196419	0.506202	0.506499
C32	C	0.196452	0.640741	0.640640
C33	C	0.243367	0.640737	0.640624
C34	C	0.266809	0.573465	0.573545
C35	C	0.243334	0.506198	0.506483
C36	C	0.196388	0.371644	0.372356
C37	C	0.243309	0.371640	0.372354
C38	C	0.266784	0.438914	0.439421
C39	C	0.313691	0.438922	0.439387
N40	N	0.337168	0.506184	0.506458
C41	C	0.313726	0.573456	0.573536
C42	C	-0.113258	0.438986	0.439497
C43	C	-0.160176	0.438996	0.439506
C44	C	-0.160141	0.573536	0.573659
C45	C	-0.113222	0.573531	0.573645
C46	C	-0.089782	0.506248	0.506567
C47	C	0.412252	0.573443	0.573496
C48	C	0.459172	0.573436	0.573471
C49	C	0.459132	0.438892	0.439322
C50	C	0.412217	0.438903	0.439343
C51	C	0.388778	0.506182	0.506438
O52	O	0.337978	0.381764	0.382347
O53	O	0.338009	0.630648	0.630583
C54	C	0.126062	0.573478	0.573594
C55	C	0.102588	0.506210	0.506532
C56	C	0.126029	0.438938	0.439453
C57	C	0.055670	0.506220	0.506540
C58	C	0.032229	0.573491	0.573619
C59	C	0.055705	0.640753	0.640689
C60	C	0.102621	0.640749	0.640673
C61	C	0.102553	0.371676	0.372383
C62	C	0.055637	0.371687	0.372404
C63	C	0.032196	0.438958	0.439483
C64	C	0.766448	0.506248	0.506552
C65	C	0.816383	0.506267	0.506585
C66	C	0.649310	0.232169	0.506522
C67	C	0.649327	0.115393	0.506542
C68	C	0.678030	0.950809	0.439375
C69	C	0.678059	1.060533	0.439410
C70	C	0.620568	1.060522	0.573651
C71	C	0.620541	0.950800	0.573620
C72	C	0.649262	0.506227	0.233508
C73	C	0.649335	0.505974	0.116732
C74	C	0.678063	0.438863	0.952179
C75	C	0.678071	0.438818	1.061904
C76	C	0.620586	0.573173	1.061830
C77	C	0.620577	0.573212	0.952108
H78	H	0.393174	0.628225	0.628134
C79	C	0.155314	0.230319	0.357990
C80	C	0.128315	0.297729	0.298639
H81	H	0.171215	0.184664	0.312456
H82	H	0.176011	0.270373	0.397916
H83	H	0.137024	0.190190	0.403839
H84	H	0.146606	0.337864	0.252796
H85	H	0.107615	0.257671	0.258696
C86	C	-0.060464	0.714870	0.588002
C87	C	-0.087422	0.647473	0.647373
H88	H	-0.044540	0.760523	0.633524
H89	H	-0.039786	0.674806	0.548068
H90	H	-0.078784	0.755002	0.542160
H91	H	-0.069101	0.607336	0.693210
H92	H	-0.108102	0.687542	0.687324
H93	H	0.701477	1.105198	0.384771
C94	C	0.544493	1.094383	0.624655
C95	C	0.588985	1.120816	0.647449
H96	H	0.524995	1.131600	0.670221
H97	H	0.537940	1.112441	0.554063
H98	H	0.540369	1.021182	0.634241
H99	H	0.593109	1.194016	0.637855
H100	H	0.595540	1.102765	0.718058
H101	H	0.393103	0.384125	0.384729
H102	H	0.597188	0.627849	1.106480
H103	H	0.701465	0.384179	0.907546
C104	C	0.563759	0.706029	0.963048
C105	C	0.588979	0.647085	0.891760
H106	H	0.544254	0.751634	0.925789
H107	H	0.546585	0.660234	1.005834
H108	H	0.583334	0.746209	1.005855
H109	H	0.569404	0.606899	0.848957
H110	H	0.606155	0.692885	0.848955
H111	H	0.701425	0.906150	0.384704
C112	C	0.598608	0.916909	0.751461
C113	C	0.588927	0.890488	0.647384
H114	H	0.579090	0.879679	0.796997
H115	H	0.628782	0.898861	0.766898
H116	H	0.594509	0.990107	0.761075
H117	H	0.593029	0.817291	0.637768
H118	H	0.558746	0.908530	0.631942
H119	H	0.478282	0.628222	0.628086
C120	C	0.699990	0.260915	1.095715
C121	C	0.709671	0.364953	1.122238
H122	H	0.719501	0.215313	1.132957
H123	H	0.669813	0.245523	1.113680
H124	H	0.704097	0.251348	1.022519
H125	H	0.705560	0.374521	1.195433
H126	H	0.739855	0.380350	1.104280
C127	C	0.238675	0.773710	0.773235
C128	C	0.269166	0.714676	0.714358
H129	H	0.254601	0.819352	0.818764
H130	H	0.220363	0.813845	0.727393
H131	H	0.220387	0.727966	0.813493
H132	H	0.287452	0.760420	0.674095
H133	H	0.287486	0.674538	0.760206
H134	H	-0.179234	0.628311	0.628278
C135	C	0.143735	0.655544	0.781969
C136	C	0.170691	0.714698	0.714380
H137	H	0.127837	0.701211	0.827496
H138	H	0.123036	0.615503	0.742037
H139	H	0.162055	0.609811	0.822227
H140	H	0.152371	0.760425	0.674117
H141	H	0.191393	0.754757	0.754317
H142	H	-0.179285	0.384225	0.384883
H143	H	0.121729	0.695530	0.695286
C144	C	-0.060540	0.424201	0.298176
C145	C	-0.087496	0.365030	0.365752
H146	H	-0.044636	0.378543	0.252651
H147	H	-0.078857	0.469930	0.257926
H148	H	-0.039841	0.464245	0.338127
H149	H	-0.108197	0.324991	0.325802
H150	H	-0.069177	0.319283	0.406006
C151	C	0.238558	0.238654	0.239746
C152	C	0.269074	0.297689	0.298608
H153	H	0.254465	0.193009	0.194213
H154	H	0.220278	0.198523	0.285598
H155	H	0.220241	0.284397	0.199495
H156	H	0.287389	0.251946	0.338866
H157	H	0.287363	0.337823	0.252750
H158	H	0.478227	0.384125	0.384704
C159	C	0.041304	0.692134	0.818511
C160	C	0.029933	0.714695	0.714430
H161	H	0.025393	0.737780	0.864034
H162	H	0.033625	0.621567	0.833993
H163	H	0.072606	0.701772	0.828095
H164	H	-0.001369	0.705050	0.704844
H165	H	0.037608	0.785279	0.698942
C166	C	0.060327	0.238682	0.239808
C167	C	0.029838	0.297729	0.298679
H168	H	0.044399	0.193017	0.194306
H169	H	0.078608	0.284409	0.199533
H170	H	0.078646	0.198562	0.285665
H171	H	0.011521	0.337856	0.252822
H172	H	0.011549	0.251997	0.338957
H173	H	0.177284	0.316865	0.317740
