data_functionalizedCrystal
_audit_creation_method	'MofGen! by Chris Wilmer'
_symmetry_space_group_name_H-M	'P1'
_symmetry_Int_Tables_number	1
_symmetry_cell_setting	triclinic
loop_
_symmetry_equiv_pos_as_xyz
  x,y,z
_cell_length_a	9.565339
_cell_length_b	14.044220
_cell_length_c	14.044220
_cell_angle_alpha	93.188878
_cell_angle_beta	90.001475
_cell_angle_gamma	89.991240
loop_
_atom_site_label
_atom_site_type_symbol
_atom_site_fract_x
_atom_site_fract_y
_atom_site_fract_z
O1	O	-0.116117	-1.277156	-0.230161
O2	O	-0.116152	-1.000485	-0.221855
O3	O	-0.116121	-1.134668	-0.087672
O4	O	-0.116148	-1.142973	-0.364344
O5	O	0.116399	-1.134678	-0.087680
O6	O	0.116368	-1.000495	-0.221863
O7	O	0.116403	-1.277167	-0.230168
Zn8	Zn	0.153303	-1.138833	-0.226017
Zn9	Zn	-0.153052	-1.138819	-0.226007
O10	O	0.116372	-1.142984	-0.364351
C11	C	0.000104	-0.964868	-0.218223
C12	C	0.000091	-0.858725	-0.207379
N13	N	0.362383	-1.138849	-0.226023
C14	C	0.453563	-1.200928	-0.163975
C15	C	0.546724	-1.113090	-0.138138
C16	C	0.546777	-1.226652	-0.251798
C17	C	0.453492	-1.050965	-0.200140
C18	C	0.453537	-1.164586	-0.313842
C19	C	0.546656	-1.076690	-0.288037
N20	N	0.637869	-1.138826	-0.226004
C21	C	0.000139	-1.131037	-0.052054
C22	C	0.000139	-1.120193	0.054088
C23	C	0.000145	-1.312783	-0.233800
C24	C	0.000148	-1.418926	-0.244645
C25	C	0.000120	-0.664388	-0.187553
C26	C	0.000119	-0.613258	-0.264467
C27	C	0.000135	-0.505122	-0.253435
C28	C	0.000104	-0.772534	-0.198583
C29	C	0.000109	-1.146614	-0.399969
C30	C	0.000100	-1.157459	-0.506112
C31	C	0.000117	-1.100366	0.248426
C32	C	0.000122	-1.177281	0.299556
C33	C	0.000110	-1.166249	0.407692
C34	C	0.000129	-1.111397	0.140280
H35	H	0.412686	-1.253367	-0.111468
H36	H	0.587752	-1.300915	-0.273606
H37	H	0.000038	-1.251414	0.262117
H38	H	0.000104	-1.026239	0.285863
C39	C	0.601590	-1.084009	-0.039184
C40	C	0.747946	-1.083525	-0.040703
C41	C	0.798531	-1.056734	0.050434
H42	H	0.569876	-1.128133	0.004910
H43	H	0.568355	-1.022026	-0.020433
H44	H	0.781167	-1.145499	-0.059442
H45	H	0.779697	-1.039399	-0.084778
H46	H	0.765296	-0.994751	0.069185
H47	H	0.766807	-1.100861	0.094521
H48	H	0.897837	-1.056393	0.049414
H49	H	0.587274	-1.024119	-0.340499
C50	C	0.398826	-0.951984	-0.170929
C51	C	0.252462	-0.953165	-0.171226
C52	C	0.202052	-0.862006	-0.144315
H53	H	0.431302	-0.907763	-0.214682
H54	H	0.431423	-0.933573	-0.108706
H55	H	0.219878	-0.971564	-0.233440
H56	H	0.219948	-0.997366	-0.127473
H57	H	0.234650	-0.843595	-0.082092
H58	H	0.234538	-0.817792	-0.188070
H59	H	0.102741	-0.862797	-0.144504
H60	H	0.000105	-0.650697	-0.338600
H61	H	0.412573	-1.186396	-0.388097
H62	H	0.000135	-0.626951	-0.113425
