data_functionalizedCrystal
_audit_creation_method	'MofGen! by Chris Wilmer'
_symmetry_space_group_name_H-M	'P1'
_symmetry_Int_Tables_number	1
_symmetry_cell_setting	triclinic
loop_
_symmetry_equiv_pos_as_xyz
  x,y,z
_cell_length_a	10.540539
_cell_length_b	9.065218
_cell_length_c	8.140239
_cell_angle_alpha	90.001686
_cell_angle_beta	89.999332
_cell_angle_gamma	95.229312
loop_
_atom_site_label
_atom_site_type_symbol
_atom_site_fract_x
_atom_site_fract_y
_atom_site_fract_z
O1	O	1.686653	-0.207930	-0.136529
O2	O	2.186653	0.292070	0.363471
O3	O	1.317312	-0.227521	-0.136548
O4	O	1.817312	0.272479	0.363452
O5	O	1.509617	-0.003045	-0.136535
O6	O	2.009617	0.496955	0.363465
O7	O	1.494349	-0.432406	-0.136542
O8	O	1.994349	0.067594	0.363458
O9	O	1.509606	-0.003042	0.136692
O10	O	2.009606	0.496958	0.636692
O11	O	1.317302	-0.227519	0.136679
O12	O	1.817302	0.272481	0.636679
O13	O	1.686642	-0.207927	0.136698
O14	O	2.186642	0.292073	0.636698
Zn15	Zn	1.501970	-0.217723	0.180069
Zn16	Zn	2.001970	0.282277	0.680069
Zn17	Zn	1.501984	-0.217726	-0.179919
Zn18	Zn	2.001984	0.282274	0.320081
O19	O	1.494338	-0.432404	0.136685
O20	O	1.994338	0.067596	0.636685
C21	C	1.269999	-0.226051	0.000063
C22	C	1.769999	0.273949	0.500063
C23	C	1.129034	-0.221655	0.000055
C24	C	1.629034	0.278345	0.500055
N25	N	1.501970	-0.217719	0.425752
N26	N	2.001970	0.282281	0.925752
C27	C	1.508144	0.051936	0.000076
C28	C	2.008144	0.551936	0.500076
C29	C	1.503757	0.215757	0.000068
C30	C	2.003757	0.715757	0.500068
C31	C	0.944985	-0.053221	0.000696
C32	C	1.444985	0.446779	0.500696
C33	C	1.091619	-0.057677	0.000063
C34	C	1.591619	0.442323	0.500063
C35	C	1.067660	-0.300570	-0.155966
C36	C	1.567660	0.199430	0.344034
C37	C	0.921094	-0.294973	-0.156080
C38	C	1.421094	0.205027	0.343920
C39	C	0.920606	-0.298306	0.154630
C40	C	1.420606	0.201694	0.654630
C41	C	1.067594	-0.299817	0.156675
C42	C	1.567594	0.200183	0.656675
C43	C	1.733956	-0.209398	0.000084
C44	C	2.233956	0.290602	0.500084
C45	C	1.874920	-0.213794	0.000081
C46	C	2.374920	0.286206	0.500081
C47	C	1.495811	-0.487384	0.000070
C48	C	1.995811	0.012616	0.500070
C49	C	1.500198	-0.651205	0.000068
C50	C	2.000198	-0.151205	0.500068
N51	N	1.501995	-0.217718	-0.425602
N52	N	2.001995	0.282282	0.074398
H53	H	1.133999	0.004416	0.111906
H54	H	1.633999	0.504416	0.611906
H55	H	1.108338	-0.242167	0.272100
H56	H	1.608338	0.257833	0.772100
Cl57	Cl	1.155687	0.038441	-0.173205
Cl58	Cl	1.655687	0.538441	0.326795
Cl59	Cl	0.900467	0.046800	0.173449
Cl60	Cl	1.400467	0.546800	0.673449
Cl61	Cl	0.897981	0.046383	-0.171080
Cl62	Cl	1.397981	0.546383	0.328920
H63	H	0.892673	-0.236651	-0.272706
H64	H	1.392673	0.263349	0.227294
H65	H	0.873562	-0.412904	-0.163164
H66	H	1.373562	0.087096	0.336836
H67	H	1.092261	-0.419367	0.166094
H68	H	1.592261	0.080633	0.666094
Cl69	Cl	1.102895	-0.486477	-0.164975
Cl70	Cl	1.602895	0.013523	0.335025
Cl71	Cl	0.871601	-0.216366	0.337221
Cl72	Cl	1.371601	0.283634	0.837221
Cl73	Cl	1.133099	-0.215939	-0.335241
Cl74	Cl	1.633099	0.284061	0.164759
Cl75	Cl	0.848369	-0.481168	0.156257
Cl76	Cl	1.348369	0.018832	0.656257
