data_functionalizedCrystal
_audit_creation_method	'MofGen! by Chris Wilmer'
_symmetry_space_group_name_H-M	'P1'
_symmetry_Int_Tables_number	1
_symmetry_cell_setting	triclinic
loop_
_symmetry_equiv_pos_as_xyz
  x,y,z
_cell_length_a	18.050589
_cell_length_b	18.215407
_cell_length_c	18.215399
_cell_angle_alpha	90.017777
_cell_angle_beta	89.976397
_cell_angle_gamma	89.976159
loop_
_atom_site_label
_atom_site_type_symbol
_atom_site_fract_x
_atom_site_fract_y
_atom_site_fract_z
Zn1	Zn	-0.295754	-1.125055	-0.416098
Zn2	Zn	-0.045754	-0.875055	-0.166098
Zn3	Zn	0.204246	-0.625055	0.083902
Zn4	Zn	0.454246	-0.375055	0.333902
Zn5	Zn	-0.419949	-1.124956	-0.293041
Zn6	Zn	-0.169949	-0.874956	-0.043041
Zn7	Zn	0.080051	-0.624956	0.206959
Zn8	Zn	0.330051	-0.374956	0.456959
Zn9	Zn	-0.295768	-1.001987	-0.293049
Zn10	Zn	-0.045768	-0.751987	-0.043049
Zn11	Zn	0.204232	-0.501987	0.206951
Zn12	Zn	0.454232	-0.251987	0.456951
Zn13	Zn	-0.419897	-1.001946	-0.416070
Zn14	Zn	-0.169897	-0.751946	-0.166070
Zn15	Zn	0.080103	-0.501946	0.083930
Zn16	Zn	0.330103	-0.251946	0.333930
O17	O	-0.357842	-1.063486	-0.354564
O18	O	-0.107842	-0.813486	-0.104564
O19	O	0.142158	-0.563486	0.145436
O20	O	0.392158	-0.313486	0.395436
O21	O	-0.312244	-1.228026	-0.399782
O22	O	-0.062244	-0.978026	-0.149782
O23	O	0.187756	-0.728026	0.100218
O24	O	0.437756	-0.478026	0.350218
O25	O	-0.403503	-1.108620	-0.190058
O26	O	-0.153503	-0.858620	0.059942
O27	O	0.096497	-0.608620	0.309942
O28	O	0.346497	-0.358620	0.559942
O29	O	-0.191841	-1.018371	-0.309387
O30	O	0.058159	-0.768371	-0.059387
O31	O	0.308159	-0.518371	0.190613
O32	O	0.558159	-0.268371	0.440613
O33	O	-0.403490	-1.227953	-0.309372
O34	O	-0.153490	-0.977953	-0.059372
O35	O	0.096510	-0.727953	0.190628
O36	O	0.346510	-0.477953	0.440628
O37	O	-0.191831	-1.108788	-0.399790
O38	O	0.058169	-0.858788	-0.149790
O39	O	0.308169	-0.608788	0.100210
O40	O	0.558169	-0.358788	0.350210
O41	O	-0.312268	-1.018275	-0.190064
O42	O	-0.062268	-0.768275	0.059936
O43	O	0.187732	-0.518275	0.309936
O44	O	0.437732	-0.268275	0.559936
O45	O	-0.312218	-0.898998	-0.309361
O46	O	-0.062218	-0.648998	-0.059361
O47	O	0.187782	-0.398998	0.190639
O48	O	0.437782	-0.148998	0.440639
O49	O	-0.403402	-1.018301	-0.519058
O50	O	-0.153402	-0.768301	-0.269058
O51	O	0.096598	-0.518301	-0.019058
O52	O	0.346598	-0.268301	0.230942
O53	O	-0.403415	-0.898967	-0.399743
O54	O	-0.153415	-0.648967	-0.149743
O55	O	0.096585	-0.398967	0.100257
O56	O	0.346585	-0.148967	0.350257
O57	O	-0.312194	-1.108748	-0.519078
O58	O	-0.062194	-0.858748	-0.269078
O59	O	0.187806	-0.608748	-0.019078
O60	O	0.437806	-0.358748	0.230922
O61	O	-0.523867	-1.108580	-0.309346
O62	O	-0.273867	-0.858580	-0.059346
O63	O	-0.023867	-0.608580	0.190654
O64	O	0.226133	-0.358580	0.440654
O65	O	-0.523829	-1.018205	-0.399735
O66	O	-0.273829	-0.768205	-0.149735
O67	O	-0.023829	-0.518205	0.100265
O68	O	0.226171	-0.268205	0.350265
C69	C	-0.357813	-0.872280	-0.354550
C70	C	-0.107813	-0.622280	-0.104550
C71	C	0.142187	-0.372280	0.145450
C72	C	0.392187	-0.122280	0.395450
C73	C	-0.357818	-0.790481	-0.354562
C74	C	-0.107818	-0.540481	-0.104562
C75	C	0.142182	-0.290481	0.145438
C76	C	0.392182	-0.040481	0.395438
C77	C	-0.310399	-0.602324	-0.401711
C78	C	-0.060399	-0.352324	-0.151711
C79	C	0.189601	-0.102324	0.098289
C80	C	0.439601	0.147676	0.348289
C81	C	-0.310402	-0.525465	-0.401713
C82	C	-0.060402	-0.275465	-0.151713
C83	C	0.189598	-0.025465	0.098287
C84	C	0.439598	0.224535	0.348287
C85	C	-0.405274	-0.525400	-0.307424
C86	C	-0.155274	-0.275400	-0.057424
C87	C	0.094726	-0.025400	0.192576
C88	C	0.344726	0.224600	0.442576
C89	C	-0.405266	-0.602258	-0.307419
C90	C	-0.155266	-0.352258	-0.057419
C91	C	0.094734	-0.102258	0.192581
C92	C	0.344734	0.147742	0.442581
C93	C	-0.357829	-0.640717	-0.354566
C94	C	-0.107829	-0.390717	-0.104566
C95	C	0.142171	-0.140717	0.145434
C96	C	0.392171	0.109283	0.395434
C97	C	-0.357841	-0.487001	-0.354573
C98	C	-0.107841	-0.237001	-0.104573
C99	C	0.142159	0.012999	0.145427
C100	C	0.392159	0.262999	0.395427
C101	C	-0.357846	-0.403668	-0.354575
C102	C	-0.107846	-0.153668	-0.104575
C103	C	0.142154	0.096332	0.145425
C104	C	0.392154	0.346332	0.395425
C105	C	-0.357823	-0.724056	-0.354564
C106	C	-0.107823	-0.474056	-0.104564
C107	C	0.142177	-0.224056	0.145436
C108	C	0.392177	0.025944	0.395436
C109	C	-0.550794	-1.063397	-0.354552
C110	C	-0.300794	-0.813397	-0.104552
C111	C	-0.050794	-0.563397	0.145448
C112	C	0.199206	-0.313397	0.395448
C113	C	-0.633340	-1.063427	-0.354572
C114	C	-0.383340	-0.813427	-0.104572
C115	C	-0.133340	-0.563427	0.145428
C116	C	0.116660	-0.313427	0.395428
C117	C	-0.832797	-1.014329	-0.403708
C118	C	-0.582797	-0.764329	-0.153708
C119	C	-0.332797	-0.514329	0.096292
C120	C	-0.082797	-0.264329	0.346292
C121	C	-0.882236	-0.996389	-0.336555
C122	C	-0.632236	-0.746389	-0.086555
C123	C	-0.382236	-0.496389	0.163445
C124	C	-0.132236	-0.246389	0.413445
C125	C	-0.784470	-1.063499	-0.354581
C126	C	-0.534470	-0.813499	-0.104581
C127	C	-0.284470	-0.563499	0.145419
C128	C	-0.034470	-0.313499	0.395419
C129	C	-0.882113	-1.081475	-0.421742
C130	C	-0.632113	-0.831475	-0.171742
C131	C	-0.382113	-0.581475	0.078258
C132	C	-0.132113	-0.331475	0.328258
C133	C	-0.930455	-1.063567	-0.354596
C134	C	-0.680455	-0.813567	-0.104596
C135	C	-0.430455	-0.563567	0.145404
C136	C	-0.180455	-0.313567	0.395404
C137	C	-0.832822	-1.045524	-0.287392
C138	C	-0.582822	-0.795524	-0.037392
C139	C	-0.332822	-0.545524	0.212608
C140	C	-0.082822	-0.295524	0.462608
C141	C	-0.832695	-1.130641	-0.372625
C142	C	-0.582695	-0.880641	-0.122625
C143	C	-0.332695	-0.630641	0.127375
C144	C	-0.082695	-0.380641	0.377375
C145	C	-0.882111	-1.112726	-0.305426
C146	C	-0.632111	-0.862726	-0.055426
C147	C	-0.382111	-0.612726	0.194574
C148	C	-0.132111	-0.362726	0.444574
C149	C	-0.700372	-1.063458	-0.354573
C150	C	-0.450372	-0.813458	-0.104573
C151	C	-0.200372	-0.563458	0.145427
C152	C	0.049628	-0.313458	0.395427
C153	C	-1.014552	-1.063609	-0.354597
C154	C	-0.764552	-0.813609	-0.104597
C155	C	-0.514552	-0.563609	0.145403
C156	C	-0.264552	-0.313609	0.395403
C157	C	-0.164136	-1.063595	-0.354593
C158	C	0.085864	-0.813595	-0.104593
C159	C	0.335864	-0.563595	0.145407
C160	C	0.585864	-0.313595	0.395407
C161	C	-0.081590	-1.063642	-0.354605
C162	C	0.168410	-0.813642	-0.104605
C163	C	0.418410	-0.563642	0.145395
C164	C	0.668410	-0.313642	0.395395
C165	C	-0.357791	-1.063531	-0.546517
C166	C	-0.107791	-0.813531	-0.296517
C167	C	0.142209	-0.563531	-0.046517
C168	C	0.392209	-0.313531	0.203483
C169	C	-0.357769	-1.063550	-0.628316
C170	C	-0.107769	-0.813550	-0.378316
C171	C	0.142231	-0.563550	-0.128316
C172	C	0.392231	-0.313550	0.121684
C173	C	-0.357863	-0.255439	-0.354577
C174	C	-0.107863	-0.005439	-0.104577
C175	C	0.142137	0.244561	0.145423
C176	C	0.392137	0.494561	0.395423
C177	C	-0.357852	-0.337238	-0.354578
C178	C	-0.107852	-0.087238	-0.104578
C179	C	0.142148	0.162762	0.145422
C180	C	0.392148	0.412762	0.395422
C181	C	-0.310233	-1.110663	-0.816522
C182	C	-0.060233	-0.860663	-0.566522
C183	C	0.189767	-0.610663	-0.316522
C184	C	0.439767	-0.360663	-0.066522
C185	C	-0.310211	-1.110672	-0.893381
C186	C	-0.060211	-0.860672	-0.643381
C187	C	0.189789	-0.610672	-0.393381
C188	C	0.439789	-0.360672	-0.143381
C189	C	-0.405190	-1.016489	-0.893349
C190	C	-0.155190	-0.766489	-0.643349
C191	C	0.094810	-0.516489	-0.393349
C192	C	0.344810	-0.266489	-0.143349
C193	C	-0.405207	-1.016477	-0.816491
C194	C	-0.155207	-0.766477	-0.566491
C195	C	0.094793	-0.516477	-0.316491
C196	C	0.344793	-0.266477	-0.066491
C197	C	-0.357730	-1.063568	-0.778080
C198	C	-0.107730	-0.813568	-0.528080
C199	C	0.142270	-0.563568	-0.278080
C200	C	0.392270	-0.313568	-0.028080
C201	C	-0.357691	-1.063589	-0.931796
C202	C	-0.107691	-0.813589	-0.681796
C203	C	0.142309	-0.563589	-0.431796
C204	C	0.392309	-0.313589	-0.181796
C205	C	-0.357668	-1.063598	-1.015130
C206	C	-0.107668	-0.813598	-0.765130
C207	C	0.142332	-0.563598	-0.515130
C208	C	0.392332	-0.313598	-0.265130
C209	C	-0.357752	-1.063558	-0.694741
C210	C	-0.107752	-0.813558	-0.444741
C211	C	0.142248	-0.563558	-0.194741
C212	C	0.392248	-0.313558	0.055259
C213	C	-0.357839	-1.063484	-0.163358
C214	C	-0.107839	-0.813484	0.086642
C215	C	0.142161	-0.563484	0.336642
C216	C	0.392161	-0.313484	0.586642
C217	C	-0.357652	-1.063607	-0.081560
C218	C	-0.107652	-0.813607	0.168440
C219	C	0.142348	-0.563607	0.418440
C220	C	0.392348	-0.313607	0.668440
H221	H	-0.271779	-0.494208	-0.440101
H222	H	-0.021779	-0.244208	-0.190101
H223	H	0.228221	0.005792	0.059899
H224	H	0.478221	0.255792	0.309899
H225	H	-0.903764	-1.096652	-0.478534
H226	H	-0.653764	-0.846652	-0.228534
H227	H	-0.403764	-0.596652	0.021466
H228	H	-0.153764	-0.346652	0.271466
H229	H	-0.811260	-1.030281	-0.230585
H230	H	-0.561260	-0.780281	0.019415
H231	H	-0.311260	-0.530281	0.269415
H232	H	-0.061260	-0.280281	0.519415
H233	H	-0.443896	-0.494077	-0.269039
H234	H	-0.193896	-0.244077	-0.019039
H235	H	0.056104	0.005923	0.230961
H236	H	0.306104	0.255923	0.480961
H237	H	-0.810920	-1.187375	-0.387906
H238	H	-0.560920	-0.937375	-0.137906
H239	H	-0.310920	-0.687375	0.112094
H240	H	-0.060920	-0.437375	0.362094
F241	F	-0.259663	-1.160801	-0.934291
F242	F	-0.009663	-0.910801	-0.684291
F243	F	0.240337	-0.660801	-0.434291
F244	F	0.490337	-0.410801	-0.184291
H245	H	-0.811143	-0.972687	-0.445194
H246	H	-0.561143	-0.722687	-0.195194
H247	H	-0.311143	-0.472687	0.054806
H248	H	-0.061143	-0.222687	0.304806
H249	H	-0.443885	-0.978122	-0.785191
H250	H	-0.193885	-0.728122	-0.535191
H251	H	0.056115	-0.478122	-0.285191
H252	H	0.306115	-0.228122	-0.035191
F253	F	-0.910677	-0.922213	-0.316607
F254	F	-0.660677	-0.672213	-0.066607
F255	F	-0.410677	-0.422213	0.183393
F256	F	-0.160677	-0.172213	0.433393
F257	F	-0.455744	-0.643122	-0.257233
F258	F	-0.205744	-0.393122	-0.007233
F259	F	0.044256	-0.143122	0.242767
F260	F	0.294256	0.106878	0.492767
H261	H	-0.903628	-1.154337	-0.263839
H262	H	-0.653628	-0.904337	-0.013839
H263	H	-0.403628	-0.654337	0.236161
H264	H	-0.153628	-0.404337	0.486161
F265	F	-0.455719	-0.966377	-0.934235
F266	F	-0.205719	-0.716377	-0.684235
F267	F	0.044281	-0.466377	-0.434235
F268	F	0.294281	-0.216377	-0.184235
F269	F	-0.259701	-1.160779	-0.775645
F270	F	-0.009701	-0.910779	-0.525645
F271	F	0.240299	-0.660779	-0.275645
F272	F	0.490299	-0.410779	-0.025645
F273	F	-0.259910	-0.643253	-0.451887
F274	F	-0.009910	-0.393253	-0.201887
F275	F	0.240090	-0.143253	0.048113
F276	F	0.490090	0.106747	0.298113
