data_functionalizedCrystal
_audit_creation_method	'MofGen! by Chris Wilmer'
_symmetry_space_group_name_H-M	'P1'
_symmetry_Int_Tables_number	1
_symmetry_cell_setting	triclinic
loop_
_symmetry_equiv_pos_as_xyz
  x,y,z
_cell_length_a	10.686220
_cell_length_b	21.295417
_cell_length_c	10.685880
_cell_angle_alpha	94.332822
_cell_angle_beta	89.641569
_cell_angle_gamma	94.412682
loop_
_atom_site_label
_atom_site_type_symbol
_atom_site_fract_x
_atom_site_fract_y
_atom_site_fract_z
Zn1	Zn	1.972145	-0.196503	-0.562327
Zn2	Zn	1.955873	-0.294391	-0.352551
Zn3	Zn	1.746274	-0.197786	-0.368649
Zn4	Zn	1.762281	-0.310391	-0.578319
O5	O	1.859143	-0.249768	-0.465462
O6	O	2.145533	-0.202255	-0.521070
O7	O	1.914560	-0.275417	-0.179147
O8	O	1.776347	-0.109524	-0.394385
O9	O	2.133578	-0.274173	-0.366949
O10	O	1.942294	-0.108581	-0.536679
O11	O	1.760569	-0.204442	-0.190974
O12	O	1.572851	-0.219957	-0.409892
O13	O	1.803629	-0.301443	-0.751738
O14	O	1.584611	-0.302687	-0.563936
O15	O	1.957816	-0.217770	-0.739988
O16	O	1.930082	-0.384605	-0.382456
O17	O	1.787851	-0.396361	-0.548327
C18	C	1.533214	-0.263198	-0.490397
C19	C	1.393782	-0.268960	-0.501094
C20	C	1.858974	-0.413324	-0.465405
C21	C	1.859019	-0.483291	-0.465414
C22	C	1.933156	-0.510015	-0.379121
C23	C	1.933217	-0.575756	-0.379145
C24	C	1.859118	-0.614771	-0.465450
C25	C	1.784976	-0.588039	-0.551758
C26	C	1.784927	-0.522299	-0.551740
N27	N	1.750111	-0.722899	-0.483408
N28	N	1.750161	-0.785349	-0.483418
C29	C	1.859264	-0.812842	-0.465511
N30	N	1.968315	-0.775525	-0.447569
N31	N	1.968263	-0.713069	-0.447553
C32	C	1.859163	-0.686055	-0.465479
C33	C	1.933473	-0.910850	-0.379239
C34	C	1.933537	-0.976593	-0.379272
C35	C	1.785284	-0.988874	-0.551879
C36	C	1.785232	-0.923133	-0.551852
C37	C	1.859324	-0.884125	-0.465526
C38	C	2.186346	-0.236286	-0.440429
C39	C	2.325780	-0.230541	-0.429762
C40	C	1.884323	-0.261248	-0.792651
C41	C	1.895053	-0.266141	-0.932079
C42	C	1.859350	-0.085573	-0.465544
C43	C	1.859438	-0.015603	-0.465578
C44	C	1.834134	-0.238284	-0.139540
C45	C	1.823647	-0.233204	-0.000093
H46	H	1.345325	-0.306265	-0.570346
H47	H	1.964406	-0.298085	-0.980522
O48	O	1.383705	-0.186119	-0.347070
C49	C	1.453186	-0.215955	-0.260158
H50	H	1.476051	-0.264445	-0.302748
H51	H	1.395584	-0.221596	-0.170995
C52	C	1.547923	-0.115867	-0.175821
C53	C	1.576016	-0.175422	-0.228135
H54	H	1.623688	-0.090863	-0.156063
H55	H	1.501109	-0.095765	-0.234372
H56	H	1.499919	-0.120577	-0.101525
H57	H	1.624005	-0.170712	-0.302438
H58	H	1.622841	-0.195522	-0.169596
O59	O	2.005066	-0.472191	-0.295107
C60	C	1.968121	-0.485024	-0.172154
H61	H	1.919723	-0.534672	-0.173218
H62	H	1.900385	-0.449234	-0.134769
C63	C	2.144086	-0.419343	-0.085608
C64	C	2.084652	-0.480324	-0.086912
H65	H	2.215966	-0.416441	-0.033023
H66	H	2.168975	-0.410695	-0.168442
H67	H	2.087627	-0.389525	-0.054456
H68	H	2.141106	-0.510140	-0.118078
H69	H	2.059775	-0.488977	-0.004080
O70	O	2.005352	-0.601762	-0.295469
C71	C	2.091829	-0.638929	-0.360735
H72	H	2.107144	-0.622239	-0.458938
H73	H	2.053375	-0.690514	-0.368028
C74	C	2.198739	-0.652889	-0.168906
C75	C	2.217557	-0.632387	-0.289517
H76	H	2.276292	-0.648857	-0.124974
H77	H	2.140475	-0.627851	-0.124933
H78	H	2.166690	-0.695875	-0.175001
H79	H	2.249590	-0.589400	-0.283420
H80	H	2.275829	-0.657418	-0.333487
H81	H	1.724646	-0.619809	-0.622030
H82	H	1.724554	-0.500540	-0.622011
O83	O	2.005563	-0.873044	-0.295342
C84	C	2.070998	-0.910733	-0.219166
H85	H	2.079299	-0.959204	-0.270240
H86	H	2.017804	-0.916320	-0.127372
C87	C	2.192922	-0.819345	-0.128234
C88	C	2.203127	-0.878877	-0.190968
H89	H	2.274423	-0.799694	-0.110834
H90	H	2.148835	-0.793953	-0.179551
H91	H	2.148589	-0.824009	-0.051746
H92	H	2.247445	-0.874211	-0.267461
H93	H	2.247225	-0.904268	-0.139662
H94	H	1.754294	-0.201265	-0.951657
O95	O	2.005813	-1.002553	-0.295661
C96	C	2.092299	-1.039668	-0.361048
H97	H	2.107404	-1.022985	-0.459281
H98	H	2.053977	-1.091273	-0.368264
C99	C	2.199578	-1.053525	-0.169376
C100	C	2.218140	-1.033031	-0.290024
H101	H	2.277202	-1.049434	-0.125564
H102	H	2.141309	-1.028522	-0.125322
H103	H	2.167640	-1.096528	-0.175406
H104	H	2.250062	-0.990027	-0.283992
H105	H	2.276418	-1.058027	-0.334075
O106	O	1.713339	-1.026856	-0.635599
C107	C	1.729309	-1.090612	-0.617140
H108	H	1.763026	-1.094503	-0.517218
H109	H	1.801802	-1.109076	-0.686497
C110	C	1.561866	-1.125276	-0.760990
C111	C	1.603268	-1.130056	-0.638260
H112	H	1.484121	-1.149608	-0.774023
H113	H	1.551110	-1.082323	-0.773431
H114	H	1.622289	-1.140662	-0.818773
H115	H	1.542854	-1.114663	-0.580480
H116	H	1.614012	-1.173008	-0.625810
O117	O	1.713085	-0.897273	-0.635715
C118	C	1.647717	-0.945802	-0.711917
H119	H	1.639500	-0.991053	-0.660877
H120	H	1.700914	-0.954202	-0.803721
C121	C	1.525643	-0.870761	-0.802777
C122	C	1.515542	-0.926338	-0.740085
H123	H	1.444114	-0.858755	-0.820158
H124	H	1.569686	-0.838066	-0.751442
H125	H	1.569979	-0.877769	-0.879273
H126	H	1.471221	-0.919328	-0.663583
H127	H	1.471488	-0.959032	-0.791408
