data_functionalizedCrystal
_audit_creation_method	'MofGen! by Chris Wilmer'
_symmetry_space_group_name_H-M	'P1'
_symmetry_Int_Tables_number	1
_symmetry_cell_setting	triclinic
loop_
_symmetry_equiv_pos_as_xyz
  x,y,z
_cell_length_a	13.635800
_cell_length_b	27.923497
_cell_length_c	27.924317
_cell_angle_alpha	82.391080
_cell_angle_beta	98.979858
_cell_angle_gamma	81.035752
loop_
_atom_site_label
_atom_site_type_symbol
_atom_site_fract_x
_atom_site_fract_y
_atom_site_fract_z
V1	V	1.977267	-0.067878	0.151603
O2	O	1.983135	0.002491	0.148388
O3	O	1.942286	-0.133850	0.150882
O4	O	1.942329	-0.067172	0.217578
O5	O	1.983091	-0.064648	0.081231
V6	V	2.221869	-0.059421	0.143147
O7	O	2.101664	-0.086429	0.170150
O8	O	2.322571	-0.040870	0.124599
O9	O	2.145248	0.006550	0.143868
O10	O	2.274700	-0.129790	0.146362
O11	O	2.274743	-0.062652	0.213519
O12	O	2.145204	-0.060127	0.077172
V13	V	2.477267	-0.067878	0.151603
O14	O	2.483135	0.002491	0.148388
O15	O	2.442286	-0.133850	0.150882
O16	O	2.442329	-0.067172	0.217578
O17	O	2.483091	-0.064648	0.081231
V18	V	2.721869	-0.059421	0.143147
O19	O	2.601664	-0.086429	0.170150
O20	O	2.822571	-0.040870	0.124599
O21	O	2.645248	0.006550	0.143868
O22	O	2.774700	-0.129790	0.146362
O23	O	2.774743	-0.062652	0.213519
O24	O	2.645204	-0.060127	0.077172
C25	C	1.862511	-0.149922	0.148572
C26	C	1.874481	-0.203856	0.148423
C27	C	1.937168	-0.531154	0.102977
C28	C	1.982195	-0.733858	0.102390
O29	O	1.978168	-0.753991	0.064498
N30	N	1.999452	-0.766352	0.146784
C31	C	2.005459	-0.748167	0.191328
O32	O	2.021181	-0.780457	0.229075
C33	C	1.960440	-0.545464	0.191915
C34	C	1.943172	-0.512972	0.147518
C35	C	1.919902	-0.498662	0.058584
C36	C	1.908641	-0.447989	0.058731
C37	C	1.914645	-0.429807	0.103272
C38	C	1.931911	-0.462299	0.147665
C39	C	1.966454	-0.527280	0.236459
C40	C	1.955200	-0.476601	0.236602
C41	C	1.937932	-0.444109	0.192205
C42	C	1.926653	-0.393444	0.192353
N43	N	1.909396	-0.360950	0.147959
C44	C	1.903392	-0.379132	0.103419
C45	C	2.029093	-0.854589	0.191016
C46	C	2.040346	-0.905265	0.190870
C47	C	2.017082	-0.890952	0.101931
C48	C	2.005822	-0.840275	0.102078
C49	C	2.011835	-0.822095	0.146622
C50	C	1.879742	-0.272715	0.103731
C51	C	1.868477	-0.222038	0.103882
C52	C	1.891747	-0.236355	0.192820
C53	C	1.903006	-0.287028	0.192669
C54	C	1.897006	-0.305206	0.148121
O55	O	1.930679	-0.373277	0.230225
O56	O	1.887692	-0.346835	0.065678
C57	C	1.948429	-0.581827	0.102830
C58	C	1.965695	-0.614318	0.147224
C59	C	1.971699	-0.596136	0.191764
C60	C	1.976948	-0.664994	0.147077
C61	C	1.970944	-0.683176	0.102536
C62	C	1.953686	-0.650682	0.058142
C63	C	1.942425	-0.600009	0.058289
C64	C	1.988956	-0.628630	0.236158
C65	C	2.000216	-0.679303	0.236007
C66	C	1.994211	-0.697485	0.191467
C67	C	1.862565	-0.064867	0.233648
C68	C	1.874570	-0.064727	0.287585
C69	C	2.056693	0.022619	0.146176
C70	C	2.034341	0.076554	0.146329
C71	C	2.056639	-0.062434	0.061099
C72	C	2.034254	-0.062572	0.007162
C73	C	2.362511	-0.149922	0.148572
C74	C	2.374481	-0.203856	0.148423
C75	C	2.470359	-0.231670	0.150789
C76	C	2.481622	-0.282349	0.150656
C77	C	2.397006	-0.305212	0.148154
C78	C	2.301121	-0.277395	0.145789
C79	C	2.289859	-0.226717	0.145925
C80	C	1.971631	-0.108045	0.679873
C81	C	1.926654	-0.108650	0.477173
O82	O	1.930672	-0.146543	0.457043
N83	N	1.909421	-0.064259	0.444676
C84	C	1.903425	-0.019713	0.462858
O85	O	1.887725	0.018031	0.430566
C86	C	1.948396	-0.019108	0.665557
C87	C	1.965639	-0.063503	0.698052
C88	C	1.988873	-0.152436	0.712367
C89	C	2.000121	-0.152284	0.763039
C90	C	1.994129	-0.107742	0.781218
C91	C	1.976888	-0.063351	0.748724
C92	C	1.942393	0.025437	0.683738
C93	C	1.953635	0.025584	0.734416
C94	C	1.970878	-0.018810	0.766911
C95	C	1.982144	-0.018657	0.817575
N96	N	1.999378	-0.063049	0.850071
C97	C	2.005370	-0.107591	0.831892
C98	C	1.879818	-0.020033	0.356438
C99	C	1.868578	-0.020184	0.305763
C100	C	1.891805	-0.109122	0.320082
C101	C	1.903053	-0.108970	0.370758
C102	C	1.897051	-0.064425	0.388934
C103	C	2.028993	-0.107269	0.938307
C104	C	2.040246	-0.107114	0.988983
C105	C	2.017013	-0.018177	0.974661
C106	C	2.005766	-0.018332	0.923989
C107	C	2.011754	-0.062882	0.905814
O108	O	1.978128	0.019216	0.837738
O109	O	2.021048	-0.145329	0.864191
C110	C	1.960382	-0.108197	0.629201
C111	C	1.943141	-0.063806	0.596707
C112	C	1.937149	-0.019263	0.614886
C113	C	1.931900	-0.063957	0.546033
C114	C	1.937893	-0.108499	0.527854
C115	C	1.955126	-0.152890	0.560351
C116	C	1.966375	-0.152739	0.611023
C117	C	1.919916	0.025128	0.582390
C118	C	1.908669	0.024973	0.531718
C119	C	1.914661	-0.019570	0.513539
C120	C	2.362565	-0.064867	0.233648
C121	C	2.374570	-0.064727	0.287585
C122	C	2.556693	0.022619	0.146176
C123	C	2.534341	0.076554	0.146329
C124	C	2.556639	-0.062434	0.061099
C125	C	2.534254	-0.062572	0.007162
C126	C	2.470462	-0.067092	0.315399
C127	C	2.481754	-0.066954	0.366078
C128	C	2.397153	-0.064453	0.388942
C129	C	2.301253	-0.062086	0.361124
C130	C	2.289961	-0.062221	0.310446
C131	C	2.610957	0.104368	0.143964
C132	C	2.589965	0.155046	0.144100
C133	C	2.492358	0.177909	0.146603
C134	C	2.415737	0.150092	0.148966
C135	C	2.436728	0.099415	0.148828
C136	C	2.436624	-0.065067	-0.015690
C137	C	2.415574	-0.065191	-0.066370
C138	C	2.492158	-0.062823	-0.094198
C139	C	2.589796	-0.060327	-0.071343
C140	C	2.610843	-0.060199	-0.020664
H141	H	1.854413	-0.195584	0.067727
H142	H	2.336265	0.168715	0.151004
N143	N	2.358389	-0.067483	0.012731
N144	N	2.367157	-0.102337	0.047085
H145	H	2.311895	-0.104040	0.067153
N146	N	2.579720	-0.069384	0.394489
N147	N	2.615132	-0.104238	0.428845
H148	H	2.684320	-0.105956	0.448911
N149	N	2.358448	0.071013	0.151244
N150	N	2.271308	0.091438	0.153480
H151	H	2.216016	0.071382	0.155187
H152	H	2.336067	-0.067223	-0.084971
N153	N	2.579570	-0.310759	0.153077
N154	N	2.647738	-0.312279	0.189105
H155	H	2.716914	-0.332342	0.190816
H156	H	2.539360	-0.069129	0.296790
H157	H	2.690346	-0.058171	-0.002061
H158	H	1.991760	-0.813823	0.065926
H159	H	2.690440	0.085759	0.141926
N160	N	2.191997	-0.059806	0.282045
N161	N	2.116477	-0.057575	0.302470
H162	H	2.047284	-0.055868	0.282415
N163	N	2.668251	0.183447	0.141685
N164	N	2.755395	0.163023	0.139456
H165	H	2.810686	0.183079	0.137750
H166	H	2.475280	0.219174	0.146715
N167	N	2.408520	-0.356980	0.148022
N168	N	2.462835	-0.386230	0.183433
H169	H	2.470972	-0.422791	0.183340
H170	H	2.475010	-0.062934	-0.135462
H171	H	2.012140	0.018088	0.989471
H172	H	2.652145	-0.058398	-0.094007
N173	N	2.191910	-0.198316	0.143507
N174	N	2.116375	-0.218740	0.141272
H175	H	2.047193	-0.198684	0.139565
N176	N	1.873618	-0.291271	0.058223
N177	N	1.858204	-0.262248	0.018592
H178	H	1.853876	-0.275352	-0.013549
H179	H	1.915014	-0.513460	0.022312
N180	N	1.891007	-0.414810	0.013376
N181	N	1.885654	-0.431060	-0.026386
H182	H	1.873203	-0.407630	-0.058421
H183	H	2.012190	-0.905764	0.065664
N184	N	2.556790	-0.208315	0.153343
N185	N	2.561666	-0.175064	0.119578
H186	H	2.622713	-0.158572	0.121384
H187	H	1.993847	-0.613833	0.272430
H188	H	1.991738	0.017817	0.897531
N189	N	2.214703	-0.300761	0.143224
N190	N	2.191884	-0.322960	0.108215
H191	H	2.130853	-0.339465	0.106400
N192	N	2.057960	-0.938444	0.236224
N193	N	2.063316	-0.922197	0.275987
H194	H	2.075759	-0.945628	0.308021
H195	H	1.948752	0.061860	0.749213
N196	N	2.057867	-0.152469	1.022169
N197	N	2.063213	-0.192234	1.005927
H198	H	2.075657	-0.224266	1.029362
N199	N	1.983991	-0.198092	0.644204
N200	N	1.989337	-0.237855	0.627958
H201	H	2.001778	-0.269888	0.651390
H202	H	1.980514	-0.553727	0.272612
N203	N	2.035243	-0.836031	0.236525
N204	N	2.050652	-0.865054	0.276155
H205	H	2.054994	-0.851950	0.308296
H206	H	2.014159	-0.188435	0.789492
N207	N	1.961252	-0.198386	0.541768
N208	N	1.951208	-0.198508	0.496522
H209	H	1.955530	-0.230636	0.483395
N210	N	2.034962	-0.152776	0.919751
N211	N	2.050258	-0.192401	0.948774
H212	H	2.054421	-0.224539	0.935667
N213	N	1.995002	-0.197943	0.693812
N214	N	2.010401	-0.237570	0.722839
H215	H	2.014741	-0.269714	0.709740
H216	H	1.960109	-0.461802	0.272876
H217	H	1.917050	-0.313484	0.228821
H218	H	1.896628	-0.221542	0.229084
H219	H	1.928365	-0.573558	0.022137
N220	N	2.408714	-0.064314	0.440709
N221	N	2.494345	-0.066427	0.465534
H222	H	2.502516	-0.066330	0.502095
N223	N	1.947548	-0.669267	0.012649
N224	N	1.957604	-0.714515	0.012531
H225	H	1.953274	-0.727645	-0.019597
H226	H	1.896683	-0.145390	0.305273
H227	H	2.014268	-0.705755	0.272164
H228	H	1.915029	0.061400	0.597184
N229	N	1.920646	-0.154322	0.403939
N230	N	1.857374	-0.182231	0.401134
H231	H	1.869796	-0.214263	0.424567
N232	N	1.850966	0.025168	0.272582
N233	N	1.774654	0.056838	0.271526
H234	H	1.762209	0.088871	0.248093
N235	N	1.873682	0.025477	0.374993
N236	N	1.858297	0.065104	0.345968
H237	H	1.853966	0.097247	0.359069
H238	H	1.928354	0.061588	0.657289
H239	H	1.894636	0.061126	0.505264
H240	H	2.232375	-0.060051	0.379748
