data_functionalizedCrystal
_audit_creation_method	'MofGen! by Chris Wilmer'
_symmetry_space_group_name_H-M	'P1'
_symmetry_Int_Tables_number	1
_symmetry_cell_setting	triclinic
loop_
_symmetry_equiv_pos_as_xyz
  x,y,z
_cell_length_a	15.698487
_cell_length_b	18.760492
_cell_length_c	15.698487
_cell_angle_alpha	60.001456
_cell_angle_beta	90.001637
_cell_angle_gamma	60.001039
loop_
_atom_site_label
_atom_site_type_symbol
_atom_site_fract_x
_atom_site_fract_y
_atom_site_fract_z
Zr1	Zr	0.820656	0.780187	-0.111738
O2	O	0.684644	0.928891	-0.247754
O3	O	0.862348	0.631484	-0.070044
O4	O	0.862354	0.780184	-0.247751
O5	O	0.684637	0.780194	0.070134
O6	O	1.002539	0.780181	-0.247746
O7	O	0.684638	0.780191	-0.070047
O8	O	1.002527	0.514184	0.070139
O9	O	0.684648	1.046191	-0.247751
O10	O	0.984751	0.692646	-0.052256
O11	O	0.880132	0.692650	0.052356
O12	O	0.880139	0.867725	-0.156871
O13	O	0.775521	0.867729	-0.052259
Zr14	Zr	1.044233	0.780187	0.111843
Zr15	Zr	1.044234	0.780183	-0.111730
Zr16	Zr	0.820655	0.780192	0.111835
Zr17	Zr	0.820662	0.967267	-0.111734
Zr18	Zr	1.044227	0.593107	0.111838
O19	O	1.002541	0.928891	0.070149
O20	O	1.002543	0.928885	-0.247743
O21	O	0.684642	0.928897	0.070137
O22	O	1.180245	0.631484	0.247859
O23	O	1.180247	0.631477	-0.070033
O24	O	0.862345	0.631490	0.247847
O25	O	1.180252	0.780181	-0.070029
O26	O	1.002535	0.780191	0.247856
O27	O	0.862350	0.780194	0.247851
O28	O	1.180251	0.780184	0.070152
O29	O	0.862363	1.046187	-0.247745
O30	O	1.002526	0.514187	0.247850
O31	O	1.180241	0.514184	0.247856
O32	O	1.180242	0.514180	0.070146
O33	O	0.684647	1.046195	-0.070041
O34	O	0.862361	1.046191	-0.070034
O35	O	0.984749	0.692650	0.156976
O36	O	1.089368	0.692646	0.052364
O37	O	0.984757	0.867725	-0.052251
O38	O	0.880138	0.867729	0.052360
C39	C	0.932437	0.546179	0.000047
C40	C	0.932434	0.466758	0.000045
C41	C	0.877819	0.429450	0.054651
C42	C	0.987054	0.429435	-0.054556
C43	C	0.987057	0.354812	-0.054556
C44	C	0.932442	0.317503	0.000050
C45	C	0.877824	0.354818	0.054655
C46	C	1.041683	0.317485	-0.109151
C47	C	1.041690	0.242856	-0.109152
C48	C	0.987068	0.205551	-0.054552
C49	C	0.932447	0.242871	0.000055
C50	C	0.877832	0.205563	0.054660
C51	C	0.823204	0.242886	0.109261
C52	C	0.823202	0.317513	0.109255
C53	C	0.987069	0.130925	-0.054546
C54	C	0.877836	0.130931	0.054665
C55	C	0.652782	0.780193	0.000042
C56	C	0.557868	0.780195	0.000039
C57	C	0.480786	0.780197	0.000041
C58	C	0.384088	0.780192	0.000052
C59	C	1.212107	0.780182	0.000063
C60	C	1.307021	0.780180	0.000066
C61	C	0.932447	0.780182	-0.279603
C62	C	0.932447	0.780180	-0.374515
C63	C	0.932452	1.014196	0.000058
C64	C	0.932455	1.093616	0.000060
C65	C	0.932448	0.780177	-0.451594
C66	C	0.932446	0.780183	-0.548298
C67	C	0.932442	0.780193	0.279708
C68	C	0.932441	0.780195	0.374620
C69	C	1.212099	0.546173	0.000057
C70	C	1.307011	0.466751	0.000059
C71	C	0.932435	0.546184	0.279702
C72	C	0.932431	0.466766	0.374613
C73	C	1.212097	0.546179	0.279712
C74	C	1.307008	0.466758	0.374627
C75	C	0.652792	1.014196	-0.279608
C76	C	0.557881	1.093616	-0.374522
C77	C	0.652790	1.014202	0.000048
C78	C	0.557878	1.093624	0.000046
C79	C	0.932454	1.014190	-0.279597
C80	C	0.932458	1.093609	-0.374508
C81	C	1.296974	0.429453	-0.054560
C82	C	1.386145	0.354838	-0.054580
C83	C	1.485353	0.317516	0.000027
C84	C	1.495388	0.354821	0.054647
C85	C	1.406218	0.429440	0.054660
C86	C	0.987039	0.429470	0.473804
C87	C	0.987032	0.354859	0.562991
C88	C	0.932423	0.317539	0.552985
C89	C	0.877808	0.354842	0.453784
C90	C	0.877810	0.429457	0.364599
C91	C	1.406199	0.429460	0.364593
C92	C	1.495387	0.354846	0.453766
C93	C	1.485382	0.317528	0.552972
C94	C	1.386180	0.354834	0.563004
C95	C	1.296995	0.429451	0.473831
C96	C	0.458690	1.130924	-0.364488
C97	C	0.369502	1.205561	-0.453661
C98	C	0.379507	1.242883	-0.552867
C99	C	0.478709	1.205572	-0.562899
C100	C	0.567894	1.130942	-0.473727
C101	C	0.567915	1.130929	0.054656
C102	C	0.478744	1.205565	0.054650
C103	C	0.379536	1.242889	0.000041
C104	C	0.369500	1.205581	-0.054575
C105	C	0.458671	1.130951	-0.054575
C106	C	0.987077	1.130905	-0.364469
C107	C	0.987101	1.205517	-0.453639
C108	C	0.932498	1.242837	-0.552847
C109	C	0.877876	1.205533	-0.562884
C110	C	0.877860	1.130918	-0.473715
H111	H	0.778728	0.347907	0.153710
H112	H	1.086169	0.212473	-0.153612
Cl113	Cl	0.491269	1.252498	-0.687623
H114	H	1.576153	0.324479	0.445580
Cl115	Cl	0.809160	0.476328	0.239905
H116	H	1.031508	0.459848	0.481970
Cl117	Cl	0.692588	1.084042	-0.486359
Cl118	Cl	0.267445	1.336708	0.000054
Cl119	Cl	1.620115	0.307888	0.123296
Cl120	Cl	1.055766	1.252403	-0.440997
Cl121	Cl	0.491384	1.252447	0.123322
Cl122	Cl	0.809176	1.084050	-0.486355
Cl123	Cl	0.809226	1.252470	-0.687612
Cl124	Cl	0.754561	0.195965	0.177919
Cl125	Cl	0.446085	1.084020	-0.239783
H126	H	0.932430	0.256782	0.625613
H127	H	0.833347	0.324445	0.445652
H128	H	0.288737	1.235927	-0.445473
H129	H	0.833357	0.100564	0.099127
H130	H	1.558011	0.256769	0.625573
Cl131	Cl	0.446034	1.084055	-0.123227
H132	H	0.833339	0.459845	0.099102
Cl133	Cl	1.055756	0.083993	-0.123164
H134	H	1.031542	1.100530	-0.283696
H135	H	0.306878	1.303651	-0.625469
Cl136	Cl	1.418804	0.476365	0.239888
H137	H	1.216232	0.459810	0.482016
Cl138	Cl	0.692623	1.084028	0.123310
Cl139	Cl	0.244774	1.252509	-0.123217
H140	H	1.031526	0.459809	-0.099008
Cl141	Cl	1.418855	0.476313	0.123339
H142	H	1.378049	0.324438	0.643789
Cl143	Cl	0.932526	1.336644	-0.664937
H144	H	1.216202	0.459840	-0.099040
Cl145	Cl	1.110336	0.364390	-0.177794
Cl146	Cl	1.373505	0.307952	-0.123246
H147	H	1.557953	0.256756	0.000009
Cl148	Cl	1.055699	0.307975	0.687687
