data_functionalizedCrystal
_audit_creation_method	'MofGen! by Chris Wilmer'
_symmetry_space_group_name_H-M	'P1'
_symmetry_Int_Tables_number	1
_symmetry_cell_setting	triclinic
loop_
_symmetry_equiv_pos_as_xyz
  x,y,z
_cell_length_a	16.109302
_cell_length_b	17.019294
_cell_length_c	15.186229
_cell_angle_alpha	86.117288
_cell_angle_beta	89.994701
_cell_angle_gamma	83.427801
loop_
_atom_site_label
_atom_site_type_symbol
_atom_site_fract_x
_atom_site_fract_y
_atom_site_fract_z
O1	O	1.103039	0.101397	-0.080956
O2	O	0.860966	0.114015	-0.081905
O3	O	0.988755	-0.007128	-0.072719
O4	O	0.975249	0.222541	-0.090142
O5	O	0.988747	-0.007130	0.073739
O6	O	0.860957	0.114014	0.064552
O7	O	1.103030	0.101396	0.065502
Zn8	Zn	0.981992	0.107704	0.088280
Zn9	Zn	0.982004	0.107707	-0.104684
O10	O	0.975241	0.222539	0.056315
C11	C	0.829987	0.113503	-0.008637
C12	C	0.737693	0.111971	-0.008518
C13	C	0.525351	0.108426	0.071576
C14	C	0.438632	0.106977	0.071683
C15	C	0.438652	0.106983	-0.087993
C16	C	0.525370	0.108426	-0.088099
C17	C	0.568716	0.109151	-0.008312
C18	C	0.395280	0.106260	-0.008099
C19	C	0.301255	0.104689	-0.007984
C20	C	0.662747	0.110720	-0.008426
C21	C	0.988239	-0.036518	0.002738
C22	C	0.986703	-0.124088	0.009376
C23	C	0.985987	-0.165223	-0.067339
C24	C	0.984539	-0.247504	-0.061099
C25	C	0.983811	-0.288648	0.021856
C26	C	0.984524	-0.247507	0.098577
C27	C	0.985967	-0.165227	0.092336
C28	C	0.979449	-0.537080	0.044693
C29	C	0.978009	-0.619366	0.050928
C30	C	0.978022	-0.619357	-0.108749
C31	C	0.979470	-0.537076	-0.114982
C32	C	0.980178	-0.495941	-0.038262
C33	C	0.982333	-0.372753	0.028236
C34	C	0.981650	-0.411838	-0.044643
C35	C	1.134009	0.101908	-0.007768
C36	C	1.226303	0.103440	-0.007893
C37	C	0.975757	0.251929	-0.019143
C38	C	0.977293	0.339499	-0.025787
N39	N	0.981991	0.107702	0.219973
N40	N	0.982012	0.107702	-0.236376
C41	C	1.038595	0.054078	0.449762
C42	C	1.038598	0.054076	0.541952
C43	C	0.925401	0.161329	0.533828
C44	C	0.925395	0.161327	0.441640
C45	C	0.981997	0.107702	0.399610
C46	C	0.982006	0.107703	0.583987
C47	C	0.982008	0.107701	0.683944
C48	C	0.981994	0.107702	0.299647
H49	H	0.403348	0.106393	-0.152953
O50	O	0.864363	0.219175	0.579159
H51	H	0.873881	0.210176	0.651688
O52	O	0.977240	-0.663744	0.140409
H53	H	0.976136	-0.727871	0.131856
O54	O	0.977236	-0.663721	-0.191493
H55	H	1.034153	-0.654979	-0.230447
O56	O	0.864350	0.219169	0.387536
H57	H	0.825002	0.256466	0.432248
O58	O	0.572155	0.109205	-0.174265
H59	H	0.548052	0.162667	-0.216604
O60	O	0.572107	0.109209	0.157627
H61	H	0.527380	0.108458	0.213195
H62	H	0.983960	-0.280993	-0.123569
H63	H	1.084684	0.010410	0.582784
H64	H	0.981743	-0.406262	0.095779
H65	H	0.403327	0.106387	0.136736
H66	H	0.986584	-0.131729	-0.134890
H67	H	1.084683	0.010413	0.415544
H68	H	0.980063	-0.503581	-0.182533
O69	O	0.980234	-0.492720	0.127437
H70	H	0.979501	-0.535158	0.186167
O71	O	0.983755	-0.291881	0.188054
H72	H	0.982646	-0.356008	0.179507
H73	H	0.986537	-0.131735	0.154806
H74	H	0.982237	-0.378333	-0.112185
