data_functionalizedCrystal
_audit_creation_method	'MofGen! by Chris Wilmer'
_symmetry_space_group_name_H-M	'P1'
_symmetry_Int_Tables_number	1
_symmetry_cell_setting	triclinic
loop_
_symmetry_equiv_pos_as_xyz
  x,y,z
_cell_length_a	14.853566
_cell_length_b	23.532357
_cell_length_c	13.930277
_cell_angle_alpha	90.000907
_cell_angle_beta	90.003759
_cell_angle_gamma	83.231353
loop_
_atom_site_label
_atom_site_type_symbol
_atom_site_fract_x
_atom_site_fract_y
_atom_site_fract_z
O1	O	1.195535	0.074343	0.079780
O2	O	0.932976	0.083202	0.079797
O3	O	1.072197	-0.004127	0.079768
O4	O	1.056315	0.161672	0.079808
O5	O	1.072176	-0.004113	-0.079894
O6	O	0.932956	0.083215	-0.079865
O7	O	1.195515	0.074357	-0.079882
Zn8	Zn	1.064232	0.078788	-0.105223
Zn9	Zn	1.064259	0.078770	0.105138
O10	O	1.056294	0.161685	-0.079853
C11	C	0.899382	0.082807	-0.000032
C12	C	0.799312	0.081605	-0.000026
C13	C	0.376195	0.076512	0.086987
C14	C	0.376194	0.076527	-0.087082
C15	C	0.470215	0.077656	-0.087079
C16	C	0.517231	0.078214	-0.000041
C17	C	0.470225	0.077643	0.086993
C18	C	0.517227	0.078233	-0.174112
C19	C	0.611254	0.079363	-0.174112
C20	C	0.658272	0.079916	-0.087074
C21	C	0.611261	0.079345	-0.000036
C22	C	0.658276	0.079903	0.087002
C23	C	0.611267	0.079327	0.174041
C24	C	0.517243	0.078196	0.174032
C25	C	0.752296	0.081047	-0.087064
C26	C	0.752306	0.081034	0.087008
C27	C	1.071789	-0.025338	-0.000066
C28	C	1.070595	-0.088562	-0.000075
C29	C	1.063108	-0.480613	0.087009
C30	C	1.061973	-0.540018	0.087015
O31	O	1.061364	-0.570743	0.161032
N32	N	1.061398	-0.569724	-0.000016
C33	C	1.061951	-0.540022	-0.087057
O34	O	1.061357	-0.570744	-0.161083
C35	C	1.063079	-0.480618	-0.087062
C36	C	1.063663	-0.450916	-0.000026
C37	C	1.063690	-0.450911	0.174038
C38	C	1.064827	-0.391510	0.174032
C39	C	1.065382	-0.361813	0.086997
C40	C	1.064800	-0.391516	-0.000032
C41	C	1.063625	-0.450917	-0.174103
C42	C	1.064753	-0.391509	-0.174100
C43	C	1.065337	-0.361807	-0.087064
C44	C	1.066491	-0.302418	-0.087073
N45	N	1.067066	-0.272712	-0.000042
C46	C	1.066511	-0.302409	0.086993
C47	C	1.059578	-0.664774	-0.087041
C48	C	1.058456	-0.724177	-0.087038
C49	C	1.058476	-0.724169	0.087035
C50	C	1.059605	-0.664765	0.087030
C51	C	1.060152	-0.635068	-0.000011
C52	C	1.068899	-0.177665	0.086974
C53	C	1.070040	-0.118260	0.086960
C54	C	1.070015	-0.118273	-0.087112
C55	C	1.068879	-0.177673	-0.087099
C56	C	1.068318	-0.207367	-0.000048
O57	O	1.067097	-0.271655	-0.161052
O58	O	1.067093	-0.271679	0.161006
C59	C	1.229109	0.074751	-0.000051
C60	C	1.329180	0.075954	-0.000051
C61	C	1.056702	0.182897	-0.000017
C62	C	1.057896	0.246120	-0.000002
N63	N	1.064220	0.078800	-0.248789
C64	C	1.118627	0.113364	-0.701044
C65	C	1.009920	0.044153	-0.701043
C66	C	1.009906	0.044162	-0.600548
C67	C	1.064254	0.078772	-0.550295
C68	C	1.118617	0.113373	-0.600539
C69	C	0.955551	0.009557	-0.550297
C70	C	0.955536	0.009565	-0.449795
C71	C	1.009880	0.044178	-0.399541
C72	C	1.064244	0.078781	-0.449790
C73	C	1.118593	0.113392	-0.399538
C74	C	1.172952	0.147998	-0.449785
C75	C	1.172961	0.147987	-0.550284
C76	C	1.009872	0.044189	-0.299042
C77	C	1.118583	0.113401	-0.299033
N78	N	1.064278	0.078754	0.248704
H79	H	0.790579	0.081486	0.157886
C80	C	1.178365	0.151472	-0.243758
H81	H	1.170573	0.146525	-0.176707
H82	H	1.240146	0.140964	-0.260219
H83	H	1.161243	0.190421	-0.260237
C84	C	1.057859	-0.756840	0.182775
H85	H	1.058371	-0.730646	0.234613
H86	H	1.004839	-0.775709	0.186393
H87	H	1.110004	-0.784319	0.186387
C88	C	1.060238	-0.632097	0.182769
H89	H	1.059741	-0.658296	0.234599
H90	H	1.113256	-0.613224	0.186387
H91	H	1.008090	-0.604622	0.186392
H92	H	1.217207	0.176175	-0.408857
H93	H	0.649558	0.079785	0.244907
H94	H	1.063151	-0.475091	-0.244977
H95	H	0.337917	0.076040	0.157852
C96	C	1.070683	-0.085587	0.182701
H97	H	1.071449	-0.045956	0.170238
H98	H	1.017924	-0.091016	0.218470
H99	H	1.123089	-0.099631	0.218453
C100	C	1.070620	-0.085598	-0.182843
H101	H	1.071369	-0.045965	-0.170373
H102	H	1.123004	-0.099634	-0.218618
H103	H	1.017839	-0.091027	-0.218591
H104	H	0.337908	0.076076	-0.157944
C105	C	1.232760	0.186043	-0.605558
H106	H	1.224990	0.181074	-0.672608
H107	H	1.215652	0.224994	-0.589106
H108	H	1.294539	0.175527	-0.589071
H109	H	0.965616	0.016012	-0.258135
C110	C	1.068307	-0.210322	0.182727
H111	H	1.068831	-0.184119	0.234550
H112	H	1.015293	-0.229195	0.186376
H113	H	1.120459	-0.237795	0.186332
C114	C	1.068240	-0.210348	-0.182835
H115	H	1.068729	-0.184150	-0.234670
H116	H	1.120369	-0.237832	-0.186462
H117	H	1.015204	-0.229208	-0.186443
C118	C	0.465530	0.077570	0.269763
H119	H	0.402798	0.076824	0.257292
H120	H	0.488116	0.044569	0.305523
H121	H	0.473760	0.110942	0.305528
C122	C	0.662962	0.079991	-0.269846
H123	H	0.725692	0.080746	-0.257380
H124	H	0.654729	0.046625	-0.305616
H125	H	0.640371	0.112998	-0.305599
H126	H	1.162882	0.141542	-0.741960
C127	C	0.950141	0.006085	-0.756318
H128	H	0.957930	0.011038	-0.823368
H129	H	0.967247	-0.032862	-0.739836
H130	H	0.888357	0.016603	-0.739863
C131	C	0.895774	-0.028510	-0.605574
H132	H	0.903559	-0.023553	-0.672623
H133	H	0.912885	-0.067457	-0.589099
H134	H	0.833990	-0.017996	-0.589114
C135	C	1.057822	-0.756845	-0.182777
H136	H	1.058309	-0.730644	-0.234608
H137	H	1.109956	-0.784325	-0.186405
H138	H	1.004791	-0.775709	-0.186392
C139	C	0.895736	-0.028494	-0.394531
H140	H	0.863365	-0.049104	-0.438855
H141	H	0.932911	-0.054658	-0.355308
H142	H	0.854021	-0.005194	-0.355346
C143	C	1.065359	-0.358846	-0.269847
H144	H	1.064856	-0.385048	-0.321676
H145	H	1.013223	-0.331366	-0.273465
H146	H	1.118388	-0.339981	-0.273476
H147	H	0.478940	0.077782	-0.244973
C148	C	0.804006	0.081682	-0.182791
H149	H	0.866737	0.082438	-0.170324
H150	H	0.795776	0.048318	-0.218569
H151	H	0.781414	0.114692	-0.218537
C152	C	1.060197	-0.632114	-0.182793
H153	H	1.059702	-0.658318	-0.234618
H154	H	1.008060	-0.604635	-0.186420
H155	H	1.113226	-0.613248	-0.186417
C156	C	1.065464	-0.358842	0.269770
H157	H	1.066226	-0.319209	0.257315
H158	H	1.012705	-0.364275	0.305535
H159	H	1.117870	-0.372886	0.305522
C160	C	1.063090	-0.483570	0.269785
H161	H	1.063606	-0.457365	0.321607
H162	H	1.010075	-0.502443	0.273428
H163	H	1.115240	-0.511043	0.273400
