data_functionalizedCrystal
_audit_creation_method	'MofGen! by Chris Wilmer'
_symmetry_space_group_name_H-M	'P1'
_symmetry_Int_Tables_number	1
_symmetry_cell_setting	triclinic
loop_
_symmetry_equiv_pos_as_xyz
  x,y,z
_cell_length_a	19.077115
_cell_length_b	16.120444
_cell_length_c	19.076919
_cell_angle_alpha	84.952692
_cell_angle_beta	89.923103
_cell_angle_gamma	90.739546
loop_
_atom_site_label
_atom_site_type_symbol
_atom_site_fract_x
_atom_site_fract_y
_atom_site_fract_z
Zn1	Zn	1.040330	-0.403263	0.456934
Zn2	Zn	1.373663	-0.069929	0.790267
Zn3	Zn	1.706997	0.263404	1.123601
Zn4	Zn	1.039008	-0.537289	0.344920
Zn5	Zn	1.372341	-0.203955	0.678254
Zn6	Zn	1.705674	0.129378	1.011587
Zn7	Zn	0.928045	-0.392096	0.334271
Zn8	Zn	1.261378	-0.058763	0.667604
Zn9	Zn	1.594711	0.274570	1.000938
Zn10	Zn	0.916852	-0.536786	0.457654
Zn11	Zn	1.250185	-0.203453	0.790987
Zn12	Zn	1.583518	0.129881	1.124320
O13	O	0.981058	-0.467358	0.398445
O14	O	1.314392	-0.134025	0.731778
O15	O	1.647725	0.199308	1.065111
O16	O	1.138269	-0.425925	0.446231
O17	O	1.471602	-0.092592	0.779564
O18	O	1.804936	0.240741	1.112897
O19	O	1.028419	-0.513566	0.244993
O20	O	1.361752	-0.180232	0.578327
O21	O	1.695086	0.153101	0.911660
O22	O	0.948177	-0.276934	0.345784
O23	O	1.281511	0.056399	0.679118
O24	O	1.614844	0.389732	1.012451
O25	O	1.137297	-0.524393	0.363935
O26	O	1.470631	-0.191060	0.697268
O27	O	1.803964	0.142273	1.030601
O28	O	1.030673	-0.285138	0.435904
O29	O	1.364006	0.048195	0.769238
O30	O	1.697339	0.381528	1.102571
O31	O	0.946895	-0.406894	0.237169
O32	O	1.280228	-0.073560	0.570503
O33	O	1.613562	0.259773	0.903836
O34	O	0.828445	-0.406406	0.346482
O35	O	1.161779	-0.073073	0.679816
O36	O	1.495112	0.260261	1.013149
O37	O	0.929100	-0.523537	0.556073
O38	O	1.262434	-0.190203	0.889406
O39	O	1.595767	0.143130	1.222739
O40	O	0.820222	-0.512709	0.437131
O41	O	1.153555	-0.179376	0.770465
O42	O	1.486889	0.153958	1.103798
O43	O	1.019819	-0.425438	0.555544
O44	O	1.353153	-0.092104	0.888877
O45	O	1.686486	0.241229	1.222210
O46	O	1.017566	-0.653865	0.364633
O47	O	1.350899	-0.320532	0.697966
O48	O	1.684232	0.012802	1.031299
O49	O	0.927818	-0.653496	0.447458
O50	O	1.261152	-0.320162	0.780791
O51	O	1.594485	0.013171	1.114124
C52	C	0.798894	-0.458292	0.390730
C53	C	1.132227	-0.124959	0.724063
C54	C	1.465560	0.208375	1.057396
C55	C	0.720961	-0.454434	0.387447
C56	C	1.054294	-0.121101	0.720780
C57	C	1.387628	0.212233	1.054113
C58	C	0.971352	-0.683926	0.407295
C59	C	1.304686	-0.350593	0.740628
C60	C	1.638019	-0.017260	1.073962
C61	C	0.967263	-0.776579	0.411108
C62	C	1.300596	-0.443246	0.744441
C63	C	1.633930	-0.109913	1.077774
C64	C	0.282743	-0.426729	0.363906
C65	C	0.616076	-0.093396	0.697239
C66	C	0.949410	0.239938	1.030573
C67	C	0.355969	-0.430359	0.366995
C68	C	0.689302	-0.097025	0.700328
C69	C	1.022635	0.236308	1.033661
C70	C	0.388315	-0.487604	0.415665
C71	C	0.721648	-0.154270	0.748999
C72	C	1.054982	0.179063	1.082332
C73	C	0.347432	-0.541217	0.461255
C74	C	0.680765	-0.207884	0.794589
C75	C	1.014099	0.125450	1.127922
C76	C	0.274208	-0.537583	0.458170
C77	C	0.607541	-0.204250	0.791503
C78	C	0.940875	0.129084	1.124836
C79	C	0.606854	-0.504413	0.429951
C80	C	0.940187	-0.171080	0.763284
C81	C	1.273521	0.162254	1.096618
C82	C	0.680084	-0.508045	0.433032
C83	C	1.013417	-0.174712	0.766365
C84	C	1.346750	0.158622	1.099699
C85	C	0.688615	-0.397185	0.338772
C86	C	1.021948	-0.063852	0.672105
C87	C	1.355282	0.269482	1.005438
C88	C	0.615389	-0.393559	0.335687
C89	C	0.948722	-0.060226	0.669021
C90	C	1.282056	0.273108	1.002354
C91	C	0.574513	-0.447169	0.381280
C92	C	0.907846	-0.113836	0.714613
C93	C	1.241179	0.219497	1.047946
N94	N	0.463163	-0.491317	0.418822
N95	N	0.796496	-0.157984	0.752156
N96	N	1.129830	0.175350	1.085489
N97	N	0.499666	-0.443451	0.378126
N98	N	0.832999	-0.110118	0.711459
N99	N	1.166333	0.223215	1.044792
C100	C	1.002437	-0.987659	0.378826
C101	C	1.335770	-0.654326	0.712159
C102	C	1.669103	-0.320993	1.045493
C103	C	0.959810	-0.946213	0.418076
C104	C	1.293143	-0.612880	0.751409
C105	C	1.626476	-0.279546	1.084743
C106	C	0.963958	-0.851820	0.414198
C107	C	1.297291	-0.518487	0.747531
C108	C	1.630625	-0.185153	1.080864
C109	C	0.998290	-1.082061	0.382704
C110	C	1.331623	-0.748727	0.716037
C111	C	1.664956	-0.415394	1.049370
C112	C	1.163935	-0.476461	0.406190
C113	C	1.497268	-0.143128	0.739524
C114	C	1.830601	0.190206	1.072857
C115	C	1.241865	-0.480340	0.409491
C116	C	1.575199	-0.147007	0.742824
C117	C	1.908532	0.186327	1.076158
C118	C	0.973359	-0.475677	0.582066
C119	C	1.306692	-0.142343	0.915399
C120	C	1.640026	0.190990	1.248733
C121	C	0.970078	-0.479221	0.660314
C122	C	1.303411	-0.145888	0.993648
C123	C	1.636745	0.187445	1.326981
C124	C	0.990821	-0.249946	0.389576
C125	C	1.324154	0.083387	0.722909
C126	C	1.657488	0.416720	1.056243
C127	C	0.994981	-0.157298	0.385797
C128	C	1.328315	0.176035	0.719130
C129	C	1.661648	0.509368	1.052463
C130	C	0.988771	-0.459014	0.215537
C131	C	1.322104	-0.125681	0.548870
C132	C	1.655438	0.207652	0.882204
C133	C	0.992198	-0.455241	0.137285
C134	C	1.325532	-0.121908	0.470619
C135	C	1.658865	0.211425	0.803952
C136	C	1.015767	-0.429814	0.696801
C137	C	1.349100	-0.096481	1.030135
C138	C	1.682433	0.236852	1.363468
C139	C	1.012675	-0.433141	0.770324
C140	C	1.346009	-0.099808	1.103657
C141	C	1.679342	0.233525	1.436990
C142	C	0.963898	-0.485881	0.807358
C143	C	1.297231	-0.152547	1.140691
C144	C	1.630565	0.180786	1.474024
C145	C	0.918205	-0.535290	0.770865
C146	C	1.251538	-0.201956	1.104199
C147	C	1.584871	0.131377	1.437532
C148	C	0.921293	-0.531958	0.697344
C149	C	1.254626	-0.198624	1.030678
C150	C	1.587960	0.134709	1.364011
C151	C	0.949593	-0.501318	1.027272
C152	C	1.282927	-0.167985	1.360605
C153	C	1.616260	0.165348	1.693938
C154	C	0.946510	-0.504649	1.100798
C155	C	1.279843	-0.171315	1.434132
C156	C	1.613176	0.162018	1.767465
C157	C	1.040980	-0.402499	1.100251
C158	C	1.374313	-0.069166	1.433585
C159	C	1.707647	0.264168	1.766918
C160	C	1.044067	-0.399175	1.026729
C161	C	1.377400	-0.065842	1.360062
C162	C	1.710733	0.267491	1.693396
C163	C	0.998371	-0.448581	0.990243
C164	C	1.331704	-0.115248	1.323576
C165	C	1.665038	0.218086	1.656909
N166	N	0.960739	-0.489285	0.882509
N167	N	1.294072	-0.155951	1.215843
N168	N	1.627405	0.177382	1.549176
N169	N	1.001528	-0.445172	0.915092
N170	N	1.334861	-0.111839	1.248425
N171	N	1.668194	0.221495	1.581759
H172	H	0.256412	-0.380114	0.324272
H173	H	0.589746	-0.046781	0.657605
H174	H	0.923079	0.286552	0.990939
N175	N	0.907335	-0.993115	0.466436
N176	N	1.240669	-0.659782	0.799769
N177	N	1.574002	-0.326449	1.133102
H178	H	0.858359	-0.975090	0.452727
H179	H	1.191692	-0.641757	0.786060
H180	H	1.525026	-0.308424	1.119393
H181	H	0.916778	-0.980788	0.516580
H182	H	1.250112	-0.647454	0.849914
H183	H	1.583445	-0.314121	1.183247
N184	N	0.580518	-0.331805	0.283190
N185	N	0.913852	0.001528	0.616523
N186	N	1.247185	0.334862	0.949857
H187	H	0.595476	-0.273405	0.292319
H188	H	0.928810	0.059928	0.625653
H189	H	1.262143	0.393261	0.958986
H190	H	0.527935	-0.337699	0.288168
H191	H	0.861269	-0.004365	0.621501
H192	H	1.194602	0.328968	0.954835
N193	N	0.900301	-0.554615	0.987944
N194	N	1.233635	-0.221282	1.321277
N195	N	1.566968	0.112052	1.654611
H196	H	0.928328	-0.593287	0.960221
H197	H	1.261661	-0.259954	1.293554
H198	H	1.594995	0.073379	1.626887
H199	H	0.870613	-0.517689	0.954724
H200	H	1.203946	-0.184356	1.288057
H201	H	1.537280	0.148978	1.621391
N202	N	1.054893	-0.940763	0.330450
N203	N	1.388226	-0.607429	0.663783
N204	N	1.721559	-0.274096	0.997117
H205	H	1.082764	-0.981572	0.304791
H206	H	1.416098	-0.648238	0.638124
H207	H	1.749431	-0.314905	0.971457
H208	H	1.087673	-0.907493	0.359045
H209	H	1.421007	-0.574159	0.692378
H210	H	1.754340	-0.240826	1.025711
N211	N	0.714972	-0.569794	0.485528
N212	N	1.048305	-0.236461	0.818861
N213	N	1.381639	0.096872	1.152194
H214	H	0.745512	-0.538972	0.518094
H215	H	1.078845	-0.205638	0.851427
H216	H	1.412178	0.127695	1.184760
H217	H	0.744777	-0.608559	0.459659
H218	H	1.078110	-0.275226	0.792993
H219	H	1.411444	0.058107	1.126326
H220	H	1.055488	-0.386871	0.666654
H221	H	1.388822	-0.053538	0.999987
H222	H	1.722155	0.279796	1.333320
H223	H	1.049881	-0.392911	0.800028
H224	H	1.383215	-0.059578	1.133362
H225	H	1.716548	0.273756	1.466695
H226	H	1.078182	-0.362274	1.129966
H227	H	1.411515	-0.028941	1.463299
H228	H	1.744849	0.304392	1.796633
H229	H	1.083788	-0.356232	0.996581
H230	H	1.417122	-0.022898	1.329914
H231	H	1.750455	0.310435	1.663247
N232	N	0.732702	-0.339364	0.289601
N233	N	1.066036	-0.006030	0.622934
N234	N	1.399369	0.327303	0.956267
H235	H	0.783998	-0.350349	0.298939
H236	H	1.117331	-0.017016	0.632272
H237	H	1.450665	0.316318	0.965606
H238	H	0.722107	-0.279720	0.297673
H239	H	1.055441	0.053614	0.631007
H240	H	1.388774	0.386947	0.964340
H241	H	0.906787	-0.547597	1.130949
H242	H	1.240121	-0.214264	1.464283
H243	H	1.573454	0.119070	1.797616
H244	H	0.878487	-0.578228	0.801024
H245	H	1.211820	-0.244894	1.134358
H246	H	1.545153	0.088439	1.467691
N247	N	0.872008	-0.585244	0.657993
N248	N	1.205341	-0.251911	0.991327
N249	N	1.538674	0.081422	1.324660
H250	H	0.879681	-0.645924	0.673677
H251	H	1.213015	-0.312590	1.007010
H252	H	1.546348	0.020743	1.340343
H253	H	0.881384	-0.575062	0.605809
H254	H	1.214717	-0.241729	0.939142
H255	H	1.548050	0.091605	1.272475
N256	N	0.400047	-0.372519	0.317831
N257	N	0.733381	-0.039186	0.651164
N258	N	1.066714	0.294148	0.984498
H259	H	0.388830	-0.382453	0.267499
H260	H	0.722164	-0.049120	0.600833
H261	H	1.055497	0.284214	0.934166
H262	H	0.451329	-0.383519	0.327228
H263	H	0.784662	-0.050186	0.660561
H264	H	1.117996	0.283147	0.993895
N265	N	0.562771	-0.562248	0.479110
N266	N	0.896104	-0.228915	0.812444
N267	N	1.229438	0.104418	1.145777
H268	H	0.594376	-0.599070	0.510403
H269	H	0.927709	-0.265736	0.843737
H270	H	1.261042	0.067597	1.177070
H271	H	0.531868	-0.597954	0.450682
H272	H	0.865201	-0.264621	0.784015
H273	H	1.198535	0.068712	1.117348
H274	H	0.373774	-0.587824	0.500887
H275	H	0.707108	-0.254491	0.834220
H276	H	1.040441	0.078842	1.167554
H277	H	0.240926	-0.581237	0.495292
H278	H	0.574259	-0.247903	0.828625
H279	H	0.907593	0.085430	1.161958
