data_functionalizedCrystal
_audit_creation_method	'MofGen! by Chris Wilmer'
_symmetry_space_group_name_H-M	'P1'
_symmetry_Int_Tables_number	1
_symmetry_cell_setting	triclinic
loop_
_symmetry_equiv_pos_as_xyz
  x,y,z
_cell_length_a	12.827885
_cell_length_b	21.395362
_cell_length_c	21.395361
_cell_angle_alpha	90.046585
_cell_angle_beta	90.038159
_cell_angle_gamma	90.040645
loop_
_atom_site_label
_atom_site_type_symbol
_atom_site_fract_x
_atom_site_fract_y
_atom_site_fract_z
Zn1	Zn	-0.591384	-0.957839	0.249143
Zn2	Zn	-0.091384	-0.457839	0.749143
Zn3	Zn	-0.416619	-0.957748	0.353933
Zn4	Zn	0.083381	-0.457748	0.853933
Zn5	Zn	-0.416592	-0.853060	0.249202
Zn6	Zn	0.083408	-0.353060	0.749202
Zn7	Zn	-0.591254	-0.853023	0.353915
Zn8	Zn	-0.091254	-0.353023	0.853915
O9	O	-0.503962	-0.905418	0.301548
O10	O	-0.003962	-0.405418	0.801548
O11	O	-0.568267	-1.045505	0.263026
O12	O	-0.068267	-0.545505	0.763026
O13	O	-0.270379	-0.943838	0.340072
O14	O	0.229621	-0.443838	0.840072
O15	O	-0.439823	-0.867013	0.161516
O16	O	0.060177	-0.367013	0.661516
O17	O	-0.439867	-1.045438	0.340015
O18	O	0.060133	-0.545438	0.840015
O19	O	-0.568241	-0.943994	0.161473
O20	O	-0.068241	-0.443994	0.661473
O21	O	-0.270360	-0.866924	0.263127
O22	O	0.229640	-0.366924	0.763127
O23	O	-0.439696	-0.765377	0.263110
O24	O	0.060304	-0.265377	0.763110
O25	O	-0.737507	-0.866950	0.339985
O26	O	-0.237507	-0.366950	0.839985
O27	O	-0.568019	-0.765350	0.340043
O28	O	-0.068019	-0.265350	0.840043
O29	O	-0.737603	-0.943958	0.263009
O30	O	-0.237603	-0.443958	0.763009
O31	O	-0.439741	-0.943802	0.441608
O32	O	0.060259	-0.443802	0.941608
O33	O	-0.568044	-0.866862	0.441596
O34	O	-0.068044	-0.366862	0.941596
C35	C	-0.503841	-0.742630	0.301581
C36	C	-0.003841	-0.242630	0.801581
C37	C	-0.503814	-0.672989	0.301611
C38	C	-0.003814	-0.172989	0.801611
C39	C	-0.503904	-0.905335	0.464336
C40	C	-0.003904	-0.405335	0.964336
C41	C	-0.503914	-0.905357	0.533977
C42	C	-0.003914	-0.405357	1.033977
C43	C	-0.776533	-0.905460	0.301488
C44	C	-0.276533	-0.405460	0.801488
C45	C	-0.892686	-0.905478	0.301462
C46	C	-0.392686	-0.405478	0.801462
C47	C	-0.944518	-0.943588	0.263365
C48	C	-0.444518	-0.443588	0.763365
C49	C	-1.064568	-0.943608	0.263337
C50	C	-0.564568	-0.443608	0.763337
C51	C	-0.232452	-0.905411	0.301563
C52	C	0.267548	-0.405411	0.801563
C53	C	-0.116300	-0.905514	0.301412
C54	C	0.383700	-0.405514	0.801412
C55	C	-0.504085	-1.068841	0.301515
C56	C	-0.004085	-0.568841	0.801515
C57	C	-0.504137	-1.138482	0.301501
C58	C	-0.004137	-0.638482	0.801501
C59	C	-0.570531	-0.640278	0.341722
C60	C	-0.070531	-0.140278	0.841722
C61	C	-0.570578	-0.574842	0.341707
C62	C	-0.070578	-0.074842	0.841707
C63	C	-0.503888	-0.542120	0.301586
C64	C	-0.003888	-0.042120	0.801586
C65	C	-0.437166	-0.574839	0.261467
C66	C	0.062834	-0.074839	0.761467
C67	C	-0.437129	-0.640273	0.261479
C68	C	0.062871	-0.140273	0.761479
C69	C	-0.409812	-0.438399	0.296555
C70	C	0.090188	0.061601	0.796555
C71	C	-0.409847	-0.372966	0.296548
C72	C	0.090153	0.127034	0.796548
C73	C	-0.504004	-0.340300	0.301546
C74	C	-0.004004	0.159700	0.801546
C75	C	-0.598128	-0.373074	0.306564
C76	C	-0.098128	0.126926	0.806564
C77	C	-0.598091	-0.438509	0.306576
C78	C	-0.098091	0.061491	0.806576
C79	C	-0.503922	-0.471168	0.301569
C80	C	-0.003922	0.028832	0.801569
C81	C	-0.570777	-0.236636	0.341643
C82	C	-0.070777	0.263364	0.841643
C83	C	-0.570826	-0.171200	0.341623
C84	C	-0.070826	0.328800	0.841623
C85	C	-0.437405	-0.171198	0.261386
C86	C	0.062595	0.328802	0.761386
C87	C	-0.437366	-0.236633	0.261403
C88	C	0.062634	0.263367	0.761403
C89	C	-0.504051	-0.269348	0.301534
C90	C	-0.004051	0.230652	0.801534
C91	C	-0.504044	-0.905518	0.138125
C92	C	-0.004044	-0.405518	0.638125
C93	C	-0.504078	-0.905560	0.068484
C94	C	-0.004078	-0.405560	0.568484
C95	C	-0.437175	-0.945455	0.566676
C96	C	0.062825	-0.445455	1.066676
C97	C	-0.437198	-0.945484	0.632112
C98	C	0.062802	-0.445484	1.132112
C99	C	-0.503950	-0.905404	0.664845
C100	C	-0.003950	-0.405404	1.164845
C101	C	-0.570702	-0.865303	0.632139
C102	C	-0.070702	-0.365303	1.132139
C103	C	-0.570684	-0.865279	0.566704
C104	C	-0.070684	-0.365279	1.066704
C105	C	-0.512107	-0.848989	0.768575
C106	C	-0.012107	-0.348989	1.268575
C107	C	-0.512118	-0.849011	0.834008
C108	C	-0.012118	-0.349011	1.334008
C109	C	-0.504011	-0.905477	0.866666
C110	C	-0.004011	-0.405477	1.366666
C111	C	-0.495872	-0.961922	0.833883
C112	C	0.004128	-0.461922	1.333883
C113	C	-0.495854	-0.961898	0.768449
C114	C	0.004146	-0.461898	1.268449
C115	C	-0.503977	-0.905425	0.735798
C116	C	-0.003977	-0.405425	1.235798
C117	C	-0.437294	-0.945610	0.970318
C118	C	0.062706	-0.445610	1.470318
C119	C	-0.437325	-0.945640	1.035754
C120	C	0.062675	-0.445640	1.535754
C121	C	-0.570823	-0.865453	1.035780
C122	C	-0.070823	-0.365453	1.535780
C123	C	-0.570798	-0.865429	0.970345
C124	C	-0.070798	-0.365429	1.470345
C125	C	-0.504028	-0.905506	0.937617
C126	C	-0.004028	-0.405506	1.437617
H127	H	-0.900017	-0.976199	0.230766
H128	H	-0.400017	-0.476199	0.730766
H129	H	-0.382799	-0.666906	0.228813
H130	H	0.117201	-0.166906	0.728813
Cl131	Cl	-0.654623	-0.814919	0.673289
Cl132	Cl	-0.154623	-0.314919	1.173289
Cl133	Cl	-0.654591	-0.814865	0.525595
Cl134	Cl	-0.154591	-0.314865	1.025595
Cl135	Cl	-0.961384	-0.855121	0.351788
Cl136	Cl	-0.461384	-0.355121	0.851788
Cl137	Cl	-0.353356	-0.995992	0.929172
Cl138	Cl	0.146644	-0.495992	1.429172
Cl139	Cl	-0.654748	-0.815070	1.076925
Cl140	Cl	-0.154748	-0.315070	1.576925
Cl141	Cl	-0.291431	-0.479458	0.290274
Cl142	Cl	0.208569	0.020542	0.790274
H143	H	-0.383032	-0.263266	0.228742
H144	H	0.116968	0.236734	0.728742
Cl145	Cl	-1.047493	-0.855139	0.351778
Cl146	Cl	-0.547493	-0.355139	0.851778
H147	H	-0.674730	-0.465191	0.310661
H148	H	-0.174730	0.034809	0.810661
H149	H	-0.624833	-0.666911	0.374400
H150	H	-0.124833	-0.166911	0.874400
Cl151	Cl	-0.716505	-0.332016	0.312844
Cl152	Cl	-0.216505	0.167984	0.812844
Cl153	Cl	-1.133382	-0.993989	0.212980
Cl154	Cl	-0.633382	-0.493989	0.712980
Cl155	Cl	-0.654699	-0.815013	0.929235
Cl156	Cl	-0.154699	-0.315013	1.429235
H157	H	-0.624911	-0.548204	0.374371
H158	H	-0.124911	-0.048204	0.874371
H159	H	-0.625082	-0.263275	0.374317
H160	H	-0.125082	0.236725	0.874317
Cl161	Cl	-0.353289	-0.995897	0.673228
Cl162	Cl	0.146711	-0.495897	1.173228
Cl163	Cl	-0.654713	-0.130077	0.392051
Cl164	Cl	-0.154713	0.369923	0.892051
H165	H	-0.383109	-0.144556	0.228716
H166	H	0.116891	0.355444	0.728716
Cl167	Cl	-0.522300	-0.777997	0.727525
Cl168	Cl	-0.022300	-0.277997	1.227525
H169	H	-0.333206	-0.346286	0.292465
H170	H	0.166794	0.153714	0.792465
H171	H	-0.382869	-0.548193	0.228799
H172	H	0.117131	-0.048193	0.728799
Cl173	Cl	-0.353251	-0.995848	0.525537
Cl174	Cl	0.146749	-0.495848	1.025537
H175	H	-0.489230	-1.007857	0.741759
H176	H	0.010770	-0.507857	1.241759
Cl177	Cl	-0.485669	-1.032911	0.874932
Cl178	Cl	0.014331	-0.532911	1.374932
Cl179	Cl	-0.353423	-0.996059	1.076862
Cl180	Cl	0.146577	-0.496059	1.576862
H181	H	-0.518735	-0.803050	0.860694
H182	H	-0.018735	-0.303050	1.360694
