data_functionalizedCrystal
_audit_creation_method	'MofGen! by Chris Wilmer'
_symmetry_space_group_name_H-M	'P1'
_symmetry_Int_Tables_number	1
_symmetry_cell_setting	triclinic
loop_
_symmetry_equiv_pos_as_xyz
  x,y,z
_cell_length_a	6.817900
_cell_length_b	11.102216
_cell_length_c	19.453030
_cell_angle_alpha	94.507992
_cell_angle_beta	101.707737
_cell_angle_gamma	108.604437
loop_
_atom_site_label
_atom_site_type_symbol
_atom_site_fract_x
_atom_site_fract_y
_atom_site_fract_z
V1	V	-4.033132	-0.177163	-0.219002
O2	O	-3.993662	0.007152	-0.214830
O3	O	-4.010441	-0.349975	-0.217507
O4	O	-3.975723	-0.175035	-0.314515
O5	O	-4.028620	-0.168999	-0.117151
V6	V	-4.514596	-0.155046	-0.206819
O7	O	-4.298907	-0.225678	-0.245725
O8	O	-4.699019	-0.106531	-0.180096
O9	O	-4.314081	0.017766	-0.208314
O10	O	-4.671464	-0.339361	-0.210991
O11	O	-4.636505	-0.163210	-0.308670
O12	O	-4.348799	-0.157174	-0.111306
C13	C	-3.861988	-0.392084	-0.214053
C14	C	-3.924662	-0.533364	-0.213467
C15	C	-4.050141	-0.751031	-0.276958
C16	C	-3.991258	-0.618286	-0.277514
C17	C	-3.916970	-0.581194	-0.148861
C18	C	-3.975866	-0.713937	-0.148306
C19	C	-4.093021	-0.772445	-0.351234
C20	C	-4.034139	-0.639699	-0.351790
C21	C	-3.817700	-0.168929	-0.337795
C22	C	-3.852216	-0.168333	-0.415877
C23	C	-3.924990	-0.284501	-0.462584
C24	C	-3.957447	-0.283954	-0.535953
C25	C	-3.917084	-0.167231	-0.562609
C26	C	-3.844310	-0.051048	-0.515892
C27	C	-3.811876	-0.051599	-0.442526
N28	N	-3.811793	-0.075716	-0.668102
N29	N	-3.842604	-0.075201	-0.737797
C30	C	-4.014807	-0.165565	-0.783656
N31	N	-4.155020	-0.256483	-0.757189
N32	N	-4.124200	-0.257002	-0.687487
C33	C	-3.952249	-0.166621	-0.642161
C34	C	-4.122782	-0.281149	-0.909919
C35	C	-4.155249	-0.280597	-0.983288
C36	C	-4.042089	-0.047687	-0.963225
C37	C	-4.009645	-0.048242	-0.889858
C38	C	-4.049985	-0.164976	-0.863209
C39	C	-4.125878	0.059868	-0.211766
C40	C	-4.042441	0.201147	-0.212356
C41	C	-4.170165	-0.163284	-0.088022
C42	C	-4.114887	-0.163873	-0.009939
H43	H	-3.957852	-0.379555	-0.440892
H44	H	-3.979850	-0.815127	-0.371338
F45	F	-3.851383	-0.596840	-0.385743
H46	H	-4.016703	-0.378555	-0.573989
H47	H	-3.811453	0.043988	-0.537601
H48	H	-4.173947	-0.610315	-0.377793
F49	F	-3.734398	0.072049	-0.392814
F50	F	-3.846132	-0.490811	-0.080699
F51	F	-4.165717	-0.405385	-0.881554
F52	F	-4.232725	-0.404247	-1.032999
F53	F	-3.999154	0.076538	-0.991591
F54	F	-3.932124	0.075404	-0.840145
H55	H	-3.969620	-0.752868	-0.095702
F56	F	-4.318824	-0.836792	-0.391830
