data_functionalizedCrystal
_audit_creation_method	'MofGen! by Chris Wilmer'
_symmetry_space_group_name_H-M	'P1'
_symmetry_Int_Tables_number	1
_symmetry_cell_setting	triclinic
loop_
_symmetry_equiv_pos_as_xyz
  x,y,z
_cell_length_a	16.109301
_cell_length_b	23.532357
_cell_length_c	14.586319
_cell_angle_alpha	89.990687
_cell_angle_beta	89.998857
_cell_angle_gamma	83.144938
loop_
_atom_site_label
_atom_site_type_symbol
_atom_site_fract_x
_atom_site_fract_y
_atom_site_fract_z
O1	O	1.102536	0.073204	-0.076201
O2	O	0.860400	0.082314	-0.076216
O3	O	0.988791	-0.005147	-0.076189
O4	O	0.974145	0.160666	-0.076228
O5	O	0.988782	-0.005149	0.076292
O6	O	0.860391	0.082313	0.076265
O7	O	1.102527	0.073203	0.076279
Cu8	Cu	0.981458	0.077758	0.090195
Cu9	Cu	0.981469	0.077759	-0.090131
O10	O	0.974136	0.160665	0.076253
C11	C	0.829424	0.081945	0.000023
C12	C	0.737137	0.080838	0.000019
C13	C	0.427747	0.129119	0.000023
C14	C	0.514459	0.130164	0.000018
C15	C	0.535175	0.026394	0.000030
C16	C	0.448465	0.025350	0.000029
C17	C	0.394752	0.076714	0.000030
C18	C	0.568175	0.078803	0.000026
C19	C	0.662191	0.079936	0.000020
C20	C	0.300730	0.075582	0.000034
C21	C	0.988420	-0.026366	0.000054
C22	C	0.987319	-0.089589	0.000063
C23	C	0.980409	-0.481625	-0.083105
C24	C	0.979362	-0.541028	-0.083110
O25	O	0.978796	-0.571746	-0.153798
N26	N	0.978838	-0.570742	0.000006
C27	C	0.979352	-0.541048	0.083133
O28	O	0.978810	-0.571777	0.153829
C29	C	0.980393	-0.481646	0.083137
C30	C	0.980926	-0.451936	0.000016
C31	C	0.980940	-0.451915	-0.166219
C32	C	0.981989	-0.392515	-0.166214
C33	C	0.982506	-0.362827	-0.083093
C34	C	0.981974	-0.392537	0.000021
C35	C	0.980902	-0.451953	0.166263
C36	C	0.981943	-0.392546	0.166260
C37	C	0.982475	-0.362836	0.083139
C38	C	0.983540	-0.303449	0.083148
N39	N	0.984064	-0.273735	0.000031
C40	C	0.983547	-0.303424	-0.083089
C41	C	0.977165	-0.665798	0.083118
C42	C	0.976130	-0.725200	0.083114
C43	C	0.976138	-0.725176	-0.083129
C44	C	0.977179	-0.665773	-0.083125
C45	C	0.977689	-0.636084	0.000001
C46	C	0.985750	-0.178682	-0.083071
C47	C	0.986802	-0.119278	-0.083058
C48	C	0.986789	-0.119307	0.083185
C49	C	0.985742	-0.178706	0.083172
C50	C	0.985219	-0.208392	0.000037
O51	O	0.984103	-0.272693	0.153799
O52	O	0.984079	-0.272687	-0.153773
C53	C	1.133503	0.073573	0.000039
C54	C	1.225790	0.074679	0.000037
C55	C	0.974507	0.181883	0.000008
C56	C	0.975608	0.245106	-0.000007
N57	N	0.981457	0.077757	0.217027
N58	N	0.981477	0.077756	-0.216963
C59	C	1.038327	0.039041	0.452045
C60	C	1.038330	0.039040	0.548026
C61	C	0.924600	0.116473	0.548012
C62	C	0.924595	0.116471	0.452033
C63	C	0.981463	0.077756	0.404052
C64	C	0.981471	0.077757	0.596012
C65	C	0.981473	0.077755	0.700079
C66	C	0.981460	0.077757	0.299978
H67	H	0.987237	-0.095090	-0.150748
H68	H	0.421601	-0.017328	0.000031
Cl69	Cl	0.982650	-0.355174	-0.270715
Cl70	Cl	0.982585	-0.355227	0.270769
Cl71	Cl	0.980292	-0.489227	-0.270728
Cl72	Cl	1.109817	-0.009633	0.608358
Cl73	Cl	0.977814	-0.628482	0.187630
Cl74	Cl	0.853115	0.165144	0.608336
Cl75	Cl	0.360226	0.193692	0.000021
H76	H	0.977611	-0.641587	-0.150810
H77	H	0.578918	-0.015425	0.000031
Cl78	Cl	0.985095	-0.215991	-0.187585
H79	H	1.084631	0.007516	0.412981
H80	H	0.975714	-0.749359	-0.150810
Cl81	Cl	0.853099	0.165143	0.391692
H82	H	0.541318	0.172838	0.000012
H83	H	0.975709	-0.749386	0.150800
H84	H	0.980470	-0.476133	0.233950
H85	H	0.985316	-0.202898	0.150857
Cl86	Cl	0.987439	-0.081973	0.187673
