data_functionalizedCrystal
_audit_creation_method	'MofGen! by Chris Wilmer'
_symmetry_space_group_name_H-M	'P1'
_symmetry_Int_Tables_number	1
_symmetry_cell_setting	triclinic
loop_
_symmetry_equiv_pos_as_xyz
  x,y,z
_cell_length_a	18.215407
_cell_length_b	18.101397
_cell_length_c	18.215398
_cell_angle_alpha	89.971892
_cell_angle_beta	89.983001
_cell_angle_gamma	90.017909
loop_
_atom_site_label
_atom_site_type_symbol
_atom_site_fract_x
_atom_site_fract_y
_atom_site_fract_z
Zn1	Zn	1.125092	-0.294906	-0.416054
Zn2	Zn	1.458425	0.038427	-0.082720
Zn3	Zn	1.791758	0.371760	0.250613
Zn4	Zn	1.125011	-0.418747	-0.292982
Zn5	Zn	1.458344	-0.085414	0.040352
Zn6	Zn	1.791677	0.247920	0.373685
Zn7	Zn	1.002025	-0.294918	-0.293006
Zn8	Zn	1.335359	0.038415	0.040327
Zn9	Zn	1.668692	0.371748	0.373660
Zn10	Zn	1.002000	-0.418705	-0.416012
Zn11	Zn	1.335333	-0.085372	-0.082679
Zn12	Zn	1.668666	0.247962	0.250655
O13	O	1.063532	-0.356819	-0.354513
O14	O	1.396865	-0.023486	-0.021180
O15	O	1.730198	0.309848	0.312153
O16	O	1.228065	-0.311346	-0.399735
O17	O	1.561399	0.021987	-0.066402
O18	O	1.894732	0.355320	0.266932
O19	O	1.108673	-0.402344	-0.190001
O20	O	1.442006	-0.069010	0.143333
O21	O	1.775340	0.264323	0.476666
O22	O	1.018395	-0.191284	-0.309357
O23	O	1.351728	0.142049	0.023977
O24	O	1.685062	0.475383	0.357310
O25	O	1.228006	-0.402332	-0.309315
O26	O	1.561339	-0.068999	0.024019
O27	O	1.894672	0.264335	0.357352
O28	O	1.108811	-0.191275	-0.399759
O29	O	1.442145	0.142058	-0.066426
O30	O	1.775478	0.475392	0.266908
O31	O	1.018316	-0.311367	-0.190019
O32	O	1.351649	0.021966	0.143315
O33	O	1.684983	0.355299	0.476648
O34	O	0.899038	-0.311326	-0.309316
O35	O	1.232371	0.022007	0.024017
O36	O	1.565704	0.355340	0.357351
O37	O	1.018352	-0.402260	-0.519002
O38	O	1.351685	-0.068927	-0.185668
O39	O	1.685018	0.264407	0.147665
O40	O	0.899019	-0.402272	-0.399688
O41	O	1.232352	-0.068938	-0.066354
O42	O	1.565686	0.264395	0.266979
O43	O	1.108787	-0.311306	-0.519032
O44	O	1.442120	0.022028	-0.185699
O45	O	1.775453	0.355361	0.147634
O46	O	1.108648	-0.522374	-0.309274
O47	O	1.441982	-0.189041	0.024059
O48	O	1.775315	0.144292	0.357393
O49	O	1.018273	-0.522343	-0.399664
O50	O	1.351606	-0.189010	-0.066330
O51	O	1.684939	0.144323	0.267003
C52	C	0.872326	-0.356796	-0.354501
C53	C	1.205659	-0.023463	-0.021167
C54	C	1.538992	0.309870	0.312166
C55	C	0.790527	-0.356804	-0.354512
C56	C	1.123860	-0.023471	-0.021179
C57	C	1.457193	0.309862	0.312154
C58	C	0.602363	-0.309526	-0.401669
C59	C	0.935696	0.023807	-0.068335
C60	C	1.269030	0.357141	0.264998
C61	C	0.525504	-0.309532	-0.401671
C62	C	0.858837	0.023801	-0.068338
C63	C	1.192171	0.357134	0.264995
C64	C	0.525453	-0.404133	-0.307371
C65	C	0.858786	-0.070800	0.025962
C66	C	1.192119	0.262534	0.359296
C67	C	0.602310	-0.404123	-0.307365
C68	C	0.935643	-0.070789	0.025968
C69	C	1.268977	0.262544	0.359301
C70	C	0.640763	-0.356820	-0.354518
C71	C	0.974097	-0.023487	-0.021185
C72	C	1.307430	0.309847	0.312148
C73	C	0.487047	-0.356837	-0.354527
C74	C	0.820380	-0.023504	-0.021193
C75	C	1.153714	0.309830	0.312140
C76	C	0.403713	-0.356844	-0.354529
C77	C	0.737047	-0.023511	-0.021196
C78	C	1.070380	0.309822	0.312138
C79	C	0.724102	-0.356812	-0.354515
C80	C	1.057435	-0.023478	-0.021182
C81	C	1.390769	0.309855	0.312151
C82	C	1.063469	-0.549230	-0.354478
C83	C	1.396802	-0.215896	-0.021144
C84	C	1.730136	0.117437	0.312189
C85	C	1.063509	-0.631544	-0.354487
C86	C	1.396843	-0.298210	-0.021154
C87	C	1.730176	0.035123	0.312180
C88	C	1.063603	-0.930635	-0.354554
C89	C	1.396937	-0.597301	-0.021221
C90	C	1.730270	-0.263968	0.312112
C91	C	1.120306	-0.899298	-0.297531
C92	C	1.453640	-0.565965	0.035802
C93	C	1.786973	-0.232632	0.369136
C94	C	1.120503	-0.813680	-0.297679
C95	C	1.453836	-0.480346	0.035654
C96	C	1.787170	-0.147013	0.368988
C97	C	1.063557	-0.782252	-0.354520
C98	C	1.396890	-0.448919	-0.021187
C99	C	1.730223	-0.115586	0.312146
C100	C	1.084581	-0.813264	-0.432092
C101	C	1.417914	-0.479930	-0.098758
C102	C	1.751247	-0.146597	0.234575
C103	C	1.085019	-0.898909	-0.431781
C104	C	1.418353	-0.565575	-0.098448
C105	C	1.751686	-0.232242	0.234886
C106	C	0.985725	-0.899139	-0.334677
C107	C	1.319058	-0.565806	-0.001344
C108	C	1.652391	-0.232473	0.331989
C109	C	0.986109	-0.813490	-0.332946
C110	C	1.319443	-0.480156	0.000387
C111	C	1.652776	-0.146823	0.333721
C112	C	1.063529	-0.698393	-0.354506
C113	C	1.396862	-0.365059	-0.021173
C114	C	1.730196	-0.031726	0.312161
C115	C	1.063633	-1.014494	-0.354574
C116	C	1.396966	-0.681161	-0.021241
C117	C	1.730299	-0.347828	0.312093
C118	C	1.255485	-0.356843	-0.354527
C119	C	1.588818	-0.023509	-0.021193
C120	C	1.922151	0.309824	0.312140
C121	C	1.337284	-0.356853	-0.354532
C122	C	1.670617	-0.023519	-0.021199
C123	C	2.003950	0.309814	0.312134
C124	C	1.063575	-0.356777	-0.546466
C125	C	1.396909	-0.023443	-0.213133
C126	C	1.730242	0.309890	0.120200
C127	C	1.063594	-0.356758	-0.628265
C128	C	1.396927	-0.023425	-0.294932
C129	C	1.730261	0.309908	0.038401
C130	C	1.063615	-0.163657	-0.354565
C131	C	1.396948	0.169676	-0.021232
C132	C	1.730282	0.503009	0.312101
C133	C	1.063651	-0.081343	-0.354587
C134	C	1.396984	0.251990	-0.021254
C135	C	1.730317	0.585324	0.312079
C136	C	1.110676	-0.404038	-0.893318
C137	C	1.444010	-0.070705	-0.559985
C138	C	1.777343	0.262628	-0.226651
C139	C	1.110665	-0.404064	-0.816459
C140	C	1.443998	-0.070731	-0.483126
C141	C	1.777332	0.262603	-0.149793
C142	C	1.016567	-0.309336	-0.816461
C143	C	1.349901	0.023998	-0.483128
C144	C	1.683234	0.357331	-0.149795
C145	C	1.016575	-0.309314	-0.893319
C146	C	1.349909	0.024019	-0.559985
C147	C	1.683242	0.357353	-0.226652
C148	C	1.063634	-0.356664	-0.931745
C149	C	1.396967	-0.023331	-0.598412
C150	C	1.730301	0.310002	-0.265078
C151	C	1.063615	-0.356712	-0.778029
C152	C	1.396948	-0.023378	-0.444696
C153	C	1.730281	0.309955	-0.111362
C154	C	1.063602	-0.356739	-0.694695
C155	C	1.396936	-0.023406	-0.361362
C156	C	1.730269	0.309928	-0.028029
C157	C	1.063646	-0.356638	-1.015084
C158	C	1.396979	-0.023305	-0.681751
C159	C	1.730312	0.310029	-0.348417
C160	C	1.063531	-0.356808	-0.163307
C161	C	1.396864	-0.023475	0.170026
C162	C	1.730197	0.309859	0.503359
C163	C	1.063655	-0.356618	-0.081509
C164	C	1.396988	-0.023284	0.251825
C165	C	1.730321	0.310049	0.585158
H166	H	0.494135	-0.442646	-0.268981
H167	H	0.827468	-0.109313	0.064352
H168	H	1.160802	0.224021	0.397685
H169	H	0.978255	-0.270784	-0.785165
H170	H	1.311588	0.062550	-0.451832
H171	H	1.644921	0.395883	-0.118499
Cl172	Cl	0.477233	-0.250073	-0.460948
Cl173	Cl	0.810566	0.083260	-0.127615
Cl174	Cl	1.143899	0.416594	0.205719
H175	H	0.633577	-0.442636	-0.268966
H176	H	0.966910	-0.109302	0.064367
H177	H	1.300243	0.224031	0.397701
H178	H	1.148994	-0.442595	-0.924602
H179	H	1.482327	-0.109262	-0.591269
H180	H	1.815661	0.224072	-0.257936
Cl181	Cl	1.169806	-0.463624	-0.768154
Cl182	Cl	1.503139	-0.130291	-0.434821
Cl183	Cl	1.836473	0.203043	-0.101487
H184	H	0.633669	-0.271007	-0.440062
H185	H	0.967002	0.062327	-0.106728
H186	H	1.300336	0.395660	0.226605
Cl187	Cl	0.961627	-0.782203	-0.244812
Cl188	Cl	1.294961	-0.448869	0.088521
Cl189	Cl	1.628294	-0.115536	0.421855
H190	H	1.107350	-0.792715	-0.240161
H191	H	1.440683	-0.459382	0.093173
H192	H	1.774016	-0.126048	0.426506
Cl193	Cl	0.957420	-0.249765	-0.941631
Cl194	Cl	1.290753	0.083569	-0.608298
Cl195	Cl	1.624087	0.416902	-0.274964
H196	H	1.107312	-0.919938	-0.239841
H197	H	1.440645	-0.586605	0.093493
H198	H	1.773979	-0.253272	0.426826
Cl199	Cl	1.171486	-0.780067	-0.458529
Cl200	Cl	1.504819	-0.446734	-0.125196
Cl201	Cl	1.838153	-0.113400	0.208137
H202	H	1.177679	-0.920769	-0.310531
H203	H	1.511012	-0.587436	0.022802
H204	H	1.844346	-0.254103	0.356136
H205	H	0.966599	-0.920797	-0.279094
H206	H	1.299932	-0.587463	0.054240
H207	H	1.633265	-0.254130	0.387573
H208	H	1.141945	-0.918831	-0.448618
H209	H	1.475278	-0.585498	-0.115285
H210	H	1.808612	-0.252164	0.218048
Cl211	Cl	1.209568	-0.781961	-0.317988
Cl212	Cl	1.542901	-0.448628	0.015345
Cl213	Cl	1.876234	-0.115295	0.348678
H214	H	1.045528	-0.919636	-0.475732
H215	H	1.378862	-0.586302	-0.142398
H216	H	1.712195	-0.252969	0.190935
H217	H	1.044543	-0.792905	-0.475721
H218	H	1.377877	-0.459571	-0.142387
H219	H	1.711210	-0.126238	0.190946
Cl220	Cl	0.917369	-0.780475	-0.392374
Cl221	Cl	1.250703	-0.447141	-0.059041
Cl222	Cl	1.584036	-0.113808	0.274292
Cl223	Cl	0.920496	-0.930430	-0.398797
Cl224	Cl	1.253829	-0.597096	-0.065464
Cl225	Cl	1.587163	-0.263763	0.267869
