data_functionalizedCrystal
_audit_creation_method	'MofGen! by Chris Wilmer'
_symmetry_space_group_name_H-M	'P1'
_symmetry_Int_Tables_number	1
_symmetry_cell_setting	triclinic
loop_
_symmetry_equiv_pos_as_xyz
  x,y,z
_cell_length_a	18.050591
_cell_length_b	18.050589
_cell_length_c	12.827885
_cell_angle_alpha	90.029551
_cell_angle_beta	90.016888
_cell_angle_gamma	90.027061
loop_
_atom_site_label
_atom_site_type_symbol
_atom_site_fract_x
_atom_site_fract_y
_atom_site_fract_z
Zn1	Zn	1.135339	-0.295646	0.590784
Zn2	Zn	1.135236	-0.419854	0.416045
Zn3	Zn	1.011144	-0.295680	0.416065
Zn4	Zn	1.011106	-0.419797	0.590752
O5	O	1.073206	-0.357744	0.503411
O6	O	1.239250	-0.312133	0.567609
O7	O	1.118748	-0.403421	0.269811
O8	O	1.027678	-0.191751	0.439263
O9	O	1.239174	-0.403388	0.439229
O10	O	1.118923	-0.191726	0.567629
O11	O	1.027578	-0.312190	0.269826
O12	O	0.907215	-0.312134	0.439232
O13	O	1.027613	-0.403290	0.736992
O14	O	0.907187	-0.403322	0.567575
O15	O	1.118886	-0.312077	0.737016
O16	O	1.118711	-0.523771	0.439199
O17	O	1.027513	-0.523729	0.567555
C18	C	0.880254	-0.357726	0.503403
C19	C	0.797708	-0.357736	0.503424
C20	C	0.548889	-0.407427	0.573121
C21	C	0.598252	-0.425511	0.477739
C22	C	0.500588	-0.357760	0.503422
C23	C	0.598307	-0.339699	0.598799
C24	C	0.646573	-0.357750	0.503428
C25	C	0.548863	-0.375879	0.407989
C26	C	0.548915	-0.290035	0.529114
C27	C	0.598255	-0.308094	0.433666
C28	C	0.416490	-0.357767	0.503420
C29	C	0.730670	-0.357743	0.503419
C30	C	1.073117	-0.550697	0.503394
C31	C	1.073146	-0.633242	0.503422
C32	C	1.023602	-0.832697	0.573198
C33	C	1.005496	-0.882144	0.477842
C34	C	1.073219	-0.784373	0.503435
C35	C	1.091361	-0.882007	0.598802
C36	C	1.073288	-0.930358	0.503457
C37	C	1.055078	-0.832733	0.408029
C38	C	1.140974	-0.832592	0.529054
C39	C	1.122895	-0.882016	0.433632
C40	C	1.073178	-0.700274	0.503424
C41	C	1.073330	-1.014454	0.503457
C42	C	1.266912	-0.357763	0.503421
C43	C	1.349458	-0.357771	0.503425
C44	C	1.073257	-0.357673	0.775982
C45	C	1.073278	-0.357643	0.892135
C46	C	1.073317	-0.164039	0.503452
C47	C	1.073364	-0.081493	0.503469
C48	C	1.073199	-0.357762	0.231901
C49	C	1.073321	-0.357583	0.115749
C50	C	1.118448	-0.312499	0.943931
C51	C	1.118472	-0.312467	1.063982
H52	H	0.619793	-0.266088	0.374658
H53	H	1.164884	-0.903535	0.374577
H54	H	0.527236	-0.391220	0.327310
H55	H	1.039695	-0.811177	0.327365
C56	C	1.170718	-0.260250	1.124147
C57	C	1.228972	-0.292464	1.199205
C58	C	1.281220	-0.240246	1.259373
C59	C	1.275215	-0.155814	1.244483
C60	C	1.216959	-0.123596	1.169422
C61	C	1.164710	-0.175814	1.109254
H62	H	1.233419	-0.354969	1.210230
H63	H	1.324345	-0.264096	1.314938
H64	H	1.313892	-0.117159	1.289023
H65	H	1.212511	-0.061090	1.158397
H66	H	1.121586	-0.151964	1.053689
H67	H	1.034650	-0.396237	1.071212
H68	H	0.619923	-0.482781	0.456003
H69	H	0.527226	-0.232783	0.550877
C70	C	0.928132	-0.911551	0.448572
C71	C	0.864720	-0.856900	0.425588
C72	C	0.787353	-0.886302	0.396328
C73	C	0.773398	-0.970356	0.390052
C74	C	0.836812	-1.025012	0.413037
C75	C	0.914178	-0.995610	0.442297
H76	H	0.875049	-0.794673	0.430233
H77	H	0.740411	-0.845842	0.379313
H78	H	0.716127	-0.992122	0.368392
H79	H	0.826483	-1.087239	0.408391
H80	H	0.961121	-1.036070	0.459312
C81	C	1.021055	-0.409826	0.952283
C82	C	1.027055	-0.494266	0.937362
C83	C	0.974830	-0.546452	0.997507
C84	C	0.916606	-0.514198	1.072574
C85	C	0.910604	-0.429753	1.087498
C86	C	0.962829	-0.377568	1.027353
H87	H	1.070158	-0.518147	0.881791
H88	H	0.979273	-0.608963	0.986459
H89	H	0.877946	-0.552829	1.117097
H90	H	0.867501	-0.405873	1.143070
H91	H	0.958385	-0.315056	1.038402
C92	C	1.218318	-0.803159	0.558358
C93	C	1.252363	-0.822530	0.664996
C94	C	1.329707	-0.793095	0.694315
C95	C	1.373005	-0.744290	0.616996
C96	C	1.338960	-0.724917	0.510350
C97	C	1.261616	-0.754351	0.481032
H98	H	1.220311	-0.858661	0.722239
H99	H	1.354909	-0.807437	0.773261
H100	H	1.430259	-0.722501	0.638699
H101	H	1.371012	-0.688786	0.453108
H102	H	1.236414	-0.740010	0.402085
H103	H	0.527214	-0.449465	0.631987
C104	C	0.627648	-0.319061	0.707758
C105	C	0.608162	-0.367685	0.802475
C106	C	0.637500	-0.347055	0.911436
C107	C	0.686324	-0.277801	0.925679
C108	C	0.705812	-0.229173	0.830959
C109	C	0.676474	-0.249803	0.721999
H110	H	0.572017	-0.418955	0.791934
H111	H	0.623073	-0.383054	0.981554
H112	H	0.708042	-0.262530	1.006338
H113	H	0.741957	-0.177903	0.841500
H114	H	0.690901	-0.213805	0.651881
C115	C	1.112060	-0.911249	0.707740
C116	C	1.116547	-0.995272	0.727471
C117	C	1.137240	-1.024510	0.836411
C118	C	1.153446	-0.969726	0.925619
C119	C	1.148959	-0.885698	0.905891
C120	C	1.128266	-0.856459	0.796951
H121	H	1.104550	-1.035831	0.661431
H122	H	1.140561	-1.086714	0.851014
H123	H	1.168763	-0.991370	1.006263
H124	H	1.160956	-0.845139	0.971931
H125	H	1.124945	-0.794256	0.782348
C126	C	0.966839	-0.803431	0.652783
C127	C	0.884228	-0.823028	0.640866
C128	C	0.827464	-0.793760	0.720444
C129	C	0.853310	-0.744896	0.811938
C130	C	0.935925	-0.725297	0.823859
C131	C	0.992689	-0.754564	0.744281
H132	H	0.865091	-0.859202	0.573133
H133	H	0.766307	-0.808269	0.711619
H134	H	0.811290	-0.723230	0.870847
H135	H	0.955061	-0.689122	0.891592
H136	H	1.053846	-0.740055	0.753106
C137	C	1.170672	-0.260317	0.883781
C138	C	1.138463	-0.202078	0.808727
C139	C	1.190689	-0.149895	0.748578
C140	C	1.275124	-0.155952	0.763484
C141	C	1.307337	-0.214193	0.838541
C142	C	1.255111	-0.266376	0.898690
H143	H	1.075956	-0.197592	0.797690
H144	H	1.166842	-0.106781	0.693016
H145	H	1.313785	-0.117323	0.718958
H146	H	1.369845	-0.218679	0.849578
H147	H	1.278958	-0.309490	0.954252
