data_functionalizedCrystal
_audit_creation_method	'MofGen! by Chris Wilmer'
_symmetry_space_group_name_H-M	'P1'
_symmetry_Int_Tables_number	1
_symmetry_cell_setting	triclinic
loop_
_symmetry_equiv_pos_as_xyz
  x,y,z
_cell_length_a	6.817900
_cell_length_b	17.078481
_cell_length_c	9.582889
_cell_angle_alpha	94.514366
_cell_angle_beta	111.207298
_cell_angle_gamma	99.306161
loop_
_atom_site_label
_atom_site_type_symbol
_atom_site_fract_x
_atom_site_fract_y
_atom_site_fract_z
V1	V	-4.019538	-0.247217	-0.206707
O2	O	-3.966058	-0.242660	0.010293
O3	O	-4.010663	-0.245382	-0.410210
O4	O	-3.949940	-0.355102	-0.203369
O5	O	-4.027202	-0.132181	-0.197980
V6	V	-4.500792	-0.233475	-0.180770
O7	O	-4.285776	-0.277360	-0.263601
O8	O	-4.684752	-0.203331	-0.123875
O9	O	-4.286461	-0.235309	0.022734
O10	O	-4.671669	-0.238031	-0.397769
O11	O	-4.610525	-0.348511	-0.189496
O12	O	-4.347184	-0.125590	-0.184107
C13	C	-3.865965	-0.241445	-0.459825
C14	C	-3.939854	-0.240664	-0.626191
C15	C	-3.788505	-0.381403	-0.195977
C16	C	-3.813146	-0.469598	-0.194595
C17	C	-4.007505	-0.515069	-0.201416
C18	C	-4.030645	-0.597938	-0.200116
C19	C	-3.859429	-0.635336	-0.192006
C20	C	-3.665052	-0.589858	-0.185180
C21	C	-3.641909	-0.506990	-0.186469
C22	C	-3.909039	-0.882742	-0.187341
C23	C	-3.932199	-0.965617	-0.186057
C24	C	-4.297791	-0.973691	-0.200991
C25	C	-4.274635	-0.890822	-0.202288
C26	C	-4.080257	-0.845351	-0.195454
N27	N	-3.883080	-0.720042	-0.190683
N28	N	-4.056604	-0.760646	-0.196767
C29	C	-4.094503	-0.239244	0.072341
C30	C	-3.999851	-0.240030	0.238705
C31	C	-4.171962	-0.099285	-0.191504
C32	C	-4.126559	-0.011088	-0.192879
H33	H	-4.146938	-0.484628	-0.208030
H34	H	-3.483626	-0.469965	-0.180877
H35	H	-3.525642	-0.620313	-0.178568
C36	C	-4.511587	-1.023714	-0.208489
N37	N	-4.672621	-1.061391	-0.214128
H38	H	-4.188906	-0.634957	-0.205663
C39	C	-3.695237	-0.832738	-0.179857
N40	N	-3.534195	-0.795072	-0.174230
H41	H	-4.414061	-0.860379	-0.208891
H42	H	-3.792761	-0.996063	-0.179448
