data_functionalizedCrystal
_audit_creation_method	'MofGen! by Chris Wilmer'
_symmetry_space_group_name_H-M	'P1'
_symmetry_Int_Tables_number	1
_symmetry_cell_setting	triclinic
loop_
_symmetry_equiv_pos_as_xyz
  x,y,z
_cell_length_a	25.639242
_cell_length_b	19.121063
_cell_length_c	19.120904
_cell_angle_alpha	85.258387
_cell_angle_beta	92.414207
_cell_angle_gamma	87.535104
loop_
_atom_site_label
_atom_site_type_symbol
_atom_site_fract_x
_atom_site_fract_y
_atom_site_fract_z
Zn1	Zn	0.776825	0.297199	-0.409934
Zn2	Zn	0.776760	0.409846	-0.297285
Zn3	Zn	0.693292	0.292190	-0.292269
Zn4	Zn	0.685471	0.414816	-0.414886
O5	O	0.733087	0.353513	-0.353593
O6	O	0.849980	0.312158	-0.395017
O7	O	0.768934	0.390063	-0.198160
O8	O	0.707673	0.194392	-0.303706
O9	O	0.849933	0.394919	-0.312254
O10	O	0.769045	0.198072	-0.390154
O11	O	0.707611	0.303622	-0.194475
O12	O	0.619091	0.308441	-0.308508
O13	O	0.694343	0.403390	-0.512689
O14	O	0.613344	0.398533	-0.398594
O15	O	0.761460	0.316977	-0.509050
O16	O	0.761350	0.508968	-0.317056
O17	O	0.694280	0.512619	-0.403457
C18	C	0.726973	0.536324	-0.361354
C19	C	0.724404	0.614533	-0.364697
C20	C	0.597247	0.353483	-0.353545
C21	C	0.539133	0.353488	-0.353541
C22	C	0.727036	0.361297	-0.537113
C23	C	0.724458	0.364613	-0.615318
C24	C	0.175783	0.400497	-0.400462
C25	C	0.121178	0.400502	-0.400473
O26	O	0.090404	0.440435	-0.440325
N27	N	0.096846	0.353534	-0.353640
C28	C	0.127121	0.306554	-0.306798
O29	O	0.101411	0.266604	-0.266964
C30	C	0.181725	0.306546	-0.306790
C31	C	0.206054	0.353522	-0.353622
C32	C	0.200113	0.447469	-0.447290
C33	C	0.254714	0.447465	-0.447277
C34	C	0.284985	0.400489	-0.400437
C35	C	0.260655	0.353518	-0.353609
C36	C	0.211999	0.259562	-0.259952
C37	C	0.266607	0.259558	-0.259949
C38	C	0.290936	0.306534	-0.306780
C39	C	0.345528	0.306538	-0.306757
N40	N	0.369860	0.353506	-0.353589
C41	C	0.339589	0.400482	-0.400430
C42	C	0.012449	0.306572	-0.306818
C43	C	-0.042153	0.306583	-0.306821
C44	C	-0.048093	0.400531	-0.400497
C45	C	0.006511	0.400523	-0.400490
C46	C	0.036782	0.353540	-0.353650
C47	C	0.454255	0.400470	-0.400400
C48	C	0.508861	0.400464	-0.400381
C49	C	0.514796	0.306513	-0.306708
C50	C	0.460195	0.306522	-0.306723
C51	C	0.429925	0.353503	-0.353575
O52	O	0.376335	0.266624	-0.266927
O53	O	0.365307	0.440418	-0.440263
C54	C	0.869457	0.353543	-0.353643
C55	C	0.927570	0.353556	-0.353664
C56	C	0.739239	0.169988	-0.345818
C57	C	0.741860	0.091781	-0.342505
C58	C	0.758142	0.649352	-0.321321
C59	C	0.755730	0.722838	-0.324469
C60	C	0.719576	0.761502	-0.370991
C61	C	0.685837	0.726677	-0.414372
C62	C	0.688252	0.653193	-0.411227
C63	C	0.710536	0.983472	-0.382741
C64	C	0.708122	1.056961	-0.385881
C65	C	0.778016	1.053117	-0.295979
C66	C	0.780426	0.979631	-0.292834
C67	C	0.746689	0.944813	-0.336218
C68	C	0.717108	0.836616	-0.374209
C69	C	0.749160	0.869701	-0.333003
C70	C	0.758189	0.321183	-0.650166
C71	C	0.755760	0.324297	-0.723648
C72	C	0.719602	0.370845	-0.762280
C73	C	0.685867	0.414277	-0.727427
C74	C	0.688294	0.411159	-0.653947
C75	C	0.710524	0.382507	-0.984239
C76	C	0.708101	0.385623	-1.057725
C77	C	0.777994	0.295642	-1.053940
C78	C	0.780419	0.292531	-0.980458
C79	C	0.746683	0.335961	-0.945611
C80	C	0.717119	0.374031	-0.837391
C81	C	0.749163	0.332771	-0.870502
C82	C	0.739146	0.345709	-0.170786
C83	C	0.741832	0.342193	-0.092573
H84	H	0.528668	0.438720	-0.438517
H85	H	0.656424	0.452175	-0.758888
H86	H	0.429616	0.438724	-0.438552
H87	H	0.660780	0.624844	-0.446549
H88	H	0.291251	0.221295	-0.221810
H89	H	0.660821	0.446518	-0.625574
H90	H	0.805484	1.081474	-0.260659
H91	H	0.809865	0.254629	-0.949008
H92	H	0.037093	0.268314	-0.268670
H93	H	0.683060	0.417881	-0.955876
H94	H	-0.072750	0.438779	-0.438639
H95	H	0.192200	0.221311	-0.221815
H96	H	0.787580	0.617876	-0.283434
H97	H	0.787635	0.283281	-0.618716
H98	H	0.809865	0.948152	-0.254953
H99	H	0.440385	0.268272	-0.268588
H100	H	0.778601	0.294869	-0.839044
H101	H	0.678688	1.088440	-0.423777
H102	H	0.274518	0.485716	-0.485413
H103	H	0.539453	0.268269	-0.268569
H104	H	0.678655	0.423530	-1.089178
H105	H	0.683065	0.955129	-0.418064
H106	H	0.687682	0.411934	-0.868854
H107	H	0.656402	0.758164	-0.452255
H108	H	0.778598	0.838218	-0.295128
H109	H	0.783229	0.288934	-0.752017
H110	H	0.805460	0.260284	-1.082320
H111	H	0.175471	0.485722	-0.485436
H112	H	0.026316	0.438774	-0.438625
H113	H	0.687671	0.868104	-0.412086
H114	H	0.783202	0.751185	-0.289147
H115	H	-0.061958	0.268337	-0.268680
