data_functionalizedCrystal
_audit_creation_method	'MofGen! by Chris Wilmer'
_symmetry_space_group_name_H-M	'P1'
_symmetry_Int_Tables_number	1
_symmetry_cell_setting	triclinic
loop_
_symmetry_equiv_pos_as_xyz
  x,y,z
_cell_length_a	11.026607
_cell_length_b	17.699083
_cell_length_c	16.776229
_cell_angle_alpha	90.000201
_cell_angle_beta	89.994019
_cell_angle_gamma	84.065485
loop_
_atom_site_label
_atom_site_type_symbol
_atom_site_fract_x
_atom_site_fract_y
_atom_site_fract_z
O1	O	-1.609233	0.316812	0.066256
O2	O	-1.256034	0.280737	0.066260
O3	O	-1.442612	0.189956	0.066266
O4	O	-1.422655	0.407592	0.066250
O5	O	-1.442588	0.189945	-0.066311
O6	O	-1.256009	0.280726	-0.066316
O7	O	-1.609209	0.316801	-0.066321
Zn8	Zn	-1.432605	0.298762	-0.087368
Zn9	Zn	-1.432638	0.298776	0.087307
O10	O	-1.422630	0.407582	-0.066326
C11	C	-1.210830	0.274076	-0.000027
C12	C	-1.076175	0.254237	-0.000025
C13	C	-1.441885	0.161655	-0.000019
C14	C	-1.439740	0.077343	-0.000008
C15	C	-1.654412	0.323461	-0.000032
C16	C	-1.789068	0.343301	-0.000029
C17	C	-1.002207	0.309017	-0.000028
C18	C	-0.863034	0.288513	-0.000025
N19	N	-1.432592	0.298753	-0.206579
C20	C	-1.423358	0.435882	-0.000040
C21	C	-1.425503	0.520195	-0.000046
C22	C	-1.315985	0.553769	-0.000044
C23	C	-1.318008	0.632990	-0.000035
C24	C	-1.429550	0.678636	-0.000033
C25	C	-1.539076	0.645057	-0.000032
C26	C	-1.537052	0.565837	-0.000035
C27	C	-1.547243	0.964542	-0.000016
C28	C	-1.549259	1.043767	-0.000015
C29	C	-1.328199	1.031695	-0.000016
C30	C	-1.326174	0.952475	-0.000019
C31	C	-1.435700	0.918903	-0.000014
C32	C	-1.433505	0.833002	-0.000023
C33	C	-1.431747	0.764536	-0.000030
C34	C	-1.515234	0.258580	-0.248294
C35	C	-1.515240	0.258580	-0.331746
C36	C	-1.432610	0.298759	-0.373482
C37	C	-1.349959	0.338933	-0.331761
C38	C	-1.349947	0.338928	-0.248311
C39	C	-1.350003	0.338954	-0.668309
C40	C	-1.350023	0.338958	-0.751765
C41	C	-1.515296	0.258606	-0.751744
C42	C	-1.515284	0.258601	-0.668293
C43	C	-1.432630	0.298772	-0.626580
C44	C	-1.432622	0.298770	-0.536092
C45	C	-1.432623	0.298765	-0.463969
N46	N	-1.432661	0.298780	0.206519
H47	H	-0.823331	0.226431	-0.000001
N48	N	-1.210056	1.067897	-0.000009
H49	H	-1.161381	1.051472	-0.049159
H50	H	-1.228346	1.125001	0.000027
H51	H	-0.828769	0.405384	-0.000038
N52	N	-1.669573	1.092999	-0.000013
H53	H	-1.717549	1.081856	0.049136
H54	H	-1.654130	1.148259	-0.000046
H55	H	-1.036466	0.192158	0.000000
H56	H	-1.282731	0.371677	-0.785745
H57	H	-1.228828	0.660322	-0.000031
N58	N	-1.655177	0.529624	-0.000049
H59	H	-1.636970	0.472513	-0.000051
H60	H	-1.703810	0.546105	0.049098
H61	H	-1.041916	0.371095	-0.000037
N62	N	-1.260852	0.382274	-0.623324
H63	H	-1.208512	0.407727	-0.662429
H64	H	-1.307170	0.422064	-0.588686
N65	N	-1.205862	0.903250	-0.000030
H66	H	-1.157899	0.914397	0.049117
H67	H	-1.221292	0.847988	-0.000065
H68	H	-1.225155	0.516609	-0.000055
H69	H	-1.582533	0.225868	-0.365710
N70	N	-1.260825	0.382263	-0.376772
H71	H	-1.273373	0.376172	-0.435968
H72	H	-1.274668	0.437847	-0.362179
N73	N	-1.665368	0.928338	-0.000020
H74	H	-1.736332	0.969277	-0.000025
H75	H	-1.669329	0.895734	-0.049171
N76	N	-1.604441	0.215275	-0.796739
H77	H	-1.590644	0.159670	-0.782218
H78	H	-1.690456	0.235816	-0.782184
N79	N	-1.659385	0.694285	-0.000037
H80	H	-1.644052	0.749566	-0.000042
H81	H	-1.707276	0.683066	-0.049190
N82	N	-1.604365	0.215250	-0.203281
H83	H	-1.656717	0.189800	-0.242374
H84	H	-1.558027	0.175457	-0.168664
H85	H	-1.582574	0.225887	-0.634314
N86	N	-1.260806	0.382252	-0.203314
H87	H	-1.208462	0.407707	-0.242415
H88	H	-1.307131	0.422041	-0.168679
