data_functionalizedCrystal
_audit_creation_method	'MofGen! by Chris Wilmer'
_symmetry_space_group_name_H-M	'P1'
_symmetry_Int_Tables_number	1
_symmetry_cell_setting	triclinic
loop_
_symmetry_equiv_pos_as_xyz
  x,y,z
_cell_length_a	6.817900
_cell_length_b	11.102288
_cell_length_c	23.753023
_cell_angle_alpha	95.104496
_cell_angle_beta	100.067528
_cell_angle_gamma	108.605689
loop_
_atom_site_label
_atom_site_type_symbol
_atom_site_fract_x
_atom_site_fract_y
_atom_site_fract_z
V1	V	-4.015130	-0.177444	-0.178388
O2	O	-3.975998	0.006876	-0.174992
O3	O	-3.992567	-0.350253	-0.177168
O4	O	-3.949868	-0.175439	-0.256189
O5	O	-4.018992	-0.169149	-0.095424
V6	V	-4.497595	-0.155312	-0.168465
O7	O	-4.278709	-0.225993	-0.200156
O8	O	-4.684214	-0.106762	-0.146698
O9	O	-4.296952	0.017498	-0.169685
O10	O	-4.654125	-0.339631	-0.171861
O11	O	-4.611130	-0.163607	-0.251429
O12	O	-4.339651	-0.157316	-0.090664
C13	C	-3.844398	-0.392358	-0.174354
C14	C	-3.907124	-0.533636	-0.173875
C15	C	-3.789931	-0.169363	-0.275153
C16	C	-3.818026	-0.168867	-0.338756
C17	C	-4.119058	-0.606508	-0.176505
C18	C	-4.177987	-0.739256	-0.176059
C19	C	-3.813025	-0.726246	-0.170352
C20	C	-3.754102	-0.593503	-0.170802
C21	C	-4.048271	-0.282405	-0.741346
C22	C	-4.074707	-0.281959	-0.801110
O23	O	-4.135864	-0.380771	-0.838970
N24	N	-4.032163	-0.165274	-0.822828
C25	C	-3.963197	-0.049028	-0.784779
O26	O	-3.929439	0.050262	-0.808739
C27	C	-3.936776	-0.049476	-0.725017
C28	C	-3.979306	-0.166168	-0.703302
C29	C	-4.090798	-0.399087	-0.719631
C30	C	-4.064360	-0.399533	-0.659871
C31	C	-3.995394	-0.283296	-0.621827
C32	C	-3.952867	-0.166613	-0.643543
C33	C	-3.867826	0.066768	-0.686969
C34	C	-3.841410	0.066310	-0.627204
C35	C	-3.883940	-0.050382	-0.605489
C36	C	-3.857464	-0.050822	-0.545739
N37	N	-3.900008	-0.167506	-0.524021
C38	C	-3.968974	-0.283743	-0.562065
C39	C	-4.018690	-0.048097	-0.910284
C40	C	-4.045095	-0.047647	-0.970044
C41	C	-4.156608	-0.280579	-0.986371
C42	C	-4.130187	-0.281026	-0.926609
C43	C	-4.061235	-0.164782	-0.888566
C44	C	-3.913445	-0.284670	-0.436565
C45	C	-3.886991	-0.285105	-0.376800
C46	C	-3.775492	-0.052174	-0.360478
C47	C	-3.801933	-0.051739	-0.420239
C48	C	-3.870921	-0.167997	-0.458281
O49	O	-3.796323	0.047939	-0.507845
O50	O	-4.002747	-0.383018	-0.538097
C51	C	-4.108464	0.059596	-0.172498
C52	C	-4.024976	0.200873	-0.172980
C53	C	-4.162932	-0.163396	-0.071697
C54	C	-4.114074	-0.163886	-0.008094
H55	H	-4.243662	-0.557769	-0.179006
N56	N	-3.932891	-0.410970	-0.353380
H57	H	-3.837815	-0.457486	-0.365375
H58	H	-4.085977	-0.466026	-0.369336
H59	H	-3.581515	-0.534168	-0.168663
H60	H	-4.350560	-0.798583	-0.178201
H61	H	-3.969616	-0.379338	-0.467534
H62	H	-4.146963	-0.493747	-0.750602
H63	H	-3.688447	-0.775005	-0.167849
N64	N	-4.110302	-0.525396	-0.636456
H65	H	-4.158027	-0.598954	-0.669632
H66	H	-4.225853	-0.534965	-0.614001
N67	N	-4.230999	-0.405954	-1.027411
H68	H	-4.241285	-0.387954	-1.068563
H69	H	-4.374801	-0.461221	-1.022510
N70	N	-4.176076	-0.406885	-0.903191
H71	H	-4.223774	-0.480446	-0.936365
H72	H	-4.291624	-0.416476	-0.880733
N73	N	-3.766995	0.191705	-0.586179
H74	H	-3.629466	0.201044	-0.559047
H75	H	-3.877718	0.192326	-0.563031
H76	H	-4.010433	0.047376	-0.987718
N77	N	-3.944300	0.077289	-0.869252
H78	H	-3.921360	0.151268	-0.892083
H79	H	-3.806833	0.086513	-0.842123
H80	H	-3.833174	0.161791	-0.704638
N81	N	-3.756040	0.074118	-0.443664
H82	H	-3.708332	0.147685	-0.410492
H83	H	-3.888660	0.075043	-0.470076
H84	H	-3.719331	0.042463	-0.329492
