data_functionalizedCrystal
_audit_creation_method	'MofGen! by Chris Wilmer'
_symmetry_space_group_name_H-M	'P1'
_symmetry_Int_Tables_number	1
_symmetry_cell_setting	triclinic
loop_
_symmetry_equiv_pos_as_xyz
  x,y,z
_cell_length_a	18.101395
_cell_length_b	18.101398
_cell_length_c	18.101389
_cell_angle_alpha	89.975198
_cell_angle_beta	89.980315
_cell_angle_gamma	90.029682
loop_
_atom_site_label
_atom_site_type_symbol
_atom_site_fract_x
_atom_site_fract_y
_atom_site_fract_z
Zn1	Zn	-0.294952	1.132117	-0.418842
Zn2	Zn	-0.418778	1.132011	-0.294997
Zn3	Zn	-0.294950	1.008276	-0.295002
Zn4	Zn	-0.418751	1.008224	-0.418785
O5	O	-0.356858	1.070157	-0.356906
O6	O	-0.311390	1.235735	-0.402435
O7	O	-0.402362	1.115574	-0.191365
O8	O	-0.191317	1.024769	-0.311455
O9	O	-0.402364	1.235658	-0.311447
O10	O	-0.191319	1.115755	-0.402440
O11	O	-0.311386	1.024666	-0.191368
O12	O	-0.311360	0.904636	-0.311400
O13	O	-0.402319	1.024682	-0.522425
O14	O	-0.402317	0.904598	-0.402343
O15	O	-0.311364	1.115705	-0.522467
O16	O	-0.522407	1.115524	-0.311392
O17	O	-0.522388	1.024579	-0.402339
C18	C	-0.356836	0.877746	-0.356866
C19	C	-0.356844	0.795432	-0.356866
C20	C	-0.356860	0.644724	-0.356900
C21	C	-0.299550	0.613369	-0.299776
C22	C	-0.299335	0.527751	-0.299964
C23	C	-0.356875	0.496341	-0.356931
C24	C	-0.336055	0.527481	-0.435067
C25	C	-0.335631	0.613126	-0.434718
C26	C	-0.435137	0.613119	-0.336577
C27	C	-0.434724	0.527467	-0.334874
C28	C	-0.356884	0.412482	-0.356954
C29	C	-0.356848	0.728583	-0.356882
C30	C	-0.549268	1.070055	-0.356875
C31	C	-0.631582	1.070079	-0.356886
C32	C	-0.782291	1.070164	-0.356916
C33	C	-0.813663	1.012914	-0.414093
C34	C	-0.899281	1.013131	-0.414334
C35	C	-0.930673	1.070247	-0.356945
C36	C	-0.899497	1.148322	-0.377949
C37	C	-0.813852	1.147943	-0.378347
C38	C	-0.813914	1.050039	-0.278598
C39	C	-0.899566	1.048365	-0.279032
C40	C	-1.014533	1.070298	-0.356960
C41	C	-0.698431	1.070118	-0.356903
C42	C	-0.163696	1.070279	-0.356954
C43	C	-0.081382	1.070332	-0.356974
C44	C	-0.356839	1.070200	-0.550068
C45	C	-0.356831	1.070218	-0.632382
C46	C	-0.356880	1.263319	-0.356947
C47	C	-0.356890	1.345633	-0.356965
C48	C	-0.356692	1.070261	-0.931474
C49	C	-0.413737	1.012795	-0.900122
C50	C	-0.414001	1.012950	-0.814504
C51	C	-0.356761	1.070239	-0.783091
C52	C	-0.377948	1.148264	-0.814197
C53	C	-0.378323	1.147944	-0.899842
C54	C	-0.278334	1.050381	-0.899899
C55	C	-0.278787	1.048645	-0.814248
C56	C	-0.356799	1.070231	-0.699231
C57	C	-0.356656	1.070274	-1.015333
C58	C	-0.356823	1.070157	-0.164496
C59	C	-0.356622	1.070282	-0.082182
H60	H	-0.241876	0.634917	-0.313096
H61	H	-0.312322	0.506693	-0.242037
F62	F	-0.786825	0.936982	-0.397135
H63	H	-0.477831	0.633392	-0.378183
F64	F	-0.453193	1.169971	-0.925962
F65	F	-0.785770	0.976858	-0.253556
H66	H	-0.793615	1.091731	-0.235999
F67	F	-0.926208	0.973261	-0.258324
F68	F	-0.253104	0.977305	-0.928111
H69	H	-0.338578	1.192212	-0.920583
F70	F	-0.257905	0.973589	-0.787682
F71	F	-0.325349	1.205734	-0.787607
F72	F	-0.455254	0.500859	-0.259712
F73	F	-0.387841	0.640245	-0.492274
F74	F	-0.222782	1.105089	-0.926402
F75	F	-0.396581	0.936938	-0.927022
F76	F	-0.223526	0.501003	-0.317602
F77	F	-0.489182	1.029744	-0.928299
F78	F	-0.785489	1.030137	-0.489514
F79	F	-0.489910	1.030140	-0.787727
H80	H	-0.920903	1.165675	-0.434573
F81	F	-0.316313	0.640240	-0.223812
F82	F	-0.927495	1.098904	-0.220397
F83	F	-0.926013	1.030566	-0.490201
H84	H	-0.434621	1.165409	-0.792754
F85	F	-0.220284	1.099367	-0.786309
H86	H	-0.278423	0.633132	-0.451896
H87	H	-0.400742	0.955091	-0.793471
H88	H	-0.793093	1.192065	-0.338504
F89	F	-0.388952	0.500896	-0.492241
H90	H	-0.793833	1.164977	-0.435591
F91	F	-0.926842	0.937466	-0.397183
F92	F	-0.262108	0.499485	-0.457918
H93	H	-0.454151	0.634680	-0.280551
H94	H	-0.919824	1.192165	-0.337593
F95	F	-0.493489	0.499543	-0.385278
