data_functionalizedCrystal
_audit_creation_method	'MofGen! by Chris Wilmer'
_symmetry_space_group_name_H-M	'P1'
_symmetry_Int_Tables_number	1
_symmetry_cell_setting	triclinic
loop_
_symmetry_equiv_pos_as_xyz
  x,y,z
_cell_length_a	19.805407
_cell_length_b	15.297327
_cell_length_c	19.805399
_cell_angle_alpha	99.649417
_cell_angle_beta	89.980427
_cell_angle_gamma	99.707092
loop_
_atom_site_label
_atom_site_type_symbol
_atom_site_fract_x
_atom_site_fract_y
_atom_site_fract_z
Zn1	Zn	0.988098	-0.359189	-0.429336
Zn2	Zn	1.321431	-0.025856	-0.096003
Zn3	Zn	1.654764	0.307477	0.237330
Zn4	Zn	0.968423	-0.510058	-0.335728
Zn5	Zn	1.301757	-0.176725	-0.002395
Zn6	Zn	1.635090	0.156608	0.330939
Zn7	Zn	0.874909	-0.359214	-0.316164
Zn8	Zn	1.208243	-0.025881	0.017169
Zn9	Zn	1.541576	0.307453	0.350503
Zn10	Zn	0.855293	-0.510010	-0.448869
Zn11	Zn	1.188626	-0.176677	-0.115535
Zn12	Zn	1.521960	0.156656	0.217798
O13	O	0.921681	-0.434618	-0.382524
O14	O	1.255014	-0.101285	-0.049191
O15	O	1.588348	0.232049	0.284142
O16	O	1.080203	-0.379212	-0.416932
O17	O	1.413537	-0.045879	-0.083599
O18	O	1.746870	0.287455	0.249735
O19	O	0.955994	-0.490079	-0.238420
O20	O	1.289328	-0.156746	0.094913
O21	O	1.622661	0.176588	0.428246
O22	O	0.906367	-0.232963	-0.314814
O23	O	1.239700	0.100371	0.018519
O24	O	1.573034	0.433704	0.351852
O25	O	1.065749	-0.490055	-0.348159
O26	O	1.399082	-0.156722	-0.014825
O27	O	1.732415	0.176612	0.318508
O28	O	0.989526	-0.232945	-0.397962
O29	O	1.322860	0.100389	-0.064628
O30	O	1.656193	0.433722	0.268705
O31	O	0.887290	-0.379254	-0.224047
O32	O	1.220623	-0.045921	0.109287
O33	O	1.553956	0.287412	0.442620
O34	O	0.777592	-0.379208	-0.333754
O35	O	1.110925	-0.045875	-0.000421
O36	O	1.444258	0.287459	0.332912
O37	O	0.872934	-0.489973	-0.540990
O38	O	1.206267	-0.156640	-0.207657
O39	O	1.539601	0.176693	0.125676
O40	O	0.763180	-0.489997	-0.431252
O41	O	1.096513	-0.156664	-0.097919
O42	O	1.429846	0.176669	0.235415
O43	O	0.970505	-0.379166	-0.526640
O44	O	1.303839	-0.045832	-0.193307
O45	O	1.637172	0.287501	0.140027
O46	O	0.936973	-0.636300	-0.367099
O47	O	1.270307	-0.302967	-0.033765
O48	O	1.603640	0.030367	0.299568
O49	O	0.853857	-0.636265	-0.450222
O50	O	1.187190	-0.302932	-0.116889
O51	O	1.520523	0.030402	0.216444
C52	C	0.745827	-0.434601	-0.382500
C53	C	1.079160	-0.101267	-0.049167
C54	C	1.412494	0.232066	0.284167
C55	C	0.670593	-0.434615	-0.382509
C56	C	1.003927	-0.101282	-0.049175
C57	C	1.337260	0.232052	0.284158
C58	C	0.627751	-0.492390	-0.433217
C59	C	0.961085	-0.159057	-0.099884
C60	C	1.294418	0.174277	0.233450
C61	C	0.557063	-0.492392	-0.433227
C62	C	0.890396	-0.159058	-0.099893
C63	C	1.223729	0.174275	0.233440
C64	C	0.529217	-0.434622	-0.382525
C65	C	0.862550	-0.101289	-0.049191
C66	C	1.195883	0.232044	0.284142
C67	C	0.572065	-0.376841	-0.331814
C68	C	0.905398	-0.043508	0.001519
C69	C	1.238731	0.289826	0.334853
C70	C	0.642752	-0.376835	-0.331808
C71	C	0.976086	-0.043502	0.001526
C72	C	1.309419	0.289831	0.334859
C73	C	0.286989	-0.376861	-0.331839
C74	C	0.620322	-0.043528	0.001495
C75	C	0.953655	0.289806	0.334828
C76	C	0.216295	-0.376873	-0.331848
C77	C	0.549628	-0.043539	0.001485
C78	C	0.882962	0.289794	0.334819
C79	C	0.201299	-0.492417	-0.433258
C80	C	0.534632	-0.159084	-0.099925
C81	C	0.867965	0.174250	0.233409
C82	C	0.271987	-0.492412	-0.433252
C83	C	0.605320	-0.159078	-0.099918
C84	C	0.938653	0.174255	0.233415
C85	C	0.314829	-0.434627	-0.382543
C86	C	0.648162	-0.101294	-0.049210
C87	C	0.981495	0.232039	0.284124
C88	C	0.391477	-0.434625	-0.382534
C89	C	0.724811	-0.101292	-0.049201
C90	C	1.058144	0.232042	0.284133
C91	C	0.452569	-0.434628	-0.382531
C92	C	0.785902	-0.101295	-0.049197
C93	C	1.119235	0.232038	0.284136
C94	C	0.891170	-0.669017	-0.412918
C95	C	1.224503	-0.335684	-0.079584
C96	C	1.557836	-0.002351	0.253749
C97	C	0.878179	-0.769294	-0.425943
C98	C	1.211512	-0.435961	-0.092610
C99	C	1.544846	-0.102627	0.240724
C100	C	1.014807	-1.051906	-0.289663
C101	C	1.348141	-0.718573	0.043671
C102	C	1.681474	-0.385239	0.377004
C103	C	1.027012	-0.957691	-0.277422
C104	C	1.360346	-0.624358	0.055912
C105	C	1.693679	-0.291024	0.389245
C106	C	0.989805	-0.910587	-0.314551
C107	C	1.323139	-0.577254	0.018782
C108	C	1.656472	-0.243920	0.352116
C109	C	0.940391	-0.957708	-0.363923
C110	C	1.273724	-0.624374	-0.030590
C111	C	1.607057	-0.291041	0.302743
C112	C	0.928180	-1.051932	-0.376162
C113	C	1.261514	-0.718599	-0.042829
C114	C	1.594847	-0.385265	0.290505
C115	C	0.903178	-0.910613	-0.401050
C116	C	1.236512	-0.577280	-0.067717
C117	C	1.569845	-0.243946	0.265616
C118	C	0.853764	-0.957734	-0.450423
C119	C	1.187097	-0.624400	-0.117089
C120	C	1.520430	-0.291067	0.216244
C121	C	0.841556	-1.051949	-0.462659
C122	C	1.174889	-0.718615	-0.129326
C123	C	1.508223	-0.385282	0.204007
C124	C	0.878763	-1.099053	-0.425530
C125	C	1.212097	-0.765719	-0.092197
C126	C	1.545430	-0.432386	0.241137
C127	C	0.915389	-0.816389	-0.388812
C128	C	1.248722	-0.483055	-0.055478
C129	C	1.582055	-0.149722	0.277855
C130	C	0.828762	-0.816415	-0.475311
C131	C	1.162095	-0.483081	-0.141977
C132	C	1.495428	-0.149748	0.191356
C133	C	0.816557	-0.910630	-0.487552
C134	C	1.149890	-0.577296	-0.154219
C135	C	1.483223	-0.243963	0.179115
C136	C	1.098221	-0.434636	-0.382549
C137	C	1.431555	-0.101303	-0.049216
C138	C	1.764888	0.232031	0.284118
C139	C	1.173452	-0.434644	-0.382559
C140	C	1.506786	-0.101310	-0.049226
C141	C	1.840119	0.232023	0.284107
C142	C	0.921726	-0.434561	-0.559060
C143	C	1.255060	-0.101228	-0.225726
C144	C	1.588393	0.232105	0.107607
C145	C	0.921746	-0.434537	-0.634289
C146	C	1.255079	-0.101204	-0.300955
C147	C	1.588412	0.232130	0.032378
C148	C	0.952329	-0.199304	-0.352027
C149	C	1.285663	0.134030	-0.018694
C150	C	1.618996	0.467363	0.314640
C151	C	0.965390	-0.099027	-0.339031
C152	C	1.298723	0.234307	-0.005697
C153	C	1.632057	0.567640	0.327636
C154	C	0.972552	-0.376837	-0.662161
C155	C	1.305885	-0.043503	-0.328828
C156	C	1.639219	0.289830	0.004505
C157	C	0.972562	-0.376810	-0.732846
C158	C	1.305896	-0.043477	-0.399513
C159	C	1.639229	0.289856	-0.066180
C160	C	0.921768	-0.434490	-0.775658
C161	C	1.255102	-0.101157	-0.442325
C162	C	1.588435	0.232177	-0.108991
C163	C	0.870957	-0.492193	-0.747781
C164	C	1.204290	-0.158860	-0.414448
C165	C	1.537623	0.174474	-0.081114
C166	C	0.870944	-0.492214	-0.677096
C167	C	1.204277	-0.158881	-0.343763
C168	C	1.537611	0.174453	-0.010430
C169	C	0.871006	-0.492109	-1.032843
C170	C	1.204339	-0.158775	-0.699510
C171	C	1.537673	0.174558	-0.366177
C172	C	0.871024	-0.492085	-1.103533
C173	C	1.204357	-0.158752	-0.770199
C174	C	1.537690	0.174581	-0.436866
C175	C	0.972624	-0.376705	-1.088593
C176	C	1.305958	-0.043372	-0.755260
C177	C	1.639291	0.289961	-0.421927
C178	C	0.972612	-0.376726	-1.017909
C179	C	1.305945	-0.043393	-0.684575
C180	C	1.639278	0.289940	-0.351242
C181	C	0.921798	-0.434426	-0.990037
C182	C	1.255132	-0.101092	-0.656704
C183	C	1.588465	0.232241	-0.323371
C184	C	0.921787	-0.434452	-0.913392
C185	C	1.255120	-0.101119	-0.580059
C186	C	1.588453	0.232215	-0.246726
C187	C	0.921782	-0.434469	-0.852303
C188	C	1.255115	-0.101135	-0.518969
C189	C	1.588449	0.232198	-0.185636
C190	C	0.921683	-0.434610	-0.206667
C191	C	1.255016	-0.101276	0.126666
C192	C	1.588350	0.232057	0.459999
C193	C	0.921828	-0.434380	-0.131406
C194	C	1.255161	-0.101046	0.201928
C195	C	1.588495	0.232287	0.535261
H196	H	0.193626	-0.329824	-0.290560
H197	H	0.526960	0.003509	0.042774
H198	H	0.860293	0.336842	0.376107
H199	H	0.677635	-0.329784	-0.290519
H200	H	1.010968	0.003549	0.042815
H201	H	1.344302	0.336882	0.376148
Cl202	Cl	0.807068	-0.564752	-0.642056
Cl203	Cl	1.140402	-0.231419	-0.308723
Cl204	Cl	1.473735	0.101915	0.024610
Cl205	Cl	1.089138	-0.898460	-0.215363
Cl206	Cl	1.422471	-0.565127	0.117970
Cl207	Cl	1.755804	-0.231794	0.451304
Cl208	Cl	0.863147	-1.217499	-0.440642
Cl209	Cl	1.196480	-0.884165	-0.107309
Cl210	Cl	1.529814	-0.550832	0.226025
H211	H	0.801311	-1.090312	-0.502854
H212	H	1.134645	-0.756978	-0.169520
H213	H	1.467978	-0.423645	0.163813
Cl214	Cl	0.977508	-0.757163	-0.326746
Cl215	Cl	1.310842	-0.423830	0.006587
Cl216	Cl	1.644175	-0.090496	0.339921
H217	H	1.013936	-0.329827	-0.755537
H218	H	1.347269	0.003506	-0.422203
H219	H	1.680602	0.336840	-0.088870
Cl220	Cl	1.036471	-0.304215	-0.964092
Cl221	Cl	1.369804	0.029118	-0.630759
Cl222	Cl	1.703138	0.362452	-0.297425
Cl223	Cl	1.036414	-0.304325	-0.608348
Cl224	Cl	1.369748	0.029008	-0.275014
Cl225	Cl	1.703081	0.362341	0.058319
Cl226	Cl	0.306988	-0.565042	-0.496992
Cl227	Cl	0.640322	-0.231709	-0.163658
Cl228	Cl	0.973655	0.101625	0.169675
H229	H	0.829597	-0.539153	-0.782644
H230	H	1.162931	-0.205820	-0.449310
H231	H	1.496264	0.127513	-0.115977
Cl232	Cl	1.005336	-0.792144	-0.299347
Cl233	Cl	1.338669	-0.458811	0.033987
Cl234	Cl	1.672002	-0.125477	0.367320
H235	H	0.650417	-0.539436	-0.474502
H236	H	0.983750	-0.206102	-0.141169
H237	H	1.317084	0.127231	0.192164
H238	H	0.776322	-0.949009	-0.527751
H239	H	1.109656	-0.615675	-0.194418
H240	H	1.442989	-0.282342	0.138915
H241	H	1.013997	-0.329721	-1.111294
H242	H	1.347330	0.003613	-0.777961
H243	H	1.680664	0.336946	-0.444627
H244	H	0.798463	-0.778063	-0.505543
H245	H	1.131796	-0.444730	-0.172210
H246	H	1.465130	-0.111397	0.161123
Cl247	Cl	0.807162	-0.564601	-1.157353
Cl248	Cl	1.140496	-0.231268	-0.824020
Cl249	Cl	1.473829	0.102065	-0.490686
Cl250	Cl	0.340838	-0.304215	-0.268092
Cl251	Cl	0.674172	0.029118	0.065241
Cl252	Cl	1.007505	0.362451	0.398574
Cl253	Cl	0.807126	-0.564646	-0.997814
Cl254	Cl	1.140460	-0.231312	-0.664481
Cl255	Cl	1.473793	0.102021	-0.331148
H256	H	0.166408	-0.539464	-0.474549
H257	H	0.499742	-0.206131	-0.141216
H258	H	0.833075	0.127202	0.192117
Cl259	Cl	0.503206	-0.565026	-0.496977
Cl260	Cl	0.836540	-0.231693	-0.163644
Cl261	Cl	1.169873	0.101640	0.169690
Cl262	Cl	0.537059	-0.304210	-0.268078
Cl263	Cl	0.870392	0.029123	0.065256
Cl264	Cl	1.203726	0.362457	0.398589
H265	H	1.045092	-1.090267	-0.259433
H266	H	1.378425	-0.756933	0.073900
H267	H	1.711758	-0.423600	0.407233
