data_functionalizedCrystal
_audit_creation_method	'MofGen! by Chris Wilmer'
_symmetry_space_group_name_H-M	'P1'
_symmetry_Int_Tables_number	1
_symmetry_cell_setting	triclinic
loop_
_symmetry_equiv_pos_as_xyz
  x,y,z
_cell_length_a	12.594517
_cell_length_b	25.639233
_cell_length_c	12.594516
_cell_angle_alpha	89.987509
_cell_angle_beta	90.011616
_cell_angle_gamma	89.986289
loop_
_atom_site_label
_atom_site_type_symbol
_atom_site_fract_x
_atom_site_fract_y
_atom_site_fract_z
Zn1	Zn	1.627218	-0.295647	-0.423877
Zn2	Zn	2.127218	0.204353	0.076123
Zn3	Zn	1.627146	-0.208221	-0.601840
Zn4	Zn	2.127146	0.291779	-0.101840
Zn5	Zn	1.449246	-0.208224	-0.423875
Zn6	Zn	1.949246	0.291776	0.076125
Zn7	Zn	1.449218	-0.295624	-0.601814
Zn8	Zn	1.949218	0.204376	-0.101814
O9	O	1.538207	-0.251929	-0.512851
O10	O	2.038207	0.248071	-0.012851
O11	O	1.776154	-0.284058	-0.447496
O12	O	2.276154	0.215942	0.052504
O13	O	1.603529	-0.135056	-0.578242
O14	O	2.103529	0.364944	-0.078242
O15	O	1.472896	-0.219832	-0.274930
O16	O	1.972896	0.280168	0.225070
O17	O	1.776101	-0.219827	-0.578245
O18	O	2.276101	0.280173	-0.078245
O19	O	1.603652	-0.284061	-0.274931
O20	O	2.103652	0.215939	0.225069
O21	O	1.472826	-0.135058	-0.447492
O22	O	1.972826	0.364942	0.052508
O23	O	1.300296	-0.219809	-0.447467
O24	O	1.800296	0.280191	0.052533
O25	O	1.472848	-0.368792	-0.578200
O26	O	1.972848	0.131208	-0.078200
O27	O	1.300275	-0.284022	-0.578198
O28	O	1.800275	0.215978	-0.078198
O29	O	1.603625	-0.368809	-0.447471
O30	O	2.103625	0.131191	0.052529
O31	O	1.603501	-0.219804	-0.750782
O32	O	2.103501	0.280196	-0.250782
O33	O	1.472778	-0.284019	-0.750763
O34	O	1.972778	0.215981	-0.250763
C35	C	1.261666	-0.251914	-0.512830
C36	C	1.761666	0.248086	-0.012830
C37	C	1.143360	-0.251919	-0.512847
C38	C	1.643360	0.248081	-0.012847
C39	C	1.074088	-0.217061	-0.441645
C40	C	1.574088	0.282939	0.058355
C41	C	1.003287	-0.204201	-0.538727
C42	C	1.503287	0.295799	-0.038727
C43	C	1.003362	-0.264788	-0.415812
C44	C	1.503362	0.235212	0.084188
C45	C	1.074118	-0.239035	-0.609979
C46	C	1.574118	0.260965	-0.109979
C47	C	1.074199	-0.299644	-0.486999
C48	C	1.574199	0.200356	0.013001
C49	C	1.003431	-0.286802	-0.584148
C50	C	1.503431	0.213198	-0.084148
C51	C	1.538241	-0.388302	-0.512833
C52	C	2.038241	0.111698	-0.012833
C53	C	1.538256	-0.446416	-0.512825
C54	C	2.038256	0.053584	-0.012825
C55	C	1.606437	-0.806794	-0.444552
C56	C	2.106437	-0.306794	0.055448
C57	C	1.606451	-0.861398	-0.444523
C58	C	2.106451	-0.361398	0.055477
O59	O	1.664335	-0.889647	-0.386600
O60	O	2.164335	-0.389647	0.113400
N61	N	1.538373	-0.888699	-0.512575
N62	N	2.038373	-0.388699	-0.012575
C63	C	1.470270	-0.861392	-0.580654
C64	C	1.970270	-0.361392	-0.080654
O65	O	1.412366	-0.889627	-0.638535
O66	O	1.912366	-0.389627	-0.138535
C67	C	1.470253	-0.806789	-0.580677
C68	C	1.970253	-0.306789	-0.080677
C69	C	1.538342	-0.779491	-0.512628
C70	C	2.038342	-0.279491	-0.012628
C71	C	1.674521	-0.779496	-0.376507
C72	C	2.174521	-0.279496	0.123493
C73	C	1.674509	-0.724895	-0.376538
C74	C	2.174509	-0.224895	0.123462
C75	C	1.606413	-0.697593	-0.444614
C76	C	2.106413	-0.197593	0.055386
C77	C	1.538330	-0.724891	-0.512659
C78	C	2.038330	-0.224891	-0.012659
C79	C	1.402145	-0.779483	-0.648750
C80	C	1.902145	-0.279483	-0.148750
C81	C	1.402133	-0.724876	-0.648767
C82	C	1.902133	-0.224876	-0.148767
C83	C	1.470223	-0.697578	-0.580718
C84	C	1.970223	-0.197578	-0.080718
C85	C	1.470223	-0.642987	-0.580766
C86	C	1.970223	-0.142987	-0.080766
N87	N	1.538301	-0.615687	-0.512713
N88	N	2.038301	-0.115687	-0.012713
C89	C	1.606396	-0.642989	-0.444637
C90	C	2.106396	-0.142989	0.055363
C91	C	1.470311	-0.976063	-0.580599
C92	C	1.970311	-0.476063	-0.080599
C93	C	1.470334	-1.030665	-0.580582
C94	C	1.970334	-0.530665	-0.080582
C95	C	1.606513	-1.030667	-0.444448
C96	C	2.106513	-0.530667	0.055552
C97	C	1.606495	-0.976064	-0.444472
C98	C	2.106495	-0.476064	0.055528
C99	C	1.538389	-0.948762	-0.512546
C100	C	2.038389	-0.448762	-0.012546
C101	C	1.606366	-0.528324	-0.444709
C102	C	2.106366	-0.028324	0.055291
C103	C	1.606351	-0.473719	-0.444749
C104	C	2.106351	0.026281	0.055251
C105	C	1.470169	-0.473721	-0.580878
C106	C	1.970169	0.026279	-0.080878
C107	C	1.470187	-0.528322	-0.580842
C108	C	1.970187	-0.028322	-0.080842
C109	C	1.538289	-0.555622	-0.512749
C110	C	2.038289	-0.055622	-0.012749
O111	O	1.412365	-0.614703	-0.638656
O112	O	1.912365	-0.114703	-0.138656
O113	O	1.664281	-0.614747	-0.386757
O114	O	2.164281	-0.114747	0.113243
C115	C	1.815828	-0.251945	-0.512874
C116	C	2.315828	0.248055	-0.012874
C117	C	1.934133	-0.251951	-0.512883
C118	C	2.434133	0.248049	-0.012883
C119	C	1.538158	-0.251920	-0.789392
C120	C	2.038158	0.248080	-0.289392
C121	C	1.538234	-0.251933	-0.907698
C122	C	2.038234	0.248067	-0.407698
C123	C	1.538234	-0.116086	-0.512793
C124	C	2.038234	0.383914	-0.012793
C125	C	1.538425	-0.057973	-0.512501
C126	C	2.038425	0.442027	-0.012501
C127	C	1.609417	-0.217044	-0.976923
C128	C	2.109417	0.282956	-0.476923
C129	C	1.635414	-0.264766	-1.047645
C130	C	2.135414	0.235234	-0.547645
C131	C	1.512369	-0.204242	-1.047774
C132	C	2.012369	0.295758	-0.547774
C133	C	1.564281	-0.299680	-0.976862
C134	C	2.064281	0.200320	-0.476862
C135	C	1.441191	-0.239124	-0.976985
C136	C	1.941191	0.260876	-0.476985
C137	C	1.467152	-0.286879	-1.047675
C138	C	1.967152	0.213121	-0.547675
C139	C	1.538285	-0.251950	-0.235231
C140	C	2.038285	0.248050	0.264769
C141	C	1.538319	-0.251958	-0.116925
C142	C	2.038319	0.248042	0.383075
H143	H	1.661802	-0.451495	-0.389334
H144	H	2.161802	0.048505	0.110666
H145	H	1.661818	-0.550546	-0.389257
H146	H	2.161818	-0.050546	0.110743
H147	H	1.729952	-0.702674	-0.321123
H148	H	2.229952	-0.202674	0.178877
H149	H	1.729972	-0.801720	-0.321066
H150	H	2.229972	-0.301720	0.178934
H151	H	1.406991	-0.316428	-1.078545
H152	H	1.906991	0.183572	-0.578545
Cl153	Cl	1.384564	-0.439388	-0.666451
Cl154	Cl	1.884564	0.060612	-0.166451
H155	H	1.105371	-0.339978	-0.465085
H156	H	1.605371	0.160022	0.034915
Cl157	Cl	1.692094	-0.941753	-0.358918
Cl158	Cl	2.192094	-0.441753	0.141082
H159	H	1.105112	-0.187546	-0.381491
H160	H	1.605112	0.312454	0.118509
H161	H	1.669623	-0.187567	-0.945856
H162	H	2.169623	0.312433	-0.445856
Cl163	Cl	1.478538	-0.141958	-1.095866
Cl164	Cl	1.978538	0.358042	-0.595866
Cl165	Cl	0.955827	-0.332337	-0.677238
Cl166	Cl	1.455827	0.167663	-0.177238
Cl167	Cl	1.762179	-0.281525	-1.095547
Cl168	Cl	2.262179	0.218475	-0.595547
Cl169	Cl	0.955196	-0.141911	-0.572516
Cl170	Cl	1.455196	0.358089	-0.072516
Cl171	Cl	1.121897	-0.222178	-0.736735
Cl172	Cl	1.621897	0.277822	-0.236735
H173	H	0.972226	-0.275641	-0.333747
H174	H	1.472226	0.224359	0.166253
Cl175	Cl	1.692116	-1.065001	-0.358863
Cl176	Cl	2.192116	-0.565001	0.141137
Cl177	Cl	1.314460	-0.222355	-0.929028
Cl178	Cl	1.814460	0.277645	-0.429028
Cl179	Cl	1.598275	-0.361982	-0.928982
Cl180	Cl	2.098275	0.138018	-0.428982
Cl181	Cl	1.384692	-0.941746	-0.666196
Cl182	Cl	1.884692	-0.441746	-0.166196
Cl183	Cl	1.384593	-0.562640	-0.666396
Cl184	Cl	1.884593	-0.062640	-0.166396
Cl185	Cl	1.384748	-1.064976	-0.666150
Cl186	Cl	1.884748	-0.564976	-0.166150
H187	H	1.346660	-0.702650	-0.704192
H188	H	1.846660	-0.202650	-0.204192
Cl189	Cl	1.316545	-0.813787	-0.734308
Cl190	Cl	1.816545	-0.313787	-0.234308
