data_functionalizedCrystal
_audit_creation_method	'MofGen! by Chris Wilmer'
_symmetry_space_group_name_H-M	'P1'
_symmetry_Int_Tables_number	1
_symmetry_cell_setting	triclinic
loop_
_symmetry_equiv_pos_as_xyz
  x,y,z
_cell_length_a	19.288840
_cell_length_b	10.967829
_cell_length_c	18.366186
_cell_angle_alpha	77.865925
_cell_angle_beta	89.983729
_cell_angle_gamma	83.934359
loop_
_atom_site_label
_atom_site_type_symbol
_atom_site_fract_x
_atom_site_fract_y
_atom_site_fract_z
O1	O	0.922378	0.155513	-0.080183
O2	O	0.720253	0.176544	-0.082796
O3	O	0.825975	-0.015650	-0.058691
O4	O	0.816656	0.347706	-0.104287
O5	O	0.825956	-0.015659	0.062409
O6	O	0.720234	0.176534	0.038305
O7	O	0.922360	0.155503	0.040918
Zn8	Zn	0.821294	0.166017	0.058839
Zn9	Zn	0.821318	0.166030	-0.100717
O10	O	0.816638	0.347697	0.016813
C11	C	0.694362	0.175868	-0.022158
C12	C	0.617245	0.173852	-0.021896
C13	C	0.581045	0.172889	-0.087788
C14	C	0.508585	0.170981	-0.087557
C15	C	0.472330	0.170011	-0.021428
C16	C	0.508539	0.170981	0.044472
C17	C	0.580996	0.172902	0.044238
C18	C	0.362498	0.093877	0.038687
C19	C	0.290043	0.091948	0.038920
C20	C	0.248848	0.164093	-0.020704
C21	C	0.280118	0.238150	-0.080570
C22	C	0.352575	0.240070	-0.080804
C23	C	0.393763	0.167929	-0.021167
C24	C	0.134079	0.161063	-0.086351
C25	C	0.061618	0.159163	-0.086119
C26	C	0.061574	0.159151	0.045914
C27	C	0.134033	0.161064	0.045679
C28	C	0.170282	0.162014	-0.020455
C29	C	0.825286	-0.062141	0.007691
C30	C	0.823253	-0.200655	0.025069
C31	C	0.822357	-0.262398	-0.029918
C32	C	0.820256	-0.405559	-0.011959
C33	C	0.948250	0.156179	-0.019721
C34	C	1.025368	0.158195	-0.019989
C35	C	0.817327	0.394188	-0.049571
C36	C	0.819359	0.532702	-0.066953
N37	N	0.821283	0.166008	0.167731
N38	N	0.821335	0.166029	-0.209608
C39	C	0.868113	0.080946	0.216500
C40	C	0.868117	0.080941	0.292728
C41	C	0.821299	0.166018	0.320182
C42	C	0.774460	0.251087	0.271404
C43	C	0.774453	0.251081	0.195178
C44	C	0.812742	0.279714	0.426676
C45	C	0.812755	0.279721	0.502900
C46	C	0.821318	0.166034	0.555288
C47	C	0.829884	0.052335	0.531443
C48	C	0.829877	0.052330	0.455217
C49	C	0.821301	0.166033	0.402835
C50	C	0.868155	0.080959	0.686713
C51	C	0.868155	0.080952	0.762943
C52	C	0.774501	0.251109	0.741616
C53	C	0.774499	0.251105	0.665389
C54	C	0.821329	0.166032	0.637942
H55	H	0.378032	0.300373	-0.129548
H56	H	0.610469	0.173687	0.097897
F57	F	0.619619	0.173904	-0.158174
F58	F	0.819222	-0.474986	0.066958
H59	H	0.736318	0.320350	0.155468
F60	F	0.820367	-0.397867	-0.145871
F61	F	0.172561	0.162082	0.115812
H62	H	0.822462	-0.253780	0.085441
F63	F	0.823398	-0.192967	-0.108830
F64	F	0.917950	-0.009599	0.187291
F65	F	0.917962	-0.009598	0.344640
F66	F	0.838987	-0.068673	0.429842
H67	H	0.805784	0.372301	0.522308
H68	H	0.246578	0.296902	-0.129120
F69	F	0.470051	0.169955	-0.157692
F70	F	0.917995	-0.009593	0.814850
F71	F	0.839004	-0.068669	0.587193
F72	F	0.724659	0.341645	0.613481
H73	H	0.906285	0.011683	0.664366
F74	F	0.724670	0.341647	0.770832
F75	F	0.724630	0.341628	0.300623
F76	F	0.172660	0.162083	-0.156737
F77	F	0.022993	0.158129	0.116294
F78	F	0.023091	0.158147	-0.156256
F79	F	0.406335	0.017087	0.102152
F80	F	0.256768	0.013154	0.102642
H81	H	0.805756	0.372298	0.384026
H82	H	0.479015	0.170195	0.098315
