data_functionalizedCrystal
_audit_creation_method	'MofGen! by Chris Wilmer'
_symmetry_space_group_name_H-M	'P1'
_symmetry_Int_Tables_number	1
_symmetry_cell_setting	triclinic
loop_
_symmetry_equiv_pos_as_xyz
  x,y,z
_cell_length_a	18.215405
_cell_length_b	12.759401
_cell_length_c	12.759393
_cell_angle_alpha	89.981504
_cell_angle_beta	90.037569
_cell_angle_gamma	89.974954
loop_
_atom_site_label
_atom_site_type_symbol
_atom_site_fract_x
_atom_site_fract_y
_atom_site_fract_z
Zn1	Zn	-0.292938	-1.606181	0.593937
Zn2	Zn	-0.416024	-1.606044	0.418239
Zn3	Zn	-0.292976	-1.430483	0.418277
Zn4	Zn	-0.415967	-1.430440	0.593881
O5	O	-0.354476	-1.518287	0.506084
O6	O	-0.309273	-1.753184	0.570639
O7	O	-0.399741	-1.582716	0.271223
O8	O	-0.189987	-1.453865	0.441618
O9	O	-0.399704	-1.753083	0.441554
O10	O	-0.189959	-1.582949	0.570675
O11	O	-0.309339	-1.453732	0.271251
O12	O	-0.309284	-1.283456	0.441563
O13	O	-0.399607	-1.453792	0.740909
O14	O	-0.399645	-1.283425	0.570578
O15	O	-0.309218	-1.582908	0.740951
O16	O	-0.519001	-1.582675	0.441499
O17	O	-0.518959	-1.453660	0.570542
C18	C	-0.354463	-1.245320	0.506069
C19	C	-0.354475	-1.128543	0.506088
C20	C	-0.545683	-1.518176	0.506033
C21	C	-0.627482	-1.518225	0.506047
C22	C	-0.354402	-1.518361	0.780117
C23	C	-0.354370	-1.518392	0.896894
C24	C	-0.815673	-1.585561	0.438977
C25	C	-0.892531	-1.585608	0.439003
C26	C	-0.892528	-1.451148	0.573265
C27	C	-0.815671	-1.451107	0.573244
C28	C	-0.777245	-1.518312	0.506094
C29	C	-0.930961	-1.518400	0.506141
C30	C	-1.014295	-1.518450	0.506169
C31	C	-0.693906	-1.518263	0.506067
C32	C	-0.162523	-1.518427	0.506157
C33	C	-0.080724	-1.518487	0.506189
C34	C	-0.354491	-1.792320	0.506098
C35	C	-0.354497	-1.909097	0.506105
C36	C	-0.401601	-1.073692	0.573155
C37	C	-0.401610	-0.963968	0.573167
C38	C	-0.307365	-0.963956	0.439035
C39	C	-0.307353	-1.073678	0.439029
C40	C	-0.456015	-1.073699	0.650592
C41	C	-0.456025	-0.963975	0.650604
C42	C	-0.354497	-1.518274	0.233116
C43	C	-0.354322	-1.518447	0.116340
C44	C	-0.307300	-1.585632	0.951779
C45	C	-0.307274	-1.585657	1.061503
C46	C	-0.401394	-1.451199	1.061447
C47	C	-0.401416	-1.451170	0.951725
C48	C	-0.252963	-1.663263	0.951813
C49	C	-0.252936	-1.663288	1.061537
H50	H	-0.923816	-1.640370	0.384351
O51	O	-0.261632	-0.910775	0.373745
C52	C	-0.225793	-0.877107	0.195124
C53	C	-0.277620	-0.937412	0.268951
H54	H	-0.238711	-0.898604	0.110382
H55	H	-0.166453	-0.898736	0.213642
H56	H	-0.233880	-0.789268	0.206701
H57	H	-0.269598	-1.025265	0.257416
H58	H	-0.336941	-0.915696	0.250415
O59	O	-0.261492	-1.127010	0.374039
C60	C	-0.162137	-1.250973	0.360177
C61	C	-0.214018	-1.190621	0.433900
H62	H	-0.123751	-1.302434	0.408544
H63	H	-0.128407	-1.192960	0.312267
H64	H	-0.195885	-1.302263	0.305125
H65	H	-0.180327	-1.139330	0.489015
H66	H	-0.247750	-1.248691	0.481736
H67	H	-0.923824	-1.396430	0.627935
H68	H	-0.784381	-1.396345	0.627904
H69	H	-0.784388	-1.640285	0.384302
H70	H	-0.268201	-1.744655	1.091313
H71	H	-0.435680	-0.929982	0.727959
O72	O	-0.524034	-0.928578	0.624364
C73	C	-0.647966	-0.974323	0.576682
C74	C	-0.570980	-1.014551	0.606359
H75	H	-0.685946	-1.043810	0.562138
H76	H	-0.644237	-0.924694	0.502564
H77	H	-0.670721	-0.924669	0.643455
H78	H	-0.548180	-1.064247	0.539654
H79	H	-0.574755	-1.064123	0.680509
O80	O	-0.437837	-1.109098	0.747755
C81	C	-0.404824	-1.063358	0.924833
C82	C	-0.425385	-1.023127	0.814845
H83	H	-0.394766	-0.993872	0.979112
H84	H	-0.352885	-1.112974	0.919727
H85	H	-0.451656	-1.113026	0.957106
H86	H	-0.378601	-0.973417	0.782508
H87	H	-0.477347	-0.973568	0.820017
O88	O	-0.520573	-1.114392	0.615805
C89	C	-0.625332	-1.222508	0.655695
C90	C	-0.552227	-1.176513	0.695217
H91	H	-0.650954	-1.272725	0.719888
H92	H	-0.614808	-1.272844	0.583441
H93	H	-0.664382	-1.155933	0.634515
H94	H	-0.513141	-1.243021	0.716456
H95	H	-0.562807	-1.126149	0.767434
O96	O	-0.447198	-1.385803	0.898571
C97	C	-0.540494	-1.252364	0.910098
C98	C	-0.488699	-1.326365	0.970425
H99	H	-0.574050	-1.204273	0.968166
H100	H	-0.579045	-1.300485	0.858733
H101	H	-0.506688	-1.197495	0.858723
H102	H	-0.522447	-1.381248	1.021857
H103	H	-0.450146	-1.278178	1.021725
O104	O	-0.447174	-1.386058	1.114758
C105	C	-0.546477	-1.371876	1.238634
C106	C	-0.494686	-1.445767	1.178311
H107	H	-0.584892	-1.420119	1.290048
H108	H	-0.580178	-1.323833	1.180601
H109	H	-0.512659	-1.316957	1.289969
H110	H	-0.528446	-1.500750	1.126975
H111	H	-0.460982	-1.493736	1.236400
O112	O	-0.184941	-1.637243	0.916491
C113	C	-0.060953	-1.590000	0.962371
C114	C	-0.137954	-1.619432	1.002515
H115	H	-0.022938	-1.575612	1.031901
H116	H	-0.064630	-1.515849	0.912768
H117	H	-0.038273	-1.656830	0.912712
H118	H	-0.160679	-1.552670	1.052217
H119	H	-0.134230	-1.693614	1.052061
O120	O	-0.277316	-1.755525	0.911368
C121	C	-0.323159	-1.928872	0.947767
C122	C	-0.295576	-1.824451	0.993711
H123	H	-0.337945	-1.984619	1.014319
H124	H	-0.278207	-1.965464	0.897543
H125	H	-0.373800	-1.913803	0.897413
H126	H	-0.244949	-1.839430	1.044113
H127	H	-0.340574	-1.787890	1.043875
H128	H	-0.198783	-1.634188	1.095593
