data_functionalizedCrystal
_audit_creation_method	'MofGen! by Chris Wilmer'
_symmetry_space_group_name_H-M	'P1'
_symmetry_Int_Tables_number	1
_symmetry_cell_setting	triclinic
loop_
_symmetry_equiv_pos_as_xyz
  x,y,z
_cell_length_a	12.996460
_cell_length_b	10.654550
_cell_length_c	10.654550
_cell_angle_alpha	95.515069
_cell_angle_beta	90.005980
_cell_angle_gamma	89.997676
loop_
_atom_site_label
_atom_site_type_symbol
_atom_site_fract_x
_atom_site_fract_y
_atom_site_fract_z
O1	O	0.085490	-1.667843	0.176401
O2	O	0.585490	-1.167843	0.676401
O3	O	0.085509	-1.302364	0.193207
O4	O	0.585509	-0.802364	0.693207
O5	O	0.085492	-1.493507	0.002065
O6	O	0.585492	-0.993507	0.502065
O7	O	0.085506	-1.476701	0.367544
O8	O	0.585506	-0.976701	0.867544
O9	O	-0.085642	-1.493487	0.002054
O10	O	0.414358	-0.993487	0.502054
O11	O	-0.085625	-1.302344	0.193197
O12	O	0.414375	-0.802344	0.693197
O13	O	-0.085644	-1.667823	0.176391
O14	O	0.414356	-1.167823	0.676391
Cu15	Cu	-0.101260	-1.485082	0.184793
Cu16	Cu	0.398740	-0.985082	0.684793
Cu17	Cu	0.101125	-1.485106	0.184805
Cu18	Cu	0.601125	-0.985106	0.684805
O19	O	-0.085628	-1.476680	0.367533
O20	O	0.414372	-0.976680	0.867533
C21	C	-0.000056	-1.255556	0.191968
C22	C	0.499944	-0.755556	0.691968
C23	C	-0.000049	-1.116113	0.188276
C24	C	0.499951	-0.616113	0.688276
N25	N	-0.243608	-1.485074	0.184783
N26	N	0.256392	-0.985074	0.684783
C27	C	-0.000074	-1.492263	-0.044738
C28	C	0.499926	-0.992263	0.455262
C29	C	-0.000072	-1.488571	-0.184181
C30	C	0.499928	-0.988571	0.315819
C31	C	-0.663422	-1.485104	0.184807
C32	C	-0.163422	-0.985104	0.684807
C33	C	-0.546617	-1.485092	0.184804
C34	C	-0.046617	-0.985092	0.684804
C35	C	-0.453518	-1.485090	0.184796
C36	C	0.046482	-0.985090	0.684796
C37	C	-0.336706	-1.485076	0.184791
C38	C	0.163294	-0.985076	0.684791
N39	N	0.243472	-1.485123	0.184805
N40	N	0.743472	-0.985123	0.684805
C41	C	-0.000077	-1.714631	0.177630
C42	C	0.499923	-1.214631	0.677630
C43	C	-0.000078	-1.854074	0.181322
C44	C	0.499922	-1.354074	0.681322
C45	C	-0.000048	-1.036628	0.300818
C46	C	0.499952	-0.536628	0.800818
C47	C	-0.000066	-0.905607	0.297341
C48	C	0.499934	-0.405607	0.797341
C49	C	-0.000082	-0.933570	0.068772
C50	C	0.499918	-0.433570	0.568772
C51	C	-0.000071	-1.064588	0.072250
C52	C	0.499929	-0.564588	0.572250
C53	C	-0.000078	-1.601112	-0.263667
C54	C	0.499922	-1.101112	0.236333
C55	C	-0.000065	-1.597636	-0.394688
C56	C	0.499935	-1.097636	0.105312
C57	C	-0.000046	-1.369066	-0.366725
C58	C	0.499954	-0.869066	0.133275
C59	C	-0.000051	-1.372544	-0.235706
C60	C	0.499949	-0.872544	0.264294
C61	C	-0.000059	-1.477925	0.414336
C62	C	0.499941	-0.977925	0.914336
C63	C	-0.000054	-1.481616	0.553779
C64	C	0.499946	-0.981616	1.053779
H65	H	-0.000067	-0.840894	0.388984
H66	H	0.499933	-0.340894	0.888984
H67	H	-0.000093	-1.695588	-0.221720
H68	H	0.499907	-1.195588	0.278280
H69	H	-0.000030	-1.274601	-0.408693
H70	H	0.499970	-0.774601	0.091307
N71	N	-0.000046	-1.251160	-0.149955
N72	N	0.499954	-0.751160	0.350045
H73	H	0.063398	-1.200599	-0.166629
H74	H	0.563398	-0.700599	0.333371
H75	H	-0.063523	-1.200679	-0.166685
H76	H	0.436477	-0.700679	0.333315
N77	N	-0.000023	-1.092205	0.425954
N78	N	0.499977	-0.592205	0.925954
H79	H	-0.000025	-1.021965	0.496720
H80	H	0.499975	-0.521965	0.996720
H81	H	-0.063457	-1.145963	0.432376
H82	H	0.436543	-0.645963	0.932376
H83	H	-0.000106	-0.891602	-0.025693
H84	H	0.499894	-0.391602	0.474307
H85	H	-0.000075	-1.129309	-0.019401
H86	H	0.499925	-0.629309	0.480599
N87	N	-0.000070	-1.719019	-0.480420
N88	N	0.499930	-1.219019	0.019580
H89	H	-0.000085	-1.793044	-0.427894
H90	H	0.499915	-1.293044	0.072106
H91	H	-0.063509	-1.722541	-0.535403
H92	H	0.436491	-1.222541	-0.035403
