data_functionalizedCrystal
_audit_creation_method	'MofGen! by Chris Wilmer'
_symmetry_space_group_name_H-M	'P1'
_symmetry_Int_Tables_number	1
_symmetry_cell_setting	triclinic
loop_
_symmetry_equiv_pos_as_xyz
  x,y,z
_cell_length_a	11.169417
_cell_length_b	25.639239
_cell_length_c	11.169409
_cell_angle_alpha	89.960719
_cell_angle_beta	89.980176
_cell_angle_gamma	90.039565
loop_
_atom_site_label
_atom_site_type_symbol
_atom_site_fract_x
_atom_site_fract_y
_atom_site_fract_z
Zn1	Zn	1.834726	-0.208096	-0.678485
Zn2	Zn	1.834516	-0.295546	-0.477777
Zn3	Zn	1.634012	-0.208128	-0.477819
Zn4	Zn	1.633920	-0.295504	-0.678422
O5	O	1.734293	-0.251819	-0.578126
O6	O	2.002648	-0.219701	-0.651869
O7	O	1.807869	-0.283981	-0.309833
O8	O	1.660763	-0.134959	-0.504482
O9	O	2.002494	-0.283950	-0.504410
O10	O	1.808227	-0.134935	-0.651910
O11	O	1.660560	-0.219755	-0.309864
O12	O	1.466050	-0.219714	-0.504421
O13	O	1.660607	-0.283878	-0.846380
O14	O	1.465983	-0.283909	-0.651803
O15	O	1.808138	-0.219660	-0.846426
O16	O	1.807780	-0.368706	-0.504350
O17	O	1.660403	-0.368675	-0.651763
C18	C	1.422469	-0.251811	-0.578110
C19	C	1.289069	-0.251820	-0.578132
C20	C	1.734092	-0.387661	-0.578071
C21	C	1.734115	-0.445775	-0.578088
C22	C	1.811233	-0.806142	-0.501499
C23	C	1.811279	-0.860746	-0.501515
O24	O	1.876638	-0.888986	-0.436336
N25	N	1.734504	-0.888058	-0.578205
C26	C	1.657686	-0.860762	-0.654894
O27	O	1.592388	-0.889006	-0.720127
C28	C	1.657647	-0.806159	-0.654883
C29	C	1.734418	-0.778850	-0.578178
C30	C	1.887999	-0.778833	-0.424802
C31	C	1.887951	-0.724233	-0.424784
C32	C	1.811136	-0.696941	-0.501464
C33	C	1.734370	-0.724249	-0.578161
C34	C	1.580836	-0.778864	-0.731576
C35	C	1.580804	-0.724257	-0.731559
C36	C	1.657575	-0.696948	-0.654855
C37	C	1.657507	-0.642357	-0.654823
N38	N	1.734282	-0.615046	-0.578133
C39	C	1.811097	-0.642338	-0.501453
C40	C	1.657777	-0.975432	-0.654912
C41	C	1.657809	-1.030035	-0.654918
C42	C	1.811404	-1.030015	-0.501540
C43	C	1.811365	-0.975412	-0.501529
C44	C	1.734552	-0.948121	-0.578221
C45	C	1.810988	-0.527673	-0.501422
C46	C	1.810930	-0.473067	-0.501408
C47	C	1.657340	-0.473091	-0.654789
C48	C	1.657393	-0.527692	-0.654799
C49	C	1.734228	-0.554981	-0.578112
O50	O	1.592185	-0.614082	-0.719973
O51	O	1.876395	-0.614086	-0.436242
C52	C	2.047336	-0.251827	-0.578142
C53	C	2.180736	-0.251830	-0.578149
C54	C	1.734386	-0.251761	-0.891168
C55	C	1.734425	-0.251736	-1.024569
C56	C	1.734529	-0.115446	-0.578207
C57	C	1.734629	-0.057331	-0.578242
C58	C	1.734271	-0.251839	-0.266301
C59	C	1.734464	-0.251716	-0.132902
H60	H	1.873446	-0.450834	-0.438942
H61	H	1.950468	-0.702001	-0.362329
O62	O	1.506142	-0.805408	-0.805924
C63	C	1.428687	-0.837065	-0.737566
H64	H	1.421291	-0.820653	-0.643025
H65	H	1.465824	-0.878433	-0.733484
C66	C	1.312987	-0.858089	-0.912238
C67	C	1.303896	-0.837929	-0.796123
H68	H	1.236011	-0.858625	-0.948360
H69	H	1.365173	-0.836763	-0.958294
H70	H	1.343940	-0.892561	-0.908821
H71	H	1.272958	-0.803456	-0.799544
H72	H	1.251702	-0.859250	-0.750069
O73	O	1.506075	-0.697828	-0.806102
C74	C	1.438357	-0.733645	-0.873822
H75	H	1.434255	-0.772586	-0.824664
H76	H	1.482278	-0.739402	-0.965006
C77	C	1.315634	-0.664562	-0.951402
C78	C	1.310588	-0.712388	-0.891020
H79	H	1.236821	-0.651449	-0.962016
H80	H	1.361259	-0.640431	-0.905781
H81	H	1.352240	-0.669366	-1.027382
H82	H	1.273996	-0.707582	-0.815036
H83	H	1.264953	-0.736518	-0.936629
O84	O	1.583186	-1.056478	-0.729532
C85	C	1.515360	-1.020674	-0.797178
H86	H	1.564491	-0.981728	-0.801356
H87	H	1.424228	-1.014923	-0.753145
C88	C	1.437666	-1.089775	-0.919777
C89	C	1.498014	-1.041942	-0.924918
H90	H	1.426960	-1.102895	-0.998572
H91	H	1.483357	-1.113898	-0.874201
H92	H	1.361729	-1.084976	-0.883078
H93	H	1.573955	-1.046743	-0.961603
H94	H	1.452335	-1.017821	-0.970504
O95	O	1.582778	-0.554142	-0.729417
C96	C	1.514945	-0.518341	-0.797066
H97	H	1.564062	-0.479392	-0.801238
H98	H	1.423807	-0.512597	-0.753040
C99	C	1.437284	-0.587446	-0.919676
C100	C	1.497616	-0.539609	-0.924808
H101	H	1.426589	-0.600566	-0.998472
H102	H	1.482981	-0.611566	-0.874097
H103	H	1.361343	-0.582653	-0.882982
H104	H	1.573561	-0.544404	-0.961488
H105	H	1.451931	-0.515490	-0.970397
O106	O	1.885463	-0.554238	-0.426884
C107	C	1.817217	-0.585877	-0.349291
H108	H	1.726244	-0.594087	-0.391531
H109	H	1.804068	-0.564874	-0.260327
C110	C	1.995056	-0.627636	-0.275770
C111	C	1.883325	-0.637723	-0.327654
H112	H	2.035835	-0.659617	-0.262418
H113	H	2.041036	-0.606319	-0.328042
H114	H	1.984082	-0.610132	-0.201639
H115	H	1.894300	-0.655221	-0.401790
H116	H	1.837348	-0.659045	-0.275394
H117	H	1.950557	-0.801049	-0.362360
O118	O	1.582904	-0.446549	-0.729403
C119	C	1.651192	-0.414898	-0.806932
H120	H	1.745721	-0.431315	-0.814422
H121	H	1.655324	-0.373528	-0.769805
C122	C	1.476408	-0.393867	-0.922457
C123	C	1.592508	-0.414034	-0.931664
H124	H	1.440208	-0.393332	-0.999397
H125	H	1.430400	-0.415190	-0.870222
H126	H	1.479868	-0.359395	-0.891513
H127	H	1.589047	-0.448508	-0.962593
H128	H	1.638515	-0.392717	-0.983908
O129	O	1.886057	-0.948968	-0.426986
C130	C	1.953831	-0.984772	-0.359288
H131	H	1.957983	-1.023676	-0.408464
H132	H	1.909928	-0.990630	-0.268103
C133	C	2.076465	-0.915635	-0.281689
C134	C	2.081572	-0.963416	-0.342093
H135	H	2.155260	-0.902462	-0.271077
H136	H	2.030802	-0.891513	-0.327294
H137	H	2.039873	-0.920523	-0.205708
H138	H	2.118150	-0.958526	-0.418078
H139	H	2.127245	-0.987538	-0.296500
H140	H	1.595217	-0.953215	-0.717360
O141	O	1.886073	-1.056613	-0.427251
C142	C	1.869663	-1.110662	-0.443743
H143	H	1.830197	-1.118087	-0.536290
H144	H	1.805910	-1.126243	-0.372440
C145	C	2.039640	-1.129504	-0.319392
C146	C	1.991177	-1.138625	-0.433065
H147	H	2.114594	-1.146754	-0.312801
H148	H	2.050695	-1.093091	-0.308277
H149	H	1.986502	-1.142489	-0.259986
H150	H	2.044308	-1.125635	-0.492468
H151	H	1.980135	-1.175037	-0.444190
