data_functionalizedCrystal
_audit_creation_method	'MofGen! by Chris Wilmer'
_symmetry_space_group_name_H-M	'P1'
_symmetry_Int_Tables_number	1
_symmetry_cell_setting	triclinic
loop_
_symmetry_equiv_pos_as_xyz
  x,y,z
_cell_length_a	6.817900
_cell_length_b	9.108949
_cell_length_c	14.858572
_cell_angle_alpha	99.358378
_cell_angle_beta	104.524003
_cell_angle_gamma	111.764586
loop_
_atom_site_label
_atom_site_type_symbol
_atom_site_fract_x
_atom_site_fract_y
_atom_site_fract_z
V1	V	-4.094841	-0.226457	-0.308039
V2	V	-3.594841	0.273543	0.191961
O3	O	-4.023160	0.009827	-0.283656
O4	O	-3.523160	0.509827	0.216344
O5	O	-4.101577	-0.448010	-0.323743
O6	O	-3.601577	0.051990	0.176257
O7	O	-4.050727	-0.223436	-0.434259
O8	O	-3.550727	0.276564	0.065741
O9	O	-4.074362	-0.216302	-0.172374
O10	O	-3.574362	0.283698	0.327626
V11	V	-4.570769	-0.198140	-0.289648
V12	V	-4.070769	0.301860	0.210352
O13	O	-4.372759	-0.288572	-0.348379
O14	O	-3.872759	0.211428	0.151621
O15	O	-4.743048	-0.136024	-0.249308
O16	O	-4.243048	0.363976	0.250692
O17	O	-4.340826	0.023414	-0.273944
O18	O	-3.840826	0.523414	0.226056
O19	O	-4.759847	-0.434423	-0.314031
O20	O	-4.259847	0.065577	0.185969
O21	O	-4.708645	-0.208294	-0.425313
O22	O	-4.208645	0.291706	0.074687
O23	O	-4.391676	-0.201160	-0.163428
O24	O	-3.891676	0.298840	0.336572
C25	C	-3.959852	-0.502006	-0.323479
C26	C	-3.459852	-0.002006	0.176521
C27	C	-4.046675	-0.683132	-0.337160
C28	C	-3.546675	-0.183132	0.162840
C29	C	-3.894986	-0.215537	-0.464452
C30	C	-3.394986	0.284463	0.035548
C31	C	-3.940567	-0.214534	-0.567755
C32	C	-3.440567	0.285466	-0.067755
C33	C	-4.107394	-0.210866	-0.946031
C34	C	-3.607394	0.289134	-0.446031
C35	C	-4.060969	-0.211887	-0.840783
C36	C	-3.560969	0.288113	-0.340783
C37	C	-4.023982	-0.212701	-0.756897
C38	C	-3.523982	0.287299	-0.256897
C39	C	-3.977554	-0.213719	-0.651642
C40	C	-3.477554	0.286281	-0.151642
C41	C	-4.145895	0.077401	-0.274206
C42	C	-3.645895	0.577401	0.225794
C43	C	-4.038311	0.258526	-0.260531
C44	C	-3.538311	0.758526	0.239469
C45	C	-4.210760	-0.209064	-0.133230
C46	C	-3.710760	0.290936	0.366770
C47	C	-4.144416	-0.210059	-0.029926
C48	C	-3.644416	0.289941	0.470074
H49	H	-3.964735	-0.652848	-0.184458
H50	H	-3.464735	-0.152848	0.315542
C51	C	-4.369769	-0.909879	-0.457488
C52	C	-3.869769	-0.409879	0.042512
C53	C	-4.146005	-0.802755	-0.439854
C54	C	-3.646005	-0.302755	0.060146
H55	H	-4.431086	-0.983742	-0.520886
H56	H	-3.931086	-0.483742	-0.020886
H57	H	-4.453840	-0.847831	-0.452303
H58	H	-3.953840	-0.347831	0.047697
H59	H	-4.376126	-0.970736	-0.411239
H60	H	-3.876126	-0.470736	0.088761
H61	H	-4.139649	-0.741889	-0.486099
H62	H	-3.639649	-0.241889	0.013901
H63	H	-4.061912	-0.864811	-0.445048
H64	H	-3.561912	-0.364811	0.054952
