data_functionalizedCrystal
_audit_creation_method	'MofGen! by Chris Wilmer'
_symmetry_space_group_name_H-M	'P1'
_symmetry_Int_Tables_number	1
_symmetry_cell_setting	triclinic
loop_
_symmetry_equiv_pos_as_xyz
  x,y,z
_cell_length_a	17.699083
_cell_length_b	17.699083
_cell_length_c	16.776229
_cell_angle_alpha	90.007545
_cell_angle_beta	90.001114
_cell_angle_gamma	83.283015
loop_
_atom_site_label
_atom_site_type_symbol
_atom_site_fract_x
_atom_site_fract_y
_atom_site_fract_z
O1	O	-1.004078	-0.095713	-0.066178
O2	O	-0.504078	0.404287	0.433822
O3	O	-0.783700	-0.108165	-0.066204
O4	O	-0.283700	0.391835	0.433796
O5	O	-0.900116	0.008250	-0.066183
O6	O	-0.400116	0.508250	0.433817
O7	O	-0.887663	-0.212128	-0.066199
O8	O	-0.387663	0.287872	0.433801
O9	O	-0.900100	0.008257	0.066393
O10	O	-0.400100	0.508257	0.566393
O11	O	-0.783685	-0.108158	0.066372
O12	O	-0.283685	0.391842	0.566372
O13	O	-1.004063	-0.095706	0.066398
O14	O	-0.504063	0.404294	0.566398
Zn15	Zn	-0.893871	-0.101931	0.087435
Zn16	Zn	-0.393871	0.398069	0.587435
Zn17	Zn	-0.893892	-0.101940	-0.087241
Zn18	Zn	-0.393892	0.398060	0.412759
O19	O	-0.887648	-0.212121	0.066378
O20	O	-0.387648	0.287879	0.566378
C21	C	-0.755495	-0.107716	0.000081
C22	C	-0.255495	0.392284	0.500081
C23	C	-0.671477	-0.106377	0.000071
C24	C	-0.171477	0.393623	0.500071
C25	C	-0.899662	0.036451	0.000105
C26	C	-0.399662	0.536451	0.500105
C27	C	-0.898323	0.120469	0.000105
C28	C	-0.398323	0.620469	0.500105
C29	C	-1.032268	-0.096156	0.000112
C30	C	-0.532268	0.403844	0.500112
C31	C	-1.116286	-0.097494	0.000116
C32	C	-0.616286	0.402506	0.500116
C33	C	-0.622856	-0.174710	0.000066
C34	C	-0.122856	0.325290	0.500066
C35	C	-0.543913	-0.173448	0.000077
C36	C	-0.043913	0.326552	0.500077
C37	C	-0.513592	-0.103852	0.000086
C38	C	-0.013592	0.396148	0.500086
C39	C	-0.562219	-0.035513	0.000093
C40	C	-0.062219	0.464487	0.500093
C41	C	-0.641161	-0.036776	0.000088
C42	C	-0.141161	0.463224	0.500088
C43	C	-0.243856	-0.030418	0.000113
C44	C	0.256144	0.469582	0.500113
C45	C	-0.164908	-0.029160	0.000115
C46	C	0.335092	0.470840	0.500115
C47	C	-0.146608	-0.167090	0.000101
C48	C	0.353392	0.332910	0.500101
C49	C	-0.225550	-0.168353	0.000097
C50	C	0.274450	0.331647	0.500097
C51	C	-0.274170	-0.100015	0.000108
C52	C	0.225830	0.399985	0.500108
C53	C	-0.359769	-0.101384	0.000098
C54	C	0.140231	0.398616	0.500098
C55	C	-0.427995	-0.102481	0.000090
C56	C	0.072005	0.397519	0.500090
C57	C	-0.888102	-0.240322	0.000087
C58	C	-0.388102	0.259678	0.500087
C59	C	-0.889440	-0.324340	0.000082
C60	C	-0.389440	0.175660	0.500082
N61	N	-0.893863	-0.101924	0.206646
N62	N	-0.393863	0.398076	0.706646
C63	C	-0.966656	0.169090	0.000114
C64	C	-0.466656	0.669090	0.500114
C65	C	-0.965394	0.248033	0.000107
C66	C	-0.465394	0.748033	0.500107
C67	C	-0.895798	0.278354	0.000096
C68	C	-0.395798	0.778354	0.500096
C69	C	-0.827459	0.229727	0.000085
C70	C	-0.327459	0.729727	0.500085
C71	C	-0.828722	0.150785	0.000086
C72	C	-0.328722	0.650785	0.500086
C73	C	-0.822364	0.548090	0.000078
C74	C	-0.322364	1.048090	0.500078
C75	C	-0.821106	0.627038	0.000078
C76	C	-0.321106	1.127038	0.500078
C77	C	-0.959036	0.645338	0.000099
C78	C	-0.459036	1.145338	0.500099
C79	C	-0.960299	0.566396	0.000100
C80	C	-0.460299	1.066396	0.500100
C81	C	-0.891961	0.517776	0.000084
C82	C	-0.391961	1.017776	0.500084
C83	C	-0.893330	0.432177	0.000090
C84	C	-0.393330	0.932177	0.500090
C85	C	-0.894427	0.363951	0.000096
C86	C	-0.394427	0.863951	0.500096
N87	N	-0.893906	-0.101941	-0.206452
N88	N	-0.393906	0.398059	0.293548
C89	C	-0.945428	-0.050396	0.248372
C90	C	-0.445428	0.449604	0.748372
C91	C	-0.945432	-0.050396	0.331824
C92	C	-0.445432	0.449604	0.831824
C93	C	-0.893875	-0.101927	0.373549
C94	C	-0.393875	0.398073	0.873549
C95	C	-0.842305	-0.153457	0.331817
C96	C	-0.342305	0.346543	0.831817
C97	C	-0.842297	-0.153454	0.248366
C98	C	-0.342297	0.346546	0.748366
C99	C	-0.842332	-0.153472	0.668364
C100	C	-0.342332	0.346528	1.168364
C101	C	-0.842345	-0.153473	0.751820
C102	C	-0.342345	0.346527	1.251820
C103	C	-0.945466	-0.050414	0.751822
C104	C	-0.445466	0.449586	1.251822
C105	C	-0.945459	-0.050411	0.668372
C106	C	-0.445459	0.449589	1.168372
C107	C	-0.893887	-0.101938	0.626647
C108	C	-0.393887	0.398062	1.126647
C109	C	-0.893882	-0.101937	0.536158
C110	C	-0.393882	0.398063	1.036158
C111	C	-0.893882	-0.101932	0.464036
C112	C	-0.393882	0.398068	0.964036
H113	H	-0.647537	-0.231384	0.000058
H114	H	-0.147537	0.268616	0.500058
Cl115	Cl	-0.742813	0.089661	0.000071
Cl116	Cl	-0.242813	0.589661	0.500071
Cl117	Cl	-1.054154	0.130980	0.000136
Cl118	Cl	-0.554154	0.630980	0.500136
Cl119	Cl	-0.739966	0.267844	0.000061
Cl120	Cl	-0.239966	0.767844	0.500061
Cl121	Cl	-0.524102	0.051980	0.000109
Cl122	Cl	-0.024102	0.551980	0.500109
H123	H	-0.987419	-0.008438	0.365798
H124	H	-0.487419	0.491562	0.865798
H125	H	-0.250232	-0.225025	0.000085
H126	H	0.249768	0.274975	0.500085
Cl127	Cl	-1.010250	0.014386	0.195928
Cl128	Cl	-0.510250	0.514386	0.695928
Cl129	Cl	-1.010278	0.014371	0.615921
Cl130	Cl	-0.510278	0.514371	1.115921
Cl131	Cl	-0.733606	0.665153	0.000063
Cl132	Cl	-0.233606	1.165153	0.500063
Cl133	Cl	-0.482792	-0.259357	0.000066
Cl134	Cl	0.017208	0.240643	0.500066
H135	H	-0.987457	-0.008456	0.785804
H136	H	-0.487457	0.491544	1.285804
H137	H	-0.800358	-0.195437	0.785791
H138	H	-0.300358	0.304563	1.285791
H139	H	-0.107012	-0.222734	0.000097
H140	H	0.392988	0.277266	0.500097
H141	H	-0.800342	-0.195428	0.634398
H142	H	-0.300342	0.304572	1.134398
H143	H	-1.021038	0.287618	0.000116
H144	H	-0.521038	0.787618	0.500116
H145	H	-0.140225	0.027517	0.000124
H146	H	0.359775	0.527517	0.500124
Cl147	Cl	-1.047795	0.528283	0.000111
Cl148	Cl	-0.547795	1.028283	0.500111
H149	H	-0.800322	-0.195412	0.365793
H150	H	-0.300322	0.304588	0.865793
H151	H	-0.800308	-0.195412	0.214393
H152	H	-0.300308	0.304588	0.714393
H153	H	-0.766718	0.508512	0.000065
H154	H	-0.266718	1.008512	0.500065
Cl155	Cl	-1.044948	0.706465	0.000115
Cl156	Cl	-0.544948	1.206465	0.500115
Cl157	Cl	-0.304969	0.055494	0.000126
Cl158	Cl	0.195031	0.555494	0.500126
H159	H	-0.680748	0.018868	0.000091
H160	H	-0.180748	0.518868	0.500091
