data_functionalizedCrystal
_audit_creation_method	'MofGen! by Chris Wilmer'
_symmetry_space_group_name_H-M	'P1'
_symmetry_Int_Tables_number	1
_symmetry_cell_setting	triclinic
loop_
_symmetry_equiv_pos_as_xyz
  x,y,z
_cell_length_a	16.120530
_cell_length_b	12.645330
_cell_length_c	16.120256
_cell_angle_alpha	92.878509
_cell_angle_beta	90.128265
_cell_angle_gamma	87.113442
loop_
_atom_site_label
_atom_site_type_symbol
_atom_site_fract_x
_atom_site_fract_y
_atom_site_fract_z
Zn1	Zn	1.247481	-0.537102	-0.534597
Zn2	Zn	1.497481	-0.287102	-0.284597
Zn3	Zn	1.747481	-0.037102	-0.034597
Zn4	Zn	1.997481	0.212898	0.215403
Zn5	Zn	1.254445	-0.705858	-0.395549
Zn6	Zn	1.504445	-0.455858	-0.145549
Zn7	Zn	1.754445	-0.205858	0.104451
Zn8	Zn	2.004445	0.044142	0.354451
Zn9	Zn	1.115470	-0.519182	-0.388514
Zn10	Zn	1.365470	-0.269182	-0.138514
Zn11	Zn	1.615470	-0.019182	0.111486
Zn12	Zn	1.865470	0.230818	0.361486
Zn13	Zn	1.108401	-0.704887	-0.527519
Zn14	Zn	1.358401	-0.454887	-0.277519
Zn15	Zn	1.608401	-0.204887	-0.027519
Zn16	Zn	1.858401	0.045113	0.222481
O17	O	1.181449	-0.616757	-0.461545
O18	O	1.431449	-0.366757	-0.211545
O19	O	1.681449	-0.116757	0.038455
O20	O	1.931449	0.133243	0.288455
O21	O	1.364772	-0.567393	-0.522059
O22	O	1.614772	-0.317393	-0.272059
O23	O	1.864772	-0.067393	-0.022059
O24	O	2.114772	0.182607	0.227941
O25	O	1.241883	-0.674002	-0.278249
O26	O	1.491883	-0.424002	-0.028249
O27	O	1.741883	-0.174002	0.221751
O28	O	1.991883	0.075998	0.471751
O29	O	1.133026	-0.373216	-0.407910
O30	O	1.383026	-0.123216	-0.157910
O31	O	1.633026	0.126784	0.092090
O32	O	1.883026	0.376784	0.342090
O33	O	1.369888	-0.691378	-0.419901
O34	O	1.619888	-0.441378	-0.169901
O35	O	1.869888	-0.191378	0.080099
O36	O	2.119888	0.058622	0.330099
O37	O	1.230014	-0.386381	-0.515237
O38	O	1.480014	-0.136381	-0.265237
O39	O	1.730014	0.113619	-0.015237
O40	O	1.980014	0.363619	0.234763
O41	O	1.139778	-0.536852	-0.273081
O42	O	1.389778	-0.286852	-0.023081
O43	O	1.639778	-0.036852	0.226919
O44	O	1.889778	0.213148	0.476919
O45	O	0.998166	-0.535910	-0.401046
O46	O	1.248166	-0.285910	-0.151046
O47	O	1.498166	-0.035910	0.098954
O48	O	1.748166	0.214090	0.348954
O49	O	1.120978	-0.689723	-0.644824
O50	O	1.370978	-0.439723	-0.394824
O51	O	1.620978	-0.189723	-0.144824
O52	O	1.870978	0.060277	0.105176
O53	O	0.992972	-0.672347	-0.503173
O54	O	1.242972	-0.422347	-0.253173
O55	O	1.492972	-0.172347	-0.003173
O56	O	1.742972	0.077653	0.246827
O57	O	1.223159	-0.566452	-0.650025
O58	O	1.473159	-0.316452	-0.400025
O59	O	1.723159	-0.066452	-0.150025
O60	O	1.973159	0.183548	0.099975
O61	O	1.235028	-0.854073	-0.413037
O62	O	1.485028	-0.604073	-0.163037
O63	O	1.735028	-0.354073	0.086963
O64	O	1.985028	-0.104073	0.336963
O65	O	1.127730	-0.853359	-0.509994
O66	O	1.377730	-0.603359	-0.259994
O67	O	1.627730	-0.353359	-0.009994
O68	O	1.877730	-0.103359	0.240006
C69	C	0.965396	-0.602080	-0.450579
C70	C	1.215396	-0.352080	-0.200579
C71	C	1.465396	-0.102080	0.049421
C72	C	1.715396	0.147920	0.299421
C73	C	0.872967	-0.595827	-0.445907
C74	C	1.122967	-0.345827	-0.195907
C75	C	1.372967	-0.095827	0.054093
C76	C	1.622967	0.154173	0.304093
C77	C	0.703736	-0.584388	-0.437385
C78	C	0.953736	-0.334388	-0.187385
C79	C	1.203736	-0.084388	0.062615
C80	C	1.453736	0.165612	0.312615
C81	C	0.660000	-0.649209	-0.485765
C82	C	0.910000	-0.399209	-0.235765
C83	C	1.160000	-0.149209	0.014235
C84	C	1.410000	0.100791	0.264235
C85	C	0.565834	-0.642844	-0.481024
C86	C	0.815834	-0.392844	-0.231024
C87	C	1.065834	-0.142844	0.018976
C88	C	1.315834	0.107156	0.268976
C89	C	0.797911	-0.590751	-0.442125
C90	C	1.047911	-0.340751	-0.192125
C91	C	1.297911	-0.090751	0.057875
C92	C	1.547911	0.159249	0.307875
C93	C	1.181389	-0.892182	-0.461530
C94	C	1.431389	-0.642182	-0.211530
C95	C	1.681389	-0.392182	0.038470
C96	C	1.931389	-0.142182	0.288470
C97	C	1.181438	-1.010017	-0.461555
C98	C	1.431438	-0.760017	-0.211555
C99	C	1.681438	-0.510017	0.038445
C100	C	1.931438	-0.260017	0.288445
C101	C	1.114192	-1.177206	-0.522763
C102	C	1.364192	-0.927206	-0.272763
C103	C	1.614192	-0.677206	-0.022763
C104	C	1.864192	-0.427206	0.227237
C105	C	1.113875	-1.054612	-0.522539
C106	C	1.363875	-0.804612	-0.272539
C107	C	1.613875	-0.554612	-0.022539
C108	C	1.863875	-0.304612	0.227461
C109	C	1.162161	-1.047628	-0.372718
C110	C	1.412161	-0.797628	-0.122718
C111	C	1.662161	-0.547628	0.127282
C112	C	1.912161	-0.297628	0.377282
C113	C	1.161750	-1.170224	-0.373090
C114	C	1.411750	-0.920224	-0.123090
C115	C	1.661750	-0.670224	0.126910
C116	C	1.911750	-0.420224	0.376910
C117	C	1.268390	-1.184460	-0.488494
C118	C	1.518390	-0.934460	-0.238494
C119	C	1.768390	-0.684460	0.011506
C120	C	2.018390	-0.434460	0.261506
C121	C	1.267753	-1.061934	-0.490383
C122	C	1.517753	-0.811934	-0.240383
C123	C	1.767753	-0.561934	0.009617
C124	C	2.017753	-0.311934	0.259617
C125	C	1.398346	-0.631493	-0.472554
C126	C	1.648346	-0.381493	-0.222554
C127	C	1.898346	-0.131493	0.027446
C128	C	2.148346	0.118507	0.277446
C129	C	1.490775	-0.637772	-0.477246
C130	C	1.740775	-0.387772	-0.227246
C131	C	1.990775	-0.137772	0.022754
C132	C	2.240775	0.112228	0.272754
C133	C	1.170503	-0.629978	-0.678441
C134	C	1.420503	-0.379978	-0.428441
C135	C	1.670503	-0.129978	-0.178441
C136	C	1.920503	0.120022	0.071559
C137	C	1.165839	-0.635612	-0.770869
C138	C	1.415839	-0.385612	-0.520869
C139	C	1.665839	-0.135612	-0.270869
C140	C	1.915839	0.114388	-0.020869
C141	C	1.181532	-0.340259	-0.461579
C142	C	1.431532	-0.090259	-0.211579
C143	C	1.681532	0.159741	0.038421
C144	C	1.931532	0.409741	0.288421
C145	C	1.181566	-0.222433	-0.461593
C146	C	1.431566	0.027567	-0.211593
C147	C	1.681566	0.277567	0.038407
C148	C	1.931566	0.527567	0.288407
C149	C	1.205774	-0.587350	-0.983850
C150	C	1.455774	-0.337350	-0.733850
C151	C	1.705774	-0.087350	-0.483850
C152	C	1.955774	0.162650	-0.233850
C153	C	1.157294	-0.645852	-0.940089
C154	C	1.407294	-0.395852	-0.690089
C155	C	1.657294	-0.145852	-0.440089
C156	C	1.907294	0.104148	-0.190089
C157	C	1.162050	-0.640153	-0.845926
C158	C	1.412050	-0.390153	-0.595926
C159	C	1.662050	-0.140153	-0.345926
C160	C	1.912050	0.109847	-0.095926
C161	C	1.201019	-0.593048	-1.078022
C162	C	1.451019	-0.343048	-0.828022
C163	C	1.701019	-0.093048	-0.578022
C164	C	1.951019	0.156952	-0.328022
C165	C	1.192401	-0.603515	-0.245495
C166	C	1.442401	-0.353515	0.004505
C167	C	1.692401	-0.103515	0.254505
C168	C	1.942401	0.146485	0.504505
C169	C	1.197227	-0.597593	-0.153076
C170	C	1.447227	-0.347593	0.096924
C171	C	1.697227	-0.097593	0.346924
C172	C	1.947227	0.152407	0.596924
H173	H	0.693277	-0.709483	-0.530748
H174	H	0.943277	-0.459483	-0.280748
H175	H	1.193277	-0.209483	-0.030748
H176	H	1.443277	0.040517	0.219252
H177	H	0.670461	-0.524118	-0.392407
H178	H	0.920461	-0.274118	-0.142407
H179	H	1.170461	-0.024118	0.107593
H180	H	1.420461	0.225882	0.357593
H181	H	1.125591	-1.211613	-0.588702
H182	H	1.375591	-0.961613	-0.338702
H183	H	1.625591	-0.711613	-0.088702
H184	H	1.875591	-0.461613	0.161298
H185	H	1.112214	-0.700211	-0.973343
H186	H	1.362214	-0.450211	-0.723343
H187	H	1.612214	-0.200211	-0.473343
H188	H	1.862214	0.049789	-0.223343
H189	H	1.250847	-0.532990	-0.950598
H190	H	1.500847	-0.282990	-0.700598
H191	H	1.750847	-0.032990	-0.450598
H192	H	2.000847	0.217010	-0.200598
F193	F	1.030464	-1.210693	-0.499299
F194	F	1.280464	-0.960693	-0.249299
F195	F	1.530464	-0.710693	0.000701
F196	F	1.780464	-0.460693	0.250701
F197	F	1.128965	-1.021719	-0.608457
F198	F	1.378965	-0.771719	-0.358457
F199	F	1.628965	-0.521719	-0.108457
F200	F	1.878965	-0.271719	0.141543
H201	H	1.049419	-1.020042	-0.504366
H202	H	1.299419	-0.770042	-0.254366
H203	H	1.549419	-0.520042	-0.004366
H204	H	1.799419	-0.270042	0.245634
F205	F	1.078966	-1.200504	-0.343980
F206	F	1.328966	-0.950504	-0.093980
F207	F	1.578966	-0.700504	0.156020
F208	F	1.828966	-0.450504	0.406020
F209	F	1.223416	-1.208974	-0.311169
F210	F	1.473416	-0.958974	-0.061169
F211	F	1.723416	-0.708974	0.188831
F212	F	1.973416	-0.458974	0.438831
H213	H	1.209874	-1.018514	-0.325701
H214	H	1.459874	-0.768514	-0.075701
H215	H	1.709874	-0.518514	0.174299
H216	H	1.959874	-0.268514	0.424299
H217	H	1.099512	-1.011514	-0.350138
H218	H	1.349512	-0.761514	-0.100138
H219	H	1.599512	-0.511514	0.149862
H220	H	1.849512	-0.261514	0.399862
H221	H	1.282371	-1.037952	-0.555784
H222	H	1.532371	-0.787952	-0.305784
H223	H	1.782371	-0.537952	-0.055784
H224	H	2.032371	-0.287952	0.194216
F225	F	1.292511	-1.231727	-0.572034
F226	F	1.542511	-0.981727	-0.322034
F227	F	1.792511	-0.731727	-0.072034
F228	F	2.042511	-0.481727	0.177966
H229	H	1.320237	-1.032027	-0.449428
H230	H	1.570237	-0.782027	-0.199428
H231	H	1.820237	-0.532027	0.050572
H232	H	2.070237	-0.282027	0.300572
F233	F	1.333930	-1.222841	-0.430343
F234	F	1.583930	-0.972841	-0.180343
F235	F	1.833930	-0.722841	0.069657
F236	F	2.083930	-0.472841	0.319657
