data_functionalizedCrystal
_audit_creation_method	'MofGen! by Chris Wilmer'
_symmetry_space_group_name_H-M	'P1'
_symmetry_Int_Tables_number	1
_symmetry_cell_setting	triclinic
loop_
_symmetry_equiv_pos_as_xyz
  x,y,z
_cell_length_a	10.654541
_cell_length_b	16.109301
_cell_length_c	14.586319
_cell_angle_alpha	90.005214
_cell_angle_beta	90.002163
_cell_angle_gamma	83.972705
loop_
_atom_site_label
_atom_site_type_symbol
_atom_site_fract_x
_atom_site_fract_y
_atom_site_fract_z
O1	O	-1.666258	-0.116763	-0.076216
O2	O	-1.300628	-0.127891	-0.076224
O3	O	-1.493487	-0.001356	-0.076210
O4	O	-1.473399	-0.243298	-0.076229
O5	O	-1.493474	-0.001354	0.076271
O6	O	-1.300615	-0.127889	0.076257
O7	O	-1.666245	-0.116761	0.076265
Cu8	Cu	-1.483429	-0.122325	0.090184
Cu9	Cu	-1.483444	-0.122327	-0.090142
O10	O	-1.473386	-0.243297	0.076252
C11	C	-1.253835	-0.127073	0.000016
C12	C	-1.114424	-0.124630	0.000013
C13	C	-1.492667	0.029625	0.000031
C14	C	-1.490227	0.121935	0.000032
C15	C	-1.713038	-0.117579	0.000024
C16	C	-1.852449	-0.120022	0.000021
C17	C	-1.084401	-0.275937	-0.000011
C18	C	-1.003896	-0.350439	-0.000026
C19	C	-0.872909	-0.348139	-0.000027
C20	C	-0.822426	-0.271327	-0.000009
C21	C	-0.902931	-0.196825	0.000006
C22	C	-1.033919	-0.199134	0.000004
C23	C	-0.932954	-0.045520	0.000036
C24	C	-1.063941	-0.047819	0.000030
C25	C	-0.882471	0.031291	0.000053
C26	C	-0.962976	0.105795	0.000062
C27	C	-1.093970	0.103491	0.000062
C28	C	-1.144446	0.026683	0.000045
C29	C	-1.474206	-0.274277	0.000009
C30	C	-1.476646	-0.366587	0.000001
N31	N	-1.483427	-0.122323	0.217016
C32	C	-1.598994	0.343561	0.000020
C33	C	-1.596692	0.430295	0.000012
C34	C	-1.367871	0.411780	0.000011
C35	C	-1.370174	0.325047	0.000012
C36	C	-1.485739	0.290941	0.000021
C37	C	-1.481134	0.464407	0.000012
C38	C	-1.478637	0.558448	0.000004
C39	C	-1.488237	0.196894	0.000028
N40	N	-1.483456	-0.122323	-0.216974
C41	C	-1.568853	-0.066312	0.452028
C42	C	-1.568857	-0.066310	0.548009
C43	C	-1.398021	-0.178336	0.548007
C44	C	-1.398012	-0.178334	0.452027
C45	C	-1.483435	-0.122323	0.404040
C46	C	-1.483448	-0.122323	0.596001
C47	C	-1.483451	-0.122322	0.700068
C48	C	-1.483431	-0.122323	0.299967
H49	H	-1.045014	-0.412978	-0.000038
H50	H	-1.638408	-0.020704	0.412960
N51	N	-1.661004	-0.005910	0.599765
H52	H	-1.646587	0.053191	0.583070
H53	H	-1.750074	-0.016119	0.583025
H54	H	-1.191055	-0.277818	-0.000030
N55	N	-1.305907	-0.238749	0.599773
H56	H	-1.320342	-0.297845	0.583058
H57	H	-1.216822	-0.228557	0.583063
H58	H	-1.688915	0.473136	0.000009
N59	N	-1.243228	0.448564	0.000017
H60	H	-1.193611	0.429420	-0.056507
H61	H	-1.259054	0.511487	0.000056
H62	H	-1.693094	0.315794	0.000026
N63	N	-0.786070	-0.428491	-0.000021
H64	H	-0.837920	-0.477500	-0.000025
H65	H	-0.731064	-0.430834	-0.056544
H66	H	-0.715768	-0.269461	0.000001
H67	H	-0.775813	0.033159	0.000058
N68	N	-0.908529	0.188633	0.000095
H69	H	-0.813335	0.178786	0.000102
H70	H	-0.937970	0.221277	-0.056425
N71	N	-1.248016	0.268284	0.000006
H72	H	-1.174456	0.303050	0.000007
H73	H	-1.243986	0.231898	0.056532
N74	N	-1.180798	0.183849	0.000089
H75	H	-1.128936	0.232852	0.000102
H76	H	-1.235804	0.186200	-0.056437
N77	N	-1.285723	0.024199	0.000041
H78	H	-1.305483	-0.035763	0.000029
H79	H	-1.323071	0.053380	0.056576
H80	H	-1.328449	-0.223944	0.412953
