data_functionalizedCrystal
_audit_creation_method	'MofGen! by Chris Wilmer'
_symmetry_space_group_name_H-M	'P1'
_symmetry_Int_Tables_number	1
_symmetry_cell_setting	triclinic
loop_
_symmetry_equiv_pos_as_xyz
  x,y,z
_cell_length_a	14.971486
_cell_length_b	14.971486
_cell_length_c	13.448316
_cell_angle_alpha	90.002892
_cell_angle_beta	89.999959
_cell_angle_gamma	83.614129
loop_
_atom_site_label
_atom_site_type_symbol
_atom_site_fract_x
_atom_site_fract_y
_atom_site_fract_z
O1	O	-1.186946	-0.116560	-0.082578
O2	O	-0.686946	0.383440	0.417422
O3	O	-0.926545	-0.130519	-0.082605
O4	O	-0.426545	0.369481	0.417395
O5	O	-1.063725	0.006661	-0.082584
O6	O	-0.563725	0.506661	0.417416
O7	O	-1.049766	-0.253739	-0.082599
O8	O	-0.549766	0.246261	0.417401
O9	O	-1.063711	0.006659	0.082800
O10	O	-0.563711	0.506659	0.582800
O11	O	-0.926532	-0.130520	0.082779
O12	O	-0.426532	0.369480	0.582779
O13	O	-1.186932	-0.116561	0.082806
O14	O	-0.686932	0.383439	0.582806
Cu15	Cu	-1.056731	-0.123541	0.097893
Cu16	Cu	-0.556731	0.376459	0.597893
Cu17	Cu	-1.056747	-0.123539	-0.097692
Cu18	Cu	-0.556747	0.376461	0.402308
O19	O	-1.049753	-0.253741	0.082784
O20	O	-0.549753	0.246259	0.582784
C21	C	-0.893214	-0.129895	0.000083
C22	C	-0.393214	0.370105	0.500083
C23	C	-0.793917	-0.128024	0.000073
C24	C	-0.293917	0.371976	0.500073
C25	C	-1.063094	0.039985	0.000108
C26	C	-0.563094	0.539985	0.500108
C27	C	-1.061223	0.139282	0.000107
C28	C	-0.561223	0.639282	0.500107
C29	C	-1.220263	-0.117185	0.000115
C30	C	-0.720263	0.382815	0.500115
C31	C	-1.319561	-0.119056	0.000119
C32	C	-0.819561	0.380944	0.500119
N33	N	-1.056726	-0.123541	0.235457
N34	N	-0.556726	0.376459	0.735457
C35	C	-0.736692	-0.208614	0.000070
C36	C	-0.236692	0.291386	0.500070
C37	C	-0.643392	-0.206850	0.000085
C38	C	-0.143392	0.293150	0.500085
C39	C	-0.607320	-0.124497	0.000096
C40	C	-0.107320	0.375503	0.500096
C41	C	-0.664552	-0.043902	0.000102
C42	C	-0.164552	0.456098	0.500102
C43	C	-0.757850	-0.045666	0.000095
C44	C	-0.257850	0.454334	0.500095
C45	C	-0.470090	-0.040231	0.000116
C46	C	0.029910	0.459769	0.500116
C47	C	-0.376786	-0.038466	0.000122
C48	C	0.123214	0.461534	0.500122
C49	C	-0.355632	-0.201415	0.000106
C50	C	0.144368	0.298585	0.500106
C51	C	-0.448930	-0.203179	0.000099
C52	C	0.051070	0.296821	0.500099
C53	C	-0.506156	-0.122584	0.000103
C54	C	-0.006156	0.377416	0.500103
C55	C	-1.050384	-0.287065	0.000091
C56	C	-0.550384	0.212935	0.500091
C57	C	-1.052254	-0.386362	0.000085
C58	C	-0.552254	0.113638	0.500085
C59	C	-1.141812	0.196507	0.000116
C60	C	-0.641812	0.696507	0.500116
C61	C	-1.140049	0.289807	0.000106
C62	C	-0.640049	0.789807	0.500106
C63	C	-1.057696	0.325879	0.000093
C64	C	-0.557696	0.825879	0.500093
C65	C	-0.977101	0.268646	0.000081
C66	C	-0.477101	0.768646	0.500081
C67	C	-0.978865	0.175349	0.000084
C68	C	-0.478865	0.675349	0.500084
C69	C	-0.973430	0.463109	0.000077
C70	C	-0.473430	0.963109	0.500077
C71	C	-0.971665	0.556413	0.000076
C72	C	-0.471665	1.056413	0.500076
C73	C	-1.134614	0.577567	0.000099
C74	C	-0.634614	1.077567	0.500099
C75	C	-1.136378	0.484269	0.000102
C76	C	-0.636378	0.984269	0.500102
C77	C	-1.055782	0.427043	0.000091
C78	C	-0.555782	0.927043	0.500091
N79	N	-1.056759	-0.123532	-0.235257
N80	N	-0.556759	0.376468	0.264743
C81	C	-1.002456	-0.069191	0.712702
C82	C	-0.502456	0.430809	1.212702
C83	C	-1.002453	-0.069188	0.608599
C84	C	-0.502453	0.430812	1.108599
C85	C	-1.056748	-0.123532	0.556539
C86	C	-0.556748	0.376468	1.056539
C87	C	-1.111057	-0.177874	0.608587
C88	C	-0.611057	0.322126	1.108587
C89	C	-1.111064	-0.177871	0.712688
C90	C	-0.611064	0.322129	1.212688
C91	C	-1.111036	-0.177878	0.391607
C92	C	-0.611036	0.322122	0.891607
C93	C	-1.111028	-0.177882	0.287498
C94	C	-0.611028	0.322118	0.787498
C95	C	-1.002426	-0.069194	0.287518
C96	C	-0.502426	0.430806	0.787518
C97	C	-1.002433	-0.069192	0.391619
C98	C	-0.502433	0.430808	0.891619
C99	C	-1.056740	-0.123536	0.443660
C100	C	-0.556740	0.376464	0.943660
H101	H	-0.766054	-0.275675	0.000060
H102	H	-0.266054	0.224325	0.500060
H103	H	-1.155261	-0.222128	0.433975
H104	H	-0.655261	0.277872	0.933975
C105	C	-0.580448	-0.295505	0.000099
C106	C	-0.080448	0.204495	0.500099
N107	N	-0.533038	-0.362284	0.000117
N108	N	-0.033038	0.137716	0.500117
C109	C	-1.226971	0.444592	0.000120
C110	C	-0.726971	0.944592	0.500120
N111	N	-1.295207	0.414707	0.000131
N112	N	-0.795207	0.914707	0.500131
H113	H	-0.913240	0.128756	0.000077
H114	H	-0.413240	0.628756	0.500077
H115	H	-1.155283	-0.222121	0.755059
H116	H	-0.655283	0.277879	1.255059
H117	H	-0.478296	-0.270239	0.000080
H118	H	0.021704	0.229761	0.500080
H119	H	-1.200238	0.624165	0.000104
H120	H	-0.700238	1.124165	0.500104
H121	H	-0.309033	-0.267039	0.000107
H122	H	0.190967	0.232961	0.500107
C123	C	-0.942713	-0.009413	0.551359
C124	C	-0.442713	0.490587	1.051359
N125	N	-0.897712	0.035611	0.508246
N126	N	-0.397712	0.535611	1.008246
C127	C	-0.337109	0.052126	0.000136
C128	C	0.162891	0.552126	0.500136
N129	N	-0.307224	0.120362	0.000147
N130	N	0.192776	0.620362	0.500147
H131	H	-0.958217	-0.024945	0.434004
H132	H	-0.458217	0.475055	0.934004
H133	H	-0.635175	0.023152	0.000126
H134	H	-0.135175	0.523152	0.500126
C135	C	-0.881072	0.596090	0.000050
C136	C	-0.381072	1.096090	0.500050
N137	N	-0.812837	0.625975	0.000027
N138	N	-0.312837	1.125975	0.500027
C139	C	-0.884769	0.400162	0.000071
C140	C	-0.384769	0.900162	0.500071
N141	N	-0.817992	0.352750	0.000074
N142	N	-0.317992	0.852750	0.500074
C143	C	-0.942726	-0.009409	0.769959
C144	C	-0.442726	0.490591	1.269959
N145	N	-0.897738	0.035624	0.813083
N146	N	-0.397738	0.535624	1.313083
C147	C	-0.942616	-0.009486	0.230271
C148	C	-0.442616	0.490514	0.730271
N149	N	-0.897541	0.035456	0.187148
N150	N	-0.397541	0.535456	0.687148
H151	H	-1.155237	-0.222136	0.245113
H152	H	-0.655237	0.277864	0.745113
H153	H	-1.155269	-0.222117	0.566191
H154	H	-0.655269	0.277883	1.066191
H155	H	-1.205673	0.336396	0.000115
H156	H	-0.705673	0.836396	0.500115
H157	H	-0.804443	0.019958	0.000097
H158	H	-0.304443	0.519958	0.500097
C159	C	-0.533037	0.048429	0.000117
C160	C	-0.033037	0.548429	0.500117
N161	N	-0.580449	0.115207	0.000112
N162	N	-0.080449	0.615207	0.500112
H163	H	-1.208874	0.167145	0.000132
H164	H	-0.708874	0.667145	0.500132
H165	H	-0.910047	0.298024	0.000065
H166	H	-0.410047	0.798024	0.500065
