data_functionalizedCrystal
_audit_creation_method	'MofGen! by Chris Wilmer'
_symmetry_space_group_name_H-M	'P1'
_symmetry_Int_Tables_number	1
_symmetry_cell_setting	triclinic
loop_
_symmetry_equiv_pos_as_xyz
  x,y,z
_cell_length_a	15.944557
_cell_length_b	19.188930
_cell_length_c	14.421503
_cell_angle_alpha	90.000837
_cell_angle_beta	90.005783
_cell_angle_gamma	83.323075
loop_
_atom_site_label
_atom_site_type_symbol
_atom_site_fract_x
_atom_site_fract_y
_atom_site_fract_z
O1	O	-1.114189	-0.090060	-0.077082
O2	O	-0.614189	0.409940	0.422918
O3	O	-0.869599	-0.101157	-0.077094
O4	O	-0.369599	0.398843	0.422906
O5	O	-0.998952	0.006029	-0.077070
O6	O	-0.498952	0.506029	0.422930
O7	O	-0.984835	-0.197246	-0.077107
O8	O	-0.484835	0.302754	0.422893
O9	O	-0.998931	0.006013	0.077153
O10	O	-0.498931	0.506013	0.577153
O11	O	-0.869577	-0.101173	0.077129
O12	O	-0.369577	0.398827	0.577129
O13	O	-1.114168	-0.090076	0.077141
O14	O	-0.614168	0.409924	0.577141
Cu15	Cu	-0.991870	-0.095626	0.091217
Cu16	Cu	-0.491870	0.404374	0.591217
Cu17	Cu	-0.991896	-0.095607	-0.091170
Cu18	Cu	-0.491896	0.404393	0.408830
O19	O	-0.984814	-0.197261	0.077117
O20	O	-0.484814	0.302739	0.577117
C21	C	-0.838296	-0.100703	0.000016
C22	C	-0.338296	0.399297	0.500016
C23	C	-0.745055	-0.099320	0.000012
C24	C	-0.245055	0.400680	0.500012
C25	C	-0.474688	-0.028744	0.000040
C26	C	0.025312	0.471256	0.500040
C27	C	-0.525132	-0.062775	0.076075
C28	C	-0.025132	0.437225	0.576075
C29	C	-0.409432	-0.094386	0.000035
C30	C	0.090568	0.405614	0.500035
C31	C	-0.525133	-0.062777	-0.075977
C32	C	-0.025133	0.437223	0.424023
C33	C	-0.574335	-0.096806	0.000022
C34	C	-0.074335	0.403194	0.500022
C35	C	-0.458647	-0.128399	0.076133
C36	C	0.041353	0.371601	0.576133
C37	C	-0.458645	-0.128391	-0.075987
C38	C	0.041355	0.371609	0.424013
C39	C	-0.509056	-0.162470	0.000067
C40	C	-0.009056	0.337530	0.500067
C41	C	-0.314435	-0.092989	0.000043
C42	C	0.185565	0.407011	0.500043
C43	C	-0.669329	-0.098208	0.000021
C44	C	-0.169329	0.401792	0.500021
C45	C	-0.998484	0.032033	0.000044
C46	C	-0.498484	0.532033	0.500044
C47	C	-0.997112	0.109541	0.000052
C48	C	-0.497112	0.609541	0.500052
C49	C	-0.145472	-0.090520	0.000033
C50	C	0.354528	0.409480	0.500033
C51	C	-0.238717	-0.091875	0.000044
C52	C	0.261283	0.408125	0.500044
C53	C	-0.985282	-0.223266	0.000000
C54	C	-0.485282	0.276734	0.500000
C55	C	-0.986654	-0.300774	-0.000014
C56	C	-0.486654	0.199226	0.499986
C57	C	-1.073012	0.154268	0.000060
C58	C	-0.573012	0.654268	0.500060
C59	C	-1.071723	0.227095	0.000045
C60	C	-0.571723	0.727095	0.500045
C61	C	-0.994529	0.255192	0.000041
C62	C	-0.494529	0.755192	0.500041
C63	C	-0.918619	0.210456	0.000028
C64	C	-0.418619	0.710456	0.500028
C65	C	-0.919910	0.137631	0.000033
C66	C	-0.419910	0.637631	0.500033
N67	N	-0.935516	0.363346	0.052523
N68	N	-0.435516	0.863346	0.552523
N69	N	-0.934295	0.432527	0.052520
N70	N	-0.434295	0.932527	0.552520
C71	C	-0.990634	0.474611	0.000022
C72	C	-0.490634	0.974611	0.500022
N73	N	-1.048253	0.444901	-0.052461
N74	N	-0.548253	0.944901	0.447539
N75	N	-1.049477	0.375713	-0.052453
N76	N	-0.549477	0.875713	0.447547
C77	C	-0.993120	0.334159	0.000034
C78	C	-0.493120	0.834159	0.500034
C79	C	-1.065141	0.598305	0.000013
C80	C	-0.565141	1.098305	0.500013
C81	C	-1.063849	0.671134	-0.000008
C82	C	-0.563849	1.171134	0.499992
C83	C	-0.910742	0.654494	-0.000016
C84	C	-0.410742	1.154494	0.499984
C85	C	-0.912037	0.581667	-0.000005
C86	C	-0.412037	1.081667	0.499995
C87	C	-0.989239	0.553578	0.000014
C88	C	-0.489239	1.053578	0.500014
N89	N	-0.991859	-0.095639	0.219498
N90	N	-0.491859	0.404361	0.719498
N91	N	-0.991914	-0.095588	-0.219451
N92	N	-0.491914	0.404412	0.280549
C93	C	-0.932035	-0.145179	0.469140
C94	C	-0.432035	0.354821	0.969140
C95	C	-1.007884	-0.158735	0.530944
C96	C	-0.507884	0.341265	1.030944
C97	C	-0.991879	-0.095622	0.408659
C98	C	-0.491879	0.404378	0.908659
C99	C	-0.916050	-0.082082	0.530950
C100	C	-0.416050	0.417918	1.030950
C101	C	-0.991892	-0.095607	0.591381
C102	C	-0.491892	0.404393	1.091381
C103	C	-1.067766	-0.109210	0.469102
C104	C	-0.567766	0.390790	0.969102
C105	C	-0.975882	-0.032529	0.469103
C106	C	-0.475882	0.467471	0.969103
C107	C	-1.051786	-0.046058	0.530878
C108	C	-0.551786	0.453942	1.030878
C109	C	-0.991870	-0.095632	0.303398
C110	C	-0.491870	0.404368	0.803398
C111	C	-0.991910	-0.095597	0.696640
C112	C	-0.491910	0.404403	1.196640
H113	H	-0.524336	-0.219048	0.000101
H114	H	-0.024336	0.280952	0.500101
H115	H	-1.133532	0.263518	0.000048
H116	H	-0.633532	0.763518	0.500048
O117	O	-1.118895	0.009468	0.566569
O118	O	-0.618895	0.509468	1.066569
H119	H	-1.118062	0.009384	0.643528
H120	H	-0.618062	0.509384	1.143528
H121	H	-0.855767	0.233338	0.000022
H122	H	-0.355767	0.733338	0.500022
H123	H	-0.429604	-0.156082	-0.140282
H124	H	0.070396	0.343918	0.359718
H125	H	-0.554163	-0.035037	-0.140256
H126	H	-0.054163	0.464963	0.359744
H127	H	-0.881478	-0.187122	0.442033
H128	H	-0.381478	0.312878	0.942033
H129	H	-0.858101	0.101214	0.000027
H130	H	-0.358101	0.601214	0.500027
O131	O	-1.145720	0.719376	0.000010
O132	O	-0.645720	1.219376	0.500010
H133	H	-1.182696	0.709380	-0.062835
H134	H	-0.682696	1.209380	0.437165
H135	H	-0.962315	0.020805	0.441918
H136	H	-0.462315	0.520805	0.941918
H137	H	-1.135876	0.131402	0.000073
H138	H	-0.635876	0.631402	0.500073
O139	O	-0.827479	0.684786	-0.000017
O140	O	-0.327479	1.184786	0.499983
H141	H	-0.839331	0.742941	-0.000013
H142	H	-0.339331	1.242941	0.499987
H143	H	-0.459246	0.027790	0.000124
H144	H	0.040754	0.527790	0.500124
O145	O	-0.420342	-0.165100	0.161378
O146	O	0.079658	0.334900	0.661378
H147	H	-0.471018	-0.184379	0.203704
H148	H	0.028982	0.315621	0.703704
H149	H	-1.128004	0.575434	0.000024
H150	H	-0.628004	1.075434	0.500024
O151	O	-0.830173	0.533419	0.000009
O152	O	-0.330173	1.033419	0.500009
H153	H	-0.776276	0.565189	0.000015
H154	H	-0.276276	1.065189	0.500015
O155	O	-0.831103	-0.066910	0.566938
O156	O	-0.331103	0.433090	1.066938
H157	H	-0.781538	-0.108125	0.542202
H158	H	-0.281538	0.391875	1.042202
H159	H	-1.021427	-0.212086	0.558107
H160	H	-0.521427	0.287914	1.058107
O161	O	-1.152741	-0.124456	0.433283
O162	O	-0.652741	0.375544	0.933283
H163	H	-1.144638	-0.172835	0.390462
H164	H	-0.644638	0.327165	0.890462
O165	O	-0.563617	-0.026062	0.161219
O166	O	-0.063617	0.473938	0.661219
H167	H	-0.550177	0.029409	0.161066
H168	H	-0.050177	0.529409	0.661066
