data_functionalizedCrystal
_audit_creation_method	'MofGen! by Chris Wilmer'
_symmetry_space_group_name_H-M	'P1'
_symmetry_Int_Tables_number	1
_symmetry_cell_setting	triclinic
loop_
_symmetry_equiv_pos_as_xyz
  x,y,z
_cell_length_a	14.519731
_cell_length_b	12.996460
_cell_length_c	10.654550
_cell_angle_alpha	89.994020
_cell_angle_beta	95.913108
_cell_angle_gamma	90.005673
loop_
_atom_site_label
_atom_site_type_symbol
_atom_site_fract_x
_atom_site_fract_y
_atom_site_fract_z
O1	O	1.224711	0.085569	-0.164753
O2	O	1.558044	0.418902	0.168580
O3	O	1.891378	0.752235	0.501914
O4	O	0.956337	0.085570	-0.184111
O5	O	1.289670	0.418904	0.149222
O6	O	1.623004	0.752237	0.482555
O7	O	1.096694	0.085563	0.008366
O8	O	1.430028	0.418896	0.341699
O9	O	1.763361	0.752230	0.675032
O10	O	1.084354	0.085576	-0.357230
O11	O	1.417687	0.418909	-0.023897
O12	O	1.751020	0.752243	0.309437
O13	O	1.096680	-0.085571	0.008376
O14	O	1.430013	0.247763	0.341710
O15	O	1.763346	0.581096	0.675043
O16	O	0.956322	-0.085563	-0.184101
O17	O	1.289656	0.247770	0.149233
O18	O	1.622989	0.581103	0.482566
O19	O	1.224696	-0.085565	-0.164742
O20	O	1.558029	0.247768	0.168591
O21	O	1.891363	0.581102	0.501924
Cu22	Cu	1.090508	-0.101190	-0.174421
Cu23	Cu	1.423841	0.232143	0.158913
Cu24	Cu	1.757174	0.565477	0.492246
Cu25	Cu	1.090525	0.101195	-0.174433
Cu26	Cu	1.423859	0.434529	0.158900
Cu27	Cu	1.757192	0.767862	0.492234
O28	O	1.084339	-0.085558	-0.357219
O29	O	1.417672	0.247776	-0.023886
O30	O	1.751005	0.581109	0.309447
C31	C	0.921965	0.000004	-0.183199
C32	C	1.255299	0.333337	0.150134
C33	C	1.588632	0.666670	0.483468
C34	C	0.819571	0.000004	-0.180481
C35	C	1.152904	0.333337	0.152852
C36	C	1.486238	0.666671	0.486186
C37	C	0.736416	0.000008	-0.178272
C38	C	1.069749	0.333341	0.155061
C39	C	1.403082	0.666675	0.488394
C40	C	0.632093	0.000008	-0.175513
C41	C	0.965426	0.333342	0.157821
C42	C	1.298759	0.666675	0.491154
C43	C	0.548942	0.000008	-0.173322
C44	C	0.882275	0.333342	0.160011
C45	C	1.215609	0.666675	0.493344
C46	C	0.444612	0.000010	-0.170563
C47	C	0.777946	0.333344	0.162770
C48	C	1.111279	0.666677	0.496104
N49	N	1.090502	-0.243537	-0.174411
N50	N	1.423836	0.089796	0.158922
N51	N	1.757169	0.423129	0.492256
C52	C	1.090524	-0.663352	-0.174434
C53	C	1.423857	-0.330018	0.158899
C54	C	1.757191	0.003315	0.492232
C55	C	1.090515	-0.546546	-0.174432
C56	C	1.423849	-0.213213	0.158901
C57	C	1.757182	0.120120	0.492235
C58	C	1.090514	-0.453448	-0.174424
C59	C	1.423847	-0.120115	0.158910
C60	C	1.757180	0.213219	0.492243
C61	C	1.090504	-0.336636	-0.174419
C62	C	1.423837	-0.003302	0.158914
C63	C	1.757171	0.330031	0.492247
C64	C	1.259068	0.000004	-0.165655
C65	C	1.592401	0.333337	0.167679
C66	C	1.925734	0.666671	0.501012
C67	C	1.361462	0.000010	-0.168373
C68	C	1.694795	0.333344	0.164961
C69	C	2.028129	0.666677	0.498294
C70	C	1.095781	-0.000003	0.055160
C71	C	1.429114	0.333330	0.388494
C72	C	1.762448	0.666663	0.721827
C73	C	1.093070	-0.000002	0.194578
C74	C	1.426403	0.333332	0.527911
C75	C	1.759736	0.666665	0.861245
N76	N	1.090538	0.243543	-0.174433
N77	N	1.423871	0.576876	0.158900
N78	N	1.757205	0.910209	0.492234
C79	C	1.085252	0.000011	-0.404014
C80	C	1.418586	0.333344	-0.070681
C81	C	1.751919	0.666678	0.262653
C82	C	1.087963	0.000016	-0.543432
C83	C	1.421297	0.333349	-0.210098
C84	C	1.754630	0.666683	0.123235
C85	C	1.175710	-0.000002	0.274850
C86	C	1.509043	0.333332	0.608183
C87	C	1.842377	0.666665	0.941516
C88	C	1.173157	0.000011	0.405846
C89	C	1.506491	0.333344	0.739179
C90	C	1.839824	0.666677	1.072513
C91	C	1.005317	0.000019	0.376286
C92	C	1.338650	0.333353	0.709620
C93	C	1.671983	0.666686	1.042953
C94	C	1.007871	0.000014	0.245293
C95	C	1.341204	0.333347	0.578626
C96	C	1.674537	0.666681	0.911959
H97	H	1.245085	-0.000012	0.233562
H98	H	1.578418	0.333321	0.566896
H99	H	1.911751	0.666654	0.900229
H100	H	0.940571	0.000017	0.179931
H101	H	1.273904	0.333350	0.513265
H102	H	1.607237	0.666684	0.846598
F103	F	1.261115	0.000013	0.491272
F104	F	1.594448	0.333346	0.824606
F105	F	1.927781	0.666679	1.157939
F106	F	0.914647	0.000036	0.430272
F107	F	1.247980	0.333370	0.763606
F108	F	1.581313	0.666703	1.096939
