data_functionalizedCrystal
_audit_creation_method	'MofGen! by Chris Wilmer'
_symmetry_space_group_name_H-M	'P1'
_symmetry_Int_Tables_number	1
_symmetry_cell_setting	triclinic
loop_
_symmetry_equiv_pos_as_xyz
  x,y,z
_cell_length_a	19.805407
_cell_length_b	12.759393
_cell_length_c	19.805405
_cell_angle_alpha	89.962372
_cell_angle_beta	90.023727
_cell_angle_gamma	89.979138
loop_
_atom_site_label
_atom_site_type_symbol
_atom_site_fract_x
_atom_site_fract_y
_atom_site_fract_z
Zn1	Zn	1.034756	-0.594003	-0.269472
Zn2	Zn	1.034665	-0.418305	-0.382677
Zn3	Zn	0.921565	-0.418335	-0.269502
Zn4	Zn	0.921534	-0.593939	-0.382619
O5	O	0.978130	-0.506146	-0.326067
O6	O	1.129461	-0.570711	-0.284500
O7	O	1.019636	-0.271288	-0.367700
O8	O	0.936631	-0.441678	-0.174781
O9	O	1.129394	-0.441626	-0.367671
O10	O	1.019792	-0.570740	-0.174759
O11	O	0.936542	-0.271310	-0.284551
O12	O	0.826844	-0.441616	-0.284495
O13	O	0.936579	-0.740969	-0.367573
O14	O	0.826822	-0.570631	-0.367602
O15	O	1.019762	-0.741016	-0.284444
O16	O	1.019607	-0.441563	-0.477385
O17	O	0.936490	-0.570601	-0.477343
C18	C	0.802274	-0.506120	-0.326046
C19	C	0.727042	-0.506134	-0.326053
C20	C	0.691733	-0.573451	-0.282823
C21	C	0.621045	-0.573455	-0.282826
C22	C	0.585666	-0.506147	-0.326064
C23	C	0.620980	-0.438823	-0.369297
C24	C	0.691667	-0.438814	-0.369289
C25	C	0.335907	-0.438855	-0.369327
C26	C	0.265215	-0.438871	-0.369333
C27	C	0.265284	-0.573496	-0.282864
C28	C	0.335972	-0.573487	-0.282857
C29	C	0.371279	-0.506160	-0.326086
C30	C	0.447927	-0.506155	-0.326081
C31	C	0.509019	-0.506156	-0.326073
C32	C	0.978177	-0.780179	-0.325999
C33	C	0.978198	-0.896956	-0.325970
C34	C	1.021517	-0.951844	-0.282681
C35	C	1.021533	-1.061568	-0.282656
C36	C	0.934908	-1.061506	-0.369216
C37	C	0.934889	-0.951784	-0.369236
C38	C	1.064826	-0.897016	-0.239414
C39	C	1.108149	-0.951905	-0.196122
C40	C	1.108165	-1.061629	-0.196097
C41	C	1.064858	-1.116464	-0.239365
C42	C	1.154673	-0.506172	-0.326089
C43	C	1.229905	-0.506183	-0.326098
C44	C	0.978054	-0.506095	-0.501923
C45	C	0.978083	-0.506108	-0.577155
C46	C	0.978122	-0.233178	-0.326086
C47	C	0.978233	-0.116402	-0.325925
C48	C	1.021404	-0.438989	-0.612499
C49	C	1.021433	-0.439012	-0.683187
C50	C	0.978137	-0.506150	-0.718531
C51	C	0.934814	-0.573277	-0.683182
C52	C	0.934789	-0.573258	-0.612495
C53	C	0.934914	-0.573355	-0.968255
C54	C	0.934941	-0.573366	-1.038947
C55	C	1.021557	-0.439108	-1.038948
C56	C	1.021533	-0.439090	-0.968261
C57	C	0.978213	-0.506220	-0.932918
C58	C	0.978183	-0.506196	-0.856270
C59	C	0.978163	-0.506170	-0.795178
C60	C	0.978225	-0.506220	-0.149524
C61	C	0.978265	-0.506251	-0.074292
H62	H	1.064819	-0.807673	-0.239430
C63	C	0.374260	-0.646604	-0.235837
C64	C	0.328208	-0.705539	-0.197963
C65	C	0.363453	-0.772893	-0.154633
H66	H	0.401844	-0.692397	-0.261683
H67	H	0.401817	-0.606514	-0.206277
H68	H	0.300662	-0.745627	-0.227519
H69	H	0.300622	-0.659773	-0.172103
H70	H	0.391010	-0.732803	-0.125073
H71	H	0.391035	-0.818679	-0.180485
H72	H	0.332212	-0.812881	-0.128926
H73	H	0.236411	-0.384057	-0.404544
C74	C	0.374112	-0.365722	-0.416337
C75	C	0.327997	-0.306803	-0.454216
C76	C	0.363170	-0.239428	-0.497537
H77	H	0.401682	-0.319919	-0.390483
H78	H	0.401677	-0.405796	-0.445893
H79	H	0.300444	-0.266732	-0.424664
H80	H	0.300426	-0.352578	-0.480084
H81	H	0.390735	-0.279502	-0.527093
H82	H	0.390739	-0.193632	-0.471677
H83	H	0.331887	-0.199450	-0.523247
H84	H	0.899565	-0.627947	-0.711964
H85	H	1.064867	-1.205809	-0.239334
H86	H	1.143405	-0.907250	-0.160890
H87	H	0.592300	-0.628273	-0.247625
C88	C	0.887848	-0.892372	-0.416327
C89	C	0.849948	-0.963870	-0.454237
C90	C	0.806617	-0.909178	-0.497635
H91	H	0.858300	-0.849563	-0.390527
H92	H	0.913716	-0.849591	-0.445860
H93	H	0.824082	-1.006633	-0.424708
H94	H	0.879478	-1.006681	-0.480050
H95	H	0.832485	-0.866397	-0.527168
H96	H	0.777074	-0.866371	-0.471830
H97	H	0.780901	-0.957680	-0.523367
H98	H	0.899514	-0.627915	-0.583719
C99	C	1.068586	-0.366365	-1.077443
C100	C	1.059365	-0.380777	-1.146913
C101	C	1.102684	-0.313803	-1.182393
H102	H	1.058754	-0.295708	-1.065992
H103	H	1.114063	-0.381829	-1.065844
H104	H	1.013898	-0.365304	-1.158507
H105	H	1.069201	-0.451419	-1.158383
H106	H	1.148162	-0.329267	-1.170794
H107	H	1.092849	-0.243150	-1.170937
H108	H	1.096439	-0.323579	-1.229532
C109	C	1.068485	-0.366051	-0.574251
C110	C	1.106442	-0.307296	-0.620337
C111	C	1.149828	-0.240104	-0.585131
H112	H	1.042675	-0.320136	-0.546719
H113	H	1.097989	-0.406250	-0.546646
H114	H	1.076941	-0.267100	-0.647931
H115	H	1.132266	-0.353182	-0.647871
H116	H	1.179332	-0.280303	-0.557526
H117	H	1.124012	-0.194197	-0.557600
H118	H	1.175591	-0.200238	-0.616395
H119	H	0.720534	-0.628264	-0.247615
C120	C	1.068502	-0.366027	-0.929976
C121	C	1.053821	-0.262060	-0.947248
C122	C	1.097084	-0.194729	-0.912002
H123	H	1.062326	-0.375485	-0.882805
H124	H	1.113989	-0.381410	-0.941532
H125	H	1.008345	-0.246682	-0.935687
H126	H	1.060001	-0.252569	-0.994413
H127	H	1.142571	-0.210112	-0.923559
H128	H	1.090905	-0.204196	-0.864833
H129	H	1.087133	-0.124181	-0.923721
H130	H	0.236529	-0.628313	-0.247662
H131	H	1.056708	-0.384356	-0.711961
H132	H	0.899685	-0.628046	-1.067722
C133	C	0.887797	-0.646259	-0.930011
C134	C	0.849869	-0.705028	-0.976096
C135	C	0.806445	-0.772185	-0.940888
H136	H	0.913578	-0.692166	-0.902387
H137	H	0.858275	-0.606035	-0.902498
H138	H	0.879387	-0.745250	-1.003598
H139	H	0.824074	-0.659149	-1.003722
H140	H	0.776924	-0.731961	-0.913374
H141	H	0.832233	-0.818085	-0.913264
H142	H	0.780702	-0.812061	-0.972150
C143	C	1.155272	-1.121034	-0.149069
C144	C	1.193204	-1.049529	-0.111197
C145	C	1.236616	-1.104212	-0.067875
H146	H	1.129481	-1.163851	-0.119503
H147	H	1.184791	-1.163806	-0.174943
H148	H	1.163689	-1.006775	-0.085325
H149	H	1.219009	-1.006710	-0.140745
H150	H	1.266135	-1.146984	-0.093749
H151	H	1.210820	-1.147028	-0.038314
H152	H	1.262362	-1.055705	-0.042178
H153	H	0.899649	-1.106162	-0.404442
H154	H	0.592169	-0.384014	-0.404499
H155	H	0.720414	-0.383997	-0.404492
