data_functionalizedCrystal
_audit_creation_method	'MofGen! by Chris Wilmer'
_symmetry_space_group_name_H-M	'P1'
_symmetry_Int_Tables_number	1
_symmetry_cell_setting	triclinic
loop_
_symmetry_equiv_pos_as_xyz
  x,y,z
_cell_length_a	14.044220
_cell_length_b	14.519709
_cell_length_c	13.596369
_cell_angle_alpha	89.999709
_cell_angle_beta	89.993157
_cell_angle_gamma	91.565489
loop_
_atom_site_label
_atom_site_type_symbol
_atom_site_fract_x
_atom_site_fract_y
_atom_site_fract_z
O1	O	0.124273	-1.233892	-0.081665
O2	O	0.457606	-0.900559	0.251668
O3	O	0.790939	-0.567226	0.585002
O4	O	0.138907	-0.966596	-0.081695
O5	O	0.472240	-0.633262	0.251638
O6	O	0.805574	-0.299929	0.584971
O7	O	-0.006402	-1.096232	-0.081671
O8	O	0.326932	-0.762899	0.251662
O9	O	0.660265	-0.429565	0.584996
O10	O	0.269581	-1.104256	-0.081690
O11	O	0.602915	-0.770923	0.251644
O12	O	0.936248	-0.437589	0.584977
O13	O	-0.006409	-1.096217	0.081912
O14	O	0.326924	-0.762884	0.415245
O15	O	0.660257	-0.429551	0.748579
O16	O	0.138899	-0.966581	0.081887
O17	O	0.472233	-0.633248	0.415221
O18	O	0.805566	-0.299914	0.748554
O19	O	0.124265	-1.233878	0.081918
O20	O	0.457598	-0.900544	0.415251
O21	O	0.790932	-0.567211	0.748584
Zn22	Zn	0.131581	-1.100227	0.107875
Zn23	Zn	0.464914	-0.766894	0.441208
Zn24	Zn	0.798248	-0.433560	0.774542
Zn25	Zn	0.131591	-1.100246	-0.107653
Zn26	Zn	0.464924	-0.766913	0.225681
Zn27	Zn	0.798258	-0.433580	0.559014
O28	O	0.269574	-1.104241	0.081893
O29	O	0.602907	-0.770908	0.415227
O30	O	0.936240	-0.437575	0.748560
C31	C	-0.041726	-1.092712	0.000120
C32	C	0.291608	-0.759379	0.333454
C33	C	0.624941	-0.426045	0.666787
C34	C	-0.146969	-1.082235	0.000120
C35	C	0.186364	-0.748902	0.333454
C36	C	0.519697	-0.415568	0.666787
C37	C	0.138221	-0.932174	0.000092
C38	C	0.471555	-0.598840	0.333426
C39	C	0.804888	-0.265507	0.666759
C40	C	0.136177	-0.829628	0.000081
C41	C	0.469511	-0.496294	0.333414
C42	C	0.802844	-0.162961	0.666748
C43	C	0.124951	-1.268300	0.000128
C44	C	0.458284	-0.934966	0.333461
C45	C	0.791617	-0.601633	0.666795
C46	C	0.126995	-1.370846	0.000133
C47	C	0.460328	-1.037512	0.333466
C48	C	0.793661	-0.704179	0.666799
C49	C	-0.339663	-1.063081	0.000104
C50	C	-0.006330	-0.729747	0.333437
C51	C	0.327004	-0.396414	0.666771
C52	C	-0.397170	-1.137389	0.000110
C53	C	-0.063837	-0.804055	0.333443
C54	C	0.269496	-0.470722	0.666776
C55	C	-0.504392	-1.126731	0.000101
C56	C	-0.171059	-0.793398	0.333434
C57	C	0.162275	-0.460064	0.666767
C58	C	-0.232432	-1.073737	0.000113
C59	C	0.100902	-0.740404	0.333447
C60	C	0.434235	-0.407070	0.666780
C61	C	0.304898	-1.107761	0.000100
C62	C	0.638231	-0.774428	0.333433
C63	C	0.971564	-0.441095	0.666766
C64	C	0.410141	-1.118238	0.000093
C65	C	0.743475	-0.784905	0.333427
C66	C	1.076808	-0.451572	0.666760
C67	C	0.128653	-0.454125	0.000126
C68	C	0.461987	-0.120791	0.333460
C69	C	0.795320	0.212542	0.666793
C70	C	0.130743	-0.558601	0.000113
C71	C	0.464076	-0.225268	0.333447
C72	C	0.797409	0.108065	0.666780
C73	C	0.132415	-0.641873	0.000103
C74	C	0.465749	-0.308540	0.333436
C75	C	0.799082	0.024794	0.666769
C76	C	0.134505	-0.746356	0.000092
C77	C	0.467838	-0.413023	0.333425
C78	C	0.801172	-0.079689	0.666758
N79	N	0.131573	-1.100220	0.254967
N80	N	0.464907	-0.766887	0.588300
N81	N	0.798240	-0.433554	0.921633
N82	N	0.131591	-1.100260	-0.254744
N83	N	0.464924	-0.766926	0.078589
N84	N	0.798258	-0.433593	0.411922
C85	C	0.131592	-1.100245	0.656258
C86	C	0.464925	-0.766912	0.989591
C87	C	0.798259	-0.433579	1.322924
C88	C	0.131590	-1.100236	0.544606
C89	C	0.464923	-0.766902	0.877940
C90	C	0.798257	-0.433569	1.211273
C91	C	0.131583	-1.100233	0.455616
C92	C	0.464917	-0.766900	0.788949
C93	C	0.798250	-0.433567	1.122282
C94	C	0.131580	-1.100223	0.343957
C95	C	0.464913	-0.766890	0.677291
C96	C	0.798247	-0.433556	1.010624
H97	H	-0.365878	-1.209010	0.000052
H98	H	-0.032545	-0.875677	0.333385
H99	H	0.300789	-0.542343	0.666718
C100	C	-0.351316	-0.918418	-0.083999
C101	C	-0.017983	-0.585085	0.249334
C102	C	0.315351	-0.251752	0.582667
C103	C	-0.381902	-0.966399	0.000094
C104	C	-0.048569	-0.633066	0.333427
C105	C	0.284764	-0.299733	0.666760
H106	H	-0.377408	-0.858735	-0.084004
H107	H	-0.044074	-0.525402	0.249329
H108	H	0.289259	-0.192069	0.582662
H109	H	-0.283766	-0.912984	-0.083988
H110	H	0.049568	-0.579651	0.249345
H111	H	0.382901	-0.246317	0.582679
H112	H	-0.372048	-0.950991	-0.141037
H113	H	-0.038714	-0.617658	0.192296
H114	H	0.294619	-0.284324	0.525630
H115	H	-0.361165	-0.933830	0.057132
H116	H	-0.027831	-0.600497	0.390465
H117	H	0.305502	-0.267163	0.723799
H118	H	-0.449467	-0.971830	0.000092
H119	H	-0.116134	-0.638496	0.333425
H120	H	0.217199	-0.305163	0.666758
