data_functionalizedCrystal
_audit_creation_method	'MofGen! by Chris Wilmer'
_symmetry_space_group_name_H-M	'P1'
_symmetry_Int_Tables_number	1
_symmetry_cell_setting	triclinic
loop_
_symmetry_equiv_pos_as_xyz
  x,y,z
_cell_length_a	18.050591
_cell_length_b	18.050589
_cell_length_c	18.215399
_cell_angle_alpha	90.023603
_cell_angle_beta	90.025700
_cell_angle_gamma	90.024227
loop_
_atom_site_label
_atom_site_type_symbol
_atom_site_fract_x
_atom_site_fract_y
_atom_site_fract_z
Zn1	Zn	1.135328	-0.295746	0.416253
Zn2	Zn	1.135228	-0.419941	0.293196
Zn3	Zn	1.011136	-0.295761	0.293188
Zn4	Zn	1.011095	-0.419890	0.416209
O5	O	1.073197	-0.357835	0.354712
O6	O	1.239239	-0.312236	0.399952
O7	O	1.118743	-0.403496	0.190211
O8	O	1.027670	-0.191834	0.309528
O9	O	1.239166	-0.403482	0.309542
O10	O	1.118912	-0.191824	0.399944
O11	O	1.027573	-0.312261	0.190205
O12	O	0.907206	-0.312212	0.309485
O13	O	1.027599	-0.403395	0.519199
O14	O	0.907176	-0.403409	0.399868
O15	O	1.118872	-0.312187	0.519232
O16	O	1.118702	-0.523859	0.309499
O17	O	1.027502	-0.523822	0.399876
C18	C	0.880245	-0.357807	0.354671
C19	C	0.797699	-0.357813	0.354671
C20	C	0.598243	-0.308162	0.305634
C21	C	0.548822	-0.375900	0.287528
C22	C	0.646568	-0.357836	0.354704
C23	C	0.548908	-0.290121	0.372808
C24	C	0.500583	-0.357851	0.354735
C25	C	0.598234	-0.425609	0.336563
C26	C	0.598325	-0.339784	0.421874
C27	C	0.548926	-0.407569	0.403794
C28	C	0.730667	-0.357825	0.354685
C29	C	0.416487	-0.357869	0.354755
C30	C	1.073107	-0.550787	0.354699
C31	C	1.073137	-0.633333	0.354719
C32	C	1.023591	-0.832790	0.403848
C33	C	1.005487	-0.882229	0.336692
C34	C	1.073210	-0.784463	0.354728
C35	C	1.091350	-0.882105	0.421892
C36	C	1.073279	-0.930448	0.354743
C37	C	1.055070	-0.832815	0.287537
C38	C	1.140964	-0.832687	0.372782
C39	C	1.122886	-0.882104	0.305579
C40	C	1.073168	-0.700365	0.354721
C41	C	1.073320	-1.014544	0.354744
C42	C	1.266902	-0.357863	0.354753
C43	C	1.349448	-0.357875	0.354770
C44	C	1.073242	-0.357783	0.546665
C45	C	1.073261	-0.357762	0.628463
C46	C	1.073307	-0.164129	0.354740
C47	C	1.073354	-0.081583	0.354752
C48	C	1.073194	-0.357832	0.163505
C49	C	1.073319	-0.357645	0.081707
C50	C	1.120804	-0.310225	0.816676
C51	C	1.120813	-0.310203	0.893535
C52	C	1.025771	-0.405183	0.893489
C53	C	1.025759	-0.405201	0.816632
C54	C	1.073280	-0.357723	0.778227
C55	C	1.073301	-0.357684	0.931943
C56	C	1.073310	-0.357660	1.015277
C57	C	1.073270	-0.357745	0.694888
H58	H	0.620085	-0.324484	0.478648
N59	N	0.977223	-0.453679	0.932709
N60	N	0.934785	-0.496075	0.898368
H61	H	0.900492	-0.530324	0.926064
N62	N	0.625295	-0.497472	0.317268
N63	N	0.608888	-0.525234	0.256519
H64	H	0.628000	-0.575986	0.242888
H65	H	0.619897	-0.266201	0.264092
N66	N	0.521922	-0.460318	0.455879
N67	N	0.538746	-0.454232	0.522182
H68	H	0.519672	-0.491487	0.558966
H69	H	1.164877	-0.903620	0.263999
N70	N	1.110572	-0.909283	0.493130
N71	N	1.114211	-0.977489	0.504395
H72	H	1.127782	-0.996683	0.554708
H73	H	0.527079	-0.391180	0.230737
N74	N	0.521725	-0.218273	0.391993
N75	N	0.537536	-0.163524	0.353026
H76	H	0.518340	-0.112779	0.366569
N77	N	0.977199	-0.453710	0.777353
N78	N	0.908675	-0.448770	0.785918
H79	H	0.874378	-0.483025	0.758178
H80	H	0.981568	-0.811136	0.445329
N81	N	1.169348	-0.261724	0.777457
N82	N	1.211776	-0.219319	0.811799
H83	H	1.246060	-0.185062	0.784104
H84	H	0.948222	-0.904006	0.321436
N85	N	1.035753	-0.805766	0.216277
N86	N	0.979778	-0.765827	0.208272
H87	H	0.966128	-0.746723	0.157947
N88	N	1.212788	-0.805375	0.391966
N89	N	1.240414	-0.821115	0.452930
H90	H	1.291140	-0.801826	0.466487
N91	N	1.169359	-0.261677	0.932797
N92	N	1.211779	-0.219290	0.898495
H93	H	1.246066	-0.185014	0.926224
