data_functionalizedCrystal
_audit_creation_method	'MofGen! by Chris Wilmer'
_symmetry_space_group_name_H-M	'P1'
_symmetry_Int_Tables_number	1
_symmetry_cell_setting	triclinic
loop_
_symmetry_equiv_pos_as_xyz
  x,y,z
_cell_length_a	14.853567
_cell_length_b	15.995350
_cell_length_c	13.930277
_cell_angle_alpha	89.997676
_cell_angle_beta	89.995755
_cell_angle_gamma	83.563653
loop_
_atom_site_label
_atom_site_type_symbol
_atom_site_fract_x
_atom_site_fract_y
_atom_site_fract_z
O1	O	1.196221	0.109317	-0.079760
O2	O	0.933744	0.122339	-0.079776
O3	O	1.072157	-0.006051	-0.079766
O4	O	1.057808	0.237707	-0.079769
O5	O	1.072138	-0.006054	0.079895
O6	O	0.933725	0.122336	0.079886
O7	O	1.196202	0.109314	0.079902
Zn8	Zn	1.064960	0.115825	0.105244
Zn9	Zn	1.064986	0.115828	-0.105117
O10	O	1.057788	0.237705	0.079893
C11	C	0.900146	0.121748	0.000053
C12	C	0.800065	0.119980	0.000047
C13	C	0.387644	0.036238	0.000069
C14	C	0.366158	0.188769	0.000067
C15	C	0.460189	0.190432	0.000064
C16	C	0.517953	0.114996	0.000062
C17	C	0.481685	0.037899	0.000063
C18	C	0.496464	0.267528	0.000053
C19	C	0.590501	0.269194	0.000048
C20	C	0.648266	0.193758	0.000054
C21	C	0.611993	0.116657	0.000056
C22	C	0.669757	0.041221	0.000054
C23	C	0.633485	-0.035880	0.000064
C24	C	0.539450	-0.037538	0.000069
C25	C	0.742302	0.195415	0.000049
C26	C	0.763797	0.042882	0.000048
C27	C	1.071555	-0.037248	0.000063
C28	C	1.069776	-0.130201	0.000057
C29	C	1.063389	-0.467956	0.000060
C30	C	0.964813	-0.420636	-0.000304
C31	C	0.966592	-0.323944	0.000056
C32	C	1.066557	-0.300391	0.000058
C33	C	1.115167	-0.341414	0.091234
C34	C	1.112691	-0.438052	0.091310
C35	C	1.114749	-0.438405	-0.090255
C36	C	1.114726	-0.341460	-0.091460
C37	C	1.068353	-0.205692	0.000060
C38	C	1.061596	-0.562655	0.000064
C39	C	1.229799	0.109906	0.000071
C40	C	1.329881	0.111674	0.000071
C41	C	1.058391	0.268901	0.000062
C42	C	1.060170	0.361854	0.000061
N43	N	1.064950	0.115822	0.248810
N44	N	1.065003	0.115825	-0.248684
C45	C	1.003694	0.172657	0.701075
C46	C	1.126302	0.058993	0.701053
C47	C	1.126292	0.058990	0.600557
C48	C	1.064982	0.115823	0.550316
C49	C	1.003683	0.172658	0.600570
C50	C	1.187595	0.002162	0.550295
C51	C	1.187588	0.002158	0.449793
C52	C	1.126273	0.058987	0.399550
C53	C	1.064971	0.115824	0.449811
C54	C	1.003661	0.172656	0.399569
C55	C	0.942354	0.229490	0.449828
C56	C	0.942368	0.229487	0.550327
C57	C	1.126259	0.058989	0.299051
C58	C	1.003651	0.172657	0.299064
H59	H	0.680529	-0.097299	0.000056
H60	H	0.925421	-0.439212	-0.065688
H61	H	0.925581	-0.440277	0.064711
C62	C	1.145869	-0.054918	0.814077
C63	C	1.193687	-0.003476	0.756280
H64	H	1.187471	-0.093489	0.848171
H65	H	1.109373	-0.021066	0.858382
H66	H	1.108345	-0.085099	0.774870
H67	H	1.231206	0.026710	0.795488
H68	H	1.230199	-0.037333	0.711970
C69	C	0.881821	-0.350996	0.141279
C70	C	0.914658	-0.286383	0.088442
H71	H	0.849766	-0.327806	0.195852
H72	H	0.842268	-0.379087	0.102233
H73	H	0.931164	-0.389906	0.161600
H74	H	0.865314	-0.247476	0.068115
H75	H	0.954212	-0.258278	0.127496
C76	C	0.887958	0.279964	0.704393
C77	C	0.874993	0.291962	0.605573
H78	H	0.846369	0.318539	0.738500
H79	H	0.878167	0.224073	0.720866
H80	H	0.948130	0.289158	0.720834
H81	H	0.814822	0.282763	0.589131
H82	H	0.884777	0.347867	0.589094
C83	C	1.207154	-0.111751	0.663316
C84	C	1.254977	-0.060306	0.605528
H85	H	1.248753	-0.150321	0.697415
H86	H	1.170650	-0.077901	0.707616
H87	H	1.169637	-0.141933	0.624102
H88	H	1.292489	-0.030119	0.644743
H89	H	1.291496	-0.094161	0.561223
H90	H	1.185063	-0.470216	0.095448
H91	H	0.358108	-0.026536	0.000081
H92	H	0.953776	0.218928	0.741998
C93	C	0.683793	0.359550	0.082100
C94	C	0.630378	0.353936	0.000032
H95	H	0.708418	0.411864	0.082083
H96	H	0.647553	0.355747	0.137771
H97	H	0.731645	0.314853	0.082094
H98	H	0.582522	0.398630	0.000042
H99	H	0.666620	0.357748	-0.055654
C100	C	0.404843	-0.107806	0.000064
C101	C	0.499578	-0.122282	0.000068
H102	H	0.380227	-0.160124	0.000056
H103	H	0.385021	-0.076750	0.055739
H104	H	0.385032	-0.076737	-0.055616
H105	H	0.519389	-0.153345	0.055753
H106	H	0.519408	-0.153351	-0.055613
C107	C	1.038616	-0.390641	0.237836
C108	C	1.064807	-0.462821	0.183307
H109	H	1.009048	-0.405930	0.294627
H110	H	1.090682	-0.364323	0.254492
H111	H	0.998343	-0.352723	0.201372
H112	H	1.105085	-0.500737	0.219768
H113	H	1.012733	-0.489152	0.166652
H114	H	0.953721	0.218934	0.258164
H115	H	1.176179	0.012720	0.258135
H116	H	0.771830	0.258190	0.000043
H117	H	0.319121	0.250185	0.000060
C118	C	0.882203	-0.349764	-0.141825
C119	C	0.914997	-0.285625	-0.088166
H120	H	0.850341	-0.326108	-0.196285
H121	H	0.931541	-0.388578	-0.162340
H122	H	0.842474	-0.378095	-0.103240
H123	H	0.954732	-0.257298	-0.126749
H124	H	0.865653	-0.246797	-0.067652
H125	H	1.188608	-0.327203	0.094626
C126	C	1.240415	-0.142741	0.419119
C127	C	1.254964	-0.060411	0.394672
H128	H	1.282005	-0.181395	0.385118
H129	H	1.249129	-0.150769	0.486177
H130	H	1.180244	-0.151896	0.402623
H131	H	1.315133	-0.051253	0.411174
H132	H	1.246258	-0.052379	0.327598
C133	C	0.775590	-0.108059	0.000048
C134	C	0.827288	-0.040041	0.000042
H135	H	0.814788	-0.159251	0.000038
H136	H	0.738472	-0.105536	0.055728
H137	H	0.738459	-0.105526	-0.055628
H138	H	0.864414	-0.042571	0.055722
H139	H	0.864422	-0.042566	-0.055644
C140	C	0.342775	0.332701	0.000079
C141	C	0.432971	0.350442	0.000061
H142	H	0.303576	0.383892	0.000093
H143	H	0.331781	0.301101	-0.055593
H144	H	0.331796	0.301088	0.055763
H145	H	0.443952	0.382050	-0.055626
H146	H	0.443970	0.382056	0.055739
C147	C	0.997695	-0.510227	-0.161089
C148	C	1.071251	-0.466173	-0.183549
H149	H	0.970832	-0.527363	-0.218682
H150	H	1.018162	-0.558391	-0.123876
H151	H	0.954200	-0.474795	-0.125490
H152	H	1.114750	-0.501606	-0.219142
H153	H	1.050786	-0.418001	-0.220778
H154	H	1.081389	-0.313073	0.159082
H155	H	1.079186	-0.314251	-0.158910
H156	H	1.187625	-0.326013	-0.096963
H157	H	1.187428	-0.470081	-0.090866
H158	H	0.892439	0.275767	0.408910
