data_functionalizedCrystal
_audit_creation_method	'MofGen! by Chris Wilmer'
_symmetry_space_group_name_H-M	'P1'
_symmetry_Int_Tables_number	1
_symmetry_cell_setting	triclinic
loop_
_symmetry_equiv_pos_as_xyz
  x,y,z
_cell_length_a	27.731993
_cell_length_b	26.210047
_cell_length_c	12.837942
_cell_angle_alpha	89.997217
_cell_angle_beta	91.275334
_cell_angle_gamma	90.004884
loop_
_atom_site_label
_atom_site_type_symbol
_atom_site_fract_x
_atom_site_fract_y
_atom_site_fract_z
O1	O	0.647046	0.042290	-0.122979
O2	O	0.980379	0.375624	0.210354
O3	O	1.313713	0.708957	0.543688
O4	O	0.507180	0.042321	-0.141778
O5	O	0.840514	0.375655	0.191555
O6	O	1.173847	0.708988	0.524888
O7	O	0.574012	0.042303	0.018473
O8	O	0.907345	0.375637	0.351806
O9	O	1.240679	0.708970	0.685140
O10	O	0.580215	0.042308	-0.283231
O11	O	0.913548	0.375642	0.050103
O12	O	1.246881	0.708975	0.383436
O13	O	0.573989	-0.042555	0.018473
O14	O	0.907322	0.290779	0.351806
O15	O	1.240655	0.624112	0.685140
O16	O	0.507157	-0.042537	-0.141779
O17	O	0.840490	0.290797	0.191555
O18	O	1.173824	0.624130	0.524888
O19	O	0.647023	-0.042568	-0.122979
O20	O	0.980356	0.290766	0.210354
O21	O	1.313689	0.624099	0.543688
Cu22	Cu	0.577088	-0.050300	-0.132379
Cu23	Cu	0.910421	0.283033	0.200955
Cu24	Cu	1.243754	0.616366	0.534288
Cu25	Cu	0.577115	0.050054	-0.132379
Cu26	Cu	0.910449	0.383387	0.200955
Cu27	Cu	1.243782	0.716721	0.534288
O28	O	0.580191	-0.042550	-0.283231
O29	O	0.913525	0.290784	0.050103
O30	O	1.246858	0.624117	0.383436
C31	C	0.489142	-0.000104	-0.141393
C32	C	0.822475	0.333230	0.191941
C33	C	1.155809	0.666563	0.525274
C34	C	0.435428	-0.000092	-0.140231
C35	C	0.768762	0.333241	0.193103
C36	C	1.102095	0.666575	0.526436
N37	N	0.577072	-0.120884	-0.132378
N38	N	0.910405	0.212449	0.200955
N39	N	1.243738	0.545782	0.534289
C40	C	0.051864	0.046139	-0.131808
C41	C	0.385197	0.379473	0.201526
C42	C	0.718530	0.712806	0.534859
C43	C	0.253740	0.046153	-0.136237
C44	C	0.587074	0.379487	0.197096
C45	C	0.920407	0.712820	0.530430
O46	O	0.279851	0.085493	-0.136768
O47	O	0.613184	0.418827	0.196565
O48	O	0.946517	0.752160	0.529898
N49	N	0.278975	-0.000102	-0.136791
N50	N	0.612309	0.333231	0.196542
N51	N	0.945642	0.666565	0.529875
C52	C	0.253738	-0.046364	-0.136231
C53	C	0.587071	0.286970	0.197102
C54	C	0.920405	0.620303	0.530435
O55	O	0.279834	-0.085706	-0.136794
O56	O	0.613168	0.247627	0.196540
O57	O	0.946501	0.580961	0.529873
C58	C	0.051862	-0.046377	-0.131795
C59	C	0.385196	0.286956	0.201539
C60	C	0.718529	0.620290	0.534872
C61	C	0.026630	-0.000119	-0.131251
C62	C	0.359963	0.333214	0.202082
C63	C	0.693296	0.666548	0.535416
C64	C	0.026631	0.092394	-0.131263
C65	C	0.359964	0.425727	0.202070
C66	C	0.693298	0.759060	0.535404
C67	C	-0.023835	0.092390	-0.130161
C68	C	0.309498	0.425723	0.203172
C69	C	0.642831	0.759056	0.536505
C70	C	-0.049069	0.046131	-0.129605
C71	C	0.284264	0.379465	0.203729
C72	C	0.617598	0.712798	0.537062
C73	C	-0.023836	-0.000123	-0.130149
C74	C	0.309497	0.333210	0.203184
C75	C	0.642830	0.666544	0.536517
C76	C	0.026626	-0.092638	-0.131227
C77	C	0.359959	0.240695	0.202106
C78	C	0.693293	0.574028	0.535440
C79	C	-0.023846	-0.092638	-0.130115
C80	C	0.309487	0.240696	0.203218
C81	C	0.642821	0.574029	0.536551
C82	C	-0.049078	-0.046380	-0.129572
C83	C	0.284255	0.286954	0.203762
C84	C	0.617588	0.620287	0.537095
C85	C	-0.099536	-0.046385	-0.128491
C86	C	0.233797	0.286948	0.204842
C87	C	0.567130	0.620282	0.538176
N88	N	-0.124771	-0.000130	-0.127937
N89	N	0.208562	0.333203	0.205397
N90	N	0.541895	0.666537	0.538730
C91	C	-0.099538	0.046128	-0.128494
C92	C	0.233796	0.379462	0.204840
C93	C	0.567129	0.712795	0.538173
C94	C	0.359726	-0.046353	-0.138563
C95	C	0.693059	0.286980	0.194771
C96	C	1.026393	0.620313	0.528104
C97	C	0.410195	-0.046350	-0.139674
C98	C	0.743528	0.286983	0.193659
C99	C	1.076861	0.620316	0.526993
C100	C	0.410193	0.046167	-0.139678
C101	C	0.743527	0.379500	0.193656
C102	C	1.076860	0.712834	0.526989
C103	C	0.359724	0.046163	-0.138574
C104	C	0.693057	0.379497	0.194759
C105	C	1.026390	0.712830	0.528093
C106	C	0.334491	-0.000098	-0.138009
C107	C	0.667824	0.333235	0.195325
C108	C	1.001158	0.666568	0.528658
C109	C	-0.205521	0.046116	-0.126181
C110	C	0.127813	0.379450	0.207152
C111	C	0.461146	0.712783	0.540486
C112	C	-0.255991	0.046108	-0.125084
C113	C	0.077342	0.379442	0.208250
C114	C	0.410675	0.712775	0.541583
C115	C	-0.255986	-0.046408	-0.125075
C116	C	0.077348	0.286925	0.208259
C117	C	0.410681	0.620258	0.541592
C118	C	-0.205519	-0.046401	-0.126177
C119	C	0.127814	0.286933	0.207156
C120	C	0.461147	0.620266	0.540489
C121	C	-0.180288	-0.000134	-0.126727
C122	C	0.153045	0.333199	0.206606
C123	C	0.486379	0.666533	0.539940
O124	O	-0.125678	-0.085705	-0.127948
O125	O	0.207656	0.247629	0.205386
O126	O	0.540989	0.580962	0.538719
O127	O	-0.125642	0.085465	-0.127908
O128	O	0.207691	0.418798	0.205425
O129	O	0.541024	0.752131	0.538759
C130	C	0.102330	0.046143	-0.132909
C131	C	0.435663	0.379477	0.200424
C132	C	0.768996	0.712810	0.533757
C133	C	0.127562	-0.000111	-0.133454
C134	C	0.460896	0.333222	0.199879
C135	C	0.794229	0.666556	0.533212
C136	C	0.102329	-0.046369	-0.132897
C137	C	0.435662	0.286964	0.200436
C138	C	0.768995	0.620297	0.533769
C139	C	0.178031	-0.000108	-0.134565
C140	C	0.511364	0.333225	0.198768
C141	C	0.844698	0.666559	0.532101
C142	C	0.203265	0.046150	-0.135122
C143	C	0.536598	0.379484	0.198211
C144	C	0.869931	0.712817	0.531545
C145	C	0.178030	0.092405	-0.134568
C146	C	0.511363	0.425739	0.198766
C147	C	0.844696	0.759072	0.532099
C148	C	0.127563	0.092402	-0.133466
C149	C	0.460897	0.425735	0.199867
C150	C	0.794230	0.759068	0.533200
C151	C	0.127564	-0.092624	-0.133452
C152	C	0.460897	0.240709	0.199882
C153	C	0.794230	0.574042	0.533215
C154	C	0.178030	-0.092617	-0.134554
C155	C	0.511363	0.240717	0.198779
C156	C	0.844697	0.574050	0.532112
C157	C	0.203264	-0.046358	-0.135111
C158	C	0.536597	0.286975	0.198222
C159	C	0.869930	0.620308	0.531555
C160	C	0.609298	-0.473404	-0.194747
C161	C	0.942632	-0.140071	0.138587
C162	C	1.275965	0.193263	0.471920
C163	C	0.609313	-0.687063	-0.194746
C164	C	0.942646	-0.353729	0.138588
C165	C	1.275979	-0.020396	0.471921
O166	O	0.636701	-0.714690	-0.247762
O167	O	0.970034	-0.381356	0.085571
O168	O	1.303368	-0.048023	0.418904
N169	N	0.577126	-0.713778	-0.132368
N170	N	0.910460	-0.380445	0.200965
N171	N	1.243793	-0.047112	0.534299
C172	C	0.544936	-0.687076	-0.069981
C173	C	0.878270	-0.353742	0.263352
C174	C	1.211603	-0.020409	0.596686
O175	O	0.517564	-0.714701	-0.016917
O176	O	0.850897	-0.381368	0.316416
O177	O	1.184231	-0.048035	0.649750
C178	C	0.544925	-0.473418	-0.069977
C179	C	0.878258	-0.140085	0.263356
C180	C	1.211592	0.193249	0.596689
C181	C	0.577110	-0.446705	-0.132367
C182	C	0.910443	-0.113372	0.200966
C183	C	1.243777	0.219961	0.534300
C184	C	0.641481	-0.446691	-0.257130
C185	C	0.974814	-0.113358	0.076203
C186	C	1.308148	0.219975	0.409536
C187	C	0.641475	-0.393280	-0.257134
C188	C	0.974809	-0.059947	0.076199
C189	C	1.308142	0.273387	0.409532
C190	C	0.609287	-0.366581	-0.194754
C191	C	0.942620	-0.033248	0.138579
C192	C	1.275954	0.300085	0.471912
C193	C	0.577104	-0.393294	-0.132371
C194	C	0.910438	-0.059961	0.200963
C195	C	1.243771	0.273373	0.534296
C196	C	0.512738	-0.446717	-0.007585
C197	C	0.846071	-0.113383	0.325748
C198	C	1.179404	0.219950	0.659081
C199	C	0.512739	-0.393299	-0.007588
C200	C	0.846072	-0.059966	0.325745
C201	C	1.179405	0.273368	0.659079
C202	C	0.544924	-0.366586	-0.069978
C203	C	0.878257	-0.033253	0.263356
C204	C	1.211590	0.300080	0.596689
C205	C	0.544910	-0.313184	-0.069995
C206	C	0.878243	0.020149	0.263339
C207	C	1.211577	0.353483	0.596672
N208	N	0.577096	-0.286468	-0.132372
N209	N	0.910430	0.046865	0.200961
N210	N	1.243763	0.380198	0.534294
C211	C	0.609285	-0.313167	-0.194752
C212	C	0.942618	0.020166	0.138581
C213	C	1.275951	0.353500	0.471914
C214	C	0.544944	-0.799249	-0.069989
C215	C	0.878278	-0.465916	0.263344
C216	C	1.211611	-0.132582	0.596678
C217	C	0.544946	-0.852663	-0.069991
C218	C	0.878280	-0.519330	0.263342
C219	C	1.211613	-0.185997	0.596675
C220	C	0.609323	-0.852647	-0.194755
C221	C	0.942657	-0.519313	0.138579
C222	C	1.275990	-0.185980	0.471912
C223	C	0.609318	-0.799231	-0.194757
C224	C	0.942652	-0.465898	0.138576
C225	C	1.275985	-0.132565	0.471909
C226	C	0.577130	-0.772534	-0.132367
C227	C	0.910464	-0.439200	0.200967
C228	C	1.243797	-0.105867	0.534300
C229	C	0.609270	-0.200999	-0.194756
C230	C	0.942603	0.132334	0.138577
C231	C	1.275937	0.465667	0.471910
C232	C	0.609260	-0.147583	-0.194758
C233	C	0.942594	0.185750	0.138575
C234	C	1.275927	0.519084	0.471909
C235	C	0.544885	-0.147604	-0.069991
C236	C	0.878219	0.185729	0.263342
C237	C	1.211552	0.519062	0.596676
C238	C	0.544893	-0.201016	-0.069993
C239	C	0.878227	0.132317	0.263340
C240	C	1.211560	0.465651	0.596674
C241	C	0.577090	-0.227712	-0.132379
C242	C	0.910423	0.105621	0.200955
C243	C	1.243756	0.438955	0.534288
O244	O	0.517540	-0.285524	-0.016997
O245	O	0.850873	0.047809	0.316336
O246	O	1.184206	0.381143	0.649669
O247	O	0.636660	-0.285532	-0.247791
O248	O	0.969994	0.047801	0.085542
O249	O	1.303327	0.381134	0.418876
C250	C	0.609304	-0.526816	-0.194743
C251	C	0.942637	-0.193482	0.138591
C252	C	1.275971	0.139851	0.471924
C253	C	0.577121	-0.553528	-0.132359
C254	C	0.910455	-0.220195	0.200974
C255	C	1.243788	0.113138	0.534308
C256	C	0.544933	-0.526830	-0.069979
C257	C	0.878266	-0.193496	0.263354
C258	C	1.211600	0.139837	0.596687
C259	C	0.577123	-0.606943	-0.132361
C260	C	0.910457	-0.273609	0.200972
C261	C	1.243790	0.059724	0.534305
C262	C	0.609312	-0.633641	-0.194741
C263	C	0.942645	-0.300308	0.138592
C264	C	1.275978	0.033025	0.471926
C265	C	0.641498	-0.606926	-0.257119
C266	C	0.974831	-0.273592	0.076215
C267	C	1.308165	0.059741	0.409548
C268	C	0.641492	-0.553514	-0.257123
C269	C	0.974826	-0.220181	0.076211
C270	C	1.308159	0.113152	0.409544
C271	C	0.512747	-0.553545	-0.007602
C272	C	0.846080	-0.220212	0.325732
C273	C	1.179413	0.113122	0.659065
C274	C	0.512755	-0.606957	-0.007604
C275	C	0.846088	-0.273623	0.325730
C276	C	1.179421	0.059710	0.659063
C277	C	0.544943	-0.633655	-0.069984
C278	C	0.878276	-0.300322	0.263350
C279	C	1.211610	0.033011	0.596683
C280	C	0.665061	-0.000141	-0.123365
C281	C	0.998394	0.333192	0.209968
C282	C	1.331728	0.666525	0.543302
C283	C	0.718775	-0.000150	-0.124527
C284	C	1.052108	0.333183	0.208806
C285	C	1.385442	0.666517	0.542140
C286	C	0.571905	-0.000125	0.057059
C287	C	0.905238	0.333208	0.390392
C288	C	1.238571	0.666542	0.723726
C289	C	0.565655	-0.000123	0.172034
C290	C	0.898989	0.333211	0.505367
C291	C	1.232322	0.666544	0.838700
N292	N	0.577135	0.120638	-0.132371
N293	N	0.910468	0.453971	0.200962
N294	N	1.243801	0.787305	0.534296
C295	C	0.582298	-0.000120	-0.321817
C296	C	0.915632	0.333213	0.011517
C297	C	1.248965	0.666546	0.344850
C298	C	0.588548	-0.000119	-0.436791
C299	C	0.921881	0.333214	-0.103458
C300	C	1.255214	0.666547	0.229876
C301	C	0.640785	-0.000129	0.414227
C302	C	0.974118	0.333205	0.747560
C303	C	1.307452	0.666538	1.080894
C304	C	0.634915	-0.000126	0.522256
C305	C	0.968249	0.333207	0.855590
C306	C	1.301582	0.666540	1.188923
C307	C	0.548047	-0.000113	0.496124
C308	C	0.881380	0.333221	0.829457
C309	C	1.214714	0.666554	1.162790
C310	C	0.553917	-0.000115	0.388094
C311	C	0.887250	0.333219	0.721428
C312	C	1.220583	0.666552	1.054761
C313	C	0.600287	-0.000123	0.347150
C314	C	0.933620	0.333210	0.680484
C315	C	1.266954	0.666543	1.013817
C316	C	0.606156	-0.000129	0.239119
C317	C	0.939490	0.333204	0.572452
C318	C	1.272823	0.666537	0.905785
C319	C	0.519288	-0.000112	0.212988
C320	C	0.852622	0.333222	0.546322
C321	C	1.185955	0.666555	0.879655
C322	C	0.513419	-0.000110	0.321018
C323	C	0.846752	0.333224	0.654351
C324	C	1.180085	0.666557	0.987684
H325	H	-0.276534	0.083779	-0.124644
H326	H	0.056800	0.417112	0.208689
H327	H	0.390133	0.750446	0.542023
H328	H	0.486541	-0.628702	0.043199
H329	H	0.819874	-0.295368	0.376532
H330	H	1.153208	0.037965	0.709866
F331	F	0.678019	-0.000130	0.593641
F332	F	1.011352	0.333203	0.926975
F333	F	1.344685	0.666536	1.260308
H334	H	0.486312	-0.000112	0.158362
H335	H	0.819645	0.333222	0.491695
H336	H	1.152979	0.666555	0.825029
F337	F	-0.178675	0.095358	-0.126766
F338	F	0.154659	0.428692	0.206567
F339	F	0.487992	0.762025	0.539900
F340	F	0.655507	-0.000142	0.195545
F341	F	0.988840	0.333191	0.528878
F342	F	1.322174	0.666525	0.862211
H343	H	0.635469	-0.125836	-0.245568
H344	H	0.968802	0.207497	0.087765
H345	H	1.302136	0.540831	0.421099
F346	F	0.510634	-0.229446	-0.003602
F347	F	0.843968	0.103887	0.329732
F348	F	1.177301	0.437220	0.663065
F349	F	0.100715	0.141636	-0.132887
F350	F	0.434049	0.474970	0.200447
F351	F	0.767382	0.808303	0.533780
H352	H	0.635526	-0.777485	-0.245561
H353	H	0.968859	-0.444152	0.087772
H354	H	1.302193	-0.110819	0.421105
H355	H	0.047171	0.130065	-0.131713
H356	H	0.380504	0.463398	0.201620
H357	H	0.713838	0.796731	0.534954
F358	F	0.478482	-0.364888	0.058826
F359	F	0.811815	-0.031555	0.392159
F360	F	1.145148	0.301778	0.725493
F361	F	0.690135	-0.000149	0.370649
F362	F	1.023468	0.333185	0.703982
F363	F	1.356801	0.666518	1.037315
F364	F	0.204894	0.141637	-0.135165
F365	F	0.538227	0.474970	0.198168
F366	F	0.871561	0.808304	0.531502
F367	F	0.204879	-0.141855	-0.135141
F368	F	0.538212	0.191479	0.198192
F369	F	0.871545	0.524812	0.531525
F370	F	0.510685	-0.881087	-0.003603
F371	F	0.844018	-0.547754	0.329731
F372	F	1.177351	-0.214421	0.663064
H373	H	0.510294	-0.000100	0.529480
H374	H	0.843627	0.333233	0.862813
H375	H	1.176961	0.666567	1.196147
H376	H	0.475665	-0.000100	0.354370
H377	H	0.808998	0.333233	0.687703
H378	H	1.142332	0.666566	1.021036
F379	F	0.643581	-0.881070	-0.261143
F380	F	0.976915	-0.547737	0.072191
F381	F	1.310248	-0.214404	0.405524
F382	F	0.332874	0.095397	-0.137994
F383	F	0.666207	0.428730	0.195340
F384	F	0.999540	0.762063	0.528673
F385	F	0.643537	-0.229404	-0.261154
F386	F	0.976870	0.103930	0.072179
F387	F	1.310204	0.437263	0.405513
F388	F	-0.050683	0.141624	-0.129575
F389	F	0.282650	0.474958	0.203758
F390	F	0.615983	0.808291	0.537091
H391	H	0.667685	-0.371535	-0.307934
H392	H	1.001019	-0.038202	0.025399
H393	H	1.334352	0.295131	0.358733
H394	H	0.430747	0.083832	-0.140134
H395	H	0.764080	0.417166	0.193199
H396	H	1.097414	0.750499	0.526532
F397	F	0.510677	-0.770842	-0.003596
F398	F	0.844010	-0.437508	0.329738
F399	F	1.177343	-0.104175	0.663071
H400	H	0.486535	-0.531812	0.043198
H401	H	0.819869	-0.198479	0.376532
H402	H	1.153202	0.134854	0.709865
H403	H	0.430734	-0.084018	-0.140133
H404	H	0.764068	0.249315	0.193200
H405	H	1.097401	0.582648	0.526533
H406	H	0.486530	-0.468457	0.043220
H407	H	0.819863	-0.135124	0.376554
H408	H	1.153197	0.198210	0.709887
H409	H	0.667695	-0.468424	-0.307928
H410	H	1.001028	-0.135090	0.025406
H411	H	1.334362	0.198243	0.358739
H412	H	0.339186	-0.084027	-0.138099
H413	H	0.672519	0.249306	0.195234
H414	H	1.005853	0.582639	0.528568
F415	F	0.053470	-0.141874	-0.131806
F416	F	0.386803	0.191460	0.201527
F417	F	0.720136	0.524793	0.534861
H418	H	-0.184974	-0.084068	-0.126641
H419	H	0.148359	0.249266	0.206693
H420	H	0.481692	0.582599	0.540026
F421	F	-0.050697	-0.141877	-0.129507
F422	F	0.282636	0.191456	0.203826
F423	F	0.615969	0.524790	0.537159
H424	H	0.518677	-0.125857	-0.019206
H425	H	0.852011	0.207477	0.314128
H426	H	1.185344	0.540810	0.647461
F427	F	0.100715	-0.141862	-0.132866
F428	F	0.434048	0.191472	0.200467
F429	F	0.767381	0.524805	0.533800
F430	F	0.675746	-0.525091	-0.323532
F431	F	1.009079	-0.191758	0.009801
F432	F	1.342413	0.141575	0.343134
H433	H	-0.276540	-0.084071	-0.124625
H434	H	0.056793	0.249263	0.208708
H435	H	0.390127	0.582596	0.542041
H436	H	0.667705	-0.628673	-0.307916
H437	H	1.001038	-0.295340	0.025417
H438	H	1.334371	0.037993	0.358751
