data_functionalizedCrystal
_audit_creation_method	'MofGen! by Chris Wilmer'
_symmetry_space_group_name_H-M	'P1'
_symmetry_Int_Tables_number	1
_symmetry_cell_setting	triclinic
loop_
_symmetry_equiv_pos_as_xyz
  x,y,z
_cell_length_a	12.594517
_cell_length_b	29.839131
_cell_length_c	12.594509
_cell_angle_alpha	90.042620
_cell_angle_beta	90.011478
_cell_angle_gamma	90.031117
loop_
_atom_site_label
_atom_site_type_symbol
_atom_site_fract_x
_atom_site_fract_y
_atom_site_fract_z
Zn1	Zn	1.627125	-0.178889	0.601474
Zn2	Zn	2.127125	0.321111	1.101474
Zn3	Zn	1.626956	-0.254024	0.423451
Zn4	Zn	2.126956	0.245976	0.923451
Zn5	Zn	1.449129	-0.178903	0.423533
Zn6	Zn	1.949129	0.321097	0.923533
Zn7	Zn	1.449052	-0.253987	0.601411
Zn8	Zn	1.949052	0.246013	1.101411
O9	O	1.538065	-0.216451	0.512467
O10	O	2.038065	0.283549	1.012467
O11	O	1.776048	-0.188865	0.577850
O12	O	2.276048	0.311135	1.077850
O13	O	1.603329	-0.244080	0.274516
O14	O	2.103329	0.255920	0.774516
O15	O	1.472843	-0.116034	0.447198
O16	O	1.972843	0.383966	0.947198
O17	O	1.775924	-0.244066	0.447057
O18	O	2.275924	0.255934	0.947057
O19	O	1.603616	-0.116024	0.577930
O20	O	2.103616	0.383976	1.077930
O21	O	1.472680	-0.188889	0.274576
O22	O	1.972680	0.311111	0.774576
O23	O	1.300173	-0.188854	0.447138
O24	O	1.800173	0.311146	0.947138
O25	O	1.472712	-0.244004	0.750365
O26	O	1.972712	0.255996	1.250365
O27	O	1.300116	-0.244018	0.577824
O28	O	1.800116	0.255982	1.077824
O29	O	1.603541	-0.188830	0.750411
O30	O	2.103541	0.311170	1.250411
O31	O	1.603254	-0.316886	0.446997
O32	O	2.103254	0.183114	0.946997
O33	O	1.472548	-0.316859	0.577744
O34	O	1.972548	0.183141	1.077744
C35	C	1.261524	-0.216434	0.512483
C36	C	1.761524	0.283566	1.012483
C37	C	1.143219	-0.216437	0.512516
C38	C	1.643219	0.283563	1.012516
C39	C	1.073966	-0.246500	0.583458
C40	C	1.573966	0.253500	1.083458
C41	C	1.003190	-0.205539	0.609661
C42	C	1.503190	0.294461	1.109661
C43	C	1.003196	-0.257433	0.486289
C44	C	1.503196	0.242567	0.986289
C45	C	1.074001	-0.175454	0.538769
C46	C	1.574001	0.324546	1.038769
C47	C	1.074014	-0.227376	0.415352
C48	C	1.574014	0.272624	0.915352
C49	C	1.003270	-0.186386	0.441518
C50	C	1.503270	0.313614	0.941518
C51	C	1.537903	-0.333174	0.512378
C52	C	2.037903	0.166826	1.012378
C53	C	1.537931	-0.383108	0.512375
C54	C	2.037931	0.116892	1.012375
C55	C	1.606144	-0.692711	0.580636
C56	C	2.106144	-0.192711	1.080636
C57	C	1.606260	-0.880384	0.580700
C58	C	2.106260	-0.380384	1.080700
O59	O	1.664098	-0.904615	0.638672
O60	O	2.164098	-0.404615	1.138672
N61	N	1.538246	-0.903893	0.512585
N62	N	2.038246	-0.403893	1.012585
C63	C	1.470194	-0.880481	0.444454
C64	C	1.970194	-0.380481	0.944454
O65	O	1.412339	-0.904783	0.386527
O66	O	1.912339	-0.404783	0.886527
C67	C	1.470074	-0.692809	0.444397
C68	C	1.970074	-0.192809	0.944397
C69	C	1.538099	-0.669302	0.512508
C70	C	2.038099	-0.169302	1.012508
C71	C	1.674163	-0.669205	0.648744
C72	C	2.174163	-0.169205	1.148744
C73	C	1.674138	-0.622289	0.648723
C74	C	2.174138	-0.122289	1.148723
C75	C	1.606093	-0.598880	0.580595
C76	C	2.106093	-0.098880	1.080595
C77	C	1.538074	-0.622387	0.512488
C78	C	2.038074	-0.122387	1.012488
C79	C	1.402017	-0.669397	0.376272
C80	C	1.902017	-0.169397	0.876272
C81	C	1.401991	-0.622476	0.376265
C82	C	1.901991	-0.122476	0.876265
C83	C	1.470017	-0.598970	0.444377
C84	C	1.970017	-0.098970	0.944377
C85	C	1.470004	-0.552062	0.444339
C86	C	1.970004	-0.052062	0.944339
N87	N	1.538017	-0.528553	0.512454
N88	N	2.038017	-0.028553	1.012454
C89	C	1.606062	-0.551962	0.580582
C90	C	2.106062	-0.051962	1.080582
C91	C	1.470263	-0.979011	0.444488
C92	C	1.970263	-0.479011	0.944488
C93	C	1.470295	-1.025929	0.444501
C94	C	1.970295	-0.525929	0.944501
C95	C	1.606359	-1.025829	0.580749
C96	C	2.106359	-0.525829	1.080749
C97	C	1.606332	-0.978911	0.580730
C98	C	2.106332	-0.478911	1.080730
C99	C	1.538277	-0.955502	0.512603
C100	C	2.038277	-0.455502	1.012603
C101	C	1.606004	-0.453436	0.580533
C102	C	2.106004	0.046564	1.080533
C103	C	1.605976	-0.406517	0.580503
C104	C	2.105976	0.093483	1.080503
C105	C	1.469908	-0.406621	0.444259
C106	C	1.969908	0.093379	0.944259
C107	C	1.469940	-0.453536	0.444285
C108	C	1.969940	0.046464	0.944285
C109	C	1.537991	-0.476943	0.512430
C110	C	2.037991	0.023057	1.012430
O111	O	1.412188	-0.527803	0.386406
O112	O	1.912188	-0.027803	0.886406
O113	O	1.663891	-0.527652	0.638517
O114	O	2.163891	-0.027652	1.138517
C115	C	1.606170	-0.739626	0.580657
C116	C	2.106170	-0.239626	1.080657
C117	C	1.538150	-0.763133	0.512550
C118	C	2.038150	-0.263133	1.012550
C119	C	1.470106	-0.739724	0.444422
C120	C	1.970106	-0.239724	0.944422
C121	C	1.538182	-0.810051	0.512563
C122	C	2.038182	-0.310051	1.012563
C123	C	1.606226	-0.833460	0.580691
C124	C	2.106226	-0.333460	1.080691
C125	C	1.674240	-0.809951	0.648806
C126	C	2.174240	-0.309951	1.148806
C127	C	1.674214	-0.763035	0.648785
C128	C	2.174214	-0.263035	1.148785
C129	C	1.402092	-0.763233	0.376307
C130	C	1.902092	-0.263233	0.876307
C131	C	1.402124	-0.810148	0.376332
C132	C	1.902124	-0.310148	0.876332
C133	C	1.470169	-0.833557	0.444460
C134	C	1.970169	-0.333557	0.944460
C135	C	1.815686	-0.216468	0.512452
C136	C	2.315686	0.283532	1.012452
C137	C	1.933992	-0.216476	0.512445
C138	C	2.433992	0.283524	1.012445
C139	C	1.538137	-0.216412	0.790088
C140	C	2.038137	0.283588	1.290088
C141	C	1.538167	-0.216395	0.908394
C142	C	2.038167	0.283605	1.408394
C143	C	1.538257	-0.099273	0.512581
C144	C	2.038257	0.400727	1.012581
C145	C	1.538339	-0.049338	0.512629
C146	C	2.038339	0.450662	1.012629
C147	C	1.538056	-0.216458	0.235926
C148	C	2.038056	0.283542	0.735926
C149	C	1.538232	-0.216348	0.117621
C150	C	2.038232	0.283652	0.617621
C151	C	1.467031	-0.246387	0.977622
C152	C	1.967031	0.253613	1.477622
C153	C	1.564143	-0.257367	1.048389
C154	C	2.064143	0.242633	1.548389
C155	C	1.441131	-0.205388	1.048426
C156	C	1.941131	0.294612	1.548426
C157	C	1.635330	-0.227396	0.977603
C158	C	2.135330	0.272604	1.477603
C159	C	1.512252	-0.175398	0.977633
C160	C	2.012252	0.324602	1.477633
C161	C	1.609431	-0.186362	1.048368
C162	C	2.109431	0.313638	1.548368
H163	H	0.972090	-0.292085	0.464140
H164	H	1.472090	0.207915	0.964140
H165	H	1.346569	-0.603420	0.320789
H166	H	1.846569	-0.103420	0.820789
H167	H	0.972424	-0.160951	0.381494
H168	H	1.472424	0.339049	0.881494
Cl169	Cl	1.314394	-0.191044	1.096457
Cl170	Cl	1.814394	0.308956	1.596457
H171	H	1.661374	-0.387379	0.635967
H172	H	2.161374	0.112621	1.135967
H173	H	1.414510	-0.387554	0.388787
H174	H	1.914510	0.112446	0.888787
H175	H	1.729573	-0.688259	0.704228
H176	H	2.229573	-0.188259	1.204228
Cl177	Cl	1.121898	-0.285677	0.676197
Cl178	Cl	1.621898	0.214323	1.176197
Cl179	Cl	1.691559	-0.482855	0.666199
Cl180	Cl	2.191559	0.017145	1.166199
Cl181	Cl	0.955157	-0.191275	0.736475
Cl182	Cl	1.455157	0.308725	1.236475
Cl183	Cl	1.598040	-0.310863	1.096378
Cl184	Cl	2.098040	0.189137	1.596378
H185	H	1.729527	-0.603153	0.704189
H186	H	2.229527	-0.103153	1.204189
Cl187	Cl	1.122047	-0.241650	0.288552
Cl188	Cl	1.622047	0.258350	0.788552
Cl189	Cl	1.374226	-0.285605	0.929657
Cl190	Cl	1.874226	0.214395	1.429657
Cl191	Cl	1.121811	-0.121937	0.573117
Cl192	Cl	1.621811	0.378063	1.073117
H193	H	1.729607	-0.743900	0.704249
H194	H	2.229607	-0.243900	1.204249
Cl195	Cl	1.384435	-0.483088	0.358644
Cl196	Cl	1.884435	0.016912	0.858644
H197	H	1.729648	-0.829019	0.704275
H198	H	2.229648	-0.329019	1.204275
H199	H	1.661724	-0.959774	0.636193
H200	H	2.161724	-0.459774	1.136193
H201	H	1.346731	-0.829283	0.320857
H202	H	1.846731	-0.329283	0.820857
H203	H	1.346681	-0.744177	0.320830
H204	H	1.846681	-0.244177	0.820830
H205	H	1.717443	-0.236725	0.946624
H206	H	2.217443	0.263275	1.446624
H207	H	1.669686	-0.160979	1.079235
H208	H	2.169686	0.339021	1.579235
Cl209	Cl	1.478313	-0.121916	0.929606
Cl210	Cl	1.978313	0.378084	1.429606
H211	H	1.661765	-1.044897	0.636220
H212	H	2.161765	-0.544897	1.136220
Cl213	Cl	1.384788	-1.055474	0.358856
Cl214	Cl	1.884788	-0.555474	0.858856
H215	H	1.414843	-0.959956	0.389008
H216	H	1.914843	-0.459956	0.889008
H217	H	1.346624	-0.688528	0.320807
H218	H	1.846624	-0.188528	0.820807
