data_functionalizedCrystal
_audit_creation_method	'MofGen! by Chris Wilmer'
_symmetry_space_group_name_H-M	'P1'
_symmetry_Int_Tables_number	1
_symmetry_cell_setting	triclinic
loop_
_symmetry_equiv_pos_as_xyz
  x,y,z
_cell_length_a	14.044220
_cell_length_b	11.792241
_cell_length_c	10.268362
_cell_angle_alpha	90.000374
_cell_angle_beta	89.993803
_cell_angle_gamma	91.308853
loop_
_atom_site_label
_atom_site_type_symbol
_atom_site_fract_x
_atom_site_fract_y
_atom_site_fract_z
O1	O	0.129987	-1.519112	-0.108177
O2	O	0.143384	-1.190028	-0.108207
O3	O	-0.001325	-1.349630	-0.108180
O4	O	0.274695	-1.359509	-0.108204
O5	O	-0.001331	-1.349615	0.108421
O6	O	0.143378	-1.190012	0.108393
O7	O	0.129981	-1.519096	0.108424
Cu8	Cu	0.136679	-1.354553	0.128186
Cu9	Cu	0.136686	-1.354571	-0.127969
O10	O	0.274689	-1.359494	0.108396
C11	C	0.142539	-1.147650	0.000089
C12	C	0.140020	-1.021400	0.000078
C13	C	-0.036664	-1.345298	0.000121
C14	C	-0.141956	-1.332399	0.000121
C15	C	-0.334739	-1.308817	0.000100
C16	C	-0.391902	-1.400302	0.000105
C17	C	-0.499173	-1.387181	0.000093
C18	C	-0.227458	-1.321937	0.000112
C19	C	0.130826	-1.561474	0.000125
C20	C	0.133344	-1.687724	0.000127
C21	C	0.310029	-1.363826	0.000093
C22	C	0.415321	-1.376725	0.000084
N23	N	0.136673	-1.354548	0.308352
C24	C	0.135389	-0.790253	0.000116
C25	C	0.137962	-0.918880	0.000095
N26	N	0.136684	-1.354584	-0.308135
C27	C	0.136684	-1.354565	0.574022
C28	C	0.136681	-1.354552	0.426185
H29	H	-0.360278	-1.488479	0.000026
H30	H	-0.366361	-1.220647	0.000089
