data_functionalizedCrystal
_audit_creation_method	'MofGen! by Chris Wilmer'
_symmetry_space_group_name_H-M	'P1'
_symmetry_Int_Tables_number	1
_symmetry_cell_setting	triclinic
loop_
_symmetry_equiv_pos_as_xyz
  x,y,z
_cell_length_a	15.944545
_cell_length_b	10.654541
_cell_length_c	9.730217
_cell_angle_alpha	89.998097
_cell_angle_beta	90.005002
_cell_angle_gamma	96.009950
loop_
_atom_site_label
_atom_site_type_symbol
_atom_site_fract_x
_atom_site_fract_y
_atom_site_fract_z
O1	O	0.117965	-1.666312	0.114255
O2	O	0.129207	-1.300687	0.114268
O3	O	0.001369	-1.493488	0.114245
O4	O	0.245804	-1.473511	0.114278
O5	O	0.001369	-1.493475	-0.114335
O6	O	0.129207	-1.300674	-0.114312
O7	O	0.117965	-1.666299	-0.114325
Zn8	Zn	0.123586	-1.483484	-0.150611
Zn9	Zn	0.123586	-1.483501	0.150553
O10	O	0.245804	-1.473498	-0.114302
C11	C	0.128382	-1.253893	-0.000021
C12	C	0.125914	-1.114482	-0.000017
N13	N	0.123586	-1.483482	-0.356147
C14	C	-0.029930	-1.492653	-0.000047
C15	C	-0.123191	-1.490171	-0.000050
C16	C	-0.394557	-1.363247	-0.000018
C17	C	-0.343618	-1.424446	0.112682
C18	C	-0.458886	-1.481319	-0.000011
C19	C	-0.343645	-1.424465	-0.112680
C20	C	-0.293947	-1.485662	-0.000033
C21	C	-0.409175	-1.542487	0.112782
C22	C	-0.409205	-1.542488	-0.112681
C23	C	-0.358298	-1.603774	0.000047
C24	C	-0.553902	-1.478814	0.000003
C25	C	-0.198933	-1.488177	-0.000036
C26	C	0.277103	-1.474332	-0.000008
C27	C	0.370363	-1.476814	0.000005
C28	C	0.118790	-1.713093	-0.000033
C29	C	0.121259	-1.852504	-0.000029
C30	C	0.278780	-1.084528	0.000021
C31	C	0.354049	-1.004057	0.000046
C32	C	0.351725	-0.873069	0.000047
C33	C	0.274122	-0.822551	0.000019
C34	C	0.198853	-0.903021	-0.000005
C35	C	0.201185	-1.034010	-0.000002
C36	C	0.045989	-0.932975	-0.000053
C37	C	0.048311	-1.063963	-0.000044
C38	C	-0.031614	-0.882456	-0.000081
C39	C	-0.106885	-0.962927	-0.000095
C40	C	-0.104557	-1.093923	-0.000095
C41	C	-0.026958	-1.144434	-0.000069
C42	C	0.010412	-1.654308	-0.643892
C43	C	-0.046174	-1.739693	-0.571943
C44	C	-0.046176	-1.739677	-0.428063
C45	C	0.010416	-1.654269	-0.356129
C46	C	0.067002	-1.568884	-0.428078
C47	C	0.066996	-1.568907	-0.571961
C48	C	0.180172	-1.398097	-0.428096
C49	C	0.180172	-1.398105	-0.571976
C50	C	0.236764	-1.312689	-0.356162
C51	C	0.293348	-1.227296	-0.428111
C52	C	0.293347	-1.227315	-0.571999
C53	C	0.236758	-1.312720	-0.643925
N54	N	0.123580	-1.483514	0.356090
H55	H	-0.410798	-1.261562	0.000095
C56	C	0.485073	-1.018856	-0.117415
C57	C	0.439348	-1.059588	0.000076
H58	H	0.537730	-1.053142	-0.117400
H59	H	0.494455	-0.929339	-0.117402
H60	H	0.454046	-1.046483	-0.197126
H61	H	0.470372	-1.031952	0.079788
H62	H	0.429969	-1.149123	0.000075
H63	H	0.413016	-0.807549	0.000057
C64	C	-0.489629	-1.524991	0.319199
C65	C	-0.447662	-1.609751	0.241560
H66	H	-0.513384	-1.566514	0.398704
H67	H	-0.533203	-1.495313	0.265448
H68	H	-0.450754	-1.455673	0.346118
H69	H	-0.486538	-1.679066	0.214633
H70	H	-0.404083	-1.639448	0.295321
C71	C	-0.290019	-1.762921	-0.117930
C72	C	-0.336582	-1.741146	0.000119
H73	H	-0.276616	-1.847730	-0.117882
H74	H	-0.239450	-1.707223	-0.118713
H75	H	-0.322420	-1.748598	-0.197257
H76	H	-0.304178	-1.755460	0.079446
H77	H	-0.387160	-1.796862	0.000915
C78	C	0.028101	-1.772577	-0.150013
C79	C	0.010416	-1.654266	-0.197974
H80	H	0.028097	-1.772576	-0.052375
H81	H	0.081892	-1.789742	-0.182551
H82	H	-0.013701	-1.835650	-0.182572
H83	H	0.052223	-1.591194	-0.165424
H84	H	-0.043381	-1.637087	-0.165423
C85	C	0.219100	-1.194343	-0.150080
C86	C	0.236774	-1.312667	-0.198007
H87	H	0.219114	-1.194327	-0.052441
H88	H	0.165308	-1.177178	-0.182625
H89	H	0.260903	-1.131281	-0.182653
H90	H	0.194968	-1.375728	-0.165442
H91	H	0.290573	-1.329846	-0.165447
H92	H	0.272236	-0.715892	0.000004
C93	C	0.407495	-1.200026	-0.266296
C94	C	0.355548	-1.133426	-0.349038
H95	H	0.445890	-1.142070	-0.217470
H96	H	0.438035	-1.252281	-0.322419
H97	H	0.373787	-1.250879	-0.202866
H98	H	0.389255	-1.082580	-0.412474
H99	H	0.325005	-1.081148	-0.292909
C100	C	-0.414680	-1.547693	-0.359222
C101	C	-0.447909	-1.609735	-0.241311
H102	H	-0.438580	-1.589198	-0.438638
H103	H	-0.355221	-1.549090	-0.360605
H104	H	-0.427718	-1.462717	-0.358395
H105	H	-0.434866	-1.694709	-0.242133
H106	H	-0.507382	-1.608351	-0.239928
H107	H	-0.092249	-1.809234	-0.630525
H108	H	-0.315019	-1.374575	-0.207956
C109	C	-0.237904	-0.948122	0.117369
C110	C	-0.192179	-0.907399	-0.000125
H111	H	-0.290563	-0.913843	0.117345
H112	H	-0.206883	-0.920494	0.197069
H113	H	-0.247287	-1.037651	0.117359
H114	H	-0.182791	-0.817870	-0.000111
H115	H	-0.223206	-0.935019	-0.079847
C116	C	-0.068896	-1.628990	-0.850003
C117	C	0.010406	-1.654317	-0.802047
H118	H	-0.068900	-1.629003	-0.947642
H119	H	-0.080879	-1.548735	-0.817465
H120	H	-0.110688	-1.692074	-0.817441
H121	H	0.052198	-1.591228	-0.834600
H122	H	0.022399	-1.734583	-0.834599
H123	H	-0.314972	-1.374587	0.207966
H124	H	0.280680	-1.191183	0.000051
H125	H	-0.033501	-0.775798	-0.000087
H126	H	-0.165852	-1.159436	-0.000120
H127	H	-0.025056	-1.251089	-0.000052
C128	C	-0.158049	-1.908499	-0.442482
C129	C	-0.108377	-1.833529	-0.348969
H130	H	-0.196452	-1.966432	-0.393649
H131	H	-0.122805	-1.953677	-0.498580
H132	H	-0.188589	-1.856228	-0.498622
H133	H	-0.077832	-1.885800	-0.292835
H134	H	-0.143626	-1.788348	-0.292847
C135	C	0.405211	-1.058486	-0.557551
C136	C	0.355546	-1.133449	-0.651081
H137	H	0.443605	-1.000532	-0.606372
H138	H	0.435752	-1.110751	-0.501428
H139	H	0.369954	-1.013321	-0.501438
H140	H	0.390802	-1.178621	-0.707187
H141	H	0.325003	-1.081177	-0.707228
C142	C	0.175137	-1.405739	-0.850016
C143	C	0.236756	-1.312744	-0.802080
H144	H	0.175140	-1.405760	-0.947655
H145	H	0.121353	-1.388542	-0.817483
H146	H	0.187140	-1.485988	-0.817438
H147	H	0.224750	-1.232494	-0.834650
H148	H	0.290552	-1.329933	-0.834628
