data_functionalizedCrystal
_audit_creation_method	'MofGen! by Chris Wilmer'
_symmetry_space_group_name_H-M	'P1'
_symmetry_Int_Tables_number	1
_symmetry_cell_setting	triclinic
loop_
_symmetry_equiv_pos_as_xyz
  x,y,z
_cell_length_a	15.944551
_cell_length_b	15.072220
_cell_length_c	15.995350
_cell_angle_alpha	90.001101
_cell_angle_beta	83.495556
_cell_angle_gamma	89.991993
loop_
_atom_site_label
_atom_site_type_symbol
_atom_site_fract_x
_atom_site_fract_y
_atom_site_fract_z
O1	O	1.114528	-0.073686	0.107983
O2	O	1.614528	0.426314	0.607983
O3	O	0.869978	-0.073707	0.121297
O4	O	1.369978	0.426293	0.621297
O5	O	0.998938	-0.073695	-0.007247
O6	O	1.498938	0.426305	0.492753
O7	O	0.985568	-0.073698	0.236527
O8	O	1.485568	0.426302	0.736527
O9	O	0.998906	0.073870	-0.007240
O10	O	1.498906	0.573870	0.492760
O11	O	0.869946	0.073858	0.121304
O12	O	1.369946	0.573858	0.621304
O13	O	1.114497	0.073880	0.107990
O14	O	1.614497	0.573880	0.607990
Zn15	Zn	0.992216	0.097298	0.114648
Zn16	Zn	1.492216	0.597298	0.614648
Zn17	Zn	0.992258	-0.097125	0.114639
Zn18	Zn	1.492258	0.402875	0.614639
O19	O	0.985536	0.073867	0.236534
O20	O	1.485536	0.573867	0.736534
C21	C	0.838668	0.000073	0.120748
C22	C	1.338668	0.500073	0.620748
C23	C	0.745422	0.000064	0.119091
C24	C	1.245422	0.500064	0.619091
N25	N	0.992194	0.229987	0.114654
N26	N	1.492194	0.729987	0.614654
N27	N	0.992288	-0.229814	0.114626
N28	N	1.492288	0.270186	0.614626
C29	C	0.530570	0.000083	0.035452
C30	C	1.030570	0.500083	0.535452
C31	C	0.469564	-0.072675	0.074288
C32	C	0.969564	0.427325	0.574288
C33	C	0.574697	0.000075	0.116093
C34	C	1.074697	0.500075	0.616093
C35	C	0.469554	0.072812	0.074314
C36	C	0.969554	0.572812	0.574314
C37	C	0.409784	0.000089	0.113192
C38	C	0.909784	0.500089	0.613192
C39	C	0.514918	-0.072743	0.154951
C40	C	1.014918	0.427257	0.654951
C41	C	0.514915	0.072810	0.154965
C42	C	1.014915	0.572810	0.654965
C43	C	0.453926	0.000034	0.193859
C44	C	0.953926	0.500034	0.693859
C45	C	0.669699	0.000066	0.117762
C46	C	1.169699	0.500066	0.617762
C47	C	0.314783	0.000091	0.111529
C48	C	0.814783	0.500091	0.611529
C49	C	1.145806	0.000098	0.108539
C50	C	1.645806	0.500098	0.608539
C51	C	1.239052	0.000100	0.110196
C52	C	1.739052	0.500100	0.610196
C53	C	0.998370	0.000086	-0.038438
C54	C	1.498370	0.500086	0.461562
C55	C	0.996712	0.000081	-0.131389
C56	C	1.496712	0.500081	0.368611
C57	C	0.992257	0.589188	0.114636
C58	C	1.492257	1.089188	0.614636
C59	C	0.923021	0.551575	0.183186
C60	C	1.423021	1.051575	0.683186
C61	C	0.923180	0.448749	0.183437
C62	C	1.423180	0.948749	0.683437
C63	C	0.992225	0.410984	0.114645
C64	C	1.492225	0.910984	0.614645
C65	C	1.079867	0.448283	0.133732
C66	C	1.579867	0.948283	0.633732
C67	C	1.079479	0.551141	0.134219
C68	C	1.579479	1.051141	0.634219
C69	C	0.974631	0.551288	0.026795
C70	C	1.474631	1.051288	0.526795
C71	C	0.972620	0.448424	0.027381
C72	C	1.472620	0.948424	0.527381
C73	C	0.992212	0.310271	0.114648
C74	C	1.492212	0.810271	0.614648
C75	C	0.992275	0.689902	0.114634
C76	C	1.492275	1.189902	0.614634
C77	C	0.990761	0.000083	-0.469137
C78	C	1.490761	0.500083	0.030863
C79	C	0.898918	-0.000256	-0.421708
C80	C	1.398918	0.499744	0.078292
C81	C	0.900576	0.000077	-0.325017
C82	C	1.400576	0.500077	0.174983
C83	C	0.993713	0.000082	-0.301576
C84	C	1.493713	0.500082	0.198424
C85	C	1.038995	0.084351	-0.342647
C86	C	1.538995	0.584351	0.157353
C87	C	1.036688	0.084421	-0.439283
C88	C	1.536688	0.584421	0.060717
C89	C	1.038622	-0.083388	-0.439649
C90	C	1.538622	0.416612	0.060351
C91	C	1.038600	-0.084501	-0.342704
C92	C	1.538600	0.415499	0.157296
C93	C	0.995386	0.000084	-0.206878
C94	C	1.495386	0.500084	0.293122
C95	C	0.989091	0.000087	-0.563835
C96	C	1.489091	0.500087	-0.063835
C97	C	0.986105	0.000085	0.267726
C98	C	1.486105	0.500085	0.767726
C99	C	0.987762	0.000084	0.360676
C100	C	1.487762	0.500084	0.860676
H101	H	0.563907	-0.000007	-0.031473
H102	H	1.063907	0.499993	0.468527
N103	N	0.444367	-0.149842	0.031493
N104	N	0.944367	0.350158	0.531493
N105	N	0.472143	-0.162810	-0.043760
N106	N	0.972143	0.337190	0.456240
H107	H	0.454355	-0.217308	-0.073989
H108	H	0.954355	0.282692	0.426011
H109	H	0.862223	-0.060687	-0.440245
H110	H	1.362223	0.439313	0.059755
H111	H	0.862360	0.059833	-0.441301
H112	H	1.362360	0.559833	0.058699
N113	N	0.999503	0.163012	-0.307038
N114	N	1.499503	0.663012	0.192962
N115	N	0.938018	0.157228	-0.251425
N116	N	1.438018	0.657228	0.248575
H117	H	0.910121	0.212780	-0.226276
H118	H	1.410121	0.712780	0.273724
N119	N	0.936933	0.583997	0.264500
N120	N	1.436933	1.083997	0.764500
N121	N	0.935938	0.665587	0.278586
N122	N	1.435938	1.165587	0.778586
H123	H	0.945765	0.688488	0.336013
H124	H	1.445765	1.188488	0.836013
H125	H	0.534917	-0.134321	0.189030
H126	H	1.034917	0.365679	0.689030
H127	H	0.864714	0.060582	-0.297152
H128	H	1.364714	0.560582	0.202848
N129	N	1.123813	-0.090870	-0.323444
N130	N	1.623813	0.409130	0.176556
N131	N	1.183322	-0.091083	-0.381477
N132	N	1.683322	0.408917	0.118523
H133	H	1.243507	-0.095571	-0.367876
H134	H	1.743507	0.404429	0.132124
N135	N	1.031771	0.416168	-0.039609
N136	N	1.531771	0.916168	0.460391
N137	N	1.089600	0.364836	-0.024056
N138	N	1.589600	0.864836	0.475944
H139	H	1.131381	0.342053	-0.071366
H140	H	1.631381	0.842053	0.428634
H141	H	0.449457	0.134321	0.040194
H142	H	0.949457	0.634321	0.540194
N143	N	0.412330	-0.000022	0.277904
N144	N	0.912330	0.499978	0.777904
N145	N	0.424051	-0.062549	0.326588
N146	N	0.924051	0.437451	0.826588
H147	H	0.394673	-0.062594	0.385945
H148	H	0.894673	0.437406	0.885945
H149	H	0.535031	0.134324	0.189048
H150	H	1.035031	0.634324	0.689048
H151	H	0.858033	0.423532	0.172064
H152	H	1.358033	0.923532	0.672064
H153	H	1.008607	-0.147259	-0.460193
H154	H	1.508607	0.352741	0.039807
H155	H	1.107420	0.087488	-0.328517
H156	H	1.607420	0.587488	0.171483
N157	N	0.841033	0.582633	0.169148
N158	N	1.341033	1.082633	0.669148
N159	N	0.832668	0.632856	0.108460
N160	N	1.332668	1.132856	0.608460
H161	H	0.774762	0.654796	0.098542
H162	H	1.274762	1.154796	0.598542
H163	H	0.934435	0.424136	0.248622
H164	H	1.434435	0.924136	0.748622
N165	N	0.891739	0.417843	0.009218
N166	N	1.391739	0.917843	0.509218
N167	N	0.848651	0.368654	0.060309
N168	N	1.348651	0.868654	0.560309
H169	H	0.791528	0.347050	0.047484
H170	H	1.291528	0.847050	0.547484
H171	H	1.095011	0.575123	0.198280
H172	H	1.595011	1.075123	0.698280
H173	H	1.095770	0.422515	0.197063
H174	H	1.595770	0.922515	0.697063
N175	N	1.146051	0.582345	0.073963
N176	N	1.646051	1.082345	0.573963
N177	N	1.192653	0.528155	0.031689
N178	N	1.692653	1.028155	0.531689
H179	H	1.239672	0.550189	-0.010864
H180	H	1.739672	1.050189	0.489136
H181	H	1.132619	0.423819	0.085131
H182	H	1.632619	0.923819	0.585131
N183	N	0.997115	-0.162704	-0.308462
N184	N	1.497115	0.337296	0.191538
N185	N	0.934722	-0.156238	-0.253968
N186	N	1.434722	0.343762	0.246032
H187	H	0.905420	-0.211467	-0.229780
H188	H	1.405420	0.288533	0.270220
H189	H	0.912110	0.577273	0.008443
H190	H	1.412110	1.077273	0.508443
H191	H	1.025122	0.575611	-0.024218
H192	H	1.525122	1.075611	0.475782
N193	N	0.855917	-0.075704	-0.289375
N194	N	1.355917	0.424296	0.210625
N195	N	0.823302	-0.129209	-0.335904
N196	N	1.323302	0.370791	0.164096
H197	H	0.791756	-0.182730	-0.310735
H198	H	1.291756	0.317270	0.189265
H199	H	1.003641	0.147410	-0.457583
H200	H	1.503641	0.647410	0.042417
N201	N	1.121278	0.089234	-0.479726
N202	N	1.621278	0.589234	0.020274
N203	N	1.181827	0.092536	-0.436554
N204	N	1.681827	0.592536	0.063446
H205	H	1.241568	0.095941	-0.465113
H206	H	1.741568	0.595941	0.034887
N207	N	1.123577	-0.084094	-0.479466
N208	N	1.623577	0.415906	0.020534
N209	N	1.171983	-0.021024	-0.468327
N210	N	1.671983	0.478976	0.031673
H211	H	1.231982	-0.021515	-0.496446
H212	H	1.731982	0.478485	0.003554
