data_functionalizedCrystal
_audit_creation_method	'MofGen! by Chris Wilmer'
_symmetry_space_group_name_H-M	'P1'
_symmetry_Int_Tables_number	1
_symmetry_cell_setting	triclinic
loop_
_symmetry_equiv_pos_as_xyz
  x,y,z
_cell_length_a	19.188930
_cell_length_b	9.065218
_cell_length_c	7.540329
_cell_angle_alpha	90.001757
_cell_angle_beta	90.016835
_cell_angle_gamma	84.080333
loop_
_atom_site_label
_atom_site_type_symbol
_atom_site_fract_x
_atom_site_fract_y
_atom_site_fract_z
O1	O	-0.927574	-0.184174	-0.148046
O2	O	-0.724456	-0.208967	-0.147924
O3	O	-0.830213	0.018217	-0.147984
O4	O	-0.821816	-0.411359	-0.147986
O5	O	-0.830207	0.018220	0.146981
O6	O	-0.724449	-0.208965	0.147041
O7	O	-0.927568	-0.184171	0.146919
Cu8	Cu	-0.826008	-0.196568	0.173912
Cu9	Cu	-0.826015	-0.196571	-0.174918
O10	O	-0.821810	-0.411356	0.146979
C11	C	-0.698435	-0.208163	-0.000426
C12	C	-0.620912	-0.205753	-0.000379
C13	C	-0.953588	-0.184976	-0.000583
C14	C	-1.031112	-0.187386	-0.000642
C15	C	-0.829403	0.073177	-0.000504
C16	C	-0.826990	0.236936	-0.000511
C17	C	-0.577024	-0.339058	-0.000408
C18	C	-0.504182	-0.336793	-0.000427
C19	C	-0.475232	-0.201217	-0.000454
C20	C	-0.519130	-0.067895	-0.000415
C21	C	-0.591970	-0.070163	-0.000378
N22	N	-0.366449	-0.097586	-0.100914
N23	N	-0.297254	-0.095441	-0.100953
C24	C	-0.255771	-0.194375	-0.000562
N25	N	-0.286095	-0.295558	0.099847
N26	N	-0.355297	-0.297708	0.099878
C27	C	-0.396251	-0.198742	-0.000493
C28	C	-0.132899	-0.325234	-0.000610
C29	C	-0.060056	-0.322964	-0.000618
C30	C	-0.075006	-0.054061	-0.000624
C31	C	-0.147847	-0.056335	-0.000598
C32	C	-0.176789	-0.191925	-0.000599
C33	C	-0.822620	-0.466316	-0.000505
C34	C	-0.825033	-0.630075	-0.000510
N35	N	-0.826008	-0.196565	0.419261
N36	N	-0.826021	-0.196563	-0.420266
H37	H	-0.600583	-0.449466	-0.000412
H38	H	-0.183582	0.052216	-0.000584
C39	C	-0.043170	0.095070	-0.000664
H40	H	0.006497	0.077331	-0.000703
H41	H	-0.058158	0.149951	0.102196
H42	H	-0.058198	0.149928	-0.103539
H43	H	-0.627705	0.038393	-0.000356
C44	C	-0.011779	-0.469607	-0.000650
H45	H	-0.039451	-0.550677	-0.000662
H46	H	0.016966	-0.474321	0.102198
H47	H	0.016927	-0.474300	-0.103537
C48	C	-0.455896	-0.483433	-0.000486
H49	H	-0.483566	-0.564509	-0.000496
H50	H	-0.427145	-0.488153	0.102350
H51	H	-0.427198	-0.488114	-0.103384
C52	C	-0.164742	-0.474369	-0.000589
H53	H	-0.214409	-0.456629	-0.000587
H54	H	-0.149716	-0.529238	0.102269
H55	H	-0.149751	-0.529239	-0.103466
C56	C	-0.487288	0.081235	-0.000455
H57	H	-0.437621	0.063495	-0.000501
H58	H	-0.502274	0.136111	0.102410
H59	H	-0.502319	0.136098	-0.103325
