data_functionalizedCrystal
_audit_creation_method	'MofGen! by Chris Wilmer'
_symmetry_space_group_name_H-M	'P1'
_symmetry_Int_Tables_number	1
_symmetry_cell_setting	triclinic
loop_
_symmetry_equiv_pos_as_xyz
  x,y,z
_cell_length_a	18.050589
_cell_length_b	19.077236
_cell_length_c	19.077174
_cell_angle_alpha	85.294282
_cell_angle_beta	92.276796
_cell_angle_gamma	92.321157
loop_
_atom_site_label
_atom_site_type_symbol
_atom_site_fract_x
_atom_site_fract_y
_atom_site_fract_z
Zn1	Zn	-0.268141	1.093723	-0.441989
Zn2	Zn	0.231859	1.593723	0.058011
Zn3	Zn	-0.387542	1.088901	-0.324108
Zn4	Zn	0.112458	1.588901	0.175892
Zn5	Zn	-0.268152	0.971104	-0.319372
Zn6	Zn	0.231848	1.471104	0.180628
Zn7	Zn	-0.397080	0.975791	-0.437213
Zn8	Zn	0.102920	1.475791	0.062787
O9	O	-0.330229	1.032379	-0.380671
O10	O	0.169771	1.532379	0.119329
O11	O	-0.279983	1.191736	-0.430333
O12	O	0.220017	1.691736	0.069667
O13	O	-0.367717	1.069295	-0.224829
O14	O	0.132283	1.569295	0.275171
O15	O	-0.164224	0.987426	-0.335654
O16	O	0.335776	1.487426	0.164346
O17	O	-0.367706	1.188194	-0.343726
O18	O	0.132294	1.688194	0.156274
O19	O	-0.164216	1.077514	-0.425741
O20	O	0.335784	1.577514	0.074259
O21	O	-0.280002	0.982751	-0.221350
O22	O	0.219998	1.482751	0.278650
O23	O	-0.289251	0.873072	-0.331023
O24	O	0.210749	1.373072	0.168977
O25	O	-0.383963	0.995414	-0.536497
O26	O	0.116037	1.495414	-0.036497
O27	O	-0.383974	0.876516	-0.417600
O28	O	0.116026	1.376516	0.082400
O29	O	-0.289232	1.082058	-0.540006
O30	O	0.210768	1.582058	-0.040006
O31	O	-0.492733	1.073840	-0.339095
O32	O	0.007267	1.573840	0.160905
O33	O	-0.499741	0.990738	-0.422193
O34	O	0.000259	1.490738	0.077807
C35	C	-0.337649	0.849214	-0.373280
C36	C	0.162351	1.349214	0.126720
C37	C	-0.340842	0.770856	-0.370135
C38	C	0.159158	1.270856	0.129865
C39	C	-0.296748	0.735891	-0.413818
C40	C	0.203252	1.235891	0.086182
C41	C	-0.299745	0.662265	-0.410857
C42	C	0.200255	1.162265	0.089143
C43	C	-0.346840	0.623606	-0.364216
C44	C	0.153160	1.123606	0.135784
C45	C	-0.390936	0.658575	-0.320528
C46	C	0.109064	1.158575	0.179472
C47	C	-0.387935	0.732200	-0.323486
C48	C	0.112065	1.232200	0.176514
C49	C	-0.360700	0.403213	-0.350523
C50	C	0.139300	0.903213	0.149477
C51	C	-0.363700	0.329584	-0.347570
C52	C	0.136300	0.829584	0.152430
C53	C	-0.272507	0.333278	-0.437898
C54	C	0.227493	0.833278	0.062102
C55	C	-0.269513	0.406904	-0.440854
C56	C	0.230487	0.906904	0.059146
C57	C	-0.313606	0.441868	-0.397164
C58	C	0.186394	0.941868	0.102836
N59	N	-0.349906	0.548348	-0.361190
N60	N	0.150094	1.048348	0.138810
N61	N	-0.310536	0.517124	-0.400188
N62	N	0.189464	1.017124	0.099812
C63	C	-0.523184	1.032294	-0.380656
C64	C	-0.023184	1.532294	0.119344
C65	C	-0.605729	1.032323	-0.380675
C66	C	-0.105729	1.532323	0.119325
C67	C	-0.809015	0.987178	-0.425849
C68	C	-0.309015	1.487178	0.074151
C69	C	-0.856535	0.967413	-0.360830
C70	C	-0.356535	1.467413	0.139170
C71	C	-0.756857	1.032392	-0.380687
C72	C	-0.256857	1.532392	0.119313
C73	C	-0.856418	1.052192	-0.445715
C74	C	-0.356418	1.552192	0.054285
C75	C	-0.902840	1.032459	-0.380704
C76	C	-0.402840	1.532459	0.119296
C77	C	-0.803289	1.012592	-0.315633
C78	C	-0.303289	1.512592	0.184367
C79	C	-0.803169	1.097403	-0.400562
C80	C	-0.303169	1.597403	0.099438
C81	C	-0.850664	1.077661	-0.335500
C82	C	-0.350664	1.577661	0.164500
C83	C	-0.672760	1.032352	-0.380678
C84	C	-0.172760	1.532352	0.119322
C85	C	-0.986935	1.032498	-0.380706
C86	C	-0.486935	1.532498	0.119294
C87	C	-0.136520	1.032485	-0.380702
C88	C	0.363480	1.532485	0.119298
C89	C	-0.053973	1.032530	-0.380715
C90	C	0.446027	1.532530	0.119285
C91	C	-0.337660	1.039797	-0.564546
C92	C	0.162340	1.539797	-0.064546
C93	C	-0.340827	1.042957	-0.642902
C94	C	0.159173	1.542957	-0.142902
C95	C	-0.322780	1.216260	-0.388091
C96	C	0.177220	1.716260	0.111909
C97	C	-0.319605	1.294619	-0.391252
C98	C	0.180395	1.794619	0.108748
C99	C	-0.296647	0.999385	-0.677903
C100	C	0.203353	1.499385	-0.177903
C101	C	-0.299629	1.002352	-0.751527
C102	C	0.200371	1.502352	-0.251527
C103	C	-0.346787	1.048896	-0.790150
C104	C	0.153213	1.548896	-0.290150
C105	C	-0.390972	1.092470	-0.755145
C106	C	0.109028	1.592470	-0.255145
C107	C	-0.387993	1.089499	-0.681522
C108	C	0.112007	1.589499	-0.181522
C109	C	-0.360596	1.062610	-1.010534
C110	C	0.139404	1.562610	-0.510534
C111	C	-0.363569	1.065580	-1.084162
C112	C	0.136431	1.565580	-0.584162
C113	C	-0.272227	0.975461	-1.080539
C114	C	0.227773	1.475461	-0.580539
C115	C	-0.269249	0.972497	-1.006915
C116	C	0.230751	1.472497	-0.506915
C117	C	-0.313437	1.016068	-0.971916
C118	C	0.186563	1.516068	-0.471916
N119	N	-0.349834	1.051931	-0.865406
N120	N	0.150166	1.551931	-0.365406
N121	N	-0.310393	1.013029	-0.896661
N122	N	0.189607	1.513029	-0.396661
C123	C	-0.322771	1.025032	-0.197513
C124	C	0.177229	1.525032	0.302487
C125	C	-0.319389	1.022008	-0.119162
C126	C	0.180611	1.522008	0.380838
H127	H	-0.258400	0.767363	-0.451800
H128	H	0.241600	1.267363	0.048200
H129	H	-0.396605	0.431671	-0.314948
H130	H	0.103395	0.931671	0.185052
Cl131	Cl	-0.892626	0.882575	-0.334879
Cl132	Cl	-0.392626	1.382575	0.165121
H133	H	-0.402054	0.298109	-0.309589
H134	H	0.097946	0.798109	0.190411
H135	H	-0.236252	0.939987	-1.109043
H136	H	0.263748	1.439987	-0.609043
H137	H	-0.423964	1.124985	-0.653026
H138	H	0.076036	1.624985	-0.153026
H139	H	-0.790601	0.948880	-0.463982
H140	H	-0.290601	1.448880	0.036018
Cl141	Cl	-0.767053	1.182220	-0.426540
Cl142	Cl	-0.267053	1.682220	0.073460
Cl143	Cl	-0.892356	1.078007	-0.530608
Cl144	Cl	-0.392356	1.578007	-0.030608
H145	H	-0.401972	1.103484	-1.115607
H146	H	0.098028	1.603484	-0.615607
H147	H	-0.263840	0.633800	-0.446429
H148	H	0.236160	1.133800	0.053571
Cl149	Cl	-0.210310	0.455500	-0.499496
Cl150	Cl	0.289690	0.955500	0.000504
Cl151	Cl	-0.217077	0.289320	-0.492817
Cl152	Cl	0.282923	0.789320	0.007183
Cl153	Cl	-0.443371	0.776156	-0.268569
Cl154	Cl	0.056629	1.276156	0.231431
Cl155	Cl	-0.450138	0.609974	-0.261890
Cl156	Cl	0.049862	1.109974	0.238110
Cl157	Cl	-0.767501	0.986680	-0.230709
Cl158	Cl	-0.267501	1.486680	0.269291
Cl159	Cl	-0.237355	0.940874	-0.629355
Cl160	Cl	0.262645	1.440874	-0.129355
H161	H	-0.263656	0.966869	-0.780020
H162	H	0.236344	1.466869	-0.280020
Cl163	Cl	-0.416140	1.117392	-0.966545
Cl164	Cl	0.083860	1.617392	-0.466545
Cl165	Cl	-0.450262	1.150978	-0.803699
Cl166	Cl	0.049738	1.650978	-0.303699
Cl167	Cl	-0.878879	1.136738	-0.276478
Cl168	Cl	-0.378879	1.636738	0.223522
H169	H	-0.230850	0.934594	-0.975472
H170	H	0.269150	1.434594	-0.475472
