data_functionalizedCrystal
_audit_creation_method	'MofGen! by Chris Wilmer'
_symmetry_space_group_name_H-M	'P1'
_symmetry_Int_Tables_number	1
_symmetry_cell_setting	triclinic
loop_
_symmetry_equiv_pos_as_xyz
  x,y,z
_cell_length_a	29.839134
_cell_length_b	29.839131
_cell_length_c	29.839125
_cell_angle_alpha	89.982291
_cell_angle_beta	89.978020
_cell_angle_gamma	90.036281
loop_
_atom_site_label
_atom_site_type_symbol
_atom_site_fract_x
_atom_site_fract_y
_atom_site_fract_z
Zn1	Zn	0.686720	-0.178978	-0.254125
Zn2	Zn	1.020053	0.154355	0.079208
Zn3	Zn	1.353386	0.487689	0.412542
Zn4	Zn	0.686652	-0.254090	-0.178995
Zn5	Zn	1.019985	0.079243	0.154338
Zn6	Zn	1.353318	0.412577	0.487672
Zn7	Zn	0.611602	-0.178968	-0.178995
Zn8	Zn	0.944936	0.154365	0.154339
Zn9	Zn	1.278269	0.487699	0.487672
Zn10	Zn	0.611550	-0.254075	-0.254083
Zn11	Zn	0.944883	0.079258	0.079250
Zn12	Zn	1.278217	0.412592	0.412583
O13	O	0.649131	-0.216528	-0.216549
O14	O	0.982464	0.116806	0.116784
O15	O	1.315798	0.450139	0.450117
O16	O	0.749578	-0.188952	-0.244176
O17	O	1.082911	0.144381	0.089157
O18	O	1.416244	0.477715	0.422490
O19	O	0.676690	-0.244127	-0.116128
O20	O	1.010023	0.089206	0.217206
O21	O	1.343356	0.422540	0.550539
O22	O	0.621617	-0.116102	-0.188978
O23	O	0.954950	0.217231	0.144355
O24	O	1.288284	0.550564	0.477689
O25	O	0.749528	-0.244137	-0.188979
O26	O	1.082861	0.089197	0.144355
O27	O	1.416195	0.422530	0.477688
O28	O	0.676805	-0.116109	-0.244176
O29	O	1.010139	0.217224	0.089157
O30	O	1.343472	0.550557	0.422491
O31	O	0.621551	-0.188935	-0.116127
O32	O	0.954885	0.144398	0.217206
O33	O	1.288218	0.477731	0.550539
O34	O	0.548728	-0.188921	-0.188938
O35	O	0.882062	0.144413	0.144396
O36	O	1.215395	0.477746	0.477729
O37	O	0.621528	-0.244111	-0.316956
O38	O	0.954861	0.089222	0.016377
O39	O	1.288195	0.422556	0.349711
O40	O	0.548690	-0.244101	-0.244105
O41	O	0.882023	0.089232	0.089228
O42	O	1.215357	0.422565	0.422562
O43	O	0.676755	-0.188937	-0.316987
O44	O	1.010088	0.144396	0.016347
O45	O	1.343421	0.477729	0.349680
O46	O	0.676639	-0.316955	-0.188938
O47	O	1.009972	0.016378	0.144395
O48	O	1.343306	0.349712	0.477728
O49	O	0.621462	-0.316944	-0.244105
O50	O	0.954796	0.016389	0.089228
O51	O	1.288129	0.349723	0.422561
C52	C	0.532408	-0.216509	-0.216517
C53	C	0.865742	0.116825	0.116816
C54	C	1.199075	0.450158	0.450150
C55	C	0.482474	-0.216511	-0.216514
C56	C	0.815807	0.116822	0.116819
C57	C	1.149141	0.450155	0.450153
C58	C	0.649050	-0.333250	-0.216527
C59	C	0.982383	0.000083	0.116806
C60	C	1.315717	0.333416	0.450139
C61	C	0.649056	-0.383185	-0.216533
C62	C	0.982390	-0.049851	0.116801
C63	C	1.315723	0.283482	0.450134
C64	C	0.172820	-0.245303	-0.245240
C65	C	0.506153	0.088031	0.088093
C66	C	0.839487	0.421364	0.421427
C67	C	-0.014853	-0.245315	-0.245260
C68	C	0.318480	0.088018	0.088073
C69	C	0.651814	0.421351	0.421407
O70	O	-0.039127	-0.269774	-0.269665
O71	O	0.294207	0.063560	0.063669
O72	O	0.627540	0.396893	0.397002
N73	N	-0.038311	-0.216544	-0.216583
N74	N	0.295022	0.116789	0.116750
N75	N	0.628356	0.450123	0.450083
C76	C	-0.014848	-0.187766	-0.187902
C77	C	0.318485	0.145568	0.145432
C78	C	0.651819	0.478901	0.478765
O79	O	-0.039107	-0.163291	-0.163514
O80	O	0.294226	0.170042	0.169819
O81	O	0.627560	0.503376	0.503152
C82	C	0.172824	-0.187751	-0.187884
C83	C	0.506157	0.145582	0.145449
C84	C	0.839491	0.478916	0.478782
C85	C	0.196280	-0.216527	-0.216560
C86	C	0.529613	0.116806	0.116774
C87	C	0.862946	0.450139	0.450107
C88	C	0.196276	-0.274076	-0.273913
C89	C	0.529609	0.059257	0.059420
C90	C	0.862942	0.392590	0.392753
C91	C	0.243191	-0.274075	-0.273906
C92	C	0.576525	0.059259	0.059427
C93	C	0.909858	0.392592	0.392760
C94	C	0.266651	-0.245299	-0.245226
C95	C	0.599984	0.088034	0.088107
C96	C	0.933318	0.421367	0.421441
C97	C	0.243195	-0.216526	-0.216553
C98	C	0.576529	0.116808	0.116781
C99	C	0.909862	0.450141	0.450114
C100	C	0.196286	-0.158971	-0.159205
C101	C	0.529620	0.174363	0.174128
C102	C	0.862953	0.507696	0.507461
C103	C	0.243207	-0.158969	-0.159204
C104	C	0.576541	0.174365	0.174129
C105	C	0.909874	0.507698	0.507462
C106	C	0.266663	-0.187745	-0.187880
C107	C	0.599996	0.145588	0.145454
C108	C	0.933330	0.478922	0.478787
C109	C	0.313570	-0.187749	-0.187865
C110	C	0.646904	0.145585	0.145468
C111	C	0.980237	0.478918	0.478801
N112	N	0.337029	-0.216520	-0.216542
N113	N	0.670362	0.116814	0.116791
N114	N	1.003695	0.450147	0.450125
C115	C	0.313569	-0.245295	-0.245222
C116	C	0.646902	0.088038	0.088111
C117	C	0.980235	0.421372	0.421444
C118	C	-0.113379	-0.187776	-0.187912
C119	C	0.219955	0.145557	0.145421
C120	C	0.553288	0.478891	0.478754
C121	C	-0.160297	-0.187780	-0.187916
C122	C	0.173037	0.145553	0.145417
C123	C	0.506370	0.478887	0.478751
C124	C	-0.160298	-0.245329	-0.245275
C125	C	0.173035	0.088004	0.088058
C126	C	0.506368	0.421337	0.421392
C127	C	-0.113380	-0.245327	-0.245269
C128	C	0.219954	0.088006	0.088065
C129	C	0.553287	0.421339	0.421398
C130	C	-0.089921	-0.216547	-0.216589
C131	C	0.243413	0.116786	0.116744
C132	C	0.576746	0.450119	0.450078
C133	C	0.412095	-0.245290	-0.245205
C134	C	0.745428	0.088044	0.088128
C135	C	1.078761	0.421377	0.421462
C136	C	0.459014	-0.245287	-0.245194
C137	C	0.792348	0.088047	0.088139
C138	C	1.125681	0.421380	0.421472
C139	C	0.459012	-0.187736	-0.187837
C140	C	0.792345	0.145597	0.145496
C141	C	1.125678	0.478931	0.478830
C142	C	0.412096	-0.187740	-0.187846
C143	C	0.745430	0.145593	0.145487
C144	C	1.078763	0.478926	0.478821
C145	C	0.388639	-0.216519	-0.216534
C146	C	0.721972	0.116815	0.116800
C147	C	1.055306	0.450148	0.450133
O148	O	0.337873	-0.163299	-0.163477
O149	O	0.671206	0.170034	0.169856
O150	O	1.004540	0.503367	0.503190
O151	O	0.337836	-0.269759	-0.269613
O152	O	0.671169	0.063574	0.063720
O153	O	1.004502	0.396908	0.397054
C154	C	0.125905	-0.245304	-0.245247
C155	C	0.459238	0.088029	0.088086
C156	C	0.792571	0.421362	0.421420
C157	C	0.102449	-0.216531	-0.216574
C158	C	0.435782	0.116803	0.116760
C159	C	0.769116	0.450136	0.450093
C160	C	0.125909	-0.187755	-0.187893
C161	C	0.459242	0.145578	0.145440
C162	C	0.792575	0.478911	0.478773
C163	C	0.055531	-0.216535	-0.216577
C164	C	0.388864	0.116798	0.116756
C165	C	0.722198	0.450132	0.450089
C166	C	0.032071	-0.245310	-0.245258
C167	C	0.365405	0.088023	0.088076
C168	C	0.698738	0.421356	0.421409
C169	C	0.055529	-0.274082	-0.273934
C170	C	0.388863	0.059252	0.059399
C171	C	0.722196	0.392585	0.392732
C172	C	0.102445	-0.274080	-0.273927
C173	C	0.435778	0.059253	0.059406
C174	C	0.769112	0.392587	0.392739
C175	C	0.102451	-0.158984	-0.159217
C176	C	0.435784	0.174349	0.174117
C177	C	0.769117	0.507682	0.507450
C178	C	0.055535	-0.158989	-0.159226
C179	C	0.388868	0.174345	0.174108
C180	C	0.722202	0.507678	0.507441
C181	C	0.032075	-0.187764	-0.187906
C182	C	0.365409	0.145569	0.145427
C183	C	0.698742	0.478903	0.478761
C184	C	0.677914	-0.692821	-0.187866
C185	C	1.011247	-0.359488	0.145467
C186	C	1.344580	-0.026155	0.478801
C187	C	0.677969	-0.880494	-0.187883
C188	C	1.011303	-0.547161	0.145450
C189	C	1.344636	-0.213828	0.478783
O190	O	0.702441	-0.904753	-0.163493
O191	O	1.035774	-0.571420	0.169841
O192	O	1.369107	-0.238087	0.503174
N193	N	0.649224	-0.903970	-0.216583
N194	N	0.982557	-0.570636	0.116750
N195	N	1.315891	-0.237303	0.450083
C196	C	0.620465	-0.880524	-0.245283
C197	C	0.953799	-0.547191	0.088050
C198	C	1.287132	-0.213857	0.421384
O199	O	0.596020	-0.904798	-0.269698
O200	O	0.929354	-0.571464	0.063635
O201	O	1.262687	-0.238131	0.396969
C202	C	0.620412	-0.692852	-0.245268
C203	C	0.953746	-0.359519	0.088066
C204	C	1.287079	-0.026185	0.421399
C205	C	0.649156	-0.669379	-0.216563
C206	C	0.982489	-0.336045	0.116771
C207	C	1.315823	-0.002712	0.450104
C208	C	0.706656	-0.669348	-0.159164
C209	C	1.039989	-0.336015	0.174170
C210	C	1.373322	-0.002681	0.507503
C211	C	0.706640	-0.622433	-0.159158
C212	C	1.039973	-0.289099	0.174176
C213	C	1.373306	0.044234	0.507509
C214	C	0.677882	-0.598990	-0.187854
C215	C	1.011215	-0.265657	0.145479
C216	C	1.344549	0.067676	0.478812
C217	C	0.649140	-0.622463	-0.216557
C218	C	0.982474	-0.289130	0.116777
C219	C	1.315807	0.044203	0.450110
C220	C	0.591656	-0.669407	-0.273969
C221	C	0.924989	-0.336074	0.059364
C222	C	1.258323	-0.002740	0.392697
C223	C	0.591646	-0.622486	-0.273964
C224	C	0.924979	-0.289153	0.059370
C225	C	1.258313	0.044181	0.392703
C226	C	0.620390	-0.599013	-0.245259
C227	C	0.953723	-0.265680	0.088075
C228	C	1.287057	0.067654	0.421408
C229	C	0.620367	-0.552106	-0.245248
C230	C	0.953700	-0.218772	0.088086
C231	C	1.287033	0.114561	0.421419
N232	N	0.649112	-0.528630	-0.216548
N233	N	0.982445	-0.195297	0.116786
N234	N	1.315778	0.138037	0.450119
C235	C	0.677869	-0.552072	-0.187851
C236	C	1.011203	-0.218739	0.145482
C237	C	1.344536	0.114594	0.478816
C238	C	0.620494	-0.979055	-0.245289
C239	C	0.953828	-0.645721	0.088045
C240	C	1.287161	-0.312388	0.421378
C241	C	0.620507	-1.025973	-0.245292
C242	C	0.953840	-0.692639	0.088041
C243	C	1.287174	-0.359306	0.421375
C244	C	0.678012	-1.025939	-0.187893
C245	C	1.011345	-0.692606	0.145441
C246	C	1.344678	-0.359273	0.478774
C247	C	0.677996	-0.979021	-0.187887
C248	C	1.011330	-0.645687	0.145446
C249	C	1.344663	-0.312354	0.478779
C250	C	0.649239	-0.955579	-0.216589
C251	C	0.982573	-0.622246	0.116745
C252	C	1.315906	-0.288913	0.450078
C253	C	0.677834	-0.453547	-0.187841
C254	C	1.011167	-0.120213	0.145493
C255	C	1.344500	0.213120	0.478826
C256	C	0.677814	-0.406627	-0.187836
C257	C	1.011147	-0.073294	0.145497
C258	C	1.344481	0.260040	0.478831
C259	C	0.620311	-0.406664	-0.245237
C260	C	0.953644	-0.073331	0.088097
C261	C	1.286978	0.260002	0.421430
C262	C	0.620329	-0.453580	-0.245240
C263	C	0.953662	-0.120246	0.088093
C264	C	1.286996	0.213087	0.421427
C265	C	0.649094	-0.477020	-0.216540
C266	C	0.982427	-0.143686	0.116793
C267	C	1.315761	0.189647	0.450126
O268	O	0.595912	-0.527818	-0.269629
O269	O	0.929245	-0.194484	0.063704
O270	O	1.262578	0.138849	0.397038
O271	O	0.702318	-0.527791	-0.163447
O272	O	1.035651	-0.194457	0.169886
O273	O	1.368984	0.138876	0.503220
C274	C	0.677930	-0.739737	-0.187872
C275	C	1.011263	-0.406403	0.145462
C276	C	1.344596	-0.073070	0.478795
C277	C	0.649188	-0.763210	-0.216574
C278	C	0.982521	-0.429876	0.116759
C279	C	1.315855	-0.096543	0.450093
C280	C	0.620430	-0.739767	-0.245271
C281	C	0.953764	-0.406434	0.088063
C282	C	1.287097	-0.073101	0.421396
C283	C	0.649200	-0.810128	-0.216578
C284	C	0.982534	-0.476794	0.116756
C285	C	1.315867	-0.143461	0.450089
C286	C	0.677958	-0.833570	-0.187881
C287	C	1.011291	-0.500237	0.145452
C288	C	1.344625	-0.166903	0.478786
C289	C	0.706703	-0.810094	-0.159181
C290	C	1.040037	-0.476761	0.174152
C291	C	1.373370	-0.143428	0.507486
C292	C	0.706687	-0.763179	-0.159175
C293	C	1.040021	-0.429846	0.174158
C294	C	1.373354	-0.096512	0.507492
C295	C	0.591685	-0.763243	-0.273971
C296	C	0.925018	-0.429910	0.059363
C297	C	1.258352	-0.096576	0.392696
C298	C	0.591703	-0.810158	-0.273974
C299	C	0.925036	-0.476825	0.059360
C300	C	1.258370	-0.143492	0.392693
C301	C	0.620461	-0.833601	-0.245277
C302	C	0.953794	-0.500267	0.088056
C303	C	1.287127	-0.166934	0.421389
C304	C	0.766309	-0.216547	-0.216582
C305	C	1.099643	0.116786	0.116751
C306	C	1.432976	0.450120	0.450084
C307	C	0.816244	-0.216555	-0.216596
C308	C	1.149577	0.116778	0.116737
C309	C	1.482910	0.450111	0.450070
C310	C	0.649143	-0.216524	-0.333728
C311	C	0.982476	0.116810	-0.000395
C312	C	1.315810	0.450143	0.332939
C313	C	0.649148	-0.216522	-0.383662
C314	C	0.982482	0.116811	-0.050329
C315	C	1.315815	0.450145	0.283004
C316	C	0.649225	-0.099349	-0.216582
C317	C	0.982558	0.233984	0.116752
C318	C	1.315891	0.567317	0.450085
C319	C	0.649265	-0.049415	-0.216595
C320	C	0.982598	0.283918	0.116738
C321	C	1.315931	0.617252	0.450071
C322	C	0.677935	-0.187718	-0.693325
C323	C	1.011268	0.145615	-0.359991
C324	C	1.344602	0.478949	-0.026658
C325	C	0.677957	-0.187680	-0.880998
C326	C	1.011291	0.145654	-0.547665
C327	C	1.344624	0.478987	-0.214331
O328	O	0.702399	-0.163232	-0.905279
O329	O	1.035733	0.170101	-0.571946
O330	O	1.369066	0.503435	-0.238612
N331	N	0.649208	-0.216402	-0.904448
N332	N	0.982541	0.116932	-0.571114
N333	N	1.315875	0.450265	-0.237781
C334	C	0.620449	-0.245133	-0.880976
C335	C	0.953782	0.088200	-0.547643
C336	C	1.287115	0.421533	-0.214310
O337	O	0.595993	-0.269559	-0.905228
O338	O	0.929326	0.063774	-0.571895
O339	O	1.262659	0.397108	-0.238561
C340	C	0.620424	-0.245169	-0.693304
C341	C	0.953758	0.088164	-0.359971
C342	C	1.287091	0.421498	-0.026637
C343	C	0.649179	-0.216448	-0.669857
C344	C	0.982512	0.116885	-0.336523
C345	C	1.315846	0.450218	-0.003190
C346	C	0.706687	-0.158999	-0.669877
C347	C	1.040020	0.174334	-0.336544
C348	C	1.373354	0.507667	-0.003211
C349	C	0.706683	-0.159011	-0.622962
C350	C	1.040016	0.174323	-0.289629
C351	C	1.373349	0.507656	0.043705
C352	C	0.677927	-0.187741	-0.599494
C353	C	1.011260	0.145592	-0.266160
C354	C	1.344593	0.478926	0.067173
C355	C	0.649175	-0.216460	-0.622941
C356	C	0.982508	0.116874	-0.289608
C357	C	1.315842	0.450207	0.043726
C358	C	0.591663	-0.273898	-0.669833
C359	C	0.924997	0.059435	-0.336500
C360	C	1.258330	0.392769	-0.003167
C361	C	0.591659	-0.273903	-0.622912
C362	C	0.924992	0.059430	-0.289579
C363	C	1.258326	0.392763	0.043754
C364	C	0.620414	-0.245183	-0.599465
C365	C	0.953747	0.088151	-0.266132
C366	C	1.287080	0.421484	0.067202
C367	C	0.620415	-0.245202	-0.552558
C368	C	0.953748	0.088132	-0.219224
C369	C	1.287081	0.421465	0.114109
N370	N	0.649164	-0.216480	-0.529108
N371	N	0.982498	0.116854	-0.195774
N372	N	1.315831	0.450187	0.137559
C373	C	0.677920	-0.187749	-0.552576
C374	C	1.011254	0.145584	-0.219243
C375	C	1.344587	0.478917	0.114091
C376	C	0.620464	-0.245113	-0.979507
C377	C	0.953797	0.088220	-0.646173
C378	C	1.287131	0.421554	-0.312840
C379	C	0.620471	-0.245105	-1.026425
C380	C	0.953804	0.088229	-0.693091
C381	C	1.287137	0.421562	-0.359758
C382	C	0.677979	-0.187650	-1.026443
C383	C	1.011312	0.145683	-0.693110
C384	C	1.344645	0.479016	-0.359777
C385	C	0.677974	-0.187661	-0.979524
C386	C	1.011308	0.145672	-0.646191
C387	C	1.344641	0.479005	-0.312858
C388	C	0.649214	-0.216391	-0.956057
C389	C	0.982547	0.116942	-0.622724
C390	C	1.315880	0.450276	-0.289390
C391	C	0.677910	-0.187776	-0.454050
C392	C	1.011243	0.145557	-0.120717
C393	C	1.344576	0.478891	0.212617
C394	C	0.677904	-0.187792	-0.407130
C395	C	1.011238	0.145542	-0.073797
C396	C	1.344571	0.478875	0.259536
C397	C	0.620395	-0.245244	-0.407116
C398	C	0.953728	0.088089	-0.073783
C399	C	1.287061	0.421423	0.259551
C400	C	0.620401	-0.245230	-0.454032
C401	C	0.953735	0.088103	-0.120698
C402	C	1.287068	0.421436	0.212635
C403	C	0.649161	-0.216493	-0.477497
C404	C	0.982494	0.116840	-0.144164
C405	C	1.315827	0.450174	0.189169
O406	O	0.595982	-0.269633	-0.528248
O407	O	0.929315	0.063700	-0.194914
O408	O	1.262649	0.397034	0.138419
O409	O	0.702366	-0.163320	-0.528316
O410	O	1.035699	0.170013	-0.194983
O411	O	1.369032	0.503346	0.138350
C412	C	0.677939	-0.187706	-0.740240
C413	C	1.011273	0.145627	-0.406907
C414	C	1.344606	0.478960	-0.073574
C415	C	0.649187	-0.216425	-0.763688
C416	C	0.982521	0.116908	-0.430354
C417	C	1.315854	0.450242	-0.097021
C418	C	0.620431	-0.245155	-0.740219
C419	C	0.953765	0.088178	-0.406886
C420	C	1.287098	0.421511	-0.073553
C421	C	0.649194	-0.216417	-0.810605
C422	C	0.982527	0.116917	-0.477272
C423	C	1.315861	0.450250	-0.143939
C424	C	0.677950	-0.187686	-0.834074
C425	C	1.011283	0.145647	-0.500740
C426	C	1.344617	0.478980	-0.167407
C427	C	0.706699	-0.158964	-0.810624
C428	C	1.040033	0.174369	-0.477291
C429	C	1.373366	0.507702	-0.143957
C430	C	0.706695	-0.158976	-0.763708
C431	C	1.040029	0.174357	-0.430375
C432	C	1.373362	0.507691	-0.097042
C433	C	0.591682	-0.273877	-0.763669
C434	C	0.925015	0.059456	-0.430336
C435	C	1.258349	0.392789	-0.097002
C436	C	0.591689	-0.273864	-0.810585
C437	C	0.925022	0.059470	-0.477251
C438	C	1.258355	0.392803	-0.143918
C439	C	0.620445	-0.245133	-0.834053
C440	C	0.953778	0.088200	-0.500719
C441	C	1.287111	0.421533	-0.167386
C442	C	0.649145	-0.216499	-0.099827
C443	C	0.982478	0.116834	0.233506
C444	C	1.315811	0.450167	0.566840
C445	C	0.649227	-0.216374	-0.049893
C446	C	0.982560	0.116959	0.283440
C447	C	1.315893	0.450292	0.616774
H448	H	0.478110	-0.268721	-0.268545
H449	H	0.811443	0.064612	0.064788
H450	H	1.144776	0.397945	0.398121
Cl451	Cl	0.714133	-0.949517	-0.151800
Cl452	Cl	1.047467	-0.616183	0.181533
Cl453	Cl	1.380800	-0.282850	0.514866
H454	H	0.701393	-0.164257	-1.045559
H455	H	1.034727	0.169076	-0.712226
H456	H	1.368060	0.502409	-0.378892
H457	H	0.392998	-0.164309	-0.164496
H458	H	0.726331	0.169024	0.168838
H459	H	1.059664	0.502357	0.502171
Cl460	Cl	0.555527	-0.309999	-0.734173
Cl461	Cl	0.888861	0.023334	-0.400840
Cl462	Cl	1.222194	0.356667	-0.067507
H463	H	0.730117	-0.829189	-0.135814
H464	H	1.063451	-0.495856	0.197519
H465	H	1.396784	-0.162523	0.530853
H466	H	0.701388	-0.164274	-0.960437
H467	H	1.034721	0.169060	-0.627103
H468	H	1.368055	0.502393	-0.293770
Cl469	Cl	0.555500	-0.310023	-0.593413
Cl470	Cl	0.888833	0.023311	-0.260080
Cl471	Cl	1.222167	0.356644	0.073253
H472	H	0.568248	-0.297285	-0.688916
H473	H	0.901582	0.036048	-0.355583
H474	H	1.234915	0.369381	-0.022249
Cl475	Cl	0.584255	-0.281339	-0.483509
Cl476	Cl	0.917588	0.051994	-0.150176
Cl477	Cl	1.250922	0.385328	0.183158
Cl478	Cl	0.026028	-0.310258	-0.309987
Cl479	Cl	0.359361	0.023076	0.023346
Cl480	Cl	0.692695	0.356409	0.356679
Cl481	Cl	0.584327	-0.281219	-1.055895
Cl482	Cl	0.917661	0.052114	-0.722562
Cl483	Cl	1.250994	0.385447	-0.389229
H484	H	0.730047	-0.603324	-0.135785
H485	H	1.063380	-0.269990	0.197548
H486	H	1.396713	0.063343	0.530882
H487	H	0.036441	-0.135556	-0.135871
H488	H	0.369775	0.197777	0.197463
H489	H	0.703108	0.531111	0.530796
Cl490	Cl	-0.189778	-0.151608	-0.151860
Cl491	Cl	0.143555	0.181725	0.181474
Cl492	Cl	0.476889	0.515058	0.514807
Cl493	Cl	0.584245	-0.281359	-0.377604
Cl494	Cl	0.917578	0.051975	-0.044271
Cl495	Cl	1.250911	0.385308	0.289062
Cl496	Cl	-0.083894	-0.151592	-0.151854
Cl497	Cl	0.249439	0.181742	0.181480
Cl498	Cl	0.582773	0.515075	0.514813
H499	H	0.730076	-0.688430	-0.135795
H500	H	1.063409	-0.355097	0.197538
H501	H	1.396743	-0.021763	0.530871
Cl502	Cl	0.713952	-0.377121	-0.151747
Cl503	Cl	1.047285	-0.043788	0.181586
Cl504	Cl	1.380618	0.289546	0.514920
H505	H	0.730110	-0.135588	-0.744622
H506	H	1.063443	0.197745	-0.411288
H507	H	1.396777	0.531078	-0.077955
Cl508	Cl	0.713995	-0.483007	-0.151760
Cl509	Cl	1.047328	-0.149673	0.181573
Cl510	Cl	1.380662	0.183660	0.514907
H511	H	0.597097	-1.045080	-0.268662
H512	H	0.930430	-0.711747	0.064671
H513	H	1.263763	-0.378414	0.398004
Cl514	Cl	0.742851	-0.122848	-0.840136
Cl515	Cl	1.076184	0.210485	-0.506802
Cl516	Cl	1.409517	0.543819	-0.173469
Cl517	Cl	0.555529	-0.733780	-0.310050
Cl518	Cl	0.888862	-0.400446	0.023283
Cl519	Cl	1.222195	-0.067113	0.356616
H520	H	0.177197	-0.135539	-0.135854
H521	H	0.510530	0.197794	0.197480
H522	H	0.843863	0.531128	0.530813
H523	H	0.262305	-0.135529	-0.135852
H524	H	0.595638	0.197804	0.197481
H525	H	0.928972	0.531137	0.530815
Cl526	Cl	0.382613	-0.281469	-0.281269
Cl527	Cl	0.715946	0.051864	0.052064
Cl528	Cl	1.049279	0.385197	0.385397
Cl529	Cl	0.584338	-0.949592	-0.281373
Cl530	Cl	0.917671	-0.616259	0.051960
Cl531	Cl	1.251004	-0.282925	0.385294
H532	H	0.568274	-0.297256	-0.829671
H533	H	0.901607	0.036077	-0.496338
H534	H	1.234941	0.369411	-0.163005
H535	H	-0.179407	-0.268759	-0.268628
H536	H	0.153926	0.064574	0.064706
H537	H	0.487260	0.397907	0.398039
Cl538	Cl	0.714163	-1.055418	-0.151817
Cl539	Cl	1.047497	-0.722085	0.181517
Cl540	Cl	1.380830	-0.388752	0.514850
Cl541	Cl	0.488513	-0.151563	-0.151784
Cl542	Cl	0.821846	0.181771	0.181549
Cl543	Cl	1.155179	0.515104	0.514882
H544	H	0.177180	-0.297509	-0.297271
H545	H	0.510513	0.035824	0.036063
H546	H	0.843847	0.369158	0.369396
H547	H	0.262285	-0.297506	-0.297258
H548	H	0.595618	0.035827	0.036076
H549	H	0.928951	0.369160	0.369409
Cl550	Cl	-0.083897	-0.281503	-0.281320
Cl551	Cl	0.249436	0.051830	0.052014
Cl552	Cl	0.582769	0.385163	0.385347
H553	H	0.121538	-0.297512	-0.297278
H554	H	0.454872	0.035821	0.036055
H555	H	0.788205	0.369154	0.369389
H556	H	0.121547	-0.135551	-0.135861
H557	H	0.454880	0.197782	0.197472
H558	H	0.788213	0.531115	0.530805
H559	H	0.701321	-0.164403	-0.388042
H560	H	1.034655	0.168930	-0.054708
H561	H	1.367988	0.502263	0.278625
H562	H	0.568248	-0.688511	-0.297342
H563	H	0.901581	-0.355178	0.035991
H564	H	1.234914	-0.021844	0.369325
H565	H	0.730104	-0.135601	-0.688980
H566	H	1.063437	0.197732	-0.355647
H567	H	1.396770	0.531066	-0.022314
H568	H	0.568229	-0.603402	-0.297337
H569	H	0.901562	-0.270069	0.035996
H570	H	1.234896	0.063264	0.369330
H571	H	0.596925	-0.472692	-0.268615
H572	H	0.930258	-0.139359	0.064718
H573	H	1.263591	0.193974	0.398051
H574	H	0.596895	-0.387570	-0.268600
H575	H	0.930229	-0.054237	0.064733
H576	H	1.263562	0.279097	0.398067
H577	H	0.730093	-0.744071	-0.135801
H578	H	1.063427	-0.410737	0.197532
H579	H	1.396760	-0.077404	0.530866
H580	H	0.568292	-0.829266	-0.297349
H581	H	0.901626	-0.495933	0.035985
H582	H	1.234959	-0.162599	0.369318
Cl583	Cl	0.714062	-0.151646	-0.483543
Cl584	Cl	1.047396	0.181687	-0.150209
Cl585	Cl	1.380729	0.515020	0.183124
H586	H	0.730097	-0.135623	-0.603875
H587	H	1.063430	0.197711	-0.270542
H588	H	1.396764	0.531044	0.062791
H589	H	0.597044	-0.268511	-0.960404
H590	H	0.930377	0.064822	-0.627071
H591	H	1.263711	0.398156	-0.293737
