data_functionalizedCrystal
_audit_creation_method	'MofGen! by Chris Wilmer'
_symmetry_space_group_name_H-M	'P1'
_symmetry_Int_Tables_number	1
_symmetry_cell_setting	triclinic
loop_
_symmetry_equiv_pos_as_xyz
  x,y,z
_cell_length_a	16.992694
_cell_length_b	12.837942
_cell_length_c	16.053802
_cell_angle_alpha	92.838962
_cell_angle_beta	87.249047
_cell_angle_gamma	92.748582
loop_
_atom_site_label
_atom_site_type_symbol
_atom_site_fract_x
_atom_site_fract_y
_atom_site_fract_z
O1	O	1.059913	0.217066	-0.069322
O2	O	1.559913	0.717066	0.430678
O3	O	0.831447	0.214638	-0.069347
O4	O	1.331447	0.714638	0.430653
O5	O	0.940614	0.064530	-0.069330
O6	O	1.440614	0.564530	0.430670
O7	O	0.950746	0.367174	-0.069339
O8	O	1.450746	0.867174	0.430661
O9	O	0.934602	0.072756	0.069528
O10	O	1.434602	0.572756	0.569528
O11	O	0.825435	0.222864	0.069511
O12	O	1.325435	0.722864	0.569511
O13	O	1.053901	0.225292	0.069536
O14	O	1.553901	0.725292	0.569536
Zn15	Zn	0.938714	0.225384	0.091570
Zn16	Zn	1.438714	0.725384	0.591570
Zn17	Zn	0.946634	0.214546	-0.091381
Zn18	Zn	1.446634	0.714546	0.408619
O19	O	0.944734	0.375400	0.069519
O20	O	1.444734	0.875400	0.569519
C21	C	0.798996	0.215629	0.000079
C22	C	1.298996	0.715629	0.500079
C23	C	0.711256	0.206315	0.000070
C24	C	1.211256	0.706315	0.500070
C25	C	0.667730	0.296178	0.000068
C26	C	1.167730	0.796178	0.500068
C27	C	0.585288	0.287422	0.000079
C28	C	1.085288	0.787422	0.500079
C29	C	0.546375	0.188801	0.000087
C30	C	1.046375	0.688801	0.500087
C31	C	0.589907	0.098931	0.000092
C32	C	1.089907	0.598931	0.500092
C33	C	0.672346	0.107689	0.000086
C34	C	1.172346	0.607689	0.500086
C35	C	0.300064	0.152502	0.000111
C36	C	0.800064	0.652502	0.500111
C37	C	0.217618	0.143751	0.000114
C38	C	0.717618	0.643751	0.500114
C39	C	0.213006	0.332243	0.000103
C40	C	0.713006	0.832243	0.500103
C41	C	0.295447	0.340992	0.000092
C42	C	0.795447	0.840992	0.500092
C43	C	0.338972	0.251122	0.000101
C44	C	0.838972	0.751122	0.500101
N45	N	0.462107	0.179847	0.000097
N46	N	0.962107	0.679847	0.500097
N47	N	0.423238	0.260077	0.000098
N48	N	0.923238	0.760077	0.500098
C49	C	0.934185	0.029738	0.000098
C50	C	1.434185	0.529738	0.500098
C51	C	0.923977	-0.086184	0.000096
C52	C	1.423977	0.413816	0.500096
C53	C	1.046699	-0.316977	0.000092
C54	C	1.546699	0.183023	0.500092
C55	C	1.037111	-0.425897	0.000089
C56	C	1.537111	0.074103	0.500089
C57	C	0.895215	-0.412948	0.000082
C58	C	1.395215	0.087052	0.500082
C59	C	0.904802	-0.304027	0.000085
C60	C	1.404802	0.195973	0.500085
C61	C	0.980547	-0.256046	0.000091
C62	C	1.480547	0.243954	0.500091
C63	C	0.990134	-0.147123	0.000099
C64	C	1.490134	0.352877	0.500099
C65	C	0.848238	-0.134176	0.000086
C66	C	1.348238	0.365824	0.500086
C67	C	0.838650	-0.243097	0.000084
C68	C	1.338650	0.256903	0.500084
C69	C	1.086353	0.224300	0.000108
C70	C	1.586353	0.724300	0.500108
C71	C	1.174092	0.233614	0.000112
C72	C	1.674092	0.733614	0.500112
C73	C	0.951163	0.410191	0.000089
C74	C	1.451163	0.910191	0.500089
C75	C	0.961371	0.526114	0.000086
C76	C	1.461371	1.026114	0.500086
N77	N	0.933314	0.232780	0.216430
N78	N	1.433314	0.732780	0.716430
N79	N	0.952040	0.207141	-0.216241
N80	N	1.452040	0.707141	0.283759
C81	C	0.979785	0.168935	0.260131
C82	C	1.479785	0.668935	0.760131
C83	C	0.976016	0.174120	0.347537
C84	C	1.476016	0.674120	0.847537
C85	C	0.925779	0.243156	0.391240
C86	C	1.425779	0.743156	0.891240
C87	C	0.879303	0.307004	0.347533
C88	C	1.379303	0.807004	0.847533
C89	C	0.883068	0.301813	0.260129
C90	C	1.383068	0.801813	0.760129
C91	C	0.909329	0.265799	0.652647
C92	C	1.409329	0.765799	1.152647
C93	C	0.905569	0.270987	0.740058
C94	C	1.405569	0.770987	1.240058
C95	C	1.002281	0.138101	0.740056
C96	C	1.502281	0.638101	1.240056
C97	C	1.006046	0.132921	0.652650
C98	C	1.506046	0.632921	1.152650
C99	C	0.959566	0.196765	0.608950
C100	C	1.459566	0.696765	1.108950
N101	N	0.921927	0.248459	0.480584
N102	N	1.421927	0.748459	0.980584
N103	N	0.963414	0.191455	0.519608
N104	N	1.463414	0.691455	1.019608
H105	H	0.327125	0.421299	0.000076
H106	H	0.827125	0.921299	0.500076
N107	N	0.813525	-0.464707	0.000070
N108	N	1.313525	0.035293	0.500070
H109	H	0.808616	-0.512651	-0.051409
H110	H	1.308616	-0.012651	0.448591
H111	H	0.804209	-0.506512	0.051575
H112	H	1.304209	-0.006512	0.551575
H113	H	1.040121	0.086121	0.775644
H114	H	1.540121	0.586121	1.275644
N115	N	0.719299	0.010768	0.000083
N116	N	1.219299	0.510768	0.500083
H117	H	0.751384	0.013254	0.051557
H118	H	1.251384	0.513254	0.551557
H119	H	0.682092	-0.052987	0.000055
H120	H	1.182092	0.447013	0.500055
H121	H	1.046952	0.076706	0.617068
H122	H	1.546952	0.576706	1.117068
N123	N	0.832942	0.370668	0.212989
N124	N	1.332942	0.870668	0.712989
H125	H	0.800546	0.415191	0.253936
H126	H	1.300546	0.915191	0.753936
H127	H	0.868150	0.417155	0.176712
H128	H	1.368150	0.917155	0.676712
N129	N	0.851391	0.345461	0.787199
N130	N	1.351391	0.845461	1.287199
H131	H	0.822518	0.385121	0.746253
H132	H	1.322518	0.885121	1.246253
H133	H	0.811969	0.304770	0.823481
H134	H	1.311969	0.804770	1.323481
N135	N	0.859195	0.334650	0.605521
N136	N	1.359195	0.834650	1.105521
H137	H	0.826802	0.379171	0.646472
H138	H	1.326802	0.879171	1.146472
H139	H	0.894399	0.381139	0.569241
H140	H	1.394399	0.881139	1.069241
N141	N	0.825112	0.381458	0.394666
N142	N	1.325112	0.881458	0.894666
H143	H	0.829778	0.375061	0.456668
H144	H	1.329778	0.875061	0.956668
H145	H	0.840408	0.455310	0.379376
H146	H	1.340408	0.955310	0.879376
H147	H	1.090979	-0.475503	0.000087
H148	H	1.590979	0.024497	0.500087
H149	H	0.549853	0.360598	0.000077
H150	H	1.049853	0.860598	0.500077
N151	N	0.709699	0.402548	0.000049
N152	N	1.209699	0.902548	0.500049
H153	H	0.669612	0.458146	0.000050
H154	H	1.169612	0.958146	0.500050
H155	H	0.741584	0.413342	0.051521
H156	H	1.241584	0.913342	0.551521
N157	N	0.166071	0.429177	0.000103
N158	N	0.666071	0.929177	0.500103
H159	H	0.133982	0.426706	-0.051367
H160	H	0.633982	0.926706	0.448633
H161	H	0.129591	0.432745	0.051616
H162	H	0.629591	0.932745	0.551616
N163	N	0.175645	0.037376	0.000117
N164	N	0.675645	0.537376	0.500117
H165	H	0.215726	-0.018228	0.000123
H166	H	0.715726	0.481772	0.500123
H167	H	0.139315	0.032692	0.051593
H168	H	0.639315	0.532692	0.551593
N169	N	0.756959	-0.294851	0.000075
N170	N	1.256959	0.205149	0.500075
H171	H	0.760921	-0.373098	0.000073
H172	H	1.260921	0.126902	0.500073
H173	H	0.725430	-0.269940	0.051553
H174	H	1.225430	0.230060	0.551553
H175	H	1.051809	-0.108058	0.000107
H176	H	1.551809	0.391942	0.500107
N177	N	1.128389	-0.265216	0.000112
N178	N	1.628389	0.234784	0.500112
H179	H	1.159972	-0.290041	-0.051357
H180	H	1.659972	0.209959	0.448643
H181	H	1.124353	-0.186982	0.000147
H182	H	1.624353	0.313018	0.500147
H183	H	0.335492	0.079324	0.000119
H184	H	0.835492	0.579324	0.500119
H185	H	1.020697	0.112723	0.224553
H186	H	1.520697	0.612723	0.724553
N187	N	0.547940	-0.007440	0.000114
N188	N	1.047940	0.492560	0.500114
H189	H	0.489110	0.000646	0.000117
H190	H	0.989110	0.500646	0.500117
H191	H	0.565578	-0.050121	-0.051359
H192	H	1.065578	0.449879	0.448641
N193	N	1.026168	0.105296	0.394673
N194	N	1.526168	0.605296	0.894673
H195	H	1.058578	0.060793	0.353724
H196	H	1.558578	0.560793	0.853724
H197	H	1.062456	0.150341	0.430912
H198	H	1.562456	0.650341	0.930912
N199	N	0.776882	-0.068459	0.000090
N200	N	1.276882	0.431541	0.500090
H201	H	0.794446	0.007824	0.000095
H202	H	1.294446	0.507824	0.500095
H203	H	0.746450	-0.087713	-0.051388
H204	H	1.246450	0.412287	0.448612
