data_functionalizedCrystal
_audit_creation_method	'MofGen! by Chris Wilmer'
_symmetry_space_group_name_H-M	'P1'
_symmetry_Int_Tables_number	1
_symmetry_cell_setting	triclinic
loop_
_symmetry_equiv_pos_as_xyz
  x,y,z
_cell_length_a	14.971487
_cell_length_b	26.210047
_cell_length_c	27.732048
_cell_angle_alpha	90.000479
_cell_angle_beta	96.871471
_cell_angle_gamma	89.997125
loop_
_atom_site_label
_atom_site_type_symbol
_atom_site_fract_x
_atom_site_fract_y
_atom_site_fract_z
O1	O	-1.185956	0.042362	0.062984
O2	O	-0.685956	0.542362	0.562984
O3	O	-0.925437	0.042379	0.070527
O4	O	-0.425437	0.542379	0.570527
O5	O	-1.063788	0.042360	-0.003603
O6	O	-0.563788	0.542360	0.496397
O7	O	-1.047606	0.042381	0.137115
O8	O	-0.547606	0.542381	0.637115
O9	O	-1.063761	-0.042498	-0.003592
O10	O	-0.563761	0.457502	0.496408
O11	O	-0.925410	-0.042479	0.070539
O12	O	-0.425410	0.457521	0.570539
O13	O	-1.185930	-0.042496	0.062996
O14	O	-0.685930	0.457504	0.562996
Cu15	Cu	-1.055668	-0.050236	0.066769
Cu16	Cu	-0.555668	0.449764	0.566769
Cu17	Cu	-1.055699	0.050119	0.066755
Cu18	Cu	-0.555699	0.550119	0.566755
O19	O	-1.047579	-0.042477	0.137127
O20	O	-0.547579	0.457523	0.637127
C21	C	-0.892104	-0.000047	0.070196
C22	C	-0.392104	0.499953	0.570196
C23	C	-0.792823	-0.000041	0.069185
C24	C	-0.292823	0.499959	0.569185
C25	C	-0.734910	-0.000035	0.112735
C26	C	-0.234910	0.499965	0.612735
C27	C	-0.641626	-0.000041	0.111782
C28	C	-0.141626	0.499959	0.611782
C29	C	-0.606256	-0.000051	0.067278
C30	C	-0.106256	0.499949	0.567278
C31	C	-0.664177	-0.000058	0.023725
C32	C	-0.164177	0.499942	0.523725
C33	C	-0.757460	-0.000056	0.024679
C34	C	-0.257460	0.499944	0.524679
C35	C	-0.469746	-0.000063	0.021741
C36	C	0.030254	0.499937	0.521741
C37	C	-0.376457	-0.000065	0.020787
C38	C	0.123543	0.499935	0.520787
C39	C	-0.353912	-0.000049	0.108844
C40	C	0.146088	0.499951	0.608844
C41	C	-0.447194	-0.000046	0.109798
C42	C	0.052806	0.499954	0.609798
C43	C	-0.505109	-0.000053	0.066244
C44	C	-0.005109	0.499947	0.566244
N45	N	-1.055652	-0.120820	0.066778
N46	N	-0.555652	0.379180	0.566778
C47	C	-1.116955	-0.473342	0.033937
C48	C	-0.616955	0.026658	0.533937
C49	C	-1.116974	-0.687001	0.033930
C50	C	-0.616974	-0.187001	0.533930
O51	O	-1.169062	-0.714630	0.006010
O52	O	-0.669062	-0.214630	0.506010
N53	N	-1.055704	-0.713714	0.066744
N54	N	-0.555704	-0.213714	0.566744
C55	C	-0.994421	-0.687008	0.099560
C56	C	-0.494421	-0.187008	0.599560
O57	O	-0.942301	-0.714632	0.127467
O58	O	-0.442301	-0.214632	0.627467
C59	C	-0.994397	-0.473351	0.099564
C60	C	-0.494397	0.026649	0.599564
C61	C	-1.055678	-0.446641	0.066751
C62	C	-0.555678	0.053359	0.566751
C63	C	-1.178229	-0.446632	0.001127
C64	C	-0.678229	0.053368	0.501127
C65	C	-1.178227	-0.393221	0.001131
C66	C	-0.678227	0.106779	0.501131
C67	C	-1.116950	-0.366519	0.033945
C68	C	-0.616950	0.133481	0.533945
C69	C	-1.055675	-0.393229	0.066755
C70	C	-0.555675	0.106771	0.566755
C71	C	-0.933110	-0.446647	0.132377
C72	C	-0.433110	0.053353	0.632377
C73	C	-0.933108	-0.393229	0.132374
C74	C	-0.433108	0.106771	0.632374
C75	C	-0.994389	-0.366519	0.099561
C76	C	-0.494389	0.133481	0.599561
C77	C	-0.994396	-0.313116	0.099573
C78	C	-0.494396	0.186884	0.599573
N79	N	-1.055666	-0.286404	0.066759
N80	N	-0.555666	0.213596	0.566759
C81	C	-1.116943	-0.313105	0.033945
C82	C	-0.616943	0.186895	0.533945
C83	C	-0.994438	-0.799182	0.099556
C84	C	-0.494438	-0.299182	0.599556
C85	C	-0.994445	-0.852596	0.099556
C86	C	-0.494445	-0.352596	0.599556
C87	C	-1.116998	-0.852585	0.033926
C88	C	-0.616998	-0.352585	0.533926
C89	C	-1.116995	-0.799169	0.033929
C90	C	-0.616995	-0.299169	0.533929
C91	C	-1.055709	-0.772469	0.066742
C92	C	-0.555709	-0.272469	0.566742
C93	C	-1.116934	-0.200937	0.033956
C94	C	-0.616934	0.299063	0.533956
C95	C	-1.116929	-0.147521	0.033964
C96	C	-0.616929	0.352479	0.533964
C97	C	-0.994373	-0.147537	0.099592
C98	C	-0.494373	0.352463	0.599592
C99	C	-0.994381	-0.200949	0.099586
C100	C	-0.494381	0.299051	0.599586
C101	C	-1.055665	-0.227647	0.066764
C102	C	-0.555665	0.272353	0.566764
O103	O	-0.942329	-0.285454	0.127475
O104	O	-0.442329	0.214546	0.627475
O105	O	-1.169042	-0.285472	0.006035
O106	O	-0.669042	0.214528	0.506035
C107	C	-1.116957	-0.526754	0.033933
C108	C	-0.616957	-0.026754	0.533933
C109	C	-1.055682	-0.553464	0.066744
C110	C	-0.555682	-0.053464	0.566744
C111	C	-0.994405	-0.526762	0.099558
C112	C	-0.494405	-0.026762	0.599558
C113	C	-1.055689	-0.606878	0.066743
C114	C	-0.555689	-0.106878	0.566743
C115	C	-1.116966	-0.633579	0.033929
C116	C	-0.616966	-0.133579	0.533929
C117	C	-1.178236	-0.606866	0.001115
C118	C	-0.678236	-0.106866	0.501115
C119	C	-1.178234	-0.553455	0.001119
C120	C	-0.678234	-0.053455	0.501119
C121	C	-0.933135	-0.553475	0.132372
C122	C	-0.433135	-0.053475	0.632372
C123	C	-0.933143	-0.606887	0.132366
C124	C	-0.433143	-0.106887	0.632366
C125	C	-0.994420	-0.633588	0.099551
C126	C	-0.494420	-0.133588	0.599551
C127	C	-0.219262	-0.000065	0.063327
C128	C	0.280738	0.499935	0.563327
C129	C	-0.318544	-0.000059	0.064337
C130	C	0.181456	0.499941	0.564337
C131	C	-1.063435	-0.000070	-0.021606
C132	C	-0.563435	0.499930	0.478394
C133	C	-1.062412	-0.000074	-0.075266
C134	C	-0.562412	0.499926	0.424734
N135	N	-1.055722	0.120703	0.066742
N136	N	-0.555722	0.620703	0.566742
C137	C	-1.137729	-0.000053	-0.413733
C138	C	-0.637729	0.499947	0.086267
C139	C	-1.133934	-0.000046	-0.615410
C140	C	-0.633934	0.499954	-0.115410
O141	O	-1.202806	-0.000028	-0.646348
O142	O	-0.702806	0.499972	-0.146348
N143	N	-1.051897	-0.000041	-0.634913
N144	N	-0.551897	0.499959	-0.134913
C145	C	-0.970804	-0.000034	-0.603992
C146	C	-0.470804	0.499966	-0.103992
O147	O	-0.900940	-0.000024	-0.625208
O148	O	-0.400940	0.499976	-0.125208
C149	C	-0.974600	-0.000038	-0.402316
C150	C	-0.474600	0.499962	0.097684
C151	C	-1.056642	-0.000048	-0.382817
C152	C	-0.556642	0.499952	0.117183
C153	C	-1.219764	-0.000063	-0.394233
C154	C	-0.719764	0.499937	0.105767
C155	C	-1.220712	-0.000067	-0.343817
C156	C	-0.720712	0.499933	0.156183
C157	C	-1.139625	-0.000062	-0.312901
C158	C	-0.639625	0.499938	0.187099
C159	C	-1.057590	-0.000053	-0.332401
C160	C	-0.557590	0.499947	0.167599
C161	C	-0.893508	-0.000028	-0.371397
C162	C	-0.393508	0.499972	0.128603
C163	C	-0.894464	-0.000027	-0.320975
C164	C	-0.394464	0.499973	0.179025
C165	C	-0.976506	-0.000037	-0.301476
C166	C	-0.476506	0.499963	0.198524
C167	C	-0.977451	-0.000052	-0.251068
C168	C	-0.477451	0.499948	0.248932
N169	N	-1.059487	-0.000057	-0.231565
N170	N	-0.559487	0.499943	0.268435
C171	C	-1.140574	-0.000062	-0.262482
C172	C	-0.640574	0.499938	0.237518
C173	C	-0.968817	-0.000033	-0.709876
C174	C	-0.468817	0.499967	-0.209876
C175	C	-0.967868	-0.000033	-0.760295
C176	C	-0.467868	0.499967	-0.260295
C177	C	-1.130998	-0.000044	-0.771709
C178	C	-0.630998	0.499956	-0.271709
C179	C	-1.131946	-0.000048	-0.721289
C180	C	-0.631946	0.499952	-0.221289
C181	C	-1.050853	-0.000038	-0.690373
C182	C	-0.550853	0.499962	-0.190373
C183	C	-1.142558	-0.000073	-0.156603
C184	C	-0.642558	0.499927	0.343397
C185	C	-1.143499	-0.000079	-0.106182
C186	C	-0.643499	0.499921	0.393818
C187	C	-0.980370	-0.000066	-0.094772
C188	C	-0.480370	0.499934	0.405228
C189	C	-0.979428	-0.000062	-0.145189
C190	C	-0.479428	0.499938	0.354811
C191	C	-1.060530	-0.000063	-0.176104
C192	C	-0.560530	0.499937	0.323896
O193	O	-0.908616	-0.000064	-0.220102
O194	O	-0.408616	0.499936	0.279898
O195	O	-1.210428	-0.000061	-0.241257
O196	O	-0.710428	0.499939	0.258743
C197	C	-1.136781	-0.000049	-0.464150
C198	C	-0.636781	0.499951	0.035850
C199	C	-1.054746	-0.000039	-0.483649
C200	C	-0.554746	0.499961	0.016351
C201	C	-0.973659	-0.000034	-0.452733
C202	C	-0.473659	0.499966	0.047267
C203	C	-1.053797	-0.000039	-0.534068
C204	C	-0.553797	0.499961	-0.034068
C205	C	-1.134884	-0.000044	-0.564985
C206	C	-0.634884	0.499956	-0.064985
C207	C	-1.216920	-0.000049	-0.545482
C208	C	-0.716920	0.499951	-0.045482
C209	C	-1.217868	-0.000054	-0.495066
C210	C	-0.717868	0.499946	0.004934
C211	C	-0.891623	-0.000029	-0.472236
C212	C	-0.391623	0.499971	0.027764
C213	C	-0.890681	-0.000025	-0.522652
C214	C	-0.390681	0.499975	-0.022652
C215	C	-0.971768	-0.000030	-0.553569
C216	C	-0.471768	0.499970	-0.053569
C217	C	-1.047932	-0.000046	0.155130
C218	C	-0.547932	0.499954	0.655130
C219	C	-1.048955	-0.000038	0.208789
C220	C	-0.548955	0.499962	0.708789
H221	H	-0.306753	-0.000046	0.144307
H222	H	0.193247	0.499954	0.644307
H223	H	-0.763699	-0.000027	0.148974
H224	H	-0.263699	0.499973	0.648974
H225	H	-0.883199	-0.371492	0.159095
H226	H	-0.383199	0.128508	0.659095
H227	H	-0.901061	-0.000034	-0.776166
H228	H	-0.401061	0.499966	-0.276166
H229	H	-1.166834	-0.125775	0.007244
H230	H	-0.666834	0.374225	0.507244
H231	H	-0.902778	-0.000026	-0.684708
H232	H	-0.402778	0.499974	-0.184708
H233	H	-0.804613	-0.000060	-0.010784
H234	H	-0.304613	0.499940	0.489216
H235	H	-0.944490	-0.222696	0.126310
H236	H	-0.444490	0.277304	0.626310
H237	H	-0.944485	-0.125788	0.126310
H238	H	-0.444485	0.374212	0.626310
H239	H	-0.594475	-0.000036	0.147244
H240	H	-0.094475	0.499964	0.647244
H241	H	-1.228134	-0.531711	-0.025600
H242	H	-0.728134	-0.031711	0.474400
H243	H	-0.914351	-0.000064	-0.069591
H244	H	-0.414351	0.499936	0.430409
H245	H	-0.883210	-0.468387	0.159096
H246	H	-0.383210	0.031613	0.659096
H247	H	-0.944554	-0.874340	0.126280
H248	H	-0.444554	-0.374340	0.626280
H249	H	-0.826701	-0.000016	-0.387264
H250	H	-0.326701	0.499984	0.112736
H251	H	-0.475988	-0.000034	0.146036
H252	H	0.024012	0.499966	0.646036
H253	H	-1.284675	-0.000062	-0.479194
H254	H	-0.784675	0.499938	0.020806
H255	H	-0.944530	-0.777446	0.126278
H256	H	-0.444530	-0.277446	0.626278
H257	H	-1.287518	-0.000074	-0.327946
H258	H	-0.787518	0.499926	0.172054
H259	H	-0.912624	-0.000068	-0.161066
H260	H	-0.412624	0.499932	0.338934
H261	H	-1.228134	-0.628615	-0.025602
H262	H	-0.728134	-0.128615	0.474398
H263	H	-0.347663	-0.000074	-0.015451
H264	H	0.152337	0.499926	0.484549
H265	H	-0.828427	-0.000019	-0.295805
H266	H	-0.328427	0.499981	0.204195
H267	H	-0.883243	-0.628630	0.159090
H268	H	-0.383243	-0.128630	0.659090
H269	H	-0.883235	-0.531739	0.159092
H270	H	-0.383235	-0.031739	0.659092
H271	H	-1.210310	-0.000089	-0.090309
H272	H	-0.710310	0.499911	0.409691
H273	H	-1.208599	-0.000072	-0.181769
H274	H	-0.708599	0.499928	0.318231
H275	H	-1.285798	-0.000065	-0.419401
H276	H	-0.785798	0.499935	0.080599
H277	H	-0.516898	-0.000070	-0.013725
H278	H	-0.016898	0.499930	0.486275
H279	H	-1.198751	-0.000055	-0.705417
H280	H	-0.698751	0.499945	-0.205417
H281	H	-1.197022	-0.000048	-0.796890
H282	H	-0.697022	0.499952	-0.296890
H283	H	-0.635373	-0.000073	-0.012510
H284	H	-0.135373	0.499927	0.487490
H285	H	-1.282944	-0.000055	-0.570663
H286	H	-0.782944	0.499945	-0.070663
H287	H	-0.823868	-0.000021	-0.538523
H288	H	-0.323868	0.499979	-0.038523
H289	H	-0.825590	-0.000023	-0.447068
H290	H	-0.325590	0.499977	0.052932
H291	H	-1.166836	-0.222669	0.007228
H292	H	-0.666836	0.277331	0.507228
H293	H	-1.228124	-0.371476	-0.025590
H294	H	-0.728124	0.128524	0.474410
H295	H	-1.166894	-0.777425	0.007210
H296	H	-0.666894	-0.277425	0.507210
H297	H	-1.228128	-0.468368	-0.025597
H298	H	-0.728128	0.031632	0.474403
H299	H	-1.166894	-0.874334	0.007208
H300	H	-0.666894	-0.374334	0.507208
