data_functionalizedCrystal
_audit_creation_method	'MofGen! by Chris Wilmer'
_symmetry_space_group_name_H-M	'P1'
_symmetry_Int_Tables_number	1
_symmetry_cell_setting	triclinic
loop_
_symmetry_equiv_pos_as_xyz
  x,y,z
_cell_length_a	16.992694
_cell_length_b	16.974813
_cell_length_c	16.176319
_cell_angle_alpha	86.338635
_cell_angle_beta	89.998387
_cell_angle_gamma	87.024634
loop_
_atom_site_label
_atom_site_type_symbol
_atom_site_fract_x
_atom_site_fract_y
_atom_site_fract_z
O1	O	1.040214	0.167652	-0.079857
O2	O	0.811931	0.165813	-0.079758
O3	O	0.932436	0.052031	-0.072129
O4	O	0.919709	0.281434	-0.087486
O5	O	0.932420	0.052022	0.065364
O6	O	0.811914	0.165804	0.057735
O7	O	1.040198	0.167643	0.057637
Cu8	Cu	0.926055	0.166723	0.070240
Cu9	Cu	0.926074	0.166733	-0.092362
O10	O	0.919693	0.281425	0.050008
C11	C	0.782713	0.163442	-0.010856
C12	C	0.695676	0.156383	-0.010393
C13	C	0.645363	0.224498	-0.014952
C14	C	0.563583	0.217860	-0.014496
C15	C	0.532119	0.143106	-0.009488
C16	C	0.582439	0.074985	-0.004926
C17	C	0.664217	0.081624	-0.005376
C18	C	0.288551	0.115591	-0.007624
C19	C	0.206766	0.108957	-0.007177
C20	C	0.187916	0.251834	-0.016746
C21	C	0.269696	0.258466	-0.017200
C22	C	0.320009	0.190345	-0.012634
N23	N	0.448527	0.136319	-0.009024
N24	N	0.403599	0.197132	-0.013092
C25	C	0.931944	0.022537	-0.001411
C26	C	0.930491	-0.065332	0.004466
C27	C	0.929820	-0.106603	-0.067721
C28	C	0.928450	-0.189165	-0.062197
C29	C	0.927757	-0.230454	0.015514
C30	C	0.928426	-0.189177	0.087706
C31	C	0.929791	-0.106616	0.082181
C32	C	0.923671	-0.477374	0.040073
C33	C	0.922309	-0.559941	0.045592
C34	C	0.922331	-0.559924	-0.104312
C35	C	0.923700	-0.477362	-0.109829
C36	C	0.924365	-0.436091	-0.037637
N37	N	0.926360	-0.314846	0.021162
N38	N	0.925757	-0.351701	-0.043286
C39	C	1.069416	0.170014	-0.011267
C40	C	1.156453	0.177073	-0.011736
C41	C	0.920185	0.310919	-0.020713
C42	C	0.921638	0.398787	-0.026594
N43	N	0.926047	0.166715	0.184606
N44	N	0.926088	0.166735	-0.206727
C45	C	0.979422	0.116356	0.231247
C46	C	0.979426	0.116355	0.317794
C47	C	0.926058	0.166719	0.357698
C48	C	0.872676	0.217081	0.311052
C49	C	0.872669	0.217076	0.224506
C50	C	0.872703	0.217097	0.660079
C51	C	0.872716	0.217099	0.746630
C52	C	0.979460	0.116376	0.753366
C53	C	0.979453	0.116372	0.666821
C54	C	0.926069	0.166730	0.620182
C55	C	0.926065	0.166729	0.526338
C56	C	0.926065	0.166724	0.451541
H57	H	0.329506	0.060122	-0.003905
O58	O	1.031310	0.067551	0.363188
C59	C	1.138435	0.057571	0.461525
C60	C	1.079708	0.112931	0.410175
H61	H	1.177591	0.094239	0.499514
H62	H	1.104678	0.015926	0.504896
H63	H	1.176549	0.021558	0.418129
H64	H	1.041579	0.148995	0.453508
H65	H	1.113512	0.154524	0.366796
O66	O	0.930467	-0.066646	0.152386
C67	C	0.930228	-0.075366	0.301652
C68	C	0.929491	-0.120731	0.222210
H69	H	0.929422	-0.119073	0.358125
H70	H	0.985716	-0.040498	0.303142
H71	H	0.876030	-0.032930	0.302496
H72	H	0.983651	-0.163207	0.221314
H73	H	0.873967	-0.155546	0.220752
O74	O	0.514820	0.284109	-0.018968
C75	C	0.504754	0.426522	-0.028460
C76	C	0.560067	0.351558	-0.023422
H77	H	0.541313	0.481074	-0.032044
H78	H	0.466005	0.427044	-0.086044
H79	H	0.465985	0.426941	0.029044
H80	H	0.598884	0.351089	-0.080883
H81	H	0.598761	0.351065	0.034199
O82	O	0.713126	0.015479	-0.000806
C83	C	0.816431	-0.059925	0.075445
C84	C	0.761077	0.015009	0.070376
H85	H	0.855225	-0.060322	0.132981
H86	H	0.779936	-0.114523	0.079155
H87	H	0.855152	-0.060379	0.017907
H88	H	0.722345	0.015540	0.127899
H89	H	0.797619	0.069573	0.066625
H90	H	0.829204	0.258083	0.186532
H91	H	0.924228	-0.443783	0.098857
O92	O	0.300128	0.331144	-0.022029
C93	C	0.272798	0.472156	-0.031518
C94	C	0.238230	0.389898	-0.026030
H95	H	0.222771	0.519681	-0.034772
H96	H	0.310587	0.478884	0.025583
H97	H	0.310638	0.478796	-0.089492
H98	H	0.200354	0.383201	0.031909
H99	H	0.200486	0.383207	-0.083172
O100	O	0.930456	-0.066618	-0.143277
C101	C	0.930375	-0.075328	-0.291377
C102	C	0.929638	-0.120704	-0.205862
H103	H	0.929731	-0.119037	-0.341999
H104	H	0.876159	-0.032925	-0.298025
H105	H	0.985845	-0.040422	-0.297410
H106	H	0.874204	-0.155655	-0.199769
H107	H	0.983892	-0.163059	-0.199251
H108	H	0.924265	-0.443750	-0.173110
O109	O	0.927669	-0.229271	-0.132305
C110	C	0.858294	-0.317828	-0.213406
C111	C	0.859066	-0.272444	-0.133978
H112	H	0.802842	-0.352758	-0.214776
H113	H	0.858981	-0.274155	-0.269916
H114	H	0.912526	-0.360214	-0.214299
H115	H	0.804842	-0.230058	-0.133004
H116	H	0.858419	-0.316163	-0.077504
H117	H	0.146943	0.307293	-0.020462
H118	H	0.829254	0.258112	0.779119
O119	O	0.921558	-0.599927	-0.174488
C120	C	0.853198	-0.620549	-0.301189
C121	C	0.854000	-0.575173	-0.221757
H122	H	0.798575	-0.600565	-0.339419
H123	H	0.908269	-0.608078	-0.339055
H124	H	0.852135	-0.686645	-0.283863
H125	H	0.855036	-0.509065	-0.239008
H126	H	0.798934	-0.587709	-0.183912
H127	H	0.181152	0.048080	-0.003098
O128	O	0.551747	0.002428	-0.000099
C129	C	0.434121	-0.071121	0.004881
C130	C	0.468772	0.011099	-0.000605
H131	H	0.367031	-0.064139	0.004492
H132	H	0.454792	-0.105057	-0.050401
H133	H	0.454897	-0.105041	0.064679
H134	H	0.448012	0.045085	-0.060368
H135	H	0.448105	0.044975	0.054719
H136	H	1.022884	0.075347	0.198762
H137	H	0.829238	0.258102	0.622112
O138	O	0.921600	-0.599926	0.121151
C139	C	0.921761	-0.591238	0.269254
C140	C	0.922546	-0.545856	0.183743
H141	H	0.922542	-0.547544	0.319882
H142	H	0.866268	-0.626102	0.275377
H143	H	0.975954	-0.633679	0.275803
H144	H	0.868391	-0.503375	0.177136
H145	H	0.978074	-0.511044	0.177658
H146	H	1.022913	0.075364	0.634334
O147	O	0.927790	-0.229407	0.163130
C148	C	0.925645	-0.356598	0.238077
C149	C	0.926377	-0.311140	0.152606
H150	H	0.924486	-0.422686	0.229598
H151	H	0.980764	-0.344194	0.274222
H152	H	0.871080	-0.336556	0.273693
H153	H	0.980905	-0.331155	0.116922
H154	H	0.871221	-0.323545	0.116524
O155	O	1.031385	0.067420	0.798547
C156	C	1.137226	-0.032528	0.796094
C157	C	1.078479	0.022885	0.744830
H158	H	1.175306	-0.068561	0.752686
H159	H	1.176412	0.004064	0.834136
H160	H	1.103407	-0.074151	0.839425
H161	H	1.112234	0.064518	0.701453
H162	H	1.039293	-0.013757	0.706843
O163	O	0.820909	0.265979	0.349942
C164	C	0.773581	0.310597	0.480283
C165	C	0.832261	0.255190	0.436348
H166	H	0.782728	0.301881	0.550150
H167	H	0.783724	0.374593	0.459033
H168	H	0.710805	0.296297	0.464185
H169	H	0.895060	0.269419	0.452424
H170	H	0.822049	0.191210	0.457601
H171	H	0.670974	0.285371	-0.019032
