data_functionalizedCrystal
_audit_creation_method	'MofGen! by Chris Wilmer'
_symmetry_space_group_name_H-M	'P1'
_symmetry_Int_Tables_number	1
_symmetry_cell_setting	triclinic
loop_
_symmetry_equiv_pos_as_xyz
  x,y,z
_cell_length_a	12.759399
_cell_length_b	19.805407
_cell_length_c	19.805399
_cell_angle_alpha	90.021064
_cell_angle_beta	89.978119
_cell_angle_gamma	89.985578
loop_
_atom_site_label
_atom_site_type_symbol
_atom_site_fract_x
_atom_site_fract_y
_atom_site_fract_z
Zn1	Zn	-0.418319	-1.034787	-0.382773
Zn2	Zn	0.081681	-0.534787	0.117227
Zn3	Zn	-0.594012	-1.034724	-0.269596
Zn4	Zn	-0.094012	-0.534724	0.230404
Zn5	Zn	-0.418345	-0.921602	-0.269595
Zn6	Zn	0.081655	-0.421602	0.230405
Zn7	Zn	-0.593953	-0.921587	-0.382740
Zn8	Zn	-0.093953	-0.421587	0.117260
O9	O	-0.506157	-0.978175	-0.326176
O10	O	-0.006157	-0.478175	0.173824
O11	O	-0.441639	-1.129495	-0.367775
O12	O	0.058361	-0.629495	0.132225
O13	O	-0.570745	-1.019698	-0.174880
O14	O	-0.070745	-0.519698	0.325120
O15	O	-0.271320	-0.936649	-0.284622
O16	O	0.228680	-0.436649	0.215378
O17	O	-0.570720	-1.129449	-0.284624
O18	O	-0.070720	-0.629449	0.215376
O19	O	-0.271301	-1.019806	-0.367773
O20	O	0.228699	-0.519806	0.132227
O21	O	-0.441683	-0.936587	-0.174879
O22	O	0.058317	-0.436587	0.325121
O23	O	-0.441626	-0.826883	-0.284590
O24	O	0.058374	-0.326883	0.215410
O25	O	-0.570620	-0.936624	-0.477461
O26	O	-0.070620	-0.436624	0.022539
O27	O	-0.570645	-0.826873	-0.367717
O28	O	-0.070645	-0.326873	0.132283
O29	O	-0.441582	-1.019791	-0.477486
O30	O	0.058418	-0.519791	0.022514
O31	O	-0.741026	-1.019683	-0.284592
O32	O	-0.241026	-0.519683	0.215408
O33	O	-0.740982	-0.936562	-0.367718
O34	O	-0.240982	-0.436562	0.132282
C35	C	-0.506133	-0.802319	-0.326150
C36	C	-0.006133	-0.302319	0.173850
C37	C	-0.506147	-0.727087	-0.326155
C38	C	-0.006147	-0.227087	0.173845
C39	C	-0.779125	-0.978133	-0.326166
C40	C	-0.279125	-0.478133	0.173834
C41	C	-0.895901	-0.978176	-0.326185
C42	C	-0.395901	-0.478176	0.173815
C43	C	-0.573427	-0.691755	-0.369368
C44	C	-0.073427	-0.191755	0.130632
C45	C	-0.573427	-0.621067	-0.369376
C46	C	-0.073427	-0.121067	0.130624
C47	C	-0.506151	-0.585711	-0.326166
C48	C	-0.006151	-0.085711	0.173834
C49	C	-0.438864	-0.621049	-0.282951
C50	C	0.061136	-0.121049	0.217049
C51	C	-0.438859	-0.691736	-0.282947
C52	C	0.061141	-0.191736	0.217053
C53	C	-0.438879	-0.335975	-0.282966
C54	C	0.061121	0.164025	0.217034
C55	C	-0.438891	-0.265283	-0.282971
C56	C	0.061109	0.234717	0.217029
C57	C	-0.573447	-0.265306	-0.369394
C58	C	-0.073447	0.234694	0.130606
C59	C	-0.573443	-0.335993	-0.369391
C60	C	-0.073443	0.164007	0.130609
C61	C	-0.506152	-0.371324	-0.326178
C62	C	-0.006152	0.128676	0.173822
C63	C	-0.506151	-0.447973	-0.326171
C64	C	-0.006151	0.052027	0.173829
C65	C	-0.506156	-0.509064	-0.326169
C66	C	-0.006156	-0.009064	0.173831
C67	C	-1.060586	-0.934983	-0.282876
C68	C	-0.560586	-0.434983	0.217124
C69	C	-0.950862	-0.934938	-0.282864
C70	C	-0.450862	-0.434938	0.217136
C71	C	-0.950671	-1.021458	-0.369525
C72	C	-0.450671	-0.521458	0.130475
C73	C	-1.060393	-1.021499	-0.369540
C74	C	-0.560393	-0.521499	0.130460
C75	C	-1.115541	-0.891746	-0.239548
C76	C	-0.615541	-0.391746	0.260452
C77	C	-1.060779	-0.848464	-0.196208
C78	C	-0.560779	-0.348464	0.303792
C79	C	-0.951055	-0.848419	-0.196196
C80	C	-0.451055	-0.348419	0.303804
C81	C	-0.896093	-0.891656	-0.239524
C82	C	-0.396093	-0.391656	0.260476
C83	C	-0.232124	-0.978236	-0.326201
C84	C	0.267876	-0.478236	0.173799
C85	C	-0.115347	-0.978262	-0.326212
C86	C	0.384653	-0.478262	0.173788
C87	C	-0.506091	-0.978213	-0.502719
C88	C	-0.006091	-0.478213	-0.002719
C89	C	-0.506063	-0.978229	-0.577951
C90	C	-0.006063	-0.478229	-0.077951
C91	C	-0.506176	-0.154718	-0.326197
C92	C	-0.006176	0.345282	0.173803
C93	C	-0.506167	-0.229950	-0.326189
C94	C	-0.006167	0.270050	0.173811
C95	C	-0.438870	-1.021536	-0.613309
C96	C	0.061130	-0.521536	-0.113309
C97	C	-0.438839	-1.021543	-0.683998
C98	C	0.061161	-0.521543	-0.183998
C99	C	-0.506008	-0.978246	-0.719327
C100	C	-0.006008	-0.478246	-0.219327
C101	C	-0.573205	-0.934935	-0.683964
C102	C	-0.073205	-0.434935	-0.183964
C103	C	-0.573229	-0.934925	-0.613277
C104	C	-0.073229	-0.434925	-0.113277
C105	C	-0.573107	-0.934973	-0.969037
C106	C	-0.073107	-0.434973	-0.469037
C107	C	-0.573079	-0.934988	-1.039729
C108	C	-0.073079	-0.434988	-0.539729
C109	C	-0.438717	-1.021591	-1.039758
C110	C	0.061283	-0.521591	-0.539758
C111	C	-0.438741	-1.021581	-0.969071
C112	C	0.061259	-0.521581	-0.469071
C113	C	-0.505933	-0.978267	-0.933714
C114	C	-0.005933	-0.478267	-0.433714
C115	C	-0.505964	-0.978259	-0.857066
C116	C	-0.005964	-0.478259	-0.357066
C117	C	-0.505983	-0.978257	-0.795974
C118	C	-0.005983	-0.478257	-0.295974
C119	C	-0.506148	-0.978176	-0.150320
C120	C	-0.006148	-0.478176	0.349680
C121	C	-0.505880	-0.978291	-0.075089
C122	C	-0.005880	-0.478291	0.424911
H123	H	-0.628215	-0.720536	-0.404552
H124	H	-0.128215	-0.220536	0.095448
H125	H	-0.628235	-0.236531	-0.404583
H126	H	-0.128235	0.263469	0.095417
C127	C	-0.775399	-0.891604	-0.239512
C128	C	-0.275399	-0.391604	0.260488
H129	H	-0.750654	-0.859637	-0.207496
H130	H	-0.250654	-0.359637	0.292504
H131	H	-0.750555	-0.879865	-0.283176
H132	H	-0.250555	-0.379865	0.216824
H133	H	-0.750529	-0.935282	-0.227842
H134	H	-0.250529	-0.435282	0.272158
C135	C	-0.890215	-1.069020	-0.417174
C136	C	-0.390215	-0.569020	0.082826
H137	H	-0.817025	-1.062802	-0.410954
H138	H	-0.317025	-0.562802	0.089046
H139	H	-0.908163	-1.059098	-0.462646
H140	H	-0.408163	-0.559098	0.037354
H141	H	-0.908148	-1.114512	-0.407309
H142	H	-0.408148	-0.614512	0.092691
C143	C	-0.647091	-0.887308	-0.722821
C144	C	-0.147091	-0.387308	-0.222821
H145	H	-0.687106	-0.861511	-0.691637
H146	H	-0.187106	-0.361511	-0.191637
H147	H	-0.692863	-0.913193	-0.750397
H148	H	-0.192863	-0.413193	-0.250397
H149	H	-0.606881	-0.857828	-0.750393
H150	H	-0.106881	-0.357828	-0.250393
C151	C	-0.364875	-0.226390	-0.235447
C152	C	0.135125	0.273610	0.264553
H153	H	-0.374524	-0.179232	-0.241636
H154	H	0.125476	0.320768	0.258364
H155	H	-0.294306	-0.237987	-0.245436
H156	H	0.205694	0.262013	0.254564
H157	H	-0.380150	-0.237951	-0.189948
H158	H	0.119850	0.262049	0.310052
C159	C	-0.364932	-1.069183	-0.722888
C160	C	0.135068	-0.569183	-0.222888
H161	H	-0.324943	-1.094973	-0.691724
H162	H	0.175057	-0.594973	-0.191724
H163	H	-0.319137	-1.043309	-0.750462
H164	H	0.180863	-0.543309	-0.250462
H165	H	-0.405126	-1.098669	-0.750466
H166	H	0.094874	-0.598669	-0.250466
H167	H	-1.104981	-1.056733	-0.404835
H168	H	-0.604981	-0.556733	0.095165
H169	H	-0.384067	-0.720502	-0.247762
H170	H	0.115933	-0.220502	0.252238
C171	C	-0.364869	-0.374834	-0.235433
C172	C	0.135131	0.125166	0.264567
H173	H	-0.374487	-0.421996	-0.241621
H174	H	0.125513	0.078004	0.258379
H175	H	-0.380151	-0.363228	-0.189939
H176	H	0.119849	0.136772	0.310061
H177	H	-0.294297	-0.363259	-0.245422
H178	H	0.205703	0.136741	0.254578
C179	C	-1.121232	-0.800905	-0.148554
C180	C	-0.621232	-0.300905	0.351446
H181	H	-1.194423	-0.807133	-0.154763
H182	H	-0.694423	-0.307133	0.345237
H183	H	-1.103304	-0.755414	-0.158412
H184	H	-0.603304	-0.255414	0.341588
H185	H	-1.103275	-0.810836	-0.103082
H186	H	-0.603275	-0.310836	0.396918
C187	C	-0.364797	-1.069232	-1.078649
C188	C	0.135203	-0.569232	-0.578649
H189	H	-0.324808	-1.095021	-1.047483
H190	H	0.175192	-0.595021	-0.547483
H191	H	-0.319002	-1.043359	-1.106223
H192	H	0.180998	-0.543359	-0.606223
H193	H	-0.404990	-1.098720	-1.106226
H194	H	0.095010	-0.598720	-0.606226
C195	C	-0.890820	-0.800810	-0.148527
C196	C	-0.390820	-0.300810	0.351473
H197	H	-0.939267	-0.775072	-0.122723
H198	H	-0.439267	-0.275072	0.377277
H199	H	-0.848032	-0.771285	-0.174381
H200	H	-0.348032	-0.271285	0.325619
H201	H	-0.848011	-0.826710	-0.119054
H202	H	-0.348011	-0.326710	0.380946
C203	C	-0.364865	-0.582160	-0.235419
C204	C	0.135135	-0.082160	0.264581
H205	H	-0.374511	-0.535001	-0.241604
H206	H	0.125489	-0.035001	0.258396
H207	H	-0.294293	-0.593756	-0.245398
H208	H	0.205707	-0.093756	0.254602
H209	H	-0.380158	-0.593726	-0.189923
H210	H	0.119842	-0.093726	0.310077
C211	C	-1.236233	-0.891791	-0.239561
C212	C	-0.736233	-0.391791	0.260439
H213	H	-1.261121	-0.859840	-0.207555
H214	H	-0.761121	-0.359840	0.292445
H215	H	-1.261007	-0.935487	-0.227907
H216	H	-0.761007	-0.435487	0.272093
H217	H	-1.261029	-0.880062	-0.283233
H218	H	-0.761029	-0.380062	0.216767
C219	C	-0.364978	-1.069159	-0.574453
C220	C	0.135022	-0.569159	-0.074453
H221	H	-0.324948	-1.094946	-0.605638
H222	H	0.175052	-0.594946	-0.105638
H223	H	-0.405174	-1.098639	-0.546878
H224	H	0.094826	-0.598639	-0.046878
H225	H	-0.319204	-1.043266	-0.546880
H226	H	0.180796	-0.543266	-0.046880
C227	C	-0.364852	-1.069204	-0.930212
C228	C	0.135148	-0.569204	-0.430212
H229	H	-0.324821	-1.094993	-0.961395
H230	H	0.175179	-0.594993	-0.461395
H231	H	-0.405051	-1.098683	-0.902637
H232	H	0.094949	-0.598683	-0.402637
H233	H	-0.319079	-1.043311	-0.902639
H234	H	0.180921	-0.543311	-0.402639
C235	C	-0.646961	-0.887354	-1.078591
C236	C	-0.146961	-0.387354	-0.578591
H237	H	-0.686974	-0.861552	-1.047410
H238	H	-0.186974	-0.361552	-0.547410
H239	H	-0.692735	-0.913237	-1.106167
H240	H	-0.192735	-0.413237	-0.606167
H241	H	-0.606742	-0.857879	-1.106163
H242	H	-0.106742	-0.357879	-0.606163
C243	C	-0.646993	-0.887317	-0.930154
C244	C	-0.146993	-0.387317	-0.430154
H245	H	-0.686990	-0.861534	-0.961320
H246	H	-0.186990	-0.361534	-0.461320
H247	H	-0.606785	-0.857835	-0.902586
H248	H	-0.106785	-0.357835	-0.402586
H249	H	-0.692798	-0.913180	-0.902570
H250	H	-0.192798	-0.413180	-0.402570
C251	C	-0.647442	-0.374880	-0.416923
C252	C	-0.147442	0.125120	0.083077
H253	H	-0.687506	-0.343713	-0.442666
H254	H	-0.187506	0.156287	0.057334
H255	H	-0.693165	-0.402440	-0.390983
H256	H	-0.193165	0.097560	0.109017
H257	H	-0.607299	-0.402471	-0.446458
H258	H	-0.107299	0.097529	0.053542
H259	H	-0.627934	-0.899654	-0.584489
H260	H	-0.127934	-0.399654	-0.084489
H261	H	-0.628215	-0.592302	-0.404564
H262	H	-0.128215	-0.092302	0.095436
