data_functionalizedCrystal
_audit_creation_method	'MofGen! by Chris Wilmer'
_symmetry_space_group_name_H-M	'P1'
_symmetry_Int_Tables_number	1
_symmetry_cell_setting	triclinic
loop_
_symmetry_equiv_pos_as_xyz
  x,y,z
_cell_length_a	14.519709
_cell_length_b	15.944551
_cell_length_c	13.596369
_cell_angle_alpha	89.993059
_cell_angle_beta	90.000291
_cell_angle_gamma	83.589442
loop_
_atom_site_label
_atom_site_type_symbol
_atom_site_fract_x
_atom_site_fract_y
_atom_site_fract_z
O1	O	1.223676	0.110109	-0.081665
O2	O	1.723676	0.610109	0.418335
O3	O	0.955176	0.123076	-0.081696
O4	O	1.455176	0.623076	0.418304
O5	O	1.096758	-0.005672	-0.081671
O6	O	1.596758	0.494328	0.418329
O7	O	1.082094	0.238856	-0.081690
O8	O	1.582094	0.738856	0.418310
O9	O	1.096744	-0.005679	0.081912
O10	O	1.596744	0.494321	0.581912
O11	O	0.955162	0.123069	0.081887
O12	O	1.455162	0.623069	0.581887
O13	O	1.223662	0.110102	0.081917
O14	O	1.723662	0.610102	0.581917
Zn15	Zn	1.089410	0.116584	0.107875
Zn16	Zn	1.589410	0.616584	0.607875
Zn17	Zn	1.089428	0.116593	-0.107653
Zn18	Zn	1.589428	0.616593	0.392347
O19	O	1.082080	0.238850	0.081893
O20	O	1.582080	0.738850	0.581893
C21	C	0.920810	0.122468	0.000092
C22	C	1.420810	0.622468	0.500092
C23	C	0.818432	0.120657	0.000081
C24	C	1.318432	0.620657	0.500081
C25	C	0.443548	0.113990	0.000126
C26	C	0.943548	0.613990	0.500126
C27	C	0.547853	0.115842	0.000113
C28	C	1.047853	0.615842	0.500113
C29	C	0.630987	0.117323	0.000102
C30	C	1.130987	0.617323	0.500102
C31	C	0.735298	0.119175	0.000091
C32	C	1.235298	0.619175	0.500091
C33	C	1.096142	-0.036970	0.000121
C34	C	1.596142	0.463030	0.500121
C35	C	1.094317	-0.130219	0.000121
C36	C	1.594317	0.369781	0.500121
C37	C	1.002196	-0.345209	0.000097
C38	C	1.502196	0.154791	0.500097
C39	C	1.044967	-0.406168	0.080758
C40	C	1.544967	0.093832	0.580758
C41	C	1.091015	-0.300950	0.000113
C42	C	1.591015	0.199050	0.500113
C43	C	1.045002	-0.406144	-0.080522
C44	C	1.545002	0.093856	0.419478
C45	C	1.087820	-0.465867	0.000101
C46	C	1.587820	0.034133	0.500101
C47	C	1.133811	-0.360680	0.080841
C48	C	1.633811	0.139320	0.580841
C49	C	1.133833	-0.360650	-0.080512
C50	C	1.633833	0.139350	0.419488
C51	C	1.176669	-0.421591	0.000169
C52	C	1.676669	0.078409	0.500169
C53	C	1.092854	-0.205945	0.000121
C54	C	1.592854	0.294055	0.500121
C55	C	1.085988	-0.560871	0.000100
C56	C	1.585988	-0.060871	0.500100
C57	C	1.258028	0.110710	0.000128
C58	C	1.758028	0.610710	0.500128
C59	C	1.360406	0.112521	0.000132
C60	C	1.860406	0.612521	0.500132
C61	C	1.082696	0.270148	0.000099
C62	C	1.582696	0.770148	0.500099
C63	C	1.084521	0.363397	0.000092
C64	C	1.584521	0.863397	0.500092
N65	N	1.089404	0.116578	0.254966
N66	N	1.589404	0.616578	0.754966
N67	N	1.089442	0.116593	-0.254745
N68	N	1.589442	0.616593	0.245255
C69	C	1.089427	0.116594	0.656257
C70	C	1.589427	0.616594	1.156257
C71	C	1.089418	0.116592	0.544606
C72	C	1.589418	0.616592	1.044606
C73	C	1.089416	0.116587	0.455615
C74	C	1.589416	0.616587	0.955615
C75	C	1.089406	0.116584	0.343957
C76	C	1.589406	0.616584	0.843957
H77	H	1.007394	-0.426333	0.148942
H78	H	1.507394	0.073667	0.648942
O79	O	1.178643	-0.336926	0.162317
O80	O	1.678643	0.163074	0.662317
C81	C	1.258986	-0.381710	0.311645
C82	C	1.758986	0.118290	0.811645
C83	C	1.208259	-0.408732	0.219405
C84	C	1.708259	0.091268	0.719405
H85	H	1.282928	-0.439748	0.357836
H86	H	1.782928	0.060252	0.857836
H87	H	1.321671	-0.349254	0.288579
H88	H	1.821671	0.150746	0.788579
H89	H	1.209850	-0.336106	0.356842
H90	H	1.709850	0.163894	0.856842
H91	H	1.257323	-0.454363	0.174167
H92	H	1.757323	0.045637	0.674167
H93	H	1.145563	-0.441141	0.242538
H94	H	1.645563	0.058859	0.742538
H95	H	1.171374	-0.340463	-0.148699
H96	H	1.671374	0.159537	0.351301
H97	H	1.250458	-0.454643	0.000223
H98	H	1.750458	0.045357	0.500223
H99	H	0.928471	-0.312009	0.000169
H100	H	1.428471	0.187991	0.500169
O101	O	1.000055	-0.430056	-0.161847
O102	O	1.500055	0.069944	0.338153
C103	C	0.857260	-0.418027	-0.253707
C104	C	1.357260	0.081973	0.246293
C105	C	0.908065	-0.390870	-0.161584
C106	C	1.408065	0.109130	0.338416
H107	H	0.782872	-0.386372	-0.253514
H108	H	1.282872	0.113628	0.246486
H109	H	0.894340	-0.398380	-0.322470
H110	H	1.394340	0.101620	0.177530
H111	H	0.856947	-0.489493	-0.253301
H112	H	1.356947	0.010507	0.246699
H113	H	0.908393	-0.319408	-0.161895
H114	H	1.408393	0.180592	0.338105
H115	H	0.870969	-0.410579	-0.092861
H116	H	1.370969	0.089421	0.407139
