data_functionalizedCrystal
_audit_creation_method	'MofGen! by Chris Wilmer'
_symmetry_space_group_name_H-M	'P1'
_symmetry_Int_Tables_number	1
_symmetry_cell_setting	triclinic
loop_
_symmetry_equiv_pos_as_xyz
  x,y,z
_cell_length_a	25.639243
_cell_length_b	25.639239
_cell_length_c	25.639233
_cell_angle_alpha	90.019301
_cell_angle_beta	90.015962
_cell_angle_gamma	90.042008
loop_
_atom_site_label
_atom_site_type_symbol
_atom_site_fract_x
_atom_site_fract_y
_atom_site_fract_z
Zn1	Zn	0.799223	-0.208176	0.295654
Zn2	Zn	1.132556	0.125157	0.628987
Zn3	Zn	1.465890	0.458490	0.962320
Zn4	Zn	0.799145	-0.295595	0.208217
Zn5	Zn	1.132479	0.037738	0.541551
Zn6	Zn	1.465812	0.371071	0.874884
Zn7	Zn	0.711799	-0.208180	0.208227
Zn8	Zn	1.045133	0.125154	0.541561
Zn9	Zn	1.378466	0.458487	0.874894
Zn10	Zn	0.711743	-0.295587	0.295617
Zn11	Zn	1.045077	0.037747	0.628950
Zn12	Zn	1.378410	0.371080	0.962283
O13	O	0.755478	-0.251885	0.251929
O14	O	1.088811	0.081449	0.585262
O15	O	1.422144	0.414782	0.918595
O16	O	0.872378	-0.219775	0.284066
O17	O	1.205711	0.113559	0.617400
O18	O	1.539044	0.446892	0.950733
O19	O	0.787550	-0.284004	0.135053
O20	O	1.120883	0.049329	0.468387
O21	O	1.454216	0.382662	0.801720
O22	O	0.723452	-0.135014	0.219844
O23	O	1.056785	0.198319	0.553178
O24	O	1.390119	0.531653	0.886511
O25	O	0.872321	-0.284001	0.219827
O26	O	1.205654	0.049332	0.553161
O27	O	1.538988	0.382666	0.886494
O28	O	0.787682	-0.135012	0.284076
O29	O	1.121015	0.198322	0.617409
O30	O	1.454348	0.531655	0.950743
O31	O	0.723377	-0.219781	0.135061
O32	O	1.056710	0.113553	0.468394
O33	O	1.390043	0.446886	0.801727
O34	O	0.638627	-0.219772	0.219808
O35	O	0.971960	0.113561	0.553142
O36	O	1.305293	0.446894	0.886475
O37	O	0.723357	-0.283987	0.368787
O38	O	1.056690	0.049347	0.702120
O39	O	1.390023	0.382680	1.035453
O40	O	0.638586	-0.283990	0.284013
O41	O	0.971919	0.049343	0.617346
O42	O	1.305252	0.382677	0.950680
O43	O	0.787628	-0.219767	0.368814
O44	O	1.120961	0.113567	0.702147
O45	O	1.454294	0.446900	1.035481
O46	O	0.787496	-0.368759	0.219791
O47	O	1.120829	-0.035426	0.553125
O48	O	1.454162	0.297907	0.886458
O49	O	0.723282	-0.368753	0.284003
O50	O	1.056615	-0.035420	0.617336
O51	O	1.389948	0.297914	0.950670
C52	C	0.619635	-0.251881	0.251908
C53	C	0.952969	0.081452	0.585241
C54	C	1.286302	0.414786	0.918575
C55	C	0.561521	-0.251892	0.251911
C56	C	0.894854	0.081441	0.585245
C57	C	1.228188	0.414775	0.918578
C58	C	0.201182	-0.218495	0.285434
C59	C	0.534515	0.114839	0.618767
C60	C	0.867849	0.448172	0.952100
C61	C	0.146578	-0.218494	0.285437
C62	C	0.479911	0.114839	0.618770
C63	C	0.813244	0.448173	0.952104
O64	O	0.118361	-0.190088	0.313913
O65	O	0.451695	0.143245	0.647246
O66	O	0.785028	0.476578	0.980580
N67	N	0.119239	-0.251883	0.251943
N68	N	0.452572	0.081450	0.585276
N69	N	0.785905	0.414784	0.918610
C70	C	0.146507	-0.285271	0.218440
C71	C	0.479840	0.048062	0.551773
C72	C	0.813173	0.381396	0.885107
O73	O	0.118239	-0.313670	0.189951
O74	O	0.451572	0.019663	0.523284
O75	O	0.784905	0.352996	0.856617
C76	C	0.201110	-0.285268	0.218434
C77	C	0.534443	0.048065	0.551768
C78	C	0.867777	0.381398	0.885101
C79	C	0.228446	-0.251881	0.251934
C80	C	0.561780	0.081452	0.585268
C81	C	0.895113	0.414786	0.918601
C82	C	0.228518	-0.185109	0.318931
C83	C	0.561852	0.148224	0.652264
C84	C	0.895185	0.481557	0.985597
C85	C	0.283119	-0.185111	0.318928
C86	C	0.616452	0.148223	0.652261
C87	C	0.949786	0.481556	0.985595
C88	C	0.310383	-0.218497	0.285428
C89	C	0.643717	0.114836	0.618762
C90	C	0.977050	0.448170	0.952095
C91	C	0.283047	-0.251882	0.251932
C92	C	0.616380	0.081451	0.585265
C93	C	0.949714	0.414785	0.918598
C94	C	0.228377	-0.318653	0.184929
C95	C	0.561710	0.014680	0.518262
C96	C	0.895044	0.348014	0.851596
C97	C	0.282984	-0.318647	0.184926
C98	C	0.616317	0.014686	0.518259
C99	C	0.949651	0.348019	0.851593
C100	C	0.310320	-0.285260	0.218426
C101	C	0.643654	0.048073	0.551759
C102	C	0.976987	0.381407	0.885093
C103	C	0.364912	-0.285270	0.218429
C104	C	0.698245	0.048064	0.551763
C105	C	1.031578	0.381397	0.885096
N106	N	0.392251	-0.251881	0.251923
N107	N	0.725584	0.081453	0.585257
N108	N	1.058917	0.414786	0.918590
C109	C	0.364987	-0.218494	0.285423
C110	C	0.698320	0.114839	0.618756
C111	C	1.031653	0.448172	0.952090
C112	C	0.031836	-0.285273	0.218453
C113	C	0.365169	0.048060	0.551787
C114	C	0.698503	0.381394	0.885120
C115	C	-0.022766	-0.285279	0.218461
C116	C	0.310567	0.048055	0.551794
C117	C	0.643900	0.381388	0.885128
C118	C	-0.022691	-0.218501	0.285458
C119	C	0.310642	0.114832	0.618791
C120	C	0.643975	0.448166	0.952124
C121	C	0.031912	-0.218499	0.285452
C122	C	0.365245	0.114835	0.618786
C123	C	0.698579	0.448168	0.952119
C124	C	0.059175	-0.251884	0.251947
C125	C	0.392509	0.081449	0.585281
C126	C	0.725842	0.414783	0.918614
C127	C	0.479652	-0.218500	0.285415
C128	C	0.812985	0.114833	0.618748
C129	C	1.146318	0.448167	0.952082
C130	C	0.534257	-0.218506	0.285411
C131	C	0.867590	0.114828	0.618744
C132	C	1.200924	0.448161	0.952078
C133	C	0.534177	-0.285281	0.218413
C134	C	0.867511	0.048052	0.551746
C135	C	1.200844	0.381386	0.885079
C136	C	0.479577	-0.285278	0.218418
C137	C	0.812910	0.048056	0.551752
C138	C	1.146243	0.381389	0.885085
C139	C	0.452315	-0.251883	0.251921
C140	C	0.785649	0.081451	0.585255
C141	C	1.118982	0.414784	0.918588
O142	O	0.393163	-0.313659	0.189966
O143	O	0.726496	0.019674	0.523300
O144	O	1.059829	0.353007	0.856633
O145	O	0.393261	-0.190095	0.313903
O146	O	0.726595	0.143238	0.647236
O147	O	1.059928	0.476572	0.980569
C148	C	0.755388	-0.387727	0.251903
C149	C	1.088722	-0.054394	0.585237
C150	C	1.422055	0.278940	0.918570
C151	C	0.755398	-0.445841	0.251910
C152	C	1.088731	-0.112508	0.585243
C153	C	1.422065	0.220825	0.918577
C154	C	0.722035	-0.697044	0.285353
C155	C	1.055369	-0.363710	0.618687
C156	C	1.388702	-0.030377	0.952020
C157	C	0.722016	-0.642440	0.285347
C158	C	1.055349	-0.309106	0.618680
C159	C	1.388683	0.024227	0.952014
O160	O	0.693564	-0.614211	0.313764
O161	O	1.026897	-0.280877	0.647098
O162	O	1.360230	0.052456	0.980431
N163	N	0.755464	-0.615115	0.251937
N164	N	1.088797	-0.281782	0.585271
N165	N	1.422130	0.051552	0.918604
C166	C	0.788937	-0.642398	0.218535
C167	C	1.122270	-0.309064	0.551869
C168	C	1.455604	0.024269	0.885202
O169	O	0.817386	-0.614142	0.190118
O170	O	1.150719	-0.280809	0.523451
O171	O	1.484052	0.052525	0.856784
C172	C	0.788959	-0.697001	0.218545
C173	C	1.122292	-0.363668	0.551878
C174	C	1.455625	-0.030334	0.885211
C175	C	0.755505	-0.724323	0.251953
C176	C	1.088838	-0.390989	0.585286
C177	C	1.422171	-0.057656	0.918619
C178	C	0.688584	-0.724366	0.318759
C179	C	1.021918	-0.391032	0.652092
C180	C	1.355251	-0.057699	0.985426
C181	C	0.688603	-0.778966	0.318764
C182	C	1.021937	-0.445633	0.652098
C183	C	1.355270	-0.112299	0.985431
C184	C	0.722073	-0.806245	0.285364
C185	C	1.055406	-0.472912	0.618697
C186	C	1.388740	-0.139578	0.952030
C187	C	0.755524	-0.778923	0.251958
C188	C	1.088857	-0.445590	0.585291
C189	C	1.422190	-0.112257	0.918625
C190	C	0.822434	-0.724283	0.185145
C191	C	1.155767	-0.390949	0.518479
C192	C	1.489101	-0.057616	0.851812
C193	C	0.822453	-0.778890	0.185158
C194	C	1.155786	-0.445556	0.518491
C195	C	1.489120	-0.112223	0.851824
C196	C	0.788999	-0.806211	0.218566
C197	C	1.122333	-0.472878	0.551899
C198	C	1.455666	-0.139545	0.885233
C199	C	0.789012	-0.860803	0.218563
C200	C	1.122345	-0.527469	0.551896
C201	C	1.455679	-0.194136	0.885229
N202	N	0.755564	-0.888127	0.251972
N203	N	1.088897	-0.554794	0.585306
N204	N	1.422231	-0.221460	0.918639
C205	C	0.722094	-0.860848	0.285373
C206	C	1.055428	-0.527515	0.618706
C207	C	1.388761	-0.194182	0.952039
C208	C	0.788890	-0.527727	0.218519
C209	C	1.122223	-0.194394	0.551853
C210	C	1.455556	0.138940	0.885186
C211	C	0.788866	-0.473125	0.218507
C212	C	1.122199	-0.139791	0.551841
C213	C	1.455533	0.193542	0.885174
C214	C	0.721945	-0.473170	0.285320
C215	C	1.055279	-0.139837	0.618653
C216	C	1.388612	0.193496	0.951987
C217	C	0.721967	-0.527774	0.285329
C218	C	1.055300	-0.194440	0.618662
C219	C	1.388634	0.138893	0.951996
C220	C	0.755442	-0.555052	0.251929
C221	C	1.088775	-0.221718	0.585263
C222	C	1.422108	0.111615	0.918596
C223	C	0.722136	-0.975513	0.285381
C224	C	1.055470	-0.642180	0.618714
C225	C	1.388803	-0.308847	0.952048
C226	C	0.722156	-1.030119	0.285382
C227	C	1.055490	-0.696785	0.618715
C228	C	1.388823	-0.363452	0.952048
C229	C	0.789079	-1.030068	0.218571
C230	C	1.122412	-0.696735	0.551905
C231	C	1.455745	-0.363402	0.885238
C232	C	0.789057	-0.975468	0.218568
C233	C	1.122390	-0.642134	0.551902
C234	C	1.455723	-0.308801	0.885235
C235	C	0.755584	-0.948191	0.251977
C236	C	1.088917	-0.614858	0.585311
C237	C	1.422250	-0.281525	0.918644
O238	O	0.817451	-0.889066	0.190162
O239	O	1.150784	-0.555733	0.523495
O240	O	1.484118	-0.222399	0.856828
O241	O	0.693655	-0.889110	0.313791
O242	O	1.026989	-0.555777	0.647124
O243	O	1.360322	-0.222444	0.980457
C244	C	0.891851	-0.251888	0.251950
C245	C	1.225184	0.081445	0.585283
C246	C	1.558517	0.414778	0.918616
C247	C	0.949965	-0.251890	0.251959
C248	C	1.283298	0.081443	0.585292
C249	C	1.616631	0.414776	0.918625
C250	C	0.755495	-0.251875	0.388302
C251	C	1.088828	0.081458	0.721635
C252	C	1.422161	0.414791	1.054968
C253	C	0.755502	-0.251871	0.446416
C254	C	1.088835	0.081462	0.779749
C255	C	1.422168	0.414795	1.113082
C256	C	0.755582	-0.115512	0.251965
C257	C	1.088915	0.217822	0.585299
C258	C	1.422248	0.551155	0.918632
C259	C	0.755626	-0.057397	0.251981
C260	C	1.088959	0.275936	0.585315
C261	C	1.422293	0.609269	0.918648
C262	C	0.755491	-0.251856	0.116086
C263	C	1.088824	0.081477	0.449420
C264	C	1.422158	0.414811	0.782753
C265	C	0.755585	-0.251713	0.057972
C266	C	1.088919	0.081621	0.391306
C267	C	1.422252	0.414954	0.724639
C268	C	0.789010	-0.218333	0.806799
C269	C	1.122343	0.115001	1.140132
C270	C	1.455677	0.448334	1.473466
C271	C	0.789016	-0.218318	0.861403
C272	C	1.122350	0.115015	1.194737
C273	C	1.455683	0.448348	1.528070
O274	O	0.817464	-0.189864	0.889657
O275	O	1.150797	0.143469	1.222990
O276	O	1.484131	0.476803	1.556323
N277	N	0.755559	-0.251749	0.888698
N278	N	1.088893	0.081584	1.222032
N279	N	1.422226	0.414918	1.555365
C280	C	0.722090	-0.285192	0.861387
C281	C	1.055423	0.048141	1.194720
C282	C	1.388757	0.381474	1.528053
O283	O	0.693632	-0.313626	0.889617
O284	O	1.026966	0.019707	1.222951
O285	O	1.360299	0.353041	1.556284
C286	C	0.722081	-0.285204	0.806783
C287	C	1.055415	0.048130	1.140117
C288	C	1.388748	0.381463	1.473450
C289	C	0.755544	-0.251775	0.779491
C290	C	1.088878	0.081559	1.112824
C291	C	1.422211	0.414892	1.446157
C292	C	0.822470	-0.184906	0.779506
C293	C	1.155803	0.148427	1.112840
C294	C	1.489137	0.481761	1.446173
C295	C	0.822464	-0.184921	0.724906
C296	C	1.155797	0.148412	1.058239
C297	C	1.489131	0.481745	1.391572
C298	C	0.788998	-0.218363	0.697598
C299	C	1.122332	0.114970	1.030931
C300	C	1.455665	0.448303	1.364264
C301	C	0.755538	-0.251790	0.724890
C302	C	1.088872	0.081543	1.058224
C303	C	1.422205	0.414877	1.391557
C304	C	0.688610	-0.318644	0.779472
C305	C	1.021943	0.014689	1.112806
C306	C	1.355276	0.348022	1.446139
C307	C	0.688603	-0.318653	0.724865
C308	C	1.021937	0.014681	1.058199
C309	C	1.355270	0.348014	1.391532
C310	C	0.722066	-0.285224	0.697573
C311	C	1.055400	0.048110	1.030906
C312	C	1.388733	0.381443	1.364240
C313	C	0.722067	-0.285247	0.642982
C314	C	1.055400	0.048086	0.976315
C315	C	1.388733	0.381419	1.309648
N316	N	0.755524	-0.251817	0.615686
N317	N	1.088857	0.081517	0.949020
N318	N	1.422190	0.414850	1.282353
C319	C	0.788990	-0.218375	0.642994
C320	C	1.122323	0.114959	0.976328
C321	C	1.455656	0.448292	1.309661
C322	C	0.722110	-0.285165	0.976057
C323	C	1.055444	0.048168	1.309391
C324	C	1.388777	0.381501	1.642724
C325	C	0.722121	-0.285157	1.030660
C326	C	1.055454	0.048177	1.363993
C327	C	1.388788	0.381510	1.697326
C328	C	0.789047	-0.218282	1.030672
C329	C	1.122380	0.115051	1.364006
C330	C	1.455714	0.448385	1.697339
C331	C	0.789038	-0.218293	0.976069
C332	C	1.122372	0.115040	1.309402
C333	C	1.455705	0.448373	1.642736
C334	C	0.755567	-0.251735	0.948762
C335	C	1.088901	0.081599	1.282095
C336	C	1.422234	0.414932	1.615429
C337	C	0.788975	-0.218410	0.528329
C338	C	1.122308	0.114924	0.861663
C339	C	1.455642	0.448257	1.194996
C340	C	0.788968	-0.218429	0.473724
C341	C	1.122301	0.114904	0.807057
C342	C	1.455634	0.448237	1.140391
C343	C	0.722040	-0.285302	0.473716
C344	C	1.055373	0.048031	0.807049
C345	C	1.388707	0.381364	1.140382
C346	C	0.722049	-0.285285	0.528316
C347	C	1.055382	0.048049	0.861650
C348	C	1.388716	0.381382	1.194983
C349	C	0.755518	-0.251834	0.555622
C350	C	1.088852	0.081499	0.888955
C351	C	1.422185	0.414833	1.222288
O352	O	0.693632	-0.313686	0.614693
O353	O	1.026965	0.019648	0.948027
O354	O	1.360299	0.352981	1.281360
O355	O	0.817437	-0.189941	0.614757
O356	O	1.150771	0.143392	0.948090
O357	O	1.484104	0.476726	1.281424
H358	H	0.694913	-1.052361	0.312588
H359	H	1.028247	-0.719028	0.645921
H360	H	1.361580	-0.385695	0.979255
H361	H	0.849715	-0.801096	0.157961
H362	H	1.183048	-0.467763	0.491294
H363	H	1.516381	-0.134430	0.824627
C364	C	0.692417	-0.314845	1.114352
C365	C	1.025750	0.018488	1.447685
C366	C	1.359084	0.351821	1.781019
C367	C	0.685347	-0.321912	1.060657
C368	C	1.018680	0.011421	1.393990
C369	C	1.352014	0.344755	1.727323
H370	H	0.669715	-0.337540	1.132868
H371	H	1.003048	-0.004206	1.466202
H372	H	1.336381	0.329127	1.799535
H373	H	0.684786	-0.279720	1.123303
H374	H	1.018120	0.053614	1.456637
H375	H	1.351453	0.386947	1.789970
H376	H	0.727544	-0.322493	1.123301
H377	H	1.060877	0.010840	1.456634
H378	H	1.394211	0.344174	1.789967
H379	H	0.650221	-0.314260	1.051707
H380	H	0.983554	0.019073	1.385041
H381	H	1.316887	0.352406	1.718374
H382	H	0.692974	-0.357045	1.051702
H383	H	1.026307	-0.023712	1.385035
H384	H	1.359641	0.309621	1.718368
C385	C	0.655967	-0.351278	0.981538
C386	C	0.989301	-0.017944	1.314871
C387	C	1.322634	0.315389	1.648205
C388	C	0.685325	-0.321937	0.946044
C389	C	1.018658	0.011396	1.279377
C390	C	1.351992	0.344729	1.612710
H391	H	0.633261	-0.373981	0.963010
H392	H	0.966595	-0.040648	1.296343
H393	H	1.299928	0.292686	1.629676
H394	H	0.635987	-0.328492	1.002831
H395	H	0.969320	0.004841	1.336165
H396	H	1.302653	0.338175	1.669498
H397	H	0.678745	-0.371265	1.002839
H398	H	1.012079	-0.037931	1.336172
H399	H	1.345412	0.295402	1.669506
H400	H	0.662547	-0.301947	0.924745
H401	H	0.995880	0.031386	1.258078
H402	H	1.329214	0.364720	1.591412
H403	H	0.705307	-0.344726	0.924741
H404	H	1.038640	-0.011392	1.258075
H405	H	1.371974	0.321941	1.591408
C406	C	0.093204	-0.292447	0.148097
C407	C	0.426538	0.040887	0.481431
C408	C	0.759871	0.374220	0.814764
C409	C	0.061801	-0.321981	0.181627
C410	C	0.395134	0.011353	0.514961
C411	C	0.728468	0.344686	0.848294
H412	H	0.111698	-0.315109	0.125361
H413	H	0.445031	0.018225	0.458694
H414	H	0.778365	0.351558	0.792028
H415	H	0.117302	-0.272569	0.168041
H416	H	0.450636	0.060765	0.501375
H417	H	0.783969	0.394098	0.834708
H418	H	0.071907	-0.269638	0.128143
H419	H	0.405240	0.063695	0.461477
H420	H	0.738573	0.397028	0.794810
H421	H	0.083099	-0.344786	0.201584
H422	H	0.416432	-0.011453	0.534917
H423	H	0.749765	0.321880	0.868251
H424	H	0.037700	-0.341867	0.161681
H425	H	0.371033	-0.008534	0.495014
H426	H	0.704367	0.324799	0.828348
H427	H	0.816286	-0.191071	0.953851
H428	H	1.149619	0.142262	1.287185
H429	H	1.482953	0.475595	1.620518
C430	C	0.859322	-0.211125	0.589739
C431	C	1.192655	0.122208	0.923073
C432	C	1.525988	0.455542	1.256406
C433	C	0.825766	-0.181643	0.558340
C434	C	1.159099	0.151690	0.891673
C435	C	1.492432	0.485023	1.225006
H436	H	0.882033	-0.188428	0.608268
H437	H	1.215367	0.144906	0.941602
H438	H	1.548700	0.478239	1.274935
H439	H	0.879296	-0.233909	0.568439
H440	H	1.212630	0.099424	0.901772
H441	H	1.545963	0.432758	1.235106
H442	H	0.839391	-0.231026	0.613811
H443	H	1.172725	0.102308	0.947145
H444	H	1.506058	0.435641	1.280478
H445	H	0.845696	-0.161745	0.534265
H446	H	1.179029	0.171588	0.867598
H447	H	1.512362	0.504921	1.200932
H448	H	0.805789	-0.158850	0.579642
H449	H	1.139122	0.174483	0.912975
H450	H	1.472456	0.507817	1.246308
C451	C	0.418312	-0.148168	0.292826
C452	C	0.751645	0.185165	0.626159
C453	C	1.084979	0.518498	0.959492
C454	C	0.449692	-0.181794	0.322245
C455	C	0.783025	0.151539	0.655578
C456	C	1.116359	0.484872	0.988911
H457	H	0.399820	-0.125509	0.315565
H458	H	0.733153	0.207825	0.648899
H459	H	1.066486	0.541158	0.982232
H460	H	0.394213	-0.168048	0.272885
H461	H	0.727546	0.165286	0.606218
H462	H	1.060879	0.498619	0.939551
H463	H	0.439625	-0.128138	0.270081
H464	H	0.772958	0.205196	0.603415
H465	H	1.106292	0.538529	0.936748
H466	H	0.428379	-0.201828	0.344987
H467	H	0.761712	0.131505	0.678320
H468	H	1.095045	0.464839	1.011653
H469	H	0.473794	-0.161913	0.342195
H470	H	0.807128	0.171420	0.675528
H471	H	1.140461	0.504754	1.008861
H472	H	0.694795	-0.312531	0.451472
H473	H	1.028128	0.020802	0.784805
H474	H	1.361461	0.354135	1.118138
H475	H	0.305371	-0.157922	0.346206
H476	H	0.638705	0.175411	0.679540
H477	H	0.972038	0.508744	1.012873
C478	C	0.528838	-0.152496	0.351635
C479	C	0.862171	0.180838	0.684968
C480	C	1.195505	0.514171	1.018301
C481	C	0.564304	-0.181801	0.322234
C482	C	0.897638	0.151532	0.655568
C483	C	1.230971	0.484865	0.988901
H484	H	0.547388	-0.129835	0.374364
H485	H	0.880721	0.203499	0.707697
H486	H	1.214054	0.536832	1.041030
H487	H	0.507532	-0.175305	0.371592
H488	H	0.840865	0.158028	0.704926
H489	H	1.174198	0.491361	1.038259
H490	H	0.507547	-0.132465	0.328885
H491	H	0.840880	0.200868	0.662218
H492	H	1.174214	0.534202	0.995552
H493	H	0.585593	-0.201835	0.344984
H494	H	0.918926	0.131498	0.678317
H495	H	1.252259	0.464831	1.011651
H496	H	0.585619	-0.158989	0.302275
H497	H	0.918953	0.174345	0.635609
H498	H	1.252286	0.507678	0.968942
C499	C	0.618287	-0.840443	0.325985
C500	C	0.951620	-0.507109	0.659318
C501	C	1.284953	-0.173776	0.992652
C502	C	0.651836	-0.808994	0.355494
C503	C	0.985169	-0.475661	0.688827
C504	C	1.318503	-0.142328	1.022160
H505	H	0.595587	-0.858976	0.348664
H506	H	0.928920	-0.525642	0.681997
H507	H	1.262254	-0.192309	1.015331
H508	H	0.638219	-0.864506	0.306100
H509	H	0.971553	-0.531173	0.639434
H510	H	1.304886	-0.197840	0.972767
H511	H	0.598295	-0.819171	0.303184
H512	H	0.931628	-0.485838	0.636518
H513	H	1.264961	-0.152504	0.969851
H514	H	0.671831	-0.830267	0.378292
H515	H	1.005164	-0.496933	0.711625
H516	H	1.338498	-0.163600	1.044959
H517	H	0.631901	-0.784928	0.375387
H518	H	0.965235	-0.451595	0.708721
H519	H	1.298568	-0.118261	1.042054
C520	C	0.234092	-0.119112	0.385157
C521	C	0.567425	0.214221	0.718490
C522	C	0.900758	0.547555	1.051824
C523	C	0.198556	-0.148410	0.355761
C524	C	0.531889	0.184923	0.689094
C525	C	0.865222	0.518257	1.022428
H526	H	0.215596	-0.096459	0.407900
H527	H	0.548929	0.236875	0.741234
H528	H	0.882262	0.570208	1.074567
H529	H	0.255390	-0.099079	0.362409
H530	H	0.588723	0.234255	0.695743
H531	H	0.922057	0.567588	1.029076
H532	H	0.255383	-0.141931	0.405104
H533	H	0.588717	0.191402	0.738438
H534	H	0.922050	0.524735	1.071771
H535	H	0.177266	-0.125591	0.335811
H536	H	0.510600	0.207743	0.669144
H537	H	0.843933	0.541076	1.002477
H538	H	0.177248	-0.168445	0.378511
H539	H	0.510582	0.164888	0.711845
H540	H	0.843915	0.498222	1.045178
C541	C	0.595541	-0.355591	0.211017
C542	C	0.928874	-0.022257	0.544350
C543	C	1.262208	0.311076	0.877683
C544	C	0.564156	-0.321976	0.181590
C545	C	0.897489	0.011358	0.514924
C546	C	1.230822	0.344691	0.848257
H547	H	0.614052	-0.378240	0.188281
H548	H	0.947385	-0.044906	0.521614
H549	H	1.280718	0.288427	0.854948
H550	H	0.574233	-0.375629	0.233751
H551	H	0.907567	-0.042296	0.567085
H552	H	1.240900	0.291038	0.900418
H553	H	0.619629	-0.335699	0.230968
H554	H	0.952963	-0.002366	0.564301
H555	H	1.286296	0.330968	0.897634
H556	H	0.540065	-0.341868	0.161642
H557	H	0.873398	-0.008534	0.494975
H558	H	1.206731	0.324799	0.828309
H559	H	0.585465	-0.301935	0.158846
H560	H	0.918799	0.031398	0.492180
H561	H	1.252132	0.364731	0.825513
C562	C	0.366653	-0.348300	0.155163
C563	C	0.699986	-0.014967	0.488496
C564	C	1.033319	0.318367	0.821829
C565	C	0.312952	-0.355347	0.148096
C566	C	0.646285	-0.022014	0.481430
C567	C	0.979618	0.311319	0.814763
H568	H	0.385151	-0.370956	0.132424
H569	H	0.718485	-0.037622	0.465757
H570	H	1.051818	0.295711	0.799090
H571	H	0.375606	-0.356008	0.190272
H572	H	0.708939	-0.022674	0.523606
H573	H	1.042272	0.310659	0.856939
H574	H	0.375621	-0.313158	0.147575
H575	H	0.708954	0.020176	0.480908
H576	H	1.042287	0.353509	0.814241
H577	H	0.303983	-0.390489	0.155688
H578	H	0.637316	-0.057156	0.489021
H579	H	0.970650	0.276178	0.822355
H580	H	0.303995	-0.347643	0.112979
H581	H	0.637328	-0.014310	0.446312
H582	H	0.970662	0.319023	0.779645
C583	C	0.026489	-0.152495	0.351676
C584	C	0.359822	0.180838	0.685009
C585	C	0.693155	0.514172	1.018342
C586	C	0.061957	-0.181795	0.322273
C587	C	0.395291	0.151538	0.655606
C588	C	0.728624	0.484871	0.988939
H589	H	0.045037	-0.129833	0.374405
H590	H	0.378370	0.203501	0.707738
H591	H	0.711703	0.536834	1.041072
H592	H	0.005186	-0.175308	0.371633
H593	H	0.338519	0.158025	0.704966
H594	H	0.671853	0.491359	1.038300
H595	H	0.005195	-0.132466	0.328928
H596	H	0.338528	0.200868	0.662261
H597	H	0.671861	0.534201	0.995594
H598	H	0.083249	-0.201827	0.345021
H599	H	0.416582	0.131506	0.678354
H600	H	0.749916	0.464839	1.011687
H601	H	0.083269	-0.158979	0.302314
H602	H	0.416602	0.174354	0.635647
H603	H	0.749936	0.507687	0.968981
C604	C	0.658901	-0.348337	0.863160
C605	C	0.992234	-0.015003	1.196493
C606	C	1.325567	0.318330	1.529826
C607	C	0.651832	-0.355397	0.809463
C608	C	0.985165	-0.022064	1.142797
C609	C	1.318498	0.311270	1.476130
H610	H	0.636198	-0.371033	0.881673
H611	H	0.969531	-0.037699	1.215006
H612	H	1.302864	0.295634	1.548340
H613	H	0.651271	-0.313212	0.872115
H614	H	0.984604	0.020121	1.205448
H615	H	1.317938	0.353455	1.538781
H616	H	0.694027	-0.355986	0.872108
H617	H	1.027361	-0.022653	1.205441
H618	H	1.360694	0.310680	1.538775
H619	H	0.616706	-0.347744	0.800514
H620	H	0.950039	-0.014410	1.133848
H621	H	1.283372	0.318923	1.467181
H622	H	0.659458	-0.390530	0.800505
H623	H	0.992791	-0.057197	1.133838
H624	H	1.326124	0.276137	1.467171
H625	H	0.816101	-0.450883	0.191298
H626	H	1.149435	-0.117550	0.524631
H627	H	1.482768	0.215783	0.857964
C628	C	0.233811	-0.384643	0.118694
C629	C	0.567144	-0.051310	0.452027
C630	C	0.900478	0.282024	0.785361
C631	C	0.198339	-0.355349	0.148099
C632	C	0.531672	-0.022016	0.481432
C633	C	0.865005	0.311318	0.814765
H634	H	0.215266	-0.407295	0.095952
H635	H	0.548600	-0.073962	0.429285
H636	H	0.881933	0.259372	0.762619
H637	H	0.255098	-0.404678	0.141436
H638	H	0.588431	-0.071344	0.474770
H639	H	0.921764	0.261989	0.808103
H640	H	0.255121	-0.361821	0.098745
H641	H	0.588454	-0.028488	0.432078
H642	H	0.921788	0.304846	0.765412
H643	H	0.177031	-0.378171	0.168051
H644	H	0.510365	-0.044837	0.501384
H645	H	0.843698	0.288496	0.834718
H646	H	0.177043	-0.335313	0.125354
H647	H	0.510376	-0.001980	0.458687
H648	H	0.843710	0.331354	0.792020
C649	C	0.484990	-0.351287	0.152197
C650	C	0.818324	-0.017953	0.485531
C651	C	1.151657	0.315380	0.818864
C652	C	0.449525	-0.321981	0.181599
C653	C	0.782859	0.011353	0.514933
C654	C	1.116192	0.344686	0.848266
H655	H	0.466439	-0.373941	0.129463
H656	H	0.799773	-0.040608	0.462796
H657	H	1.133106	0.292726	0.796129
H658	H	0.506276	-0.371319	0.174942
H659	H	0.839610	-0.037986	0.508275
H660	H	1.172943	0.295347	0.841608
H661	H	0.506301	-0.328473	0.132241
H662	H	0.839635	0.004861	0.465574
H663	H	1.172968	0.338194	0.798908
H664	H	0.428217	-0.344795	0.201559
H665	H	0.761550	-0.011461	0.534892
H666	H	1.094883	0.321872	0.868226
H667	H	0.428230	-0.301946	0.158852
H668	H	0.761564	0.031387	0.492185
H669	H	1.094897	0.364720	0.825519
H670	H	0.849722	-0.157671	0.801735
H671	H	1.183055	0.175663	1.135068
H672	H	1.516389	0.508996	1.468401
H673	H	-0.044900	-0.191315	0.312733
H674	H	0.288434	0.142019	0.646067
H675	H	0.621767	0.475352	0.979400
C676	C	0.658866	-0.348370	0.641158
C677	C	0.992200	-0.015036	0.974491
C678	C	1.325533	0.318297	1.307825
C679	C	0.651811	-0.355414	0.694850
C680	C	0.985144	-0.022080	1.028183
C681	C	1.318477	0.311253	1.361516
H682	H	0.636150	-0.371063	0.622629
H683	H	0.969484	-0.037730	0.955963
H684	H	1.302817	0.295604	1.289296
H685	H	0.693984	-0.356029	0.632216
H686	H	1.027317	-0.022696	0.965549
H687	H	1.360650	0.310638	1.298883
H688	H	0.651241	-0.313241	0.632215
H689	H	0.984574	0.020092	0.965548
H690	H	1.317908	0.353426	1.298881
H691	H	0.659440	-0.390542	0.703793
H692	H	0.992773	-0.057209	1.037127
H693	H	1.326107	0.276125	1.370460
H694	H	0.616685	-0.347758	0.703795
H695	H	0.950019	-0.014425	1.037128
H696	H	1.283352	0.318908	1.370462
H697	H	0.816327	-1.052289	0.191376
H698	H	1.149660	-0.718955	0.524709
H699	H	1.482994	-0.385622	0.858042
H700	H	0.694880	-0.953311	0.312586
H701	H	1.028213	-0.619978	0.645920
H702	H	1.361547	-0.286644	0.979253
H703	H	-0.045019	-0.312472	0.191188
H704	H	0.288314	0.020861	0.524521
H705	H	0.621648	0.354195	0.857855
C706	C	0.855202	-0.980910	0.152523
C707	C	1.188535	-0.647577	0.485856
C708	C	1.521868	-0.314243	0.819190
C709	C	0.825824	-0.945432	0.181841
C710	C	1.159157	-0.612099	0.515174
C711	C	1.492490	-0.278766	0.848507
H712	H	0.877904	-0.962369	0.129853
H713	H	1.211237	-0.629036	0.463186
H714	H	1.544570	-0.295703	0.796519
H715	H	0.832440	-1.002238	0.132506
H716	H	1.165774	-0.668905	0.465840
H717	H	1.499107	-0.335571	0.799173
H718	H	0.875192	-1.002178	0.175329
H719	H	1.208526	-0.668845	0.508662
H720	H	1.541859	-0.335512	0.841995
H721	H	0.805830	-0.924167	0.159035
H722	H	1.139163	-0.590833	0.492369
H723	H	1.472497	-0.257500	0.825702
H724	H	0.848588	-0.924096	0.201859
H725	H	1.181921	-0.590762	0.535192
H726	H	1.515255	-0.257429	0.868526
C727	C	0.622435	-0.729910	0.384792
C728	C	0.955768	-0.396576	0.718125
C729	C	1.289102	-0.063243	1.051458
C730	C	0.651787	-0.694387	0.355474
C731	C	0.985120	-0.361053	0.688808
C732	C	1.318454	-0.027720	1.022141
H733	H	0.599712	-0.711404	0.407455
H734	H	0.933045	-0.378070	0.740788
H735	H	1.266379	-0.044737	1.074121
H736	H	0.645212	-0.751167	0.404816
H737	H	0.978545	-0.417834	0.738149
H738	H	1.311878	-0.084501	1.071482
H739	H	0.602468	-0.751244	0.361985
H740	H	0.935801	-0.417910	0.695319
H741	H	1.269135	-0.084577	1.028652
H742	H	0.671757	-0.673055	0.378280
H743	H	1.005091	-0.339722	0.711614
H744	H	1.338424	-0.006389	1.044947
H745	H	0.629008	-0.673120	0.335448
H746	H	0.962341	-0.339787	0.668782
H747	H	1.295674	-0.006454	1.002115
H748	H	0.694729	-0.550015	0.312536
H749	H	1.028062	-0.216682	0.645869
H750	H	1.361395	0.116651	0.979202
C751	C	0.855030	-0.522189	0.152470
C752	C	1.188363	-0.188855	0.485804
C753	C	1.521696	0.144478	0.819137
C754	C	0.825681	-0.557708	0.181795
C755	C	1.159015	-0.224375	0.515129
C756	C	1.492348	0.108958	0.848462
H757	H	0.877740	-0.540697	0.129797
H758	H	1.211074	-0.207364	0.463130
H759	H	1.544407	0.125970	0.796464
H760	H	0.875004	-0.500861	0.175267
H761	H	1.208338	-0.167527	0.508600
H762	H	1.541671	0.165806	0.841934
H763	H	0.832246	-0.500925	0.132452
H764	H	1.165579	-0.167592	0.465785
H765	H	1.498912	0.165742	0.799118
H766	H	0.848465	-0.578970	0.201817
H767	H	1.181799	-0.245637	0.535150
H768	H	1.515132	0.087697	0.868484
H769	H	0.805705	-0.579046	0.158996
H770	H	1.139038	-0.245712	0.492329
H771	H	1.472372	0.087621	0.825662
C772	C	0.888597	-0.729746	0.119123
C773	C	1.221930	-0.396412	0.452456
C774	C	1.555263	-0.063079	0.785790
C775	C	0.859215	-0.694260	0.148428
C776	C	1.192548	-0.360927	0.481761
C777	C	1.525881	-0.027594	0.815094
H778	H	0.911308	-0.711211	0.096457
H779	H	1.244641	-0.377877	0.429791
H780	H	1.577975	-0.044544	0.763124
H781	H	0.865838	-0.751073	0.099102
H782	H	1.199172	-0.417739	0.432435
H783	H	1.532505	-0.084406	0.765769
H784	H	0.908577	-0.751014	0.141937
H785	H	1.241911	-0.417680	0.475270
H786	H	1.575244	-0.084347	0.808604
H787	H	0.839231	-0.672995	0.125613
H788	H	1.172564	-0.339661	0.458947
H789	H	1.505897	-0.006328	0.792280
H790	H	0.881976	-0.672924	0.168450
H791	H	1.215309	-0.339591	0.501783
H792	H	1.548642	-0.006258	0.835117
C793	C	0.692212	-0.389482	0.314977
C794	C	1.025545	-0.056149	0.648310
C795	C	1.358878	0.277184	0.981644
C796	C	0.685159	-0.443178	0.322041
C797	C	1.018492	-0.109845	0.655374
C798	C	1.351826	0.223489	0.988707
H799	H	0.669505	-0.370967	0.337648
H800	H	1.002838	-0.037633	0.670981
H801	H	1.336171	0.295700	1.004315
H802	H	0.684577	-0.380563	0.279843
H803	H	1.017910	-0.047230	0.613177
H804	H	1.351243	0.286103	0.946510
H805	H	0.727336	-0.380501	0.322658
H806	H	1.060670	-0.047168	0.655992
H807	H	1.394003	0.286165	0.989325
H808	H	0.650035	-0.452160	0.314356
H809	H	0.983368	-0.118827	0.647689
H810	H	1.316702	0.214507	0.981022
H811	H	0.692790	-0.452101	0.357182
H812	H	1.026123	-0.118768	0.690516
H813	H	1.359457	0.214566	1.023849
H814	H	0.816219	-0.191207	0.451505
H815	H	1.149552	0.142126	0.784838
H816	H	1.482886	0.475460	1.118171
H817	H	0.849712	-0.157699	0.702689
H818	H	1.183045	0.175634	1.036022
H819	H	1.516379	0.508968	1.369356
C820	C	0.818758	-0.188561	1.114386
C821	C	1.152092	0.144773	1.447720
C822	C	1.485425	0.478106	1.781053
C823	C	0.825826	-0.181512	1.060697
C824	C	1.159159	0.151821	1.394030
C825	C	1.492493	0.485154	1.727364
H826	H	0.841460	-0.165858	1.132922
H827	H	1.174793	0.167475	1.466255
H828	H	1.508126	0.500808	1.799589
H829	H	0.826392	-0.223683	1.123330
H830	H	1.159725	0.109651	1.456663
H831	H	1.493058	0.442984	1.789997
H832	H	0.783631	-0.180912	1.123319
H833	H	1.116964	0.152421	1.456652
H834	H	1.450298	0.485755	1.789986
H835	H	0.860952	-0.189165	1.051763
H836	H	1.194286	0.144169	1.385097
H837	H	1.527619	0.477502	1.718430
H838	H	0.818196	-0.146382	1.051749
H839	H	1.151530	0.186951	1.385083
H840	H	1.484863	0.520284	1.718416
H841	H	0.694806	-0.312510	0.550539
H842	H	1.028139	0.020823	0.883872
H843	H	1.361472	0.354157	1.217206
