data_functionalizedCrystal
_audit_creation_method	'MofGen! by Chris Wilmer'
_symmetry_space_group_name_H-M	'P1'
_symmetry_Int_Tables_number	1
_symmetry_cell_setting	triclinic
loop_
_symmetry_equiv_pos_as_xyz
  x,y,z
_cell_length_a	19.805407
_cell_length_b	19.805405
_cell_length_c	19.805398
_cell_angle_alpha	89.972361
_cell_angle_beta	89.986043
_cell_angle_gamma	90.028666
loop_
_atom_site_label
_atom_site_type_symbol
_atom_site_fract_x
_atom_site_fract_y
_atom_site_fract_z
Zn1	Zn	1.034691	-0.269437	-0.382739
Zn2	Zn	1.368024	0.063896	-0.049406
Zn3	Zn	1.701358	0.397230	0.283927
Zn4	Zn	1.034618	-0.382627	-0.269553
Zn5	Zn	1.367951	-0.049294	0.063780
Zn6	Zn	1.701285	0.284039	0.397114
Zn7	Zn	0.921519	-0.269462	-0.269562
Zn8	Zn	1.254852	0.063872	0.063771
Zn9	Zn	1.588185	0.397205	0.397104
Zn10	Zn	0.921469	-0.382593	-0.382698
Zn11	Zn	1.254802	-0.049260	-0.049365
Zn12	Zn	1.588135	0.284073	0.283969
O13	O	0.978074	-0.326030	-0.326138
O14	O	1.311407	0.007304	0.007195
O15	O	1.644741	0.340637	0.340529
O16	O	1.129398	-0.284456	-0.367738
O17	O	1.462731	0.048877	-0.034405
O18	O	1.796065	0.382211	0.298928
O19	O	1.019605	-0.367640	-0.174838
O20	O	1.352939	-0.034307	0.158496
O21	O	1.686272	0.299026	0.491829
O22	O	0.936583	-0.174742	-0.284597
O23	O	1.269916	0.158592	0.048737
O24	O	1.603249	0.491925	0.382070
O25	O	1.129344	-0.367616	-0.284581
O26	O	1.462678	-0.034283	0.048753
O27	O	1.796011	0.299050	0.382086
O28	O	1.019730	-0.174724	-0.367747
O29	O	1.353063	0.158610	-0.034414
O30	O	1.686397	0.491943	0.298919
O31	O	0.936512	-0.284498	-0.174844
O32	O	1.269845	0.048836	0.158489
O33	O	1.603178	0.382169	0.491822
O34	O	0.826795	-0.284465	-0.284557
O35	O	1.160129	0.048869	0.048777
O36	O	1.493462	0.382202	0.382110
O37	O	0.936498	-0.367558	-0.477420
O38	O	1.269831	-0.034225	-0.144087
O39	O	1.603164	0.299108	0.189247
O40	O	0.826759	-0.367582	-0.367677
O41	O	1.160092	-0.034249	-0.034344
O42	O	1.493425	0.299085	0.298990
O43	O	1.019682	-0.284423	-0.477450
O44	O	1.353015	0.048910	-0.144117
O45	O	1.686348	0.382244	0.189216
O46	O	1.019557	-0.477339	-0.284541
O47	O	1.352890	-0.144006	0.048793
O48	O	1.686224	0.189327	0.382126
O49	O	0.936427	-0.477314	-0.367668
O50	O	1.269760	-0.143981	-0.034335
O51	O	1.603093	0.189352	0.298999
C52	C	0.802218	-0.326023	-0.326114
C53	C	1.135551	0.007311	0.007220
C54	C	1.468885	0.340644	0.340553
C55	C	0.726986	-0.326036	-0.326119
C56	C	1.060319	0.007297	0.007214
C57	C	1.393653	0.340631	0.340547
C58	C	0.265226	-0.282809	-0.369531
C59	C	0.598560	0.050524	-0.036197
C60	C	0.931893	0.383858	0.297136
C61	C	0.335915	-0.282810	-0.369526
C62	C	0.669248	0.050523	-0.036193
C63	C	1.002582	0.383856	0.297141
C64	C	0.371224	-0.326040	-0.326160
C65	C	0.704558	0.007293	0.007173
C66	C	1.037891	0.340627	0.340507
C67	C	0.335842	-0.369276	-0.282801
C68	C	0.669175	-0.035943	0.050532
C69	C	1.002508	0.297390	0.383866
C70	C	0.265155	-0.369278	-0.282810
C71	C	0.598488	-0.035945	0.050523
C72	C	0.931821	0.297389	0.383857
C73	C	0.620915	-0.369271	-0.282765
C74	C	0.954248	-0.035938	0.050568
C75	C	1.287582	0.297396	0.383901
C76	C	0.691607	-0.369265	-0.282758
C77	C	1.024940	-0.035931	0.050575
C78	C	1.358274	0.297402	0.383908
C79	C	0.691675	-0.282803	-0.369481
C80	C	1.025009	0.050530	-0.036148
C81	C	1.358342	0.383863	0.297185
C82	C	0.620988	-0.282805	-0.369490
C83	C	0.954322	0.050528	-0.036157
C84	C	1.287655	0.383862	0.297177
C85	C	0.585612	-0.326043	-0.326134
C86	C	0.918945	0.007290	0.007199
C87	C	1.252278	0.340623	0.340533
C88	C	0.508963	-0.326043	-0.326141
C89	C	0.842297	0.007291	0.007193
C90	C	1.175630	0.340624	0.340526
C91	C	0.447871	-0.326038	-0.326149
C92	C	0.781205	0.007295	0.007184
C93	C	1.114538	0.340629	0.340517
C94	C	0.977997	-0.501886	-0.326114
C95	C	1.311330	-0.168553	0.007220
C96	C	1.644664	0.164781	0.340553
C97	C	0.978026	-0.577118	-0.326126
C98	C	1.311359	-0.243784	0.007208
C99	C	1.644693	0.089549	0.340541
C100	C	1.021295	-0.612394	-0.369456
C101	C	1.354628	-0.279061	-0.036123
C102	C	1.687962	0.054272	0.297210
C103	C	1.021320	-0.683083	-0.369469
C104	C	1.354653	-0.349749	-0.036136
C105	C	1.687986	-0.016416	0.297198
C106	C	0.978078	-0.718493	-0.326147
C107	C	1.311411	-0.385160	0.007186
C108	C	1.644744	-0.051827	0.340520
C109	C	0.934804	-0.683212	-0.282815
C110	C	1.268137	-0.349879	0.050519
C111	C	1.601470	-0.016545	0.383852
C112	C	0.934776	-0.612525	-0.282806
C113	C	1.268110	-0.279191	0.050527
C114	C	1.601443	0.054142	0.383861
C115	C	0.934912	-0.968285	-0.282849
C116	C	1.268246	-0.634952	0.050484
C117	C	1.601579	-0.301618	0.383817
C118	C	0.934944	-1.038977	-0.282860
C119	C	1.268278	-0.705644	0.050473
C120	C	1.601611	-0.372311	0.383807
C121	C	1.021456	-1.038843	-0.369512
C122	C	1.354789	-0.705510	-0.036179
C123	C	1.688122	-0.372176	0.297154
C124	C	1.021428	-0.968156	-0.369504
C125	C	1.354762	-0.634823	-0.036170
C126	C	1.688095	-0.301489	0.297163
C127	C	0.978152	-0.932881	-0.326174
C128	C	1.311485	-0.599547	0.007159
C129	C	1.644819	-0.266214	0.340493
C130	C	0.978125	-0.856232	-0.326162
C131	C	1.311459	-0.522899	0.007172
C132	C	1.644792	-0.189566	0.340505
C133	C	0.978107	-0.795140	-0.326155
C134	C	1.311441	-0.461807	0.007178
C135	C	1.644774	-0.128474	0.340511
C136	C	1.154617	-0.326037	-0.326163
C137	C	1.487950	0.007296	0.007170
C138	C	1.821283	0.340629	0.340504
C139	C	1.229849	-0.326040	-0.326174
C140	C	1.563182	0.007293	0.007160
C141	C	1.896515	0.340626	0.340493
C142	C	0.978092	-0.325984	-0.502681
C143	C	1.311426	0.007349	-0.169348
C144	C	1.644759	0.340683	0.163986
C145	C	0.978100	-0.325964	-0.577913
C146	C	1.311433	0.007369	-0.244580
C147	C	1.644767	0.340702	0.088754
C148	C	0.978170	-0.149487	-0.326178
C149	C	1.311503	0.183846	0.007156
C150	C	1.644837	0.517180	0.340489
C151	C	0.978211	-0.074255	-0.326194
C152	C	1.311544	0.259078	0.007139
C153	C	1.644877	0.592412	0.340472
C154	C	1.021474	-0.369149	-1.039698
C155	C	1.354807	-0.035816	-0.706365
C156	C	1.688140	0.297517	-0.373032
C157	C	1.021455	-0.369168	-0.969010
C158	C	1.354788	-0.035834	-0.635676
C159	C	1.688121	0.297499	-0.302343
C160	C	0.978184	-0.325888	-0.933675
C161	C	1.311517	0.007445	-0.600342
C162	C	1.644851	0.340778	-0.267008
C163	C	0.934924	-0.282592	-0.969032
C164	C	1.268257	0.050741	-0.635699
C165	C	1.601591	0.384074	-0.302366
C166	C	0.934940	-0.282578	-1.039719
C167	C	1.268273	0.050755	-0.706386
C168	C	1.601607	0.384089	-0.373053
C169	C	0.934859	-0.282650	-0.683959
C170	C	1.268192	0.050683	-0.350625
C171	C	1.601525	0.384016	-0.017292
C172	C	0.934848	-0.282667	-0.613267
C173	C	1.268181	0.050667	-0.279933
C174	C	1.601514	0.384000	0.053400
C175	C	1.021374	-0.369240	-0.613249
C176	C	1.354707	-0.035907	-0.279916
C177	C	1.688040	0.297427	0.053418
C178	C	1.021389	-0.369225	-0.683936
C179	C	1.354723	-0.035892	-0.350603
C180	C	1.688056	0.297441	-0.017270
C181	C	0.978127	-0.325933	-0.719287
C182	C	1.311461	0.007401	-0.385954
C183	C	1.644794	0.340734	-0.052621
C184	C	0.978147	-0.325914	-0.795936
C185	C	1.311481	0.007419	-0.462603
C186	C	1.644814	0.340753	-0.129269
C187	C	0.978167	-0.325903	-0.857028
C188	C	1.311500	0.007431	-0.523694
C189	C	1.644834	0.340764	-0.190361
C190	C	0.978095	-0.326027	-0.150282
C191	C	1.311428	0.007307	0.183051
C192	C	1.644762	0.340640	0.516385
C193	C	0.978218	-0.325855	-0.075051
C194	C	1.311552	0.007478	0.258283
C195	C	1.644885	0.340811	0.591616
H196	H	0.592120	-0.404477	-0.247460
H197	H	0.925453	-0.071143	0.085873
H198	H	1.258787	0.262190	0.419207
C199	C	0.887328	-0.234985	-0.930166
C200	C	1.220662	0.098348	-0.596832
C201	C	1.553995	0.431682	-0.263499
H202	H	0.893518	-0.241188	-0.883004
H203	H	1.226852	0.092145	-0.549670
H204	H	1.560185	0.425479	-0.216337
H205	H	0.841848	-0.244884	-0.941745
H206	H	1.175181	0.088449	-0.608411
H207	H	1.508514	0.421783	-0.275078
H208	H	0.897267	-0.189504	-0.941765
H209	H	1.230600	0.143829	-0.608432
H210	H	1.563934	0.477163	-0.275099
H211	H	0.236483	-0.247602	-0.404840
H212	H	0.569816	0.085731	-0.071507
H213	H	0.903149	0.419064	0.261826
C214	C	0.582151	-0.235255	-0.417194
C215	C	0.915485	0.098078	-0.083861
C216	C	1.248818	0.431412	0.249472
H217	H	0.613346	-0.209512	-0.443021
H218	H	0.946679	0.123821	-0.109688
H219	H	1.280012	0.457155	0.223645
H220	H	0.554578	-0.205731	-0.391362
H221	H	0.887912	0.127602	-0.058028
H222	H	1.221245	0.460936	0.275305
H223	H	0.554578	-0.261193	-0.446644
H224	H	0.887911	0.072140	-0.113311
H225	H	1.221244	0.405473	0.220022
C226	C	1.068985	-0.416834	-0.722801
C227	C	1.402319	-0.083501	-0.389468
C228	C	1.735652	0.249832	-0.056134
H229	H	1.094740	-0.442627	-0.691622
H230	H	1.428073	-0.109293	-0.358288
H231	H	1.761406	0.224040	-0.024955
H232	H	1.098497	-0.390941	-0.750386
H233	H	1.431830	-0.057608	-0.417053
H234	H	1.765163	0.275726	-0.083719
H235	H	1.043076	-0.446320	-0.750365
H236	H	1.376410	-0.112987	-0.417032
H237	H	1.709743	0.220346	-0.083698
C238	C	1.069034	-0.416790	-0.930122
C239	C	1.402367	-0.083457	-0.596788
C240	C	1.735700	0.249877	-0.263455
H241	H	1.062822	-0.410608	-0.882963
H242	H	1.396155	-0.077275	-0.549629
H243	H	1.729489	0.256059	-0.216296
H244	H	1.114519	-0.406884	-0.941708
H245	H	1.447852	-0.073550	-0.608374
H246	H	1.781186	0.259783	-0.275041
H247	H	1.059102	-0.462266	-0.941697
H248	H	1.392435	-0.128933	-0.608364
H249	H	1.725768	0.204401	-0.275031
H250	H	0.364716	-0.247609	-0.404834
H251	H	0.698050	0.085724	-0.071500
H252	H	1.031383	0.419057	0.261833
H253	H	1.056713	-0.404389	-1.068463
H254	H	1.390046	-0.071056	-0.735129
H255	H	1.723380	0.262278	-0.401796
H256	H	0.720487	-0.247599	-0.404786
H257	H	1.053821	0.085735	-0.071453
H258	H	1.387154	0.419068	0.261881
C259	C	1.068956	-0.416870	-0.574364
C260	C	1.402289	-0.083537	-0.241031
C261	C	1.735623	0.249796	0.092302
H262	H	1.094733	-0.442638	-0.605533
H263	H	1.428066	-0.109304	-0.272200
H264	H	1.761400	0.224029	0.061133
H265	H	1.043044	-0.446368	-0.546782
H266	H	1.376377	-0.113035	-0.213449
H267	H	1.709711	0.220298	0.119885
H268	H	1.098458	-0.390983	-0.546797
H269	H	1.431791	-0.057649	-0.213463
H270	H	1.765124	0.275684	0.119870
H271	H	0.899593	-0.712049	-0.247544
H272	H	1.232926	-0.378715	0.085789
H273	H	1.566259	-0.045382	0.419123
H274	H	0.899609	-0.247421	-0.584499
H275	H	1.232942	0.085912	-0.251166
H276	H	1.566276	0.419245	0.082168
C277	C	0.730446	-0.416826	-0.235061
C278	C	1.063780	-0.083493	0.098273
C279	C	1.397113	0.249840	0.431606
H280	H	0.699254	-0.442584	-0.209246
H281	H	1.032587	-0.109250	0.124088
H282	H	1.365921	0.224083	0.457421
H283	H	0.758024	-0.390900	-0.205609
H284	H	1.091358	-0.057567	0.127724
H285	H	1.424691	0.275766	0.461057
H286	H	0.758016	-0.446347	-0.260908
H287	H	1.091349	-0.113013	0.072425
H288	H	1.424682	0.220320	0.405759
C289	C	0.374680	-0.416827	-0.235098
C290	C	0.708013	-0.083493	0.098235
C291	C	1.041347	0.249840	0.431568
H292	H	0.421846	-0.410630	-0.241297
H293	H	0.755179	-0.077296	0.092037
H294	H	1.088513	0.256037	0.425370
H295	H	0.363080	-0.462318	-0.244923
H296	H	0.696413	-0.128984	0.088411
H297	H	1.029746	0.204349	0.421744
H298	H	0.363081	-0.406857	-0.189638
H299	H	0.696415	-0.073523	0.143695
H300	H	1.029748	0.259810	0.477028
H301	H	0.236351	-0.404483	-0.247505
H302	H	0.569684	-0.071149	0.085828
H303	H	0.903018	0.262184	0.419161
H304	H	0.899631	-0.247400	-0.712733
H305	H	1.232964	0.085934	-0.379400
H306	H	1.566298	0.419267	-0.046066
H307	H	0.899541	-0.583803	-0.247523
H308	H	1.232875	-0.250470	0.085811
H309	H	1.566208	0.082863	0.419144
H310	H	0.899718	-0.247323	-1.068502
H311	H	1.233051	0.086010	-0.735169
H312	H	1.566385	0.419344	-0.401836
H313	H	1.056511	-0.583568	-0.404731
H314	H	1.389844	-0.250234	-0.071398
H315	H	1.723177	0.083099	0.261936
H316	H	1.056559	-0.711802	-0.404748
H317	H	1.389892	-0.378468	-0.071414
H318	H	1.723226	-0.045135	0.261919
H319	H	0.899729	-1.067807	-0.247581
H320	H	1.233062	-0.734473	0.085752
H321	H	1.566395	-0.401140	0.419086
H322	H	1.056642	-0.939327	-0.404778
H323	H	1.389975	-0.605994	-0.071444
H324	H	1.723309	-0.272660	0.261889
C325	C	1.069053	-1.077648	-0.417181
C326	C	1.402386	-0.744314	-0.083848
C327	C	1.735720	-0.410981	0.249486
H328	H	1.062873	-1.124818	-0.410990
H329	H	1.396207	-0.791485	-0.077656
H330	H	1.729540	-0.458151	0.255677
H331	H	1.114532	-1.066029	-0.407316
H332	H	1.447866	-0.732696	-0.073983
H333	H	1.781199	-0.399362	0.259350
H334	H	1.059107	-1.066041	-0.462649
H335	H	1.392440	-0.732708	-0.129316
H336	H	1.725774	-0.399375	0.204017
H337	H	0.899677	-0.939569	-0.247568
H338	H	1.233010	-0.606236	0.085766
H339	H	1.566343	-0.272903	0.419099
