data_functionalizedCrystal
_audit_creation_method	'MofGen! by Chris Wilmer'
_symmetry_space_group_name_H-M	'P1'
_symmetry_Int_Tables_number	1
_symmetry_cell_setting	triclinic
loop_
_symmetry_equiv_pos_as_xyz
  x,y,z
_cell_length_a	12.827893
_cell_length_b	13.897448
_cell_length_c	12.827885
_cell_angle_alpha	89.967724
_cell_angle_beta	89.980538
_cell_angle_gamma	90.017663
loop_
_atom_site_label
_atom_site_type_symbol
_atom_site_fract_x
_atom_site_fract_y
_atom_site_fract_z
Zn1	Zn	1.597655	-0.383969	-0.590831
Zn2	Zn	2.097655	0.116031	-0.090831
Zn3	Zn	1.597541	-0.545295	-0.416083
Zn4	Zn	2.097541	-0.045295	0.083917
Zn5	Zn	1.422896	-0.384016	-0.416104
Zn6	Zn	1.922896	0.115984	0.083896
Zn7	Zn	1.422875	-0.545224	-0.590783
Zn8	Zn	1.922875	-0.045224	-0.090783
O9	O	1.510242	-0.464626	-0.503450
O10	O	2.010242	0.035374	-0.003450
O11	O	1.743876	-0.405380	-0.567661
O12	O	2.243876	0.094620	-0.067661
O13	O	1.574336	-0.523951	-0.269850
O14	O	2.074336	-0.023951	0.230150
O15	O	1.446134	-0.249028	-0.439311
O16	O	1.946134	0.250972	0.060689
O17	O	1.743792	-0.523905	-0.439275
O18	O	2.243792	-0.023905	0.060725
O19	O	1.574529	-0.248994	-0.567681
O20	O	2.074529	0.251006	-0.067681
O21	O	1.446024	-0.405460	-0.269865
O22	O	1.946024	0.094540	0.230135
O23	O	1.276657	-0.405390	-0.439265
O24	O	1.776657	0.094610	0.060735
O25	O	1.446098	-0.523783	-0.737026
O26	O	1.946098	-0.023783	-0.237026
O27	O	1.276641	-0.523829	-0.567601
O28	O	1.776641	-0.023829	-0.067601
O29	O	1.574509	-0.405310	-0.737060
O30	O	2.074509	0.094690	-0.237060
O31	O	1.574315	-0.680267	-0.439229
O32	O	2.074315	-0.180267	0.060771
O33	O	1.445988	-0.680215	-0.567580
O34	O	1.945988	-0.180215	-0.067580
C35	C	1.238732	-0.464607	-0.503430
C36	C	1.738732	0.035393	-0.003430
C37	C	1.122579	-0.464623	-0.503447
C38	C	1.622579	0.035377	-0.003447
C39	C	1.070814	-0.523321	-0.566853
C40	C	1.570814	-0.023321	-0.066853
C41	C	0.950763	-0.523338	-0.566872
C42	C	1.450763	-0.023338	-0.066872
C43	C	1.510165	-0.715240	-0.503420
C44	C	2.010165	-0.215240	-0.003420
C45	C	1.510228	-0.822454	-0.503442
C46	C	2.010228	-0.322454	-0.003442
C47	C	1.510338	-1.018749	-0.503508
C48	C	2.010338	-0.518749	-0.003508
C49	C	1.510274	-0.909517	-0.503474
C50	C	2.010274	-0.409517	-0.003474
C51	C	1.782812	-0.464645	-0.503471
C52	C	2.282812	0.035355	-0.003471
C53	C	1.898965	-0.464654	-0.503480
C54	C	2.398965	0.035346	-0.003480
C55	C	1.510314	-0.464533	-0.776021
C56	C	2.010314	0.035467	-0.276021
C57	C	1.510344	-0.464494	-0.892174
C58	C	2.010344	0.035506	-0.392174
C59	C	1.510347	-0.213033	-0.503504
C60	C	2.010347	0.286967	-0.003504
C61	C	1.510391	-0.105819	-0.503526
C62	C	2.010391	0.394181	-0.003526
C63	C	1.446872	-0.405849	-0.943966
C64	C	1.946872	0.094151	-0.443966
C65	C	1.446902	-0.405807	-1.064017
C66	C	1.946902	0.094193	-0.564017
C67	C	1.510230	-0.464649	-0.231940
C68	C	2.010230	0.035351	0.268060
C69	C	1.510402	-0.464416	-0.115788
C70	C	2.010402	0.035584	0.384212
H71	H	1.078020	-0.414377	-0.449180
H72	H	1.578020	0.085623	0.050820
H73	H	1.115373	-0.573559	-0.621128
H74	H	1.615373	-0.073559	-0.121128
H75	H	1.564706	-0.514672	-0.936709
H76	H	2.064706	-0.014672	-0.436709
H77	H	0.906247	-0.573595	-0.621154
H78	H	1.406247	-0.073595	-0.121154
H79	H	0.943475	-0.414400	-0.449188
H80	H	1.443475	0.085600	0.050812
C81	C	1.387659	-0.351258	-0.776564
C82	C	1.887659	0.148742	-0.276564
C83	C	1.373481	-0.338106	-0.883856
C84	C	1.873481	0.161894	-0.383856
H85	H	1.342353	-0.309429	-0.739459
H86	H	1.842353	0.190571	-0.239459
H87	H	1.372345	-0.416080	-0.758721
H88	H	1.872345	0.083920	-0.258721
H89	H	1.457894	-0.337168	-0.758748
H90	H	1.957894	0.162832	-0.258748
H91	H	1.303248	-0.352203	-0.901673
H92	H	1.803248	0.147797	-0.401673
H93	H	1.388788	-0.273269	-0.901706
H94	H	1.888788	0.226731	-0.401706
C95	C	1.306476	-0.392461	-1.186868
C96	C	1.806476	0.107539	-0.686868
C97	C	1.373532	-0.338026	-1.124131
C98	C	1.873532	0.161974	-0.624131
H99	H	1.261175	-0.350614	-1.223974
H100	H	1.761175	0.149386	-0.723974
H101	H	1.346319	-0.429212	-1.234908
H102	H	1.846319	0.070788	-0.734908
H103	H	1.266445	-0.434464	-1.144264
H104	H	1.766445	0.065536	-0.644264
H105	H	1.413569	-0.296028	-1.166736
H106	H	1.913569	0.203972	-0.666736
H107	H	1.333685	-0.301259	-1.076085
H108	H	1.833685	0.198741	-0.576085
H109	H	1.564750	-0.514623	-1.071254
H110	H	2.064750	-0.014623	-0.571254
