data_functionalizedCrystal
_audit_creation_method	'MofGen! by Chris Wilmer'
_symmetry_space_group_name_H-M	'P1'
_symmetry_Int_Tables_number	1
_symmetry_cell_setting	triclinic
loop_
_symmetry_equiv_pos_as_xyz
  x,y,z
_cell_length_a	13.339070
_cell_length_b	9.065218
_cell_length_c	7.540329
_cell_angle_alpha	90.001757
_cell_angle_beta	90.003499
_cell_angle_gamma	100.322590
loop_
_atom_site_label
_atom_site_type_symbol
_atom_site_fract_x
_atom_site_fract_y
_atom_site_fract_z
O1	O	-1.349083	-0.742386	-0.147519
O2	O	-1.053663	-0.644943	-0.147512
O3	O	-1.207479	-0.481403	-0.147512
O4	O	-1.195267	-0.905926	-0.147519
O5	O	-1.207470	-0.481397	0.147453
O6	O	-1.053654	-0.644937	0.147453
O7	O	-1.349073	-0.742380	0.147446
Cu8	Cu	-1.201363	-0.693658	0.174382
Cu9	Cu	-1.201374	-0.693665	-0.174448
O10	O	-1.195257	-0.905920	0.147446
C11	C	-1.206301	-0.425956	-0.000033
C12	C	-1.202791	-0.260745	-0.000041
C13	C	-1.015818	-0.628480	-0.000029
C14	C	-0.903067	-0.579416	-0.000026
C15	C	-1.386918	-0.758843	-0.000041
C16	C	-1.499669	-0.807907	-0.000056
C17	C	-0.541769	-0.960908	-0.000061
C18	C	-0.647704	-1.007010	-0.000069
C19	C	-0.711550	-0.900116	-0.000057
C20	C	-0.669450	-0.747111	-0.000040
C21	C	-0.563505	-0.701004	-0.000046
C22	C	-0.733286	-0.640212	-0.000042
C23	C	-0.691186	-0.487207	-0.000025
C24	C	-0.585251	-0.441108	-0.000029
C25	C	-0.521405	-0.548003	-0.000040
C26	C	-0.839231	-0.686319	-0.000036
C27	C	-0.860967	-0.426415	-0.000021
C28	C	-0.755032	-0.380313	-0.000013
C29	C	-1.196436	-0.961367	-0.000038
C30	C	-1.199945	-1.126579	-0.000041
N31	N	-1.201362	-0.693654	0.419730
N32	N	-1.201382	-0.693660	-0.419797
H33	H	-0.873498	-0.810896	-0.000044
H34	H	-0.797807	-0.937662	-0.000068
H35	H	-0.550977	-0.316522	-0.000035
Br36	Br	-0.455120	-1.105961	-0.000113
Br37	Br	-0.377629	-0.485440	-0.000020
Br38	Br	-0.947606	-0.281333	-0.000028
H39	H	-0.681974	-1.131586	-0.000097
H40	H	-0.720739	-0.255734	-0.000014
