data_functionalizedCrystal
_audit_creation_method	'MofGen! by Chris Wilmer'
_symmetry_space_group_name_H-M	'P1'
_symmetry_Int_Tables_number	1
_symmetry_cell_setting	triclinic
loop_
_symmetry_equiv_pos_as_xyz
  x,y,z
_cell_length_a	19.805407
_cell_length_b	18.101395
_cell_length_c	19.805399
_cell_angle_alpha	89.974882
_cell_angle_beta	89.980427
_cell_angle_gamma	90.031104
loop_
_atom_site_label
_atom_site_type_symbol
_atom_site_fract_x
_atom_site_fract_y
_atom_site_fract_z
Zn1	Zn	1.034714	-0.294847	-0.382731
Zn2	Zn	1.034619	-0.418690	-0.269548
Zn3	Zn	0.921528	-0.294867	-0.269556
Zn4	Zn	0.921482	-0.418651	-0.382695
O5	O	0.978086	-0.356764	-0.326132
O6	O	1.129418	-0.311283	-0.367729
O7	O	1.019597	-0.402290	-0.174832
O8	O	0.936601	-0.191232	-0.284587
O9	O	1.129348	-0.402270	-0.284574
O10	O	1.019758	-0.191217	-0.367737
O11	O	0.936510	-0.311318	-0.174838
O12	O	0.826806	-0.311279	-0.284552
O13	O	0.936523	-0.402203	-0.477416
O14	O	0.826772	-0.402223	-0.367674
O15	O	1.019714	-0.311245	-0.477443
O16	O	1.019553	-0.522318	-0.284538
O17	O	0.936432	-0.522289	-0.367667
C18	C	0.802230	-0.356750	-0.326110
C19	C	0.726998	-0.356761	-0.326117
C20	C	0.691654	-0.404187	-0.369329
C21	C	0.620965	-0.404188	-0.369339
C22	C	0.585622	-0.356767	-0.326132
C23	C	0.620971	-0.309336	-0.282919
C24	C	0.691658	-0.309332	-0.282913
C25	C	0.335898	-0.309353	-0.282941
C26	C	0.265206	-0.309363	-0.282948
C27	C	0.265205	-0.404209	-0.369367
C28	C	0.335892	-0.404205	-0.369361
C29	C	0.371235	-0.356771	-0.326150
C30	C	0.447883	-0.356770	-0.326141
C31	C	0.508975	-0.356772	-0.326137
C32	C	0.977995	-0.549174	-0.326112
C33	C	0.978018	-0.631489	-0.326127
C34	C	0.978167	-0.930579	-0.326163
C35	C	0.925991	-0.899267	-0.378595
C36	C	0.925743	-0.813649	-0.378431
C37	C	0.978093	-0.782197	-0.326146
C38	C	0.958782	-0.813345	-0.254811
C39	C	0.958446	-0.898990	-0.255125
C40	C	1.049768	-0.898924	-0.344438
C41	C	1.049347	-0.813273	-0.346002
C42	C	0.978053	-0.698337	-0.326131
C43	C	0.978206	-1.014439	-0.326173
C44	C	1.154629	-0.356779	-0.326155
C45	C	1.229861	-0.356785	-0.326164
C46	C	0.978124	-0.356717	-0.502675
C47	C	0.978140	-0.356697	-0.577907
C48	C	0.978195	-0.163602	-0.326167
C49	C	0.978242	-0.081288	-0.326182
C50	C	1.021458	-0.309333	-0.613266
C51	C	1.021465	-0.309311	-0.683955
C52	C	0.978157	-0.356659	-0.719283
C53	C	0.934834	-0.404025	-0.683919
C54	C	0.934824	-0.404042	-0.613231
C55	C	0.934872	-0.403956	-0.968992
C56	C	0.934887	-0.403937	-1.039684
C57	C	1.021513	-0.309225	-1.039716
C58	C	1.021503	-0.309242	-0.969028
C59	C	0.978178	-0.356606	-0.933670
C60	C	0.978170	-0.356628	-0.857022
C61	C	0.978168	-0.356641	-0.795930
C62	C	0.978087	-0.356757	-0.150276
C63	C	0.978202	-0.356568	-0.075045
H64	H	0.236420	-0.442829	-0.404554
H65	H	1.090278	-0.791859	-0.310597
C66	C	0.887738	-0.926072	-0.234217
C67	C	0.858789	-0.905032	-0.164667
C68	C	0.788078	-0.932110	-0.143761
C69	C	0.746317	-0.980226	-0.192406
C70	C	0.775266	-1.001269	-0.261961
C71	C	0.845977	-0.974192	-0.282867
H72	H	0.889703	-0.869411	-0.128653
H73	H	0.766649	-0.916532	-0.092271
H74	H	0.693973	-1.000270	-0.176930
H75	H	0.744352	-1.036890	-0.297975
H76	H	0.867406	-0.989769	-0.334356
H77	H	1.056727	-0.270779	-0.584508
H78	H	0.994801	-0.919706	-0.214727
H79	H	0.592192	-0.442808	-0.404525
H80	H	0.872670	-0.793225	-0.366326
H81	H	1.056788	-0.270657	-1.068513
H82	H	0.899604	-0.442533	-0.940212
C83	C	1.008501	-0.785825	-0.200591
C84	C	1.067356	-0.734626	-0.220506
C85	C	1.117075	-0.707105	-0.166287
C86	C	1.107940	-0.730782	-0.092153
C87	C	1.049082	-0.781984	-0.072234
C88	C	0.999363	-0.809505	-0.126453
H89	H	1.074121	-0.717096	-0.275388
H90	H	1.160645	-0.669202	-0.181033
H91	H	1.144745	-0.710409	-0.052017
H92	H	1.042317	-0.799514	-0.017352
H93	H	0.955793	-0.847408	-0.111707
H94	H	1.088641	-0.919172	-0.306250
H95	H	1.056741	-0.270744	-0.712741
C96	C	0.374761	-0.257192	-0.235391
C97	C	0.365075	-0.173011	-0.241029
C98	C	0.403938	-0.120852	-0.193469
C99	C	0.452487	-0.152874	-0.140271
C100	C	0.462175	-0.237059	-0.134630
C101	C	0.423312	-0.289218	-0.182190
H102	H	0.329134	-0.149303	-0.280412
H103	H	0.396766	-0.058532	-0.197645
H104	H	0.481255	-0.114263	-0.105064
H105	H	0.498116	-0.260767	-0.095248
H106	H	0.430484	-0.351538	-0.178015
C107	C	0.730529	-0.456351	-0.416858
C108	C	0.779085	-0.514451	-0.387434
C109	C	0.817957	-0.566615	-0.434966
C110	C	0.808274	-0.560679	-0.511922
C111	C	0.759715	-0.502577	-0.541349
C112	C	0.720843	-0.450413	-0.493817
H113	H	0.786255	-0.518847	-0.330464
H114	H	0.853903	-0.609626	-0.413182
H115	H	0.837049	-0.599294	-0.547108
H116	H	0.752545	-0.498181	-0.598320
H117	H	0.684897	-0.407402	-0.515602
C118	C	0.888820	-0.784466	-0.233521
C119	C	0.876615	-0.700800	-0.226601
C120	C	0.806651	-0.671923	-0.205316
C121	C	0.748892	-0.726711	-0.190951
C122	C	0.761096	-0.810382	-0.197871
C123	C	0.831060	-0.839260	-0.219156
H124	H	0.919373	-0.660238	-0.237235
H125	H	0.797617	-0.609984	-0.200193
H126	H	0.697101	-0.705334	-0.175195
H127	H	0.718338	-0.850945	-0.187237
H128	H	0.840093	-0.901199	-0.224279
H129	H	0.364665	-0.442822	-0.404542
H130	H	0.592189	-0.270722	-0.247742
H131	H	1.056772	-0.270690	-0.940268
C132	C	0.226326	-0.257192	-0.235422
C133	C	0.265200	-0.205015	-0.187893
C134	C	0.226320	-0.152849	-0.140369
C135	C	0.148567	-0.152860	-0.140374
C136	C	0.109689	-0.205039	-0.187905
C137	C	0.148569	-0.257205	-0.235429
H138	H	0.322761	-0.205005	-0.187888
H139	H	0.255101	-0.114222	-0.105183
H140	H	0.119786	-0.114244	-0.105194
H141	H	0.052128	-0.205049	-0.187910
H142	H	0.119789	-0.295832	-0.270614
C143	C	0.730541	-0.257163	-0.235380
C144	C	0.720859	-0.172984	-0.241043
C145	C	0.759742	-0.120810	-0.193513
C146	C	0.808306	-0.152815	-0.140320
C147	C	0.817990	-0.236999	-0.134655
C148	C	0.779107	-0.289173	-0.182185
H149	H	0.684907	-0.149287	-0.280421
H150	H	0.752573	-0.058491	-0.197706
H151	H	0.837089	-0.114193	-0.105135
H152	H	0.853942	-0.260695	-0.095277
H153	H	0.786276	-0.351491	-0.177992
C154	C	0.887193	-0.456108	-0.722777
C155	C	0.887204	-0.456096	-0.800530
C156	C	0.839564	-0.508182	-0.839387
C157	C	0.791913	-0.560281	-0.800490
C158	C	0.791901	-0.560296	-0.722733
C159	C	0.839541	-0.508209	-0.683876
H160	H	0.922480	-0.417527	-0.829328
H161	H	0.839574	-0.508171	-0.896948
H162	H	0.756647	-0.598839	-0.829254
H163	H	0.756625	-0.598865	-0.693936
H164	H	0.839531	-0.508221	-0.626315
C165	C	1.073556	-0.928031	-0.413513
C166	C	1.028262	-0.980926	-0.454210
C167	C	1.052041	-1.010034	-0.523288
C168	C	1.121113	-0.986247	-0.551668
C169	C	1.166411	-0.933349	-0.510971
C170	C	1.142632	-0.904241	-0.441893
H171	H	0.977127	-0.998537	-0.433202
H172	H	1.018508	-1.049193	-0.553415
H173	H	1.138715	-1.007795	-0.602804
H174	H	1.217546	-0.915738	-0.531979
H175	H	1.176165	-0.865082	-0.411766
H176	H	0.937825	-0.792587	-0.431325
C177	C	0.942147	-0.927031	-0.450284
C178	C	0.889652	-0.972923	-0.489400
C179	C	0.905811	-1.000695	-0.561090
C180	C	0.974466	-0.982574	-0.593664
C181	C	1.026966	-0.936680	-0.554547
C182	C	1.010806	-0.908908	-0.482857
H183	H	0.838826	-0.986339	-0.465287
H184	H	0.866947	-1.034669	-0.590047
H185	H	0.986428	-1.003132	-0.646733
H186	H	1.077792	-0.923264	-0.578660
H187	H	1.049670	-0.874934	-0.453901
H188	H	0.873241	-0.920853	-0.366642
C189	C	1.069025	-0.785759	-0.416921
C190	C	1.024442	-0.804995	-0.478132
C191	C	1.044116	-0.777475	-0.549051
C192	C	1.108373	-0.730719	-0.558758
C193	C	1.152960	-0.711481	-0.497544
C194	C	1.133286	-0.739001	-0.426626
H195	H	0.976871	-0.839608	-0.470948
H196	H	1.011109	-0.791716	-0.594365
H197	H	1.122936	-0.710347	-0.611256
H198	H	1.200531	-0.676867	-0.504728
H199	H	1.166293	-0.724759	-0.381312
H200	H	0.899617	-0.442494	-1.068446
H201	H	0.899543	-0.442604	-0.584443
