data_functionalizedCrystal
_audit_creation_method	'MofGen! by Chris Wilmer'
_symmetry_space_group_name_H-M	'P1'
_symmetry_Int_Tables_number	1
_symmetry_cell_setting	triclinic
loop_
_symmetry_equiv_pos_as_xyz
  x,y,z
_cell_length_a	10.540539
_cell_length_b	14.519709
_cell_length_c	13.596369
_cell_angle_alpha	89.999684
_cell_angle_beta	89.998232
_cell_angle_gamma	95.897182
loop_
_atom_site_label
_atom_site_type_symbol
_atom_site_fract_x
_atom_site_fract_y
_atom_site_fract_z
O1	O	0.166389	-1.224767	0.081658
O2	O	0.499722	-0.891433	0.414992
O3	O	0.833056	-0.558100	0.748325
O4	O	0.185985	-0.956395	0.081688
O5	O	0.519318	-0.623062	0.415021
O6	O	0.852651	-0.289729	0.748355
O7	O	-0.008582	-1.096704	0.081671
O8	O	0.324751	-0.763370	0.415005
O9	O	0.658085	-0.430037	0.748338
O10	O	0.360956	-1.084458	0.081675
O11	O	0.694289	-0.751125	0.415008
O12	O	1.027623	-0.417792	0.748342
O13	O	-0.008571	-1.096686	-0.081912
O14	O	0.324762	-0.763353	0.251422
O15	O	0.658095	-0.430020	0.584755
O16	O	0.185995	-0.956378	-0.081895
O17	O	0.519329	-0.623045	0.251438
O18	O	0.852662	-0.289711	0.584772
O19	O	0.166400	-1.224749	-0.081924
O20	O	0.499733	-0.891416	0.251409
O21	O	0.833067	-0.558083	0.584742
Zn22	Zn	0.176199	-1.090561	-0.107882
Zn23	Zn	0.509533	-0.757227	0.225451
Zn24	Zn	0.842866	-0.423894	0.558785
Zn25	Zn	0.176185	-1.090584	0.107646
Zn26	Zn	0.509519	-0.757250	0.440979
Zn27	Zn	0.842852	-0.423917	0.774312
O28	O	0.360967	-1.084441	-0.081908
O29	O	0.694300	-0.751108	0.251426
O30	O	1.027633	-0.417774	0.584759
C31	C	0.185077	-0.922022	-0.000100
C32	C	0.518410	-0.588689	0.333234
C33	C	0.851743	-0.255355	0.666567
C34	C	0.182340	-0.819626	-0.000088
C35	C	0.515674	-0.486293	0.333245
C36	C	0.849007	-0.152959	0.666578
C37	C	-0.055870	-1.095777	-0.000118
C38	C	0.277463	-0.762443	0.333215
C39	C	0.610796	-0.429110	0.666548
C40	C	-0.196790	-1.093029	-0.000113
C41	C	0.136543	-0.759696	0.333221
C42	C	0.469876	-0.426363	0.666554
C43	C	0.167308	-1.259123	-0.000135
C44	C	0.500641	-0.925789	0.333199
C45	C	0.833974	-0.592456	0.666532
C46	C	0.170044	-1.361519	-0.000140
C47	C	0.503378	-1.028185	0.333194
C48	C	0.836711	-0.694852	0.666527
C49	C	-0.379142	-0.987750	0.000266
C50	C	-0.045809	-0.654416	0.333599
C51	C	0.287524	-0.321083	0.666933
C52	C	-0.232553	-0.990535	-0.000102
C53	C	0.100781	-0.657202	0.333231
C54	C	0.434114	-0.323868	0.666564
C55	C	-0.258945	-1.142344	-0.093532
C56	C	0.074388	-0.809011	0.239801
C57	C	0.407721	-0.475677	0.573135
C58	C	-0.405454	-1.138846	-0.093610
C59	C	-0.072121	-0.805513	0.239723
C60	C	0.261213	-0.472179	0.573056
C61	C	-0.406006	-1.140950	0.092414
C62	C	-0.072673	-0.807617	0.425747
C63	C	0.260661	-0.474284	0.759081
C64	C	-0.259034	-1.141895	0.093649
C65	C	0.074300	-0.808561	0.426982
C66	C	0.407633	-0.475228	0.760315
C67	C	0.408255	-1.085368	-0.000116
C68	C	0.741588	-0.752035	0.333217
C69	C	1.074922	-0.418701	0.666551
C70	C	0.549175	-1.088115	-0.000115
C71	C	0.882508	-0.754782	0.333218
C72	C	1.215842	-0.421449	0.666551
N73	N	0.176208	-1.090552	-0.254974
N74	N	0.509542	-0.757219	0.078360
N75	N	0.842875	-0.423885	0.411693
C76	C	0.172266	-0.444676	-0.000133
C77	C	0.505599	-0.111342	0.333200
C78	C	0.838932	0.221991	0.666534
C79	C	0.175063	-0.548999	-0.000120
C80	C	0.508397	-0.215665	0.333213
C81	C	0.841730	0.117668	0.666546
C82	C	0.177303	-0.632148	-0.000110
C83	C	0.510636	-0.298814	0.333224
C84	C	0.843969	0.034519	0.666557
C85	C	0.180101	-0.736477	-0.000099
C86	C	0.513434	-0.403144	0.333235
C87	C	0.846768	-0.069811	0.666568
C88	C	0.176211	-1.090557	-0.343972
C89	C	0.509544	-0.757223	-0.010638
C90	C	0.842878	-0.423890	0.322695
C91	C	0.176202	-1.090566	-0.455623
C92	C	0.509536	-0.757232	-0.122290
C93	C	0.842869	-0.423899	0.211044
C94	C	0.176188	-1.090577	-0.544614
C95	C	0.509521	-0.757244	-0.211280
C96	C	0.842855	-0.423911	0.122053
C97	C	0.176181	-1.090588	-0.656272
C98	C	0.509514	-0.757255	-0.322939
C99	C	0.842847	-0.423921	0.010395
N100	N	0.176166	-1.090600	0.254737
N101	N	0.509500	-0.757266	0.588071
N102	N	0.842833	-0.423933	0.921404
H103	H	-0.407334	-0.947269	0.067259
H104	H	-0.074000	-0.613936	0.400592
H105	H	0.259333	-0.280603	0.733926
H106	H	-0.235576	-1.216621	0.099282
H107	H	0.097758	-0.883288	0.432615
H108	H	0.431091	-0.549955	0.765948
C109	C	-0.419386	-0.933256	-0.089707
C110	C	-0.086052	-0.599923	0.243626
C111	C	0.247281	-0.266589	0.576960
H112	H	-0.375646	-0.872696	-0.088906
H113	H	-0.042313	-0.539363	0.244427
H114	H	0.291020	-0.206029	0.577760
H115	H	-0.398611	-0.964166	-0.148215
H116	H	-0.065278	-0.630832	0.185119
H117	H	0.268056	-0.297499	0.518452
H118	H	-0.508740	-0.929274	-0.087493
H119	H	-0.175407	-0.595941	0.245840
H120	H	0.157927	-0.262608	0.579174
H121	H	-0.237359	-1.217613	-0.097013
H122	H	0.095974	-0.884279	0.236320
H123	H	0.429307	-0.550946	0.569653
H124	H	-0.433277	-1.102385	-0.163435
H125	H	-0.099944	-0.769052	0.169898
H126	H	0.233390	-0.435719	0.503232
C127	C	-0.200941	-1.096041	-0.187439
C128	C	0.132392	-0.762708	0.145895
C129	C	0.465725	-0.429375	0.479228
H130	H	-0.138862	-1.046664	-0.169914
H131	H	0.194471	-0.713331	0.163419
H132	H	0.527805	-0.379997	0.496753
H133	H	-0.161818	-1.140337	-0.225241
H134	H	0.171515	-0.807003	0.108092
H135	H	0.504849	-0.473670	0.441426
H136	H	-0.266370	-1.072536	-0.225087
H137	H	0.066964	-0.739202	0.108247
H138	H	0.400297	-0.405869	0.441580
C139	C	-0.470833	-1.240955	0.093262
C140	C	-0.137499	-0.907622	0.426596
C141	C	0.195834	-0.574288	0.759929
H142	H	-0.524957	-1.250500	0.037534
H143	H	-0.191624	-0.917167	0.370867
H144	H	0.141710	-0.583833	0.704201
H145	H	-0.407577	-1.283036	0.091209
H146	H	-0.074244	-0.949702	0.424542
H147	H	0.259089	-0.616369	0.757876
H148	H	-0.519988	-1.251015	0.151561
H149	H	-0.186654	-0.917681	0.484894
H150	H	0.146679	-0.584348	0.818228
H151	H	-0.190393	-0.951444	-0.067172
H152	H	0.142940	-0.618111	0.266161
H153	H	0.476273	-0.284778	0.599494
C154	C	-0.471278	-1.238418	-0.099365
C155	C	-0.137945	-0.905085	0.233968
C156	C	0.195389	-0.571752	0.567301
H157	H	-0.408443	-1.280826	-0.101653
H158	H	-0.075110	-0.947492	0.231680
H159	H	0.258224	-0.614159	0.565013
H160	H	-0.523584	-1.250804	-0.043041
H161	H	-0.190251	-0.917470	0.290293
H162	H	0.143083	-0.584137	0.623626
H163	H	-0.522398	-1.245057	-0.156974
H164	H	-0.189065	-0.911724	0.176359
H165	H	0.144268	-0.578390	0.509693
C166	C	-0.203240	-1.093223	0.187014
C167	C	0.130094	-0.759890	0.520348
C168	C	0.463427	-0.426556	0.853681
H169	H	-0.142261	-1.043333	0.168941
H170	H	0.191073	-0.710000	0.502274
H171	H	0.524406	-0.376667	0.835607
H172	H	-0.269848	-1.070137	0.223696
H173	H	0.063486	-0.736804	0.557030
H174	H	0.396819	-0.403470	0.890363
H175	H	-0.163159	-1.136174	0.225999
H176	H	0.170174	-0.802841	0.559332
H177	H	0.503508	-0.469507	0.892665
H178	H	-0.437225	-1.107786	0.163219
H179	H	-0.103892	-0.774452	0.496553
H180	H	0.229442	-0.441119	0.829886
H181	H	-0.189558	-0.951731	0.066865
H182	H	0.143776	-0.618397	0.400198
H183	H	0.477109	-0.285064	0.733531
