data_functionalizedCrystal
_audit_creation_method	'MofGen! by Chris Wilmer'
_symmetry_space_group_name_H-M	'P1'
_symmetry_Int_Tables_number	1
_symmetry_cell_setting	triclinic
loop_
_symmetry_equiv_pos_as_xyz
  x,y,z
_cell_length_a	16.120530
_cell_length_b	16.120484
_cell_length_c	16.120297
_cell_angle_alpha	95.614431
_cell_angle_beta	89.871860
_cell_angle_gamma	89.832673
loop_
_atom_site_label
_atom_site_type_symbol
_atom_site_fract_x
_atom_site_fract_y
_atom_site_fract_z
Zn1	Zn	1.224987	0.422264	0.554813
Zn2	Zn	1.224883	0.554948	0.422118
Zn3	Zn	1.093726	0.408180	0.408056
Zn4	Zn	1.078880	0.554181	0.554051
O5	O	1.155619	0.484893	0.484760
O6	O	1.341009	0.446081	0.543415
O7	O	1.213654	0.529906	0.303620
O8	O	1.117395	0.293418	0.421958
O9	O	1.340932	0.543563	0.445925
O10	O	1.213832	0.303765	0.529780
O11	O	1.117294	0.422076	0.293289
O12	O	0.975721	0.421332	0.421218
O13	O	1.092092	0.542255	0.670785
O14	O	0.964814	0.528598	0.528480
O15	O	1.199436	0.445336	0.671345
O16	O	1.199258	0.671477	0.445185
O17	O	1.091990	0.670913	0.542116
C18	C	0.940181	0.473354	0.473241
C19	C	0.848013	0.468438	0.468334
C20	C	1.144023	0.701438	0.495113
C21	C	1.139137	0.794083	0.499574
C22	C	0.679262	0.459445	0.459381
C23	C	0.632810	0.510407	0.510202
C24	C	0.538911	0.505403	0.505220
C25	C	0.773169	0.464448	0.464361
C26	C	1.144119	0.495281	0.702152
C27	C	1.139219	0.499708	0.794791
C28	C	1.371899	0.496479	0.496324
C29	C	1.464064	0.501416	0.501252
C30	C	1.167282	0.267505	0.474385
C31	C	1.172251	0.174867	0.469964
C32	C	1.130220	0.963706	0.507736
C33	C	1.181166	1.005249	0.461804
C34	C	1.176204	1.099633	0.466346
C35	C	1.135180	0.869313	0.503196
C36	C	1.167125	0.474489	0.268213
C37	C	1.172198	0.469836	0.175571
C38	C	1.130243	0.507770	0.964403
C39	C	1.181172	0.461776	1.005965
C40	C	1.176177	0.466262	1.100342
C41	C	1.135236	0.503285	0.870017
H42	H	0.663563	0.557794	0.557453
C43	C	1.245118	0.957541	0.404064
C44	C	1.338409	0.974685	0.416526
C45	C	1.402355	0.926971	0.358786
C46	C	1.373009	0.862114	0.288584
C47	C	1.279713	0.844967	0.276119
C48	C	1.215767	0.892681	0.333859
H49	H	1.360137	1.022699	0.468497
H50	H	1.471419	0.939665	0.368014
H51	H	1.420345	0.826793	0.245842
H52	H	1.257985	0.796953	0.224149
H53	H	1.146703	0.879987	0.324632
C54	C	0.637721	0.395434	0.395549
C55	C	0.579732	0.328679	0.425545
C56	C	0.538178	0.264673	0.361712
C57	C	0.554613	0.267421	0.267883
C58	C	0.612604	0.334179	0.237881
C59	C	0.654158	0.398185	0.301714
H60	H	0.567564	0.326643	0.495008
H61	H	0.495249	0.215255	0.383922
H62	H	0.523852	0.220040	0.220629
H63	H	0.624772	0.336215	0.168419
H64	H	0.697087	0.447603	0.279505
H65	H	1.082881	0.999022	0.550467
C66	C	1.245148	0.404033	0.958288
C67	C	1.250121	0.399573	0.862545
C68	C	1.314096	0.341834	0.814865
C69	C	1.373099	0.288556	0.862927
C70	C	1.368128	0.293014	0.958676
C71	C	1.304153	0.350752	1.006356
H72	H	1.206442	0.439015	0.826962
H73	H	1.317775	0.338534	0.743986
H74	H	1.420457	0.245814	0.827631
H75	H	1.411808	0.253572	0.994259
H76	H	1.300474	0.354052	1.077235
C77	C	1.066280	0.565519	1.012080
C78	C	1.061321	0.569981	1.107824
C79	C	0.997362	0.627732	1.155513
C80	C	0.938362	0.681022	1.107459
C81	C	0.943320	0.676562	1.011710
C82	C	1.007278	0.618811	0.964021
H83	H	1.104998	0.530531	1.143401
H84	H	0.993693	0.631033	1.226393
H85	H	0.891016	0.723773	1.142762
H86	H	0.899643	0.716012	0.976133
H87	H	1.010948	0.615509	0.893141
