data_functionalizedCrystal
_audit_creation_method	'MofGen! by Chris Wilmer'
_symmetry_space_group_name_H-M	'P1'
_symmetry_Int_Tables_number	1
_symmetry_cell_setting	triclinic
loop_
_symmetry_equiv_pos_as_xyz
  x,y,z
_cell_length_a	16.109301
_cell_length_b	9.198806
_cell_length_c	16.109301
_cell_angle_alpha	90.003194
_cell_angle_beta	83.461532
_cell_angle_gamma	90.001223
loop_
_atom_site_label
_atom_site_type_symbol
_atom_site_fract_x
_atom_site_fract_y
_atom_site_fract_z
O1	O	1.103132	0.120801	0.106865
O2	O	1.603132	0.620801	0.606865
O3	O	0.861070	0.120824	0.120165
O4	O	1.361070	0.620824	0.620165
O5	O	0.988750	0.120802	-0.007516
O6	O	1.488750	0.620802	0.492484
O7	O	0.975451	0.120822	0.234546
O8	O	1.475451	0.620822	0.734546
O9	O	0.988740	-0.120983	-0.007516
O10	O	1.488740	0.379017	0.492484
O11	O	0.861059	-0.120961	0.120164
O12	O	1.361059	0.379039	0.620164
O13	O	1.103121	-0.120985	0.106865
O14	O	1.603121	0.379015	0.606865
Cu15	Cu	0.982090	-0.143050	0.113515
Cu16	Cu	1.482090	0.356950	0.613515
Cu17	Cu	0.982101	0.142889	0.113515
Cu18	Cu	1.482101	0.642889	0.613515
O19	O	0.975441	-0.120963	0.234546
O20	O	1.475441	0.379037	0.734546
C21	C	0.830090	-0.000066	0.119626
C22	C	1.330090	0.499934	0.619626
C23	C	0.737794	-0.000057	0.118011
C24	C	1.237794	0.499943	0.618011
N25	N	0.982087	-0.344164	0.113514
N26	N	1.482087	0.155836	0.613514
C27	C	0.515522	-0.000068	0.190018
C28	C	1.015522	0.499932	0.690018
C29	C	0.428802	-0.000078	0.188494
C30	C	0.928802	0.499922	0.688494
C31	C	0.448676	-0.000084	0.037006
C32	C	0.948676	0.499916	0.537006
C33	C	0.535395	-0.000085	0.038530
C34	C	1.035395	0.499915	0.538530
C35	C	0.568815	-0.000070	0.115039
C36	C	1.068815	0.499930	0.615039
C37	C	0.395376	-0.000078	0.111990
C38	C	0.895376	0.499922	0.611990
C39	C	0.301350	-0.000089	0.110337
C40	C	0.801350	0.499911	0.610337
C41	C	0.662847	-0.000062	0.116693
C42	C	1.162847	0.499938	0.616693
C43	C	1.035699	-0.416370	0.059670
C44	C	1.535699	0.083630	0.559670
C45	C	1.035712	-0.583782	0.059667
C46	C	1.535712	-0.083782	0.559667
C47	C	1.134101	-0.000092	0.107404
C48	C	1.634101	0.499908	0.607404
C49	C	1.226397	-0.000091	0.109019
C50	C	1.726397	0.499909	0.609019
C51	C	0.988206	-0.000090	-0.038491
C52	C	1.488206	0.499910	0.461509
C53	C	0.986591	-0.000088	-0.130786
C54	C	1.486591	0.499912	0.369214
N55	N	0.982110	0.344003	0.113509
N56	N	1.482110	0.844003	0.613509
C57	C	1.057074	-0.000069	-0.439785
C58	C	1.557074	0.499931	0.060215
C59	C	1.058600	-0.000078	-0.353064
C60	C	1.558600	0.499922	0.146936
C61	C	0.907111	-0.000083	-0.333191
C62	C	1.407111	0.499917	0.166809
C63	C	0.905586	-0.000085	-0.419910
C64	C	1.405586	0.499915	0.080090
C65	C	0.980571	-0.000071	-0.473205
C66	C	1.480571	0.499929	0.026795
C67	C	0.983620	-0.000077	-0.299766
C68	C	1.483620	0.499923	0.200234
C69	C	0.985274	-0.000087	-0.205740
C70	C	1.485274	0.499913	0.294260
C71	C	0.978917	-0.000064	-0.567237
C72	C	1.478917	0.499936	-0.067237
C73	C	0.975985	-0.000068	0.265521
C74	C	1.475985	0.499932	0.765521
C75	C	0.977600	-0.000060	0.357816
C76	C	1.477600	0.499940	0.857816
H77	H	0.385413	-0.000079	0.249550
H78	H	0.885413	0.499921	0.749550
H79	H	0.936212	-0.593912	0.159612
H80	H	1.436212	-0.093912	0.659612
H81	H	0.843284	-0.000092	-0.447120
H82	H	1.343284	0.499908	0.052880
H83	H	0.542730	-0.000066	0.252317
H84	H	1.042730	0.499934	0.752317
H85	H	1.081614	-0.645876	0.013572
H86	H	1.581614	-0.145876	0.513572
H87	H	0.421454	-0.000106	-0.025285
H88	H	0.921454	0.499894	0.474715
H89	H	1.120896	-0.000080	-0.325859
H90	H	1.620896	0.499920	0.174141
O91	O	0.921302	-0.426420	0.174589
O92	O	1.421302	0.073580	0.674589
H93	H	0.880836	-0.495793	0.139675
H94	H	1.380836	0.004207	0.639675
H95	H	1.118131	-0.000058	-0.483175
H96	H	1.618131	0.499942	0.016825
O97	O	0.826237	-0.000093	-0.275710
O98	O	1.326237	0.499907	0.224290
H99	H	0.823302	0.098461	-0.235728
H100	H	1.323302	0.598461	0.264272
O101	O	0.592885	-0.000090	-0.042343
O102	O	1.092885	0.499910	0.457657
H103	H	0.555079	-0.000081	-0.095801
H104	H	1.055079	0.499919	0.404199
H105	H	1.081585	-0.354252	0.013571
H106	H	1.581585	0.145748	0.513571
