data_functionalizedCrystal
_audit_creation_method	'MofGen! by Chris Wilmer'
_symmetry_space_group_name_H-M	'P1'
_symmetry_Int_Tables_number	1
_symmetry_cell_setting	triclinic
loop_
_symmetry_equiv_pos_as_xyz
  x,y,z
_cell_length_a	17.917603
_cell_length_b	12.970454
_cell_length_c	12.970454
_cell_angle_alpha	59.999702
_cell_angle_beta	89.999925
_cell_angle_gamma	57.011801
loop_
_atom_site_label
_atom_site_type_symbol
_atom_site_fract_x
_atom_site_fract_y
_atom_site_fract_z
Zr1	Zr	0.754913	1.033593	-0.087833
O2	O	0.629790	1.264415	-0.260324
O3	O	0.793269	0.813681	-0.034956
O4	O	0.793271	1.028771	-0.250046
O5	O	0.629789	1.049324	0.124434
O6	O	0.922228	1.012556	-0.241938
O7	O	0.629789	1.049325	-0.045234
O8	O	0.922225	0.627799	0.142819
O9	O	0.629792	1.434081	-0.260323
O10	O	0.905868	0.887992	-0.006353
O11	O	0.809628	0.900092	0.114217
O12	O	0.809630	1.153333	-0.139024
O13	O	0.713391	1.165433	-0.018454
Zr14	Zr	0.960584	1.007731	0.195698
Zr15	Zr	0.960585	1.007732	-0.074902
Zr16	Zr	0.754913	1.033591	0.182767
Zr17	Zr	0.754915	1.304190	-0.087832
Zr18	Zr	0.960583	0.737134	0.195697
O19	O	0.922229	1.227643	0.142821
O20	O	0.922229	1.227645	-0.241938
O21	O	0.629790	1.264413	0.124434
O22	O	1.085707	0.776909	0.368188
O23	O	1.085708	0.776911	-0.016570
O24	O	0.793268	0.813679	0.349802
O25	O	1.085709	0.992000	-0.016569
O26	O	0.922227	1.012553	0.357911
O27	O	0.793270	1.028768	0.349803
O28	O	1.085709	0.991999	0.153098
O29	O	0.793273	1.413525	-0.250045
O30	O	0.922224	0.627798	0.357909
O31	O	1.085706	0.607243	0.368188
O32	O	1.085706	0.607244	0.153097
O33	O	0.629791	1.434080	-0.045232
O34	O	0.793273	1.413524	-0.034954
O35	O	0.905867	0.887991	0.246889
O36	O	1.002107	0.875891	0.126318
O37	O	0.905869	1.141231	-0.006352
O38	O	0.809630	1.153332	0.114218
C39	C	0.600485	1.053009	0.037758
C40	C	0.513172	1.063987	0.032268
C41	C	0.857748	1.020660	0.392412
C42	C	0.857748	1.020659	0.507288
C43	C	0.857751	1.359138	0.053934
C44	C	0.857752	1.474014	0.053934
C45	C	0.353328	1.084041	0.022243
C46	C	0.362163	0.957289	0.085619
C47	C	0.273220	0.968447	0.080041
C48	C	0.442277	1.072886	0.027819
C49	C	1.115013	0.988315	0.070107
C50	C	1.202326	0.977336	0.075597
C51	C	0.857747	0.682186	0.053931
C52	C	0.857746	0.567310	0.053931
C53	C	0.857749	1.020664	-0.284547
C54	C	0.857749	1.020664	-0.399424
C55	C	1.115010	0.649838	0.070106
C56	C	1.202323	0.523984	0.075595
C57	C	0.857746	0.682184	0.392410
C58	C	0.857745	0.567308	0.507287
C59	C	1.115010	0.649837	0.408585
C60	C	1.202322	0.523982	0.528951
C61	C	0.600488	1.391487	-0.300721
C62	C	0.513175	1.517342	-0.421086
C63	C	0.600487	1.391485	0.037759
C64	C	0.513175	1.517339	0.032270
C65	C	0.857751	1.359140	-0.284546
C66	C	0.857752	1.474016	-0.399422
C67	C	1.193090	0.471199	0.008908
C68	C	1.275121	0.352961	0.014040
C69	C	1.366384	0.287504	0.085867
C70	C	1.375615	0.340301	0.152555
C71	C	1.293585	0.458544	0.147416
C72	C	1.293569	0.458562	0.522540
C73	C	1.375616	0.340322	0.635627
C74	C	1.366414	0.287497	0.755123
C75	C	1.275157	0.352929	0.761531
C76	C	1.193112	0.471174	0.648445
C77	C	0.421928	1.582775	-0.414676
C78	C	0.339881	1.701048	-0.527762
C79	C	0.349084	1.753879	-0.647259
C80	C	0.440341	1.688440	-0.653666
C81	C	0.522385	1.570176	-0.540581
C82	C	0.522408	1.570136	0.098945
C83	C	0.440377	1.688403	0.093783
C84	C	0.349113	1.753864	0.021953
C85	C	0.339882	1.701062	-0.044731
C86	C	0.421912	1.582805	-0.039576
H87	H	0.436524	0.840394	0.144066
C88	C	0.622756	1.498195	-0.547654
N89	N	0.698354	1.443981	-0.552991
C90	C	0.411782	1.524693	-0.283241
N91	N	0.404132	1.480962	-0.184248
C92	C	0.239483	1.773066	-0.123720
N93	N	0.163860	1.827291	-0.183202
C94	C	0.252874	1.241951	-0.056727
N95	N	0.177204	1.360887	-0.116214
H96	H	1.433171	0.191223	0.090042
C97	C	1.475990	0.268355	0.628550
N98	N	1.551588	0.214149	0.623215
H99	H	1.118786	0.524492	-0.049596
H100	H	1.267586	0.309990	-0.040267
H101	H	1.433228	0.191214	0.847195
C102	C	1.303716	0.516655	0.391106
N103	N	1.311366	0.560410	0.292112
H104	H	0.282327	1.850156	0.017766
H105	H	1.267678	0.309901	0.858840
H106	H	1.118817	0.524425	0.653683
H107	H	0.265584	1.754309	-0.522520
H108	H	0.282270	1.850177	-0.739330
C109	C	1.476015	0.268270	0.231571
N110	N	1.551638	0.214005	0.291094
H111	H	0.447822	1.731470	-0.750973
H112	H	1.301116	0.501506	0.201728
C113	C	0.622790	1.498158	0.177962
N114	N	0.698396	1.443957	0.237474
H115	H	0.447912	1.731374	0.148091
H116	H	0.414381	1.539822	-0.093868
