data_functionalizedCrystal
_audit_creation_method	'MofGen! by Chris Wilmer'
_symmetry_space_group_name_H-M	'P1'
_symmetry_Int_Tables_number	1
_symmetry_cell_setting	triclinic
loop_
_symmetry_equiv_pos_as_xyz
  x,y,z
_cell_length_a	8.497374
_cell_length_b	8.497374
_cell_length_c	13.897449
_cell_angle_alpha	90.002403
_cell_angle_beta	89.997628
_cell_angle_gamma	90.005237
loop_
_atom_site_label
_atom_site_type_symbol
_atom_site_fract_x
_atom_site_fract_y
_atom_site_fract_z
Zn1	Zn	0.628276	0.892135	1.474639
Zn2	Zn	0.961609	1.225468	1.807973
Zn3	Zn	1.294942	1.558801	2.141306
Zn4	Zn	0.892021	0.628400	1.474632
Zn5	Zn	1.225355	0.961734	1.807965
Zn6	Zn	1.558688	1.295067	2.141298
Zn7	Zn	0.628255	0.628359	1.313380
Zn8	Zn	0.961588	0.961692	1.646713
Zn9	Zn	1.294922	1.295026	1.980047
Zn10	Zn	0.892013	0.892129	1.313357
Zn11	Zn	1.225347	1.225462	1.646690
Zn12	Zn	1.558680	1.558795	1.980024
O13	O	0.760141	0.760256	1.394002
O14	O	1.093475	1.093589	1.727335
O15	O	1.426808	1.426922	2.060669
O16	O	0.663274	0.857170	1.609620
O17	O	0.996607	1.190503	1.942953
O18	O	1.329941	1.523836	2.276287
O19	O	0.857027	0.407633	1.453248
O20	O	1.190360	0.740966	1.786581
O21	O	1.523694	1.074299	2.119914
O22	O	0.407495	0.663335	1.334784
O23	O	0.740829	0.996668	1.668118
O24	O	1.074162	1.330001	2.001451
O25	O	0.857047	0.663405	1.609614
O26	O	1.190380	0.996739	1.942948
O27	O	1.523714	1.330072	2.276281
O28	O	0.407511	0.857130	1.453261
O29	O	0.740844	1.190463	1.786594
O30	O	1.074177	1.523796	2.119928
O31	O	0.663239	0.407602	1.334777
O32	O	0.996572	0.740936	1.668110
O33	O	1.329905	1.074269	2.001444
O34	O	0.663231	0.663329	1.178395
O35	O	0.996564	0.996662	1.511729
O36	O	1.329898	1.329995	1.845062
O37	O	0.857033	1.112892	1.334745
O38	O	1.190367	1.446225	1.668078
O39	O	1.523700	1.779559	2.001412
O40	O	0.857013	0.857119	1.178378
O41	O	1.190347	1.190453	1.511712
O42	O	1.523680	1.523786	1.845045
O43	O	0.663266	1.112896	1.453238
O44	O	0.996600	1.446230	1.786572
O45	O	1.329933	1.779563	2.119905
O46	O	1.112783	0.663399	1.453225
O47	O	1.446116	0.996733	1.786559
O48	O	1.779449	1.330066	2.119892
O49	O	1.112777	0.857160	1.334737
O50	O	1.446110	1.190493	1.668071
O51	O	1.779443	1.523826	2.001404
C52	C	0.760120	0.760220	1.143388
C53	C	1.093454	1.093553	1.476721
C54	C	1.426787	1.426886	1.810054
C55	C	0.760149	0.760242	1.036174
C56	C	1.093483	1.093575	1.369507
C57	C	1.426816	1.426909	1.702840
C58	C	1.170021	0.760279	1.393990
C59	C	1.503354	1.093612	1.727323
C60	C	1.836688	1.426945	2.060657
C61	C	1.348665	0.760253	1.394016
C62	C	1.681999	1.093586	1.727349
C63	C	2.015332	1.426919	2.060682
C64	C	0.760144	1.171736	1.393995
C65	C	1.093477	1.505069	1.727328
C66	C	1.426810	1.838403	2.060662
C67	C	0.760160	1.350380	1.393997
C68	C	1.093494	1.683713	1.727330
C69	C	1.426827	2.017047	2.060664
C70	C	0.760155	0.760283	0.839879
C71	C	1.093488	1.093617	1.173212
C72	C	1.426822	1.426950	1.506545
C73	C	0.760147	0.760256	0.949111
C74	C	1.093480	1.093589	1.282444
C75	C	1.426814	1.426922	1.615778
C76	C	0.760164	0.760293	1.645595
C77	C	1.093497	1.093626	1.978928
C78	C	1.426830	1.426959	2.312262
C79	C	0.760173	0.760309	1.752809
C80	C	1.093506	1.093642	2.086142
C81	C	1.426840	1.426975	2.419476
