data_functionalizedCrystal
_audit_creation_method	'MofGen! by Chris Wilmer'
_symmetry_space_group_name_H-M	'P1'
_symmetry_Int_Tables_number	1
_symmetry_cell_setting	triclinic
loop_
_symmetry_equiv_pos_as_xyz
  x,y,z
_cell_length_a	12.759401
_cell_length_b	19.120786
_cell_length_c	12.759393
_cell_angle_alpha	87.522881
_cell_angle_beta	89.981504
_cell_angle_gamma	92.465417
loop_
_atom_site_label
_atom_site_type_symbol
_atom_site_fract_x
_atom_site_fract_y
_atom_site_fract_z
Zn1	Zn	1.588335	-0.279587	-0.576097
Zn2	Zn	2.088335	0.220413	-0.076097
Zn3	Zn	1.580700	-0.397064	-0.392903
Zn4	Zn	2.080700	0.102936	0.107097
Zn5	Zn	1.412635	-0.279624	-0.400435
Zn6	Zn	1.912635	0.220376	0.099565
Zn7	Zn	1.405099	-0.397010	-0.568548
Zn8	Zn	1.905099	0.102990	-0.068548
O9	O	1.496692	-0.338321	-0.484496
O10	O	1.996692	0.161679	0.015504
O11	O	1.734343	-0.295178	-0.551804
O12	O	2.234343	0.204822	-0.051804
O13	O	1.558364	-0.381523	-0.246879
O14	O	2.058364	0.118477	0.253121
O15	O	1.442291	-0.181328	-0.430048
O16	O	1.942291	0.318672	0.069952
O17	O	1.728733	-0.381488	-0.417212
O18	O	2.228733	0.118512	0.082788
O19	O	1.571377	-0.181301	-0.559107
O20	O	2.071377	0.318699	-0.059107
O21	O	1.434887	-0.295241	-0.252412
O22	O	1.934887	0.204759	0.247588
O23	O	1.264615	-0.295188	-0.422728
O24	O	1.764615	0.204812	0.077272
O25	O	1.429448	-0.381396	-0.716573
O26	O	1.929448	0.118604	-0.216573
O27	O	1.259078	-0.381431	-0.546240
O28	O	1.759078	0.118569	-0.046240
O29	O	1.564070	-0.295126	-0.722120
O30	O	2.064070	0.204874	-0.222120
O31	O	1.551057	-0.495348	-0.409892
O32	O	2.051057	0.004652	0.090108
O33	O	1.422044	-0.495308	-0.538937
O34	O	1.922044	0.004692	-0.038937
C35	C	1.223726	-0.338308	-0.484482
C36	C	1.723726	0.161692	0.015518
C37	C	1.106948	-0.338320	-0.484500
C38	C	1.606948	0.161680	0.015500
C39	C	1.049227	-0.383298	-0.548698
C40	C	1.549227	0.116702	-0.048698
C41	C	0.939502	-0.383307	-0.548708
C42	C	1.439502	0.116693	-0.048708
C43	C	0.945231	-0.293357	-0.420316
C44	C	1.445231	0.206643	0.079684
C45	C	1.054953	-0.293345	-0.420312
C46	C	1.554953	0.206655	0.079688
C47	C	1.101221	-0.428273	-0.612887
C48	C	1.601221	0.071727	-0.112887
C49	C	1.043499	-0.473256	-0.677088
C50	C	1.543499	0.026744	-0.177088
C51	C	0.933775	-0.473265	-0.677099
C52	C	1.433775	0.026735	-0.177099
C53	C	0.881772	-0.428291	-0.612908
C54	C	1.381772	0.071709	-0.112908
C55	C	1.484933	-0.520814	-0.472801
C56	C	1.984933	-0.020814	0.027199
C57	C	1.479998	-0.598885	-0.467833
C58	C	1.979998	-0.098885	0.032167
C59	C	1.544838	-0.635488	-0.532747
C60	C	2.044838	-0.135488	-0.032747
C61	C	1.540197	-0.708844	-0.528081
C62	C	2.040197	-0.208844	-0.028081
C63	C	1.470721	-0.745595	-0.458494
C64	C	1.970721	-0.245595	0.041506
C65	C	1.405874	-0.708987	-0.393577
C66	C	1.905874	-0.208987	0.106423
C67	C	1.410510	-0.635632	-0.398249
C68	C	1.910510	-0.135632	0.101751
C69	C	1.453358	-0.967082	-0.441028
C70	C	1.953358	-0.467082	0.058972
C71	C	1.448729	-1.040442	-0.436358
C72	C	1.948729	-0.540442	0.063642
C73	C	1.583052	-1.040294	-0.570864
C74	C	2.083052	-0.540294	-0.070864
C75	C	1.587686	-0.966938	-0.575526
C76	C	2.087686	-0.466938	-0.075526
C77	C	1.522835	-0.930336	-0.510612
C78	C	2.022835	-0.430336	-0.010612
C79	C	1.465978	-0.820577	-0.453721
C80	C	1.965978	-0.320577	0.046279
C81	C	1.527574	-0.855356	-0.515392
C82	C	2.027574	-0.355356	-0.015392
C83	C	1.770725	-0.338335	-0.484510
C84	C	2.270725	0.161665	0.015490
C85	C	1.887501	-0.338341	-0.484516
C86	C	2.387501	0.161659	0.015484
C87	C	1.496770	-0.338251	-0.758534
C88	C	1.996770	0.161749	-0.258534
C89	C	1.496804	-0.338220	-0.875312
C90	C	1.996804	0.161780	-0.375312
C91	C	1.508526	-0.155117	-0.496260
C92	C	2.008526	0.344883	0.003740
C93	C	1.513569	-0.077046	-0.501273
C94	C	2.013569	0.422954	-0.001273
C95	C	1.566911	-0.293295	-0.933065
C96	C	2.066911	0.206705	-0.433065
C97	C	1.566938	-0.293270	-1.042790
C98	C	2.066938	0.206730	-0.542790
C99	C	1.426746	-0.383101	-1.037002
C100	C	1.926746	0.116899	-0.537002
C101	C	1.426715	-0.383122	-0.927278
C102	C	1.926715	0.116878	-0.427278
C103	C	1.636999	-0.248394	-0.881099
C104	C	2.136999	0.251606	-0.381099
C105	C	1.707113	-0.203465	-0.938851
C106	C	2.207113	0.296535	-0.438851
C107	C	1.707140	-0.203440	-1.048577
C108	C	2.207140	0.296560	-0.548577
C109	C	1.637053	-0.248343	-1.100550
C110	C	2.137053	0.251657	-0.600550
C111	C	1.496678	-0.338341	-0.211527
C112	C	1.996678	0.161659	0.288473
C113	C	1.496861	-0.338174	-0.094762
C114	C	1.996861	0.161826	0.405238
H115	H	1.101952	-0.256714	-0.368045
H116	H	1.601952	0.243286	0.131955
H117	H	1.635848	-1.070104	-0.623714
H118	H	2.135848	-0.570104	-0.123714
H119	H	1.601418	-0.605570	-0.589408
H120	H	2.101418	-0.105570	-0.089408
Cl121	Cl	1.637075	-0.248299	-1.238493
Cl122	Cl	2.137075	0.251701	-0.738493
Cl123	Cl	1.636974	-0.248425	-0.743158
Cl124	Cl	2.136974	0.251575	-0.243158
H125	H	1.764170	-0.166903	-0.896527
H126	H	2.264170	0.333097	-0.396527
H127	H	0.902881	-0.256742	-0.368054
H128	H	1.402881	0.243258	0.131946
Cl129	Cl	1.361385	-1.086643	-0.348867
Cl130	Cl	1.861385	-0.586643	0.151133
Cl131	Cl	1.108872	-0.529787	-0.757786
Cl132	Cl	1.608872	-0.029787	-0.257786
Cl133	Cl	1.621701	-0.754857	-0.609706
Cl134	Cl	2.121701	-0.254857	-0.109706
Cl135	Cl	1.795284	-0.146962	-1.121177
Cl136	Cl	2.295284	0.353038	-0.621177
Cl137	Cl	1.338647	-0.439548	-1.102341
Cl138	Cl	1.838647	0.060452	-0.602341
Cl139	Cl	0.861213	-0.529808	-0.757816
Cl140	Cl	1.361213	-0.029808	-0.257816
Cl141	Cl	0.743831	-0.428298	-0.612933
Cl142	Cl	1.243831	0.071702	-0.112933
H143	H	1.644259	-0.937017	-0.632189
H144	H	2.144259	-0.437017	-0.132189
H145	H	1.400556	-0.937287	-0.388171
H146	H	1.900556	-0.437287	0.111829
Cl147	Cl	1.338577	-0.439599	-0.854670
Cl148	Cl	1.838577	0.060401	-0.354670
Cl149	Cl	1.318522	-0.755188	-0.306106
Cl150	Cl	1.818522	-0.255188	0.193894
H151	H	1.357710	-0.605830	-0.345390
H152	H	1.857710	-0.105830	0.154610
H153	H	1.190564	-0.428272	-0.612883
H154	H	1.690564	0.071728	-0.112883
Cl155	Cl	1.614906	-0.809153	-0.602875
Cl156	Cl	2.114906	-0.309153	-0.102875
H157	H	1.409413	-0.850508	-0.397060
H158	H	1.909413	-0.350508	0.102940
