data_functionalizedCrystal
_audit_creation_method	'MofGen! by Chris Wilmer'
_symmetry_space_group_name_H-M	'P1'
_symmetry_Int_Tables_number	1
_symmetry_cell_setting	triclinic
loop_
_symmetry_equiv_pos_as_xyz
  x,y,z
_cell_length_a	13.032831
_cell_length_b	21.295417
_cell_length_c	13.032268
_cell_angle_alpha	82.859352
_cell_angle_beta	89.113023
_cell_angle_gamma	82.834379
loop_
_atom_site_label
_atom_site_type_symbol
_atom_site_fract_x
_atom_site_fract_y
_atom_site_fract_z
Zn1	Zn	1.498336	-0.425102	0.780728
Zn2	Zn	1.520047	-0.518887	0.608724
Zn3	Zn	1.348204	-0.398806	0.586976
Zn4	Zn	1.326296	-0.515483	0.758850
O5	O	1.423221	-0.464570	0.683820
O6	O	1.645133	-0.449972	0.776169
O7	O	1.515506	-0.493377	0.461925
O8	O	1.368201	-0.314216	0.612731
O9	O	1.661084	-0.518875	0.649799
O10	O	1.478503	-0.333535	0.755080
O11	O	1.389253	-0.405155	0.445946
O12	O	1.201381	-0.401855	0.591517
O13	O	1.330864	-0.513075	0.905667
O14	O	1.185286	-0.487577	0.717793
O15	O	1.457261	-0.446672	0.921740
O16	O	1.494263	-0.606514	0.628585
O17	O	1.351916	-0.604014	0.738882
C18	C	1.156018	-0.441494	0.649922
C19	C	1.041704	-0.431638	0.635445
C20	C	0.982815	-0.469713	0.691375
C21	C	0.864665	-0.459528	0.676414
C22	C	1.423093	-0.628106	0.683746
C23	C	1.423128	-0.698078	0.683760
C24	C	1.497299	-0.732235	0.626403
C25	C	1.497344	-0.797983	0.626433
C26	C	1.423202	-0.829569	0.683806
C27	C	1.349025	-0.795405	0.741175
C28	C	1.348989	-0.729659	0.741152
N29	N	1.332239	-0.925592	0.680232
N30	N	1.332278	-0.988048	0.680248
C31	C	1.423310	-1.027658	0.683879
N32	N	1.514306	-1.002451	0.687474
N33	N	1.514267	-0.939990	0.687452
C34	C	1.423234	-0.900860	0.683837
C35	C	1.497535	-1.133107	0.626551
C36	C	1.497581	-1.198857	0.626588
C37	C	1.349254	-1.196276	0.741323
C38	C	1.349216	-1.130528	0.741293
C39	C	1.423356	-1.098947	0.683901
C40	C	1.691467	-0.487736	0.717850
C41	C	1.805778	-0.497609	0.732352
C42	C	1.389197	-0.482427	0.952062
C43	C	1.374697	-0.490036	1.066371
C44	C	1.423374	-0.300399	0.683920
C45	C	1.423439	-0.230439	0.683963
C46	C	1.457172	-0.446742	0.416628
C47	C	1.471870	-0.438972	0.302345
C48	C	1.430772	-0.460574	1.125287
C49	C	1.415788	-0.468438	1.243431
H50	H	0.842824	-0.537746	0.791324
C51	C	0.884334	-0.377863	0.556410
C52	C	0.991697	-0.377460	0.555831
H53	H	0.853468	-0.344418	0.507249
H54	H	0.858034	-0.371806	0.623319
H55	H	0.868690	-0.417635	0.539035
H56	H	1.007342	-0.337689	0.573213
H57	H	1.018007	-0.383512	0.488907
C58	C	1.643922	-0.741396	0.513003
C59	C	1.578805	-0.697524	0.563336
H60	H	1.694245	-0.719966	0.474077
H61	H	1.604154	-0.760584	0.467954
H62	H	1.677541	-0.773387	0.562849
H63	H	1.545180	-0.665536	0.513489
H64	H	1.618578	-0.678326	0.608389
H65	H	1.288890	-1.221993	0.788043
C66	C	1.202600	-1.134581	0.854689
C67	C	1.267672	-1.092976	0.804327
H68	H	1.152253	-1.111396	0.893600
H69	H	1.242394	-1.166672	0.899755
H70	H	1.169007	-1.153884	0.804860
H71	H	1.301271	-1.073677	0.854156
H72	H	1.227873	-1.060874	0.759256
C73	C	1.526244	-0.334515	1.275513
C74	C	1.551658	-0.397051	1.252389
H75	H	1.575498	-0.308634	1.244669
H76	H	1.526640	-0.334312	1.348346
H77	H	1.459362	-0.318184	1.249189
H78	H	1.618538	-0.413383	1.278720
H79	H	1.551273	-0.397256	1.179541
C80	C	1.485158	-0.356121	1.098418
C81	C	1.510558	-0.418662	1.075310
H82	H	1.534413	-0.330246	1.067559
H83	H	1.485565	-0.355911	1.171249
H84	H	1.418274	-0.339789	1.072100
H85	H	1.577438	-0.434995	1.101635
H86	H	1.510161	-0.418875	1.002464
C87	C	1.336606	-0.510038	1.400767
C88	C	1.336003	-0.510357	1.293400
H89	H	1.287357	-0.535921	1.431615
H90	H	1.319376	-0.467613	1.416432
H91	H	1.403494	-0.526374	1.427069
H92	H	1.269117	-0.494017	1.267097
H93	H	1.353227	-0.552791	1.277727
H94	H	1.315590	-0.521077	1.103397
H95	H	1.288660	-0.821126	0.787890
C96	C	1.086247	-0.498149	0.844887
C97	C	1.032827	-0.523899	0.770972
H98	H	1.117126	-0.531603	0.894023
H99	H	1.039360	-0.469807	0.879042
H100	H	1.138498	-0.475581	0.811723
H101	H	0.980571	-0.546464	0.804136
H102	H	1.079718	-0.552252	0.736814
H103	H	1.557746	-0.825800	0.579727
C104	C	1.202380	-0.733713	0.854565
C105	C	1.267449	-0.692108	0.804196
H106	H	1.152037	-0.710528	0.893479
H107	H	1.242177	-0.765803	0.899630
H108	H	1.168783	-0.753017	0.804740
H109	H	1.301052	-0.672808	0.854022
H110	H	1.227646	-0.660007	0.759128
C111	C	1.637861	-1.283655	0.630125
C112	C	1.579213	-1.236384	0.563607
H113	H	1.688289	-1.306813	0.591261
H114	H	1.593727	-1.311896	0.664244
H115	H	1.671356	-1.264311	0.679970
H116	H	1.545712	-1.255728	0.513766
H117	H	1.623354	-1.208138	0.529471
H118	H	0.827617	-0.419386	0.617453
C119	C	1.644154	-1.142260	0.513146
C120	C	1.579033	-1.098389	0.563476
H121	H	1.694469	-1.120827	0.474211
H122	H	1.604388	-1.161455	0.468105
H123	H	1.677783	-1.174245	0.562994
H124	H	1.545398	-1.066406	0.513627
H125	H	1.618804	-1.079184	0.608521
