data_functionalizedCrystal
_audit_creation_method	'MofGen! by Chris Wilmer'
_symmetry_space_group_name_H-M	'P1'
_symmetry_Int_Tables_number	1
_symmetry_cell_setting	triclinic
loop_
_symmetry_equiv_pos_as_xyz
  x,y,z
_cell_length_a	34.408637
_cell_length_b	34.407814
_cell_length_c	34.404193
_cell_angle_alpha	60.004510
_cell_angle_beta	60.009006
_cell_angle_gamma	59.994604
loop_
_atom_site_label
_atom_site_type_symbol
_atom_site_fract_x
_atom_site_fract_y
_atom_site_fract_z
O1	O	0.053973	-0.567860	0.474801
O2	O	0.553973	-0.067860	0.974801
O3	O	0.020377	-0.442124	0.382567
O4	O	0.520377	0.057876	0.882567
O5	O	0.100004	-0.521670	0.382483
O6	O	0.600004	-0.021670	0.882483
O7	O	-0.025653	-0.488314	0.474886
O8	O	0.474347	0.011686	0.974886
O9	O	0.126426	-0.495253	0.408816
O10	O	0.626426	0.004747	0.908816
O11	O	0.046800	-0.415707	0.408900
O12	O	0.546800	0.084293	0.908900
O13	O	0.080396	-0.541443	0.501134
O14	O	0.580396	-0.041443	1.001134
Zn15	Zn	0.067793	-0.474381	0.459198
Zn16	Zn	0.567793	0.025619	0.959198
Zn17	Zn	0.032980	-0.509186	0.424503
Zn18	Zn	0.532980	-0.009186	0.924503
O19	O	0.000769	-0.461897	0.501219
O20	O	0.500769	0.038103	1.001219
N21	N	0.091552	-0.450631	0.482879
N22	N	0.591552	0.049369	0.982879
N23	N	0.009225	-0.532940	0.400823
N24	N	0.509225	-0.032940	0.900823
C25	C	0.142848	-0.268847	0.534081
C26	C	0.642848	0.231153	1.034081
C27	C	0.142979	-0.399386	0.664559
C28	C	0.642979	0.100614	1.164559
C29	C	0.142862	-0.399365	0.534081
C30	C	0.642862	0.100635	1.034081
C31	C	0.273409	-0.399338	0.533986
C32	C	0.773409	0.100662	1.033986
C33	C	0.157225	-0.311914	0.548422
C34	C	0.657225	0.188086	1.048422
C35	C	0.157300	-0.385019	0.621491
C36	C	0.657300	0.114981	1.121491
C37	C	0.230339	-0.384991	0.548370
C38	C	0.730339	0.115009	1.048370
C39	C	0.157235	-0.385007	0.548422
C40	C	0.657235	0.114993	1.048422
C41	C	0.124548	-0.214028	0.515827
C42	C	0.624548	0.285972	1.015827
C43	C	0.124571	-0.417639	0.515827
C44	C	0.624571	0.082361	1.015827
C45	C	0.175526	-0.366733	0.566676
C46	C	0.675526	0.133267	1.066676
C47	C	0.353121	-0.385580	0.491988
C48	C	0.853121	0.114420	0.991988
C49	C	0.402952	-0.402180	0.475348
C50	C	0.902952	0.097820	0.975348
C51	C	0.402981	-0.482812	0.506096
C52	C	0.902981	0.017188	1.006096
C53	C	0.353151	-0.466211	0.522737
C54	C	0.853151	0.033789	1.022737
C55	C	0.136544	-0.189099	0.466839
C56	C	0.636544	0.310901	0.966839
C57	C	0.119905	-0.139265	0.450247
C58	C	0.619905	0.360735	0.950247
C59	C	0.079280	-0.139291	0.531632
C60	C	0.579280	0.360709	1.031632
C61	C	0.095918	-0.189125	0.548224
C62	C	0.595918	0.310875	1.048224
C63	C	0.075577	-0.405615	0.527900
C64	C	0.575577	0.094385	1.027900
C65	C	0.058953	-0.422228	0.511301
C66	C	0.558953	0.077772	1.011301
C67	C	0.140315	-0.462889	0.470566
C68	C	0.640315	0.037111	0.970566
C69	C	0.156941	-0.446276	0.487159
C70	C	0.656941	0.053724	0.987159
C71	C	0.075772	-0.405653	0.744326
C72	C	0.575772	0.094347	1.244326
C73	C	0.059206	-0.422280	0.794159
C74	C	0.559206	0.077720	1.294159
C75	C	0.140607	-0.462951	0.794094
C76	C	0.640607	0.037049	1.294094
C77	C	0.157172	-0.446325	0.744260
C78	C	0.657172	0.053675	1.244260
C79	C	0.124753	-0.417674	0.719377
C80	C	0.624753	0.082326	1.219377
C81	C	0.328223	-0.417595	0.515681
C82	C	0.828223	0.082405	1.015681
C83	C	-0.172390	-0.583988	0.349141
C84	C	0.327610	-0.083988	0.849141
C85	C	-0.041751	-0.584138	0.218783
C86	C	0.458249	-0.084138	0.718783
C87	C	-0.041941	-0.584130	0.349402
C88	C	0.458059	-0.084130	0.849402
C89	C	-0.041957	-0.714607	0.349338
C90	C	0.458043	-0.214607	0.849338
C91	C	-0.129326	-0.598388	0.334853
C92	C	0.370674	-0.098388	0.834853
C93	C	-0.056165	-0.598473	0.261852
C94	C	0.443835	-0.098473	0.761852
C95	C	-0.056282	-0.671535	0.334962
C96	C	0.443718	-0.171535	0.834962
C97	C	-0.056272	-0.598469	0.334999
C98	C	0.443728	-0.098469	0.834999
C99	C	-0.227205	-0.565659	0.367327
C100	C	0.272795	-0.065659	0.867327
C101	C	-0.023703	-0.565882	0.367734
C102	C	0.476297	-0.065882	0.867734
C103	C	-0.074511	-0.616717	0.316667
C104	C	0.425489	-0.116717	0.816667
C105	C	-0.055754	-0.794298	0.391257
C106	C	0.444246	-0.294298	0.891257
C107	C	-0.039181	-0.844132	0.407888
C108	C	0.460819	-0.344132	0.907888
C109	C	0.041447	-0.844215	0.377269
C110	C	0.541447	-0.344215	0.877269
C111	C	0.024873	-0.794381	0.360637
C112	C	0.524873	-0.294381	0.860637
C113	C	-0.252183	-0.577666	0.416302
C114	C	0.247817	-0.077666	0.916302
C115	C	-0.302014	-0.561001	0.432833
C116	C	0.197986	-0.061001	0.932833
C117	C	-0.301886	-0.520329	0.351410
C118	C	0.198114	-0.020329	0.851410
C119	C	-0.252055	-0.536994	0.334880
C120	C	0.247945	-0.036994	0.834880
C121	C	-0.035709	-0.516892	0.355682
C122	C	0.464291	-0.016892	0.855682
C123	C	-0.019129	-0.500308	0.372353
C124	C	0.480871	-0.000308	0.872353
C125	C	0.021465	-0.581700	0.413115
C126	C	0.521465	-0.081700	0.913115
C127	C	0.004884	-0.598286	0.396450
C128	C	0.504884	-0.098286	0.896450
C129	C	-0.035389	-0.516907	0.139026
C130	C	0.464611	-0.016907	0.639026
C131	C	-0.018707	-0.500324	0.089193
C132	C	0.481293	-0.000324	0.589193
C133	C	0.021949	-0.581721	0.089240
C134	C	0.521949	-0.081721	0.589240
C135	C	0.005268	-0.598303	0.139074
C136	C	0.505268	-0.098303	0.639074
C137	C	-0.023402	-0.565894	0.163965
C138	C	0.476598	-0.065894	0.663965
C139	C	-0.023728	-0.769425	0.367633
C140	C	0.476272	-0.269425	0.867633
N141	N	0.427173	-0.450553	0.482630
N142	N	0.927173	0.049447	0.982630
O143	O	0.589997	-0.458460	0.365361
O144	O	1.089997	0.041540	0.865361
O145	O	0.590185	-0.550997	0.490963
O146	O	1.090185	-0.050997	0.990963
O147	O	0.590104	-0.550786	0.411309
O148	O	1.090104	-0.050786	0.911309
O149	O	0.590077	-0.458671	0.445016
O150	O	1.090077	0.041329	0.945016
O151	O	0.510940	-0.524462	0.437777
O152	O	1.010940	-0.024462	0.937777
O153	O	0.511020	-0.524674	0.517432
O154	O	1.011020	-0.024674	1.017432
O155	O	0.510832	-0.432136	0.391830
O156	O	1.010832	0.067864	0.891830
Zn157	Zn	0.498357	-0.474225	0.458833
Zn158	Zn	0.998357	0.025775	0.958833
Zn159	Zn	0.602660	-0.508908	0.423960
Zn160	Zn	1.102660	-0.008908	0.923960
O161	O	0.510913	-0.432348	0.471484
O162	O	1.010913	0.067652	0.971484
N163	N	0.673844	-0.532580	0.400158
N164	N	1.173844	-0.032580	0.900158
N165	N	0.091520	-0.115070	0.482873
N166	N	0.591520	0.384930	0.982873
O167	O	-0.025663	0.047841	0.474857
O168	O	0.474337	0.547841	0.974857
O169	O	0.099940	0.047877	0.382299
O170	O	0.599940	0.547877	0.882299
O171	O	0.020247	0.047844	0.382560
O172	O	0.520247	0.547844	0.882560
O173	O	0.054030	0.047874	0.474596
O174	O	0.554030	0.547874	0.974596
O175	O	0.046674	-0.031326	0.408942
O176	O	0.546674	0.468674	0.908942
O177	O	0.126367	-0.031293	0.408680
O178	O	0.626367	0.468707	0.908680
O179	O	0.000764	-0.031329	0.501238
O180	O	0.500764	0.468671	1.001238
Zn181	Zn	0.067761	-0.043881	0.459148
Zn182	Zn	0.567761	0.456119	0.959148
Zn183	Zn	0.032943	0.060429	0.424389
Zn184	Zn	0.532943	0.560429	0.924389
O185	O	0.080457	-0.031296	0.500977
O186	O	0.580457	0.468704	1.000977
N187	N	0.009178	0.131618	0.400665
N188	N	0.509178	0.631618	0.900665
N189	N	0.091852	-0.450680	0.818332
N190	N	0.591852	0.049320	1.318332
O191	O	0.083862	-0.567845	0.981235
O192	O	0.583862	-0.067845	1.481235
O193	O	-0.008657	-0.442198	0.981276
O194	O	0.491343	0.057802	1.481276
O195	O	-0.008441	-0.521875	0.981252
O196	O	0.491559	-0.021875	1.481252
O197	O	0.083646	-0.488168	0.981258
O198	O	0.583646	0.011832	1.481258
O199	O	0.017919	-0.495468	0.902085
O200	O	0.517919	0.004532	1.402085
O201	O	0.017703	-0.415791	0.902109
O202	O	0.517703	0.084209	1.402109
O203	O	0.110222	-0.541438	0.902067
O204	O	0.610222	-0.041438	1.402067
Zn205	Zn	0.068148	-0.474422	0.889518
Zn206	Zn	0.568148	0.025578	1.389518
Zn207	Zn	0.033417	-0.509214	0.993825
Zn208	Zn	0.533417	-0.009214	1.493825
O209	O	0.110006	-0.461761	0.902091
O210	O	0.610006	0.038239	1.402091
N211	N	0.009712	-0.532961	1.065011
N212	N	0.509712	-0.032961	1.565011
C213	C	0.030439	-0.413071	0.383027
C214	C	0.530439	0.086929	0.883027
C215	C	0.129046	-0.511580	0.382922
C216	C	0.629046	-0.011580	0.882922
C217	C	0.070334	-0.570496	0.500675
C218	C	0.570334	-0.070496	1.000675
C219	C	-0.028274	-0.471987	0.500780
C220	C	0.471726	0.028013	1.000780
C221	C	0.550625	-0.550579	0.520021
C222	C	1.050625	-0.050579	1.020021
C223	C	0.550527	-0.550317	0.421379
C224	C	1.050527	-0.050317	0.921379
C225	C	0.550389	-0.432554	0.362773
C226	C	1.050389	0.067446	0.862773
C227	C	0.550491	-0.432816	0.461414
C228	C	1.050491	0.067184	0.961414
C229	C	0.128944	0.008394	0.382712
C230	C	0.628944	0.508394	0.882712
C231	C	0.030287	0.008256	0.383068
C232	C	0.530287	0.508256	0.883068
C233	C	-0.028273	0.008252	0.500793
C234	C	0.471727	0.508252	1.000793
C235	C	0.070417	0.008292	0.500470
C236	C	0.570417	0.508292	1.000470
C237	C	-0.008218	-0.413165	0.941698
C238	C	0.491782	0.086835	1.441698
C239	C	-0.007945	-0.511830	0.941653
C240	C	0.492055	-0.011830	1.441653
C241	C	0.109783	-0.570471	0.941646
C242	C	0.609783	-0.070471	1.441646
C243	C	0.109516	-0.471800	0.941673
C244	C	0.609516	0.028200	1.441673
H245	H	0.019320	-0.412483	0.814467
H246	H	0.519320	0.087517	1.314467
C247	C	-0.106433	-0.415956	0.522942
C248	C	0.393567	0.084044	1.022942
C249	C	-0.076992	-0.462395	0.539954
C250	C	0.423008	0.037605	1.039954
H251	H	-0.136508	-0.410034	0.547128
H252	H	0.363492	0.089966	1.047128
H253	H	-0.110599	-0.412382	0.495905
H254	H	0.389401	0.087618	0.995905
H255	H	-0.092161	-0.393958	0.514263
H256	H	0.407839	0.106042	1.014263
H257	H	-0.091262	-0.484394	0.548630
H258	H	0.408738	0.015606	1.048630
H259	H	-0.072828	-0.465974	0.566999
H260	H	0.427172	0.034026	1.066999
H261	H	0.138832	-0.606554	0.941627
H262	H	0.638832	-0.106554	1.441627
C263	C	-0.057899	-0.559829	0.982279
C264	C	0.442101	-0.059829	1.482279
C265	C	-0.046985	-0.521547	0.941605
C266	C	0.453015	-0.021547	1.441605
H267	H	-0.081998	-0.565830	0.982247
H268	H	0.418002	-0.065830	1.482247
H269	H	-0.068908	-0.552282	1.009896
H270	H	0.431092	-0.052282	1.509896
H271	H	-0.030191	-0.587342	0.982275
H272	H	0.469809	-0.087342	1.482275
H273	H	-0.074691	-0.494034	0.941611
H274	H	0.425309	0.005966	1.441611
H275	H	-0.035976	-0.529093	0.913981
H276	H	0.464024	-0.029093	1.413981
C277	C	0.550724	-0.630538	0.568775
C278	C	1.050724	-0.130538	1.068775
C279	C	0.550698	-0.589800	0.568717
C280	C	1.050698	-0.089800	1.068717
H281	H	0.550767	-0.654750	0.598839
H282	H	1.050767	-0.154750	1.098839
H283	H	0.578315	-0.641427	0.544539
H284	H	1.078315	-0.141427	1.044539
H285	H	0.523102	-0.623064	0.562994
H286	H	1.023102	-0.123064	1.062994
H287	H	0.578322	-0.597273	0.574494
H288	H	1.078322	-0.097273	1.074494
H289	H	0.523104	-0.578910	0.592960
H290	H	1.023104	-0.078910	1.092960
H291	H	0.023050	0.008252	0.354152
H292	H	0.523050	0.508252	0.854152
H293	H	0.164941	0.008624	0.353583
H294	H	0.664941	0.508624	0.853583
H295	H	0.550540	-0.579254	0.414165
H296	H	1.050540	-0.079254	0.914165
C297	C	-0.087293	-0.370611	0.982411
C298	C	0.412707	0.129389	1.482411
C299	C	-0.047433	-0.364452	0.941712
C300	C	0.452567	0.135548	1.441712
H301	H	-0.111503	-0.340537	0.982417
H302	H	0.388497	0.159463	1.482417
H303	H	-0.078633	-0.384851	1.010011
H304	H	0.421367	0.115149	1.510011
H305	H	-0.098779	-0.390615	0.982402
H306	H	0.401221	0.109385	1.482402
H307	H	-0.035945	-0.344451	0.941724
H308	H	0.464055	0.155549	1.441724
H309	H	-0.056094	-0.350205	0.914105
H310	H	0.443906	0.149795	1.414105
H311	H	0.081021	-0.864532	0.371574
H312	H	0.581021	-0.364532	0.871574
C313	C	0.550291	-0.410283	0.284609
C314	C	1.050291	0.089717	0.784609
C315	C	0.550310	-0.393330	0.314079
C316	C	1.050310	0.106670	0.814079
H317	H	0.550245	-0.386068	0.254547
H318	H	1.050245	0.113932	0.754547
H319	H	0.522704	-0.418958	0.298874
H320	H	1.022704	0.081042	0.798874
H321	H	0.577917	-0.437317	0.280413
H322	H	1.077917	0.062683	0.780413
H323	H	0.522682	-0.366298	0.318278
H324	H	1.022682	0.133702	0.818278
H325	H	0.577900	-0.384649	0.299810
H326	H	1.077900	0.115351	0.799810
H327	H	0.550485	-0.403881	0.468626
H328	H	1.050485	0.096119	0.968626
C329	C	0.186287	-0.559426	0.332782
C330	C	0.686287	-0.059426	0.832782
C331	C	0.177765	-0.521173	0.343749
C332	C	0.677765	-0.021173	0.843749
H333	H	0.216365	-0.565349	0.308601
H334	H	0.716365	-0.065349	0.808601
H335	H	0.162072	-0.551895	0.321863
H336	H	0.662072	-0.051895	0.821863
H337	H	0.186210	-0.586978	0.360446
H338	H	0.686210	-0.086978	0.860446
H339	H	0.177839	-0.493619	0.316086
H340	H	0.677839	0.006381	0.816086
H341	H	0.201987	-0.528701	0.354666
H342	H	0.701987	-0.028701	0.854666
C343	C	-0.195950	-0.565352	0.269034
C344	C	0.304050	-0.065352	0.769034
C345	C	-0.224600	-0.523797	0.281044
C346	C	0.275400	-0.023797	0.781044
H347	H	-0.178998	-0.557203	0.235798
H348	H	0.321002	-0.057203	0.735798
H349	H	-0.215397	-0.582226	0.277162
H350	H	0.284603	-0.082226	0.777162
H351	H	-0.174019	-0.584807	0.285993
H352	H	0.325981	-0.084807	0.785993
H353	H	-0.246533	-0.504344	0.264088
H354	H	0.253467	-0.004344	0.764088
H355	H	-0.205152	-0.506917	0.272911
H356	H	0.294848	-0.006917	0.772911
H357	H	0.138447	-0.464586	0.941669
H358	H	0.638447	0.035414	1.441669
C359	C	0.091126	-0.654911	0.523628
C360	C	0.591126	-0.154911	1.023628
C361	C	0.080018	-0.619255	0.539784
C362	C	0.580018	-0.119255	1.039784
H363	H	0.097101	-0.685012	0.547774
H364	H	0.597101	-0.185012	1.047774
H365	H	0.118647	-0.654773	0.495945
H366	H	0.618647	-0.154773	0.995945
H367	H	0.065157	-0.649132	0.516215
H368	H	0.565157	-0.149132	1.016215
H369	H	0.105988	-0.625032	0.547194
H370	H	0.605988	-0.125032	1.047194
H371	H	0.052494	-0.619394	0.567476
H372	H	0.552494	-0.119394	1.067476
H373	H	-0.064344	0.008241	0.529850
H374	H	0.435656	0.508241	1.029850
C375	C	0.039644	0.008291	0.580352
C376	C	0.539644	0.508291	1.080352
C377	C	0.080180	0.008301	0.539507
C378	C	0.580180	0.508301	1.039507
H379	H	0.045671	0.008300	0.604450
H380	H	0.545671	0.508300	1.104450
H381	H	0.032102	-0.019322	0.591354
H382	H	0.532102	0.480678	1.091354
H383	H	0.013669	0.035895	0.572953
H384	H	0.513669	0.535895	1.072953
H385	H	0.106155	-0.019305	0.546906
H386	H	0.606155	0.480695	1.046906
H387	H	0.087728	0.035917	0.528504
H388	H	0.587728	0.535917	1.028504
C389	C	-0.006356	-0.367120	0.749401
C390	C	0.493644	0.132880	1.249401
C391	C	0.040135	-0.374159	0.716977
C392	C	0.540135	0.125841	1.216977
H393	H	-0.028356	-0.347681	0.732515
H394	H	0.471644	0.152319	1.232515
H395	H	-0.011125	-0.351910	0.768834
H396	H	0.488875	0.148090	1.268834
H397	H	-0.011119	-0.396997	0.768837
H398	H	0.488881	0.103003	1.268837
H399	H	0.044899	-0.344283	0.697544
H400	H	0.544899	0.155717	1.197544
H401	H	0.044905	-0.389369	0.697536
H402	H	0.544905	0.110631	1.197536
H403	H	0.196836	-0.456064	0.477324
H404	H	0.696836	0.043936	0.977324
C405	C	0.222734	-0.501484	0.789024
C406	C	0.722734	-0.001484	1.289024
C407	C	0.176242	-0.494442	0.821446
C408	C	0.676242	0.005558	1.321446
H409	H	0.244732	-0.520932	0.805911
H410	H	0.744732	-0.020932	1.305911
H411	H	0.227501	-0.471613	0.769594
H412	H	0.727501	0.028387	1.269594
H413	H	0.227499	-0.516691	0.769584
H414	H	0.727499	-0.016691	1.269584
H415	H	0.171475	-0.479232	0.840883
H416	H	0.671475	0.020768	1.340883
H417	H	0.171473	-0.524318	0.840884
H418	H	0.671473	-0.024318	1.340884
H419	H	0.197059	-0.456117	0.723950
H420	H	0.697059	0.043883	1.223950
H421	H	0.049217	-0.382297	0.551240
H422	H	0.549217	0.117703	1.051240
H423	H	0.166679	-0.486211	0.447227
H424	H	0.666679	0.013789	0.947227
C425	C	-0.015479	-0.425941	0.574135
C426	C	0.484521	0.074059	1.074135
C427	C	0.005098	-0.409020	0.524571
C428	C	0.505098	0.090980	1.024571
H429	H	-0.048726	-0.417790	0.582327
H430	H	0.451274	0.082210	1.082327
H431	H	-0.010216	-0.411946	0.588121
H432	H	0.489784	0.088054	1.088121
H433	H	-0.001456	-0.459564	0.585571
H434	H	0.498544	0.040436	1.085571
H435	H	-0.008923	-0.375396	0.513136
H436	H	0.491077	0.124604	1.013136
H437	H	-0.000169	-0.423012	0.510580
H438	H	0.499831	0.076988	1.010580
C439	C	0.337816	-0.524616	0.518541
C440	C	0.837816	-0.024616	1.018541
C441	C	0.325788	-0.501408	0.548777
C442	C	0.825788	-0.001408	1.048777
H443	H	0.320922	-0.546345	0.534616
H444	H	0.820922	-0.046345	1.034616
H445	H	0.371058	-0.541453	0.509642
H446	H	0.871058	-0.041453	1.009642
H447	H	0.329618	-0.501790	0.490863
H448	H	0.829618	-0.001790	0.990863
H449	H	0.333990	-0.524234	0.576454
H450	H	0.833990	-0.024234	1.076454
H451	H	0.292538	-0.484571	0.557682
H452	H	0.792538	0.015429	1.057682
C453	C	0.459069	-0.553466	0.540732
C454	C	0.959069	-0.053466	1.040732
C455	C	0.430384	-0.536250	0.513848
C456	C	0.930384	-0.036250	1.013848
H457	H	0.475990	-0.586457	0.545514
H458	H	0.975990	-0.086457	1.045514
H459	H	0.439650	-0.548852	0.570674
H460	H	0.939650	-0.048852	1.070674
H461	H	0.481027	-0.536770	0.524235
H462	H	0.981027	-0.036770	1.024235
H463	H	0.408424	-0.552944	0.530346
H464	H	0.908424	-0.052944	1.030346
H465	H	0.449805	-0.540868	0.483900
H466	H	0.949805	-0.040868	0.983900
H467	H	0.423225	-0.376108	0.456057
H468	H	0.923225	0.123892	0.956057
H469	H	0.332825	-0.345993	0.486242
H470	H	0.832825	0.154007	0.986242
H471	H	0.159856	-0.209371	0.440456
H472	H	0.659856	0.290629	0.940456
C473	C	-0.073906	-0.434781	0.133968
C474	C	0.426094	0.065219	0.633968
C475	C	-0.066907	-0.481280	0.166384
C476	C	0.433093	0.018720	0.666384
H477	H	-0.093361	-0.412788	0.150859
H478	H	0.406639	0.087212	0.650859
H479	H	-0.089081	-0.429985	0.114488
H480	H	0.410919	0.070015	0.614488
H481	H	-0.044021	-0.430031	0.114578
H482	H	0.455979	0.069969	0.614578
H483	H	-0.096792	-0.486031	0.185771
H484	H	0.403208	0.013969	0.685771
H485	H	-0.051733	-0.486077	0.185872
H486	H	0.448267	0.013923	0.685872
H487	H	0.129672	-0.118967	0.410356
H488	H	0.629672	0.381033	0.910356
C489	C	-0.126439	-0.738211	0.425867
C490	C	0.373561	-0.238211	0.925867
C491	C	-0.109181	-0.766872	0.398946
C492	C	0.390819	-0.266872	0.898946
H493	H	-0.159422	-0.721285	0.430617
H494	H	0.340578	-0.221285	0.930617
H495	H	-0.109748	-0.716258	0.409417
H496	H	0.390252	-0.216258	0.909417
H497	H	-0.121857	-0.757653	0.455828
H498	H	0.378143	-0.257653	0.955828
H499	H	-0.113759	-0.747429	0.368984
H500	H	0.386241	-0.247429	0.868984
H501	H	-0.125877	-0.788827	0.415395
H502	H	0.374123	-0.288827	0.915395
C503	C	0.040803	-0.144322	0.613747
C504	C	0.540803	0.355678	1.113747
C505	C	0.047813	-0.111916	0.567243
C506	C	0.547813	0.388084	1.067243
H507	H	0.021373	-0.127421	0.635731
H508	H	0.521373	0.372579	1.135731
H509	H	0.070683	-0.163749	0.618505
H510	H	0.570683	0.336251	1.118505
H511	H	0.025591	-0.163767	0.618543
H512	H	0.525591	0.336233	1.118543
H513	H	0.063028	-0.092472	0.562446
H514	H	0.563028	0.407528	1.062446
H515	H	0.017927	-0.092480	0.562483
H516	H	0.517927	0.407520	1.062483
C517	C	0.053150	-0.343244	0.331119
C518	C	0.553150	0.156756	0.831119
C519	C	0.020751	-0.364313	0.343917
C520	C	0.520751	0.135687	0.843917
H521	H	0.047166	-0.313142	0.306977
H522	H	0.547166	0.186858	0.806977
H523	H	0.084654	-0.363175	0.319528
H524	H	0.584654	0.136825	0.819528
H525	H	0.049596	-0.339120	0.358174
H526	H	0.549596	0.160880	0.858174
H527	H	0.024307	-0.368440	0.316862
H528	H	0.524307	0.131560	0.816862
H529	H	-0.010761	-0.344378	0.355506
H530	H	0.489239	0.155622	0.855506
C531	C	0.103427	-0.265526	0.609798
C532	C	0.603427	0.234474	1.109798
C533	C	0.082766	-0.216526	0.602073
C534	C	0.582766	0.283474	1.102073
H535	H	0.095313	-0.282442	0.643043
H536	H	0.595313	0.217558	1.143043
H537	H	0.137039	-0.273664	0.595755
H538	H	0.637039	0.226336	1.095755
H539	H	0.091934	-0.273705	0.595841
H540	H	0.591934	0.226295	1.095841
H541	H	0.094261	-0.208347	0.616027
H542	H	0.594261	0.291653	1.116027
H543	H	0.049147	-0.208385	0.616122
H544	H	0.549147	0.291615	1.116122
C545	C	0.060451	-0.663846	0.094293
C546	C	0.560451	-0.163846	0.594293
C547	C	0.053454	-0.617346	0.061879
C548	C	0.553454	-0.117346	0.561879
H549	H	0.079905	-0.685838	0.077401
H550	H	0.579905	-0.185838	0.577401
H551	H	0.030569	-0.668594	0.113682
H552	H	0.530569	-0.168594	0.613682
H553	H	0.075631	-0.668645	0.113775
H554	H	0.575631	-0.168645	0.613775
H555	H	0.038271	-0.612545	0.042400
H556	H	0.538271	-0.112545	0.542400
H557	H	0.083341	-0.612596	0.042483
H558	H	0.583341	-0.112596	0.542483
C559	C	0.009663	-0.434481	0.033197
C560	C	0.509663	0.065519	0.533197
C561	C	-0.031894	-0.446474	0.061783
C562	C	0.468106	0.053526	0.561783
H563	H	0.001522	-0.401236	0.016278
H564	H	0.501522	0.098764	0.516278
H565	H	0.029122	-0.451404	0.011241
H566	H	0.529122	0.048596	0.511241
H567	H	0.026526	-0.442665	0.052688
H568	H	0.526526	0.057335	0.552688
H569	H	-0.048755	-0.438293	0.042291
H570	H	0.451245	0.061707	0.542291
H571	H	-0.051360	-0.429545	0.083741
H572	H	0.448640	0.070455	0.583741
C573	C	-0.175856	-0.621274	0.427117
C574	C	0.324144	-0.121274	0.927117
C575	C	-0.224869	-0.609178	0.451969
C576	C	0.275131	-0.109178	0.951969
H577	H	-0.158993	-0.640732	0.449136
H578	H	0.341007	-0.140732	0.949136
H579	H	-0.167659	-0.593118	0.407695
H580	H	0.332341	-0.093118	0.907695
H581	H	-0.167676	-0.638181	0.407671
H582	H	0.332324	-0.138181	0.907671
H583	H	-0.233050	-0.592267	0.471413
H584	H	0.266950	-0.092267	0.971413
H585	H	-0.233069	-0.637338	0.471399
H586	H	0.266931	-0.137338	0.971399
H587	H	0.015032	-0.638195	0.159378
H588	H	0.515032	-0.138195	0.659378
H589	H	-0.028907	-0.460416	0.362542
H590	H	0.471093	0.039584	0.862542
C591	C	-0.074179	-0.434770	0.317074
C592	C	0.425821	0.065230	0.817074
C593	C	-0.067137	-0.481273	0.324124
C594	C	0.432863	0.018727	0.824124
H595	H	-0.093584	-0.412781	0.297593
H596	H	0.406416	0.087219	0.797593
H597	H	-0.044306	-0.430017	0.301908
H598	H	0.455694	0.069983	0.801908
H599	H	-0.089429	-0.429974	0.346943
H600	H	0.410571	0.070026	0.846943
H601	H	-0.051884	-0.486070	0.294256
H602	H	0.448116	0.013930	0.794256
H603	H	-0.097015	-0.486028	0.339290
H604	H	0.402985	0.013972	0.839290
H605	H	0.014660	-0.638178	0.406265
H606	H	0.514660	-0.138178	0.906265
C607	C	0.059930	-0.663825	0.451731
C608	C	0.559930	-0.163825	0.951731
C609	C	0.052892	-0.617322	0.444677
C610	C	0.552892	-0.117322	0.944677
H611	H	0.079328	-0.685814	0.471218
H612	H	0.579328	-0.185814	0.971218
H613	H	0.075180	-0.668625	0.421868
H614	H	0.575180	-0.168625	0.921868
H615	H	0.030051	-0.668574	0.466897
H616	H	0.530051	-0.168574	0.966897
H617	H	0.082771	-0.612572	0.429507
H618	H	0.582771	-0.112572	0.929507
H619	H	0.037642	-0.612520	0.474544
H620	H	0.537642	-0.112520	0.974544
H621	H	-0.065262	-0.864385	0.427124
H622	H	0.434738	-0.364385	0.927124
C623	C	0.093754	-0.779126	0.293879
C624	C	0.593754	-0.279126	0.793879
C625	C	0.060082	-0.767044	0.334670
C626	C	0.560082	-0.267044	0.834670
H627	H	0.115493	-0.762251	0.277851
H628	H	0.615493	-0.262251	0.777851
H629	H	0.078037	-0.770941	0.273334
H630	H	0.578037	-0.270941	0.773334
H631	H	0.110573	-0.812378	0.302791
H632	H	0.610573	-0.312378	0.802791
H633	H	0.043260	-0.733792	0.325757
H634	H	0.543260	-0.233792	0.825757
H635	H	0.075800	-0.775226	0.355218
H636	H	0.575800	-0.275226	0.855218
C637	C	-0.297138	-0.602891	0.511658
C638	C	0.202862	-0.102891	1.011658
C639	C	-0.329474	-0.574205	0.486669
C640	C	0.170526	-0.074205	0.986669
H641	H	-0.314091	-0.611046	0.544894
H642	H	0.185909	-0.111046	1.044894
H643	H	-0.277699	-0.586012	0.503535
H644	H	0.222301	-0.086012	1.003535
H645	H	-0.277701	-0.631074	0.503495
H646	H	0.222299	-0.131074	1.003495
H647	H	-0.348909	-0.546019	0.494829
H648	H	0.151091	-0.046019	0.994829
H649	H	-0.348921	-0.591084	0.494796
H650	H	0.151079	-0.091084	0.994796
H651	H	-0.322118	-0.496994	0.324987
H652	H	0.177882	0.003006	0.824987
