data_functionalizedCrystal
_audit_creation_method	'MofGen! by Chris Wilmer'
_symmetry_space_group_name_H-M	'P1'
_symmetry_Int_Tables_number	1
_symmetry_cell_setting	triclinic
loop_
_symmetry_equiv_pos_as_xyz
  x,y,z
_cell_length_a	13.897448
_cell_length_b	12.759401
_cell_length_c	12.759393
_cell_angle_alpha	89.979062
_cell_angle_beta	90.032272
_cell_angle_gamma	89.980783
loop_
_atom_site_label
_atom_site_type_symbol
_atom_site_fract_x
_atom_site_fract_y
_atom_site_fract_z
Zn1	Zn	-0.383929	-1.606245	0.594007
Zn2	Zn	0.116071	-1.106245	1.094007
Zn3	Zn	-0.545255	-1.606126	0.418322
Zn4	Zn	-0.045255	-1.106126	0.918322
Zn5	Zn	-0.383980	-1.430543	0.418342
Zn6	Zn	0.116020	-0.930543	0.918342
Zn7	Zn	-0.545188	-1.430526	0.593959
Zn8	Zn	-0.045188	-0.930526	1.093959
O9	O	-0.464588	-1.518360	0.506158
O10	O	0.035412	-1.018360	1.006158
O11	O	-0.405336	-1.753250	0.570714
O12	O	0.094664	-1.253250	1.070714
O13	O	-0.523912	-1.582793	0.271303
O14	O	-0.023912	-1.082793	0.771303
O15	O	-0.248992	-1.453907	0.441673
O16	O	0.251008	-0.953907	0.941673
O17	O	-0.523862	-1.753163	0.441638
O18	O	-0.023862	-1.253163	0.941638
O19	O	-0.248954	-1.582994	0.570734
O20	O	0.251046	-1.082994	1.070734
O21	O	-0.405423	-1.453793	0.271318
O22	O	0.094577	-0.953793	0.771318
O23	O	-0.405358	-1.283520	0.441627
O24	O	0.094642	-0.783520	0.941627
O25	O	-0.523747	-1.453878	0.740987
O26	O	-0.023747	-0.953878	1.240987
O27	O	-0.523797	-1.283507	0.570652
O28	O	-0.023797	-0.783507	1.070652
O29	O	-0.405271	-1.582977	0.741022
O30	O	0.094729	-1.082977	1.241022
O31	O	-0.680228	-1.582776	0.441592
O32	O	-0.180228	-1.082776	0.941592
O33	O	-0.680179	-1.453763	0.570632
O34	O	-0.180179	-0.953763	1.070632
C35	C	-0.715203	-1.518283	0.506127
C36	C	-0.215203	-1.018283	1.006127
C37	C	-0.822416	-1.518347	0.506149
C38	C	-0.322416	-1.018347	1.006149
C39	C	-0.464576	-1.245393	0.506137
C40	C	0.035424	-0.745393	1.006137
C41	C	-0.464595	-1.128616	0.506153
C42	C	0.035405	-0.628616	1.006153
C43	C	-0.464496	-1.518439	0.780191
C44	C	0.035504	-1.018439	1.280191
C45	C	-0.464456	-1.518472	0.896968
C46	C	0.035544	-1.018472	1.396968
C47	C	-1.018711	-1.518457	0.506215
C48	C	-0.518711	-1.018457	1.006215
C49	C	-0.909479	-1.518393	0.506182
C50	C	-0.409479	-1.018393	1.006182
C51	C	-0.212995	-1.518466	0.506211
C52	C	0.287005	-1.018466	1.006211
C53	C	-0.105781	-1.518511	0.506234
C54	C	0.394219	-1.018511	1.006234
C55	C	-0.464601	-1.792393	0.506179
C56	C	0.035399	-1.292393	1.006179
C57	C	-0.464606	-1.909170	0.506188
C58	C	0.035394	-1.409170	1.006188
C59	C	-0.526359	-1.073775	0.573230
C60	C	-0.026359	-0.573775	1.073230
C61	C	-0.526363	-0.964051	0.573251
C62	C	-0.026363	-0.464051	1.073251
C63	C	-0.402834	-0.964019	0.439108
C64	C	0.097166	-0.464019	0.939108
C65	C	-0.402827	-1.073741	0.439093
C66	C	0.097173	-0.573741	0.939093
C67	C	-0.464611	-1.518342	0.233190
C68	C	0.035389	-1.018342	0.733190
C69	C	-0.464379	-1.518512	0.116414
C70	C	0.035621	-1.018512	0.616414
C71	C	-0.402756	-1.585699	0.951850
C72	C	0.097244	-1.085699	1.451850
C73	C	-0.402714	-1.585717	1.061574
C74	C	0.097286	-1.085717	1.561574
C75	C	-0.526082	-1.451278	1.061524
C76	C	-0.026082	-0.951278	1.561524
C77	C	-0.526118	-1.451255	0.951802
C78	C	-0.026118	-0.951255	1.451802
H79	H	-0.576652	-1.118451	0.627837
H80	H	-0.076652	-0.618451	1.127837
O81	O	-0.586454	-0.910941	0.638441
O82	O	-0.086454	-0.410941	1.138441
C83	C	-0.640948	-0.982909	0.697643
C84	C	-0.140948	-0.482909	1.197643
H85	H	-0.644234	-1.061098	0.654588
H86	H	-0.144234	-0.561098	1.154588
H87	H	-0.716961	-0.951190	0.708707
H88	H	-0.216961	-0.451190	1.208707
H89	H	-0.605715	-0.994632	0.777502
H90	H	-0.105715	-0.494632	1.277502
H91	H	-0.352470	-1.640459	1.106254
H92	H	0.147530	-1.140459	1.606254
O93	O	-0.342714	-1.650872	0.898632
O94	O	0.157286	-1.150872	1.398632
C95	C	-0.246570	-1.627969	0.925485
C96	C	0.253430	-1.127969	1.425485
H97	H	-0.241690	-1.544044	0.955632
H98	H	0.258310	-1.044044	1.455632
H99	H	-0.198936	-1.637026	0.853342
H100	H	0.301064	-1.137026	1.353342
H101	H	-0.221339	-1.684317	0.989192
H102	H	0.278661	-1.184317	1.489192
O103	O	-0.342752	-0.910873	0.373929
O104	O	0.157248	-0.410873	0.873929
C105	C	-0.288252	-0.982810	0.314702
C106	C	0.211748	-0.482810	0.814702
H107	H	-0.284951	-1.061045	0.357734
H108	H	0.215049	-0.561045	0.857734
H109	H	-0.212244	-0.951122	0.303642
H110	H	0.287756	-0.451122	0.803642
H111	H	-0.323488	-0.994433	0.234842
H112	H	0.176512	-0.494433	0.734842
H113	H	-0.576287	-1.396554	1.106184
H114	H	-0.076287	-0.896554	1.606184
H115	H	-0.352524	-1.118394	0.384470
H116	H	0.147476	-0.618394	0.884470
H117	H	-0.576361	-1.396503	0.907116
H118	H	-0.076361	-0.896503	1.407116
