data_functionalizedCrystal
_audit_creation_method	'MofGen! by Chris Wilmer'
_symmetry_space_group_name_H-M	'P1'
_symmetry_Int_Tables_number	1
_symmetry_cell_setting	triclinic
loop_
_symmetry_equiv_pos_as_xyz
  x,y,z
_cell_length_a	10.685980
_cell_length_b	12.759400
_cell_length_c	10.686551
_cell_angle_alpha	85.595160
_cell_angle_beta	81.591741
_cell_angle_gamma	94.380016
loop_
_atom_site_label
_atom_site_type_symbol
_atom_site_fract_x
_atom_site_fract_y
_atom_site_fract_z
Zn1	Zn	1.995797	-0.235484	-0.866710
Zn2	Zn	1.979382	-0.425813	-0.654452
Zn3	Zn	1.767226	-0.264725	-0.638176
Zn4	Zn	1.783506	-0.425711	-0.850362
O5	O	1.881478	-0.337933	-0.752425
O6	O	2.171253	-0.248537	-0.852207
O7	O	1.937556	-0.416725	-0.474661
O8	O	1.797602	-0.113820	-0.668521
O9	O	2.159193	-0.388371	-0.696262
O10	O	1.965533	-0.092336	-0.836425
O11	O	1.781685	-0.298374	-0.462703
O12	O	1.591752	-0.298275	-0.652669
O13	O	1.825350	-0.388197	-1.030163
O14	O	1.603713	-0.416551	-0.808562
O15	O	1.981320	-0.248438	-1.042173
O16	O	1.953342	-0.572826	-0.680410
O17	O	1.809433	-0.572751	-0.824345
C18	C	1.551674	-0.360576	-0.727076
C19	C	1.410586	-0.370285	-0.716262
C20	C	1.881410	-0.610907	-0.752400
C21	C	1.881500	-0.727675	-0.752441
C22	C	1.968906	-0.771269	-0.839931
C23	C	1.968967	-0.880987	-0.839967
C24	C	1.794212	-0.903508	-0.665010
C25	C	1.794146	-0.793792	-0.664981
C26	C	2.056260	-0.705152	-0.927391
C27	C	2.143674	-0.748746	-1.014888
C28	C	2.143735	-0.858463	-1.014923
C29	C	2.056383	-0.924588	-0.927462
C30	C	2.212569	-0.315204	-0.777874
C31	C	2.353660	-0.305517	-0.788719
C32	C	1.906982	-0.315044	-1.083514
C33	C	1.917850	-0.305290	-1.224604
C34	C	1.881583	-0.063890	-0.752481
C35	C	1.881628	0.052891	-0.752505
C36	C	1.856146	-0.360653	-0.422630
C37	C	1.845523	-0.370094	-0.281559
H38	H	2.056222	-0.615813	-0.927369
H39	H	1.775286	-0.433044	-1.222377
H40	H	2.214902	-0.893954	-1.086176
F41	F	1.431038	-0.223320	-0.880615
H42	H	2.214787	-0.694902	-1.086103
H43	H	2.056426	-1.013927	-0.927511
F44	F	1.701122	-0.747393	-0.571860
F45	F	1.333201	-0.452477	-0.624348
F46	F	1.701253	-0.973885	-0.571933
F47	F	2.009665	-0.223022	-1.301950
