data_functionalizedCrystal
_audit_creation_method	'MofGen! by Chris Wilmer'
_symmetry_space_group_name_H-M	'P1'
_symmetry_Int_Tables_number	1
_symmetry_cell_setting	triclinic
loop_
_symmetry_equiv_pos_as_xyz
  x,y,z
_cell_length_a	17.019282
_cell_length_b	17.019294
_cell_length_c	18.366186
_cell_angle_alpha	86.114787
_cell_angle_beta	93.872176
_cell_angle_gamma	83.655696
loop_
_atom_site_label
_atom_site_type_symbol
_atom_site_fract_x
_atom_site_fract_y
_atom_site_fract_z
O1	O	1.046568	0.100443	-0.001201
O2	O	1.546568	0.600443	0.498799
O3	O	0.816889	0.113271	-0.016413
O4	O	1.316889	0.613271	0.483587
O5	O	0.938135	-0.007983	-0.001201
O6	O	1.438135	0.492017	0.498799
O7	O	0.925322	0.221698	-0.016413
O8	O	1.425322	0.721698	0.483587
O9	O	0.938115	-0.007989	0.119897
O10	O	1.438115	0.492011	0.619897
O11	O	0.816869	0.113265	0.104686
O12	O	1.316869	0.613265	0.604686
O13	O	1.046547	0.100437	0.119898
O14	O	1.546547	0.600437	0.619898
Zn15	Zn	0.931705	0.106850	0.131519
Zn16	Zn	1.431705	0.606850	0.631519
Zn17	Zn	0.931732	0.106858	-0.028034
Zn18	Zn	1.431732	0.606858	0.471966
O19	O	0.925301	0.221692	0.104686
O20	O	1.425301	0.721692	0.604686
C21	C	0.787491	0.112784	0.042323
C22	C	1.287491	0.612784	0.542323
C23	C	0.699922	0.111331	0.036921
C24	C	1.199922	0.611331	0.536921
C25	C	0.658776	0.110643	0.100396
C26	C	1.158776	0.610643	0.600396
C27	C	0.576498	0.109266	0.095323
C28	C	1.076498	0.609266	0.595323
C29	C	0.535367	0.108582	0.026774
C30	C	1.035367	0.608582	0.526774
C31	C	0.576519	0.109267	-0.036705
C32	C	1.076519	0.609267	0.463295
C33	C	0.658797	0.110639	-0.031631
C34	C	1.158797	0.610639	0.468369
C35	C	0.286944	0.104435	0.008152
C36	C	0.786944	0.604435	0.508152
C37	C	0.204661	0.103065	0.003083
C38	C	0.704661	0.603065	0.503083
C39	C	0.204645	0.103062	0.135111
C40	C	0.704645	0.603062	0.635111
C41	C	0.286923	0.104439	0.140179
C42	C	0.786923	0.604439	0.640179
C43	C	0.328069	0.105120	0.076700
C44	C	0.828069	0.605120	0.576700
C45	C	0.451265	0.107176	0.021587
C46	C	0.951265	0.607176	0.521587
C47	C	0.412170	0.106520	0.081888
C48	C	0.912170	0.606520	0.581888
C49	C	0.937639	-0.037375	0.061160
C50	C	1.437639	0.462625	0.561160
C51	C	0.936181	-0.124944	0.066557
C52	C	1.436181	0.375056	0.566557
C53	C	0.935509	-0.166076	0.003082
C54	C	1.435509	0.333924	0.503082
C55	C	0.934133	-0.248356	0.008155
C56	C	1.434133	0.251644	0.508155
C57	C	0.933436	-0.289502	0.076704
C58	C	1.433436	0.210498	0.576704
C59	C	0.934106	-0.248364	0.140183
C60	C	1.434106	0.251636	0.640183
C61	C	0.935475	-0.166085	0.135109
C62	C	1.435475	0.333915	0.635109
C63	C	0.929295	-0.537931	0.095327
C64	C	1.429295	-0.037931	0.595327
C65	C	0.927928	-0.620215	0.100396
C66	C	1.427928	-0.120215	0.600396
C67	C	0.927954	-0.620201	-0.031632
C68	C	1.427954	-0.120201	0.468368
C69	C	0.929329	-0.537922	-0.036700
C70	C	1.429329	-0.037922	0.463300
C71	C	0.929994	-0.496790	0.026779
C72	C	1.429994	0.003210	0.526779
C73	C	0.932033	-0.373605	0.081891
C74	C	1.432033	0.126395	0.581891
C75	C	0.931392	-0.412687	0.021590
C76	C	1.431392	0.087313	0.521590
C77	C	1.075946	0.100925	0.061160
C78	C	1.575946	0.600925	0.561160
C79	C	1.163514	0.102377	0.066557
C80	C	1.663514	0.602377	0.566557
C81	C	0.925798	0.251083	0.042324
C82	C	1.425798	0.751083	0.542324
C83	C	0.927256	0.338652	0.036922
C84	C	1.427256	0.838652	0.536922
N85	N	0.931692	0.106844	0.240409
N86	N	1.431692	0.606844	0.740409
N87	N	0.931751	0.106858	-0.136924
N88	N	1.431751	0.606858	0.363076
C89	C	0.985397	0.053179	0.285245
C90	C	1.485397	0.553179	0.785245
C91	C	0.985402	0.053176	0.361473
C92	C	1.485402	0.553176	0.861473
C93	C	0.931710	0.106851	0.392863
C94	C	1.431710	0.606851	0.892863
C95	C	0.877994	0.160520	0.348017
C96	C	1.377994	0.660520	0.848017
C97	C	0.877985	0.160517	0.271790
C98	C	1.377985	0.660517	0.771790
C99	C	0.921294	0.178706	0.508462
C100	C	1.421294	0.678706	1.008462
C101	C	0.921308	0.178711	0.584688
C102	C	1.421308	0.678711	1.084688
C103	C	0.931732	0.106861	0.627971
C104	C	1.431732	0.606861	1.127971
C105	C	0.942158	0.035004	0.595021
C106	C	1.442158	0.535004	1.095021
C107	C	0.942149	0.035001	0.518794
C108	C	1.442149	0.535001	1.018794
C109	C	0.931713	0.106860	0.475517
C110	C	1.431713	0.606860	0.975517
C111	C	0.985446	0.053188	0.755463
C112	C	1.485446	0.553188	1.255463
C113	C	0.985445	0.053183	0.831692
C114	C	1.485445	0.553183	1.331692
C115	C	0.878041	0.160534	0.818234
C116	C	1.378041	0.660534	1.318234
C117	C	0.878038	0.160532	0.742006
C118	C	1.378038	0.660532	1.242006
C119	C	0.931744	0.106859	0.710625
C120	C	1.431744	0.606859	1.210625
H121	H	0.320407	0.104992	0.195999
H122	H	0.820407	0.604992	0.695999
C123	C	0.909832	0.257754	0.620925
C124	C	1.409832	0.757754	1.120925
N125	N	0.901183	0.317292	0.648217
N126	N	1.401183	0.817292	1.148217
H127	H	0.927356	-0.653714	0.156219
H128	H	1.427356	-0.153714	0.656219
C129	C	0.159418	0.102312	-0.072329
C130	C	0.659418	0.602312	0.427671
N131	N	0.125341	0.101746	-0.129127
N132	N	0.625341	0.601746	0.370873
H133	H	0.927411	-0.653700	-0.083313
H134	H	1.427411	-0.153700	0.416687
H135	H	0.834320	0.204234	0.843791
H136	H	1.334320	0.704234	1.343791
H137	H	0.445663	0.107073	0.137700
H138	H	0.945663	0.607073	0.637700
H139	H	0.171136	0.102507	0.186792
H140	H	0.671136	0.602507	0.686792
C141	C	1.044516	-0.005860	0.720941
C142	C	1.544516	0.494140	1.220941
N143	N	1.089007	-0.050336	0.694942
N144	N	1.589007	0.449664	1.194942
H145	H	0.543025	0.108704	-0.092519
H146	H	1.043025	0.608704	0.407481
C147	C	0.930031	-0.492697	0.165156
C148	C	1.430031	0.007303	0.665156
N149	N	0.930586	-0.458624	0.217756
N150	N	1.430586	0.041376	0.717756
C151	C	0.704057	0.111397	-0.101459
C152	C	1.204057	0.611397	0.398541
N153	N	0.738146	0.111966	-0.154055
N154	N	1.238146	0.611966	0.345945
H155	H	0.933533	-0.281871	0.195997
H156	H	1.433533	0.218129	0.695997
C157	C	0.332194	0.105177	-0.061677
C158	C	0.832194	0.605177	0.438323
N159	N	0.366280	0.105733	-0.114276
N160	N	0.866280	0.605733	0.385724
C161	C	0.936276	-0.120822	-0.072328
C162	C	1.436276	0.379178	0.427672
N163	N	0.936850	-0.086739	-0.129129
N164	N	1.436850	0.413261	0.370871
C165	C	0.933467	-0.293607	-0.061667
C166	C	1.433467	0.206393	0.438333
N167	N	0.932990	-0.327693	-0.114259
N168	N	1.432990	0.172307	0.385741
H169	H	0.950636	-0.023508	0.491969
H170	H	1.450636	0.476492	0.991969
H171	H	0.417767	0.106619	-0.034225
H172	H	0.917767	0.606619	0.465775
C173	C	0.936217	-0.120840	0.204937
C174	C	1.436217	0.379160	0.704937
N175	N	0.936773	-0.086763	0.257533
N176	N	1.436773	0.413237	0.757533
C177	C	1.044469	-0.005870	0.250731
C178	C	1.544469	0.494130	0.750731
N179	N	1.088959	-0.050348	0.224733
N180	N	1.588959	0.449652	0.724733
C181	C	1.044492	-0.005854	0.410802
C182	C	1.544492	0.494146	0.910802
N183	N	1.089002	-0.050313	0.447954
N184	N	1.589002	0.449687	0.947954
C185	C	0.531239	0.108528	0.165149
C186	C	1.031239	0.608528	0.665149
N187	N	0.497149	0.107978	0.217746
N188	N	0.997149	0.607978	0.717746
H189	H	0.950646	-0.023503	0.630261
H190	H	1.450646	0.476497	1.130261
H191	H	0.931954	-0.379182	-0.034222
H192	H	1.431954	0.120818	0.465778
H193	H	0.929898	-0.504426	-0.092520
H194	H	1.429898	-0.004426	0.407480
H195	H	0.931468	-0.407116	0.137704
H196	H	1.431468	0.092884	0.637704
H197	H	1.029176	0.009478	0.868199
H198	H	1.529176	0.509478	1.368199
C199	C	0.704013	0.111396	0.175805
C200	C	1.204013	0.611396	0.675805
N201	N	0.738083	0.111958	0.232606
N202	N	1.238083	0.611958	0.732606
H203	H	0.834309	0.204234	0.705498
H204	H	1.334309	0.704234	1.205498
C205	C	0.909827	0.257752	0.460858
C206	C	1.409827	0.757752	0.960858
N207	N	0.901190	0.317287	0.425003
N208	N	1.401190	0.817287	0.925003
H209	H	0.834251	0.204218	0.235284
H210	H	1.334251	0.704218	0.735284
H211	H	0.834275	0.204222	0.373578
H212	H	1.334275	0.704222	0.873578
