data_functionalizedCrystal
_audit_creation_method	'MofGen! by Chris Wilmer'
_symmetry_space_group_name_H-M	'P1'
_symmetry_Int_Tables_number	1
_symmetry_cell_setting	triclinic
loop_
_symmetry_equiv_pos_as_xyz
  x,y,z
_cell_length_a	14.971491
_cell_length_b	14.971486
_cell_length_c	13.448316
_cell_angle_alpha	89.993189
_cell_angle_beta	89.991393
_cell_angle_gamma	83.615182
loop_
_atom_site_label
_atom_site_type_symbol
_atom_site_fract_x
_atom_site_fract_y
_atom_site_fract_z
O1	O	1.186945	0.116587	-0.082735
O2	O	1.686945	0.616587	0.417265
O3	O	0.926545	0.130541	-0.082728
O4	O	1.426545	0.630541	0.417272
O5	O	1.063724	-0.006636	-0.082724
O6	O	1.563724	0.493364	0.417276
O7	O	1.049765	0.253764	-0.082738
O8	O	1.549765	0.753764	0.417262
O9	O	1.063707	-0.006645	0.082659
O10	O	1.563707	0.493355	0.582659
O11	O	0.926528	0.130532	0.082656
O12	O	1.426528	0.630532	0.582656
O13	O	1.186927	0.116578	0.082649
O14	O	1.686927	0.616578	0.582649
Cu15	Cu	1.056726	0.123555	0.097753
Cu16	Cu	1.556726	0.623555	0.597753
Cu17	Cu	1.056746	0.123565	-0.097832
Cu18	Cu	1.556746	0.623565	0.402168
O19	O	1.049748	0.253755	0.082646
O20	O	1.549748	0.753755	0.582646
C21	C	0.893212	0.129912	-0.000035
C22	C	1.393212	0.629912	0.499965
C23	C	0.793915	0.128039	-0.000032
C24	C	1.293915	0.628039	0.499968
C25	C	0.366219	0.119963	-0.090205
C26	C	0.866219	0.619963	0.409795
C27	C	0.459519	0.121720	-0.090201
C28	C	0.959519	0.621720	0.409799
C29	C	0.506155	0.122600	-0.000047
C30	C	1.006155	0.622600	0.499953
C31	C	0.459488	0.121713	0.090109
C32	C	0.959488	0.621713	0.590109
C33	C	0.366190	0.119950	0.090104
C34	C	0.866190	0.619950	0.590104
C35	C	0.653950	0.125391	0.090113
C36	C	1.153950	0.625391	0.590113
C37	C	0.747254	0.127156	0.090118
C38	C	1.247254	0.627156	0.590118
C39	C	0.747279	0.127160	-0.090193
C40	C	1.247279	0.627160	0.409807
C41	C	0.653981	0.125397	-0.090198
C42	C	1.153981	0.625397	0.409802
C43	C	0.607319	0.124513	-0.000041
C44	C	1.107319	0.624513	0.499959
C45	C	1.063091	-0.039965	-0.000033
C46	C	1.563091	0.460035	0.499967
C47	C	1.061221	-0.139262	-0.000034
C48	C	1.561221	0.360738	0.499966
C49	C	1.141810	-0.196486	-0.000035
C50	C	1.641810	0.303514	0.499965
C51	C	1.140046	-0.289786	-0.000045
C52	C	1.640046	0.210214	0.499955
C53	C	1.057693	-0.325859	-0.000046
C54	C	1.557693	0.174141	0.499954
C55	C	0.977098	-0.268628	-0.000048
C56	C	1.477098	0.231372	0.499952
C57	C	0.978862	-0.175331	-0.000045
C58	C	1.478862	0.324669	0.499955
C59	C	0.973427	-0.463091	-0.000051
C60	C	1.473427	0.036909	0.499949
C61	C	0.971663	-0.556395	-0.000052
C62	C	1.471663	-0.056395	0.499948
C63	C	1.134611	-0.577546	-0.000051
C64	C	1.634611	-0.077546	0.499949
C65	C	1.136375	-0.484248	-0.000049
C66	C	1.636375	0.015752	0.499951
C67	C	1.055780	-0.427023	-0.000048
C68	C	1.555780	0.072977	0.499952
C69	C	1.220261	0.117207	-0.000046
C70	C	1.720261	0.617207	0.499954
C71	C	1.319557	0.119080	-0.000056
C72	C	1.819557	0.619080	0.499944
C73	C	1.050381	0.287084	-0.000048
C74	C	1.550381	0.787084	0.499952
C75	C	1.052252	0.386381	-0.000054
C76	C	1.552252	0.886381	0.499946
N77	N	1.056718	0.123547	0.235318
N78	N	1.556718	0.623547	0.735318
N79	N	1.056761	0.123565	-0.235396
N80	N	1.556761	0.623565	0.264604
C81	C	1.117480	0.062830	0.287359
C82	C	1.617480	0.562830	0.787359
C83	C	1.117486	0.062829	0.391463
C84	C	1.617486	0.562829	0.891463
C85	C	1.056733	0.123550	0.443522
C86	C	1.556733	0.623550	0.943522
C87	C	0.995965	0.184270	0.391473
C88	C	1.495965	0.684270	0.891473
C89	C	0.995955	0.184266	0.287372
C90	C	1.495955	0.684266	0.787372
C91	C	0.995989	0.184276	0.608453
C92	C	1.495989	0.684276	1.108453
C93	C	0.995999	0.184282	0.712562
C94	C	1.495999	0.684282	1.212562
C95	C	1.117520	0.062840	0.712544
C96	C	1.617520	0.562840	1.212544
C97	C	1.117510	0.062835	0.608443
C98	C	1.617510	0.562835	1.108443
C99	C	1.056743	0.123556	0.556401
C100	C	1.556743	0.623556	1.056401
H101	H	0.785222	0.127877	0.163529
H102	H	1.285222	0.627877	0.663529
H103	H	0.946527	0.233727	0.754943
H104	H	1.446527	0.733727	1.254943
H105	H	0.615959	0.124681	0.163528
H106	H	1.115959	0.624681	0.663528
N107	N	0.509780	0.122664	0.187351
N108	N	1.009780	0.622664	0.687351
H109	H	0.555685	0.067994	0.191380
H110	H	1.055685	0.567994	0.691380
H111	H	0.541235	0.178838	0.191306
H112	H	1.041235	0.678838	0.691306
N113	N	1.183073	-0.002651	0.768659
N114	N	1.683073	0.497349	1.268659
H115	H	1.148875	-0.042325	0.811868
H116	H	1.648875	0.457675	1.311868
H117	H	1.221542	-0.041044	0.719810
H118	H	1.721542	0.458956	1.219810
H119	H	1.205670	-0.336374	-0.000044
H120	H	1.705670	0.163626	0.499956
H121	H	0.328253	0.119254	-0.163619
H122	H	0.828253	0.619254	0.336381
N123	N	0.882840	-0.595304	-0.000061
N124	N	1.382840	-0.095304	0.499939
H125	H	0.847543	-0.574442	-0.061375
H126	H	1.347543	-0.074442	0.438625
H127	H	0.894032	-0.663084	-0.000022
H128	H	1.394032	-0.163084	0.499978
H129	H	0.328198	0.119240	0.163513
H130	H	0.828198	0.619240	0.663513
N131	N	1.225202	-0.445347	-0.000050
N132	N	1.725202	0.054653	0.499950
H133	H	1.229569	-0.407101	-0.061357
H134	H	1.729569	0.092899	0.438643
H135	H	1.229506	-0.407160	0.061299
H136	H	1.729506	0.092840	0.561299
H137	H	0.946476	0.233707	0.245000
H138	H	1.446476	0.733707	0.745000
N139	N	0.509849	0.122661	-0.187433
N140	N	1.009849	0.622661	0.312567
H141	H	0.466148	0.121839	-0.244546
H142	H	0.966148	0.621839	0.255454
H143	H	0.541373	0.178795	-0.191369
H144	H	1.041373	0.678795	0.308631
H145	H	1.208871	-0.167123	-0.000028
H146	H	1.708871	0.332877	0.499972
H147	H	0.785274	0.127882	-0.163602
H148	H	1.285274	0.627882	0.336398
H149	H	1.200235	-0.624143	-0.000055
H150	H	1.700235	-0.124143	0.499945
N151	N	0.930442	0.249762	0.447627
N152	N	1.430442	0.749762	0.947627
H153	H	0.940804	0.313262	0.429493
H154	H	1.440804	0.813262	0.929493
H155	H	0.866979	0.239275	0.429514
H156	H	1.366979	0.739275	0.929514
H157	H	0.907797	-0.416500	-0.000054
H158	H	1.407797	0.083500	0.499946
H159	H	0.910045	-0.298007	-0.000055
H160	H	1.410045	0.201993	0.499945
N161	N	1.183012	-0.002658	0.231213
N162	N	1.683012	0.497342	0.731213
H163	H	1.221503	-0.041122	0.279982
H164	H	1.721503	0.458878	0.779982
H165	H	1.148728	-0.042261	0.188037
H166	H	1.648728	0.457739	0.688037
H167	H	0.913238	-0.128739	-0.000044
H168	H	1.413238	0.371261	0.499956
N169	N	1.183052	-0.002627	0.447595
N170	N	1.683052	0.497373	0.947595
H171	H	1.221551	-0.041080	0.398819
H172	H	1.721551	0.458920	0.898819
H173	H	1.222613	0.031722	0.490750
H174	H	1.722613	0.531722	0.990750
H175	H	0.946503	0.233719	0.566084
H176	H	1.446503	0.733719	1.066084
N177	N	0.603676	0.124451	-0.187432
N178	N	1.103676	0.624451	0.312568
H179	H	0.647392	0.125275	-0.244546
H180	H	1.147392	0.625275	0.255454
H181	H	0.572162	0.068312	-0.191349
H182	H	1.072162	0.568312	0.308651
N183	N	1.183040	-0.002649	0.552289
N184	N	1.683040	0.497351	1.052289
H185	H	1.221536	-0.041116	0.601052
H186	H	1.721536	0.458884	1.101052
H187	H	1.148753	-0.042250	0.509113
H188	H	1.648753	0.457750	1.009113
