data_functionalizedCrystal
_audit_creation_method	'MofGen! by Chris Wilmer'
_symmetry_space_group_name_H-M	'P1'
_symmetry_Int_Tables_number	1
_symmetry_cell_setting	triclinic
loop_
_symmetry_equiv_pos_as_xyz
  x,y,z
_cell_length_a	15.538191
_cell_length_b	23.532407
_cell_length_c	14.750779
_cell_angle_alpha	77.433997
_cell_angle_beta	97.572172
_cell_angle_gamma	65.060386
loop_
_atom_site_label
_atom_site_type_symbol
_atom_site_fract_x
_atom_site_fract_y
_atom_site_fract_z
O1	O	1.231045	-0.168713	-0.079813
O2	O	0.956168	-0.102826	-0.079822
O3	O	1.101900	-0.220390	-0.079800
O4	O	1.085313	-0.051149	-0.079835
O5	O	1.143097	-0.253621	0.079857
O6	O	0.997364	-0.136057	0.079835
O7	O	1.272242	-0.201944	0.079843
Zn8	Zn	1.141344	-0.174277	0.105188
Zn9	Zn	1.087066	-0.130493	-0.105166
O10	O	1.126510	-0.084380	0.079821
C11	C	0.941606	-0.112548	0.000006
C12	C	0.836839	-0.092014	0.000003
C13	C	0.550965	-0.296010	0.000031
C14	C	0.452517	-0.276701	0.000026
C15	C	0.429052	-0.168092	0.000004
C16	C	0.527501	-0.187393	0.000013
C17	C	0.588450	-0.251353	0.000026
C18	C	0.564986	-0.142735	0.000008
C19	C	0.663425	-0.162034	0.000012
C20	C	0.724379	-0.225990	0.000022
C21	C	0.686889	-0.270651	0.000030
C22	C	0.504034	-0.078774	-0.000012
C23	C	0.541519	-0.034116	-0.000017
C24	C	0.639961	-0.053416	-0.000006
C25	C	0.700915	-0.117373	0.000004
C26	C	0.677451	-0.008755	-0.000014
C27	C	0.775891	-0.028054	-0.000010
C28	C	0.799354	-0.136672	0.000008
C29	C	1.122077	-0.258136	0.000031
C30	C	1.120810	-0.321097	0.000038
C31	C	1.199074	-0.736103	-0.000012
C32	C	1.197893	-0.795262	-0.000019
O33	O	1.270448	-0.846752	-0.000052
N34	N	1.111258	-0.800275	-0.000021
C35	C	1.025796	-0.746122	-0.000026
O36	O	0.951997	-0.755818	-0.000029
C37	C	1.026976	-0.686963	-0.000025
C38	C	1.113619	-0.681957	-0.000013
C39	C	1.285710	-0.731095	-0.000001
C40	C	1.286891	-0.671940	0.000008
C41	C	1.201436	-0.617794	0.000006
C42	C	1.114800	-0.622802	-0.000004
C43	C	0.941513	-0.632810	-0.000037
C44	C	0.942701	-0.573649	-0.000037
C45	C	1.029344	-0.568643	-0.000025
C46	C	1.030526	-0.509501	0.000003
N47	N	1.117161	-0.504489	0.000005
C48	C	1.202616	-0.558635	0.000007
C49	C	1.023324	-0.870362	-0.000028
C50	C	1.022144	-0.929521	-0.000022
C51	C	1.194241	-0.978656	-0.000017
C52	C	1.195421	-0.919497	-0.000017
C53	C	1.109959	-0.865349	-0.000026
C54	C	1.205090	-0.434404	0.000027
C55	C	1.206264	-0.375243	0.000040
C56	C	1.034167	-0.326112	0.000030
C57	C	1.032993	-0.385268	0.000022
C58	C	1.118461	-0.439415	0.000017
O59	O	0.958008	-0.457984	0.000032
O60	O	1.276399	-0.548925	-0.000002
C61	C	1.286804	-0.192222	0.000014
C62	C	1.391568	-0.212754	0.000010
C63	C	1.106332	-0.046633	-0.000012
C64	C	1.107598	0.016329	-0.000025
N65	N	1.178395	-0.204160	0.248749
N66	N	1.050023	-0.100616	-0.248728
C67	C	0.946546	-0.017183	0.600532
C68	C	0.972516	-0.038120	0.701035
C69	C	1.101588	-0.142200	0.701018
C70	C	1.075626	-0.121272	0.600512
C71	C	0.998105	-0.058763	0.550278
C72	C	1.127185	-0.162853	0.550258
C73	C	1.101228	-0.141925	0.449762
C74	C	1.023713	-0.079417	0.399520
C75	C	0.972148	-0.037835	0.449781
C76	C	1.204710	-0.225360	0.600495
C77	C	1.256269	-0.266941	0.550240
C78	C	1.230308	-0.246015	0.449742
C79	C	1.152792	-0.183507	0.399500
C80	C	1.281872	-0.287597	0.399480
C81	C	1.255915	-0.266669	0.298984
C82	C	1.126836	-0.162579	0.299004
H83	H	0.736519	-0.322735	0.000046
H84	H	0.491880	0.017961	-0.000031
C85	C	0.362006	-0.097742	-0.000004
H86	H	0.298012	-0.092644	0.000000
H87	H	0.358954	-0.066998	-0.055679
H88	H	0.387688	-0.090187	0.055680
H89	H	0.962448	-0.389349	0.000039
H90	H	0.951595	-0.933593	-0.000015
C91	C	1.041554	-0.093824	0.243735
H92	H	1.033478	-0.087320	0.176686
H93	H	1.055681	-0.061277	0.260192
H94	H	0.982882	-0.090465	0.260219
H95	H	0.883414	0.033716	0.559629
H96	H	1.355300	-0.775177	-0.000003
C97	C	0.915797	0.007620	0.756317
H98	H	0.942362	-0.013793	0.823364
H99	H	0.848617	0.017851	0.739863
H100	H	0.921442	0.047018	0.739839
H101	H	1.225844	-0.242396	0.682325
C102	C	0.848692	-0.514087	-0.000046
H103	H	0.861795	-0.478133	-0.000049
H104	H	0.827503	-0.525281	0.055623
H105	H	0.798782	-0.502094	-0.055735
C106	C	0.940173	-0.266544	0.000023
H107	H	0.953290	-0.230596	0.000018
H108	H	0.918977	-0.277730	0.055691
H109	H	0.890262	-0.254548	-0.055667
H110	H	0.870958	-0.636872	-0.000052
C111	C	1.341532	-0.335699	0.605499
H112	H	1.368522	-0.357464	0.561173
H113	H	1.317930	-0.360609	0.644714
H114	H	1.390756	-0.331443	0.644689
C115	C	1.288241	-1.038221	-0.000023
H116	H	1.340016	-1.026771	-0.000012
H117	H	1.276985	-1.050725	-0.055700
H118	H	1.305722	-1.073914	0.055659
H119	H	1.164709	-0.193095	0.741930
H120	H	1.344996	-0.338490	0.440395
C121	C	0.610401	0.061596	-0.000032
H122	H	0.546406	0.066693	-0.000031
H123	H	0.607352	0.092337	-0.055708
H124	H	0.636076	0.069156	0.055650
C125	C	0.817128	0.021067	-0.000016
H126	H	0.766733	0.061921	-0.000015
H127	H	0.840676	0.027384	-0.055691
H128	H	0.869409	0.004204	0.055668
C129	C	1.301574	-0.369739	0.000047
H130	H	1.352293	-0.410460	0.000036
H131	H	1.319983	-0.359279	0.055725
H132	H	1.291243	-0.336087	-0.055633
H133	H	1.297902	-0.300528	0.258066
H134	H	0.848985	-0.188755	0.000024
H135	H	1.265973	-0.915427	-0.000008
H136	H	1.002583	-0.062378	0.317689
H137	H	0.909017	0.013064	0.408878
H138	H	0.953727	-0.826275	-0.000028
C139	C	1.382194	-0.666437	0.000003
H140	H	1.432908	-0.707159	-0.000009
H141	H	1.400613	-0.655975	0.055676
H142	H	1.371860	-0.632788	-0.055683
C143	C	0.618021	-0.366367	0.000055
H144	H	0.682017	-0.371463	0.000063
H145	H	0.592350	-0.373937	-0.055613
H146	H	0.621078	-0.397105	0.055746
C147	C	0.411288	-0.325829	0.000034
H148	H	0.461689	-0.366685	0.000048
H149	H	0.359009	-0.308969	-0.055643
H150	H	0.387743	-0.332150	0.055716
H151	H	0.804531	-0.241700	0.000013
H152	H	0.423878	-0.063063	-0.000018
C153	C	1.299105	-0.493958	0.000030
H154	H	1.350867	-0.482495	0.000046
H155	H	1.287869	-0.506467	-0.055646
H156	H	1.316590	-0.529651	0.055712
