data_functionalizedCrystal
_audit_creation_method	'MofGen! by Chris Wilmer'
_symmetry_space_group_name_H-M	'P1'
_symmetry_Int_Tables_number	1
_symmetry_cell_setting	triclinic
loop_
_symmetry_equiv_pos_as_xyz
  x,y,z
_cell_length_a	10.654550
_cell_length_b	10.654550
_cell_length_c	9.730223
_cell_angle_alpha	89.996763
_cell_angle_beta	89.999957
_cell_angle_gamma	84.484917
loop_
_atom_site_label
_atom_site_type_symbol
_atom_site_fract_x
_atom_site_fract_y
_atom_site_fract_z
O1	O	1.667839	0.176399	-0.114183
O2	O	1.302361	0.193205	-0.114208
O3	O	1.493503	0.002062	-0.114190
O4	O	1.476697	0.367541	-0.114202
O5	O	1.493490	0.002057	0.114390
O6	O	1.302348	0.193199	0.114372
O7	O	1.667827	0.176393	0.114396
Zn8	Zn	1.485085	0.184796	0.150676
Zn9	Zn	1.485102	0.184802	-0.150488
O10	O	1.476684	0.367536	0.114378
C11	C	1.255556	0.191968	0.000078
C12	C	1.116113	0.188276	0.000069
C13	C	1.036627	0.300818	0.000069
C14	C	0.905607	0.297341	0.000093
C15	C	0.933570	0.068772	0.000111
C16	C	1.064588	0.072250	0.000097
C17	C	1.492263	-0.044738	0.000098
C18	C	1.488571	-0.184181	0.000093
C19	C	1.601112	-0.263667	0.000105
C20	C	1.597636	-0.394688	0.000095
C21	C	1.369066	-0.366725	0.000067
C22	C	1.372544	-0.235706	0.000067
C23	C	1.733075	-0.279813	0.000127
C24	C	1.729599	-0.410834	0.000117
C25	C	1.714631	0.177630	0.000107
C26	C	1.854074	0.181322	0.000107
C27	C	1.477924	0.414336	0.000087
C28	C	1.481616	0.553779	0.000083
N29	N	1.485083	0.184790	0.356212
N30	N	1.485114	0.184798	-0.356024
C31	C	1.569750	0.100188	0.428146
C32	C	1.569763	0.100189	0.572029
C33	C	1.400438	0.269404	0.572032
C34	C	1.400420	0.269396	0.428151
H35	H	1.078574	0.395294	0.000057
C36	C	1.308384	0.361316	0.649892
C37	C	1.234206	0.435380	0.556094
C38	C	1.149379	0.520053	0.627764
H39	H	1.353868	0.414143	0.706012
H40	H	1.255656	0.315678	0.706003
H41	H	1.286927	0.481014	0.500007
H42	H	1.188695	0.382587	0.499971
H43	H	1.096652	0.474415	0.683875
H44	H	1.194874	0.572871	0.683882
H45	H	1.099032	0.570307	0.564134
C46	C	1.250217	-0.149616	0.000112
C47	C	1.147868	-0.222787	0.000128
C48	C	1.035157	-0.143524	0.000188
H49	H	1.246656	-0.097895	-0.079578
H50	H	1.246741	-0.097946	0.079855
H51	H	1.151343	-0.274435	-0.079606
H52	H	1.151387	-0.274505	0.079812
H53	H	1.031680	-0.091854	0.079930
H54	H	1.031609	-0.091807	-0.079504
H55	H	0.965700	-0.193158	0.000211
H56	H	1.129309	-0.019401	0.000100
H57	H	1.784696	-0.250452	-0.095523
C58	C	1.788838	-0.232508	0.131970
C59	C	1.822297	-0.334731	0.219283
C60	C	1.873520	-0.291183	0.340821
H61	H	1.728164	-0.175018	0.176207
H62	H	1.861584	-0.191131	0.110946
H63	H	1.749561	-0.376088	0.240308
H64	H	1.882983	-0.392230	0.175089
H65	H	1.946266	-0.249806	0.319797
H66	H	1.812839	-0.233693	0.385046
H67	H	1.896239	-0.360534	0.400072
C68	C	1.782897	-0.471476	-0.131536
C69	C	1.821738	-0.378097	-0.218752
C70	C	1.870857	-0.433917	-0.340030
H71	H	1.719811	-0.513939	-0.176019
H72	H	1.852978	-0.530212	-0.110155
H73	H	1.751665	-0.319383	-0.240135
H74	H	1.884836	-0.335627	-0.174313
H75	H	1.940937	-0.492653	-0.318649
H76	H	1.807764	-0.476378	-0.384500
H77	H	1.897226	-0.370570	-0.399216
C78	C	1.661745	0.008496	0.349930
C79	C	1.739221	0.076059	0.267291
C80	C	1.823964	-0.008384	0.195221
H81	H	1.616195	-0.044207	0.293730
H82	H	1.712245	-0.041904	0.413311
H83	H	1.688727	0.126437	0.203918
H84	H	1.784799	0.128757	0.323457
H85	H	1.874464	-0.058784	0.258601
H86	H	1.778404	-0.061082	0.139028
H87	H	1.876550	0.037445	0.139151
H88	H	1.638705	0.031297	0.630594
C89	C	1.308694	0.361325	0.349867
C90	C	1.376249	0.438802	0.267218
C91	C	1.291796	0.523483	0.195071
H92	H	1.258247	0.411842	0.413160
H93	H	1.256038	0.315688	0.293674
H94	H	1.428883	0.484435	0.323406
H95	H	1.426691	0.388320	0.203900
H96	H	1.239140	0.477846	0.138877
H97	H	1.241354	0.573991	0.258373
H98	H	1.337619	0.576053	0.138975
H99	H	0.840894	0.388984	0.000097
H100	H	0.891602	-0.025693	0.000142
H101	H	1.274601	-0.408693	0.000045
H102	H	1.779315	-0.452596	0.095779
