data_functionalizedCrystal
_audit_creation_method	'MofGen! by Chris Wilmer'
_symmetry_space_group_name_H-M	'P1'
_symmetry_Int_Tables_number	1
_symmetry_cell_setting	triclinic
loop_
_symmetry_equiv_pos_as_xyz
  x,y,z
_cell_length_a	13.032328
_cell_length_b	19.077105
_cell_length_c	19.076808
_cell_angle_alpha	89.927608
_cell_angle_beta	85.431946
_cell_angle_gamma	84.833390
loop_
_atom_site_label
_atom_site_type_symbol
_atom_site_fract_x
_atom_site_fract_y
_atom_site_fract_z
Zn1	Zn	-0.628486	-1.007147	0.374471
Zn2	Zn	-0.128486	-0.507147	0.874471
Zn3	Zn	-0.448275	-1.018353	0.477228
Zn4	Zn	0.051725	-0.518353	0.977228
Zn5	Zn	-0.448872	-0.905601	0.355055
Zn6	Zn	0.051128	-0.405601	0.855055
Zn7	Zn	-0.614553	-0.886124	0.486078
Zn8	Zn	-0.114553	-0.386124	0.986078
O9	O	-0.535046	-0.954306	0.423208
O10	O	-0.035046	-0.454306	0.923208
O11	O	-0.610161	-1.106469	0.392524
O12	O	-0.110161	-0.606469	0.892524
O13	O	-0.303597	-1.016238	0.449191
O14	O	0.196403	-0.516238	0.949191
O15	O	-0.478779	-0.922533	0.259793
O16	O	0.021221	-0.422533	0.759793
O17	O	-0.477761	-1.114702	0.468018
O18	O	0.022239	-0.614702	0.968018
O19	O	-0.610740	-0.997138	0.274058
O20	O	-0.110740	-0.497138	0.774058
O21	O	-0.304035	-0.933399	0.359432
O22	O	0.195965	-0.433399	0.859432
O23	O	-0.465269	-0.805182	0.368014
O24	O	0.034731	-0.305182	0.868014
O25	O	-0.761159	-0.889336	0.483103
O26	O	-0.261159	-0.389336	0.983103
O27	O	-0.586995	-0.790872	0.464276
O28	O	-0.086995	-0.290872	0.964276
O29	O	-0.771395	-0.978251	0.401106
O30	O	-0.271395	-0.478251	0.901106
O31	O	-0.464251	-0.997351	0.576239
O32	O	0.035749	-0.497351	1.076239
O33	O	-0.586415	-0.900203	0.582741
O34	O	-0.086415	-0.400203	1.082741
C35	C	-0.524685	-0.772659	0.414999
C36	C	-0.024685	-0.272659	0.914999
C37	C	-0.520276	-0.694947	0.411506
C38	C	-0.020276	-0.194947	0.911506
C39	C	-0.523780	-0.947897	0.604861
C40	C	-0.023780	-0.447897	1.104861
C41	C	-0.518999	-0.945215	0.682579
C42	C	-0.018999	-0.445215	1.182579
C43	C	-0.804860	-0.930371	0.445257
C44	C	-0.304860	-0.430371	0.945257
C45	C	-0.919839	-0.920171	0.454653
C46	C	-0.419839	-0.420171	0.954653
C47	C	-1.095001	-0.949085	0.427987
C48	C	-0.595001	-0.449085	0.927987
C49	C	-0.976165	-0.959624	0.418270
C50	C	-0.476165	-0.459624	0.918270
C51	C	-0.266288	-0.978190	0.401196
C52	C	0.233712	-0.478190	0.901196
C53	C	-0.151330	-0.988532	0.391609
C54	C	0.348670	-0.488532	0.891609
C55	C	-0.545448	-1.136663	0.431450
C56	C	-0.045448	-0.636663	0.931450
C57	C	-0.549881	-1.214372	0.434962
C58	C	-0.049881	-0.714372	0.934962
C59	C	-0.581473	-0.651013	0.460042
C60	C	-0.081473	-0.151013	0.960042
C61	C	-0.577336	-0.577994	0.456751
C62	C	-0.077336	-0.077994	0.956751
C63	C	-0.511996	-0.548911	0.404927
C64	C	-0.011996	-0.048911	0.904927
C65	C	-0.450797	-0.592851	0.356386
C66	C	0.049203	-0.092851	0.856386
C67	C	-0.454941	-0.665868	0.359674
C68	C	0.045059	-0.165868	0.859674
C69	C	-0.492825	-0.331329	0.389709
C70	C	0.007175	0.168671	0.889709
C71	C	-0.488684	-0.258306	0.386425
C72	C	0.011316	0.241694	0.886425
C73	C	-0.615225	-0.243454	0.486791
C74	C	-0.115225	0.256546	0.986791
C75	C	-0.619358	-0.316474	0.490077
C76	C	-0.119358	0.183526	0.990077
C77	C	-0.558163	-0.360407	0.441534
C78	C	-0.058163	0.139593	0.941534
N79	N	-0.507763	-0.474274	0.401563
N80	N	-0.007763	0.025726	0.901563
N81	N	-0.562402	-0.435042	0.444895
N82	N	-0.062402	0.064958	0.944895
C83	C	-0.546380	-0.960758	0.240848
C84	C	-0.046380	-0.460758	0.740848
C85	C	-0.551210	-0.963507	0.163137
C86	C	-0.051210	-0.463507	0.663137
C87	C	-0.585509	-0.982760	0.726460
C88	C	-0.085509	-0.482760	1.226460
C89	C	-0.581018	-0.980238	0.799484
C90	C	-0.081018	-0.480238	1.299484
C91	C	-0.510011	-0.940174	0.828625
C92	C	-0.010011	-0.440174	1.328625
C93	C	-0.443497	-0.902625	0.784738
C94	C	0.056503	-0.402625	1.284738
C95	C	-0.447994	-0.905144	0.711716
C96	C	0.052006	-0.405144	1.211716
C97	C	-0.489193	-0.928477	1.046228
C98	C	0.010807	-0.428477	1.546228
C99	C	-0.484699	-0.925963	1.119256
C100	C	0.015301	-0.425963	1.619256
C101	C	-0.622222	-1.003575	1.133997
C102	C	-0.122222	-0.503575	1.633997
C103	C	-0.626708	-1.006093	1.060972
C104	C	-0.126708	-0.506093	1.560972
C105	C	-0.560199	-0.968541	1.017092
C106	C	-0.060199	-0.468541	1.517092
N107	N	-0.505416	-0.937597	0.903267
N108	N	-0.005416	-0.437597	1.403267
N109	N	-0.564799	-0.971115	0.942452
N110	N	-0.064799	-0.471115	1.442452
H111	H	-0.936416	-1.001197	0.379925
H112	H	-0.436416	-0.501197	0.879925
H113	H	-0.435037	-0.897902	1.010506
H114	H	0.064963	-0.397902	1.510506
H115	H	-0.635170	-1.010817	0.835209
H116	H	-0.135170	-0.510817	1.335209
O117	O	-0.433321	-0.374075	0.342654
O118	O	0.066679	0.125925	0.842654
C119	C	-0.366322	-0.420826	0.378817
C120	C	0.133678	0.079174	0.878817
H121	H	-0.400011	-0.426685	0.435303
H122	H	0.099989	0.073315	0.935303
H123	H	-0.357200	-0.474394	0.351502
H124	H	0.142800	0.025606	0.851502
H125	H	-0.287579	-0.399204	0.378890
H126	H	0.212421	0.100796	0.878890
O127	O	-0.387445	-0.564629	0.305952
O128	O	0.112555	-0.064629	0.805952
C129	C	-0.415540	-0.582925	0.238958
C130	C	0.084460	-0.082925	0.738958
H131	H	-0.499542	-0.595795	0.243174
H132	H	0.000458	-0.095795	0.743174
H133	H	-0.406127	-0.536907	0.201522
H134	H	0.093873	-0.036907	0.701522
H135	H	-0.363669	-0.630865	0.218005
H136	H	0.136331	-0.130865	0.718005
H137	H	-1.111577	-1.030103	0.353267
H138	H	-0.611577	-0.530103	0.853267
H139	H	-0.385686	-0.870001	0.808471
H140	H	0.114314	-0.370001	1.308471
H141	H	-0.393836	-0.874570	0.675988
H142	H	0.106164	-0.374570	1.175988
H143	H	-1.134754	-0.907510	0.466324
H144	H	-0.634754	-0.407510	0.966324
O145	O	-0.682751	-0.344839	0.540388
O146	O	-0.182751	0.155161	1.040388
C147	C	-0.673307	-0.418706	0.532869
C148	C	-0.173307	0.081294	1.032869
H149	H	-0.595518	-0.436554	0.503822
H150	H	-0.095518	0.063446	1.003822
H151	H	-0.678535	-0.444002	0.587058
H152	H	-0.178535	0.055998	1.087058
H153	H	-0.738231	-0.435291	0.501648
H154	H	-0.238231	0.064709	1.001648
H155	H	-0.634676	-0.674686	0.502246
H156	H	-0.134676	-0.174686	1.002246
O157	O	-0.674787	-0.200737	0.533845
O158	O	-0.174787	0.299263	1.033845
C159	C	-0.741744	-0.153966	0.497670
C160	C	-0.241744	0.346034	0.997670
H161	H	-0.752925	-0.177336	0.444134
H162	H	-0.252925	0.322664	0.944134
H163	H	-0.819674	-0.145197	0.529501
H164	H	-0.319674	0.354803	1.029501
H165	H	-0.706777	-0.101546	0.490122
H166	H	-0.206777	0.398454	0.990122
O167	O	-0.967205	-0.870479	0.500314
O168	O	-0.467205	-0.370479	1.000314
C169	C	-0.937842	-0.803655	0.479763
C170	C	-0.437842	-0.303655	0.979763
H171	H	-0.911345	-0.804718	0.421334
H172	H	-0.411345	-0.304718	0.921334
H173	H	-1.006608	-0.762644	0.489998
H174	H	-0.506608	-0.262644	0.989998
H175	H	-0.871833	-0.789569	0.511340
H176	H	-0.371833	-0.289569	1.011340
O177	O	-0.395335	-0.708530	0.312591
O178	O	0.104665	-0.208530	0.812591
C179	C	-0.290246	-0.699276	0.318519
C180	C	0.209754	-0.199276	0.818519
H181	H	-0.280286	-0.677707	0.373026
H182	H	0.219714	-0.177707	0.873026
H183	H	-0.242257	-0.752035	0.310432
H184	H	0.257743	-0.252035	0.810432
H185	H	-0.263215	-0.660604	0.276893
H186	H	0.236785	-0.160604	0.776893
O187	O	-0.636804	-0.535419	0.503980
O188	O	-0.136804	-0.035419	1.003980
C189	C	-0.695371	-0.576745	0.550422
C190	C	-0.195371	-0.076745	1.050422
H191	H	-0.655802	-0.632465	0.551669
H192	H	-0.155802	-0.132465	1.051669
H193	H	-0.701638	-0.552745	0.605462
H194	H	-0.201638	-0.052745	1.105462
H195	H	-0.776029	-0.578443	0.531690
H196	H	-0.276029	-0.078443	1.031690
H197	H	-0.426876	-0.893335	1.142980
H198	H	0.073124	-0.393335	1.642980
H199	H	-0.435484	-0.234630	0.344216
H200	H	0.064516	0.265370	0.844216
O201	O	-0.654581	-1.021687	0.698273
O202	O	-0.154581	-0.521687	1.198273
C203	C	-0.712306	-1.054295	0.752665
C204	C	-0.212306	-0.554295	1.252665
H205	H	-0.711007	-1.023546	0.803739
H206	H	-0.211007	-0.523546	1.303739
H207	H	-0.795544	-1.055202	0.738539
H208	H	-0.295544	-0.555202	1.238539
H209	H	-0.677049	-1.110504	0.759700
H210	H	-0.177049	-0.610504	1.259700
O211	O	-0.695774	-1.045025	1.032784
O212	O	-0.195774	-0.545025	1.532784
C213	C	-0.753495	-1.077640	1.087173
C214	C	-0.253495	-0.577640	1.587173
H215	H	-0.752215	-1.046888	1.138247
H216	H	-0.252215	-0.546888	1.638247
H217	H	-0.836727	-1.078561	1.073040
H218	H	-0.336727	-0.578561	1.573040
H219	H	-0.718221	-1.133844	1.094212
H220	H	-0.218221	-0.633844	1.594212
O221	O	-0.686934	-1.039932	1.176661
O222	O	-0.186934	-0.539932	1.676661
C223	C	-0.748800	-0.992707	1.222586
C224	C	-0.248800	-0.492707	1.722586
H225	H	-0.753329	-0.937837	1.198655
H226	H	-0.253329	-0.437837	1.698655
H227	H	-0.829833	-1.010853	1.231024
H228	H	-0.329833	-0.510853	1.731024
H229	H	-0.713267	-0.991243	1.275216
H230	H	-0.213267	-0.491243	1.775216
