data_functionalizedCrystal
_audit_creation_method	'MofGen! by Chris Wilmer'
_symmetry_space_group_name_H-M	'P1'
_symmetry_Int_Tables_number	1
_symmetry_cell_setting	triclinic
loop_
_symmetry_equiv_pos_as_xyz
  x,y,z
_cell_length_a	9.065215
_cell_length_b	16.109304
_cell_length_c	15.186229
_cell_angle_alpha	90.000934
_cell_angle_beta	90.002823
_cell_angle_gamma	84.238668
loop_
_atom_site_label
_atom_site_type_symbol
_atom_site_fract_x
_atom_site_fract_y
_atom_site_fract_z
O1	O	1.957455	0.121894	0.073212
O2	O	1.527927	0.131895	0.073216
O3	O	1.754488	0.005954	0.073214
O4	O	1.730894	0.247835	0.073213
O5	O	1.754473	0.005952	-0.073243
O6	O	1.527912	0.131893	-0.073242
O7	O	1.957439	0.121892	-0.073245
Zn8	Zn	1.742673	0.126892	-0.096497
Zn9	Zn	1.742693	0.126895	0.096467
O10	O	1.730879	0.247833	-0.073244
C11	C	1.472956	0.130934	-0.000013
C12	C	1.309183	0.128061	-0.000011
C13	C	1.753524	-0.025029	-0.000012
C14	C	1.750657	-0.117346	-0.000006
C15	C	1.744040	-0.329733	0.079824
C16	C	1.741332	-0.416474	0.079824
C17	C	1.741323	-0.416473	-0.079852
C18	C	1.744020	-0.329733	-0.079851
C19	C	1.745386	-0.286366	-0.000010
C20	C	1.739981	-0.459847	-0.000012
C21	C	1.737045	-0.553895	-0.000014
C22	C	1.748320	-0.192311	-0.000008
C23	C	2.012410	0.122853	-0.000015
C24	C	2.176184	0.125726	-0.000011
C25	C	1.731843	0.278816	-0.000015
C26	C	1.734710	0.371133	-0.000015
N27	N	1.742671	0.126890	-0.228189
C28	C	1.843026	0.071143	-0.453913
C29	C	1.843031	0.071141	-0.546102
C30	C	1.642342	0.182641	-0.546110
C31	C	1.642331	0.182638	-0.453922
C32	C	1.742682	0.126890	-0.407826
C33	C	1.742697	0.126891	-0.592204
C34	C	1.742701	0.126889	-0.692160
C35	C	1.742676	0.126890	-0.307863
N36	N	1.742708	0.126890	0.228160
H37	H	1.740232	-0.451780	0.144832
H38	H	1.560612	0.228034	-0.416396
H39	H	1.740214	-0.451794	-0.144856
C40	C	1.745190	-0.282677	0.166537
C41	C	1.617661	-0.295369	0.214679
C42	C	1.618651	-0.252031	0.294562
H43	H	1.830624	-0.302547	0.199451
H44	H	1.746909	-0.224792	0.155153
H45	H	1.615956	-0.353243	0.226065
H46	H	1.532207	-0.275496	0.181792
H47	H	1.620370	-0.194146	0.283178
H48	H	1.704089	-0.271905	0.327467
H49	H	1.532118	-0.260630	0.327232
C50	C	1.533571	0.243135	-0.596319
C51	C	1.555084	0.231224	-0.686918
C52	C	1.454926	0.286947	-0.733196
H53	H	1.435051	0.233390	-0.581327
H54	H	1.549579	0.298765	-0.581255
H55	H	1.539064	0.175607	-0.701976
H56	H	1.653584	0.240976	-0.701937
H57	H	1.470934	0.342578	-0.718132
H58	H	1.356412	0.277198	-0.718197
H59	H	1.469518	0.278879	-0.794672
C60	C	1.952063	0.010726	-0.403794
C61	C	2.042379	0.055687	-0.350849
C62	C	2.142822	0.000047	-0.304669
H63	H	1.899108	-0.024298	-0.367782
H64	H	2.011912	-0.022484	-0.444402
H65	H	1.982538	0.088883	-0.310247
H66	H	2.095367	0.090708	-0.386840
H67	H	2.202670	-0.033164	-0.345277
H68	H	2.089854	-0.034974	-0.268662
H69	H	2.204122	0.030544	-0.268747
H70	H	1.745108	-0.294422	-0.144865
C71	C	1.952146	0.010580	-0.595980
C72	C	2.040043	-0.038225	-0.535876
C73	C	2.140592	-0.094017	-0.581790
H74	H	1.899275	-0.024525	-0.631950
H75	H	2.013624	0.040951	-0.631920
H76	H	1.978574	-0.068593	-0.499951
H77	H	2.092947	-0.003142	-0.499904
H78	H	2.202070	-0.063647	-0.617730
H79	H	2.087709	-0.129117	-0.617758
H80	H	2.200251	-0.127133	-0.541016
