data_functionalizedCrystal
_audit_creation_method	'MofGen! by Chris Wilmer'
_symmetry_space_group_name_H-M	'P1'
_symmetry_Int_Tables_number	1
_symmetry_cell_setting	triclinic
loop_
_symmetry_equiv_pos_as_xyz
  x,y,z
_cell_length_a	10.654550
_cell_length_b	14.971506
_cell_length_c	13.448316
_cell_angle_alpha	89.992937
_cell_angle_beta	90.006836
_cell_angle_gamma	95.946355
loop_
_atom_site_label
_atom_site_type_symbol
_atom_site_fract_x
_atom_site_fract_y
_atom_site_fract_z
O1	O	-0.163780	1.187827	-0.082699
O2	O	-0.183352	0.927536	-0.082700
O3	O	0.009237	1.063666	-0.082692
O4	O	-0.356369	1.051697	-0.082707
O5	O	0.009249	1.063649	0.082691
O6	O	-0.183340	0.927519	0.082684
O7	O	-0.163768	1.187810	0.082684
Cu8	Cu	-0.173553	1.057663	0.097785
Cu9	Cu	-0.173567	1.057683	-0.097801
O10	O	-0.356357	1.051680	0.082677
C11	C	-0.182466	0.894198	-0.000008
C12	C	-0.179830	0.794888	-0.000008
C13	C	-0.282910	0.357166	-0.000022
C14	C	-0.285378	0.450480	-0.000027
C15	C	-0.172224	0.507084	-0.000018
C16	C	-0.056596	0.470370	-0.000015
C17	C	-0.054130	0.377058	-0.000017
C18	C	-0.061744	0.664861	-0.000007
C19	C	-0.064210	0.758180	-0.000002
C20	C	-0.292992	0.738283	-0.000016
C21	C	-0.290526	0.644971	-0.000019
C22	C	-0.174897	0.608264	-0.000014
C23	C	-0.403152	1.052567	-0.000017
C24	C	-0.542567	1.055197	-0.000023
C25	C	-0.622904	0.975045	-0.000014
C26	C	-0.753899	0.977521	-0.000006
C27	C	-0.724206	1.140307	-0.000014
C28	C	-0.593214	1.137830	-0.000028
C29	C	-0.640049	0.881062	-0.000005
C30	C	-0.771043	0.883538	0.000002
C31	C	0.056031	1.062779	-0.000001
C32	C	0.195447	1.060150	-0.000002
C33	C	-0.164654	1.221148	-0.000010
C34	C	-0.167291	1.320458	-0.000016
N35	N	-0.173543	1.057655	0.235349
N36	N	-0.173568	1.057698	-0.235365
C37	C	-0.088299	1.117953	0.287393
C38	C	-0.088298	1.117958	0.391496
C39	C	-0.173547	1.057670	0.443554
C40	C	-0.258795	0.997366	0.391503
C41	C	-0.258789	0.997357	0.287401
C42	C	-0.258803	0.997391	0.608483
C43	C	-0.258811	0.997401	0.712591
C44	C	-0.088313	1.117992	0.712578
C45	C	-0.088307	1.117983	0.608476
C46	C	-0.173556	1.057680	0.556432
H47	H	-0.375053	0.311085	-0.000022
Br48	Br	0.089356	0.835000	0.000004
Br49	Br	-0.581144	0.831172	0.119006
Br50	Br	-0.792949	1.252447	-0.000025
H51	H	-0.382666	0.598886	-0.000019
H52	H	-0.328202	0.948273	0.433894
H53	H	-0.018897	1.167078	0.566091
Br54	Br	-0.591793	0.819806	-0.115358
Br55	Br	-0.442297	0.500294	-0.000045
H56	H	-0.387142	0.768174	-0.000019
Br57	Br	0.095182	0.615045	0.000005
H58	H	0.035535	0.516465	-0.000013
Br59	Br	-0.374512	0.915577	0.783234
Br60	Br	-0.847672	0.836226	-0.119010
Br61	Br	0.027395	1.199788	0.462130
H62	H	-0.018900	1.167093	0.754958
Br63	Br	0.102788	0.327240	-0.000013
H64	H	-0.328218	0.948282	0.566112
H65	H	-0.328201	0.948255	0.245028
Br66	Br	-0.484186	1.246611	-0.000063
H67	H	-0.813155	0.848125	0.069221
H68	H	-0.018885	1.167050	0.245014
