data_functionalizedCrystal
_audit_creation_method	'MofGen! by Chris Wilmer'
_symmetry_space_group_name_H-M	'P1'
_symmetry_Int_Tables_number	1
_symmetry_cell_setting	triclinic
loop_
_symmetry_equiv_pos_as_xyz
  x,y,z
_cell_length_a	17.640280
_cell_length_b	17.640112
_cell_length_c	17.640968
_cell_angle_alpha	92.139080
_cell_angle_beta	114.317439
_cell_angle_gamma	87.815931
loop_
_atom_site_label
_atom_site_type_symbol
_atom_site_fract_x
_atom_site_fract_y
_atom_site_fract_z
Zn1	Zn	-0.023073	-1.251359	0.189698
Zn2	Zn	-0.188752	-1.251298	0.024069
Zn3	Zn	-0.075311	-1.106797	0.076159
Zn4	Zn	-0.178182	-1.148399	0.179117
O5	O	-0.116329	-1.189463	0.117261
O6	O	-0.027613	-1.354914	0.150355
O7	O	-0.199989	-1.214694	-0.081425
O8	O	0.044008	-1.108588	0.117448
O9	O	-0.149337	-1.354870	0.028669
O10	O	0.082386	-1.214797	0.200865
O11	O	-0.116644	-1.108529	-0.043155
O12	O	-0.106394	-1.008752	0.107188
O13	O	-0.131321	-1.179493	0.292925
O14	O	-0.181973	-1.039317	0.182831
O15	O	-0.017364	-1.255137	0.300699
O16	O	-0.299739	-1.255033	0.018409
O17	O	-0.291973	-1.179434	0.132322
C18	C	-0.324990	-1.221764	0.068579
C19	C	-0.414238	-1.235655	0.047768
C20	C	-0.148705	-0.997182	0.149514
C21	C	-0.162571	-0.914929	0.163327
C22	C	-0.067336	-1.221962	0.326772
C23	C	-0.046458	-1.235811	0.416053
C24	C	-0.687787	-1.084287	0.275600
C25	C	-0.771655	-1.097337	0.256019
C26	C	-0.779643	-1.176134	0.137496
C27	C	-0.695773	-1.163094	0.157069
C28	C	-0.649852	-1.117169	0.226122
C29	C	-0.657837	-1.195976	0.107591
C30	C	-0.573976	-1.182933	0.127160
C31	C	-0.528050	-1.137009	0.196208
C32	C	-0.565990	-1.104127	0.245691
C33	C	-0.703761	-1.241896	0.038535
C34	C	-0.665825	-1.274778	-0.010944
C35	C	-0.581961	-1.261740	0.008629
C36	C	-0.536035	-1.215815	0.077677
C37	C	-0.544020	-1.294622	-0.040854
C38	C	-0.460159	-1.281579	-0.021285
C39	C	-0.452173	-1.202773	0.097246
C40	C	0.093153	-1.157059	0.166147
C41	C	0.182422	-1.143250	0.186980
C42	C	-0.083827	-1.382495	0.084882
C43	C	-0.069977	-1.464754	0.071084
C44	C	-0.010979	-0.564743	0.012337
C45	C	-0.024022	-0.487458	0.025323
C46	C	-0.102905	-0.519334	0.103880
C47	C	-0.089865	-0.596623	0.090904
C48	C	-0.043903	-0.619321	0.045131
C49	C	-0.122789	-0.651201	0.123697
C50	C	-0.109754	-0.728483	0.110718
C51	C	-0.063796	-0.751188	0.064946
C52	C	-0.030868	-0.696603	0.032152
C53	C	-0.168756	-0.628502	0.169465
C54	C	-0.201680	-0.683080	0.202259
C55	C	-0.188640	-0.760364	0.189285
C56	C	-0.142682	-0.783068	0.143512
C57	C	-0.221568	-0.814949	0.222079
C58	C	-0.208534	-0.892231	0.209100
C59	C	-0.129647	-0.860351	0.130533
C60	C	-0.165067	-1.157124	-0.091429
C61	C	-0.185695	-1.143383	-0.180681
C62	C	-0.274453	-1.084469	0.689444
C63	C	-0.254822	-1.097496	0.773337
C64	C	-0.136168	-1.176258	0.781421
C65	C	-0.155787	-1.163234	0.697528
C66	C	-0.224930	-1.117340	0.651546
C67	C	-0.106264	-1.196105	0.659630
C68	C	-0.125884	-1.183085	0.575743
C69	C	-0.195026	-1.137195	0.529754
C70	C	-0.244550	-1.104320	0.567659
C71	C	-0.037124	-1.242004	0.705612
C72	C	0.012398	-1.274874	0.667713
C73	C	-0.007218	-1.261851	0.583827
C74	C	-0.076360	-1.215960	0.537838
C75	C	0.042306	-1.294725	0.545922
C76	C	0.022686	-1.281706	0.462035
C77	C	-0.095980	-1.202940	0.453951
H78	H	-0.414780	-1.165383	0.153481
Cl79	Cl	-0.160696	-0.490791	0.161409
H80	H	-0.429272	-1.308354	-0.061576
Cl81	Cl	-0.259471	-0.654537	0.259788
Cl82	Cl	-0.049249	-1.233954	0.839233
H83	H	-0.650394	-1.046897	0.331835
H84	H	0.068693	-1.312244	0.705162
H85	H	0.098597	-1.332098	0.583371
Cl86	Cl	-0.809177	-1.258323	0.013958
H87	H	0.006574	-0.715084	-0.005106
H88	H	-0.152268	-1.165548	0.416517
Cl89	Cl	-0.361372	-1.026764	0.631634
H90	H	-0.703226	-1.312167	-0.067168
H91	H	0.063013	-1.308471	0.431178
H92	H	-0.528597	-1.066737	0.301926
Cl93	Cl	0.017367	-0.418845	-0.015916
Cl94	Cl	-0.422550	-1.120810	0.220968
Cl95	Cl	-0.819347	-1.055985	0.318221
H96	H	-0.295154	-1.070726	0.804190
Cl97	Cl	-0.837378	-1.233868	0.050692
Cl98	Cl	-0.601761	-1.352347	-0.127664
H99	H	-0.092205	-0.878832	0.093275
Cl100	Cl	-0.047413	-0.848344	0.048623
H101	H	0.026463	-0.583224	-0.024921
Cl102	Cl	-0.185155	-0.531345	0.185769
H103	H	-0.258998	-0.796456	0.259340
Cl104	Cl	-0.249926	-0.960847	0.250324
H105	H	-0.211002	-1.126598	0.461447
Cl106	Cl	-0.331470	-1.046615	0.509849
H107	H	-0.021154	-1.252605	0.773917
