data_functionalizedCrystal
_audit_creation_method	'MofGen! by Chris Wilmer'
_symmetry_space_group_name_H-M	'P1'
_symmetry_Int_Tables_number	1
_symmetry_cell_setting	triclinic
loop_
_symmetry_equiv_pos_as_xyz
  x,y,z
_cell_length_a	11.792254
_cell_length_b	14.044190
_cell_length_c	10.868271
_cell_angle_alpha	89.990065
_cell_angle_beta	89.995741
_cell_angle_gamma	88.695187
loop_
_atom_site_label
_atom_site_type_symbol
_atom_site_fract_x
_atom_site_fract_y
_atom_site_fract_z
O1	O	1.519112	0.130045	-0.102336
O2	O	1.769112	0.380045	0.147664
O3	O	2.019112	0.630045	0.397664
O4	O	2.269112	0.880045	0.647664
O5	O	1.190030	0.143429	-0.102341
O6	O	1.440030	0.393429	0.147659
O7	O	1.690030	0.643429	0.397659
O8	O	1.940030	0.893429	0.647659
O9	O	1.349627	-0.001274	-0.102314
O10	O	1.599627	0.248726	0.147686
O11	O	1.849627	0.498726	0.397686
O12	O	2.099627	0.748726	0.647686
O13	O	1.359514	0.274747	-0.102363
O14	O	1.609514	0.524747	0.147637
O15	O	1.859514	0.774747	0.397637
O16	O	2.109514	1.024747	0.647637
O17	O	1.349612	-0.001279	0.102330
O18	O	1.599612	0.248721	0.352330
O19	O	1.849612	0.498721	0.602330
O20	O	2.099612	0.748721	0.852330
O21	O	1.190015	0.143423	0.102304
O22	O	1.440015	0.393423	0.352304
O23	O	1.690015	0.643423	0.602304
O24	O	1.940015	0.893423	0.852304
O25	O	1.519097	0.130039	0.102308
O26	O	1.769097	0.380039	0.352308
O27	O	2.019097	0.630039	0.602308
O28	O	2.269097	0.880039	0.852308
Zn29	Zn	1.354553	0.136730	0.134798
Zn30	Zn	1.604553	0.386730	0.384798
Zn31	Zn	1.854553	0.636730	0.634798
Zn32	Zn	2.104553	0.886730	0.884798
Zn33	Zn	1.354573	0.136738	-0.134830
Zn34	Zn	1.604573	0.386738	0.115170
Zn35	Zn	1.854573	0.636738	0.365170
Zn36	Zn	2.104573	0.886738	0.615170
O37	O	1.359500	0.274741	0.102282
O38	O	1.609500	0.524741	0.352282
O39	O	1.859500	0.774741	0.602282
O40	O	2.109500	1.024741	0.852282
C41	C	1.147652	0.142583	-0.000018
C42	C	1.397652	0.392583	0.249982
C43	C	1.647652	0.642583	0.499982
C44	C	1.897652	0.892583	0.749982
C45	C	1.021402	0.140059	-0.000019
C46	C	1.271402	0.390059	0.249981
C47	C	1.521402	0.640059	0.499981
C48	C	1.771402	0.890059	0.749981
C49	C	0.918873	0.138009	-0.000024
C50	C	1.168873	0.388009	0.249976
C51	C	1.418873	0.638009	0.499976
C52	C	1.668873	0.888009	0.749976
C53	C	0.790246	0.135445	-0.000024
C54	C	1.040246	0.385445	0.249976
C55	C	1.290246	0.635445	0.499976
C56	C	1.540246	0.885445	0.749976
C57	C	1.345294	-0.036613	0.000012
C58	C	1.595294	0.213387	0.250012
C59	C	1.845294	0.463387	0.500012
C60	C	2.095294	0.713387	0.750012
C61	C	1.332392	-0.141906	0.000022
C62	C	1.582392	0.108094	0.250022
C63	C	1.832392	0.358094	0.500022
C64	C	2.082392	0.608094	0.750022
C65	C	1.400309	-0.391841	-0.000025
C66	C	1.650309	-0.141841	0.249975
C67	C	1.900309	0.108159	0.499975
C68	C	2.150309	0.358159	0.749975
C69	C	1.308822	-0.334686	-0.000018
C70	C	1.558822	-0.084686	0.249982
C71	C	1.808822	0.165314	0.499982
C72	C	2.058822	0.415314	0.749982
C73	C	1.321940	-0.227413	0.000004
C74	C	1.571940	0.022587	0.250004
C75	C	1.821940	0.272587	0.500004
C76	C	2.071940	0.522587	0.750004
C77	C	1.387194	-0.499123	-0.000047
C78	C	1.637194	-0.249123	0.249953
C79	C	1.887194	0.000877	0.499953
C80	C	2.137194	0.250877	0.749953
C81	C	1.561474	0.130885	-0.000016
C82	C	1.811474	0.380885	0.249984
C83	C	2.061474	0.630885	0.499984
C84	C	2.311474	0.880885	0.749984
C85	C	1.687724	0.133409	-0.000024
C86	C	1.937724	0.383409	0.249976
C87	C	2.187724	0.633409	0.499976
C88	C	2.437724	0.883409	0.749976
C89	C	1.363832	0.310081	-0.000046
C90	C	1.613832	0.560081	0.249954
C91	C	1.863832	0.810081	0.499954
C92	C	2.113832	1.060081	0.749954
C93	C	1.376735	0.415374	-0.000065
C94	C	1.626735	0.665374	0.249935
C95	C	1.876735	0.915374	0.499935
C96	C	2.126735	1.165374	0.749935
N97	N	1.354548	0.136725	0.318812
N98	N	1.604548	0.386725	0.568812
N99	N	1.854548	0.636725	0.818812
N100	N	2.104548	0.886725	1.068812
N101	N	1.354586	0.136736	-0.318844
N102	N	1.604586	0.386736	-0.068844
N103	N	1.854586	0.636736	0.181156
N104	N	2.104586	0.886736	0.431156
C105	C	1.354567	0.136736	0.569818
C106	C	1.604567	0.386736	0.819818
C107	C	1.854567	0.636736	1.069818
C108	C	2.104567	0.886736	1.319818
C109	C	1.354553	0.136732	0.430141
C110	C	1.604553	0.386732	0.680141
C111	C	1.854553	0.636732	0.930141
C112	C	2.104553	0.886732	1.180141
H113	H	1.220647	-0.366317	-0.000026
H114	H	1.470647	-0.116317	0.249974
H115	H	1.720647	0.133683	0.499974
H116	H	1.970647	0.383683	0.749974
H117	H	1.488478	-0.360211	-0.000011
H118	H	1.738478	-0.110211	0.249989
H119	H	1.988478	0.139789	0.499989
H120	H	2.238478	0.389789	0.749989
