data_functionalizedCrystal
_audit_creation_method	'MofGen! by Chris Wilmer'
_symmetry_space_group_name_H-M	'P1'
_symmetry_Int_Tables_number	1
_symmetry_cell_setting	triclinic
loop_
_symmetry_equiv_pos_as_xyz
  x,y,z
_cell_length_a	11.792241
_cell_length_b	10.654541
_cell_length_c	9.730217
_cell_angle_alpha	90.000068
_cell_angle_beta	89.996588
_cell_angle_gamma	95.661328
loop_
_atom_site_label
_atom_site_type_symbol
_atom_site_fract_x
_atom_site_fract_y
_atom_site_fract_z
O1	O	0.159405	-1.667388	-0.114248
O2	O	0.174596	-1.301866	-0.114261
O3	O	0.001850	-1.493497	-0.114245
O4	O	0.332151	-1.475756	-0.114264
O5	O	0.001849	-1.493491	0.114336
O6	O	0.174595	-1.301860	0.114320
O7	O	0.159403	-1.667382	0.114332
Zn8	Zn	0.166999	-1.484620	0.150618
Zn9	Zn	0.167001	-1.484628	-0.150547
O10	O	0.332149	-1.475750	0.114316
C11	C	0.173481	-1.255068	0.000028
C12	C	0.170145	-1.115634	0.000024
C13	C	-0.040444	-1.492380	0.000045
C14	C	-0.166465	-1.489044	0.000044
N15	N	0.166997	-1.484624	0.356154
C16	C	-0.397192	-1.482911	0.000020
C17	C	-0.268799	-1.486319	0.000033
C18	C	0.374443	-1.476868	0.000023
C19	C	0.500465	-1.480203	0.000015
C20	C	0.160519	-1.714180	0.000040
C21	C	0.163854	-1.853614	0.000035
C22	C	0.376710	-1.087078	-0.000006
C23	C	0.478420	-1.007297	-0.000026
C24	C	0.475279	-0.876287	-0.000027
C25	C	0.370416	-0.825059	-0.000004
C26	C	0.268706	-0.904841	0.000016
C27	C	0.271858	-1.035851	0.000013
C28	C	0.062144	-0.933396	0.000056
C29	C	0.065282	-1.064405	0.000047
C30	C	-0.042719	-0.882167	0.000079
C31	C	-0.144432	-0.961949	0.000089
C32	C	-0.141286	-1.092966	0.000089
C33	C	-0.036428	-1.144187	0.000067
N34	N	0.166994	-1.484634	-0.356083
C35	C	0.014075	-1.654383	0.356159
C36	C	-0.062382	-1.739271	0.428101
C37	C	-0.062383	-1.739283	0.571981
C38	C	0.014080	-1.654397	0.643922
C39	C	0.090537	-1.569509	0.571979
C40	C	0.090532	-1.569508	0.428096
C41	C	0.243451	-1.399746	0.571975
C42	C	0.243459	-1.399737	0.428095
C43	C	0.319914	-1.314859	0.643916
C44	C	0.396379	-1.229975	0.571973
C45	C	0.396377	-1.229966	0.428085
C46	C	0.319917	-1.314849	0.356153
H47	H	0.379277	-1.193752	-0.000035
H48	H	0.458634	-1.160836	0.369517
H49	H	0.563797	-1.049022	-0.000041
H50	H	-0.045269	-0.775491	0.000086
C51	C	-0.146505	-1.832622	0.348956
N52	N	-0.209874	-1.902926	0.289347
H53	H	-0.229803	-0.920227	0.000107
H54	H	0.558101	-0.811328	-0.000034
H55	H	-0.124645	-1.808402	0.630557
C56	C	-0.253179	-1.180717	0.000112
N57	N	-0.337459	-1.246807	0.000128
H58	H	0.319906	-1.314867	0.761070
C59	C	0.480469	-1.136600	0.651117
N60	N	0.543807	-1.066268	0.710733
H61	H	0.014077	-1.654391	0.239004
H62	H	-0.033857	-1.250860	0.000051
C63	C	0.319906	-1.314846	0.197881
N64	N	0.319891	-1.314844	0.078669
C65	C	0.014054	-1.654393	0.802193
N66	N	0.014031	-1.654384	0.921406
H67	H	0.367868	-0.718383	0.000012
