data_functionalizedCrystal
_audit_creation_method	'MofGen! by Chris Wilmer'
_symmetry_space_group_name_H-M	'P1'
_symmetry_Int_Tables_number	1
_symmetry_cell_setting	triclinic
loop_
_symmetry_equiv_pos_as_xyz
  x,y,z
_cell_length_a	16.625546
_cell_length_b	13.897449
_cell_length_c	13.897441
_cell_angle_alpha	90.016656
_cell_angle_beta	90.033447
_cell_angle_gamma	90.027294
loop_
_atom_site_label
_atom_site_type_symbol
_atom_site_fract_x
_atom_site_fract_y
_atom_site_fract_z
Zn1	Zn	-0.320872	1.474671	0.545257
Zn2	Zn	0.012461	1.808004	0.878591
Zn3	Zn	0.345795	2.141337	1.211924
Zn4	Zn	-0.455722	1.474551	0.383951
Zn5	Zn	-0.122389	1.807884	0.717284
Zn6	Zn	0.210944	2.141218	1.050617
Zn7	Zn	-0.320919	1.313360	0.383987
Zn8	Zn	0.012414	1.646693	0.717320
Zn9	Zn	0.345748	1.980026	1.050654
Zn10	Zn	-0.455678	1.313328	0.545215
Zn11	Zn	-0.122344	1.646661	0.878548
Zn12	Zn	0.210989	1.979995	1.211881
O13	O	-0.388298	1.393977	0.464602
O14	O	-0.054964	1.727311	0.797936
O15	O	0.278369	2.060644	1.131269
O16	O	-0.338759	1.609636	0.523862
O17	O	-0.005426	1.942970	0.857195
O18	O	0.327907	2.276303	1.190529
O19	O	-0.437879	1.453132	0.248974
O20	O	-0.104545	1.786465	0.582307
O21	O	0.228788	2.119799	0.915640
O22	O	-0.208080	1.334821	0.405413
O23	O	0.125253	1.668155	0.738746
O24	O	0.458586	2.001488	1.072080
O25	O	-0.437833	1.609549	0.405351
O26	O	-0.104500	1.942882	0.738684
O27	O	0.228833	2.276215	1.072017
O28	O	-0.208046	1.453336	0.523897
O29	O	0.125287	1.786669	0.857231
O30	O	0.458621	2.120002	1.190564
O31	O	-0.338839	1.334705	0.249001
O32	O	-0.005506	1.668039	0.582334
O33	O	0.327828	2.001372	0.915667
O34	O	-0.338796	1.178374	0.405372
O35	O	-0.005462	1.511707	0.738705
O36	O	0.327871	1.845041	1.072038
O37	O	-0.437757	1.334767	0.680202
O38	O	-0.104424	1.668100	1.013535
O39	O	0.228909	2.001434	1.346869
O40	O	-0.437803	1.178351	0.523825
O41	O	-0.104469	1.511684	0.857158
O42	O	0.228864	1.845017	1.190492
O43	O	-0.338716	1.453305	0.680233
O44	O	-0.005383	1.786638	1.013567
O45	O	0.327951	2.119972	1.346900
O46	O	-0.568549	1.453101	0.405310
O47	O	-0.235216	1.786435	0.738643
O48	O	0.098118	2.119768	1.071976
O49	O	-0.568516	1.334651	0.523790
O50	O	-0.235183	1.667985	0.857123
O51	O	0.098151	2.001318	1.190456
C52	C	-0.597789	1.393886	0.464562
C53	C	-0.264455	1.727219	0.797895
C54	C	0.068878	2.060553	1.131229
C55	C	-0.687410	1.393935	0.464577
C56	C	-0.354076	1.727269	0.797910
C57	C	-0.020743	2.060602	1.131244
C58	C	-0.388300	1.143363	0.464598
C59	C	-0.054967	1.476696	0.797932
C60	C	0.278367	1.810030	1.131265
C61	C	-0.388320	1.036149	0.464619
C62	C	-0.054987	1.369482	0.797953
C63	C	0.278346	1.702816	1.131286
C64	C	-0.388227	1.394046	0.716195
C65	C	-0.054893	1.727379	1.049529
C66	C	0.278440	2.060712	1.382862
C67	C	-0.388196	1.394075	0.823409
C68	C	-0.054863	1.727408	1.156743
C69	C	0.278470	2.060742	1.490076
C70	C	-1.015585	1.394104	0.464677
C71	C	-0.682252	1.727437	0.798011
C72	C	-0.348919	2.060770	1.131344
C73	C	-0.924277	1.394054	0.464652
C74	C	-0.590944	1.727387	0.797985
C75	C	-0.257610	2.060720	1.131319
C76	C	-0.851500	1.394019	0.464627
C77	C	-0.518167	1.727352	0.797960
C78	C	-0.184834	2.060685	1.131293
C79	C	-0.760186	1.393970	0.464602
C80	C	-0.426853	1.727304	0.797936
C81	C	-0.093520	2.060637	1.131269
C82	C	-0.177989	1.394095	0.464664
C83	C	0.155344	1.727429	0.797997
C84	C	0.488678	2.060762	1.131331
C85	C	-0.088368	1.394146	0.464690
C86	C	0.244966	1.727479	0.798024
C87	C	0.578299	2.060812	1.131357
C88	C	-0.388296	1.645570	0.464607
C89	C	-0.054963	1.978904	0.797940
C90	C	0.278370	2.312237	1.131274
C91	C	-0.388295	1.752784	0.464609
C92	C	-0.054962	2.086118	0.797942
C93	C	0.278371	2.419451	1.131276
C94	C	-0.388318	1.949079	0.464613
C95	C	-0.054985	2.282413	0.797947
C96	C	0.278348	2.615746	1.131280
C97	C	-0.388308	1.839847	0.464608
C98	C	-0.054975	2.173180	0.797942
C99	C	0.278359	2.506514	1.131275
C100	C	-0.388311	1.393965	0.213988
C101	C	-0.054977	1.727298	0.547321
C102	C	0.278356	2.060631	0.880655
C103	C	-0.388114	1.394122	0.106775
C104	C	-0.054781	1.727456	0.440108
C105	C	0.278553	2.060789	0.773441
C106	C	-0.388142	1.394101	1.019705
C107	C	-0.054808	1.727434	1.353038
C108	C	0.278525	2.060768	1.686371
C109	C	-0.388174	1.394084	0.910472
C110	C	-0.054841	1.727417	1.243806
C111	C	0.278492	2.060750	1.577139
