data_functionalizedCrystal
_audit_creation_method	'MofGen! by Chris Wilmer'
_symmetry_space_group_name_H-M	'P1'
_symmetry_Int_Tables_number	1
_symmetry_cell_setting	triclinic
loop_
_symmetry_equiv_pos_as_xyz
  x,y,z
_cell_length_a	16.959454
_cell_length_b	10.686220
_cell_length_c	10.686551
_cell_angle_alpha	89.691918
_cell_angle_beta	85.595422
_cell_angle_gamma	85.598365
loop_
_atom_site_label
_atom_site_type_symbol
_atom_site_fract_x
_atom_site_fract_y
_atom_site_fract_z
Zn1	Zn	-0.192706	-1.972261	-0.562392
Zn2	Zn	-0.335773	-1.956011	-0.352638
Zn3	Zn	-0.212926	-1.746376	-0.368710
Zn4	Zn	-0.334171	-1.762442	-0.578415
O5	O	-0.268894	-1.859272	-0.465539
O6	O	-0.203892	-2.145648	-0.521135
O7	O	-0.328610	-1.914679	-0.179225
O8	O	-0.099628	-1.776417	-0.394423
O9	O	-0.309003	-2.133710	-0.367030
O10	O	-0.084773	-1.942373	-0.536720
O11	O	-0.238355	-1.760661	-0.191033
O12	O	-0.236801	-1.572964	-0.409960
O13	O	-0.306273	-1.803798	-0.751835
O14	O	-0.325880	-1.584768	-0.564030
O15	O	-0.202339	-1.957951	-0.740063
O16	O	-0.446176	-1.930257	-0.382567
O17	O	-0.444999	-1.788042	-0.548445
C18	C	-0.283361	-1.533350	-0.490478
C19	C	-0.289568	-1.393921	-0.501177
C20	C	-0.474266	-1.859166	-0.465525
C21	C	-0.562118	-1.859238	-0.465553
C22	C	-0.251872	-1.884480	-0.792738
C23	C	-0.244618	-1.895221	-0.932171
C24	C	-0.933005	-1.785337	-0.551894
C25	C	-0.934158	-1.933567	-0.379285
C26	C	-0.851615	-1.933522	-0.379276
C27	C	-0.809763	-1.859382	-0.465577
C28	C	-0.850454	-1.785287	-0.551886
C29	C	-0.810918	-2.007607	-0.292961
C30	C	-0.728369	-2.007564	-0.292948
C31	C	-0.686515	-1.933430	-0.379256
C32	C	-0.727212	-1.859333	-0.465569
C33	C	-0.685360	-1.785193	-0.551870
C34	C	-0.726054	-1.711101	-0.638190
C35	C	-0.808600	-1.711153	-0.638193
C36	C	-0.603970	-1.933378	-0.379252
C37	C	-0.602809	-1.785143	-0.551862
C38	C	-0.062717	-1.859416	-0.465577
C39	C	0.025143	-1.859477	-0.465593
C40	C	-0.254371	-2.186468	-0.440502
C41	C	-0.248182	-2.325899	-0.429834
C42	C	-0.285790	-1.834236	-0.139606
C43	C	-0.292810	-1.823737	-0.000156
H44	H	-0.568738	-1.724774	-0.622143
C45	C	-0.980199	-2.015103	-0.284348
N46	N	-1.014880	-2.076518	-0.212837
H47	H	-0.197809	-1.964650	-0.980643
H48	H	-0.570841	-1.993696	-0.308966
C49	C	-0.856961	-2.089135	-0.198020
N50	N	-0.891645	-2.150542	-0.126504
C51	C	-0.853371	-1.629645	-0.733123
N52	N	-0.887097	-1.568246	-0.804618
C53	C	-0.680007	-1.629549	-0.733117
N54	N	-0.645320	-1.568127	-0.804614
H55	H	-0.208002	-1.374330	-0.360567
C56	C	-0.343858	-1.328489	-0.594755
N57	N	-0.384747	-1.279205	-0.665239
C58	C	-0.683614	-2.089057	-0.197989
N59	N	-0.649904	-2.150436	-0.126462
C60	C	-0.977769	-1.703835	-0.646837
N61	N	-1.011487	-1.642443	-0.718345
H62	H	-0.339621	-1.754322	-0.951689
