data_functionalizedCrystal
_audit_creation_method	'MofGen! by Chris Wilmer'
_symmetry_space_group_name_H-M	'P1'
_symmetry_Int_Tables_number	1
_symmetry_cell_setting	triclinic
loop_
_symmetry_equiv_pos_as_xyz
  x,y,z
_cell_length_a	25.427154
_cell_length_b	25.426324
_cell_length_c	25.422586
_cell_angle_alpha	60.006367
_cell_angle_beta	60.012446
_cell_angle_gamma	59.992398
loop_
_atom_site_label
_atom_site_type_symbol
_atom_site_fract_x
_atom_site_fract_y
_atom_site_fract_z
O1	O	0.072968	-0.768436	0.642532
O2	O	0.027520	-0.598284	0.517710
O3	O	0.135268	-0.705940	0.517611
O4	O	-0.034780	-0.660780	0.642632
O5	O	0.171018	-0.670200	0.553260
O6	O	0.063270	-0.562544	0.553360
O7	O	0.108718	-0.732696	0.678182
Zn8	Zn	0.091670	-0.641945	0.621431
Zn9	Zn	0.044568	-0.689034	0.574461
O10	O	0.000970	-0.625039	0.678281
N11	N	0.123818	-0.609812	0.653490
N12	N	0.012426	-0.721173	0.542402
C13	C	0.168482	-0.466269	0.698103
C14	C	0.168494	-0.565177	0.698095
C15	C	0.193243	-0.540453	0.722807
C16	C	0.301113	-0.521853	0.665993
C17	C	0.368545	-0.544324	0.643486
C18	C	0.368579	-0.653434	0.685090
C19	C	0.301149	-0.630961	0.707599
C20	C	0.184722	-0.432539	0.631812
C21	C	0.162210	-0.365100	0.609357
C22	C	0.107225	-0.365129	0.719489
C23	C	0.129737	-0.432567	0.741943
C24	C	0.102194	-0.548896	0.714421
C25	C	0.079702	-0.571372	0.691949
C26	C	0.189805	-0.626409	0.636839
C27	C	0.212300	-0.603934	0.659303
C28	C	0.102289	-0.548918	0.830735
C29	C	0.079866	-0.571415	0.898171
C30	C	0.190015	-0.626466	0.898104
C31	C	0.212437	-0.603971	0.830666
C32	C	0.168573	-0.565195	0.796984
C33	C	0.267418	-0.565170	0.698047
C34	C	-0.130981	-0.765617	0.497386
C35	C	-0.032127	-0.765741	0.497606
C36	C	-0.056804	-0.790430	0.472789
C37	C	-0.075480	-0.898263	0.529507
C38	C	-0.053057	-0.965702	0.552014
C39	C	0.056052	-0.965829	0.510599
C40	C	0.033627	-0.898392	0.488091
C41	C	-0.164787	-0.781859	0.563659
C42	C	-0.232219	-0.759299	0.586018
C43	C	-0.232034	-0.704261	0.475827
C44	C	-0.164602	-0.726821	0.453469
C45	C	-0.048372	-0.699446	0.481299
C46	C	-0.025938	-0.677008	0.503867
C47	C	0.028987	-0.787155	0.559036
C48	C	0.006552	-0.809596	0.536475
C49	C	-0.048188	-0.699454	0.364860
C50	C	-0.025608	-0.677017	0.297425
C51	C	0.029406	-0.787170	0.297492
C52	C	0.006827	-0.809605	0.364929
C53	C	-0.031972	-0.765745	0.398611
C54	C	-0.032140	-0.864611	0.497548
N55	N	0.401319	-0.609788	0.653344
O56	O	0.621664	-0.620517	0.494685
O57	O	0.621901	-0.745740	0.664659
O58	O	0.621803	-0.745452	0.556857
O59	O	0.621762	-0.620805	0.602487
O60	O	0.514676	-0.709815	0.592658
O61	O	0.514774	-0.710104	0.700460
O62	O	0.514537	-0.584881	0.530485
Zn63	Zn	0.497647	-0.641834	0.621157
Zn64	Zn	0.638791	-0.688787	0.573988
O65	O	0.514635	-0.585169	0.638287
N66	N	0.735119	-0.720834	0.541794
N67	N	0.123794	-0.332357	0.653504
O68	O	-0.034774	-0.111885	0.642639
O69	O	0.135202	-0.111860	0.517412
O70	O	0.027364	-0.111888	0.517742
O71	O	0.073064	-0.111857	0.642310
O72	O	0.063120	-0.219026	0.553444
O73	O	0.170958	-0.218998	0.553115
O74	O	0.000983	-0.219022	0.678342
Zn75	Zn	0.091647	-0.236020	0.621397
Zn76	Zn	0.044537	-0.094862	0.574357
O77	O	0.108821	-0.218994	0.678013
N78	N	0.012383	0.001474	0.542251
N79	N	0.124036	-0.609854	0.930891
O80	O	0.113202	-0.768401	1.151342
O81	O	-0.011992	-0.598359	1.151385
O82	O	-0.011700	-0.706176	1.151343
O83	O	0.112910	-0.660584	1.151384
O84	O	0.023980	-0.670446	1.044212
O85	O	0.023689	-0.562630	1.044253
O86	O	0.148882	-0.732671	1.044211
Zn87	Zn	0.091951	-0.641977	1.027223
Zn88	Zn	0.044940	-0.689053	1.168373
O89	O	0.148590	-0.624854	1.044252
N90	N	0.012853	-0.721183	1.264704
C91	C	0.041135	-0.558973	0.518338
C92	C	0.174567	-0.692292	0.518215
C93	C	0.095103	-0.772007	0.677553
C94	C	-0.038330	-0.638687	0.677677
C95	C	0.568366	-0.745166	0.703974
C96	C	0.568246	-0.744810	0.570474
C97	C	0.568069	-0.585454	0.491172
C98	C	0.568192	-0.585812	0.624671
C99	C	0.174449	-0.165294	0.517975
C100	C	0.040949	-0.165460	0.518427
C101	C	-0.038309	-0.165456	0.677735
C102	C	0.095236	-0.165423	0.677328
C103	C	-0.011393	-0.559072	1.097824
C104	C	-0.011024	-0.692583	1.097752
C105	C	0.148283	-0.771958	1.097772
C106	C	0.147922	-0.638440	1.097820
H107	H	0.025889	-0.558152	0.925643
O108	O	-0.058225	-0.500787	1.097866
C109	C	-0.035034	-0.460699	1.097868
H110	H	0.006323	-0.491678	1.118149
H111	H	-0.075511	-0.429838	1.128981
H112	H	-0.017162	-0.428164	1.046477
O113	O	0.568262	-0.539176	0.636363
C114	C	0.623788	-0.561331	0.651459
H115	H	0.642338	-0.616243	0.669930
H116	H	0.611335	-0.542725	0.690222
H117	H	0.662588	-0.542941	0.606432
H118	H	0.031160	-0.165463	0.479291
O119	O	0.232782	-0.703778	0.471317
C120	C	0.224303	-0.696543	0.417045
H121	H	0.177115	-0.703624	0.432563
H122	H	0.266066	-0.733970	0.394060
H123	H	0.222870	-0.646187	0.380629
H124	H	0.187590	-0.820792	1.097751
O125	O	0.106778	-0.830362	0.724245
C126	C	0.170087	-0.870311	0.700874
H127	H	0.187070	-0.852755	0.646007
H128	H	0.170966	-0.921946	0.720549
H129	H	0.203416	-0.868537	0.717169
O130	O	-0.096623	-0.627278	0.724497
C131	C	-0.125174	-0.671525	0.741852
H132	H	-0.103872	-0.690319	0.700529
H133	H	-0.179370	-0.646524	0.752442
H134	H	-0.115370	-0.713510	0.786618
H135	H	0.223163	-0.164989	0.478564
H136	H	0.187070	-0.628684	1.097824
O137	O	-0.096592	-0.165423	0.724555
C138	C	-0.136696	-0.165449	0.701392
H139	H	-0.119275	-0.145178	0.646523
H140	H	-0.188292	-0.134338	0.721143
H141	H	-0.134953	-0.216849	0.717782
H142	H	0.568264	-0.783967	0.560707
O143	O	0.107026	-0.165453	0.723961
C144	C	0.170339	-0.165429	0.700475
H145	H	0.200792	-0.185703	0.659118
H146	H	0.192043	-0.196538	0.740805
H147	H	0.169378	-0.114029	0.682513
H148	H	0.567992	-0.546139	0.442358
O149	O	0.268278	-0.457970	0.656829
C150	C	0.229322	-0.448805	0.717028
H151	H	0.219245	-0.495171	0.754606
H152	H	0.181889	-0.408313	0.713158
H153	H	0.255329	-0.435519	0.731996
H154	H	0.225736	-0.658027	0.925521
O155	O	0.059589	-0.511281	0.798116
C156	C	-0.003724	-0.501722	0.842366
H157	H	-0.003562	-0.542386	0.890425
H158	H	-0.035763	-0.501368	0.822905
H159	H	-0.023044	-0.453685	0.849550
O160	O	0.276850	-0.619822	0.797982
C161	C	0.310753	-0.658880	0.842174
H162	H	0.278622	-0.650283	0.890254
H163	H	0.355749	-0.646236	0.822669
H164	H	0.325305	-0.711701	0.849333
H165	H	0.568427	-0.784476	0.752793
H166	H	-0.050155	-0.702322	1.097697
O167	O	0.059615	-0.511155	0.752002
C168	C	0.020580	-0.454600	0.717986
H169	H	0.046583	-0.445210	0.664031
H170	H	0.010386	-0.412126	0.730059
H171	H	-0.026794	-0.460732	0.732362
O172	O	0.015293	-0.555642	0.707916
C173	C	-0.012660	-0.578714	0.775463
H174	H	0.025768	-0.620303	0.797169
H175	H	-0.052404	-0.596232	0.788387
H176	H	-0.033947	-0.538266	0.795451
H177	H	0.266286	-0.617183	0.646003
O178	O	0.232446	-0.664030	0.599146
C179	C	0.295785	-0.673593	0.589576
H180	H	0.295665	-0.632939	0.597115
H181	H	0.327770	-0.673935	0.538424
H182	H	0.315140	-0.721638	0.625450
H183	H	0.273715	-0.666239	0.733700
H184	H	0.395978	-0.509050	0.617384
O185	O	0.401282	-0.717348	0.694323
C186	C	0.384792	-0.737936	0.664036
H187	H	0.335813	-0.703742	0.658323
H188	H	0.382516	-0.788675	0.694722
H189	H	0.422713	-0.738040	0.614574
O190	O	0.222260	-0.465251	0.589205
C191	C	0.188174	-0.448759	0.550236
H192	H	0.134232	-0.430232	0.576302
H193	H	0.200235	-0.493106	0.540038
H194	H	0.202492	-0.409605	0.502858
O195	O	0.177871	-0.332300	0.544964
C196	C	0.121184	-0.293282	0.528705
H197	H	0.080698	-0.313618	0.566735
H198	H	0.130034	-0.292502	0.479753
H199	H	0.106983	-0.242176	0.526479
H200	H	0.116505	-0.460032	0.795926
O201	O	0.069666	-0.332452	0.762131
C202	C	0.103762	-0.348910	0.801076
H203	H	0.143029	-0.397869	0.801720
H204	H	0.069194	-0.351225	0.852225
H205	H	0.126631	-0.310945	0.780776
O206	O	-0.041485	-0.612610	0.264676
C207	C	-0.109017	-0.584541	0.281051
H208	H	-0.130768	-0.622902	0.299537
H209	H	-0.121851	-0.544785	0.236659
H210	H	-0.129039	-0.563238	0.320199
O211	O	0.067101	-0.829863	0.264878
C212	C	0.076553	-0.893184	0.309131
H213	H	0.068948	-0.893050	0.357226
H214	H	0.127694	-0.925258	0.289730
H215	H	0.040661	-0.912448	0.316222
O216	O	0.022468	-0.873989	0.397785
C217	C	-0.034225	-0.890209	0.436681
H218	H	-0.076584	-0.845733	0.446721
H219	H	-0.028277	-0.929309	0.484138
H220	H	-0.043657	-0.908702	0.410639
O221	O	-0.085776	-0.656826	0.397556
C222	C	-0.051713	-0.617887	0.381144
H223	H	0.002234	-0.643982	0.362686
H224	H	-0.063827	-0.607688	0.425512
H225	H	-0.066003	-0.570504	0.341966
O226	O	-0.086027	-0.656904	0.443619
C227	C	-0.146003	-0.666526	0.474173
H228	H	-0.140633	-0.717689	0.509819
H229	H	-0.163211	-0.659002	0.436458
H230	H	-0.182663	-0.630666	0.500948
O231	O	-0.041593	-0.612626	0.488003
C232	C	0.015101	-0.596423	0.454154
H233	H	0.057418	-0.640907	0.466405
H234	H	0.009067	-0.557328	0.468525
H235	H	0.024664	-0.577930	0.400163
O236	O	0.066532	-0.829845	0.596804
C237	C	0.076072	-0.893168	0.606337
H238	H	0.035450	-0.892996	0.598703
H239	H	0.076340	-0.925174	0.657510
H240	H	0.124140	-0.912540	0.570507
H241	H	0.019779	-0.863579	0.549754
H242	H	0.109606	-0.993335	0.502902
O243	O	0.075814	-0.865801	0.457083
C244	C	0.138671	-0.910080	0.453554
H245	H	0.136043	-0.958129	0.493386
H246	H	0.166328	-0.890634	0.459734
H247	H	0.164470	-0.917283	0.404691
H248	H	-0.088349	-0.993100	0.578027
O249	O	0.029671	-0.500691	0.471503
C250	C	0.085003	-0.500543	0.415946
H251	H	0.129262	-0.538639	0.430073
H252	H	0.090693	-0.451111	0.391896
H253	H	0.079799	-0.511758	0.380945
H254	H	-0.137414	-0.813456	0.599420
O255	O	-0.139380	-0.865551	0.538702
C256	C	-0.172823	-0.909720	0.571742
H257	H	-0.138214	-0.957819	0.564017
H258	H	-0.213420	-0.890205	0.552532
H259	H	-0.193877	-0.916850	0.625391
H260	H	-0.259745	-0.772522	0.639985
H261	H	-0.259410	-0.672678	0.440065
H262	H	-0.137077	-0.713589	0.399501
