data_functionalizedCrystal
_audit_creation_method	'MofGen! by Chris Wilmer'
_symmetry_space_group_name_H-M	'P1'
_symmetry_Int_Tables_number	1
_symmetry_cell_setting	triclinic
loop_
_symmetry_equiv_pos_as_xyz
  x,y,z
_cell_length_a	27.732064
_cell_length_b	27.732048
_cell_length_c	26.210046
_cell_angle_alpha	90.035371
_cell_angle_beta	89.996567
_cell_angle_gamma	82.646040
loop_
_atom_site_label
_atom_site_type_symbol
_atom_site_fract_x
_atom_site_fract_y
_atom_site_fract_z
O1	O	0.640919	0.057573	0.042343
O2	O	0.500127	0.066311	0.042365
O3	O	0.574896	-0.008455	0.042344
O4	O	0.566150	0.132338	0.042365
O5	O	0.574895	-0.008493	-0.042514
O6	O	0.500126	0.066272	-0.042493
O7	O	0.640918	0.057535	-0.042515
Cu8	Cu	0.570522	0.061900	-0.050252
Cu9	Cu	0.570523	0.061946	0.050103
O10	O	0.566149	0.132300	-0.042493
C11	C	0.482120	0.066106	-0.000061
C12	C	0.428465	0.065550	-0.000053
C13	C	0.051392	0.017583	-0.000089
C14	C	0.253053	0.019630	-0.000076
O15	O	0.284305	-0.017592	-0.000100
N16	N	0.272180	0.063964	-0.000067
C17	C	0.240889	0.107790	-0.000065
O18	O	0.261785	0.145546	-0.000062
C19	C	0.039230	0.105743	-0.000082
C20	C	0.020105	0.061406	-0.000086
C21	C	0.032267	-0.026750	-0.000094
C22	C	-0.018145	-0.027261	-0.000094
C23	C	-0.049432	0.016561	-0.000091
C24	C	-0.030307	0.060895	-0.000086
C25	C	0.007940	0.149568	-0.000084
C26	C	-0.042478	0.149053	-0.000089
C27	C	-0.061602	0.104715	-0.000093
C28	C	-0.112006	0.104206	-0.000084
N29	N	-0.131133	0.059872	-0.000092
C30	C	-0.099846	0.016049	-0.000096
C31	C	0.346763	0.108861	-0.000055
C32	C	0.397178	0.109373	-0.000050
C33	C	0.409338	0.021213	-0.000062
C34	C	0.358923	0.020701	-0.000063
C35	C	0.327636	0.064527	-0.000064
C36	C	-0.205716	0.014979	-0.000097
C37	C	-0.256133	0.014472	-0.000095
C38	C	-0.268289	0.102632	-0.000086
C39	C	-0.217876	0.103140	-0.000085
C40	C	-0.186590	0.059309	-0.000092
O41	O	-0.143287	0.141407	-0.000065
O42	O	-0.120752	-0.021701	-0.000110
C43	C	0.101805	0.018094	-0.000089
C44	C	0.120930	0.062428	-0.000085
C45	C	0.089642	0.106250	-0.000081
C46	C	0.171344	0.062940	-0.000079
C47	C	0.202631	0.019117	-0.000083
C48	C	0.183504	-0.025217	-0.000092
C49	C	0.133092	-0.025728	-0.000092
C50	C	0.108770	0.150585	-0.000072
C51	C	0.159183	0.151092	-0.000071
C52	C	0.190470	0.107270	-0.000075
C53	C	0.574712	-0.026481	-0.000087
C54	C	0.574159	-0.080136	-0.000091
C55	C	0.614862	-0.418948	-0.000071
C56	C	0.612811	-0.620608	-0.000063
O57	O	0.650032	-0.651862	-0.000047
N58	N	0.568476	-0.639735	-0.000057
C59	C	0.524651	-0.608442	-0.000049
O60	O	0.486895	-0.629338	-0.000038
C61	C	0.526703	-0.406784	-0.000053
C62	C	0.571040	-0.387660	-0.000064
C63	C	0.659196	-0.399825	-0.000082
C64	C	0.659709	-0.349413	-0.000086
C65	C	0.615887	-0.318124	-0.000080
C66	C	0.571553	-0.337248	-0.000069
C67	C	0.482878	-0.375493	-0.000041
C68	C	0.483395	-0.325075	-0.000041
C69	C	0.527733	-0.305952	-0.000053
C70	C	0.528243	-0.255548	-0.000067
N71	N	0.572578	-0.236422	-0.000074
C72	C	0.616400	-0.267710	-0.000080
C73	C	0.523577	-0.714317	-0.000048
C74	C	0.523064	-0.764731	-0.000048
C75	C	0.611225	-0.776893	-0.000061
C76	C	0.611737	-0.726478	-0.000065
C77	C	0.567912	-0.695190	-0.000054
C78	C	0.617472	-0.161841	-0.000090
C79	C	0.617981	-0.111424	-0.000097
C80	C	0.529821	-0.099266	-0.000081
C81	C	0.529312	-0.149679	-0.000077
C82	C	0.573142	-0.180965	-0.000080
O83	O	0.491043	-0.224267	-0.000078
O84	O	0.654151	-0.246805	-0.000080
C85	C	0.614350	-0.469360	-0.000066
C86	C	0.570016	-0.488484	-0.000055
C87	C	0.526194	-0.457196	-0.000049
C88	C	0.569503	-0.538899	-0.000055
C89	C	0.613325	-0.570187	-0.000061
C90	C	0.657660	-0.551060	-0.000068
C91	C	0.658172	-0.500648	-0.000072
C92	C	0.481859	-0.476323	-0.000042
C93	C	0.481351	-0.526735	-0.000038
C94	C	0.525172	-0.558023	-0.000045
C95	C	0.658925	0.057739	-0.000087
C96	C	0.712580	0.058295	-0.000092
C97	C	0.566333	0.150326	-0.000062
C98	C	0.566886	0.203981	-0.000054
N99	N	0.570524	0.061867	-0.120836
N100	N	0.570525	0.061974	0.120686
C101	C	0.599567	0.091095	0.526659
C102	C	0.599563	0.091125	0.313001
O103	O	0.624268	0.115931	0.285387
N104	N	0.570530	0.061949	0.286270
C105	C	0.541498	0.032760	0.312957
O106	O	0.516807	0.007941	0.285319
C107	C	0.541504	0.032727	0.526615
C108	C	0.570536	0.061909	0.553343
C109	C	0.628596	0.120274	0.553387
C110	C	0.628595	0.120268	0.606799
C111	C	0.599564	0.091083	0.633482
C112	C	0.570534	0.061903	0.606754
C113	C	0.512475	0.003536	0.553301
C114	C	0.512480	0.003530	0.606719
C115	C	0.541512	0.032712	0.633447
C116	C	0.541502	0.032712	0.686849
N117	N	0.570535	0.061888	0.713580
C118	C	0.599566	0.091074	0.686896
C119	C	0.541496	0.032780	0.200784
C120	C	0.541494	0.032789	0.147370
C121	C	0.599560	0.091154	0.147417
C122	C	0.599559	0.091147	0.200832
C123	C	0.570529	0.061957	0.227515
C124	C	0.599561	0.091059	0.799064
C125	C	0.599555	0.091052	0.852481
C126	C	0.541491	0.032686	0.852429
C127	C	0.541495	0.032695	0.799017
C128	C	0.570533	0.061883	0.772336
O129	O	0.516815	0.007916	0.714496
O130	O	0.624262	0.115881	0.714544
C131	C	0.599568	0.091100	0.473248
C132	C	0.570539	0.061921	0.446520
C133	C	0.541508	0.032736	0.473204
C134	C	0.570536	0.061930	0.393106
C135	C	0.599567	0.091115	0.366422
C136	C	0.628601	0.120292	0.393153
C137	C	0.628599	0.120286	0.446564
C138	C	0.512475	0.003559	0.446473
C139	C	0.512478	0.003568	0.393061
C140	C	0.541509	0.032753	0.366378
H141	H	-0.293772	0.138311	-0.000081
C142	C	0.656954	0.148837	0.195501
C143	C	0.631475	0.123221	0.230209
H144	H	0.676661	0.168636	0.213636
H145	H	0.634524	0.168761	0.174689
H146	H	0.676962	0.126486	0.174645
H147	H	0.611464	0.145572	0.251063
H148	H	0.653907	0.103295	0.251029
H149	H	0.321293	0.144551	-0.000055
H150	H	0.446774	-0.391054	-0.000029
C151	C	0.231059	0.191034	-0.000054
C152	C	0.180201	0.199832	-0.000057
H153	H	0.244032	0.221124	-0.000044
H154	H	0.241823	0.172999	-0.029648
H155	H	0.241812	0.173019	0.029536
H156	H	0.169448	0.217844	-0.029650
H157	H	0.169432	0.217875	0.029539
H158	H	0.646906	-0.802377	-0.000067
H159	H	0.447706	-0.299603	-0.000032
C160	C	0.744858	-0.558033	-0.000083
C161	C	0.705830	-0.585459	-0.000074
H162	H	0.774594	-0.579271	-0.000087
H163	H	0.743227	-0.538098	0.029506
H164	H	0.743226	-0.538134	-0.029678
H165	H	0.707461	-0.605354	0.029524
H166	H	0.707462	-0.605402	-0.029666
C167	C	0.656952	0.148755	0.804491
C168	C	0.631477	0.123146	0.769742
H169	H	0.676651	0.168567	0.786387
H170	H	0.676962	0.126403	0.825303
H171	H	0.634516	0.168669	0.825342
H172	H	0.653912	0.103229	0.748893
H173	H	0.611464	0.145501	0.748921
C174	C	0.709374	0.138883	0.376713
C175	C	0.660514	0.152372	0.363817
H176	H	0.729076	0.158688	0.358602
H177	H	0.718659	0.105761	0.367934
H178	H	0.713526	0.143060	0.412350
H179	H	0.656362	0.148191	0.328180
H180	H	0.651226	0.185502	0.372593
H181	H	0.694884	-0.425295	-0.000085
H182	H	-0.202304	0.139243	-0.000081
C183	C	0.435975	-0.747633	-0.000031
C184	C	0.474327	-0.785748	-0.000039
H185	H	0.405886	-0.760608	-0.000020
H186	H	0.438009	-0.728242	-0.029622
H187	H	0.438017	-0.728204	0.029562
H188	H	0.472287	-0.805174	-0.029634
H189	H	0.472292	-0.805147	0.029555
C190	C	0.484096	-0.024905	0.195361
C191	C	0.509579	0.000696	0.230109
H192	H	0.464388	-0.044709	0.213464
H193	H	0.506523	-0.044822	0.174512
H194	H	0.464088	-0.002545	0.174546
H195	H	0.529589	-0.021665	0.250922
H196	H	0.487149	0.020615	0.250967
C197	C	0.698826	-0.743575	-0.000075
C198	C	0.660474	-0.705460	-0.000070
H199	H	0.728915	-0.730600	-0.000073
H200	H	0.696791	-0.762999	-0.029666
H201	H	0.696785	-0.762970	0.029518
H202	H	0.662513	-0.686067	-0.029664
H203	H	0.662509	-0.686028	0.029525
C204	C	0.668058	-0.225556	0.043528
C205	C	0.665650	-0.196226	-0.000096
H206	H	0.697802	-0.246781	0.043523
H207	H	0.641588	-0.244165	0.043532
H208	H	0.666423	-0.205612	0.073116
H209	H	0.667281	-0.216170	-0.029683
H210	H	0.692128	-0.177615	-0.000104
H211	H	0.487888	-0.688846	-0.000040
H212	H	0.117526	-0.061832	-0.000096
C213	C	0.266188	-0.063569	-0.000098
C214	C	0.217902	-0.073388	-0.000098
H215	H	0.287425	-0.093306	-0.000107
H216	H	0.271943	-0.045364	0.029496
H217	H	0.271947	-0.045385	-0.029688
H218	H	0.212142	-0.091569	0.029494
H219	H	0.212145	-0.091601	-0.029695
H220	H	-0.067950	0.184742	-0.000092
H221	H	0.493209	-0.165249	-0.000082
H222	H	0.494142	-0.073782	-0.000078
H223	H	0.694276	-0.485083	-0.000082
H224	H	0.023502	0.185672	-0.000079
C225	C	0.101825	0.237775	-0.000054
C226	C	0.074383	0.198759	-0.000064
H227	H	0.080596	0.267517	-0.000043
H228	H	0.121742	0.236126	-0.029645
H229	H	0.121741	0.236146	0.029539
H230	H	0.054470	0.200386	-0.029659
H231	H	0.054457	0.200408	0.029531
H232	H	0.654087	-0.095857	-0.000108
C233	C	0.455067	-0.054139	0.558637
C234	C	0.480568	-0.028546	0.523929
H235	H	0.435371	-0.073949	0.540503
H236	H	0.435050	-0.031778	0.579467
H237	H	0.477486	-0.074054	0.579476
H238	H	0.458148	-0.008628	0.503093
H239	H	0.500586	-0.050910	0.503091
C240	C	0.394258	-0.509636	-0.000016
C241	C	0.432610	-0.547751	-0.000024
H242	H	0.364169	-0.522611	-0.000000
H243	H	0.396289	-0.490249	-0.029610
H244	H	0.396302	-0.490205	0.029574
H245	H	0.430568	-0.567181	-0.029616
H246	H	0.430577	-0.567147	0.029573
C247	C	0.486711	-0.022369	0.311165
C248	C	0.480563	-0.028511	0.363685
H249	H	0.467008	-0.042173	0.293032
H250	H	0.519858	-0.031525	0.302421
H251	H	0.477428	0.010757	0.302424
H252	H	0.489849	-0.061636	0.372427
H253	H	0.447408	-0.019358	0.372433
H254	H	-0.271701	-0.021634	-0.000097
H255	H	0.057737	-0.062438	-0.000098
H256	H	0.446173	-0.450852	-0.000036
H257	H	0.623196	0.114818	0.874240
C258	C	0.746797	-0.366514	-0.000094
C259	C	0.708447	-0.328397	-0.000092
H260	H	0.776886	-0.353541	-0.000093
H261	H	0.744761	-0.385939	-0.029684
H262	H	0.744754	-0.385906	0.029500
H263	H	0.710487	-0.309006	-0.029688
H264	H	0.710483	-0.308963	0.029501
C265	C	0.685995	0.177951	0.601463
C266	C	0.660514	0.152339	0.636173
H267	H	0.705705	0.197748	0.619597
H268	H	0.663567	0.197876	0.580651
H269	H	0.706000	0.155597	0.580608
H270	H	0.640506	0.174694	0.657027
H271	H	0.682945	0.132413	0.656994
C272	C	0.447511	0.000813	0.666785
C273	C	0.480567	-0.028556	0.636049
H274	H	0.427811	-0.018995	0.684893
H275	H	0.427501	0.023159	0.645965
H276	H	0.464805	0.018187	0.690349
H277	H	0.463273	-0.045927	0.612483
H278	H	0.500579	-0.050910	0.656871
H279	H	0.652239	0.144040	0.531667
H280	H	0.488834	-0.020208	0.468193
H281	H	0.623196	0.114919	0.125682
H282	H	0.517848	0.009032	0.125613
H283	H	0.517849	0.008938	0.777254
H284	H	0.652240	0.144049	0.468322
C285	C	-0.198774	-0.072215	-0.000098
C286	C	-0.171332	-0.033199	-0.000098
H287	H	-0.177546	-0.101958	-0.000092
H288	H	-0.218683	-0.070596	-0.029690
H289	H	-0.218699	-0.070555	0.029494
H290	H	-0.151409	-0.034857	-0.029692
H291	H	-0.151415	-0.034819	0.029497
C292	C	-0.001046	-0.114350	-0.000116
C293	C	-0.039162	-0.075999	-0.000108
H294	H	-0.014019	-0.144439	-0.000129
H295	H	0.018356	-0.112303	0.029478
H296	H	0.018371	-0.112320	-0.029706
H297	H	-0.058577	-0.078026	0.029484
H298	H	-0.058572	-0.078047	-0.029705
H299	H	0.517854	0.008925	0.874164
H300	H	0.434821	-0.014469	-0.000063
C301	C	0.376018	-0.066388	-0.000074
C302	C	0.337904	-0.028035	-0.000072
H303	H	0.363042	-0.096476	-0.000084
H304	H	0.395419	-0.064338	0.029519
H305	H	0.395436	-0.064363	-0.029665
H306	H	0.318488	-0.030058	0.029520
H307	H	0.318494	-0.030086	-0.029669
H308	H	0.412744	0.145477	-0.000040
