data_functionalizedCrystal
_audit_creation_method	'MofGen! by Chris Wilmer'
_symmetry_space_group_name_H-M	'P1'
_symmetry_Int_Tables_number	1
_symmetry_cell_setting	triclinic
loop_
_symmetry_equiv_pos_as_xyz
  x,y,z
_cell_length_a	19.805407
_cell_length_b	29.839131
_cell_length_c	19.805407
_cell_angle_alpha	90.015304
_cell_angle_beta	90.009221
_cell_angle_gamma	90.041420
loop_
_atom_site_label
_atom_site_type_symbol
_atom_site_fract_x
_atom_site_fract_y
_atom_site_fract_z
Zn1	Zn	1.034596	-0.178927	0.382710
Zn2	Zn	1.034502	-0.254036	0.269518
Zn3	Zn	0.921431	-0.178921	0.269535
Zn4	Zn	0.921344	-0.254031	0.382665
O5	O	0.977968	-0.216479	0.326107
O6	O	1.129300	-0.188895	0.367707
O7	O	1.019499	-0.244071	0.174804
O8	O	0.936518	-0.116054	0.284574
O9	O	1.129231	-0.244077	0.284545
O10	O	1.019660	-0.116059	0.367723
O11	O	0.936427	-0.188884	0.174816
O12	O	0.826703	-0.188879	0.284530
O13	O	0.936371	-0.244069	0.477387
O14	O	0.826639	-0.244062	0.367646
O15	O	1.019576	-0.188890	0.477421
O16	O	1.019415	-0.316902	0.284501
O17	O	0.936279	-0.316899	0.367629
C18	C	0.802112	-0.216470	0.326085
C19	C	0.726880	-0.216477	0.326092
C20	C	0.691521	-0.245254	0.369300
C21	C	0.620832	-0.245255	0.369310
C22	C	0.585505	-0.216481	0.326107
C23	C	0.620869	-0.187700	0.282896
C24	C	0.691556	-0.187698	0.282891
C25	C	0.335796	-0.187710	0.282919
C26	C	0.265104	-0.187716	0.282926
C27	C	0.265072	-0.245268	0.369338
C28	C	0.335759	-0.245265	0.369332
C29	C	0.371117	-0.216483	0.326125
C30	C	0.447766	-0.216482	0.326116
C31	C	0.508857	-0.216484	0.326112
C32	C	0.977846	-0.333201	0.326073
C33	C	0.977856	-0.383136	0.326082
C34	C	1.021336	-0.692768	0.282885
C35	C	1.021419	-0.880441	0.282911
O36	O	1.058291	-0.904697	0.246158
N37	N	0.978109	-0.903921	0.326158
C38	C	0.934777	-0.880479	0.369404
O39	O	0.897945	-0.904756	0.406193
C40	C	0.934697	-0.692807	0.369381
C41	C	0.978006	-0.669330	0.326127
C42	C	1.064642	-0.669291	0.239635
C43	C	1.064618	-0.622376	0.239626
C44	C	1.021288	-0.598937	0.282868
C45	C	0.977982	-0.622414	0.326118
C46	C	0.891369	-0.669366	0.412630
C47	C	0.891355	-0.622445	0.412621
C48	C	0.934663	-0.598968	0.369367
C49	C	0.934628	-0.552060	0.369350
N50	N	0.977939	-0.528581	0.326104
C51	C	1.021269	-0.552020	0.282863
C52	C	0.934821	-0.979009	0.369412
C53	C	0.934840	-1.025927	0.369417
C54	C	1.021483	-1.025887	0.282926
C55	C	1.021460	-0.978968	0.282917
C56	C	0.978132	-0.955530	0.326166
C57	C	1.021215	-0.453494	0.282847
C58	C	1.021185	-0.406574	0.282840
C59	C	0.934545	-0.406619	0.369334
C60	C	0.934572	-0.453534	0.369339
C61	C	0.977912	-0.476971	0.326093
O62	O	0.897782	-0.527776	0.406089
O63	O	1.058106	-0.527735	0.246089
C64	C	1.021360	-0.739684	0.282894
C65	C	0.978054	-0.763161	0.326144
C66	C	0.934724	-0.739722	0.369385
C67	C	0.978073	-0.810078	0.326149
C68	C	1.021403	-0.833517	0.282908
C69	C	1.064713	-0.810038	0.239661
C70	C	1.064689	-0.763122	0.239653
C71	C	0.891413	-0.763201	0.412632
C72	C	0.891440	-0.810117	0.412636
C73	C	0.934770	-0.833555	0.369395
C74	C	1.154511	-0.216488	0.326129
C75	C	1.229743	-0.216491	0.326139
C76	C	0.977974	-0.216479	0.502650
C77	C	0.977977	-0.216480	0.577882
C78	C	0.978109	-0.099300	0.326155
C79	C	0.978169	-0.049366	0.326176
C80	C	1.021296	-0.187753	0.613244
C81	C	1.021291	-0.187752	0.683933
C82	C	0.977968	-0.216480	0.719257
C83	C	0.934644	-0.245208	0.683890
C84	C	0.934647	-0.245207	0.613202
C85	C	0.934630	-0.245213	0.968963
C86	C	0.934632	-0.245213	1.039655
C87	C	1.021274	-0.187758	1.039693
C88	C	1.021277	-0.187757	0.969006
C89	C	0.977951	-0.216483	0.933644
C90	C	0.977957	-0.216484	0.856996
C91	C	0.977965	-0.216482	0.795904
C92	C	0.977956	-0.216487	1.150251
C93	C	0.977949	-0.216484	1.075019
H94	H	0.592100	-0.164270	0.247723
H95	H	1.056557	-0.164365	0.940248
Br96	Br	1.123456	-0.701092	0.180944
H97	H	0.592046	-0.268688	0.404494
Br98	Br	0.876051	-1.057783	0.428112
Br99	Br	0.217159	-0.148663	0.224289
Br100	Br	0.383773	-0.148647	0.224284
Br101	Br	1.080285	-1.057705	0.224239
Br102	Br	1.080075	-0.148771	1.087687
H103	H	0.899536	-0.959929	0.404631
Br104	Br	1.080100	-0.148766	0.565311
H105	H	0.720345	-0.164262	0.247710
Br106	Br	0.875844	-0.284194	0.731829
Br107	Br	1.079964	-0.374715	0.224133
H108	H	0.899364	-0.268595	0.584411
Br109	Br	0.832656	-0.841972	0.471342
Br110	Br	0.832604	-0.731399	0.471324
Br111	Br	0.739458	-0.284311	0.427931
H112	H	0.899351	-0.268608	1.068414
H113	H	1.056509	-0.472570	0.247634
Br114	Br	0.383700	-0.284320	0.427962
H115	H	0.899361	-0.268611	0.940180
H116	H	0.236274	-0.268701	0.404522
Br117	Br	1.080238	-0.947111	0.224213
Br118	Br	0.832550	-0.590639	0.471322
Br119	Br	1.080116	-0.148784	0.731922
H120	H	1.099885	-0.603264	0.204407
H121	H	0.899308	-0.472650	0.404562
Br122	Br	0.875745	-0.374800	0.428019
Br123	Br	1.123515	-0.841857	0.180974
H124	H	0.856099	-0.688472	0.447849
H125	H	1.099956	-0.744011	0.204431
