data_functionalizedCrystal
_audit_creation_method	'MofGen! by Chris Wilmer'
_symmetry_space_group_name_H-M	'P1'
_symmetry_Int_Tables_number	1
_symmetry_cell_setting	triclinic
loop_
_symmetry_equiv_pos_as_xyz
  x,y,z
_cell_length_a	12.759401
_cell_length_b	12.594516
_cell_length_c	12.759393
_cell_angle_alpha	90.029472
_cell_angle_beta	89.981504
_cell_angle_gamma	89.973108
loop_
_atom_site_label
_atom_site_type_symbol
_atom_site_fract_x
_atom_site_fract_y
_atom_site_fract_z
Zn1	Zn	1.606168	0.423675	-0.593997
Zn2	Zn	1.606025	0.601694	-0.418323
Zn3	Zn	1.430470	0.423731	-0.418336
Zn4	Zn	1.430421	0.601612	-0.593965
O5	O	1.518271	0.512678	-0.506155
O6	O	1.753170	0.447300	-0.570701
O7	O	1.582698	0.578145	-0.271304
O8	O	1.453856	0.274777	-0.441657
O9	O	1.753065	0.578090	-0.441635
O10	O	1.582941	0.274736	-0.570714
O11	O	1.453718	0.447395	-0.271313
O12	O	1.283442	0.447316	-0.441626
O13	O	1.453774	0.577951	-0.740990
O14	O	1.283407	0.578005	-0.570659
O15	O	1.582894	0.447221	-0.741013
O16	O	1.582651	0.750629	-0.441604
O17	O	1.453636	0.750569	-0.570647
C18	C	1.245303	0.512658	-0.506141
C19	C	1.128527	0.512676	-0.506160
C20	C	1.073674	0.580834	-0.573236
C21	C	0.963950	0.580848	-0.573248
C22	C	0.963941	0.444541	-0.439097
C23	C	1.073663	0.444523	-0.439091
C24	C	1.073678	0.659533	-0.650684
C25	C	0.963954	0.659547	-0.650696
C26	C	1.518151	0.789219	-0.506143
C27	C	1.518196	0.907524	-0.506173
C28	C	1.448005	0.976783	-0.576310
C29	C	1.422393	1.047654	-0.480443
C30	C	1.543865	1.047453	-0.602055
C31	C	1.492533	0.976837	-0.410255
C32	C	1.614051	0.976629	-0.531932
C33	C	1.588475	1.047468	-0.435999
C34	C	1.792304	0.512698	-0.506170
C35	C	1.909081	0.512707	-0.506176
C36	C	1.518344	0.512571	-0.780189
C37	C	1.518376	0.512525	-0.896965
C38	C	1.518373	1.235057	-0.506189
C39	C	1.518299	1.116752	-0.506199
C40	C	1.585618	0.444447	-0.951841
C41	C	1.585643	0.444409	-1.061565
C42	C	1.451181	0.580535	-1.061528
C43	C	1.451151	0.580567	-0.951806
C44	C	1.663252	0.365859	-0.951864
C45	C	1.663277	0.365821	-1.061588
C46	C	1.518258	0.512708	-0.233188
C47	C	1.518430	0.512454	-0.116412
H48	H	0.929962	0.630122	-0.728046
Cl49	Cl	1.119715	0.625594	-0.776365
H50	H	1.341380	1.078874	-0.458677
H51	H	1.647877	1.078309	-0.376630
Cl52	Cl	0.894963	0.358867	-0.354788
Cl53	Cl	1.126177	0.780401	-0.605577
Cl54	Cl	1.458933	0.929150	-0.285044
Cl55	Cl	0.917917	0.786773	-0.616804
H56	H	1.388557	0.945746	-0.635536
H57	H	1.740517	0.395410	-0.917829
H58	H	1.695045	0.945412	-0.553744
Cl59	Cl	1.618203	0.244962	-1.114160
Cl60	Cl	1.577322	1.095350	-0.727228
Cl61	Cl	1.366598	0.666136	-0.882822
H62	H	1.396447	0.635930	-1.106192
H63	H	1.641500	0.283430	-0.922105
H64	H	1.744643	0.387898	-1.091367
H65	H	1.118321	0.389015	-0.384478
