data_functionalizedCrystal
_audit_creation_method	'MofGen! by Chris Wilmer'
_symmetry_space_group_name_H-M	'P1'
_symmetry_Int_Tables_number	1
_symmetry_cell_setting	triclinic
loop_
_symmetry_equiv_pos_as_xyz
  x,y,z
_cell_length_a	16.120484
_cell_length_b	10.686154
_cell_length_c	10.686551
_cell_angle_alpha	90.304699
_cell_angle_beta	91.292191
_cell_angle_gamma	82.930173
loop_
_atom_site_label
_atom_site_type_symbol
_atom_site_fract_x
_atom_site_fract_y
_atom_site_fract_z
Zn1	Zn	-0.203161	-1.957928	0.579160
Zn2	Zn	0.296839	-1.457928	1.079160
Zn3	Zn	-0.353972	-1.931032	0.381768
Zn4	Zn	0.146028	-1.431032	0.881768
Zn5	Zn	-0.224473	-1.730538	0.387213
Zn6	Zn	0.275527	-1.230538	0.887213
Zn7	Zn	-0.352281	-1.737581	0.607396
Zn8	Zn	0.147719	-1.237581	1.107396
O9	O	-0.283472	-1.839270	0.488884
O10	O	0.216528	-1.339270	0.988884
O11	O	-0.214955	-2.130483	0.538881
O12	O	0.285045	-1.630483	1.038881
O13	O	-0.346421	-1.890233	0.207734
O14	O	0.153579	-1.390233	0.707734
O15	O	-0.105043	-1.769010	0.403136
O16	O	0.394957	-1.269010	0.903136
O17	O	-0.325755	-2.110723	0.393858
O18	O	0.174245	-1.610723	0.893858
O19	O	-0.089385	-1.936072	0.544160
O20	O	0.410615	-1.436072	1.044160
O21	O	-0.251278	-1.742930	0.211733
O22	O	0.248722	-1.242930	0.711733
O23	O	-0.249639	-1.555349	0.430516
O24	O	0.250361	-1.055349	0.930516
O25	O	-0.322873	-1.781014	0.778407
O26	O	0.177127	-1.281014	1.278407
O27	O	-0.343539	-1.560523	0.592283
O28	O	0.156461	-1.060523	1.092283
O29	O	-0.213316	-1.942902	0.757663
O30	O	0.286684	-1.442902	1.257663
O31	O	-0.470351	-1.897062	0.421237
O32	O	0.029649	-1.397062	0.921237
O33	O	-0.469109	-1.754935	0.587004
O34	O	0.030891	-1.254935	1.087004
C35	C	-0.298718	-1.512269	0.515055
C36	C	0.201282	-1.012269	1.015055
C37	C	-0.305259	-1.372378	0.526282
C38	C	0.194741	-0.872378	1.026282
C39	C	-0.499961	-1.823881	0.506618
C40	C	0.000039	-1.323881	1.006618
C41	C	-0.592568	-1.817416	0.514237
C42	C	-0.092568	-1.317416	1.014237
C43	C	-0.762120	-1.805622	0.528173
C44	C	-0.262120	-1.305622	1.028173
C45	C	-0.803972	-1.873145	0.449598
C46	C	-0.303972	-1.373145	0.949598
C47	C	-0.898317	-1.866583	0.457352
C48	C	-0.398317	-1.366583	0.957352
C49	C	-0.667767	-1.812182	0.520421
C50	C	-0.167767	-1.312182	1.020421
C51	C	-0.066135	-1.854756	0.471106
C52	C	0.433865	-1.354756	0.971106
C53	C	0.026481	-1.861355	0.463529
C54	C	0.526481	-1.361355	0.963529
C55	C	-0.265529	-1.865744	0.814615
C56	C	0.234471	-1.365744	1.314615
C57	C	-0.257882	-1.877025	0.953421
C58	C	0.242118	-1.377025	1.453421
C59	C	-0.268163	-1.167546	0.462598
C60	C	0.231837	-0.667546	0.962598
C61	C	-0.261630	-1.307436	0.451361
C62	C	0.238370	-0.807436	0.951361
C63	C	-0.301282	-1.812975	0.164411
C64	C	0.198718	-1.312975	0.664411
C65	C	-0.308682	-1.801954	0.025566
C66	C	0.191318	-1.301954	0.525566
H67	H	-0.347617	-1.320956	0.599013
H68	H	0.152383	-0.820956	1.099013
H69	H	-0.219275	-1.358863	0.378617
H70	H	0.280725	-0.858863	0.878617
O71	O	-0.192503	-1.973584	1.012258
O72	O	0.307497	-1.473584	1.512258
H73	H	-0.196542	-1.967580	1.115706
H74	H	0.303458	-1.467580	1.615706
O75	O	-0.374029	-1.705368	0.966714
O76	O	0.125971	-1.205368	1.466714
H77	H	-0.362972	-1.609622	0.998428
H78	H	0.137028	-1.109622	1.498428
O79	O	-0.757588	-1.956247	0.352767
O80	O	-0.257588	-1.456247	0.852767
H81	H	-0.689692	-1.948418	0.361786
H82	H	-0.189692	-1.448418	0.861786
H83	H	-0.797143	-1.742888	0.601260
H84	H	-0.297143	-1.242888	1.101260
