data_functionalizedCrystal
_audit_creation_method	'MofGen! by Chris Wilmer'
_symmetry_space_group_name_H-M	'P1'
_symmetry_Int_Tables_number	1
_symmetry_cell_setting	triclinic
loop_
_symmetry_equiv_pos_as_xyz
  x,y,z
_cell_length_a	15.297327
_cell_length_b	12.759401
_cell_length_c	12.759401
_cell_angle_alpha	89.996251
_cell_angle_beta	80.337395
_cell_angle_gamma	80.293454
loop_
_atom_site_label
_atom_site_type_symbol
_atom_site_fract_x
_atom_site_fract_y
_atom_site_fract_z
Zn1	Zn	-0.359340	-1.533580	0.666344
Zn2	Zn	0.140660	-1.033580	1.166344
Zn3	Zn	-0.510175	-1.503077	0.521039
Zn4	Zn	-0.010175	-1.003077	1.021039
Zn5	Zn	-0.359324	-1.357930	0.490680
Zn6	Zn	0.140676	-0.857930	0.990680
Zn7	Zn	-0.510168	-1.327429	0.696679
Zn8	Zn	-0.010168	-0.827429	1.196679
O9	O	-0.434752	-1.430504	0.593685
O10	O	0.065248	-0.930504	1.093685
O11	O	-0.379358	-1.676552	0.647079
O12	O	0.120642	-1.176552	1.147079
O13	O	-0.490161	-1.483822	0.369990
O14	O	0.009839	-0.983822	0.869990
O15	O	-0.233072	-1.406760	0.488582
O16	O	0.266928	-0.906760	0.988582
O17	O	-0.490176	-1.654142	0.540324
O18	O	0.009824	-1.154142	1.040324
O19	O	-0.233084	-1.535809	0.617641
O20	O	0.266916	-1.035809	1.117641
O21	O	-0.379331	-1.377183	0.347686
O22	O	0.120669	-0.877183	0.847686
O23	O	-0.379325	-1.206865	0.517997
O24	O	0.120675	-0.706865	1.017997
O25	O	-0.490164	-1.354777	0.839677
O26	O	0.009836	-0.854777	1.339677
O27	O	-0.490149	-1.184456	0.669343
O28	O	0.009851	-0.684456	1.169343
O29	O	-0.379351	-1.506234	0.817389
O30	O	0.120649	-1.006234	1.317389
O31	O	-0.636428	-1.454247	0.569739
O32	O	-0.136428	-0.954247	1.069739
O33	O	-0.636423	-1.325200	0.698780
O34	O	-0.136423	-0.825200	1.198780
C35	C	-0.669162	-1.383132	0.640868
C36	C	-0.169162	-0.883132	1.140868
C37	C	-0.769444	-1.362963	0.661089
C38	C	-0.269444	-0.862963	1.161089
C39	C	-0.434735	-1.157540	0.593668
C40	C	0.065265	-0.657540	1.093668
C41	C	-0.434750	-1.040760	0.593690
C42	C	0.065250	-0.540760	1.093690
C43	C	-0.434758	-1.430506	0.867720
C44	C	0.065242	-0.930506	1.367720
C45	C	-0.434761	-1.430506	0.984497
C46	C	0.065239	-0.930506	1.484497
C47	C	-1.052006	-1.575093	0.449527
C48	C	-0.552006	-1.075093	0.949527
C49	C	-0.957787	-1.594043	0.430524
C50	C	-0.457787	-1.094043	0.930524
C51	C	-0.910696	-1.536275	0.488163
C52	C	-0.410696	-1.036275	0.988163
C53	C	-0.957835	-1.459553	0.564809
C54	C	-0.457835	-0.959553	1.064809
C55	C	-1.052064	-1.440595	0.583809
C56	C	-0.552064	-0.940595	1.083809
C57	C	-0.910754	-1.401777	0.622445
C58	C	-0.410754	-0.901777	1.122445
C59	C	-0.957892	-1.325055	0.699091
C60	C	-0.457892	-0.825055	1.199091
C61	C	-1.052112	-1.306101	0.718088
C62	C	-0.552112	-0.806101	1.218088
C63	C	-1.099202	-1.363869	0.660448
C64	C	-0.599202	-0.863869	1.160448
C65	C	-0.816525	-1.420735	0.603446
C66	C	-0.316525	-0.920735	1.103446
C67	C	-0.816582	-1.286237	0.737728
C68	C	-0.316582	-0.786237	1.237728
C69	C	-0.910802	-1.267287	0.756731
C70	C	-0.410802	-0.767287	1.256731
C71	C	-0.199426	-1.478089	0.546341
C72	C	0.300574	-0.978089	1.046341
C73	C	-0.099145	-1.498367	0.526166
C74	C	0.400855	-0.998367	1.026166
C75	C	-0.434769	-1.704534	0.593704
C76	C	0.065231	-1.204534	1.093704
C77	C	-0.434777	-1.821309	0.593712
C78	C	0.065223	-1.321309	1.093712
C79	C	-0.492548	-0.974239	0.672403
C80	C	0.007452	-0.474239	1.172403
C81	C	-0.492560	-0.864513	0.672417
C82	C	0.007440	-0.364513	1.172417
C83	C	-0.376972	-0.887839	0.514994
C84	C	0.123028	-0.387839	1.014994
C85	C	-0.376956	-0.997564	0.514986
C86	C	0.123044	-0.497564	1.014986
C87	C	-0.559285	-0.960770	0.763287
C88	C	-0.059285	-0.460770	1.263287
C89	C	-0.559297	-0.851044	0.763301
C90	C	-0.059297	-0.351044	1.263301
C91	C	-0.377068	-1.509359	1.137482
C92	C	0.122932	-1.009359	1.637482
C93	C	-0.377068	-1.509362	1.027758
C94	C	0.122932	-1.009362	1.527758
C95	C	-0.492464	-1.351649	1.050968
C96	C	0.007536	-0.851649	1.550968
C97	C	-0.492468	-1.351651	1.160691
C98	C	0.007532	-0.851651	1.660691
C99	C	-0.310442	-1.600411	1.124081
C100	C	0.189558	-1.100411	1.624081
C101	C	-0.310442	-1.600414	1.014357
C102	C	0.189558	-1.100414	1.514357
C103	C	-0.434766	-1.430494	1.320721
C104	C	0.065234	-0.930494	1.820721
C105	C	-0.434765	-1.430506	1.203944
C106	C	0.065235	-0.930506	1.703944
H107	H	-0.778153	-1.483202	0.541040
H108	H	-0.278153	-0.983202	1.041040
F109	F	-1.102277	-1.224442	0.799657
F110	F	-0.602277	-0.724442	1.299657
F111	F	-0.315466	-0.841857	0.431237
F112	F	0.184534	-0.341857	0.931237
F113	F	-0.526733	-0.813147	0.857845
F114	F	-0.026733	-0.313147	1.357845
F115	F	-0.553872	-1.267731	1.004925
F116	F	-0.053872	-0.767731	1.504925
F117	F	-0.343158	-1.694830	0.976458
F118	F	0.156842	-1.194830	1.476458
H119	H	-1.090356	-1.622113	0.402598
H120	H	-0.590356	-1.122113	0.902598
F121	F	-0.223716	-1.579760	1.151121
F122	F	0.276284	-1.079760	1.651121
H123	H	-0.833978	-1.551707	0.472685
H124	H	-0.333978	-1.051707	0.972685
F125	F	-1.199482	-1.343371	0.680334
F126	F	-0.699482	-0.843371	1.180334
H127	H	-0.949195	-1.204819	0.819137
H128	H	-0.449195	-0.704819	1.319137
H129	H	-0.240564	-1.592749	0.970519
H130	H	0.259436	-1.092749	1.470519
H131	H	-0.540680	-0.994313	0.840947
H132	H	-0.040680	-0.494313	1.340947
H133	H	-0.778242	-1.239195	0.784661
H134	H	-0.278242	-0.739195	1.284661
H135	H	-0.919410	-1.656508	0.368118
H136	H	-0.419410	-1.156508	0.868118
H137	H	-0.329885	-1.051724	0.450895
H138	H	0.170115	-0.551724	0.950895
H139	H	-0.625615	-0.981405	0.747360
H140	H	-0.125615	-0.481405	1.247360
H141	H	-0.629148	-0.807157	0.755435
H142	H	-0.129148	-0.307157	1.255435
H143	H	-0.539459	-1.287450	1.214802
H144	H	-0.039459	-0.787450	1.714802
F145	F	-0.334909	-1.701819	1.167932
F146	F	0.165091	-1.201819	1.667932
