data_functionalizedCrystal
_audit_creation_method	'MofGen! by Chris Wilmer'
_symmetry_space_group_name_H-M	'P1'
_symmetry_Int_Tables_number	1
_symmetry_cell_setting	triclinic
loop_
_symmetry_equiv_pos_as_xyz
  x,y,z
_cell_length_a	26.210047
_cell_length_b	17.038272
_cell_length_c	17.038272
_cell_angle_alpha	91.111556
_cell_angle_beta	89.995980
_cell_angle_gamma	89.989185
loop_
_atom_site_label
_atom_site_type_symbol
_atom_site_fract_x
_atom_site_fract_y
_atom_site_fract_z
O1	O	0.042366	-1.048768	-0.170536
O2	O	0.042381	-0.820957	-0.167828
O3	O	0.042369	-0.933508	-0.055276
O4	O	0.042377	-0.936216	-0.283088
O5	O	-0.042489	-0.933470	-0.055273
O6	O	-0.042477	-0.820919	-0.167825
O7	O	-0.042492	-1.048730	-0.170533
Cu8	Cu	-0.050233	-0.934821	-0.169179
Cu9	Cu	0.050121	-0.934866	-0.169182
O10	O	-0.042481	-0.936178	-0.283085
C11	C	-0.000047	-0.791645	-0.165364
C12	C	-0.000041	-0.704361	-0.158016
C13	C	-0.000060	-0.931027	-0.025982
C14	C	-0.000059	-0.923679	0.061301
N15	N	-0.120817	-0.934795	-0.169177
C16	C	-0.473333	-0.985655	-0.219999
C17	C	-0.686991	-0.985678	-0.220000
O18	O	-0.714615	-1.028902	-0.263202
N19	N	-0.713711	-0.934884	-0.169176
C20	C	-0.687013	-0.884084	-0.118343
O21	O	-0.714642	-0.840887	-0.075108
C22	C	-0.473355	-0.884066	-0.118339
C23	C	-0.446638	-0.934857	-0.169173
C24	C	-0.446616	-1.036443	-0.270828
C25	C	-0.393204	-1.036434	-0.270831
C26	C	-0.366510	-0.985636	-0.220004
C27	C	-0.393227	-0.934848	-0.169175
C28	C	-0.446658	-0.833270	-0.067503
C29	C	-0.393240	-0.833272	-0.067505
C30	C	-0.366523	-0.884063	-0.118339
C31	C	-0.313121	-0.884041	-0.118350
N32	N	-0.286401	-0.934835	-0.169175
C33	C	-0.313096	-0.985633	-0.220002
C34	C	-0.799186	-0.884097	-0.118350
C35	C	-0.852600	-0.884100	-0.118352
C36	C	-0.852575	-0.985695	-0.220008
C37	C	-0.799160	-0.985687	-0.220010
C38	C	-0.772466	-0.934891	-0.169175
C39	C	-0.200928	-0.985609	-0.220003
C40	C	-0.147512	-0.985593	-0.220003
C41	C	-0.147541	-0.884001	-0.118344
C42	C	-0.200953	-0.884014	-0.118347
C43	C	-0.227645	-0.934824	-0.169179
O44	O	-0.285465	-0.840846	-0.075165
O45	O	-0.285457	-1.028835	-0.263219
C46	C	-0.526744	-0.985664	-0.219997
C47	C	-0.553461	-0.934876	-0.169168
C48	C	-0.526767	-0.884078	-0.118341
C49	C	-0.606875	-0.934879	-0.169170
C50	C	-0.633570	-0.985677	-0.219997
C51	C	-0.606850	-1.036471	-0.270822
C52	C	-0.553439	-1.036462	-0.270824
C53	C	-0.553486	-0.833285	-0.067517
C54	C	-0.606898	-0.833297	-0.067519
C55	C	-0.633592	-0.884095	-0.118346
N56	N	0.120705	-0.934898	-0.169179
C57	C	-0.000064	-1.078042	-0.172997
C58	C	-0.000066	-1.165326	-0.180346
C59	C	-0.000039	-0.658752	-0.225479
C60	C	-0.000046	-0.576740	-0.218570
C61	C	-0.000052	-0.540339	-0.144197
C62	C	-0.000055	-0.585954	-0.076728
C63	C	-0.000052	-0.667965	-0.083638
C64	C	-0.000066	-0.292951	-0.119787
C65	C	-0.000068	-0.210935	-0.112882
C66	C	-0.000060	-0.201726	-0.254725
C67	C	-0.000054	-0.283739	-0.261628
C68	C	-0.000060	-0.329347	-0.194159
C69	C	-0.000058	-0.456510	-0.137133
C70	C	-0.000058	-0.413174	-0.201224
C71	C	-0.000051	-0.938660	-0.312379
C72	C	-0.000048	-0.946008	-0.399663
C73	C	-0.000064	-0.991142	0.106911
C74	C	-0.000059	-0.984233	0.188923
C75	C	-0.000052	-0.909860	0.225324
C76	C	-0.000046	-0.842391	0.179708
C77	C	-0.000047	-0.849301	0.097698
C78	C	-0.000043	-0.885449	0.472712
C79	C	-0.000043	-0.878545	0.554728
C80	C	-0.000056	-1.020387	0.563937
C81	C	-0.000060	-1.027291	0.481924
C82	C	-0.000051	-0.959822	0.436316
C83	C	-0.000048	-0.902796	0.309153
C84	C	-0.000051	-0.966886	0.352488
H85	H	-0.125761	-1.026953	-0.261402
H86	H	-0.000073	-1.051705	0.077279
H87	H	-0.000043	-0.313370	-0.322190
H88	H	-0.000044	-0.539608	-0.273507
H89	H	-0.222654	-1.026984	-0.261395
H90	H	-0.000056	-0.164583	-0.309653
F91	F	-0.635270	-1.090530	-0.324918
F92	F	-0.000065	-0.547212	0.002426
F93	F	-0.000039	-0.799383	0.593467
H94	H	-0.468345	-1.077812	-0.312218
H95	H	-0.000072	-0.181300	-0.052315
H96	H	-0.000064	-1.039170	0.226054
H97	H	-0.000066	-1.087853	0.452293
F98	F	-0.229388	-0.829949	-0.064252
F99	F	-0.000032	-0.813642	0.424182
F100	F	-0.770783	-0.830017	-0.064252
H101	H	-0.000062	-1.075316	0.601079
F102	F	-0.000073	-0.341480	-0.047979
H103	H	-0.371509	-0.791907	-0.026108
F104	F	-0.770731	-1.039748	-0.274111
H105	H	-0.000037	-0.781835	0.209353
H106	H	-0.000043	-0.794365	0.060564
H107	H	-0.531757	-0.791919	-0.026125
H108	H	-0.000034	-0.688384	-0.286042
H109	H	-0.628646	-0.791929	-0.026126
F110	F	-0.000055	-1.046037	0.313746
F111	F	-0.364777	-1.090484	-0.324945
F112	F	-0.000056	-0.716505	-0.011834
F113	F	-0.000039	-0.823644	0.347901
F114	F	-0.525011	-1.090518	-0.324933
F115	F	-0.880994	-1.039759	-0.274101
F116	F	-0.000054	-0.451917	-0.280375
H117	H	-0.874349	-0.842732	-0.076967
H118	H	-0.468402	-0.791911	-0.026108
H119	H	-0.125797	-0.842641	-0.076965
H120	H	-0.000077	-0.426863	-0.076578
