data_functionalizedCrystal
_audit_creation_method	'MofGen! by Chris Wilmer'
_symmetry_space_group_name_H-M	'P1'
_symmetry_Int_Tables_number	1
_symmetry_cell_setting	triclinic
loop_
_symmetry_equiv_pos_as_xyz
  x,y,z
_cell_length_a	21.295417
_cell_length_b	21.295420
_cell_length_c	13.032268
_cell_angle_alpha	97.161849
_cell_angle_beta	82.859352
_cell_angle_gamma	89.975452
loop_
_atom_site_label
_atom_site_type_symbol
_atom_site_fract_x
_atom_site_fract_y
_atom_site_fract_z
Zn1	Zn	-0.295881	-0.917097	0.590843
Zn2	Zn	-0.387794	-0.930385	0.416088
Zn3	Zn	-0.282534	-0.825204	0.416117
Zn4	Zn	-0.401100	-0.811795	0.590769
O5	O	-0.341827	-0.871120	0.503454
O6	O	-0.308091	-1.006947	0.567681
O7	O	-0.362676	-0.927606	0.269865
O8	O	-0.196218	-0.837444	0.439339
O9	O	-0.375619	-1.016710	0.439289
O10	O	-0.206025	-0.904957	0.567709
O11	O	-0.285342	-0.850329	0.269886
O12	O	-0.298244	-0.735337	0.439266
O13	O	-0.398297	-0.814590	0.737006
O14	O	-0.385355	-0.725486	0.567581
O15	O	-0.320994	-0.891955	0.737061
O16	O	-0.477645	-0.914604	0.439217
O17	O	-0.487421	-0.827476	0.567553
C18	C	-0.341795	-0.707571	0.503419
C19	C	-0.341799	-0.637602	0.503429
C20	C	-0.505374	-0.871042	0.503397
C21	C	-0.575343	-0.871064	0.503407
C22	C	-0.306746	-0.133051	0.570408
C23	C	-0.306743	-0.198793	0.570410
C24	C	-0.341827	-0.236761	0.503457
C25	C	-0.376929	-0.208980	0.436517
C26	C	-0.376936	-0.143238	0.436524
N27	N	-0.339582	-0.346959	0.411963
N28	N	-0.339572	-0.409411	0.411959
C29	C	-0.341811	-0.434837	0.503433
N30	N	-0.344047	-0.395453	0.594914
N31	N	-0.344053	-0.332995	0.594916
C32	C	-0.341824	-0.308047	0.503443
C33	C	-0.306712	-0.533896	0.570377
C34	C	-0.306714	-0.599639	0.570381
C35	C	-0.376896	-0.609826	0.436479
C36	C	-0.376898	-0.544083	0.436484
C37	C	-0.341802	-0.506122	0.503432
C38	C	-0.603104	-0.916462	0.436650
C39	C	-0.668848	-0.916489	0.436674
C40	C	-0.706829	-0.871109	0.503443
C41	C	-0.679061	-0.825707	0.570212
C42	C	-0.613318	-0.825684	0.570194
N43	N	-0.810697	-0.815432	0.511397
N44	N	-0.873149	-0.815456	0.511408
C45	C	-0.904908	-0.871175	0.503503
N46	N	-0.871854	-0.926871	0.495565
N47	N	-0.809395	-0.926847	0.495549
C48	C	-0.778116	-0.871128	0.503470
C49	C	-1.003956	-0.916606	0.436768
C50	C	-1.069702	-0.916634	0.436799
C51	C	-1.079913	-0.825847	0.570332
C52	C	-1.014168	-0.825824	0.570307
C53	C	-0.976193	-0.871203	0.503519
C54	C	-0.177643	-0.871214	0.503535
C55	C	-0.107678	-0.871254	0.503570
C56	C	-0.362619	-0.850295	0.776009
C57	C	-0.371479	-0.841420	0.892156
C58	C	-0.341851	-0.035308	0.503482
C59	C	-0.341840	-0.105277	0.503472
C60	C	-0.321071	-0.891901	0.231960
C61	C	-0.312034	-0.900897	0.115814
C62	C	-0.337180	-0.875742	0.943965
C63	C	-0.346337	-0.866571	1.064008
H64	H	-0.278171	-0.102146	0.624926
O65	O	-0.414781	-0.113281	0.364311
H66	H	-0.465558	-0.124526	0.382073
H67	H	-0.382478	-0.830390	1.108520
O68	O	-0.963001	-0.965565	0.364757
H69	H	-0.936584	-0.993974	0.411584
O70	O	-0.268870	-0.492944	0.642592
H71	H	-0.244474	-0.523303	0.689152
O72	O	-0.289307	-0.923662	0.885002
H73	H	-0.241481	-0.911309	0.905902
H74	H	-0.278162	-0.221411	0.624916
H75	H	-0.275885	-0.937071	1.071304
H76	H	-0.405473	-0.521470	0.381973
O77	O	-0.419351	-0.793497	0.951112
H78	H	-0.467176	-0.805843	0.930201
O79	O	-0.984218	-0.776845	0.642281
H80	H	-1.021670	-0.745286	0.688704
H81	H	-0.405497	-0.239897	0.382006
O82	O	-0.268855	-0.629600	0.642571
H83	H	-0.244447	-0.592157	0.689112
H84	H	-0.709989	-0.788759	0.624578
O85	O	-1.099641	-0.965607	0.364793
H86	H	-1.133118	-0.994052	0.411621
H87	H	-0.572186	-0.953413	0.382271
O88	O	-0.414734	-0.650767	0.364256
H89	H	-0.450359	-0.677152	0.410921
O90	O	-0.698802	-0.965451	0.364661
H91	H	-0.661350	-0.996998	0.318212
O92	O	-0.583369	-0.776708	0.642179
H93	H	-0.620821	-0.745150	0.688606
H94	H	-1.110836	-0.788899	0.624701
