data_functionalizedCrystal
_audit_creation_method	'MofGen! by Chris Wilmer'
_symmetry_space_group_name_H-M	'P1'
_symmetry_Int_Tables_number	1
_symmetry_cell_setting	triclinic
loop_
_symmetry_equiv_pos_as_xyz
  x,y,z
_cell_length_a	19.288864
_cell_length_b	19.288865
_cell_length_c	9.130313
_cell_angle_alpha	89.990258
_cell_angle_beta	89.982632
_cell_angle_gamma	83.136245
loop_
_atom_site_label
_atom_site_type_symbol
_atom_site_fract_x
_atom_site_fract_y
_atom_site_fract_z
O1	O	0.921347	0.086648	-0.122286
O2	O	0.719087	0.098336	-0.122188
O3	O	0.826061	-0.008638	-0.122211
O4	O	0.814373	0.193622	-0.122263
O5	O	0.826054	-0.008641	0.121388
O6	O	0.719079	0.098333	0.121411
O7	O	0.921340	0.086645	0.121313
Cu8	Cu	0.820209	0.092489	0.143605
Cu9	Cu	0.820218	0.092492	-0.144479
O10	O	0.814365	0.193619	0.121336
C11	C	0.693207	0.097959	-0.000375
C12	C	0.616103	0.096830	-0.000337
C13	C	0.571407	0.159598	-0.000376
C14	C	0.498960	0.158537	-0.000392
C15	C	0.471212	0.094705	-0.000398
C16	C	0.515918	0.031929	-0.000350
C17	C	0.588364	0.032991	-0.000320
C18	C	0.362953	0.044527	-0.085778
C19	C	0.290508	0.043467	-0.085817
C20	C	0.247767	0.091425	-0.000486
C21	C	0.277477	0.140455	0.084866
C22	C	0.349922	0.141518	0.084897
C23	C	0.392658	0.093546	-0.000430
C24	C	0.124514	0.153047	-0.000540
C25	C	0.052066	0.151984	-0.000547
C26	C	0.069026	0.025374	-0.000520
C27	C	0.141473	0.026439	-0.000499
C28	C	0.169212	0.090278	-0.000516
C29	C	0.825682	-0.034516	-0.000407
C30	C	0.824553	-0.111620	-0.000393
C31	C	0.887321	-0.156316	-0.000416
C32	C	0.886260	-0.228763	-0.000439
C33	C	0.822428	-0.256511	-0.000409
C34	C	0.759652	-0.211805	-0.000394
C35	C	0.760714	-0.139359	-0.000386
C36	C	0.772246	-0.364799	0.084943
C37	C	0.771186	-0.437244	0.084944
C38	C	0.819148	-0.479956	-0.000440
C39	C	0.868182	-0.450217	-0.085806
C40	C	0.869244	-0.377772	-0.085798
C41	C	0.821269	-0.335065	-0.000419
C42	C	0.880770	-0.603209	-0.000490
C43	C	0.879707	-0.675657	-0.000522
C44	C	0.753097	-0.658697	-0.000462
C45	C	0.754162	-0.586250	-0.000445
C46	C	0.818000	-0.558511	-0.000452
C47	C	0.947220	0.087022	-0.000502
C48	C	1.024324	0.088151	-0.000551
C49	C	0.814745	0.219497	-0.000471
C50	C	0.815874	0.296601	-0.000494
N51	N	0.820208	0.092486	0.346227
N52	N	0.820224	0.092490	-0.347102
C53	C	0.867592	0.045137	0.422869
C54	C	0.867599	0.045137	0.576206
C55	C	0.772835	0.139841	0.576246
C56	C	0.772826	0.139837	0.422912
H57	H	0.242678	0.179507	0.154353
C58	C	-0.002567	-0.049271	-0.125775
C59	C	0.038538	-0.044795	-0.000532
H60	H	-0.021387	-0.092594	-0.125780
H61	H	-0.039556	-0.012046	-0.125782
H62	H	0.025369	-0.046220	-0.210702
H63	H	0.010601	-0.047840	0.084396
H64	H	0.075532	-0.082030	-0.000511
H65	H	0.906182	0.006581	0.638603
H66	H	0.734236	0.178394	0.360506
H67	H	0.703049	-0.549857	-0.000418
H68	H	0.266324	0.003546	-0.155322
H69	H	0.909168	-0.353561	-0.155309
H70	H	0.177866	-0.024674	-0.000475
C71	C	0.731656	0.260191	0.623418
C72	C	0.720754	0.191891	0.660534
H73	H	0.699500	0.292324	0.675445
H74	H	0.777981	0.267616	0.648513
H75	H	0.724870	0.266953	0.521125
H76	H	0.727545	0.185127	0.762826
H77	H	0.674419	0.184463	0.635449
C78	C	0.368555	-0.051436	-0.254541
C79	C	0.409930	-0.008188	-0.179600
H80	H	0.397557	-0.083974	-0.312468
H81	H	0.343505	-0.075870	-0.185931
H82	H	0.336550	-0.023793	-0.316067
H83	H	0.441931	-0.035830	-0.118065
H84	H	0.434992	0.016248	-0.248218
H85	H	0.701123	-0.681288	-0.000445
H86	H	0.939303	-0.133736	-0.000427
H87	H	0.733187	-0.330028	0.154480
H88	H	0.593987	0.211580	-0.000393
H89	H	0.906173	0.006580	0.360436
C90	C	0.508030	-0.076311	0.124885
C91	C	0.485421	-0.038237	-0.000360
H92	H	0.489199	-0.119628	0.124885
H93	H	0.557567	-0.084661	0.124902
H94	H	0.492647	-0.050469	0.209811
H95	H	0.500808	-0.064077	-0.085286
H96	H	0.435873	-0.029889	-0.000389
C97	C	0.462221	0.266113	-0.125693
C98	C	0.449815	0.227534	-0.000453
H99	H	0.431878	0.308706	-0.125735
H100	H	0.509329	0.275885	-0.125659
H101	H	0.453856	0.239914	-0.210622
H102	H	0.458185	0.253731	0.084477
H103	H	0.402695	0.217764	-0.000473
C104	C	0.329774	0.237273	0.253628
C105	C	0.382581	0.195401	0.178728
H106	H	0.349939	0.270534	0.311565
H107	H	0.298321	0.260876	0.184995
H108	H	0.305257	0.208806	0.315141
H109	H	0.407096	0.223868	0.117206
H110	H	0.414047	0.171796	0.247369
H111	H	0.147101	0.205028	-0.000533
H112	H	0.907237	-0.484993	-0.155335
C113	C	0.679700	-0.039257	-0.125500
C114	C	0.637501	-0.036007	-0.000290
H115	H	0.710038	-0.081853	-0.125476
H116	H	0.651103	-0.037043	-0.210440
H117	H	0.706587	-0.001084	-0.125482
H118	H	0.610610	-0.074178	-0.000312
H119	H	0.666101	-0.038228	0.084672
C120	C	0.042583	0.277237	-0.000607
C121	C	0.002932	0.220984	-0.000591
H122	H	0.012248	0.319835	-0.000644
H123	H	0.071172	0.275022	0.084346
H124	H	0.071213	0.275010	-0.085551
H125	H	-0.025694	0.223209	0.084359
H126	H	-0.025668	0.223201	-0.085553
H127	H	0.932751	-0.580622	-0.000503
C128	C	1.011515	-0.238258	-0.000459
C129	C	0.955259	-0.277905	-0.000454
H130	H	1.054111	-0.268596	-0.000458
H131	H	1.009306	-0.209645	-0.085401
H132	H	1.009285	-0.209654	0.084497
H133	H	0.957486	-0.306506	-0.085415
H134	H	0.957469	-0.306531	0.084497
C135	C	0.685018	-0.283432	-0.125580
C136	C	0.689487	-0.242304	-0.000359
H137	H	0.641701	-0.302263	-0.125556
H138	H	0.688063	-0.255515	-0.210513
H139	H	0.722254	-0.320420	-0.125580
H140	H	0.652253	-0.205313	-0.000364
H141	H	0.686434	-0.270223	0.084595
H142	H	0.930822	-0.712049	-0.000549
H143	H	0.709599	-0.102967	-0.000367
C144	C	0.675407	-0.417142	0.253700
C145	C	0.717289	-0.469929	0.178775
H146	H	0.642131	-0.437321	0.311621
H147	H	0.703861	-0.392648	0.315216
H148	H	0.651817	-0.385663	0.185069
H149	H	0.740884	-0.501406	0.247407
H150	H	0.688832	-0.494435	0.117254
