data_functionalizedCrystal
_audit_creation_method	'MofGen! by Chris Wilmer'
_symmetry_space_group_name_H-M	'P1'
_symmetry_Int_Tables_number	1
_symmetry_cell_setting	triclinic
loop_
_symmetry_equiv_pos_as_xyz
  x,y,z
_cell_length_a	16.959455
_cell_length_b	21.295417
_cell_length_c	16.959447
_cell_angle_alpha	89.965854
_cell_angle_beta	89.985678
_cell_angle_gamma	90.026649
loop_
_atom_site_label
_atom_site_type_symbol
_atom_site_fract_x
_atom_site_fract_y
_atom_site_fract_z
Zn1	Zn	1.208331	-0.250648	-0.446888
Zn2	Zn	1.708331	0.249352	0.053112
Zn3	Zn	1.208231	-0.355925	-0.314700
Zn4	Zn	1.708231	0.144075	0.185300
Zn5	Zn	1.076159	-0.250668	-0.314725
Zn6	Zn	1.576159	0.249332	0.185275
Zn7	Zn	1.076102	-0.355878	-0.446839
Zn8	Zn	1.576102	0.144122	0.053161
O9	O	1.142206	-0.303280	-0.380788
O10	O	1.642206	0.196720	0.119212
O11	O	1.318929	-0.264625	-0.429363
O12	O	1.818929	0.235375	0.070637
O13	O	1.190694	-0.341990	-0.204093
O14	O	1.690694	0.158010	0.295907
O15	O	1.093758	-0.162576	-0.332288
O16	O	1.593758	0.337424	0.167712
O17	O	1.318855	-0.341971	-0.332245
O18	O	1.818855	0.158029	0.167755
O19	O	1.190864	-0.162561	-0.429387
O20	O	1.690864	0.337439	0.070613
O21	O	1.093661	-0.264658	-0.204111
O22	O	1.593661	0.235342	0.295889
O23	O	0.965541	-0.264613	-0.332240
O24	O	1.465541	0.235387	0.167760
O25	O	1.093660	-0.341891	-0.557456
O26	O	1.593660	0.158109	-0.057456
O27	O	0.965499	-0.341910	-0.429304
O28	O	1.465499	0.158090	0.070696
O29	O	1.190808	-0.264579	-0.557492
O30	O	1.690808	0.235421	-0.057492
O31	O	1.190638	-0.444008	-0.332198
O32	O	1.690638	0.055992	0.167802
O33	O	1.093563	-0.443973	-0.429280
O34	O	1.593563	0.056027	0.070720
C35	C	0.936840	-0.303259	-0.380770
C36	C	1.436840	0.196741	0.119230
C37	C	0.848983	-0.303265	-0.380781
C38	C	1.348983	0.196735	0.119219
C39	C	0.477505	-0.262998	-0.330353
C40	C	0.977505	0.237002	0.169647
C41	C	0.477510	-0.343613	-0.431269
C42	C	0.977510	0.156387	0.068731
C43	C	0.560056	-0.343604	-0.431264
C44	C	1.060056	0.156396	0.068736
C45	C	0.601330	-0.303292	-0.380802
C46	C	1.101330	0.196708	0.119198
C47	C	0.560058	-0.262989	-0.330345
C48	C	1.060058	0.237011	0.169655
C49	C	0.601333	-0.383911	-0.481714
C50	C	1.101333	0.116089	0.018286
C51	C	0.683884	-0.383904	-0.481711
C52	C	1.183884	0.116096	0.018289
C53	C	0.725160	-0.343588	-0.431252
C54	C	1.225160	0.156412	0.068748
C55	C	0.683884	-0.303283	-0.380794
C56	C	1.183884	0.196717	0.119206
C57	C	0.725158	-0.262971	-0.330332
C58	C	1.225158	0.237029	0.169668
C59	C	0.683883	-0.222662	-0.279877
C60	C	1.183883	0.277338	0.220123
C61	C	0.601334	-0.222673	-0.279886
C62	C	1.101334	0.277327	0.220114
C63	C	0.807709	-0.343577	-0.431243
C64	C	1.307709	0.156423	0.068757
C65	C	0.807711	-0.262962	-0.330324
C66	C	1.307711	0.237038	0.169676
C67	C	1.142105	-0.466831	-0.380748
C68	C	1.642105	0.033169	0.119252
C69	C	1.142134	-0.536799	-0.380757
C70	C	1.642134	-0.036799	0.119243
C71	C	1.192668	-0.569601	-0.431353
C72	C	1.692668	-0.069601	0.068647
C73	C	1.192696	-0.635344	-0.431372
C74	C	1.692696	-0.135344	0.068628
C75	C	1.142198	-0.668282	-0.380782
C76	C	1.642198	-0.168282	0.119218
C77	C	1.091654	-0.635472	-0.330183
C78	C	1.591654	-0.135472	0.169817
C79	C	1.091622	-0.569731	-0.330170
C80	C	1.591622	-0.069731	0.169830
N81	N	1.136233	-0.771547	-0.311606
N82	N	1.636233	-0.271547	0.188394
N83	N	1.136268	-0.833998	-0.311620
N84	N	1.636268	-0.333998	0.188380
C85	C	1.142291	-0.866356	-0.380818
C86	C	1.642291	-0.366356	0.119182
N87	N	1.148292	-0.833904	-0.450002
N88	N	1.648292	-0.333904	0.049998
N89	N	1.148261	-0.771447	-0.449987
N90	N	1.648261	-0.271447	0.050013
C91	C	1.142227	-0.739567	-0.380790
C92	C	1.642227	-0.239567	0.119210
C93	C	1.192858	-0.970444	-0.431439
C94	C	1.692858	-0.470444	0.068561
C95	C	1.192880	-1.036188	-0.431460
C96	C	1.692880	-0.536188	0.068540
C97	C	1.091842	-1.036315	-0.330263
C98	C	1.591842	-0.536315	0.169737
C99	C	1.091816	-0.970572	-0.330249
C100	C	1.591816	-0.470572	0.169751
C101	C	1.142328	-0.937641	-0.380836
C102	C	1.642328	-0.437641	0.119164
C103	C	1.348374	-0.303301	-0.380807
C104	C	1.848374	0.196699	0.119193
C105	C	1.436231	-0.303310	-0.380815
C106	C	1.936231	0.196690	0.119185
C107	C	1.142239	-0.303228	-0.586956
C108	C	1.642239	0.196772	-0.086956
C109	C	1.142253	-0.303205	-0.674813
C110	C	1.642253	0.196795	-0.174813
C111	C	1.142328	-0.139089	-0.380845
C112	C	1.642328	0.360911	0.119155
C113	C	1.142381	-0.069121	-0.380870
C114	C	1.642381	0.430879	0.119130
C115	C	1.091767	-0.343392	-1.046273
C116	C	1.591767	0.156608	-0.546273
C117	C	1.192928	-0.262886	-1.046305
C118	C	1.692928	0.237114	-0.546305
C119	C	1.192907	-0.262900	-0.963759
C120	C	1.692907	0.237100	-0.463759
C121	C	1.142316	-0.303160	-0.922466
C122	C	1.642316	0.196840	-0.422466
C123	C	1.091746	-0.343407	-0.963719
C124	C	1.591746	0.156593	-0.463719
C125	C	1.243482	-0.222658	-0.922500
C126	C	1.743482	0.277342	-0.422500
C127	C	1.243463	-0.222670	-0.839949
C128	C	1.743463	0.277330	-0.339949
C129	C	1.192867	-0.262928	-0.798654
C130	C	1.692867	0.237072	-0.298654
C131	C	1.142295	-0.303176	-0.839912
C132	C	1.642295	0.196824	-0.339912
C133	C	1.091704	-0.343437	-0.798619
C134	C	1.591704	0.156563	-0.298619
C135	C	1.041126	-0.383682	-0.839876
C136	C	1.541126	0.116318	-0.339876
C137	C	1.041150	-0.383665	-0.922425
C138	C	1.541150	0.116335	-0.422425
C139	C	1.192844	-0.262945	-0.716106
C140	C	1.692844	0.237055	-0.216106
C141	C	1.091683	-0.343453	-0.716066
C142	C	1.591683	0.156547	-0.216066
C143	C	1.142219	-0.303286	-0.175422
C144	C	1.642219	0.196714	0.324578
C145	C	1.142358	-0.303131	-0.087566
C146	C	1.642358	0.196869	0.412434
H147	H	1.233796	-0.542790	-0.472546
H148	H	1.733796	-0.042790	0.027454
C149	C	0.853111	-0.387911	-0.486733
C150	C	1.353111	0.112089	0.013267
H151	H	0.908186	-0.382134	-0.479499
H152	H	1.408186	0.117866	0.020501
H153	H	0.839604	-0.378757	-0.539865
H154	H	1.339604	0.121243	-0.039865
H155	H	0.839563	-0.430197	-0.475058
H156	H	1.339563	0.069803	0.024942
C157	C	1.036032	-0.387738	-0.670646
C158	C	1.536032	0.112262	-0.170646
H159	H	1.043258	-0.381983	-0.615574
H160	H	1.543258	0.118017	-0.115574
H161	H	1.047567	-0.430032	-0.684158
H162	H	1.547567	0.069968	-0.184158
H163	H	0.982931	-0.378510	-0.684177
H164	H	1.482931	0.121490	-0.184177
H165	H	1.234025	-0.230179	-0.682519
H166	H	1.734025	0.269821	-0.182519
C167	C	1.036291	-1.072538	-0.274619
C168	C	1.536291	-0.572538	0.225381
H169	H	1.043548	-1.116390	-0.281871
H170	H	1.543548	-0.616390	0.218129
H171	H	0.983171	-1.061791	-0.286139
H172	H	1.483171	-0.561791	0.213861
H173	H	1.047891	-1.061791	-0.221515
H174	H	1.547891	-0.561791	0.278485
C175	C	1.248409	-0.934214	-0.487085
C176	C	1.748409	-0.434214	0.012915
H177	H	1.241161	-0.890362	-0.479824
H178	H	1.741161	-0.390362	0.020176
H179	H	1.236812	-0.944961	-0.540186
H180	H	1.736812	-0.444961	-0.040186
H181	H	1.301533	-0.944961	-0.475563
H182	H	1.801533	-0.444961	0.024437
H183	H	1.050586	-0.376157	-1.079867
H184	H	1.550586	0.123843	-0.579867
H185	H	0.567722	-0.416735	-0.522792
H186	H	1.067722	0.083265	-0.022792
C187	C	0.985479	-0.427966	-0.794448
C188	C	1.485479	0.072034	-0.294448
H189	H	0.992712	-0.422207	-0.739378
H190	H	1.492712	0.077793	-0.239378
H191	H	0.997013	-0.470261	-0.807957
H192	H	1.497013	0.029739	-0.307957
H193	H	0.932377	-0.418739	-0.807974
H194	H	1.432377	0.081261	-0.307974
H195	H	1.050670	-0.943863	-0.289046
H196	H	1.550670	-0.443863	0.210954
H197	H	1.284646	-0.189899	-0.806365
H198	H	1.784646	0.310101	-0.306365
H199	H	1.050537	-0.662294	-0.288994
H200	H	1.550537	-0.162294	0.211006
H201	H	0.443895	-0.230178	-0.289275
H202	H	0.943895	0.269822	0.210725
C203	C	1.248294	-0.671434	-0.487022
C204	C	1.748294	-0.171434	0.012978
H205	H	1.278376	-0.642405	-0.517142
H206	H	1.778376	-0.142405	-0.017142
H207	H	1.218056	-0.697084	-0.521442
H208	H	1.718056	-0.197084	-0.021442
H209	H	1.282763	-0.697069	-0.456805
H210	H	1.782763	-0.197069	0.043195
H211	H	0.443899	-0.376437	-0.472348
H212	H	0.943899	0.123563	0.027652
H213	H	1.050471	-0.543023	-0.288969
H214	H	1.550471	-0.043023	0.211031
C215	C	0.985527	-0.427935	-0.967807
C216	C	1.485527	0.072065	-0.467807
H217	H	0.992793	-0.422163	-1.022884
H218	H	1.492793	0.077837	-0.522884
H219	H	0.932420	-0.418722	-0.954288
H220	H	1.432420	0.081278	-0.454288
H221	H	0.997066	-0.470235	-0.954259
H222	H	1.497066	0.029765	-0.454259
C223	C	1.299116	-0.178367	-0.967921
C224	C	1.799116	0.321633	-0.467921
H225	H	1.291873	-0.184115	-1.022993
H226	H	1.791873	0.315885	-0.522993
H227	H	1.352219	-0.187580	-0.954399
H228	H	1.852219	0.312420	-0.454399
H229	H	1.287563	-0.136074	-0.954405
H230	H	1.787563	0.363926	-0.454405
C231	C	0.729280	-0.428235	-0.537215
C232	C	1.229280	0.071765	-0.037215
H233	H	0.692874	-0.452241	-0.567273
H234	H	1.192874	0.047759	-0.067273
H235	H	0.761466	-0.455629	-0.506919
H236	H	1.261466	0.044371	-0.006919
H237	H	0.761498	-0.404178	-0.571711
H238	H	1.261498	0.095822	-0.071711
H239	H	1.234031	-1.062894	-0.472665
H240	H	1.734031	-0.562894	0.027335
H241	H	0.841311	-0.230131	-0.289236
H242	H	1.341311	0.269869	0.210764
H243	H	1.234121	-0.230111	-1.079931
H244	H	1.734121	0.269889	-0.579931
H245	H	0.567721	-0.189857	-0.238807
H246	H	1.067721	0.310143	0.261193
C247	C	0.729290	-0.178321	-0.224372
C248	C	1.229290	0.321679	0.275628
H249	H	0.784363	-0.184091	-0.231599
H250	H	1.284363	0.315909	0.268401
H251	H	0.715740	-0.187478	-0.171243
H252	H	1.215740	0.312522	0.328757
H253	H	0.715790	-0.136036	-0.236047
H254	H	1.215790	0.363964	0.263953
