data_functionalizedCrystal
_audit_creation_method	'MofGen! by Chris Wilmer'
_symmetry_space_group_name_H-M	'P1'
_symmetry_Int_Tables_number	1
_symmetry_cell_setting	triclinic
loop_
_symmetry_equiv_pos_as_xyz
  x,y,z
_cell_length_a	15.944545
_cell_length_b	15.944551
_cell_length_c	13.930277
_cell_angle_alpha	89.996314
_cell_angle_beta	90.003812
_cell_angle_gamma	83.497455
loop_
_atom_site_label
_atom_site_type_symbol
_atom_site_fract_x
_atom_site_fract_y
_atom_site_fract_z
O1	O	1.114531	0.108295	0.079771
O2	O	1.614531	0.608295	0.579771
O3	O	0.869981	0.121657	0.079787
O4	O	1.369981	0.621657	0.579787
O5	O	0.998934	-0.007299	0.079770
O6	O	1.498934	0.492701	0.579770
O7	O	0.985578	0.237251	0.079788
O8	O	1.485578	0.737251	0.579788
O9	O	0.998915	-0.007279	-0.079892
O10	O	1.498915	0.492721	0.420108
O11	O	0.869962	0.121677	-0.079875
O12	O	1.369962	0.621677	0.420125
O13	O	1.114512	0.108315	-0.079891
O14	O	1.614512	0.608315	0.420109
Zn15	Zn	0.992234	0.114999	-0.105233
Zn16	Zn	1.492234	0.614999	0.394767
Zn17	Zn	0.992259	0.114973	0.105128
Zn18	Zn	1.492259	0.614973	0.605128
O19	O	0.985559	0.237271	-0.079874
O20	O	1.485559	0.737271	0.420126
C21	C	0.838677	0.121113	-0.000042
C22	C	1.338677	0.621113	0.499958
C23	C	0.745431	0.119453	-0.000037
C24	C	1.245431	0.619453	0.499963
C25	C	0.474798	0.034559	-0.000053
C26	C	0.974798	0.534559	0.499947
C27	C	0.525371	0.075498	-0.078774
C28	C	1.025371	0.575498	0.421226
C29	C	0.409787	0.113532	-0.000053
C30	C	0.909787	0.613532	0.499947
C31	C	0.525370	0.075499	0.078640
C32	C	1.025370	0.575499	0.578640
C33	C	0.574701	0.116437	-0.000044
C34	C	1.074701	0.616437	0.499956
C35	C	0.459131	0.154450	-0.078839
C36	C	0.959131	0.654450	0.421161
C37	C	0.459127	0.154440	0.078645
C38	C	0.959127	0.654440	0.578645
C39	C	0.509667	0.195436	-0.000095
C40	C	1.009667	0.695436	0.499905
C41	C	0.314785	0.111856	-0.000060
C42	C	0.814785	0.611856	0.499940
C43	C	0.669700	0.118119	-0.000044
C44	C	1.169700	0.618119	0.499956
C45	C	0.998370	-0.038583	-0.000061
C46	C	1.498370	0.461417	0.499939
C47	C	0.996708	-0.131829	-0.000062
C48	C	1.496708	0.368171	0.499938
C49	C	0.912803	-0.346684	-0.000043
C50	C	1.412803	0.153316	0.499957
C51	C	0.951757	-0.407692	-0.078769
C52	C	1.451757	0.092308	0.421231
C53	C	0.993701	-0.302555	-0.000054
C54	C	1.493701	0.197445	0.499946
C55	C	0.951794	-0.407695	0.078645
C56	C	1.451794	0.092305	0.578645
C57	C	0.990790	-0.467468	-0.000043
C58	C	1.490790	0.032532	0.499957
C59	C	1.032676	-0.362335	-0.078845
C60	C	1.532676	0.137665	0.421155
C61	C	1.032703	-0.362332	0.078640
C62	C	1.532703	0.137668	0.578640
C63	C	1.071715	-0.423322	-0.000105
C64	C	1.571715	0.076678	0.499895
C65	C	0.995375	-0.207553	-0.000062
C66	C	1.495375	0.292447	0.499938
C67	C	0.989122	-0.562469	-0.000042
C68	C	1.489122	-0.062469	0.499958
C69	C	1.145816	0.108859	-0.000060
C70	C	1.645816	0.608859	0.499940
C71	C	1.239062	0.110519	-0.000059
C72	C	1.739062	0.610519	0.499941
C73	C	0.986123	0.268555	-0.000041
C74	C	1.486123	0.768555	0.499959
C75	C	0.987785	0.361801	-0.000034
C76	C	1.487785	0.861801	0.499966
N77	N	0.992223	0.115016	-0.248799
N78	N	1.492223	0.615016	0.251201
C79	C	1.043214	0.165933	-0.701058
C80	C	1.543214	0.665933	-0.201058
C81	C	0.941330	0.063978	-0.701048
C82	C	1.441330	0.563978	-0.201048
C83	C	0.941317	0.063991	-0.600553
C84	C	1.441317	0.563991	-0.100553
C85	C	0.992255	0.114976	-0.550305
C86	C	1.492255	0.614976	-0.050305
C87	C	1.043205	0.165947	-0.600553
C88	C	1.543205	0.665947	-0.100553
C89	C	0.890374	0.013015	-0.550297
C90	C	1.390374	0.513015	-0.050297
C91	C	0.890360	0.013026	-0.449795
C92	C	1.390360	0.513026	0.050205
C93	C	0.941294	0.064016	-0.399546
C94	C	1.441294	0.564016	0.100454
C95	C	0.992245	0.114989	-0.449800
C96	C	1.492245	0.614989	0.050200
C97	C	1.043183	0.165974	-0.399552
C98	C	1.543183	0.665974	0.100448
C99	C	1.094131	0.216952	-0.449804
C100	C	1.594131	0.716952	0.050196
C101	C	1.094139	0.216936	-0.550303
C102	C	1.594139	0.716936	-0.050303
C103	C	0.941286	0.064032	-0.299047
C104	C	1.441286	0.564032	0.200953
C105	C	1.043174	0.165987	-0.299047
C106	C	1.543174	0.665987	0.200953
N107	N	0.992277	0.114949	0.248695
N108	N	1.492277	0.614949	0.748695
H109	H	0.459145	-0.033453	-0.000135
H110	H	0.959145	0.466547	0.499865
Br111	Br	1.089699	-0.328792	0.189571
Br112	Br	1.589699	0.171208	0.689571
Br113	Br	0.894754	-0.441197	0.189567
Br114	Br	1.394754	0.058803	0.689567
Br115	Br	0.894718	-0.441192	-0.189695
Br116	Br	1.394718	0.058808	0.310305
H117	H	1.084650	0.207509	-0.258142
H118	H	1.584650	0.707509	0.241858
Br119	Br	1.183730	-0.478595	-0.000179
Br120	Br	1.683730	0.021405	0.499821
Br121	Br	1.163266	0.286134	-0.381599
Br122	Br	1.663266	0.786134	0.118401
Br123	Br	1.163272	0.286119	-0.618507
Br124	Br	1.663272	0.786119	-0.118507
H125	H	1.066856	-0.342337	-0.145474
H126	H	1.566856	0.157663	0.354526
H127	H	1.084692	0.207441	-0.741977
H128	H	1.584692	0.707441	-0.241977
Br129	Br	0.821204	-0.056143	-0.381604
Br130	Br	1.321204	0.443857	0.118396
Br131	Br	0.872207	-0.005216	-0.769242
Br132	Br	1.372207	0.494784	-0.269242
Br133	Br	0.573574	0.019927	-0.189711
Br134	Br	1.073574	0.519927	0.310289
H135	H	0.430189	0.187755	0.145205
H136	H	0.930189	0.687755	0.645205
H137	H	0.848911	-0.028501	-0.591216
H138	H	1.348911	0.471499	-0.091216
Br139	Br	0.872168	-0.005167	-0.230851
Br140	Br	1.372168	0.494833	0.269149
Br141	Br	0.535486	0.308883	-0.000153
Br142	Br	1.035486	0.808883	0.499847
Br143	Br	0.411107	0.210013	-0.189885
Br144	Br	0.911107	0.710013	0.310115
Br145	Br	0.573585	0.019876	0.189556
Br146	Br	1.073585	0.519876	0.689556
H147	H	0.845655	-0.313375	-0.000117
H148	H	1.345655	0.186625	0.499883
