data_functionalizedCrystal
_audit_creation_method	'MofGen! by Chris Wilmer'
_symmetry_space_group_name_H-M	'P1'
_symmetry_Int_Tables_number	1
_symmetry_cell_setting	triclinic
loop_
_symmetry_equiv_pos_as_xyz
  x,y,z
_cell_length_a	16.625547
_cell_length_b	18.050590
_cell_length_c	18.050591
_cell_angle_alpha	90.005734
_cell_angle_beta	90.006494
_cell_angle_gamma	90.018489
loop_
_atom_site_label
_atom_site_type_symbol
_atom_site_fract_x
_atom_site_fract_y
_atom_site_fract_z
Zn1	Zn	1.232557	-0.295837	0.419992
Zn2	Zn	1.732557	0.204163	0.919992
Zn3	Zn	1.232512	-0.419982	0.295800
Zn4	Zn	1.732512	0.080018	0.795800
Zn5	Zn	1.097761	-0.295810	0.295807
Zn6	Zn	1.597761	0.204190	0.795807
Zn7	Zn	1.097698	-0.419989	0.419940
Zn8	Zn	1.597698	0.080011	0.919940
O9	O	1.165132	-0.357905	0.357885
O10	O	1.665132	0.142095	0.857885
O11	O	1.345383	-0.312313	0.403537
O12	O	1.845383	0.187687	0.903537
O13	O	1.214645	-0.403496	0.191877
O14	O	1.714645	0.096504	0.691877
O15	O	1.115687	-0.191889	0.312305
O16	O	1.615687	0.308111	0.812305
O17	O	1.345350	-0.403522	0.312294
O18	O	1.845350	0.096478	0.812294
O19	O	1.214721	-0.191909	0.403543
O20	O	1.714721	0.308091	0.903543
O21	O	1.115644	-0.312268	0.191882
O22	O	1.615644	0.187732	0.691882
O23	O	0.984921	-0.312275	0.312254
O24	O	1.484921	0.187725	0.812254
O25	O	1.115579	-0.403535	0.523871
O26	O	1.615579	0.096465	1.023871
O27	O	0.984874	-0.403509	0.403454
O28	O	1.484874	0.096491	0.903454
O29	O	1.214659	-0.312320	0.523910
O30	O	1.714659	0.187680	1.023910
O31	O	1.214584	-0.523908	0.312243
O32	O	1.714584	-0.023908	0.812243
O33	O	1.115536	-0.523913	0.403448
O34	O	1.615536	-0.023913	0.903448
C35	C	0.955641	-0.357890	0.357850
C36	C	1.455641	0.142110	0.857850
C37	C	0.866020	-0.357902	0.357852
C38	C	1.366020	0.142098	0.857852
C39	C	0.793238	-0.357903	0.357862
C40	C	1.293238	0.142097	0.857862
C41	C	0.701929	-0.357907	0.357880
C42	C	1.201929	0.142093	0.857880
C43	C	0.629153	-0.357914	0.357899
C44	C	1.129153	0.142086	0.857899
C45	C	0.537838	-0.357919	0.357917
C46	C	1.037838	0.142081	0.857917
C47	C	1.165070	-0.550857	0.357855
C48	C	1.665070	-0.050857	0.857855
C49	C	1.165117	-0.633403	0.357867
C50	C	1.665117	-0.133403	0.857867
C51	C	1.219091	-0.832823	0.308340
C52	C	1.719091	-0.332823	0.808340
C53	C	1.238765	-0.882183	0.376121
C54	C	1.738765	-0.382183	0.876121
C55	C	1.165163	-0.784533	0.357897
C56	C	1.665163	-0.284533	0.857897
C57	C	1.145571	-0.882255	0.290146
C58	C	1.645571	-0.382255	0.790146
C59	C	1.165209	-0.930518	0.357920
C60	C	1.665209	-0.430518	0.857920
C61	C	1.184874	-0.832805	0.425714
C62	C	1.684874	-0.332805	0.925714
C63	C	1.091647	-0.832873	0.339693
C64	C	1.591647	-0.332873	0.839693
C65	C	1.111292	-0.882210	0.407522
C66	C	1.611292	-0.382210	0.907522
C67	C	1.165139	-0.700435	0.357883
C68	C	1.665139	-0.200435	0.857883
C69	C	1.165233	-1.014615	0.357941
C70	C	1.665233	-0.514615	0.857941
C71	C	1.375441	-0.357920	0.357920
C72	C	1.875441	0.142080	0.857920
C73	C	1.465062	-0.357926	0.357936
C74	C	1.965062	0.142074	0.857936
C75	C	1.165117	-0.357931	0.551590
C76	C	1.665117	0.142069	1.051590
C77	C	1.165111	-0.357943	0.634136
C78	C	1.665111	0.142057	1.134136
C79	C	1.165216	-0.164199	0.357931
C80	C	1.665216	0.335801	0.857931
C81	C	1.165252	-0.081653	0.357950
C82	C	1.665252	0.418347	0.857950
C83	C	1.111224	-0.407538	0.833566
C84	C	1.611224	0.092462	1.333566
C85	C	1.184779	-0.425707	0.882962
C86	C	1.684779	0.074293	1.382962
C87	C	1.165114	-0.357932	0.785267
C88	C	1.665114	0.142068	1.285267
C89	C	1.091565	-0.339788	0.882952
C90	C	1.591565	0.160212	1.382952
C91	C	1.165111	-0.357924	0.931252
C92	C	1.665111	0.142076	1.431252
C93	C	1.238707	-0.376136	0.833575
C94	C	1.738707	0.123864	1.333575
C95	C	1.145444	-0.290186	0.833561
C96	C	1.645444	0.209814	1.333561
C97	C	1.219049	-0.308329	0.882935
C98	C	1.719049	0.191671	1.382935
C99	C	1.165115	-0.357939	0.701168
C100	C	1.665115	0.142061	1.201168
C101	C	1.165119	-0.357917	1.015348
C102	C	1.665119	0.142083	1.515348
C103	C	1.165133	-0.357902	1.164933
C104	C	1.665133	0.142098	1.664933
C105	C	1.165116	-0.357911	1.082387
C106	C	1.665116	0.142089	1.582387
H107	H	1.264712	-0.811138	0.266474
H108	H	1.764712	-0.311138	0.766474
H109	H	1.065709	-0.449524	0.811890
H110	H	1.565709	0.050476	1.311890
H111	H	1.201402	-0.811176	0.483069
H112	H	1.701402	-0.311176	0.983069
H113	H	1.128781	-0.232914	0.811845
H114	H	1.628781	0.267086	1.311845
H115	H	1.128982	-0.903976	0.232841
H116	H	1.628982	-0.403976	0.732841
H117	H	1.300924	-0.391544	0.811977
H118	H	1.800924	0.108456	1.311977
H119	H	1.029367	-0.324445	0.904642
H120	H	1.529367	0.175555	1.404642
H121	H	1.264673	-0.266375	0.904475
H122	H	1.764673	0.233625	1.404475
H123	H	1.201420	-0.482996	0.904661
H124	H	1.701420	0.017004	1.404661
H125	H	1.065707	-0.903758	0.449489
H126	H	1.565707	-0.403758	0.949489
H127	H	1.029474	-0.811196	0.324262
H128	H	1.529474	-0.311196	0.824262
H129	H	1.300956	-0.903844	0.391532
H130	H	1.800956	-0.403844	0.891532
