data_functionalizedCrystal
_audit_creation_method	'MofGen! by Chris Wilmer'
_symmetry_space_group_name_H-M	'P1'
_symmetry_Int_Tables_number	1
_symmetry_cell_setting	triclinic
loop_
_symmetry_equiv_pos_as_xyz
  x,y,z
_cell_length_a	10.489741
_cell_length_b	17.699083
_cell_length_c	16.776229
_cell_angle_alpha	90.007545
_cell_angle_beta	90.004427
_cell_angle_gamma	83.911094
loop_
_atom_site_label
_atom_site_type_symbol
_atom_site_fract_x
_atom_site_fract_y
_atom_site_fract_z
O1	O	-1.692074	-0.106782	-0.066241
O2	O	-1.320692	-0.116805	-0.066253
O3	O	-1.516876	-0.001673	-0.066240
O4	O	-1.495891	-0.221914	-0.066254
O5	O	-1.516850	-0.001666	0.066337
O6	O	-1.320666	-0.116798	0.066323
O7	O	-1.692048	-0.106775	0.066336
Zn8	Zn	-1.506353	-0.111785	0.087379
Zn9	Zn	-1.506387	-0.111795	-0.087296
O10	O	-1.495865	-0.221907	0.066322
C11	C	-1.273162	-0.116044	0.000033
C12	C	-1.131574	-0.113779	0.000029
C13	C	-1.516111	0.026533	0.000049
C14	C	-1.513855	0.110565	0.000049
C15	C	-1.739579	-0.107535	0.000047
C16	C	-1.881166	-0.109800	0.000047
C17	C	-1.064795	-0.040524	0.000041
C18	C	-0.972038	-0.075133	-0.065327
C19	C	-0.972046	-0.075143	0.065384
C20	C	-1.040682	-0.148418	-0.065393
C21	C	-1.040700	-0.148418	0.065376
C22	C	-0.947970	-0.183080	-0.000008
C23	C	-1.496630	-0.250112	0.000032
C24	C	-1.498886	-0.334145	0.000027
N25	N	-1.506339	-0.111778	0.206590
C26	C	-1.629011	0.158433	0.000054
C27	C	-1.626883	0.237390	0.000047
C28	C	-1.509599	0.268478	0.000040
C29	C	-1.394435	0.220605	0.000033
C30	C	-1.396563	0.141649	0.000034
C31	C	-1.385848	0.539024	0.000026
C32	C	-1.383729	0.617986	0.000027
C33	C	-1.616168	0.634765	0.000039
C34	C	-1.618297	0.555810	0.000040
C35	C	-1.503133	0.507943	0.000028
C36	C	-1.505441	0.422328	0.000035
C37	C	-1.507290	0.354091	0.000040
N38	N	-1.506412	-0.111796	-0.206508
C39	C	-1.593236	-0.060819	0.248313
C40	C	-1.593243	-0.060818	0.331765
C41	C	-1.506358	-0.111781	0.373493
C42	C	-1.419453	-0.162743	0.331764
C43	C	-1.419441	-0.162739	0.248313
C44	C	-1.419499	-0.162758	0.668311
C45	C	-1.419520	-0.162759	0.751768
C46	C	-1.593301	-0.060837	0.751763
C47	C	-1.593289	-0.060833	0.668313
C48	C	-1.506379	-0.111792	0.626591
C49	C	-1.506371	-0.111791	0.536103
C50	C	-1.506372	-0.111786	0.463980
H51	H	-1.115604	0.019696	-0.000036
H52	H	-1.348704	-0.204235	0.365743
H53	H	-1.070946	-0.179393	-0.120719
H54	H	-0.941611	-0.044140	-0.120587
H55	H	-0.941634	-0.044131	0.120647
O56	O	-1.274014	0.492504	-0.000121
C57	C	-1.268307	0.446312	-0.068775
H58	H	-1.333635	0.474859	-0.116763
H59	H	-1.165543	0.438000	-0.091827
H60	H	-1.301126	0.388725	-0.053252
H61	H	-1.302792	0.102675	0.000030
O62	O	-1.732259	0.525648	-0.000096
C63	C	-1.802467	0.550054	-0.068747
H64	H	-1.733887	0.566844	-0.116740
H65	H	-1.856587	0.501933	-0.091794
H66	H	-1.873699	0.601119	-0.053223
H67	H	-1.348679	-0.204234	0.214343
H68	H	-1.724517	0.133128	0.000064
O69	O	-1.334984	-0.212290	0.792180
C70	C	-1.258290	-0.257278	0.737462
H71	H	-1.256939	-0.226239	0.677980
H72	H	-1.156404	-0.268226	0.761587
H73	H	-1.299506	-0.313748	0.728572
H74	H	-1.664042	-0.019337	0.634341
O75	O	-0.887717	-0.255009	-0.000192
C76	C	-0.922729	-0.293345	-0.069195
H77	H	-0.956135	-0.250077	-0.117146
H78	H	-0.836524	-0.331934	-0.092010
H79	H	-1.003835	-0.329024	-0.054229
H80	H	-1.298940	0.245923	0.000023
H81	H	-1.709940	0.673748	0.000044
O82	O	-1.677595	-0.011356	0.792417
C83	C	-1.659001	-0.022294	0.875020
H84	H	-1.557511	-0.049990	0.886426
H85	H	-1.673384	0.034942	0.906742
H86	H	-1.731069	-0.060675	0.898689
O87	O	-1.335266	-0.212301	0.627706
C88	C	-1.403419	-0.259401	0.579438
H89	H	-1.503306	-0.229829	0.566921
H90	H	-1.350130	-0.271077	0.520763
H91	H	-1.411930	-0.315384	0.611596
O92	O	-1.738863	0.283780	0.000093
C93	C	-1.842836	0.239410	0.000086
H94	H	-1.810270	0.180671	0.025184
H95	H	-1.923493	0.268097	0.038584
H96	H	-1.878822	0.233585	-0.063514
H97	H	-1.071160	-0.179386	0.120639
H98	H	-1.663999	-0.019323	0.365736
H99	H	-1.288216	0.643294	0.000024
O100	O	-1.677511	-0.011193	0.207836
C101	C	-1.657005	0.063837	0.228287
H102	H	-1.554886	0.064777	0.251226
H103	H	-1.671797	0.101761	0.173429
H104	H	-1.727749	0.085646	0.276741
