data_functionalizedCrystal
_audit_creation_method	'MofGen! by Chris Wilmer'
_symmetry_space_group_name_H-M	'P1'
_symmetry_Int_Tables_number	1
_symmetry_cell_setting	triclinic
loop_
_symmetry_equiv_pos_as_xyz
  x,y,z
_cell_length_a	12.784890
_cell_length_b	14.519731
_cell_length_c	11.892095
_cell_angle_alpha	93.895723
_cell_angle_beta	86.513306
_cell_angle_gamma	78.397706
loop_
_atom_site_label
_atom_site_type_symbol
_atom_site_fract_x
_atom_site_fract_y
_atom_site_fract_z
O1	O	1.417111	-0.000669	-0.093968
O2	O	1.107734	0.038821	-0.093979
O3	O	1.270613	-0.115829	-0.093963
O4	O	1.254232	0.153981	-0.093984
O5	O	1.257032	-0.102953	0.094043
O6	O	1.094154	0.051697	0.094027
O7	O	1.403530	0.012207	0.094038
Zn8	Zn	1.246686	0.033996	0.123882
Zn9	Zn	1.264579	0.017032	-0.123824
O10	O	1.240652	0.166857	0.094022
C11	C	1.061350	0.047827	0.000023
C12	C	0.943371	0.055469	0.000019
C13	C	0.764586	0.151245	0.000010
C14	C	0.875436	0.144070	0.000010
C15	C	0.900448	-0.025964	0.000023
C16	C	0.789598	-0.018790	0.000023
C17	C	0.721670	0.069818	0.000018
C18	C	0.610817	0.076992	0.000025
C19	C	0.635831	-0.093043	0.000030
C20	C	0.746682	-0.100217	0.000031
C21	C	1.263055	-0.143688	0.000040
C22	C	1.260755	-0.245880	0.000041
C23	C	1.258886	-0.328872	0.000038
C24	C	1.256551	-0.432991	0.000029
C25	C	1.254698	-0.515979	0.000022
C26	C	1.252363	-0.620104	0.000015
C27	C	1.449915	0.003201	0.000033
C28	C	1.567894	-0.004442	0.000030
C29	C	1.248210	0.194716	0.000016
C30	C	1.250511	0.296908	0.000008
N31	N	1.234482	0.045573	0.292935
N32	N	1.276791	0.005447	-0.292877
C33	C	1.361709	-0.075164	0.529596
C34	C	1.353187	-0.067066	0.647937
C35	C	1.208910	0.069864	0.647961
C36	C	1.217433	0.061765	0.529620
C37	C	1.293836	-0.010750	0.470441
C38	C	1.302363	-0.018844	0.352098
C39	C	1.158081	0.118081	0.352124
C40	C	1.149559	0.126179	0.470465
H41	H	0.955774	-0.098105	0.000019
C42	C	0.821408	-0.197680	0.000041
C43	C	0.809434	-0.260139	0.097679
C44	C	0.884159	-0.357604	0.097694
C45	C	0.970857	-0.392608	0.000073
C46	C	0.982835	-0.330147	-0.097572
C47	C	0.908110	-0.232683	-0.097588
H48	H	0.745252	-0.234228	0.169951
H49	H	0.875292	-0.403841	0.169978
H50	H	1.026173	-0.464757	0.000084
H51	H	1.047017	-0.356059	-0.169844
H52	H	0.916977	-0.186446	-0.169871
C53	C	0.536093	0.174456	0.000016
C54	C	0.463495	0.196080	-0.097613
C55	C	0.388774	0.293547	-0.097627
C56	C	0.386651	0.369388	-0.000012
C57	C	0.459251	0.347766	0.097624
C58	C	0.533972	0.250299	0.097638
H59	H	0.465064	0.139936	-0.169880
H60	H	0.335030	0.309552	-0.169904
H61	H	0.331338	0.441539	-0.000022
H62	H	0.457682	0.403910	0.169891
H63	H	0.587716	0.234293	0.169915
H64	H	0.600885	-0.159353	-0.000053
H65	H	0.709276	0.223393	0.000019
H66	H	1.364577	-0.077887	0.303916
C67	C	1.445754	-0.154924	0.464493
C68	C	1.442600	-0.258672	0.480768
C69	C	1.526647	-0.338432	0.415668
C70	C	1.613847	-0.314445	0.334295
C71	C	1.617004	-0.210693	0.318017
C72	C	1.532957	-0.130932	0.383116
H73	H	1.378046	-0.276433	0.541009
H74	H	1.524310	-0.415237	0.427719
H75	H	1.676064	-0.373489	0.286104
H76	H	1.681558	-0.192932	0.257776
H77	H	1.535295	-0.054127	0.371066
H78	H	0.910373	0.210377	0.000006
C79	C	1.427852	-0.137920	0.713008
C80	C	1.511904	-0.217669	0.647909
C81	C	1.586571	-0.288527	0.712981
C82	C	1.577186	-0.279636	0.843151
C83	C	1.493131	-0.199883	0.908257
C84	C	1.418464	-0.129025	0.843186
H85	H	1.518854	-0.224253	0.551542
H86	H	1.648794	-0.347564	0.664784
H87	H	1.632459	-0.332089	0.891321
H88	H	1.486180	-0.193299	1.004624
H89	H	1.356240	-0.069988	0.891383
H90	H	1.146697	0.128898	0.696159
H91	H	1.087350	0.185218	0.518662
H92	H	1.102817	0.170534	0.303947
