data_functionalizedCrystal
_audit_creation_method	'MofGen! by Chris Wilmer'
_symmetry_space_group_name_H-M	'P1'
_symmetry_Int_Tables_number	1
_symmetry_cell_setting	triclinic
loop_
_symmetry_equiv_pos_as_xyz
  x,y,z
_cell_length_a	19.288864
_cell_length_b	10.654549
_cell_length_c	17.766277
_cell_angle_alpha	89.994783
_cell_angle_beta	89.976791
_cell_angle_gamma	83.811582
loop_
_atom_site_label
_atom_site_type_symbol
_atom_site_fract_x
_atom_site_fract_y
_atom_site_fract_z
O1	O	0.922380	0.156656	-0.062834
O2	O	0.720258	0.177789	-0.062782
O3	O	0.825965	-0.015616	-0.062807
O4	O	0.816674	0.350061	-0.062810
O5	O	0.825946	-0.015625	0.062382
O6	O	0.720239	0.177779	0.062406
O7	O	0.922362	0.156647	0.062354
Cu8	Cu	0.821299	0.167212	0.073811
Cu9	Cu	0.821321	0.167224	-0.074239
O10	O	0.816655	0.350051	0.062379
C11	C	0.694368	0.177104	-0.000182
C12	C	0.617251	0.175063	-0.000162
C13	C	0.825272	-0.062404	-0.000213
C14	C	0.823229	-0.201803	-0.000215
C15	C	0.573299	0.288544	-0.000175
C16	C	0.500839	0.286626	-0.000183
C17	C	0.472335	0.171221	-0.000194
C18	C	0.516297	0.057725	-0.000176
C19	C	0.588755	0.059646	-0.000161
C20	C	0.363485	0.080503	-0.044077
C21	C	0.291028	0.078587	-0.044098
C22	C	0.248850	0.165292	-0.000239
C23	C	0.279138	0.253934	0.043630
C24	C	0.351596	0.255855	0.043646
C25	C	0.393767	0.169126	-0.000210
C26	C	0.126329	0.276701	-0.000260
C27	C	0.053868	0.274779	-0.000264
C28	C	0.069327	0.045874	-0.000264
C29	C	0.141786	0.047800	-0.000253
C30	C	0.170282	0.163217	-0.000255
C31	C	0.945795	-0.494411	-0.000242
C32	C	1.009957	-0.444248	-0.000257
C33	C	1.011879	-0.313271	-0.000259
C34	C	0.949632	-0.232453	-0.000243
C35	C	0.885470	-0.282616	-0.000228
C36	C	0.883554	-0.413598	-0.000229
C37	C	0.759067	-0.251967	-0.000200
C38	C	0.757143	-0.382943	-0.000204
C39	C	0.696820	-0.171149	-0.000185
C40	C	0.632656	-0.221312	-0.000175
C41	C	0.630737	-0.352297	-0.000174
C42	C	0.692981	-0.433107	-0.000189
C43	C	0.948252	0.157332	-0.000248
C44	C	1.025369	0.159373	-0.000273
C45	C	0.817347	0.396840	-0.000217
C46	C	0.819391	0.536239	-0.000220
N47	N	0.821288	0.167203	0.177941
N48	N	0.821337	0.167223	-0.178369
C49	C	0.868111	0.081605	0.217318
C50	C	0.868115	0.081600	0.296119
C51	C	0.821303	0.167213	0.335542
C52	C	0.774472	0.252817	0.296156
C53	C	0.774464	0.252812	0.217356
C54	C	0.812754	0.281634	0.460380
C55	C	0.812767	0.281641	0.539179
C56	C	0.821322	0.167228	0.578588
C57	C	0.829879	0.052804	0.539189
C58	C	0.829872	0.052799	0.460389
C59	C	0.821305	0.167228	0.420988
C60	C	0.868151	0.081617	0.703410
C61	C	0.868150	0.081610	0.782214
C62	C	0.774511	0.252838	0.782249
C63	C	0.774508	0.252835	0.703447
C64	C	0.821332	0.167226	0.664033
H65	H	0.596495	0.382526	-0.000177
H66	H	0.493084	-0.036239	-0.000195
H67	H	0.266373	0.006415	-0.079822
H68	H	0.944236	-0.601061	-0.000251
Cl69	Cl	0.952050	-0.067796	-0.000234
Cl70	Cl	0.715656	0.360458	0.831803
Cl71	Cl	0.715620	0.360441	0.345714
Cl72	Cl	0.445575	0.429299	-0.000198
H73	H	0.376253	0.328026	0.079368
Cl74	Cl	-0.001388	0.417455	-0.000276
H75	H	1.064125	-0.272429	-0.000267
Cl76	Cl	0.033500	-0.099208	-0.000269
H77	H	0.698390	-0.064501	-0.000181
Cl78	Cl	0.554412	-0.119710	-0.000150
H79	H	0.578488	-0.393131	-0.000154
H80	H	1.060637	-0.510064	-0.000268
H81	H	0.736335	0.322518	0.185295
H82	H	0.691424	-0.539757	-0.000193
H83	H	0.244798	0.324537	0.079345
Cl84	Cl	0.840640	-0.091039	0.588723
Cl85	Cl	0.926970	-0.026021	0.167768
H86	H	0.906244	0.011893	0.328185
Cl87	Cl	0.927011	-0.026012	0.653859
H88	H	0.736384	0.322542	0.671385
H89	H	0.149531	0.370681	-0.000250
Cl90	Cl	0.840621	-0.091041	0.410860
H91	H	0.906276	0.011899	0.814274
H92	H	0.805803	0.374811	0.571252
Cl93	Cl	0.802064	0.425484	0.410846
Cl94	Cl	0.197044	-0.094870	-0.000242
H95	H	0.397820	0.009895	-0.079796
H96	H	0.624541	-0.032767	-0.000150
