data_functionalizedCrystal
_audit_creation_method	'MofGen! by Chris Wilmer'
_symmetry_space_group_name_H-M	'P1'
_symmetry_Int_Tables_number	1
_symmetry_cell_setting	triclinic
loop_
_symmetry_equiv_pos_as_xyz
  x,y,z
_cell_length_a	9.565339
_cell_length_b	10.489689
_cell_length_c	14.519709
_cell_angle_alpha	95.901017
_cell_angle_beta	90.000599
_cell_angle_gamma	90.008184
loop_
_atom_site_label
_atom_site_type_symbol
_atom_site_fract_x
_atom_site_fract_y
_atom_site_fract_z
O1	O	-0.116367	-1.692741	0.129877
O2	O	-0.116347	-1.321409	0.142140
O3	O	-0.116345	-1.516920	0.001822
O4	O	-0.116369	-1.497229	0.270195
O5	O	0.116175	-1.516899	0.001835
O6	O	0.116173	-1.321387	0.142153
O7	O	0.116153	-1.692719	0.129889
Zn8	Zn	0.153080	-1.507050	0.136023
Zn9	Zn	-0.153275	-1.507078	0.136007
O10	O	0.116151	-1.497208	0.270207
C11	C	-0.000085	-1.273875	0.141231
C12	C	-0.000077	-1.132271	0.138490
N13	N	0.362160	-1.507040	0.136034
C14	C	-0.000095	-0.949003	0.222877
C15	C	-0.114736	-1.041599	0.180718
C16	C	0.114510	-1.041551	0.180708
C17	C	-0.114835	-0.972578	0.091402
C18	C	0.114515	-0.972521	0.091405
C19	C	-0.000154	-1.065091	0.049181
C20	C	0.453362	-1.416593	0.200906
C21	C	0.546533	-1.531896	0.219553
C22	C	0.546544	-1.391780	0.117400
C23	C	0.453279	-1.622401	0.154723
C24	C	0.453282	-1.482210	0.052533
C25	C	0.546411	-1.597596	0.071144
N26	N	0.637646	-1.507073	0.136005
C27	C	-0.000085	-1.515992	-0.032536
C28	C	-0.000084	-1.513242	-0.134932
C29	C	-0.000105	-0.740251	0.130814
C30	C	-0.000098	-0.881847	0.133598
C31	C	-0.000120	-1.503118	-0.509881
C32	C	-0.000109	-1.505929	-0.405558
C33	C	-0.000101	-1.508180	-0.322410
C34	C	-0.000093	-1.510992	-0.218080
C35	C	-0.000113	-1.498136	0.304566
C36	C	-0.000123	-1.500886	0.406962
H37	H	-0.000214	-0.898547	0.296264
F38	F	0.241187	-1.081492	0.230110
F39	F	-0.241432	-1.081596	0.230084
H40	H	0.211447	-0.941882	0.053665
H41	H	-0.211865	-0.942172	0.053657
F42	F	0.399699	-1.454681	-0.039722
F43	F	0.399953	-1.316713	0.272674
H44	H	-0.000207	-1.115314	-0.024274
F45	F	0.600071	-1.559381	0.311834
F46	F	0.399963	-1.749855	0.175415
H47	H	0.587010	-1.674182	0.016269
F48	F	0.600095	-1.264359	0.096813
