data_functionalizedCrystal
_audit_creation_method	'MofGen! by Chris Wilmer'
_symmetry_space_group_name_H-M	'P1'
_symmetry_Int_Tables_number	1
_symmetry_cell_setting	triclinic
loop_
_symmetry_equiv_pos_as_xyz
  x,y,z
_cell_length_a	34.408637
_cell_length_b	34.407814
_cell_length_c	34.404193
_cell_angle_alpha	60.004510
_cell_angle_beta	60.009006
_cell_angle_gamma	59.994604
loop_
_atom_site_label
_atom_site_type_symbol
_atom_site_fract_x
_atom_site_fract_y
_atom_site_fract_z
O1	O	0.053973	-0.567860	0.474801
O2	O	0.020377	-0.442124	0.382567
O3	O	0.100004	-0.521670	0.382483
O4	O	-0.025653	-0.488314	0.474886
O5	O	0.126426	-0.495253	0.408816
O6	O	0.046800	-0.415707	0.408900
O7	O	0.080396	-0.541443	0.501134
Zn8	Zn	0.067793	-0.474381	0.459198
Zn9	Zn	0.032980	-0.509186	0.424503
O10	O	0.000769	-0.461897	0.501219
N11	N	0.091552	-0.450631	0.482879
N12	N	0.009225	-0.532940	0.400823
C13	C	0.142848	-0.268847	0.534081
C14	C	0.142979	-0.399386	0.664559
C15	C	0.142862	-0.399365	0.534081
C16	C	0.273409	-0.399338	0.533986
C17	C	0.157225	-0.311914	0.548422
C18	C	0.157300	-0.385019	0.621491
C19	C	0.230339	-0.384991	0.548370
C20	C	0.157235	-0.385007	0.548422
C21	C	0.124548	-0.214028	0.515827
C22	C	0.124571	-0.417639	0.515827
C23	C	0.175526	-0.366733	0.566676
C24	C	0.353121	-0.385580	0.491988
C25	C	0.402952	-0.402180	0.475348
C26	C	0.402981	-0.482812	0.506096
C27	C	0.353151	-0.466211	0.522737
C28	C	0.136544	-0.189099	0.466839
C29	C	0.119905	-0.139265	0.450247
C30	C	0.079280	-0.139291	0.531632
C31	C	0.095918	-0.189125	0.548224
C32	C	0.075577	-0.405615	0.527900
C33	C	0.058953	-0.422228	0.511301
C34	C	0.140315	-0.462889	0.470566
C35	C	0.156941	-0.446276	0.487159
C36	C	0.075772	-0.405653	0.744326
C37	C	0.059206	-0.422280	0.794159
C38	C	0.140607	-0.462951	0.794094
C39	C	0.157172	-0.446325	0.744260
C40	C	0.124753	-0.417674	0.719377
C41	C	0.328223	-0.417595	0.515681
C42	C	-0.172390	-0.583988	0.349141
C43	C	-0.041751	-0.584138	0.218783
C44	C	-0.041941	-0.584130	0.349402
C45	C	-0.041957	-0.714607	0.349338
C46	C	-0.129326	-0.598388	0.334853
C47	C	-0.056165	-0.598473	0.261852
C48	C	-0.056282	-0.671535	0.334962
C49	C	-0.056272	-0.598469	0.334999
C50	C	-0.227205	-0.565659	0.367327
C51	C	-0.023703	-0.565882	0.367734
C52	C	-0.074511	-0.616717	0.316667
C53	C	-0.055754	-0.794298	0.391257
C54	C	-0.039181	-0.844132	0.407888
C55	C	0.041447	-0.844215	0.377269
C56	C	0.024873	-0.794381	0.360637
C57	C	-0.252183	-0.577666	0.416302
C58	C	-0.302014	-0.561001	0.432833
C59	C	-0.301886	-0.520329	0.351410
C60	C	-0.252055	-0.536994	0.334880
C61	C	-0.035709	-0.516892	0.355682
C62	C	-0.019129	-0.500308	0.372353
C63	C	0.021465	-0.581700	0.413115
C64	C	0.004884	-0.598286	0.396450
C65	C	-0.035389	-0.516907	0.139026
C66	C	-0.018707	-0.500324	0.089193
C67	C	0.021949	-0.581721	0.089240
C68	C	0.005268	-0.598303	0.139074
C69	C	-0.023402	-0.565894	0.163965
C70	C	-0.023728	-0.769425	0.367633
N71	N	0.427173	-0.450553	0.482630
O72	O	0.589997	-0.458460	0.365361
O73	O	0.590185	-0.550997	0.490963
O74	O	0.590104	-0.550786	0.411309
O75	O	0.590077	-0.458671	0.445016
O76	O	0.510940	-0.524462	0.437777
O77	O	0.511020	-0.524674	0.517432
O78	O	0.510832	-0.432136	0.391830
Zn79	Zn	0.498357	-0.474225	0.458833
Zn80	Zn	0.602660	-0.508908	0.423960
O81	O	0.510913	-0.432348	0.471484
N82	N	0.673844	-0.532580	0.400158
N83	N	0.091520	-0.115070	0.482873
O84	O	-0.025663	0.047841	0.474857
O85	O	0.099940	0.047877	0.382299
O86	O	0.020247	0.047844	0.382560
O87	O	0.054030	0.047874	0.474596
O88	O	0.046674	-0.031326	0.408942
O89	O	0.126367	-0.031293	0.408680
O90	O	0.000764	-0.031329	0.501238
Zn91	Zn	0.067761	-0.043881	0.459148
Zn92	Zn	0.032943	0.060429	0.424389
O93	O	0.080457	-0.031296	0.500977
N94	N	0.009178	0.131618	0.400665
N95	N	0.091852	-0.450680	0.818332
O96	O	0.083862	-0.567845	0.981235
O97	O	-0.008657	-0.442198	0.981276
O98	O	-0.008441	-0.521875	0.981252
O99	O	0.083646	-0.488168	0.981258
O100	O	0.017919	-0.495468	0.902085
O101	O	0.017703	-0.415791	0.902109
O102	O	0.110222	-0.541438	0.902067
Zn103	Zn	0.068148	-0.474422	0.889518
Zn104	Zn	0.033417	-0.509214	0.993825
O105	O	0.110006	-0.461761	0.902091
N106	N	0.009712	-0.532961	1.065011
C107	C	0.030439	-0.413071	0.383027
C108	C	0.129046	-0.511580	0.382922
C109	C	0.070334	-0.570496	0.500675
C110	C	-0.028274	-0.471987	0.500780
C111	C	0.550625	-0.550579	0.520021
C112	C	0.550527	-0.550317	0.421379
C113	C	0.550389	-0.432554	0.362773
C114	C	0.550491	-0.432816	0.461414
C115	C	0.128944	0.008394	0.382712
C116	C	0.030287	0.008256	0.383068
C117	C	-0.028273	0.008252	0.500793
C118	C	0.070417	0.008292	0.500470
C119	C	-0.008218	-0.413165	0.941698
C120	C	-0.007945	-0.511830	0.941653
C121	C	0.109783	-0.570471	0.941646
C122	C	0.109516	-0.471800	0.941673
H123	H	0.019320	-0.412483	0.814467
H124	H	-0.058738	-0.490513	0.159288
O125	O	0.550772	-0.585251	0.563035
C126	C	0.591785	-0.596266	0.571543
H127	H	0.620405	-0.585702	0.536196
H128	H	0.605593	-0.636127	0.590763
H129	H	0.582522	-0.575878	0.594551
H130	H	0.550329	-0.403500	0.326702
H131	H	-0.064344	0.008241	0.529850
O132	O	0.550458	-0.398338	0.470100
C133	C	0.550531	-0.415686	0.516873
H134	H	0.535584	-0.446264	0.539401
H135	H	0.527543	-0.385884	0.532908
H136	H	0.588524	-0.428937	0.516133
O137	O	0.079134	0.008271	0.534925
C138	C	0.125920	0.008296	0.517561
H139	H	0.148422	-0.006684	0.486998
H140	H	0.141963	-0.014691	0.547358
H141	H	0.125208	0.046281	0.504285
O142	O	0.550518	-0.584781	0.412706
C143	C	0.550472	-0.567443	0.365924
H144	H	0.535445	-0.526896	0.353419
H145	H	0.527493	-0.581958	0.365259
H146	H	0.588439	-0.579453	0.341267
O147	O	0.021674	0.008152	0.348613
C148	C	0.010476	-0.032860	0.365035
H149	H	0.025858	-0.061503	0.394589
H150	H	0.026351	-0.046636	0.334391
H151	H	-0.029833	-0.023604	0.379406
O152	O	0.171846	0.008727	0.347899
C153	C	0.165316	0.049821	0.307927
H154	H	0.127310	0.063328	0.308590
H155	H	0.191359	0.040778	0.274020
H156	H	0.171998	0.078587	0.308847
O157	O	-0.042827	-0.370097	0.941733
C158	C	-0.025689	-0.340469	0.941728
H159	H	0.004875	-0.363358	0.956708
H160	H	-0.055600	-0.317668	0.964722
H161	H	-0.012486	-0.316425	0.903750
H162	H	0.165136	-0.518689	0.353905
O163	O	0.204524	-0.457976	0.475514
C164	C	0.216617	-0.483081	0.517360
H165	H	0.183801	-0.474106	0.548691
H166	H	0.245521	-0.472474	0.512879
H167	H	0.230308	-0.522965	0.524347
H168	H	-0.036863	-0.519031	0.941619
O169	O	0.144379	-0.613552	0.941650
C170	C	0.127251	-0.643170	0.941627
H171	H	0.086705	-0.630282	0.956624
H172	H	0.141858	-0.681306	0.964598
H173	H	0.139338	-0.641874	0.903642
H174	H	0.049370	-0.382321	0.724071
O175	O	0.172163	-0.490791	0.818192
C176	C	0.218948	-0.497826	0.785486
H177	H	0.218826	-0.492246	0.749971
H178	H	0.242628	-0.535621	0.799858
H179	H	0.233223	-0.471301	0.780181
H180	H	0.049217	-0.382297	0.551240
O181	O	0.143987	-0.463112	0.941647
C182	C	0.126643	-0.416323	0.941672
H183	H	0.096077	-0.393800	0.926695
H184	H	0.156448	-0.400305	0.918685
H185	H	0.113380	-0.417029	0.979655
H186	H	0.023260	-0.376951	0.354059
H187	H	0.019058	-0.412426	0.521121
O188	O	0.204739	-0.457976	0.719953
C189	C	0.212412	-0.437150	0.670633
H190	H	0.179699	-0.429643	0.663854
H191	H	0.244703	-0.462586	0.651675
H192	H	0.219039	-0.402383	0.656491
O193	O	0.171784	-0.490638	0.442651
C194	C	0.200569	-0.465462	0.400856
H195	H	0.181310	-0.425595	0.393944
H196	H	0.208083	-0.474369	0.369465
H197	H	0.235591	-0.476064	0.405359
O198	O	0.328992	-0.497323	0.545674
C199	C	0.341162	-0.520662	0.515177
H200	H	0.354826	-0.497961	0.476600
H201	H	0.308393	-0.526277	0.521081
H202	H	0.370108	-0.556619	0.523189
O203	O	0.427270	-0.530018	0.512889
C204	C	0.476591	-0.537805	0.493131
H205	H	0.483371	-0.503505	0.464567
H206	H	0.495523	-0.566918	0.476566
H207	H	0.490761	-0.549289	0.522283
O208	O	0.427120	-0.371051	0.452259
C209	C	0.414893	-0.337214	0.411197
H210	H	0.401178	-0.352572	0.399763
H211	H	0.447647	-0.328085	0.381268
H212	H	0.385969	-0.303626	0.419358
O213	O	0.328830	-0.338366	0.485158
C214	C	0.279509	-0.330578	0.504934
H215	H	0.272703	-0.361038	0.507338
H216	H	0.260546	-0.295578	0.481380
H217	H	0.265395	-0.328818	0.542072
O218	O	0.164331	-0.213214	0.435303
C219	C	0.171356	-0.180524	0.388506
H220	H	0.141301	-0.145008	0.388617
H221	H	0.171596	-0.194920	0.364856
H222	H	0.206850	-0.175210	0.374203
H223	H	0.055974	-0.119015	0.558014
O224	O	0.131474	-0.115024	0.402664
C225	C	0.089580	-0.086199	0.390659
H226	H	0.059665	-0.101233	0.418768
H227	H	0.096116	-0.085623	0.354488
H228	H	0.079082	-0.048432	0.389013
H229	H	0.086148	-0.209418	0.588113
H230	H	0.077514	-0.606615	0.529644
O231	O	-0.071347	-0.463426	0.535353
C232	C	-0.100939	-0.416658	0.518149
H233	H	-0.078024	-0.394048	0.487572
H234	H	-0.123736	-0.400723	0.548023
H235	H	-0.124986	-0.417387	0.504942
H236	H	-0.028474	-0.460433	0.068892
H237	H	0.045284	-0.608113	0.068976
H238	H	-0.058984	-0.490504	0.332300
O239	O	0.016939	-0.645908	0.163226
C240	C	0.045826	-0.670954	0.130569
H241	H	0.039526	-0.647187	0.095015
H242	H	0.036462	-0.704186	0.144944
H243	H	0.084846	-0.681741	0.125339
H244	H	-0.028907	-0.460416	0.362542
H245	H	0.044746	-0.608091	0.436494
H246	H	0.050956	-0.774133	0.341399
O247	O	0.016526	-0.645886	0.408234
C248	C	-0.000596	-0.666555	0.458143
H249	H	-0.005501	-0.642932	0.475601
H250	H	0.026076	-0.703228	0.469835
H251	H	-0.036208	-0.670221	0.469349
O252	O	0.088676	-0.868384	0.370417
C253	C	0.113389	-0.835744	0.346009
H254	H	0.091692	-0.800210	0.325551
H255	H	0.149341	-0.850176	0.320034
H256	H	0.119120	-0.830451	0.372704
H257	H	-0.095331	-0.773979	0.396956
O258	O	-0.070328	-0.868246	0.430776
C259	C	-0.093604	-0.856064	0.400217
H260	H	-0.092415	-0.819894	0.371849
H261	H	-0.132241	-0.854323	0.421710
H262	H	-0.074980	-0.884122	0.382380
O263	O	-0.228100	-0.605559	0.447869
C264	C	-0.240315	-0.647328	0.476655
H265	H	-0.276479	-0.640605	0.477076
H266	H	-0.242079	-0.657832	0.514467
H267	H	-0.212267	-0.677324	0.461699
O268	O	-0.326300	-0.572583	0.480405
C269	C	-0.355129	-0.530697	0.492422
H270	H	-0.340074	-0.500786	0.464350
H271	H	-0.355746	-0.537263	0.528622
H272	H	-0.392880	-0.520172	0.494013
H273	H	-0.231721	-0.527215	0.295000
O274	O	-0.325953	-0.492475	0.319827
C275	C	-0.293220	-0.485469	0.273054
H276	H	-0.257714	-0.491074	0.273208
H277	H	-0.307568	-0.447674	0.249362
H278	H	-0.287908	-0.511993	0.258769
