data_functionalizedCrystal
_audit_creation_method	'MofGen! by Chris Wilmer'
_symmetry_space_group_name_H-M	'P1'
_symmetry_Int_Tables_number	1
_symmetry_cell_setting	triclinic
loop_
_symmetry_equiv_pos_as_xyz
  x,y,z
_cell_length_a	19.805407
_cell_length_b	19.077119
_cell_length_c	19.805399
_cell_angle_alpha	87.736954
_cell_angle_beta	90.023391
_cell_angle_gamma	92.333261
loop_
_atom_site_label
_atom_site_type_symbol
_atom_site_fract_x
_atom_site_fract_y
_atom_site_fract_z
Zn1	Zn	-1.023851	0.280233	-0.393628
Zn2	Zn	-1.019206	0.397935	-0.284972
Zn3	Zn	-0.910670	0.280253	-0.280440
Zn4	Zn	-0.906066	0.397892	-0.398104
O5	O	-0.964948	0.339078	-0.339286
O6	O	-1.117951	0.295857	-0.379237
O7	O	-1.004792	0.382350	-0.189655
O8	O	-0.929554	0.181759	-0.291685
O9	O	-1.114539	0.382332	-0.299408
O10	O	-1.012707	0.181745	-0.374843
O11	O	-0.925050	0.295890	-0.186326
O12	O	-0.815343	0.295848	-0.296025
O13	O	-0.921707	0.382258	-0.492226
O14	O	-0.811961	0.382277	-0.382473
O15	O	-1.008243	0.295815	-0.488937
O16	O	-1.000328	0.496420	-0.303749
O17	O	-0.917204	0.496389	-0.386866
C18	C	-0.789093	0.339060	-0.339243
C19	C	-0.713861	0.339070	-0.339242
C20	C	-0.250323	0.384158	-0.384254
C21	C	-0.321011	0.384158	-0.384242
C22	C	-0.358098	0.339088	-0.339293
C23	C	-0.324493	0.294021	-0.294348
C24	C	-0.253805	0.294026	-0.294358
C25	C	-0.609567	0.294003	-0.294309
C26	C	-0.680259	0.294001	-0.294305
C27	C	-0.676773	0.384135	-0.384194
C28	C	-0.606085	0.384140	-0.384203
C29	C	-0.572486	0.339076	-0.339256
C30	C	-0.495837	0.339077	-0.339269
C31	C	-0.434745	0.339082	-0.339283
C32	C	-0.957781	0.521942	-0.346300
C33	C	-0.954776	0.600172	-0.349323
C34	C	-0.964980	0.339030	-0.515827
C35	C	-0.964993	0.339009	-0.591058
C36	C	-0.141490	0.339094	-0.339321
C37	C	-0.216722	0.339093	-0.339314
C38	C	-0.933238	1.040524	-0.371037
C39	C	-0.936060	0.967019	-0.368189
C40	C	-0.980782	0.930262	-0.323521
C41	C	-1.022689	0.967013	-0.281703
C42	C	-1.019869	1.040517	-0.284555
C43	C	-0.993863	0.710428	-0.310357
C44	C	-0.996678	0.636919	-0.307507
C45	C	-0.910051	0.636929	-0.393994
C46	C	-0.907232	0.710434	-0.396839
C47	C	-0.949141	0.747180	-0.355024
N48	N	-0.983667	0.855127	-0.320607
N49	N	-0.946259	0.822313	-0.357942
C50	C	-0.972138	1.155501	-0.332248
C51	C	-0.975140	1.077271	-0.329221
C52	C	-0.923484	0.293984	-0.624668
C53	C	-0.923494	0.293971	-0.695356
C54	C	-0.965017	0.338978	-0.732433
C55	C	-1.006528	0.384008	-0.698818
C56	C	-1.006514	0.384024	-0.628131
C57	C	-1.006584	0.383942	-0.983889
C58	C	-1.006596	0.383920	-1.054580
C59	C	-0.923564	0.293888	-1.051113
C60	C	-0.923550	0.293905	-0.980427
C61	C	-0.965058	0.338936	-0.946818
C62	C	-0.965046	0.338952	-0.870171
C63	C	-0.965033	0.338960	-0.809079
C64	C	-0.964958	0.339076	-0.163430
C65	C	-0.965083	0.338899	-0.088191
H66	H	-0.582219	0.257312	-0.257709
H67	H	-0.354694	0.257328	-0.257747
H68	H	-0.226449	0.257327	-0.257765
Cl69	Cl	-1.046548	0.756613	-0.257788
Cl70	Cl	-1.058695	0.440632	-0.585879
Cl71	Cl	-0.877008	1.086726	-0.427189
H72	H	-0.889765	0.257223	-1.078486
H73	H	-0.575892	0.420838	-0.420807
H74	H	-1.059106	0.937082	-0.245336
H75	H	-0.220132	0.420855	-0.420860
Cl76	Cl	-1.052896	0.590711	-0.251340
Cl77	Cl	-0.851017	0.756638	-0.453005
H78	H	-1.040410	0.420573	-1.084766
H79	H	-0.889741	0.257253	-0.950242
H80	H	-0.901941	0.937100	-0.402239
Cl81	Cl	-0.857373	0.590731	-0.446562
Cl82	Cl	-0.363249	0.440816	-0.440739
H83	H	-1.053992	1.070436	-0.250506
H84	H	-0.889676	0.257330	-0.594485
H85	H	-0.889691	0.257310	-0.722718
H86	H	-1.040374	0.420617	-0.956534
H87	H	-0.704137	0.420831	-0.420790
Cl88	Cl	-0.726882	0.237338	-0.237793
Cl89	Cl	-1.058724	0.440593	-0.745429
