data_functionalizedCrystal
_audit_creation_method	'MofGen! by Chris Wilmer'
_symmetry_space_group_name_H-M	'P1'
_symmetry_Int_Tables_number	1
_symmetry_cell_setting	triclinic
loop_
_symmetry_equiv_pos_as_xyz
  x,y,z
_cell_length_a	18.426585
_cell_length_b	20.875641
_cell_length_c	18.426585
_cell_angle_alpha	57.589776
_cell_angle_beta	90.001513
_cell_angle_gamma	62.441129
loop_
_atom_site_label
_atom_site_type_symbol
_atom_site_fract_x
_atom_site_fract_y
_atom_site_fract_z
Zr1	Zr	0.728260	0.702141	-0.124403
O2	O	0.617934	0.835961	-0.245836
O3	O	0.758227	0.568322	-0.083325
O4	O	0.763776	0.702147	-0.240286
O5	O	0.612391	0.702131	0.030555
O6	O	0.883202	0.702152	-0.240289
O7	O	0.612385	0.702136	-0.088876
O8	O	0.873277	0.462763	0.040484
O9	O	0.622317	0.941520	-0.250218
O10	O	0.864790	0.623367	-0.070463
O11	O	0.775668	0.623361	0.018670
O12	O	0.782201	0.780922	-0.166130
O13	O	0.693079	0.780916	-0.076998
Zr14	Zr	0.918740	0.702141	0.066070
Zr15	Zr	0.918730	0.702149	-0.124408
Zr16	Zr	0.728269	0.702134	0.066076
Zr17	Zr	0.735250	0.870496	-0.131392
Zr18	Zr	0.911750	0.533787	0.073059
O19	O	0.888772	0.835961	0.024993
O20	O	0.888759	0.835971	-0.245844
O21	O	0.617947	0.835951	0.025000
O22	O	1.029066	0.568322	0.187504
O23	O	1.029052	0.568332	-0.083333
O24	O	0.758241	0.568312	0.187511
O25	O	1.034609	0.702152	-0.088888
O26	O	0.883224	0.702136	0.181953
O27	O	0.763797	0.702131	0.181956
O28	O	1.034615	0.702147	0.030543
O29	O	0.773716	0.941525	-0.250222
O30	O	0.873284	0.462758	0.191890
O31	O	1.024683	0.462763	0.191885
O32	O	1.024675	0.462769	0.040480
O33	O	0.622324	0.941514	-0.098813
O34	O	0.773723	0.941520	-0.098817
O35	O	0.864799	0.623361	0.107798
O36	O	0.953921	0.623367	0.018665
O37	O	0.871332	0.780922	-0.077003
O38	O	0.782210	0.780916	0.012130
C39	C	0.814756	0.491556	-0.020425
C40	C	0.811788	0.420085	-0.017458
C41	C	0.585250	0.702133	-0.029160
C42	C	0.504390	0.702129	-0.029158
C43	C	0.856913	0.386511	-0.062591
C44	C	0.854126	0.319352	-0.059794
C45	C	0.806211	0.285772	-0.011870
C46	C	0.761085	0.319349	0.033268
C47	C	0.763877	0.386502	0.030476
C48	C	0.792878	0.084928	0.001472
C49	C	0.790087	0.017771	0.004258
C50	C	0.883130	0.017778	-0.088803
C51	C	0.885913	0.084937	-0.091595
C52	C	0.840792	0.118504	-0.046453
N53	N	0.803359	0.217127	-0.009013
N54	N	0.843648	0.187144	-0.049305
C55	C	0.208276	0.702157	-0.029174
C56	C	0.290662	0.702153	-0.029172
C57	C	0.356331	0.702143	-0.029167
C58	C	0.438722	0.702139	-0.029163
C59	C	1.061750	0.702150	-0.029173
C60	C	1.142610	0.702153	-0.029175
C61	C	0.823488	0.702150	-0.267426
C62	C	0.823484	0.702153	-0.348290
C63	C	0.832244	0.912727	-0.037908
C64	C	0.835211	0.984198	-0.040875
C65	C	0.823516	0.702126	-0.644372
C66	C	0.823509	0.702130	-0.561991
C67	C	0.823499	0.702140	-0.496334
C68	C	0.823493	0.702144	-0.413947
C69	C	0.823512	0.702133	0.209094
C70	C	0.823516	0.702129	0.289957
C71	C	1.053006	0.491565	-0.020431
C72	C	1.130898	0.420097	-0.017467
C73	C	0.814768	0.491547	0.217835
C74	C	0.811805	0.420073	0.301665
C75	C	1.053018	0.491556	0.217829
C76	C	1.130914	0.420085	0.301657
C77	C	0.593982	0.912727	-0.276161
C78	C	0.516085	0.984198	-0.359989
C79	C	0.593994	0.912718	-0.037901
C80	C	0.516102	0.984186	-0.040866
C81	C	0.832232	0.912736	-0.276168
C82	C	0.835195	0.984210	-0.359998
C83	C	1.120952	0.386535	-0.062606
C84	C	1.194133	0.319393	-0.059839
C85	C	1.277260	0.285809	-0.011926
C86	C	1.287204	0.319378	0.033215
C87	C	1.214024	0.386523	0.030441
C88	C	0.856938	0.386508	0.387564
C89	C	0.854151	0.319360	0.466339
C90	C	0.806234	0.285774	0.459212
C91	C	0.761095	0.319345	0.373303
C92	C	0.763878	0.386497	0.294531
C93	C	1.214024	0.386525	0.294497
C94	C	1.287223	0.319380	0.373254
C95	C	1.277311	0.285792	0.459171
C96	C	1.194193	0.319358	0.466329
C97	C	1.120996	0.386507	0.387572
C98	C	0.432976	1.017766	-0.352830
C99	C	0.359777	1.084932	-0.431588
C100	C	0.369690	1.118524	-0.517505
C101	C	0.452808	1.084953	-0.524663
C102	C	0.526005	1.017793	-0.445905
C103	C	0.526048	1.017755	0.004265
C104	C	0.452868	1.084916	0.001476
C105	C	0.369741	1.118502	-0.046439
C106	C	0.359796	1.084930	-0.091576
C107	C	0.432976	1.017775	-0.088792
C108	C	0.883120	1.017775	-0.352842
C109	C	0.885922	1.084923	-0.431601
C110	C	0.840793	1.118510	-0.517516
C111	C	0.792866	1.084938	-0.524671
C112	C	0.790070	1.017786	-0.445912
H113	H	0.895926	0.413852	-0.101620
O114	O	1.376865	0.283152	0.084889
H115	H	1.383332	0.252552	0.157669
H116	H	1.222111	0.413863	0.224546
H117	H	0.919870	0.990439	-0.282893
O118	O	0.270134	1.121129	-0.423859
H119	H	0.232752	1.108254	-0.455726
H120	H	0.424889	0.990419	-0.282879
O121	O	0.937612	1.121128	-0.423876
H122	H	0.968508	1.086499	-0.350901
O123	O	0.843799	1.190950	-0.602462
H124	H	0.884699	1.208650	-0.583044
H125	H	0.919867	-0.009559	-0.125555
O126	O	0.270135	1.121156	-0.143249
H127	H	0.263658	1.151764	-0.216031
O128	O	0.908625	0.422721	0.395271
H129	H	0.902993	0.475051	0.326070
H130	H	0.310081	1.173210	-0.581627
H131	H	1.053273	0.413878	-0.101633
H132	H	0.890871	0.292016	-0.096544
H133	H	0.756140	0.112247	0.038234
H134	H	0.593727	0.990414	0.043289
H135	H	1.336840	0.231134	-0.009674
O136	O	0.744217	1.121169	-0.617350
H137	H	0.768774	1.064804	-0.622748
H138	H	0.751041	0.990465	-0.451751
O139	O	1.376856	0.283215	0.365495
H140	H	1.414218	0.296137	0.397318
O141	O	0.463602	1.121107	0.050175
H142	H	0.533700	1.086452	0.083975
O143	O	0.738417	-0.018463	0.055963
H144	H	0.707520	0.016151	0.086895
O145	O	1.356263	0.213357	0.544115
H146	H	1.415717	0.195660	0.524693
O147	O	0.709420	0.283109	0.365630
H148	H	0.678494	0.317729	0.292665
O149	O	0.937591	0.121158	-0.143287
H150	H	0.968505	0.086526	-0.174198
H151	H	1.186135	0.292000	0.536293
H152	H	0.460868	1.112312	-0.594625
H153	H	0.593674	0.990462	-0.451745
O154	O	0.709398	0.283139	0.084955
H155	H	0.715028	0.230811	0.079305
O156	O	0.902857	0.283147	0.558988
H157	H	0.878331	0.339522	0.564367
H158	H	0.310161	1.173184	-0.048699
H159	H	0.424865	0.990445	-0.125541
H160	H	1.222135	0.413841	0.067205
H161	H	0.803975	0.231095	0.523360
H162	H	1.053326	0.413822	0.393414
H163	H	0.727130	0.413839	0.067225
H164	H	1.186019	0.292069	-0.096598
H165	H	0.727127	0.413816	0.224591
