data_functionalizedCrystal
_audit_creation_method	'MofGen! by Chris Wilmer'
_symmetry_space_group_name_H-M	'P1'
_symmetry_Int_Tables_number	1
_symmetry_cell_setting	triclinic
loop_
_symmetry_equiv_pos_as_xyz
  x,y,z
_cell_length_a	14.560438
_cell_length_b	14.560438
_cell_length_c	14.560438
_cell_angle_alpha	90.000736
_cell_angle_beta	60.000203
_cell_angle_gamma	60.001767
loop_
_atom_site_label
_atom_site_type_symbol
_atom_site_fract_x
_atom_site_fract_y
_atom_site_fract_z
Zr1	Zr	1.005293	-0.120518	0.884749
O2	O	1.196890	-0.267160	0.738101
O3	O	0.813693	-0.075567	0.929704
O4	O	1.005292	-0.267165	0.929703
O5	O	1.005294	0.075576	0.738104
O6	O	1.005295	-0.267166	1.080841
O7	O	1.005292	-0.075562	0.738103
O8	O	0.662560	0.075568	1.080844
O9	O	1.348029	-0.267158	0.738101
O10	O	0.892505	-0.056394	1.061670
O11	O	0.892505	0.056400	0.948878
O12	O	1.118087	-0.169183	0.948876
O13	O	1.118087	-0.056389	0.836084
Zr14	Zr	1.005302	0.120527	1.125798
Zr15	Zr	1.005298	-0.120521	1.125797
Zr16	Zr	1.005297	0.120530	0.884750
Zr17	Zr	1.246342	-0.120515	0.884748
Zr18	Zr	0.764253	0.120524	1.125799
O19	O	1.196902	0.075576	1.080842
O20	O	1.196896	-0.267164	1.080840
O21	O	1.196896	0.075579	0.738103
O22	O	0.813705	0.267169	1.272445
O23	O	0.813700	-0.075570	1.272443
O24	O	0.813699	0.267173	0.929706
O25	O	1.005301	-0.075567	1.272443
O26	O	1.005304	0.267174	1.080844
O27	O	1.005301	0.267175	0.929706
O28	O	1.005304	0.075571	1.272444
O29	O	1.348032	-0.267160	0.929702
O30	O	0.662563	0.267169	1.080845
O31	O	0.662567	0.267167	1.272446
O32	O	0.662564	0.075566	1.272445
O33	O	1.348032	-0.075557	0.738102
O34	O	1.348035	-0.075559	0.929703
O35	O	0.892508	0.169191	1.061671
O36	O	0.892509	0.056398	1.174463
O37	O	1.118091	-0.056391	1.061669
O38	O	1.118091	0.056403	0.948877
C39	C	0.703782	0.000000	1.005274
C40	C	0.601451	-0.000001	1.005274
C41	C	1.005292	0.000007	0.703759
C42	C	1.005290	0.000008	0.601428
C43	C	1.005303	0.301519	1.005275
C44	C	1.005304	0.403850	1.005275
C45	C	0.553377	-0.058880	1.064147
C46	C	0.457219	-0.058872	1.064149
C47	C	0.457223	0.058897	0.946398
C48	C	0.553372	0.058894	0.946403
C49	C	0.553378	-0.126877	1.132125
C50	C	0.457220	-0.126868	1.132128
C51	C	1.306813	0.000009	1.005272
C52	C	1.409144	0.000010	1.005272
C53	C	1.005293	-0.301510	1.005272
C54	C	1.005291	-0.403841	1.005271
C55	C	1.123054	0.393054	0.946400
C56	C	1.123048	0.489209	0.946394
C57	C	0.887532	0.606953	1.064149
C58	C	0.887540	0.510799	1.064147
C59	C	0.887549	0.058878	0.516065
C60	C	0.887540	0.058879	0.612221
C61	C	1.123056	-0.058876	0.494470
C62	C	1.123063	-0.058883	0.398317
C63	C	1.005303	0.000001	1.306788
C64	C	1.005305	0.000000	1.409119
C65	C	0.703788	-0.000003	1.306788
C66	C	0.601458	-0.000005	1.409120
C67	C	0.703788	0.301515	1.005276
C68	C	0.601458	0.403844	1.005277
C69	C	0.703793	0.301512	1.306790
C70	C	0.601465	0.403840	1.409122
C71	C	1.306802	-0.301503	0.703757
C72	C	1.409130	-0.403831	0.601425
C73	C	1.306807	0.000012	0.703758
C74	C	1.409137	0.000014	0.601427
C75	C	1.306808	-0.301506	1.005271
C76	C	1.409138	-0.403835	1.005270
C77	C	0.553379	-0.058880	1.398321
C78	C	0.457237	-0.058886	1.494476
C79	C	0.457259	0.058866	1.612225
C80	C	0.553405	0.058865	1.516071
C81	C	0.553383	0.510795	1.064153
C82	C	0.457243	0.606941	1.064141
C83	C	0.457256	0.489171	0.946375
C84	C	0.553401	0.393028	0.946381
C85	C	0.553389	0.393040	1.516074
C86	C	0.457250	0.489193	1.612222
C87	C	0.457267	0.606942	1.494452
C88	C	0.553411	0.510791	1.398306
H89	H	0.592495	0.106854	0.898478
H90	H	1.218931	0.480409	0.898450
H91	H	0.649151	-0.213926	1.087267
Cl92	Cl	0.613797	0.524396	1.138189
H93	H	0.592556	0.106808	1.524872
H94	H	0.791663	0.106823	0.524866
H95	H	0.418097	-0.106830	1.485674
H96	H	0.791653	0.694040	1.112082
H97	H	0.418106	0.694022	1.112082
H98	H	0.592514	0.305960	1.524886
H99	H	0.418115	0.480379	0.898426
Cl100	Cl	0.396769	0.132936	0.872397
Cl101	Cl	0.739499	0.524372	1.138161
H102	H	0.592559	0.519593	1.311215
Cl103	Cl	0.309342	-0.057606	1.266524
Cl104	Cl	0.613850	0.258565	0.872352
Cl105	Cl	0.613793	-0.132895	1.263872
Cl106	Cl	0.396836	0.132876	1.746681
H107	H	0.418110	0.480392	1.699305
H108	H	0.418128	0.694031	1.485660
H109	H	1.218960	-0.106835	0.311230
H110	H	0.515548	-0.089064	1.222154
H111	H	1.218945	0.305975	0.898460
Cl112	Cl	0.515607	-0.265855	1.073734
Cl113	Cl	0.739497	0.132898	0.746667
H114	H	1.218930	-0.106816	0.485689
