data_functionalizedCrystal
_audit_creation_method	'MofGen! by Chris Wilmer'
_symmetry_space_group_name_H-M	'P1'
_symmetry_Int_Tables_number	1
_symmetry_cell_setting	triclinic
loop_
_symmetry_equiv_pos_as_xyz
  x,y,z
_cell_length_a	19.077692
_cell_length_b	13.897449
_cell_length_c	19.076919
_cell_angle_alpha	87.723209
_cell_angle_beta	94.657889
_cell_angle_gamma	92.269235
loop_
_atom_site_label
_atom_site_type_symbol
_atom_site_fract_x
_atom_site_fract_y
_atom_site_fract_z
Zn1	Zn	-0.296667	-1.468342	-0.409947
Zn2	Zn	0.203333	-0.968342	0.090053
Zn3	Zn	-0.409813	-1.480679	-0.296799
Zn4	Zn	0.090187	-0.980679	0.203201
Zn5	Zn	-0.291951	-1.313277	-0.292068
Zn6	Zn	0.208049	-0.813277	0.207932
Zn7	Zn	-0.414509	-1.313212	-0.414634
Zn8	Zn	0.085491	-0.813212	0.085366
O9	O	-0.353235	-1.393877	-0.353362
O10	O	0.146765	-0.893877	0.146638
O11	O	-0.311685	-1.604960	-0.394956
O12	O	0.188315	-1.104960	0.105044
O13	O	-0.390239	-1.463663	-0.197525
O14	O	0.109761	-0.963663	0.302475
O15	O	-0.193934	-1.328710	-0.303764
O16	O	0.306066	-0.828710	0.196236
O17	O	-0.394812	-1.614024	-0.311827
O18	O	0.105188	-1.114024	0.188173
O19	O	-0.197399	-1.442636	-0.390369
O20	O	0.302601	-0.942636	0.109631
O21	O	-0.303647	-1.340673	-0.194049
O22	O	0.196353	-0.840673	0.305951
O23	O	-0.308200	-1.178287	-0.308308
O24	O	0.191800	-0.678287	0.191692
O25	O	-0.402816	-1.328600	-0.512659
O26	O	0.097184	-0.828600	-0.012659
O27	O	-0.398243	-1.178240	-0.398357
O28	O	0.101757	-0.678240	0.101643
O29	O	-0.316238	-1.442574	-0.509216
O30	O	0.183762	-0.942574	-0.009216
O31	O	-0.509078	-1.463601	-0.316372
O32	O	-0.009078	-0.963601	0.183628
O33	O	-0.512528	-1.340563	-0.402944
O34	O	-0.012528	-0.840563	0.097056
C35	C	-0.353220	-1.143264	-0.353328
C36	C	0.146780	-0.643264	0.146672
C37	C	-0.353231	-1.036051	-0.353331
C38	C	0.146769	-0.536051	0.146669
C39	C	-0.536381	-1.403439	-0.360695
C40	C	-0.036381	-0.903439	0.139305
C41	C	-0.614732	-1.407617	-0.363856
C42	C	-0.114732	-0.907617	0.136144
C43	C	-0.353233	-0.948981	-0.353340
C44	C	0.146767	-0.448981	0.146660
C45	C	-0.353237	-0.839747	-0.353358
C46	C	0.146763	-0.339747	0.146642
C47	C	-0.649800	-1.350321	-0.320221
C48	C	-0.149800	-0.850321	0.179779
C49	C	-0.723419	-1.354256	-0.323194
C50	C	-0.223419	-0.854256	0.176806
C51	C	-0.761971	-1.415482	-0.369806
C52	C	-0.261971	-0.915482	0.130194
C53	C	-0.726898	-1.472783	-0.413443
C54	C	-0.226898	-0.972783	0.086557
C55	C	-0.653280	-1.468853	-0.410466
C56	C	-0.153280	-0.968853	0.089534
C57	C	-0.982333	-1.433596	-0.383545
C58	C	-0.482333	-0.933596	0.116455
C59	C	-1.055957	-1.437520	-0.386520
C60	C	-0.555957	-0.937520	0.113480
C61	C	-1.052473	-1.318993	-0.296270
C62	C	-0.552473	-0.818993	0.203730
C63	C	-0.978853	-1.315064	-0.293300
C64	C	-0.478853	-0.815064	0.206700
C65	C	-0.943787	-1.372369	-0.336934
C66	C	-0.443787	-0.872369	0.163066
N67	N	-0.837222	-1.419503	-0.372848
N68	N	-0.337222	-0.919503	0.127152
N69	N	-0.868537	-1.368353	-0.333889
N70	N	-0.368537	-0.868353	0.166111
C71	C	-0.169375	-1.384304	-0.346016
C72	C	0.330625	-0.884304	0.153984
C73	C	-0.091024	-1.380224	-0.342885
C74	C	0.408976	-0.880224	0.157115
C75	C	-0.360577	-1.384204	-0.537231
C76	C	0.139423	-0.884204	-0.037231
C77	C	-0.363705	-1.380081	-0.615585
C78	C	0.136295	-0.880081	-0.115585
C79	C	-0.353247	-0.645470	-0.353388
C80	C	0.146753	-0.145470	0.146612
C81	C	-0.353244	-0.752684	-0.353376
C82	C	0.146756	-0.252684	0.146624
C83	C	-0.320101	-1.437481	-0.650604
C84	C	0.179899	-0.937481	-0.150604
C85	C	-0.323038	-1.433596	-0.724225
C86	C	0.176962	-0.933596	-0.224225
C87	C	-0.369583	-1.372315	-0.762827
C88	C	0.130417	-0.872315	-0.262827
C89	C	-0.413189	-1.314908	-0.727803
C90	C	0.086811	-0.814908	-0.227803
C91	C	-0.410248	-1.318789	-0.654182
C92	C	0.089752	-0.818789	-0.154182
C93	C	-0.383209	-1.354340	-0.983201
C94	C	0.116791	-0.854340	-0.483201
C95	C	-0.386148	-1.350465	-1.056826
C96	C	0.113852	-0.850465	-0.556826
C97	C	-0.295995	-1.469152	-1.053244
C98	C	0.204005	-0.969152	-0.553244
C99	C	-0.293061	-1.473032	-0.979622
C100	C	0.206939	-0.973032	-0.479622
C101	C	-0.336665	-1.415622	-0.944604
C102	C	0.163335	-0.915622	-0.444604
N103	N	-0.372588	-1.368344	-0.838080
N104	N	0.127412	-0.868344	-0.338080
N105	N	-0.333656	-1.419588	-0.869352
N106	N	0.166344	-0.919588	-0.369352
C107	C	-0.345871	-1.403567	-0.170207
C108	C	0.154129	-0.903567	0.329793
C109	C	-0.342544	-1.407865	-0.091845
C110	C	0.157456	-0.907865	0.408155
H111	H	-0.751968	-1.307603	-0.287660
H112	H	-0.251968	-0.807603	0.212340
C113	C	-0.841296	-1.531429	-0.458085
C114	C	-0.341296	-1.031429	0.041915
C115	C	-0.769272	-1.540082	-0.464682
C116	C	-0.269272	-1.040082	0.035318
H117	H	-0.867453	-1.572972	-0.489723
H118	H	-0.367453	-1.072972	0.010277
H119	H	-0.851481	-1.548737	-0.411226
H120	H	-0.351481	-1.048737	0.088774
H121	H	-0.853799	-1.466709	-0.468844
H122	H	-0.353799	-0.966709	0.031156
H123	H	-0.756767	-1.604801	-0.453917
H124	H	-0.256767	-1.104801	0.046083
H125	H	-0.759082	-1.522780	-0.511552
H126	H	-0.259082	-1.022780	-0.011552
C127	C	-0.964358	-1.472956	-0.502026
C128	C	-0.464358	-0.972956	-0.002026
C129	C	-0.943797	-1.496581	-0.431511
C130	C	-0.443797	-0.996581	0.068489
H131	H	-0.940562	-1.511841	-0.531639
H132	H	-0.440562	-1.011841	-0.031639
H133	H	-1.013715	-1.484054	-0.510462
H134	H	-0.513715	-0.984054	-0.010462
H135	H	-0.952731	-1.406953	-0.511802
H136	H	-0.452731	-0.906953	-0.011802
H137	H	-0.955429	-1.562583	-0.421734
H138	H	-0.455429	-1.062583	0.078266
H139	H	-0.894430	-1.485492	-0.423072
H140	H	-0.394430	-0.985492	0.076928
C141	C	-1.142485	-1.450220	-0.484694
C142	C	-0.642485	-0.950220	0.015306
C143	C	-1.098344	-1.504815	-0.437759
C144	C	-0.598344	-1.004815	0.062241
H145	H	-1.168651	-1.491760	-0.516328
H146	H	-0.668651	-0.991760	-0.016328
H147	H	-1.173893	-1.416658	-0.459127
H148	H	-0.673893	-0.916658	0.040873
H149	H	-1.114842	-1.405227	-0.510467
H150	H	-0.614842	-0.905227	-0.010467
H151	H	-1.125987	-1.549803	-0.411983
H152	H	-0.625987	-1.049803	0.088017
H153	H	-1.066932	-1.538393	-0.463330
H154	H	-0.566932	-1.038393	0.036670
H155	H	-0.624728	-1.515510	-0.445997
H156	H	-0.124728	-1.015510	0.054003
H157	H	-0.618416	-1.300461	-0.282268
H158	H	-0.118416	-0.800461	0.217732
H159	H	-0.451085	-1.265008	-0.759238
H160	H	0.048915	-0.765008	-0.259238
H161	H	-0.445749	-1.272038	-0.625670
H162	H	0.054251	-0.772038	-0.125670
H163	H	-1.081032	-1.272340	-0.260745
H164	H	-0.581032	-0.772340	0.239255
C165	C	-0.982807	-1.198324	-0.204374
C166	C	-0.482807	-0.698324	0.295626
C167	C	-0.936480	-1.247778	-0.242052
C168	C	-0.436480	-0.747778	0.257948
H169	H	-0.956645	-1.156790	-0.172732
H170	H	-0.456645	-0.656790	0.327268
H171	H	-1.012750	-1.161304	-0.236219
H172	H	-0.512750	-0.661304	0.263781
H173	H	-1.010436	-1.243343	-0.178608
H174	H	-0.510436	-0.743343	0.321392
H175	H	-0.908854	-1.202759	-0.267822
H176	H	-0.408854	-0.702759	0.232178
H177	H	-0.906524	-1.284800	-0.210203
H178	H	-0.406524	-0.784800	0.289797
H179	H	-0.282200	-1.487386	-0.619180
H180	H	0.217800	-0.987386	-0.119180
C181	C	-0.233642	-1.551315	-0.713290
C182	C	0.266358	-1.051315	-0.213290
C183	C	-0.275111	-1.496699	-0.762719
C184	C	0.224889	-0.996699	-0.262719
H185	H	-0.204056	-1.590277	-0.737056
H186	H	0.295944	-1.090277	-0.237056
H187	H	-0.205527	-1.509402	-0.683492
H188	H	0.294473	-1.009402	-0.183492
H189	H	-0.263221	-1.591317	-0.685809
H190	H	0.236779	-1.091317	-0.185809
H191	H	-0.245531	-1.456691	-0.790197
H192	H	0.254469	-0.956691	-0.290197
H193	H	-0.303228	-1.538616	-0.792529
H194	H	0.196772	-1.038616	-0.292529
C195	C	-0.204237	-1.589949	-0.983479
C196	C	0.295763	-1.089949	-0.483479
C197	C	-0.241893	-1.540389	-0.937194
C198	C	0.258107	-1.040389	-0.437194
H199	H	-0.172646	-1.631529	-0.957284
H200	H	0.327354	-1.131529	-0.457284
H201	H	-0.236098	-1.626930	-1.013425
H202	H	0.263902	-1.126930	-0.513425
H203	H	-0.178419	-1.544995	-1.011111
H204	H	0.321581	-1.044995	-0.511111
H205	H	-0.267715	-1.585342	-0.909566
H206	H	0.232285	-1.085342	-0.409566
H207	H	-0.210028	-1.503405	-0.907235
H208	H	0.289972	-1.003405	-0.407235
C209	C	-0.260466	-1.515897	-1.164508
C210	C	0.239534	-1.015897	-0.664508
C211	C	-0.248061	-1.532244	-1.091737
C212	C	0.251939	-1.032244	-0.591737
H213	H	-0.230867	-1.554844	-1.188270
H214	H	0.269133	-1.054844	-0.688270
H215	H	-0.308304	-1.531850	-1.178465
H216	H	0.191696	-1.031850	-0.678465
H217	H	-0.250629	-1.449911	-1.176141
H218	H	0.249371	-0.949911	-0.676141
H219	H	-0.257904	-1.598229	-1.080103
H220	H	0.242096	-1.098229	-0.580103
H221	H	-0.200212	-1.516297	-1.077775
H222	H	0.299788	-1.016297	-0.577775
H223	H	-0.424053	-1.300560	-1.088254
H224	H	0.075947	-0.800560	-0.588254
C225	C	-0.472600	-1.236615	-0.994146
C226	C	0.027400	-0.736615	-0.494146
C227	C	-0.431129	-1.291223	-0.944715
C228	C	0.068871	-0.791223	-0.444715
H229	H	-0.502184	-1.197647	-0.970383
H230	H	-0.002184	-0.697647	-0.470383
H231	H	-0.443028	-1.196628	-1.021634
H232	H	0.056972	-0.696628	-0.521634
H233	H	-0.500724	-1.278540	-1.023939
H234	H	-0.000724	-0.778540	-0.523939
H235	H	-0.403002	-1.249298	-0.914925
H236	H	0.096998	-0.749298	-0.414925
H237	H	-0.460705	-1.331214	-0.917216
H238	H	0.039295	-0.831214	-0.417216
