data_functionalizedCrystal
_audit_creation_method	'MofGen! by Chris Wilmer'
_symmetry_space_group_name_H-M	'P1'
_symmetry_Int_Tables_number	1
_symmetry_cell_setting	triclinic
loop_
_symmetry_equiv_pos_as_xyz
  x,y,z
_cell_length_a	17.019311
_cell_length_b	17.038272
_cell_length_c	15.455313
_cell_angle_alpha	92.858370
_cell_angle_beta	83.447586
_cell_angle_gamma	87.245400
loop_
_atom_site_label
_atom_site_type_symbol
_atom_site_fract_x
_atom_site_fract_y
_atom_site_fract_z
O1	O	1.060136	0.092450	-0.151316
O2	O	1.393469	0.425783	0.182017
O3	O	1.726803	0.759117	0.515351
O4	O	0.830556	0.105958	-0.134170
O5	O	1.163889	0.439291	0.199163
O6	O	1.497222	0.772625	0.532497
O7	O	0.943981	-0.014605	-0.142634
O8	O	1.277314	0.318728	0.190699
O9	O	1.610648	0.652061	0.524033
O10	O	0.946711	0.213013	-0.142852
O11	O	1.280044	0.546346	0.190482
O12	O	1.613377	0.879680	0.523815
O13	O	0.937493	-0.007739	0.002112
O14	O	1.270826	0.325594	0.335445
O15	O	1.604160	0.658928	0.668779
O16	O	0.824068	0.112824	0.010576
O17	O	1.157401	0.446157	0.343910
O18	O	1.490734	0.779491	0.677243
O19	O	1.053648	0.099316	-0.006570
O20	O	1.386981	0.432649	0.326764
O21	O	1.720315	0.765983	0.660097
Cu22	Cu	0.938265	0.106697	0.015220
Cu23	Cu	1.271599	0.440030	0.348553
Cu24	Cu	1.604932	0.773364	0.681887
Cu25	Cu	0.945938	0.098577	-0.155959
Cu26	Cu	1.279272	0.431910	0.177374
Cu27	Cu	1.612605	0.765244	0.510707
O28	O	0.940223	0.219879	0.001895
O29	O	1.273556	0.553212	0.335228
O30	O	1.606889	0.886546	0.668561
C31	C	0.797792	0.109013	-0.059592
C32	C	1.131125	0.442346	0.273741
C33	C	1.464458	0.775680	0.607075
C34	C	0.709830	0.107878	-0.053022
C35	C	1.043164	0.441211	0.280311
C36	C	1.376497	0.774545	0.613644
C37	C	0.938255	-0.040290	-0.070076
C38	C	1.271588	0.293044	0.263258
C39	C	1.604922	0.626377	0.596591
C40	C	0.930850	-0.127050	-0.069523
C41	C	1.264183	0.206283	0.263810
C42	C	1.597517	0.539617	0.597144
C43	C	0.212160	0.101672	-0.011910
C44	C	0.545493	0.435005	0.321423
C45	C	0.878827	0.768338	0.654757
C46	C	0.294809	0.102738	-0.018085
C47	C	0.628142	0.436071	0.315249
C48	C	0.961476	0.769405	0.648582
C49	C	0.339671	0.099523	-0.100075
C50	C	0.673004	0.432856	0.233259
C51	C	1.006337	0.766189	0.566592
C52	C	0.301879	0.095248	-0.175895
C53	C	0.635212	0.428582	0.157439
C54	C	0.968545	0.761915	0.490772
C55	C	0.219231	0.094188	-0.169719
C56	C	0.552564	0.427521	0.163614
C57	C	0.885898	0.760854	0.496947
C58	C	0.589391	0.102543	-0.122667
C59	C	0.922724	0.435876	0.210666
C60	C	1.256057	0.769210	0.543999
C61	C	0.672044	0.103602	-0.128837
C62	C	1.005378	0.436935	0.204496
C63	C	1.338711	0.770268	0.537830
C64	C	0.664968	0.111093	0.028974
C65	C	0.998302	0.444426	0.362307
C66	C	1.331635	0.777760	0.695640
C67	C	0.582320	0.110027	0.035142
C68	C	0.915653	0.443360	0.368475
C69	C	1.248986	0.776694	0.701809
C70	C	0.544535	0.105757	-0.040678
C71	C	0.877868	0.439090	0.292655
C72	C	1.211201	0.772424	0.625988
C73	C	0.424151	0.100610	-0.106388
C74	C	0.757485	0.433943	0.226946
C75	C	1.090818	0.767277	0.560279
C76	C	0.460055	0.104675	-0.034364
C77	C	0.793388	0.438009	0.298969
C78	C	1.126722	0.771342	0.632303
C79	C	0.998837	-0.177461	-0.074600
C80	C	1.332171	0.155872	0.258734
C81	C	1.665504	0.489205	0.592067
C82	C	0.991875	-0.258982	-0.074088
C83	C	1.325208	0.074351	0.259245
C84	C	1.658542	0.407685	0.592579
C85	C	0.916925	-0.290089	-0.068493
C86	C	1.250258	0.043244	0.264840
C87	C	1.583591	0.376577	0.598174
C88	C	0.848932	-0.239672	-0.063419
C89	C	1.182266	0.093662	0.269915
C90	C	1.515599	0.426995	0.603248
C91	C	0.855895	-0.158153	-0.063937
C92	C	1.189229	0.175180	0.269397
C93	C	1.522562	0.508514	0.602730
C94	C	0.892325	-0.535740	-0.066668
C95	C	1.225658	-0.202407	0.266666
C96	C	1.558992	0.130927	0.599999
C97	C	0.885367	-0.617265	-0.066148
C98	C	1.218700	-0.283932	0.267186
C99	C	1.552033	0.049402	0.600519
C100	C	1.028310	-0.636570	-0.076818
C101	C	1.361644	-0.303237	0.256515
C102	C	1.694977	0.030097	0.589848
C103	C	1.035267	-0.555049	-0.077331
C104	C	1.368600	-0.221715	0.256003
C105	C	1.701934	0.111618	0.589336
C106	C	0.967275	-0.504638	-0.072261
C107	C	1.300608	-0.171305	0.261072
C108	C	1.633941	0.162028	0.594406
C109	C	0.909806	-0.373416	-0.067967
C110	C	1.243139	-0.040083	0.265366
C111	C	1.576473	0.293251	0.598699
C112	C	0.974394	-0.421314	-0.072793
C113	C	1.307727	-0.087980	0.260540
C114	C	1.641061	0.245353	0.593874
C115	C	1.086412	0.096261	-0.081149
C116	C	1.419746	0.429594	0.252184
C117	C	1.753079	0.762927	0.585517
C118	C	1.174374	0.097395	-0.087725
C119	C	1.507707	0.430729	0.245609
C120	C	1.841040	0.764062	0.578942
C121	C	0.945949	0.245563	-0.070666
C122	C	1.279282	0.578897	0.262668
C123	C	1.612615	0.912230	0.596001
C124	C	0.953354	0.332324	-0.071224
C125	C	1.286687	0.665657	0.262109
C126	C	1.620021	0.998990	0.595442
N127	N	0.932874	0.112407	0.135618
N128	N	1.266208	0.445741	0.468951
N129	N	1.599541	0.779074	0.802284
N130	N	0.951335	0.092860	-0.276358
N131	N	1.284668	0.426193	0.056976
N132	N	1.618002	0.759527	0.390309
C133	C	0.981081	0.061207	0.177414
C134	C	1.314414	0.394540	0.510748
C135	C	1.647747	0.727873	0.844081
C136	C	0.977012	0.065533	0.268526
C137	C	1.310345	0.398866	0.601859
C138	C	1.643678	0.732199	0.935193
C139	C	0.924740	0.121064	0.317839
C140	C	1.258073	0.454397	0.651172
C141	C	1.591406	0.787730	0.984506
C142	C	0.876528	0.172267	0.276036
C143	C	1.209861	0.505600	0.609369
C144	C	1.543195	0.838933	0.942703
C145	C	0.880594	0.167936	0.184926
C146	C	1.213927	0.501270	0.518260
C147	C	1.547260	0.834603	0.851593
C148	C	0.907189	0.139733	0.590730
C149	C	1.240523	0.473066	0.924063
C150	C	1.573856	0.806400	1.257397
C151	C	0.903129	0.144061	0.681846
C152	C	1.236462	0.477394	1.015179
C153	C	1.569795	0.810728	1.348512
C154	C	1.003612	0.037325	0.674329
C155	C	1.336945	0.370659	1.007663
C156	C	1.670278	0.703992	1.340996
C157	C	1.007676	0.033003	0.583218
C158	C	1.341010	0.366337	0.916551
C159	C	1.674343	0.699670	1.249885
C160	C	0.959462	0.084204	0.541423
C161	C	1.292795	0.417537	0.874757
C162	C	1.626128	0.750870	1.208090
N163	N	0.920581	0.125488	0.410969
N164	N	1.253914	0.458822	0.744303
N165	N	1.587247	0.792155	1.077636
N166	N	0.963617	0.079775	0.448295
N167	N	1.296950	0.413108	0.781628
N168	N	1.630284	0.746441	1.114961
H169	H	0.175639	0.104293	0.054855
H170	H	0.508972	0.437627	0.388188
H171	H	0.842305	0.770960	0.721522
H172	H	1.047238	-0.300024	-0.078220
H173	H	1.380571	0.033309	0.255113
H174	H	1.713905	0.366643	0.588447
H175	H	1.096299	-0.529728	-0.081886
H176	H	1.429633	-0.196394	0.251447
H177	H	1.762966	0.136939	0.584780
H178	H	0.460687	0.097990	-0.173144
H179	H	0.794021	0.431323	0.160189
H180	H	1.127354	0.764656	0.493522
F181	F	0.549188	0.097995	-0.203363
F182	F	0.882521	0.431328	0.129970
F183	F	1.215855	0.764662	0.463304
F184	F	1.100667	-0.690225	-0.082215
F185	F	1.434001	-0.356892	0.251118
F186	F	1.767334	-0.023559	0.584452
H187	H	0.338412	0.092635	-0.242653
H188	H	0.671745	0.425968	0.090681
H189	H	1.005078	0.759302	0.424014
F190	F	0.819961	-0.482100	-0.061274
F191	F	1.153294	-0.148767	0.272059
F192	F	1.486627	0.184567	0.605393
F193	F	0.335020	0.107293	0.062608
F194	F	0.668353	0.440627	0.395942
F195	F	1.001686	0.773960	0.729275
H196	H	0.695742	0.114571	0.090702
H197	H	1.029075	0.447904	0.424035
H198	H	1.362409	0.781238	0.757369
H199	H	0.860561	0.189284	0.721993
H200	H	1.193894	0.522617	1.055326
H201	H	1.527227	0.855951	1.388659
H202	H	1.059870	-0.152141	-0.079150
H203	H	1.393203	0.181193	0.254183
H204	H	1.726536	0.514526	0.587517
F205	F	0.820891	0.231364	0.328520
F206	F	1.154225	0.564697	0.661853
F207	F	1.487558	0.898031	0.995186
F208	F	0.829283	0.222430	0.140445
F209	F	1.162616	0.555763	0.473778
F210	F	1.495950	0.889096	0.807112
F211	F	0.179016	0.089640	-0.250412
F212	F	0.512350	0.422973	0.082922
F213	F	0.845683	0.756306	0.416255
H214	H	0.708569	0.100990	-0.195606
H215	H	1.041902	0.434323	0.137727
H216	H	1.375235	0.767656	0.471060
H217	H	0.824329	-0.642588	-0.061577
H218	H	1.157663	-0.309255	0.271756
H219	H	1.490996	0.024079	0.605089
F220	F	0.769164	-0.272781	-0.057474
F221	F	1.102497	0.060552	0.275859
F222	F	1.435831	0.393886	0.609192
H223	H	1.023650	0.015991	0.137269
H224	H	1.356983	0.349324	0.470603
H225	H	1.690316	0.682658	0.803936
H226	H	1.016264	0.023840	0.302556
H227	H	1.349598	0.357174	0.635890
H228	H	1.682931	0.690507	0.969223
H229	H	0.545799	0.112628	0.101907
H230	H	0.879133	0.445962	0.435240
H231	H	1.212466	0.779295	0.768573
F232	F	0.412308	0.108102	0.052893
F233	F	0.745641	0.441435	0.386226
F234	F	1.078975	0.774769	0.719559
F235	F	1.063310	-0.026098	0.530737
F236	F	1.396644	0.307236	0.864070
F237	F	1.729977	0.640569	1.197403
H238	H	0.867932	0.181424	0.556708
H239	H	1.201266	0.514757	0.890041
H240	H	1.534599	0.848090	1.223375
F241	F	0.783534	-0.104501	-0.058536
F242	F	1.116867	0.228832	0.274797
F243	F	1.450200	0.562165	0.608131
H244	H	1.035419	-0.395983	-0.077367
H245	H	1.368753	-0.062650	0.255966
H246	H	1.702086	0.270683	0.589299
H247	H	0.848781	-0.398752	-0.063410
H248	H	1.182114	-0.065419	0.269923
H249	H	1.515448	0.267914	0.603257
H250	H	1.042865	-0.004360	0.708367
H251	H	1.376198	0.328973	1.041700
H252	H	1.709532	0.662306	1.375034
