data_functionalizedCrystal
_audit_creation_method	'MofGen! by Chris Wilmer'
_symmetry_space_group_name_H-M	'P1'
_symmetry_Int_Tables_number	1
_symmetry_cell_setting	triclinic
loop_
_symmetry_equiv_pos_as_xyz
  x,y,z
_cell_length_a	13.897449
_cell_length_b	13.897448
_cell_length_c	13.897449
_cell_angle_alpha	89.992317
_cell_angle_beta	89.988684
_cell_angle_gamma	90.019497
loop_
_atom_site_label
_atom_site_type_symbol
_atom_site_fract_x
_atom_site_fract_y
_atom_site_fract_z
Zn1	Zn	-1.474550	0.384180	0.545535
Zn2	Zn	-1.141216	0.717513	0.878869
Zn3	Zn	-0.807883	1.050846	1.212202
Zn4	Zn	-1.474480	0.545444	0.384244
Zn5	Zn	-1.141146	0.878777	0.717578
Zn6	Zn	-0.807813	1.212111	1.050911
Zn7	Zn	-1.313280	0.384164	0.384239
Zn8	Zn	-0.979947	0.717498	0.717572
Zn9	Zn	-0.646614	1.050831	1.050906
Zn10	Zn	-1.313215	0.545434	0.545482
Zn11	Zn	-0.979882	0.878767	0.878815
Zn12	Zn	-0.646548	1.212101	1.212148
O13	O	-1.393881	0.464805	0.464875
O14	O	-1.060548	0.798139	0.798208
O15	O	-0.727215	1.131472	1.131542
O16	O	-1.609522	0.405582	0.524165
O17	O	-1.276189	0.738915	0.857498
O18	O	-0.942855	1.072249	1.190831
O19	O	-1.453094	0.524048	0.249262
O20	O	-1.119761	0.857381	0.582595
O21	O	-0.786428	1.190714	0.915929
O22	O	-1.334729	0.249185	0.405655
O23	O	-1.001396	0.582518	0.738989
O24	O	-0.668063	0.915851	1.072322
O25	O	-1.609471	0.524062	0.405665
O26	O	-1.276137	0.857396	0.738998
O27	O	-0.942804	1.190729	1.072331
O28	O	-1.453213	0.249196	0.524159
O29	O	-1.119880	0.582529	0.857493
O30	O	-0.786547	0.915863	1.190826
O31	O	-1.334662	0.405556	0.249258
O32	O	-1.001328	0.738890	0.582591
O33	O	-0.667995	1.072223	0.915925
O34	O	-1.178290	0.405547	0.405603
O35	O	-0.844957	0.738880	0.738937
O36	O	-0.511623	1.072213	1.072270
O37	O	-1.334618	0.524045	0.680470
O38	O	-1.001285	0.857379	1.013804
O39	O	-0.667952	1.190712	1.347137
O40	O	-1.178242	0.524031	0.524068
O41	O	-0.844909	0.857364	0.857401
O42	O	-0.511576	1.190697	1.190734
O43	O	-1.453150	0.405572	0.680510
O44	O	-1.119817	0.738906	1.013843
O45	O	-0.786483	1.072239	1.347177
O46	O	-1.453031	0.680424	0.405612
O47	O	-1.119698	1.013758	0.738946
O48	O	-0.786365	1.347091	1.072279
O49	O	-1.334551	0.680417	0.524073
O50	O	-1.001217	1.013750	0.857406
O51	O	-0.667884	1.347084	1.190740
C52	C	-1.143267	0.464787	0.464830
C53	C	-0.809934	0.798120	0.798163
C54	C	-0.476600	1.131453	1.131496
C55	C	-1.036053	0.464802	0.464833
C56	C	-0.702720	0.798135	0.798167
C57	C	-0.369386	1.131469	1.131500
C58	C	-0.948983	0.464804	0.464845
C59	C	-0.615650	0.798137	0.798179
C60	C	-0.282316	1.131470	1.131512
C61	C	-0.839751	0.464809	0.464869
C62	C	-0.506417	0.798142	0.798203
C63	C	-0.173084	1.131476	1.131536
C64	C	-1.393803	0.715420	0.464858
C65	C	-1.060469	1.048753	0.798192
C66	C	-0.727136	1.382087	1.131525
C67	C	-1.393857	0.822634	0.464884
C68	C	-1.060524	1.155967	0.798217
C69	C	-0.727191	1.489300	1.131550
C70	C	-1.393885	0.464810	0.716468
C71	C	-1.060551	0.798143	1.049801
C72	C	-0.727218	1.131476	1.383135
C73	C	-1.393886	0.464811	0.823682
C74	C	-1.060553	0.798145	1.157015
C75	C	-0.727220	1.131478	1.490349
C76	C	-0.645474	0.464821	0.464909
C77	C	-0.312141	0.798154	0.798243
C78	C	0.021193	1.131488	1.131576
C79	C	-0.752688	0.464818	0.464894
C80	C	-0.419355	0.798151	0.798227
C81	C	-0.086021	1.131484	1.131561
C82	C	-1.393952	1.018929	0.464953
C83	C	-1.060619	1.352262	0.798286
C84	C	-0.727285	1.685595	1.131620
C85	C	-1.393897	0.909696	0.464917
C86	C	-1.060563	1.243030	0.798251
C87	C	-0.727230	1.576363	1.131584
C88	C	-1.393978	1.213213	0.464924
C89	C	-1.060645	1.546546	0.798258
C90	C	-0.727311	1.879879	1.131591
C91	C	-1.393998	1.105999	0.464974
C92	C	-1.060665	1.439332	0.798307
C93	C	-0.727332	1.772665	1.131641
C94	C	-1.393862	0.464816	1.019977
C95	C	-1.060529	0.798149	1.353310
C96	C	-0.727195	1.131482	1.686644
C97	C	-1.393873	0.464816	0.910745
C98	C	-1.060539	0.798149	1.244078
C99	C	-0.727206	1.131483	1.577411
C100	C	-1.393868	0.464821	1.214261
C101	C	-1.060535	0.798154	1.547594
C102	C	-0.727202	1.131488	1.880927
C103	C	-1.393861	0.464813	1.107047
C104	C	-1.060527	0.798147	1.440380
C105	C	-0.727194	1.131480	1.773713
