data_functionalizedCrystal
_audit_creation_method	'MofGen! by Chris Wilmer'
_symmetry_space_group_name_H-M	'P1'
_symmetry_Int_Tables_number	1
_symmetry_cell_setting	triclinic
loop_
_symmetry_equiv_pos_as_xyz
  x,y,z
_cell_length_a	17.699083
_cell_length_b	11.792241
_cell_length_c	16.176319
_cell_angle_alpha	89.993071
_cell_angle_beta	89.998611
_cell_angle_gamma	83.738215
loop_
_atom_site_label
_atom_site_type_symbol
_atom_site_fract_x
_atom_site_fract_y
_atom_site_fract_z
O1	O	1.004844	0.143527	-0.068631
O2	O	1.504844	0.643527	0.431369
O3	O	0.784565	0.162200	-0.068658
O4	O	1.284565	0.662200	0.431342
O5	O	0.900050	-0.012371	-0.068638
O6	O	1.400050	0.487629	0.431362
O7	O	0.889359	0.318098	-0.068651
O8	O	1.389359	0.818098	0.431349
O9	O	0.900034	-0.012382	0.068855
O10	O	1.400034	0.487618	0.568855
O11	O	0.784549	0.162189	0.068835
O12	O	1.284549	0.662189	0.568835
O13	O	1.004828	0.143516	0.068862
O14	O	1.504828	0.643516	0.568862
Cu15	Cu	0.894687	0.152851	0.081403
Cu16	Cu	1.394687	0.652851	0.581403
Cu17	Cu	0.894706	0.152865	-0.081199
Cu18	Cu	1.394706	0.652865	0.418801
O19	O	0.889343	0.318087	0.068842
O20	O	1.389343	0.818087	0.568842
C21	C	0.756356	0.161525	0.000085
C22	C	1.256356	0.661525	0.500085
C23	C	0.672328	0.159518	0.000075
C24	C	1.172328	0.659518	0.500075
C25	C	0.624253	0.261988	0.000071
C26	C	1.124253	0.761988	0.500071
C27	C	0.545299	0.260095	0.000082
C28	C	1.045299	0.760095	0.500082
C29	C	0.514422	0.155731	0.000091
C30	C	1.014422	0.655731	0.500091
C31	C	0.562503	0.053254	0.000097
C32	C	1.062503	0.553254	0.500097
C33	C	0.641455	0.055148	0.000092
C34	C	1.141455	0.555148	0.500092
C35	C	0.244099	0.045613	0.000118
C36	C	0.744099	0.545613	0.500118
C37	C	0.165141	0.043727	0.000120
C38	C	0.665141	0.543727	0.500120
C39	C	0.147944	0.250560	0.000108
C40	C	0.647944	0.750560	0.500108
C41	C	0.226896	0.252454	0.000103
C42	C	0.726896	0.752454	0.500103
C43	C	0.274970	0.149977	0.000113
C44	C	0.774970	0.649977	0.500113
C45	C	0.360580	0.152031	0.000103
C46	C	0.860580	0.652031	0.500103
C47	C	0.428814	0.153676	0.000095
C48	C	0.928814	0.653676	0.500095
C49	C	0.899370	-0.054660	0.000108
C50	C	1.399370	0.445340	0.500108
C51	C	0.897360	-0.180649	0.000107
C52	C	1.397360	0.319351	0.500107
C53	C	0.893664	-0.411317	0.000093
C54	C	1.393664	0.088683	0.500093
C55	C	0.895718	-0.282956	0.000101
C56	C	1.395718	0.217044	0.500101
C57	C	1.033036	0.144190	0.000117
C58	C	1.533036	0.644190	0.500117
C59	C	1.117065	0.146198	0.000122
C60	C	1.617065	0.646198	0.500122
C61	C	0.890022	0.360375	0.000094
C62	C	1.390022	0.860375	0.500094
C63	C	0.892032	0.486365	0.000090
C64	C	1.392032	0.986365	0.500090
N65	N	0.894679	0.152841	0.195768
N66	N	1.394679	0.652841	0.695768
N67	N	0.894720	0.152865	-0.195564
N68	N	1.394720	0.652865	0.304436
C69	C	0.945831	0.075573	0.239041
C70	C	1.445831	0.575573	0.739041
C71	C	0.945835	0.075572	0.325588
C72	C	1.445835	0.575572	0.825588
C73	C	0.894690	0.152845	0.368861
C74	C	1.394690	0.652845	0.868861
C75	C	0.843532	0.230118	0.325582
C76	C	1.343532	0.730118	0.825582
C77	C	0.843525	0.230113	0.239036
C78	C	1.343525	0.730113	0.739036
C79	C	0.843558	0.230139	0.674610
C80	C	1.343558	0.730139	1.174610
C81	C	0.843570	0.230140	0.761161
C82	C	1.343570	0.730140	1.261161
C83	C	0.945868	0.075598	0.761162
C84	C	1.445868	0.575598	1.261162
C85	C	0.945861	0.075593	0.674617
C86	C	1.445861	0.575593	1.174617
C87	C	0.894701	0.152861	0.631345
C88	C	1.394701	0.652861	1.131345
C89	C	0.894697	0.152860	0.537501
C90	C	1.394697	0.652860	1.037501
C91	C	0.894697	0.152853	0.462703
C92	C	1.394697	0.652853	0.962703
H93	H	0.537357	-0.031721	0.000116
H94	H	1.037357	0.468279	0.500116
H95	H	0.680598	-0.028294	0.000095
H96	H	1.180598	0.471706	0.500095
C97	C	0.260860	0.367250	0.000091
C98	C	0.760860	0.867250	0.500091
H99	H	0.314767	0.353702	0.000081
H100	H	0.814767	0.853702	0.500081
H101	H	0.244390	0.409433	0.048035
H102	H	0.744390	0.909433	0.548035
H103	H	0.244386	0.409433	-0.047865
H104	H	0.744386	0.909433	0.452135
C105	C	1.002091	-0.009431	0.191449
C106	C	1.502091	0.490569	0.691449
H107	H	1.032551	-0.055456	0.229620
H108	H	1.532551	0.444544	0.729620
H109	H	1.033760	0.031331	0.157677
H110	H	1.533760	0.531331	0.657677
H111	H	0.974666	-0.056632	0.157699
H112	H	1.474666	0.443368	0.657699
H113	H	0.108792	0.334002	0.000103
H114	H	0.608792	0.834002	0.500103
H115	H	0.987487	0.012653	0.360821
H116	H	1.487487	0.512653	0.860821
H117	H	0.987511	0.012673	0.639387
H118	H	1.487511	0.512673	1.139387
C119	C	0.131178	-0.071078	0.000138
C120	C	0.631178	0.428922	0.500138
H121	H	0.171116	-0.131839	0.000152
H122	H	0.671116	0.368161	0.500152
H123	H	0.100736	-0.076118	-0.047807
H124	H	0.600736	0.423882	0.452193
H125	H	0.100737	-0.076106	0.048093
H126	H	0.600737	0.423894	0.548093
C127	C	0.492417	0.372808	0.000069
C128	C	0.992417	0.872808	0.500069
H129	H	0.440974	0.356737	0.000082
H130	H	0.940974	0.856737	0.500082
H131	H	0.501821	0.415608	-0.047884
H132	H	1.001821	0.915608	0.452116
H133	H	0.501824	0.415614	0.048016
H134	H	1.001824	0.915614	0.548016
H135	H	0.801903	0.293055	0.639385
H136	H	1.301903	0.793055	1.139385
C137	C	0.658211	0.376789	0.000061
C138	C	1.158211	0.876789	0.500061
H139	H	0.618268	0.437544	0.000068
H140	H	1.118268	0.937544	0.500068
H141	H	0.688651	0.381834	-0.047887
H142	H	1.188651	0.881834	0.452113
H143	H	0.688652	0.381823	0.048013
H144	H	1.188652	0.881823	0.548013
C145	C	0.296971	-0.067106	0.000123
C146	C	0.796971	0.432894	0.500123
H147	H	0.267271	-0.129529	0.000121
H148	H	0.767271	0.370471	0.500121
H149	H	0.328128	-0.070675	0.048070
H150	H	0.828128	0.429325	0.548070
H151	H	0.328126	-0.070667	-0.047830
H152	H	0.828126	0.429333	0.452170
C153	C	1.002137	-0.009408	0.808763
C154	C	1.502137	0.490592	1.308763
H155	H	0.994812	0.001649	0.866504
H156	H	1.494812	0.501649	1.366504
H157	H	1.052695	0.002823	0.794573
H158	H	1.552695	0.502823	1.294573
H159	H	0.993604	-0.085144	0.794586
H160	H	1.493604	0.414856	1.294586
H161	H	0.801919	0.293068	0.796392
H162	H	1.301919	0.793068	1.296392
C163	C	0.787274	0.315119	0.373179
C164	C	1.287274	0.815119	0.873179
H165	H	0.794609	0.304065	0.430920
H166	H	1.294609	0.804065	0.930920
H167	H	0.736712	0.302890	0.359006
H168	H	1.236712	0.802890	0.859006
H169	H	0.795807	0.390853	0.358982
H170	H	1.295807	0.890853	0.858982
H171	H	0.801871	0.293031	0.203804
H172	H	1.301871	0.793031	0.703804
