data_functionalizedCrystal
_audit_creation_method	'MofGen! by Chris Wilmer'
_symmetry_space_group_name_H-M	'P1'
_symmetry_Int_Tables_number	1
_symmetry_cell_setting	triclinic
loop_
_symmetry_equiv_pos_as_xyz
  x,y,z
_cell_length_a	10.654550
_cell_length_b	9.130313
_cell_length_c	10.654551
_cell_angle_alpha	89.999583
_cell_angle_beta	84.485180
_cell_angle_gamma	89.999072
loop_
_atom_site_label
_atom_site_type_symbol
_atom_site_fract_x
_atom_site_fract_y
_atom_site_fract_z
O1	O	1.667842	-0.121684	0.176394
O2	O	1.302363	-0.121710	0.193200
O3	O	1.493505	-0.121693	0.002058
O4	O	1.476700	-0.121701	0.367536
O5	O	1.493488	0.121906	0.002061
O6	O	1.302347	0.121889	0.193204
O7	O	1.667825	0.121915	0.176397
Cu8	Cu	1.485085	0.144144	0.184801
Cu9	Cu	1.485104	-0.143939	0.184797
O10	O	1.476684	0.121898	0.367540
C11	C	1.255557	0.000086	0.191968
C12	C	1.116114	0.000076	0.188276
N13	N	1.485080	0.346767	0.184803
C14	C	1.036629	0.000078	0.300818
C15	C	0.905608	0.000103	0.297341
C16	C	0.933570	0.000119	0.068772
C17	C	1.064589	0.000104	0.072249
C18	C	1.561911	0.423418	0.261686
C19	C	1.561930	0.576754	0.261681
C20	C	1.408277	0.576777	0.107906
C21	C	1.408265	0.423443	0.107906
C22	C	1.714632	0.000116	0.177630
C23	C	1.854075	0.000116	0.181322
C24	C	1.492262	0.000104	-0.044738
C25	C	1.488570	0.000097	-0.184181
N26	N	1.485111	0.653438	0.184798
C27	C	1.486846	-0.132690	-0.249687
C28	C	1.483366	-0.132692	-0.380707
C29	C	1.483339	0.132893	-0.380706
C30	C	1.486810	0.132893	-0.249687
C31	C	1.477926	0.000098	0.414336
C32	C	1.481619	0.000095	0.553779
H33	H	1.078576	0.000066	0.395294
H34	H	1.488275	-0.240822	-0.196356
C35	C	1.646435	0.661071	0.346256
H36	H	1.635453	0.763374	0.335238
H37	H	1.623836	0.635943	0.431971
H38	H	1.732164	0.635928	0.323719
H39	H	1.481959	-0.240821	-0.434036
C40	C	1.323775	0.661124	0.023340
H41	H	1.334774	0.763423	0.034360
H42	H	1.346359	0.635998	-0.062378
H43	H	1.238044	0.636000	0.045887
C44	C	1.323744	0.339121	0.023334
H45	H	1.277983	0.406744	-0.022450
H46	H	1.374704	0.279299	-0.033986
H47	H	1.266383	0.279313	0.074273
C48	C	1.481422	0.278956	-0.452767
H49	H	1.479122	0.259940	-0.540182
H50	H	1.408880	0.333517	-0.422360
H51	H	1.555107	0.333516	-0.440232
H52	H	1.488207	0.241031	-0.196350
H53	H	0.840896	0.000108	0.388984
H54	H	0.891602	0.000151	-0.025693
H55	H	1.129309	0.000106	-0.019401
C56	C	1.646420	0.339079	0.346251
H57	H	1.692190	0.406696	0.392028
H58	H	1.595462	0.279263	0.403577
H59	H	1.703772	0.279264	0.295307
