data_functionalizedCrystal
_audit_creation_method	'MofGen! by Chris Wilmer'
_symmetry_space_group_name_H-M	'P1'
_symmetry_Int_Tables_number	1
_symmetry_cell_setting	triclinic
loop_
_symmetry_equiv_pos_as_xyz
  x,y,z
_cell_length_a	12.784890
_cell_length_b	14.519709
_cell_length_c	11.295483
_cell_angle_alpha	94.101713
_cell_angle_beta	86.328828
_cell_angle_gamma	78.393351
loop_
_atom_site_label
_atom_site_type_symbol
_atom_site_fract_x
_atom_site_fract_y
_atom_site_fract_z
O1	O	1.417473	-0.001013	-0.098988
O2	O	1.108093	0.038477	-0.098999
O3	O	1.270985	-0.116175	-0.098983
O4	O	1.254581	0.153640	-0.099005
O5	O	1.256678	-0.102611	0.099067
O6	O	1.093786	0.052042	0.099050
O7	O	1.403166	0.012552	0.099061
Cu8	Cu	1.247170	0.033535	0.117139
Cu9	Cu	1.264090	0.017494	-0.117077
O10	O	1.240274	0.167204	0.099045
C11	C	1.061345	0.047828	0.000024
C12	C	0.943366	0.055470	0.000020
C13	C	1.263067	-0.143690	0.000042
C14	C	1.260776	-0.245884	0.000043
C15	C	0.764572	0.151247	0.000010
C16	C	0.875424	0.144073	0.000011
C17	C	0.900451	-0.025965	0.000025
C18	C	0.789599	-0.018790	0.000024
C19	C	0.721663	0.069819	0.000019
C20	C	0.610810	0.076993	0.000027
C21	C	0.635839	-0.093044	0.000032
C22	C	0.746690	-0.100219	0.000032
C23	C	1.252344	-0.620094	0.000011
C24	C	1.254685	-0.515976	0.000020
C25	C	1.256559	-0.432992	0.000028
C26	C	1.258902	-0.328868	0.000035
C27	C	1.449914	0.003201	0.000035
C28	C	1.567894	-0.004442	0.000031
C29	C	1.248193	0.194719	0.000017
C30	C	1.250484	0.296913	0.000009
N31	N	1.235277	0.044817	0.281874
N32	N	1.275991	0.006204	-0.281812
C33	C	1.361602	-0.075057	0.531177
C34	C	1.352622	-0.066526	0.655839
C35	C	1.208333	0.070406	0.655865
C36	C	1.217313	0.061875	0.531202
C37	C	1.293951	-0.010858	0.468862
C38	C	1.302935	-0.019385	0.344197
C39	C	1.158642	0.117542	0.344225
C40	C	1.149662	0.126074	0.468888
H41	H	0.555497	0.149144	0.000029
H42	H	0.955783	-0.098106	0.000020
H43	H	1.424011	-0.134274	0.480419
H44	H	1.365340	-0.078606	0.293441
H45	H	1.407709	-0.118804	0.706572
H46	H	0.910355	0.210380	0.000007
H47	H	1.145929	0.129618	0.706638
H48	H	1.103559	0.169819	0.293474
H49	H	0.709257	0.223397	0.000020
H50	H	0.802019	-0.172361	0.000032
H51	H	0.600899	-0.159356	-0.000056
H52	H	1.087262	0.185290	0.519659
