data_functionalizedCrystal
_audit_creation_method	'MofGen! by Chris Wilmer'
_symmetry_space_group_name_H-M	'P1'
_symmetry_Int_Tables_number	1
_symmetry_cell_setting	triclinic
loop_
_symmetry_equiv_pos_as_xyz
  x,y,z
_cell_length_a	12.759401
_cell_length_b	12.759400
_cell_length_c	12.759393
_cell_angle_alpha	89.969548
_cell_angle_beta	90.021157
_cell_angle_gamma	89.989825
loop_
_atom_site_label
_atom_site_type_symbol
_atom_site_fract_x
_atom_site_fract_y
_atom_site_fract_z
Zn1	Zn	-1.606267	-0.418339	-0.594027
Zn2	Zn	-1.106267	0.081661	-0.094027
Zn3	Zn	-1.606159	-0.594054	-0.418347
Zn4	Zn	-1.106159	-0.094054	0.081653
Zn5	Zn	-1.430566	-0.418376	-0.418361
Zn6	Zn	-0.930566	0.081624	0.081639
Zn7	Zn	-1.430558	-0.593963	-0.593983
Zn8	Zn	-0.930558	-0.093963	-0.093983
O9	O	-1.518388	-0.506183	-0.506179
O10	O	-1.018388	-0.006183	-0.006179
O11	O	-1.753274	-0.441670	-0.570734
O12	O	-1.253274	0.058330	-0.070734
O13	O	-1.582824	-0.570804	-0.271328
O14	O	-1.082824	-0.070804	0.228672
O15	O	-1.453922	-0.271350	-0.441687
O16	O	-0.953922	0.228650	0.058313
O17	O	-1.753194	-0.570768	-0.441663
O18	O	-1.253194	-0.070768	0.058337
O19	O	-1.583009	-0.271323	-0.570748
O20	O	-1.083009	0.228677	-0.070748
O21	O	-1.453817	-0.441735	-0.271338
O22	O	-0.953817	0.058265	0.228662
O23	O	-1.283544	-0.441646	-0.441646
O24	O	-0.783544	0.058354	0.058354
O25	O	-1.453909	-0.570612	-0.741010
O26	O	-0.953909	-0.070612	-0.241010
O27	O	-1.283538	-0.570648	-0.570675
O28	O	-0.783538	-0.070648	-0.070675
O29	O	-1.583001	-0.441582	-0.741042
O30	O	-1.083001	0.058418	-0.241042
O31	O	-1.582816	-0.741063	-0.441621
O32	O	-1.082816	-0.241063	0.058379
O33	O	-1.453803	-0.740996	-0.570661
O34	O	-0.953803	-0.240996	-0.070661
C35	C	-1.245420	-0.506142	-0.506158
C36	C	-0.745420	-0.006142	-0.006158
C37	C	-1.128644	-0.506150	-0.506173
C38	C	-0.628644	-0.006150	-0.006173
C39	C	-1.518326	-0.779150	-0.506158
C40	C	-1.018326	-0.279150	-0.006158
C41	C	-1.518395	-0.895927	-0.506183
C42	C	-1.018395	-0.395927	-0.006183
C43	C	-0.964087	-0.439064	-0.573488
C44	C	-0.464087	0.060936	-0.073488
C45	C	-1.073811	-0.439051	-0.573483
C46	C	-0.573811	0.060949	-0.073483
C47	C	-1.073747	-0.573275	-0.438871
C48	C	-0.573747	-0.073275	0.061129
C49	C	-0.964025	-0.573293	-0.438881
C50	C	-0.464025	-0.073293	0.061119
C51	C	-0.792421	-0.506210	-0.506196
C52	C	-0.292421	-0.006210	-0.006196
C53	C	-0.909197	-0.506182	-0.506188
C54	C	-0.409197	-0.006182	-0.006188
C55	C	-1.585711	-1.060520	-0.439101
C56	C	-1.085711	-0.560520	0.060899
C57	C	-1.585648	-0.950796	-0.439068
C58	C	-1.085648	-0.450796	0.060932
C59	C	-1.451194	-0.950788	-0.573329
C60	C	-0.951194	-0.450788	-0.073329
C61	C	-1.451252	-1.060510	-0.573356
C62	C	-0.951252	-0.560510	-0.073356
C63	C	-1.518466	-0.506082	-0.780213
C64	C	-1.018466	-0.006082	-0.280213
C65	C	-1.518500	-0.506039	-0.896990
C66	C	-1.018500	-0.006039	-0.396990
C67	C	-1.518478	-0.232150	-0.506224
C68	C	-1.018478	0.267850	-0.006224
C69	C	-1.518517	-0.115373	-0.506243
C70	C	-1.018517	0.384627	-0.006243
C71	C	-1.585723	-0.438842	-0.951870
C72	C	-1.085723	0.061158	-0.451870
C73	C	-1.585741	-0.438797	-1.061594
C74	C	-1.085741	0.061203	-0.561594
C75	C	-1.451309	-0.573154	-1.061548
C76	C	-0.951309	-0.073154	-0.561548
C77	C	-1.451287	-0.573194	-0.951826
C78	C	-0.951287	-0.073194	-0.451826
C79	C	-1.518370	-0.506208	-0.233212
C80	C	-1.018370	-0.006208	0.266788
C81	C	-1.518540	-0.505955	-0.116436
C82	C	-1.018540	-0.005955	0.383564
H83	H	-0.919450	-0.384418	-0.628293
H84	H	-0.419450	0.115582	-0.128293
H85	H	-1.396589	-0.627832	-1.106209
H86	H	-0.896589	-0.127832	-0.606209
H87	H	-1.396530	-1.105172	-0.628034
H88	H	-0.896530	-0.605172	-0.128034
H89	H	-1.118400	-0.627912	-0.384070
H90	H	-0.618400	-0.127912	0.115930
H91	H	-1.640362	-0.906138	-0.384393
H92	H	-1.140362	-0.406138	0.115607
H93	H	-1.118497	-0.384398	-0.628286
H94	H	-0.618497	0.115602	-0.128286
H95	H	-1.640479	-0.384077	-1.106273
H96	H	-1.140479	0.115923	-0.606273
H97	H	-1.640450	-0.384158	-0.907225
H98	H	-1.140450	0.115842	-0.407225
H99	H	-1.396538	-0.627913	-0.907141
H100	H	-0.896538	-0.127913	-0.407141
H101	H	-0.919333	-0.627954	-0.384077
H102	H	-0.419333	-0.127954	0.115923
H103	H	-1.640482	-1.105187	-0.384452
H104	H	-1.140482	-0.605187	0.115548
H105	H	-1.396430	-0.906107	-0.627973
H106	H	-0.896430	-0.406107	-0.127973
