data_functionalizedCrystal
_audit_creation_method	'MofGen! by Chris Wilmer'
_symmetry_space_group_name_H-M	'P1'
_symmetry_Int_Tables_number	1
_symmetry_cell_setting	triclinic
loop_
_symmetry_equiv_pos_as_xyz
  x,y,z
_cell_length_a	18.050589
_cell_length_b	13.032831
_cell_length_c	13.032268
_cell_angle_alpha	90.886977
_cell_angle_beta	97.149417
_cell_angle_gamma	82.833186
loop_
_atom_site_label
_atom_site_type_symbol
_atom_site_fract_x
_atom_site_fract_y
_atom_site_fract_z
Zn1	Zn	-0.501530	1.498351	-0.780835
Zn2	Zn	-0.001530	1.998351	-0.280835
Zn3	Zn	-0.612177	1.520065	-0.608855
Zn4	Zn	-0.112177	2.020065	-0.108855
Zn5	Zn	-0.470507	1.348217	-0.587076
Zn6	Zn	0.029493	1.848217	-0.087076
Zn7	Zn	-0.608161	1.326314	-0.758980
Zn8	Zn	-0.108161	1.826314	-0.258980
O9	O	-0.548094	1.423237	-0.683937
O10	O	-0.048094	1.923237	-0.183937
O11	O	-0.530872	1.645148	-0.776283
O12	O	-0.030872	2.145148	-0.276283
O13	O	-0.582081	1.515523	-0.462049
O14	O	-0.082081	2.015523	0.037951
O15	O	-0.370708	1.368212	-0.612810
O16	O	0.129292	1.868212	-0.112810
O17	O	-0.612163	1.661101	-0.649930
O18	O	-0.112163	2.161101	-0.149930
O19	O	-0.393501	1.478515	-0.755164
O20	O	0.106499	1.978515	-0.255164
O21	O	-0.477997	1.389267	-0.446048
O22	O	0.022003	1.889267	0.053952
O23	O	-0.474104	1.201395	-0.591619
O24	O	0.025896	1.701395	-0.091619
O25	O	-0.605320	1.330881	-0.905796
O26	O	-0.105320	1.830881	-0.405796
O27	O	-0.575238	1.185303	-0.717916
O28	O	-0.075238	1.685303	-0.217916
O29	O	-0.526978	1.457276	-0.921853
O30	O	-0.026978	1.957276	-0.421853
O31	O	-0.715559	1.494284	-0.628738
O32	O	-0.215559	1.994284	-0.128738
O33	O	-0.712609	1.351936	-0.739034
O34	O	-0.212609	1.851936	-0.239034
C35	C	-0.520869	1.156033	-0.650033
C36	C	-0.020869	1.656033	-0.150033
C37	C	-0.509242	1.041718	-0.635553
C38	C	-0.009242	1.541718	-0.135553
C39	C	-0.741032	1.423115	-0.683904
C40	C	-0.241032	1.923115	-0.183904
C41	C	-0.823584	1.423152	-0.683936
C42	C	-0.323584	1.923152	-0.183936
C43	C	-0.554162	0.982831	-0.691494
C44	C	-0.054162	1.482831	-0.191494
C45	C	-0.542146	0.864681	-0.676530
C46	C	-0.042146	1.364681	-0.176530
C47	C	-1.021463	1.345814	-0.743900
C48	C	-0.521463	1.845814	-0.243900
C49	C	-1.060964	1.332669	-0.646879
C50	C	-0.560964	1.832669	-0.146879
C51	C	-0.974726	1.423252	-0.683962
C52	C	-0.474726	1.923252	-0.183962
C53	C	-1.082312	1.436446	-0.781001
C54	C	-0.582312	1.936446	-0.281001
C55	C	-1.120722	1.423345	-0.683996
C56	C	-0.620722	1.923345	-0.183996
C57	C	-1.013131	1.410063	-0.586886
C58	C	-0.513131	1.910063	-0.086886
C59	C	-1.034484	1.513876	-0.721076
C60	C	-0.534484	2.013876	-0.221076
C61	C	-1.073962	1.500775	-0.623995
C62	C	-0.573962	2.000775	-0.123995
C63	C	-0.890621	1.423195	-0.683944
C64	C	-0.390621	1.923195	-0.183944
C65	C	-1.204825	1.423402	-0.684003
C66	C	-0.704825	1.923402	-0.184003
C67	C	-0.354407	1.423384	-0.683996
C68	C	0.145593	1.923384	-0.183996
C69	C	-0.271869	1.423447	-0.684021
C70	C	0.228131	1.923447	-0.184021
C71	C	-0.569162	1.389213	-0.952184
C72	C	-0.069162	1.889213	-0.452184
C73	C	-0.578139	1.374714	-1.066495
C74	C	-0.078139	1.874714	-0.566495
C75	C	-0.575426	1.691484	-0.717973
C76	C	-0.075426	2.191484	-0.217973
C77	C	-0.587073	1.805795	-0.732478
C78	C	-0.087073	2.305795	-0.232478
C79	C	-0.543380	1.430788	-1.125403
C80	C	-0.043380	1.930788	-0.625403
C81	C	-0.552658	1.415804	-1.243549
C82	C	-0.052658	1.915804	-0.743549
C83	C	-0.527061	1.457187	-0.416741
C84	C	-0.027061	1.957187	0.083259
C85	C	-0.517894	1.471885	-0.302456
C86	C	-0.017894	1.971885	0.197544
H87	H	-0.601514	1.019885	-0.750468
H88	H	-0.101514	1.519885	-0.250468
F89	F	-1.018764	1.613962	-0.762126
F90	F	-0.518764	2.113962	-0.262126
F91	F	-0.973951	1.395409	-0.479594
F92	F	-0.473951	1.895409	0.020406
H93	H	-0.634426	0.842843	-0.791459
H94	H	-0.134426	1.342843	-0.291459
H95	H	-0.614761	1.315608	-1.103528
H96	H	-0.114761	1.815608	-0.603528
F97	F	-0.600532	1.338545	-1.291945
F98	F	-0.100532	1.838545	-0.791945
H99	H	-0.494786	0.827631	-0.617559
H100	H	0.005214	1.327631	-0.117559
F101	F	-0.447342	0.993291	-0.558477
F102	F	0.052658	1.493291	-0.058477
H103	H	-0.998449	1.280253	-0.794494
H104	H	-0.498449	1.780253	-0.294494
F105	F	-1.076662	1.232551	-0.605859
F106	F	-0.576662	1.732551	-0.105859
H107	H	-1.096823	1.566310	-0.573255
H108	H	-0.596823	2.066310	-0.073255
F109	F	-1.121601	1.450986	-0.888245
F110	F	-0.621601	1.950986	-0.388245
H111	H	-0.506750	1.489884	-1.088368
H112	H	-0.006750	1.989884	-0.588368
F113	F	-0.470024	1.549150	-1.254063
F114	F	0.029976	2.049150	-0.754063
