data_functionalizedCrystal
_audit_creation_method	'MofGen! by Chris Wilmer'
_symmetry_space_group_name_H-M	'P1'
_symmetry_Int_Tables_number	1
_symmetry_cell_setting	triclinic
loop_
_symmetry_equiv_pos_as_xyz
  x,y,z
_cell_length_a	16.959454
_cell_length_b	12.759401
_cell_length_c	12.759393
_cell_angle_alpha	90.020011
_cell_angle_beta	89.969286
_cell_angle_gamma	89.983846
loop_
_atom_site_label
_atom_site_type_symbol
_atom_site_fract_x
_atom_site_fract_y
_atom_site_fract_z
Zn1	Zn	-0.314718	-1.606216	-0.594030
Zn2	Zn	-0.446919	-1.606094	-0.418353
Zn3	Zn	-0.314750	-1.430518	-0.418365
Zn4	Zn	-0.446849	-1.430490	-0.593989
O5	O	-0.380809	-1.518330	-0.506184
O6	O	-0.332270	-1.753221	-0.570738
O7	O	-0.429429	-1.582764	-0.271333
O8	O	-0.204134	-1.453888	-0.441689
O9	O	-0.429398	-1.753131	-0.441669
O10	O	-0.204111	-1.582972	-0.570750
O11	O	-0.332325	-1.453769	-0.271342
O12	O	-0.332257	-1.283493	-0.441650
O13	O	-0.429279	-1.453840	-0.741016
O14	O	-0.429310	-1.283473	-0.570681
O15	O	-0.332202	-1.582945	-0.741046
O16	O	-0.557521	-1.582737	-0.441629
O17	O	-0.557469	-1.453722	-0.570669
C18	C	-0.380780	-1.245362	-0.506163
C19	C	-0.380786	-1.128586	-0.506178
C20	C	-0.330305	-1.073763	-0.573488
C21	C	-0.330316	-0.964039	-0.573491
C22	C	-0.431296	-0.963969	-0.438874
C23	C	-0.431281	-1.073692	-0.438866
C24	C	-0.279811	-1.128658	-0.640800
C25	C	-0.229326	-1.073835	-0.708116
C26	C	-0.229337	-0.964111	-0.708120
C27	C	-0.279832	-0.909209	-0.640808
C28	C	-0.586175	-1.518242	-0.506166
C29	C	-0.674032	-1.518300	-0.506194
C30	C	-1.045510	-1.451249	-0.573368
C31	C	-1.045504	-1.585703	-0.439107
C32	C	-0.962958	-1.585666	-0.439098
C33	C	-0.921685	-1.518419	-0.506223
C34	C	-0.962957	-1.451208	-0.573358
C35	C	-0.921680	-1.652868	-0.371957
C36	C	-0.839129	-1.652834	-0.371943
C37	C	-0.797854	-1.585591	-0.439075
C38	C	-0.839131	-1.518378	-0.506213
C39	C	-0.797857	-1.451130	-0.573339
C40	C	-0.839133	-1.383922	-0.640483
C41	C	-0.921682	-1.383965	-0.640490
C42	C	-0.715305	-1.585548	-0.439069
C43	C	-0.715304	-1.451089	-0.573329
C44	C	-0.174641	-1.518447	-0.506225
C45	C	-0.086784	-1.518496	-0.506243
C46	C	-0.380729	-1.518403	-0.780218
C47	C	-0.380695	-1.518435	-0.896994
C48	C	-0.380829	-0.792363	-0.506200
C49	C	-0.380813	-0.909140	-0.506191
C50	C	-0.330143	-1.585669	-0.951874
C51	C	-0.330114	-1.585694	-1.061598
C52	C	-0.431197	-1.451247	-1.061554
C53	C	-0.431221	-1.451218	-0.951832
C54	C	-0.279617	-1.652886	-0.897036
C55	C	-0.229061	-1.720126	-0.951916
C56	C	-0.229032	-1.720151	-1.061640
C57	C	-0.279559	-1.652935	-1.116485
C58	C	-0.380831	-1.518317	-0.233217
C59	C	-0.380643	-1.518489	-0.116441
H60	H	-0.279820	-0.819865	-0.640794
H61	H	-0.187918	-1.774844	-0.907254
H62	H	-0.472373	-1.396454	-0.907148
N63	N	-0.174891	-0.904982	-0.780724
H64	H	-0.182559	-0.827143	-0.770516
H65	H	-0.118421	-0.924164	-0.764506
N66	N	-0.670781	-1.658021	-0.366659
H67	H	-0.685188	-1.641747	-0.291580
H68	H	-0.685119	-1.733059	-0.383128
N69	N	-0.174869	-1.133046	-0.780715
H70	H	-0.142890	-1.081664	-0.823354
H71	H	-0.138246	-1.178563	-0.738034
N72	N	-0.279827	-1.247001	-0.640832
H73	H	-0.240189	-1.273460	-0.693697
H74	H	-0.265260	-1.273361	-0.568769
H75	H	-0.472408	-0.919260	-0.384074
N76	N	-0.485724	-1.132831	-0.366266
H77	H	-0.517718	-1.081408	-0.323631
H78	H	-0.522334	-1.178371	-0.408945
H79	H	-0.187861	-1.774894	-1.106320
H80	H	-0.955291	-1.707610	-0.317299
N81	N	-0.279523	-1.652966	-1.234830
H82	H	-0.333741	-1.672252	-1.261249
H83	H	-0.264944	-1.580893	-1.261172
N84	N	-0.485683	-1.378744	-1.120702
H85	H	-0.477995	-1.388962	-1.198538
H86	H	-0.542145	-1.395044	-1.101513
H87	H	-0.279636	-1.652875	-0.807694
N88	N	-0.670789	-1.378561	-0.645734
H89	H	-0.709465	-1.335996	-0.688267
H90	H	-0.636586	-1.329944	-0.602920
H91	H	-0.805519	-1.329164	-0.695133
H92	H	-0.955296	-1.329246	-0.695154
H93	H	-1.079121	-1.396533	-0.628038
H94	H	-1.079114	-1.640447	-0.384451
N95	N	-0.794613	-1.725328	-0.299538
H96	H	-0.833287	-1.767936	-0.257019
H97	H	-0.760326	-1.773906	-0.342356
