data_functionalizedCrystal
_audit_creation_method	'MofGen! by Chris Wilmer'
_symmetry_space_group_name_H-M	'P1'
_symmetry_Int_Tables_number	1
_symmetry_cell_setting	triclinic
loop_
_symmetry_equiv_pos_as_xyz
  x,y,z
_cell_length_a	12.759400
_cell_length_b	12.759401
_cell_length_c	12.759393
_cell_angle_alpha	90.020086
_cell_angle_beta	89.970184
_cell_angle_gamma	89.987219
loop_
_atom_site_label
_atom_site_type_symbol
_atom_site_fract_x
_atom_site_fract_y
_atom_site_fract_z
Zn1	Zn	-0.418272	-1.606262	-0.594010
Zn2	Zn	-0.593986	-1.606155	-0.418330
Zn3	Zn	-0.418316	-1.430562	-0.418346
Zn4	Zn	-0.593904	-1.430553	-0.593969
O5	O	-0.506120	-1.518383	-0.506164
O6	O	-0.441597	-1.753269	-0.570716
O7	O	-0.570735	-1.582822	-0.271311
O8	O	-0.271289	-1.453918	-0.441672
O9	O	-0.570693	-1.753190	-0.441645
O10	O	-0.271257	-1.583004	-0.570732
O11	O	-0.441672	-1.453814	-0.271323
O12	O	-0.441592	-1.283540	-0.441632
O13	O	-0.570554	-1.453902	-0.740995
O14	O	-0.570596	-1.283534	-0.570661
O15	O	-0.441518	-1.582995	-0.741026
O16	O	-0.740996	-1.582813	-0.441605
O17	O	-0.740936	-1.453799	-0.570646
C18	C	-0.506091	-1.245416	-0.506145
C19	C	-0.506104	-1.128639	-0.506161
C20	C	-0.439003	-1.073819	-0.573472
C21	C	-0.439010	-0.964095	-0.573477
C22	C	-0.573227	-0.964021	-0.438859
C23	C	-0.573214	-1.073743	-0.438849
C24	C	-0.779087	-1.518322	-0.506142
C25	C	-0.895864	-1.518391	-0.506168
C26	C	-1.060453	-1.585707	-0.439084
C27	C	-0.950729	-1.585644	-0.439051
C28	C	-0.950728	-1.451189	-0.573314
C29	C	-1.060450	-1.451247	-0.573341
C30	C	-0.232086	-1.518474	-0.506209
C31	C	-0.115310	-1.518513	-0.506228
C32	C	-0.506022	-1.518460	-0.780197
C33	C	-0.505980	-1.518492	-0.896974
C34	C	-0.506139	-0.792417	-0.506180
C35	C	-0.506123	-0.909193	-0.506176
C36	C	-0.573106	-1.585694	-1.061565
C37	C	-0.573155	-1.585668	-0.951841
C38	C	-0.438758	-1.451330	-0.951837
C39	C	-0.438715	-1.451351	-1.061559
C40	C	-0.506141	-1.518368	-0.233196
C41	C	-0.505887	-1.518539	-0.116420
H42	H	-0.627867	-0.919312	-0.384057
H43	H	-0.627803	-1.640402	-1.106230
C44	C	-1.120800	-1.377327	-0.647204
C45	C	-1.196324	-1.294907	-0.601617
C46	C	-1.256673	-1.220986	-0.675472
C47	C	-1.241498	-1.229484	-0.794913
C48	C	-1.165970	-1.311907	-0.840506
C49	C	-1.105621	-1.385828	-0.766651
H50	H	-1.207561	-1.288613	-0.513194
H51	H	-1.312584	-1.159971	-0.641720
H52	H	-1.286172	-1.174764	-0.849585
H53	H	-1.154734	-1.318201	-0.928929
H54	H	-1.049710	-1.446843	-0.800403
H55	H	-0.384368	-0.919465	-0.628286
H56	H	-0.383976	-1.396660	-1.106223
C57	C	-0.647031	-1.134055	-0.364804
C58	C	-0.729556	-1.209504	-0.410180
C59	C	-0.803364	-1.269817	-0.336135
C60	C	-0.794648	-1.254682	-0.216715
C61	C	-0.712119	-1.179230	-0.171333
C62	C	-0.638311	-1.118917	-0.245378
H63	H	-0.736011	-1.220711	-0.498587
H64	H	-0.864457	-1.325671	-0.369730
H65	H	-0.849285	-1.299329	-0.161903
H66	H	-0.705663	-1.168023	-0.082926
H67	H	-0.577218	-1.063062	-0.211782
C68	C	-1.120800	-1.659687	-0.365252
C69	C	-1.060453	-1.733594	-0.291390
C70	C	-1.120797	-1.807573	-0.217552
C71	C	-1.241486	-1.807644	-0.217576
C72	C	-1.301840	-1.733734	-0.291441
C73	C	-1.241497	-1.659756	-0.365279
H74	H	-0.971105	-1.733544	-0.291369
H75	H	-1.076118	-1.862286	-0.162872
H76	H	-1.286156	-1.862408	-0.162917
H77	H	-1.391188	-1.733785	-0.291461
H78	H	-1.286175	-1.605043	-0.419959
H79	H	-0.906068	-1.640359	-0.384376
C80	C	-0.890377	-1.377209	-0.647143
C81	C	-0.815037	-1.294713	-0.601529
C82	C	-0.754688	-1.220734	-0.675361
C83	C	-0.769678	-1.229252	-0.794809
C84	C	-0.845021	-1.311751	-0.840429
C85	C	-0.905370	-1.385730	-0.766596
H86	H	-0.803938	-1.288405	-0.513101
H87	H	-0.698914	-1.159663	-0.641589
H88	H	-0.725003	-1.174488	-0.849464
H89	H	-0.856120	-1.318060	-0.928857
H90	H	-0.961144	-1.446802	-0.800369
C91	C	-0.647085	-1.659553	-0.891501
C92	C	-0.647137	-1.659538	-0.770811
C93	C	-0.721066	-1.733430	-0.710471
C94	C	-0.794943	-1.807337	-0.770821
C95	C	-0.794893	-1.807354	-0.891517
C96	C	-0.720964	-1.733463	-0.951857
H97	H	-0.592447	-1.604825	-0.726130
H98	H	-0.721103	-1.733416	-0.621123
H99	H	-0.849670	-1.862036	-0.726153
H100	H	-0.849584	-1.862067	-0.936198
H101	H	-0.720928	-1.733476	-1.041206
H102	H	-0.384354	-1.118512	-0.628278
H103	H	-0.384068	-1.396629	-0.907155
