data_functionalizedCrystal
_audit_creation_method	'MofGen! by Chris Wilmer'
_symmetry_space_group_name_H-M	'P1'
_symmetry_Int_Tables_number	1
_symmetry_cell_setting	triclinic
loop_
_symmetry_equiv_pos_as_xyz
  x,y,z
_cell_length_a	18.050589
_cell_length_b	15.298563
_cell_length_c	15.296720
_cell_angle_alpha	72.675135
_cell_angle_beta	99.646980
_cell_angle_gamma	80.279151
loop_
_atom_site_label
_atom_site_type_symbol
_atom_site_fract_x
_atom_site_fract_y
_atom_site_fract_z
Zn1	Zn	-0.145783	-1.330589	-0.280242
Zn2	Zn	0.354217	-0.830589	0.219758
Zn3	Zn	-0.244012	-1.357394	-0.124769
Zn4	Zn	0.255988	-0.857394	0.375231
Zn5	Zn	-0.145828	-1.202005	-0.151618
Zn6	Zn	0.354172	-0.702005	0.348382
Zn7	Zn	-0.295946	-1.175031	-0.307075
Zn8	Zn	0.204054	-0.675031	0.192925
O9	O	-0.207892	-1.266255	-0.215926
O10	O	0.292108	-0.766255	0.284074
O11	O	-0.137059	-1.464276	-0.237153
O12	O	0.362941	-0.964276	0.262847
O13	O	-0.209272	-1.359288	0.001795
O14	O	0.290728	-0.859288	0.501795
O15	O	-0.041889	-1.219133	-0.168687
O16	O	0.458111	-0.719133	0.331313
O17	O	-0.209228	-1.483970	-0.122927
O18	O	0.290772	-0.983970	0.377073
O19	O	-0.041855	-1.313603	-0.263186
O20	O	0.458145	-0.813603	0.236814
O21	O	-0.137137	-1.245125	-0.017931
O22	O	0.362863	-0.745125	0.482069
O23	O	-0.187496	-1.068296	-0.194705
O24	O	0.312504	-0.568296	0.305295
O25	O	-0.297742	-1.173160	-0.433641
O26	O	0.202258	-0.673160	0.066359
O27	O	-0.297786	-1.048478	-0.308919
O28	O	0.202214	-0.548478	0.191081
O29	O	-0.187417	-1.287447	-0.413927
O30	O	0.312583	-0.787447	0.086073
O31	O	-0.354835	-1.333132	-0.148946
O32	O	0.145165	-0.833132	0.351054
O33	O	-0.392990	-1.199151	-0.282886
O34	O	0.107010	-0.699151	0.217114
C35	C	-0.248282	-1.024645	-0.257638
C36	C	0.251718	-0.524645	0.242362
C37	C	-0.265583	-0.921279	-0.275505
C38	C	0.234417	-0.421279	0.224495
C39	C	-0.331189	-0.862444	-0.343268
C40	C	0.168811	-0.362444	0.156732
C41	C	-0.347441	-0.765326	-0.360063
C42	C	0.152559	-0.265326	0.139937
C43	C	-0.298093	-0.727033	-0.309092
C44	C	0.201907	-0.227033	0.190908
C45	C	-0.232488	-0.785869	-0.241323
C46	C	0.267512	-0.285869	0.258677
C47	C	-0.216231	-0.882997	-0.224531
C48	C	0.283769	-0.382997	0.275469
C49	C	-0.183135	-0.747586	-0.190355
C50	C	0.316865	-0.247586	0.309645
C51	C	-0.117530	-0.806422	-0.122586
C52	C	0.382470	-0.306422	0.377414
C53	C	-0.101276	-0.903539	-0.105797
C54	C	0.398724	-0.403539	0.394203
C55	C	-0.150625	-0.941832	-0.156768
C56	C	0.349375	-0.441832	0.343232
C57	C	-0.199392	-0.650458	-0.207147
C58	C	0.300608	-0.150458	0.292853
C59	C	-0.084434	-0.671011	-0.088410
C60	C	0.415566	-0.171011	0.411590
C61	C	-0.068182	-0.768129	-0.071615
C62	C	0.431818	-0.268129	0.428385
C63	C	-0.400860	-1.266145	-0.215930
C64	C	0.099140	-0.766145	0.284070
C65	C	-0.483404	-1.266178	-0.215948
C66	C	0.016596	-0.766178	0.284052
C67	C	-0.703617	-1.193384	-0.288752
C68	C	-0.203617	-0.693384	0.211248
C69	C	-0.742667	-1.185411	-0.207812
C70	C	-0.242667	-0.685411	0.292188
C71	C	-0.634521	-1.266267	-0.215945
C72	C	-0.134521	-0.766267	0.284055
C73	C	-0.742547	-1.274284	-0.296886
C74	C	-0.242547	-0.774284	0.203114
C75	C	-0.780495	-1.266350	-0.215949
C76	C	-0.280495	-0.766350	0.284051
C77	C	-0.672484	-1.258257	-0.134968
C78	C	-0.172484	-0.758257	0.365032
C79	C	-0.672362	-1.347160	-0.224092
C80	C	-0.172362	-0.847160	0.275908
C81	C	-0.711375	-1.339229	-0.143088
C82	C	-0.211375	-0.839229	0.356912
C83	C	-0.550430	-1.266217	-0.215944
C84	C	-0.050430	-0.766217	0.284056
C85	C	-0.864583	-1.266403	-0.215940
C86	C	-0.364583	-0.766403	0.284060
C87	C	-0.014169	-1.266387	-0.215938
C88	C	0.485831	-0.766387	0.284062
C89	C	0.068384	-1.266443	-0.215943
C90	C	0.568384	-0.766443	0.284057
C91	C	-0.248368	-1.224304	-0.458468
C92	C	0.251632	-0.724304	0.041532
C93	C	-0.265616	-1.206428	-0.561825
C94	C	0.234384	-0.706428	-0.061825
C95	C	-0.167339	-0.508809	-0.174043
C96	C	0.332661	-0.008809	0.325957
C97	C	-0.150040	-0.612176	-0.156173
C98	C	0.349960	-0.112176	0.343827
C99	C	-0.084480	-1.394057	-0.812113
C100	C	0.415520	-0.894057	-0.312113
C101	C	-0.068275	-1.410859	-0.715003
C102	C	0.431725	-0.910859	-0.215003
C103	C	-0.117609	-1.359752	-0.676703
C104	C	0.382391	-0.859752	-0.176703
C105	C	-0.183151	-1.291841	-0.735523
C106	C	0.316849	-0.791841	-0.235523
C107	C	-0.199361	-1.275043	-0.832642
C108	C	0.300639	-0.775043	-0.332642
C109	C	-0.232489	-1.240738	-0.697233
C110	C	0.267511	-0.740738	-0.197233
C111	C	-0.298031	-1.172827	-0.756053
C112	C	0.201969	-0.672827	-0.256053
C113	C	-0.314238	-1.156032	-0.853161
C114	C	0.185762	-0.656032	-0.353161
C115	C	-0.264905	-1.207138	-0.891461
C116	C	0.235095	-0.707138	-0.391461
C117	C	-0.216279	-1.257537	-0.600114
C118	C	0.283721	-0.757537	-0.100114
C119	C	-0.331160	-1.138523	-0.620644
C120	C	0.168840	-0.638523	-0.120644
C121	C	-0.347365	-1.121721	-0.717753
C122	C	0.152635	-0.621721	-0.217753
C123	C	-0.167512	-1.308095	0.025681
C124	C	0.332488	-0.808095	0.525681
C125	C	-0.150024	-1.326152	0.129068
C126	C	0.349976	-0.826152	0.629068
H127	H	-0.047853	-0.951441	-0.050620
H128	H	0.452147	-0.451441	0.449380
Cl129	Cl	0.014291	-0.842104	0.013576
Cl130	Cl	0.514291	-0.342104	0.513576
Cl131	Cl	-0.022475	-1.458305	-0.860264
Cl132	Cl	0.477525	-0.958305	-0.360264
Cl133	Cl	-0.022390	-0.622879	-0.024332
Cl134	Cl	0.477610	-0.122879	0.475668
H135	H	-0.371332	-1.096909	-0.589461
H136	H	0.128668	-0.596909	-0.089461
H137	H	-0.641820	-1.415508	-0.231018
H138	H	-0.141820	-0.915508	0.268982
Cl139	Cl	-0.697299	-1.098130	-0.383719
Cl140	Cl	-0.197299	-0.598130	0.116281
H141	H	-0.014912	-1.466154	-0.667118
H142	H	0.485088	-0.966154	-0.167118
Cl143	Cl	-0.281864	-0.576505	-0.292339
Cl144	Cl	0.218136	-0.076505	0.207661
Cl145	Cl	-0.133886	-1.342907	-0.526181
Cl146	Cl	0.366114	-0.842907	-0.026181
H147	H	-0.773221	-1.117040	-0.200930
H148	H	-0.273221	-0.617040	0.299070
H149	H	-0.642148	-1.251428	-0.066513
H150	H	-0.142148	-0.751428	0.433487
Cl151	Cl	-0.393221	-0.910589	-0.407333
Cl152	Cl	0.106779	-0.410589	0.092667
Cl153	Cl	-0.285278	-1.186024	-1.013546
Cl154	Cl	0.214722	-0.686024	-0.513546
Cl155	Cl	-0.396644	-1.070673	-0.927102
Cl156	Cl	0.103356	-0.570673	-0.427102
H157	H	-0.715313	-1.400910	-0.081458
H158	H	-0.215313	-0.900910	0.418542
Cl159	Cl	-0.429759	-1.036352	-0.791708
Cl160	Cl	0.070241	-0.536352	-0.291708
Cl161	Cl	-0.789541	-1.284705	-0.402564
Cl162	Cl	-0.289541	-0.784705	0.097436
Cl163	Cl	-0.130197	-1.063929	-0.135654
Cl164	Cl	0.369803	-0.563929	0.364346
Cl165	Cl	-0.318527	-0.604940	-0.330205
Cl166	Cl	0.181473	-0.104940	0.169795
Cl167	Cl	-0.429912	-0.691368	-0.445254
Cl168	Cl	0.070088	-0.191368	0.054746
Cl169	Cl	-0.097233	-1.380873	-0.554621
Cl170	Cl	0.402767	-0.880873	-0.054621
