data_functionalizedCrystal
_audit_creation_method	'MofGen! by Chris Wilmer'
_symmetry_space_group_name_H-M	'P1'
_symmetry_Int_Tables_number	1
_symmetry_cell_setting	triclinic
loop_
_symmetry_equiv_pos_as_xyz
  x,y,z
_cell_length_a	15.297327
_cell_length_b	12.759401
_cell_length_c	12.759393
_cell_angle_alpha	89.981756
_cell_angle_beta	99.642489
_cell_angle_gamma	99.705457
loop_
_atom_site_label
_atom_site_type_symbol
_atom_site_fract_x
_atom_site_fract_y
_atom_site_fract_z
Zn1	Zn	-0.359136	1.533788	-0.666305
Zn2	Zn	0.140864	2.033788	-0.166305
Zn3	Zn	-0.510021	1.503239	-0.521010
Zn4	Zn	-0.010021	2.003239	-0.021010
Zn5	Zn	-0.359178	1.358083	-0.490653
Zn6	Zn	0.140822	1.858083	0.009347
Zn7	Zn	-0.509951	1.327649	-0.696637
Zn8	Zn	-0.009951	1.827649	-0.196637
O9	O	-0.434572	1.430690	-0.593651
O10	O	0.065428	1.930690	-0.093651
O11	O	-0.379163	1.676755	-0.647042
O12	O	0.120837	2.176755	-0.147042
O13	O	-0.490059	1.483936	-0.369972
O14	O	0.009941	1.983936	0.130028
O15	O	-0.232928	1.406912	-0.488555
O16	O	0.267072	1.906912	0.011445
O17	O	-0.490018	1.654310	-0.540295
O18	O	0.009982	2.154310	-0.040295
O19	O	-0.232897	1.536002	-0.617606
O20	O	0.267103	2.036002	-0.117606
O21	O	-0.379235	1.377290	-0.347668
O22	O	0.120765	1.877290	0.152332
O23	O	-0.379167	1.207027	-0.517967
O24	O	0.120833	1.707027	-0.017967
O25	O	-0.489898	1.355042	-0.839625
O26	O	0.010102	1.855042	-0.339625
O27	O	-0.489939	1.184667	-0.669303
O28	O	0.010061	1.684667	-0.169303
O29	O	-0.379095	1.506492	-0.817341
O30	O	0.120905	2.006492	-0.317341
O31	O	-0.636257	1.454425	-0.569706
O32	O	-0.136257	1.954425	-0.069706
O33	O	-0.636205	1.325420	-0.698739
O34	O	-0.136205	1.825420	-0.198739
C35	C	-0.434551	1.157727	-0.593633
C36	C	0.065449	1.657727	-0.093633
C37	C	-0.434563	1.040948	-0.593654
C38	C	0.065437	1.540948	-0.093654
C39	C	-0.376950	0.997743	-0.649363
C40	C	0.123050	1.497743	-0.149363
C41	C	-0.376968	0.888016	-0.649373
C42	C	0.123032	1.388016	-0.149373
C43	C	-0.492219	0.864705	-0.537963
C44	C	0.007781	1.364705	-0.037963
C45	C	-0.492196	0.974431	-0.537947
C46	C	0.007804	1.474431	-0.037947
C47	C	-0.319317	1.064259	-0.705070
C48	C	0.180683	1.564259	-0.205070
C49	C	-0.261700	1.021056	-0.760785
C50	C	0.238300	1.521056	-0.260785
C51	C	-0.261718	0.911328	-0.760795
C52	C	0.238282	1.411328	-0.260795
C53	C	-0.319352	0.844804	-0.705090
C54	C	0.180648	1.344804	-0.205090
C55	C	-0.668965	1.383333	-0.640831
C56	C	-0.168965	1.883333	-0.140831
C57	C	-0.769239	1.363170	-0.661050
C58	C	-0.269239	1.863170	-0.161050
C59	C	-1.051878	1.575232	-0.449503
C60	C	-0.551878	2.075232	0.050497
C61	C	-0.957665	1.594176	-0.430501
C62	C	-0.457665	2.094176	0.069499
C63	C	-0.910554	1.536426	-0.488137
C64	C	-0.410554	2.036426	0.011863
C65	C	-0.957665	1.459729	-0.564777
C66	C	-0.457665	1.959729	-0.064777
C67	C	-1.051887	1.440778	-0.583775
C68	C	-0.551887	1.940778	-0.083775
C69	C	-0.910563	1.401972	-0.622409
C70	C	-0.410563	1.901972	-0.122409
C71	C	-0.957674	1.325275	-0.699050
C72	C	-0.457674	1.825275	-0.199050
C73	C	-1.051887	1.306328	-0.718044
C74	C	-0.551887	1.806328	-0.218044
C75	C	-1.098998	1.364077	-0.660409
C76	C	-0.598998	1.864077	-0.160409
C77	C	-0.816341	1.420924	-0.603411
C78	C	-0.316341	1.920924	-0.103411
C79	C	-0.816350	1.286469	-0.737683
C80	C	-0.316350	1.786469	-0.237683
C81	C	-0.910563	1.267526	-0.756685
C82	C	-0.410563	1.767526	-0.256685
C83	C	-0.199263	1.478260	-0.546311
C84	C	0.300737	1.978260	-0.046311
C85	C	-0.098989	1.498531	-0.526137
C86	C	0.401011	1.998531	-0.026137
C87	C	-0.434484	1.430779	-0.867667
C88	C	0.065516	1.930779	-0.367667
C89	C	-0.434447	1.430818	-0.984436
C90	C	0.065553	1.930818	-0.484436
C91	C	-0.434594	1.704719	-0.593671
C92	C	0.065406	2.204719	-0.093671
C93	C	-0.434603	1.821493	-0.593680
C94	C	0.065397	2.321493	-0.093680
C95	C	-0.492085	1.352023	-1.160617
C96	C	0.007915	1.852023	-0.660617
C97	C	-0.492118	1.351984	-1.050900
C98	C	0.007882	1.851984	-0.550900
C99	C	-0.376733	1.509689	-1.027694
C100	C	0.123267	2.009689	-0.527694
C101	C	-0.376696	1.509723	-1.137409
C102	C	0.123304	2.009723	-0.637409
C103	C	-0.549766	1.273191	-1.227077
C104	C	-0.049766	1.773191	-0.727077
C105	C	-0.607480	1.194318	-1.183827
C106	C	-0.107480	1.694318	-0.683827
C107	C	-0.607513	1.194279	-1.074109
C108	C	-0.107513	1.694279	-0.574109
C109	C	-0.549832	1.273113	-1.007642
C110	C	-0.049832	1.773113	-0.507642
C111	C	-0.434594	1.430674	-0.320689
C112	C	0.065406	1.930674	0.179311
C113	C	-0.434377	1.430891	-0.203869
C114	C	0.065623	1.930891	0.296131
H115	H	-0.214771	1.075228	-0.806130
H116	H	0.285229	1.575228	-0.306130
H117	H	-0.549748	1.273215	-1.316416
H118	H	-0.049748	1.773215	-0.816416
H119	H	-0.549861	1.273072	-0.918303
H120	H	-0.049861	1.773072	-0.418303
Cl121	Cl	-0.189280	0.857019	-0.830826
Cl122	Cl	0.310720	1.357019	-0.330826
Cl123	Cl	-0.679980	1.095211	-1.267381
Cl124	Cl	-0.179980	1.595211	-0.767381
Cl125	Cl	-0.564671	0.781074	-0.467943
Cl126	Cl	-0.064671	1.281074	0.032057
Cl127	Cl	-0.304123	1.608849	-1.191782
Cl128	Cl	0.195877	2.108849	-0.691782
Cl129	Cl	-0.757128	1.517340	-0.507067
Cl130	Cl	-0.257128	2.017340	-0.007067
H131	H	-0.539110	1.009608	-0.492584
H132	H	-0.039110	1.509608	0.007416
H133	H	-1.090242	1.243863	-0.780438
H134	H	-0.590242	1.743863	-0.280438
H135	H	-0.329773	1.573873	-0.973569
H136	H	0.170227	2.073873	-0.473569
H137	H	-0.654498	1.130049	-1.038897
H138	H	-0.154498	1.630049	-0.538897
Cl139	Cl	-1.111107	1.647819	-0.377055
Cl140	Cl	-0.611107	2.147819	0.122945
Cl141	Cl	-0.969799	1.171109	-0.853029
Cl142	Cl	-0.469799	1.671109	-0.353029
H143	H	-0.777993	1.239443	-0.784613
H144	H	-0.277993	1.739443	-0.284613
H145	H	-1.175714	1.348660	-0.675879
H146	H	-0.675714	1.848660	-0.175879
Cl147	Cl	-0.792114	1.560531	-0.464536
Cl148	Cl	-0.292114	2.060531	0.035464
H149	H	-0.319297	1.153606	-0.705067
H150	H	0.180703	1.653606	-0.205067
H151	H	-0.319342	0.755462	-0.705076
H152	H	0.180658	1.255462	-0.205076
H153	H	-0.919311	1.656621	-0.368101
H154	H	-0.419311	2.156621	0.131899
