data_functionalizedCrystal
_audit_creation_method	'MofGen! by Chris Wilmer'
_symmetry_space_group_name_H-M	'P1'
_symmetry_Int_Tables_number	1
_symmetry_cell_setting	triclinic
loop_
_symmetry_equiv_pos_as_xyz
  x,y,z
_cell_length_a	17.699077
_cell_length_b	12.503572
_cell_length_c	17.699083
_cell_angle_alpha	93.515225
_cell_angle_beta	96.718205
_cell_angle_gamma	93.510457
loop_
_atom_site_label
_atom_site_type_symbol
_atom_site_fract_x
_atom_site_fract_y
_atom_site_fract_z
O1	O	1.008451	0.089308	-0.091304
O2	O	0.788072	0.089314	-0.103761
O3	O	0.904487	0.089301	0.012657
O4	O	0.892035	0.089321	-0.207721
O5	O	0.895732	-0.089340	0.003887
O6	O	0.779317	-0.089327	-0.112530
O7	O	0.999695	-0.089333	-0.100073
Cu8	Cu	0.888707	-0.105641	-0.107103
Cu9	Cu	0.899061	0.105622	-0.096731
O10	O	0.883280	-0.089320	-0.216491
C11	C	0.755497	-0.000006	-0.107700
C12	C	0.671479	-0.000004	-0.106363
C13	C	0.627239	-0.097383	-0.110513
C14	C	0.548297	-0.097384	-0.109245
C15	C	0.513595	-0.000006	-0.103832
C16	C	0.557841	0.097380	-0.099679
C17	C	0.636783	0.097380	-0.100942
C18	C	0.239477	0.097382	-0.094586
C19	C	0.160529	0.097374	-0.093325
C20	C	0.150992	-0.097382	-0.102889
C21	C	0.229933	-0.097382	-0.104152
C22	C	0.274173	0.000003	-0.099995
C23	C	0.359772	0.000003	-0.101368
C24	C	0.427997	-0.000005	-0.102464
N25	N	0.881430	-0.254233	-0.114397
C26	C	0.870725	-0.473347	-0.125133
C27	C	0.917046	-0.526679	-0.078697
C28	C	0.911090	-0.648601	-0.084671
C29	C	0.876680	-0.351413	-0.119160
C30	C	1.032270	-0.000010	-0.096134
C31	C	1.116289	-0.000005	-0.097471
C32	C	0.899663	-0.000019	0.036469
C33	C	0.898325	-0.000020	0.120487
N34	N	0.906344	0.254214	-0.089431
C35	C	0.888104	0.000003	-0.240303
C36	C	0.889443	0.000010	-0.324320
C37	C	0.966658	-0.000023	0.169109
C38	C	0.965396	-0.000013	0.248053
C39	C	0.895800	-0.000008	0.278372
C40	C	0.827461	-0.000002	0.229744
C41	C	0.828724	-0.000004	0.150802
C42	C	0.822366	0.000007	0.548108
C43	C	0.821109	0.000006	0.627055
C44	C	0.959038	-0.000003	0.645358
C45	C	0.960301	-0.000004	0.566416
C46	C	0.891964	0.000008	0.517795
C47	C	0.893333	-0.000001	0.432196
C48	C	0.894430	-0.000008	0.363970
H49	H	0.655486	-0.176680	-0.114928
Cl50	Cl	0.802598	-0.544219	-0.193437
H51	H	1.023331	-0.000034	0.144429
H52	H	0.132278	0.176676	-0.088916
Cl53	Cl	1.051305	-0.000021	0.309175
H54	H	0.512281	-0.176679	-0.112612
H55	H	0.770795	0.000009	0.254437
Cl56	Cl	0.273554	-0.219805	-0.110962
H57	H	0.114962	-0.176678	-0.106271
H58	H	0.275489	0.176679	-0.091198
Cl59	Cl	0.514219	0.219800	-0.092846
Cl60	Cl	0.692399	0.219804	-0.095720
H61	H	1.016974	-0.000014	0.541735
Cl62	Cl	1.044951	-0.000014	0.706487
H63	H	0.961176	-0.480771	-0.034457
H64	H	0.764431	0.000008	0.651738
H65	H	0.766721	0.000017	0.508529
H66	H	0.773080	-0.000001	0.111214
