data_functionalizedCrystal
_audit_creation_method	'MofGen! by Chris Wilmer'
_symmetry_space_group_name_H-M	'P1'
_symmetry_Int_Tables_number	1
_symmetry_cell_setting	triclinic
loop_
_symmetry_equiv_pos_as_xyz
  x,y,z
_cell_length_a	16.625546
_cell_length_b	13.032831
_cell_length_c	13.033109
_cell_angle_alpha	103.334486
_cell_angle_beta	97.150917
_cell_angle_gamma	97.173222
loop_
_atom_site_label
_atom_site_type_symbol
_atom_site_fract_x
_atom_site_fract_y
_atom_site_fract_z
Zn1	Zn	-0.566824	-1.700046	-0.806356
Zn2	Zn	-0.682041	-1.677364	-0.628728
Zn3	Zn	-0.527607	-1.499875	-0.606253
Zn4	Zn	-0.681970	-1.522379	-0.783772
O5	O	-0.614611	-1.599916	-0.706277
O6	O	-0.598550	-1.845671	-0.801651
O7	O	-0.645173	-1.634909	-0.477117
O8	O	-0.419988	-1.526502	-0.632842
O9	O	-0.683200	-1.829007	-0.671148
O10	O	-0.448801	-1.673567	-0.779857
O11	O	-0.531710	-1.504509	-0.460604
O12	O	-0.531641	-1.354226	-0.610944
O13	O	-0.683079	-1.564858	-0.935398
O14	O	-0.645052	-1.370760	-0.741366
O15	O	-0.598481	-1.695389	-0.951990
O16	O	-0.794853	-1.656731	-0.649250
O17	O	-0.794801	-1.542864	-0.763160
C18	C	-0.824086	-1.599810	-0.706220
C19	C	-0.913714	-1.599866	-0.706243
C20	C	-0.584084	-1.323954	-0.671266
C21	C	-0.571046	-1.205899	-0.656313
C22	C	-0.645147	-1.635164	-0.983310
C23	C	-0.658159	-1.650184	-1.101365
C24	C	-1.241923	-1.600066	-0.706378
C25	C	-1.150605	-1.600007	-0.706343
C26	C	-1.077821	-1.599965	-0.706310
C27	C	-0.986498	-1.599908	-0.706276
C28	C	-0.404324	-1.600055	-0.706362
C29	C	-0.314712	-1.600114	-0.706398
C30	C	-0.645257	-1.876956	-0.741426
C31	C	-0.658317	-1.995014	-0.756404
C32	C	-0.621415	-1.161462	-0.714081
C33	C	-0.607942	-1.039447	-0.698628
C34	C	-0.607822	-1.592361	-1.145827
C35	C	-0.621270	-1.607884	-1.267843
C36	C	-0.584142	-1.564867	-0.430330
C37	C	-0.570925	-1.550052	-0.312302
H38	H	-0.674510	-1.213751	-0.774982
Cl39	Cl	-0.489061	-1.125180	-0.562295
Cl40	Cl	-0.740292	-1.075730	-0.850450
H41	H	-0.554773	-1.531360	-1.093561
H42	H	-0.517871	-1.489049	-1.260041
Cl43	Cl	-0.703188	-1.702059	-1.348525
Cl44	Cl	-0.740074	-1.744355	-1.182050
H45	H	-0.554838	-0.987163	-0.637731
