data_functionalizedCrystal
_audit_creation_method	'MofGen! by Chris Wilmer'
_symmetry_space_group_name_H-M	'P1'
_symmetry_Int_Tables_number	1
_symmetry_cell_setting	triclinic
loop_
_symmetry_equiv_pos_as_xyz
  x,y,z
_cell_length_a	23.096457
_cell_length_b	23.096457
_cell_length_c	17.917559
_cell_angle_alpha	63.038801
_cell_angle_beta	90.001221
_cell_angle_gamma	60.000185
loop_
_atom_site_label
_atom_site_type_symbol
_atom_site_fract_x
_atom_site_fract_y
_atom_site_fract_z
Zr1	Zr	0.561092	0.627110	-0.093857
O2	O	0.472674	0.739828	-0.208056
O3	O	0.588194	0.508796	-0.058854
O4	O	0.593461	0.619043	-0.208068
O5	O	0.463256	0.637895	0.058866
O6	O	0.688741	0.619045	-0.208072
O7	O	0.467408	0.629581	-0.058842
O8	O	0.679320	0.421833	0.058845
O9	O	0.472677	0.835106	-0.208051
O10	O	0.670862	0.559533	-0.043923
O11	O	0.596657	0.565737	0.043924
O12	O	0.602857	0.695538	-0.131756
O13	O	0.528652	0.701742	-0.043909
Zr14	Zr	0.706431	0.640371	0.093866
Zr15	Zr	0.713053	0.627112	-0.093864
Zr16	Zr	0.554469	0.640369	0.093873
Zr17	Zr	0.561095	0.779067	-0.093849
Zr18	Zr	0.706427	0.488413	0.093858
O19	O	0.679328	0.758684	0.058862
O20	O	0.688744	0.739831	-0.208066
O21	O	0.463259	0.758681	0.058872
O22	O	0.794848	0.527652	0.208065
O23	O	0.804264	0.508799	-0.058863
O24	O	0.578778	0.527649	0.208074
O25	O	0.804267	0.629586	-0.058857
O26	O	0.674062	0.648437	0.208076
O27	O	0.578781	0.648436	0.208081
O28	O	0.800114	0.637899	0.058851
O29	O	0.593466	0.835108	-0.208056
O30	O	0.674057	0.432372	0.208065
O31	O	0.794846	0.432374	0.208060
O32	O	0.800109	0.421835	0.058839
O33	O	0.467413	0.845646	-0.058831
O34	O	0.588202	0.845647	-0.058836
O35	O	0.664665	0.571942	0.131765
O36	O	0.738870	0.565739	0.043918
O37	O	0.670866	0.701744	-0.043915
O38	O	0.596660	0.707947	0.043932
C39	C	0.633757	0.443664	-0.000006
C40	C	0.633755	0.379154	-0.000009
C41	C	0.672485	0.345615	-0.045867
C42	C	0.672492	0.284993	-0.045860
C43	C	0.633755	0.257923	-0.000006
C44	C	0.595023	0.291467	0.045862
C45	C	0.595023	0.352083	0.045861
N46	N	0.573575	0.195078	-0.006362
N47	N	0.573577	0.137497	-0.006365
C48	C	0.633754	0.075292	0.000002
N49	N	0.693930	0.072850	0.006356
N50	N	0.693927	0.130438	0.006354
C51	C	0.633751	0.192196	0.000000
C52	C	0.672495	-0.023981	-0.045851
C53	C	0.672503	-0.084607	-0.045838
C54	C	0.595028	-0.078126	0.045879
C55	C	0.595026	-0.017507	0.045871
C56	C	0.633758	0.009564	0.000001
C57	C	0.443681	0.633738	0.000013
C58	C	0.379169	0.633737	0.000016
C59	C	0.384361	0.562745	0.045856
C60	C	0.323746	0.562744	0.045859
C61	C	0.257939	0.633738	0.000006
C62	C	0.252749	0.704739	-0.045835
C63	C	0.313364	0.704739	-0.045831
N64	N	0.137777	0.683722	-0.074620
N65	N	0.080197	0.683718	-0.074623
C66	C	0.075307	0.633744	-0.000009
N67	N	0.130176	0.583762	0.074607
N68	N	0.187762	0.583764	0.074608
C69	C	0.192208	0.633746	-0.000003
C70	C	0.014775	0.562747	0.045839
C71	C	-0.045843	0.562749	0.045845
C72	C	-0.116840	0.704746	-0.045858
C73	C	-0.056222	0.704742	-0.045856
C74	C	0.009583	0.633740	-0.000009
C75	C	0.823842	0.633743	-0.000004
C76	C	0.888353	0.633744	-0.000007
C77	C	0.642045	0.617155	-0.234817
C78	C	0.644856	0.611526	-0.314514
C79	C	0.633766	0.823816	0.000014
C80	C	0.633767	0.888326	0.000018
C81	C	0.617519	0.666227	-0.539540
C82	C	0.650002	0.601257	-0.460448
C83	C	0.647138	0.606972	-0.379244
C84	C	0.620382	0.660513	-0.620754
C85	C	0.625478	0.650325	0.234826
C86	C	0.622667	0.655954	0.314522
C87	C	0.823837	0.443667	-0.000014
C88	C	0.888347	0.379157	-0.000020
C89	C	0.625473	0.460249	0.234816
C90	C	0.622661	0.401368	0.314509
C91	C	0.815554	0.460252	0.234808
C92	C	0.877253	0.401371	0.314498
C93	C	0.451968	0.807228	-0.234799
C94	C	0.390270	0.866109	-0.314489
C95	C	0.443685	0.823814	0.000023
C96	C	0.379175	0.888323	0.000029
C97	C	0.642049	0.807231	-0.234807
C98	C	0.644862	0.866112	-0.314500
C99	C	0.883143	0.345623	-0.045883
C100	C	0.943752	0.285017	-0.045907
C101	C	1.009564	0.257942	-0.000062
C102	C	1.014768	0.291482	0.045802
C103	C	0.954160	0.352091	0.045820
C104	C	0.656839	0.376956	0.397794
C105	C	0.654193	0.321640	0.472681
C106	C	0.617373	0.290732	0.464282
C107	C	0.583190	0.315149	0.380988
C108	C	0.585832	0.370469	0.306103
C109	C	0.944968	0.370483	0.306066
C110	C	1.002947	0.315166	0.380936
C111	C	0.993209	0.290736	0.464237
C112	C	0.925486	0.321630	0.472667
C113	C	0.867509	0.376950	0.397798
C114	C	0.322554	0.897005	-0.306057
C115	C	0.264576	0.952340	-0.380927
C116	C	0.274314	0.976774	-0.464228
C117	C	0.342036	0.945875	-0.472659
C118	C	0.400013	0.890545	-0.397789
C119	C	0.384380	0.921863	0.045884
C120	C	0.323772	0.982484	0.045887
C121	C	0.257959	1.009561	0.000039
C122	C	0.252756	0.976018	-0.045821
C123	C	0.313363	0.915402	-0.045829
C124	C	0.681688	0.897003	-0.306073
C125	C	0.684345	0.952320	-0.380946
C126	C	0.650170	0.976751	-0.464245
C127	C	0.613342	0.945854	-0.472671
C128	C	0.610690	0.890534	-0.397799
H129	H	0.563485	0.269423	0.083197
H130	H	0.686822	0.402116	0.404649
H131	H	0.437962	0.899822	0.083225
H132	H	0.682031	0.301767	0.540494
H133	H	0.208614	1.058919	0.000052
Br134	Br	0.539445	0.403588	0.193077
Br135	Br	0.699942	0.501392	-0.449232
Br136	Br	0.330850	1.027992	0.108133
Br137	Br	0.195622	1.051867	-0.565829
H138	H	0.455149	0.865389	-0.404665
Br139	Br	0.613794	0.215656	0.565922
H140	H	-0.060453	0.762550	-0.083190
Br141	Br	0.567582	0.766085	-0.550751
H142	H	0.199163	0.998074	-0.083149
Br143	Br	0.306287	0.869887	-0.108062
Br144	Br	0.533222	0.273195	0.369604
H145	H	0.709518	0.877121	-0.238253
Br146	Br	0.793834	0.382356	-0.108112
H147	H	0.563483	0.379391	0.083204
H148	H	1.040423	0.245690	0.525193
H149	H	0.952910	0.390365	0.238244
H150	H	0.714333	0.977471	-0.374069
H151	H	0.917567	0.301731	0.540501
H152	H	0.704025	0.367652	-0.083215
H153	H	0.314612	0.877114	-0.238236
H154	H	0.939501	0.257716	-0.083254
H155	H	1.058084	0.290017	0.374056
Br156	Br	0.653775	1.051832	-0.565850
Br157	Br	0.775611	0.418861	0.409257
Br158	Br	0.172675	0.994261	-0.369465
H159	H	1.058910	0.208590	-0.000082
Br160	Br	1.104091	0.254727	0.108019
Br161	Br	0.961235	0.397591	0.108074
Br162	Br	0.355240	0.979042	-0.585717
Br163	Br	0.725062	0.012758	-0.108096
Br164	Br	0.566959	0.979025	-0.585727
Br165	Br	0.560700	0.848623	-0.409252
Br166	Br	0.306316	0.801092	-0.108045
Br167	Br	0.725067	0.239456	-0.108089
H168	H	0.563488	-0.100166	0.083214
Br169	Br	0.725068	-0.130125	-0.108082
H170	H	0.437939	0.504929	0.083182
Br171	Br	0.330787	0.466392	0.108072
Br172	Br	0.542461	0.028014	0.108111
H173	H	0.199165	0.762543	-0.083169
H174	H	-0.041609	0.504937	0.083179
Br175	Br	0.104084	0.466390	0.108060
H176	H	-0.170420	0.762550	-0.083193
