data_functionalizedCrystal
_audit_creation_method	'MofGen! by Chris Wilmer'
_symmetry_space_group_name_H-M	'P1'
_symmetry_Int_Tables_number	1
_symmetry_cell_setting	triclinic
loop_
_symmetry_equiv_pos_as_xyz
  x,y,z
_cell_length_a	18.101395
_cell_length_b	16.625547
_cell_length_c	16.625539
_cell_angle_alpha	90.027058
_cell_angle_beta	89.972352
_cell_angle_gamma	89.969710
loop_
_atom_site_label
_atom_site_type_symbol
_atom_site_fract_x
_atom_site_fract_y
_atom_site_fract_z
Zn1	Zn	-0.294844	-1.232632	-0.456053
Zn2	Zn	-0.044844	-0.982632	-0.206053
Zn3	Zn	0.205156	-0.732632	0.043947
Zn4	Zn	0.455156	-0.482632	0.293947
Zn5	Zn	-0.418693	-1.232515	-0.321221
Zn6	Zn	-0.168693	-0.982515	-0.071221
Zn7	Zn	0.081307	-0.732515	0.178779
Zn8	Zn	0.331307	-0.482515	0.428779
Zn9	Zn	-0.294868	-1.097794	-0.321218
Zn10	Zn	-0.044868	-0.847794	-0.071218
Zn11	Zn	0.205132	-0.597794	0.178782
Zn12	Zn	0.455132	-0.347794	0.428782
Zn13	Zn	-0.418647	-1.097744	-0.455996
Zn14	Zn	-0.168647	-0.847744	-0.205996
Zn15	Zn	0.081353	-0.597744	0.044004
Zn16	Zn	0.331353	-0.347744	0.294004
O17	O	-0.356763	-1.165171	-0.388622
O18	O	-0.106763	-0.915171	-0.138622
O19	O	0.143237	-0.665171	0.111378
O20	O	0.393237	-0.415171	0.361378
O21	O	-0.311283	-1.345449	-0.438192
O22	O	-0.061283	-1.095449	-0.188192
O23	O	0.188717	-0.845449	0.061808
O24	O	0.438717	-0.595449	0.311808
O25	O	-0.402297	-1.214616	-0.208388
O26	O	-0.152297	-0.964616	0.041612
O27	O	0.097703	-0.714616	0.291612
O28	O	0.347703	-0.464616	0.541612
O29	O	-0.191232	-1.115750	-0.339126
O30	O	0.058768	-0.865750	-0.089126
O31	O	0.308768	-0.615750	0.160874
O32	O	0.558768	-0.365750	0.410874
O33	O	-0.402274	-1.345363	-0.339132
O34	O	-0.152274	-1.095363	-0.089132
O35	O	0.097726	-0.845363	0.160868
O36	O	0.347726	-0.595363	0.410868
O37	O	-0.191215	-1.214815	-0.438189
O38	O	0.058785	-0.964815	-0.188189
O39	O	0.308785	-0.714815	0.061811
O40	O	0.558785	-0.464815	0.311811
O41	O	-0.311324	-1.115637	-0.208386
O42	O	-0.061324	-0.865637	0.041614
O43	O	0.188676	-0.615637	0.291614
O44	O	0.438676	-0.365637	0.541614
O45	O	-0.311279	-0.984955	-0.339071
O46	O	-0.061279	-0.734955	-0.089071
O47	O	0.188721	-0.484955	0.160929
O48	O	0.438721	-0.234955	0.410929
O49	O	-0.402195	-1.115665	-0.568836
O50	O	-0.152195	-0.865665	-0.318836
O51	O	0.097805	-0.615665	-0.068836
O52	O	0.347805	-0.365665	0.181164
O53	O	-0.402218	-0.984918	-0.438092
O54	O	-0.152218	-0.734918	-0.188092
O55	O	0.097782	-0.484918	0.061908
O56	O	0.347782	-0.234918	0.311908
O57	O	-0.311237	-1.214767	-0.568878
O58	O	-0.061237	-0.964767	-0.318878
O59	O	0.188763	-0.714767	-0.068878
O60	O	0.438763	-0.464767	0.181122
O61	O	-0.522320	-1.214567	-0.339077
O62	O	-0.272320	-0.964567	-0.089077
O63	O	-0.022320	-0.714567	0.160923
O64	O	0.227680	-0.464567	0.410923
O65	O	-0.522286	-1.115552	-0.438096
O66	O	-0.272286	-0.865552	-0.188096
O67	O	-0.022286	-0.615552	0.061904
O68	O	0.227714	-0.365552	0.311904
C69	C	-0.356746	-0.955680	-0.388576
C70	C	-0.106746	-0.705680	-0.138576
C71	C	0.143254	-0.455680	0.111424
C72	C	0.393254	-0.205680	0.361424
C73	C	-0.356757	-0.866059	-0.388575
C74	C	-0.106757	-0.616059	-0.138575
C75	C	0.143243	-0.366059	0.111425
C76	C	0.393243	-0.116059	0.361425
C77	C	-0.356757	-0.793277	-0.388582
C78	C	-0.106757	-0.543277	-0.138582
C79	C	0.143243	-0.293277	0.111418
C80	C	0.393243	-0.043277	0.361418
C81	C	-0.356760	-0.701968	-0.388599
C82	C	-0.106760	-0.451968	-0.138599
C83	C	0.143240	-0.201968	0.111401
C84	C	0.393240	0.048032	0.361401
C85	C	-0.356766	-0.629192	-0.388616
C86	C	-0.106766	-0.379192	-0.138616
C87	C	0.143234	-0.129192	0.111384
C88	C	0.393234	0.120808	0.361384
C89	C	-0.356770	-0.537878	-0.388632
C90	C	-0.106770	-0.287878	-0.138632
C91	C	0.143230	-0.037878	0.111368
C92	C	0.393230	0.212122	0.361368
C93	C	-0.549174	-1.165063	-0.388598
C94	C	-0.299174	-0.915063	-0.138598
C95	C	-0.049174	-0.665063	0.111402
C96	C	0.200826	-0.415063	0.361402
C97	C	-0.631488	-1.165091	-0.388615
C98	C	-0.381488	-0.915091	-0.138615
C99	C	-0.131488	-0.665091	0.111385
C100	C	0.118512	-0.415091	0.361385
C101	C	-0.930579	-1.165268	-0.388659
C102	C	-0.680579	-0.915268	-0.138659
C103	C	-0.430579	-0.665268	0.111341
C104	C	-0.180579	-0.415268	0.361341
C105	C	-0.899263	-1.103114	-0.451113
C106	C	-0.649263	-0.853114	-0.201113
C107	C	-0.399263	-0.603114	0.048887
C108	C	-0.149263	-0.353114	0.298887
C109	C	-0.813645	-1.102819	-0.450917
C110	C	-0.563645	-0.852819	-0.200917
C111	C	-0.313645	-0.602819	0.049083
C112	C	-0.063645	-0.352819	0.299083
C113	C	-0.782196	-1.165180	-0.388638
C114	C	-0.532196	-0.915180	-0.138638
C115	C	-0.282196	-0.665180	0.111362
C116	C	-0.032196	-0.415180	0.361362
C117	C	-0.813348	-1.142173	-0.303657
C118	C	-0.563348	-0.892173	-0.053657
C119	C	-0.313348	-0.642173	0.196343
C120	C	-0.063348	-0.392173	0.446343
C121	C	-0.898993	-1.141772	-0.304031
C122	C	-0.648993	-0.891772	-0.054031
C123	C	-0.398993	-0.641772	0.195969
C124	C	-0.148993	-0.391772	0.445969
C125	C	-0.898923	-1.250565	-0.410437
C126	C	-0.648923	-1.000565	-0.160437
C127	C	-0.398923	-0.750565	0.089563
C128	C	-0.148923	-0.500565	0.339563
C129	C	-0.813272	-1.250063	-0.412300
C130	C	-0.563272	-1.000063	-0.162300
C131	C	-0.313272	-0.750063	0.087700
C132	C	-0.063272	-0.500063	0.337700
C133	C	-0.698337	-1.165132	-0.388621
C134	C	-0.448337	-0.915132	-0.138621
C135	C	-0.198337	-0.665132	0.111379
C136	C	0.051663	-0.415132	0.361379
C137	C	-1.014438	-1.165314	-0.388670
C138	C	-0.764438	-0.915314	-0.138670
C139	C	-0.514438	-0.665314	0.111330
C140	C	-0.264438	-0.415314	0.361330
C141	C	-0.163601	-1.165302	-0.388663
C142	C	0.086399	-0.915302	-0.138663
C143	C	0.336399	-0.665302	0.111337
C144	C	0.586399	-0.415302	0.361337
C145	C	-0.081287	-1.165357	-0.388681
C146	C	0.168713	-0.915357	-0.138681
C147	C	0.418713	-0.665357	0.111319
C148	C	0.668713	-0.415357	0.361319
C149	C	-0.356708	-1.165224	-0.598931
C150	C	-0.106708	-0.915224	-0.348931
C151	C	0.143292	-0.665224	-0.098931
C152	C	0.393292	-0.415224	0.151069
C153	C	-0.356685	-1.165246	-0.688552
C154	C	-0.106685	-0.915246	-0.438552
C155	C	0.143315	-0.665246	-0.188552
C156	C	0.393315	-0.415246	0.061448
C157	C	-0.356778	-0.375480	-0.388659
C158	C	-0.106778	-0.125480	-0.138659
C159	C	0.143222	0.124520	0.111341
C160	C	0.393222	0.374520	0.361341
C161	C	-0.356776	-0.465101	-0.388650
C162	C	-0.106776	-0.215101	-0.138650
C163	C	0.143224	0.034899	0.111350
C164	C	0.393224	0.284899	0.361350
C165	C	-0.356602	-1.165283	-1.016728
C166	C	-0.106602	-0.915283	-0.766728
C167	C	0.143398	-0.665283	-0.516728
C168	C	0.393398	-0.415283	-0.266728
C169	C	-0.356627	-1.165271	-0.925419
C170	C	-0.106627	-0.915271	-0.675419
C171	C	0.143373	-0.665271	-0.425419
C172	C	0.393373	-0.415271	-0.175419
C173	C	-0.356644	-1.165265	-0.852643
C174	C	-0.106644	-0.915265	-0.602643
C175	C	0.143356	-0.665265	-0.352643
C176	C	0.393356	-0.415265	-0.102643
C177	C	-0.356668	-1.165252	-0.761329
C178	C	-0.106668	-0.915252	-0.511329
C179	C	0.143332	-0.665252	-0.261329
C180	C	0.393332	-0.415252	-0.011329
C181	C	-0.356765	-1.165165	-0.179131
C182	C	-0.106765	-0.915165	0.070869
C183	C	0.143235	-0.665165	0.320869
C184	C	0.393235	-0.415165	0.570869
C185	C	-0.356580	-1.165299	-0.089510
C186	C	-0.106580	-0.915299	0.160490
C187	C	0.143420	-0.665299	0.410490
C188	C	0.393420	-0.415299	0.660490
H189	H	-0.792581	-1.117214	-0.513929
H190	H	-0.542581	-0.867214	-0.263929
H191	H	-0.292581	-0.617214	-0.013929
H192	H	-0.042581	-0.367214	0.236071
Cl193	Cl	-0.932605	-1.006097	-0.429138
Cl194	Cl	-0.682605	-0.756097	-0.179138
Cl195	Cl	-0.432605	-0.506097	0.070862
Cl196	Cl	-0.182605	-0.256097	0.320862
H197	H	-0.791861	-1.298821	-0.370128
H198	H	-0.541861	-1.048821	-0.120128
H199	H	-0.291861	-0.798821	0.129872
H200	H	-0.041861	-0.548821	0.379872
H201	H	-0.791962	-1.080482	-0.284879
H202	H	-0.541962	-0.830482	-0.034879
H203	H	-0.291962	-0.580482	0.215121
H204	H	-0.041962	-0.330482	0.465121
Cl205	Cl	-0.782106	-1.005205	-0.428647
Cl206	Cl	-0.532106	-0.755205	-0.178647
Cl207	Cl	-0.282106	-0.505205	0.071353
Cl208	Cl	-0.032106	-0.255205	0.321353
Cl209	Cl	-0.929940	-1.045507	-0.275551
Cl210	Cl	-0.679940	-0.795507	-0.025551
Cl211	Cl	-0.429940	-0.545507	0.224449
Cl212	Cl	-0.179940	-0.295507	0.474449
Cl213	Cl	-0.930989	-1.125112	-0.548717
Cl214	Cl	-0.680989	-0.875112	-0.298717
Cl215	Cl	-0.430989	-0.625112	-0.048717
Cl216	Cl	-0.180989	-0.375112	0.201283
H217	H	-0.919174	-1.296871	-0.364949
H218	H	-0.669174	-1.046871	-0.114949
H219	H	-0.419174	-0.796871	0.135051
H220	H	-0.169174	-0.546871	0.385051
Cl221	Cl	-0.930984	-1.208623	-0.229731
Cl222	Cl	-0.680984	-0.958623	0.020269
Cl223	Cl	-0.430984	-0.708623	0.270269
Cl224	Cl	-0.180984	-0.458623	0.520269
Cl225	Cl	-0.932190	-1.282949	-0.504482
Cl226	Cl	-0.682190	-1.032949	-0.254482
Cl227	Cl	-0.432190	-0.782949	-0.004482
Cl228	Cl	-0.182190	-0.532949	0.245518
H229	H	-0.792909	-1.267413	-0.474841
H230	H	-0.542909	-1.017413	-0.224841
H231	H	-0.292909	-0.767413	0.025159
H232	H	-0.042909	-0.517413	0.275159
Cl233	Cl	-0.781901	-1.209864	-0.229850
Cl234	Cl	-0.531901	-0.959864	0.020150
Cl235	Cl	-0.281901	-0.709864	0.270150
Cl236	Cl	-0.031901	-0.459864	0.520150
