data_functionalizedCrystal
_audit_creation_method	'MofGen! by Chris Wilmer'
_symmetry_space_group_name_H-M	'P1'
_symmetry_Int_Tables_number	1
_symmetry_cell_setting	triclinic
loop_
_symmetry_equiv_pos_as_xyz
  x,y,z
_cell_length_a	10.540535
_cell_length_b	10.540510
_cell_length_c	12.376457
_cell_angle_alpha	101.392640
_cell_angle_beta	78.594279
_cell_angle_gamma	84.518476
loop_
_atom_site_label
_atom_site_type_symbol
_atom_site_fract_x
_atom_site_fract_y
_atom_site_fract_z
O1	O	1.709981	0.154781	-0.093936
O2	O	1.340570	0.171639	-0.093952
O3	O	1.533723	-0.021499	-0.093943
O4	O	1.516828	0.347919	-0.093945
O5	O	1.485451	0.026719	0.094067
O6	O	1.292298	0.219857	0.094058
O7	O	1.661710	0.202999	0.094074
Zn8	Zn	1.469340	0.219084	0.123917
Zn9	Zn	1.532940	0.155554	-0.123795
O10	O	1.468556	0.396137	0.094065
C11	C	1.269131	0.194484	0.000051
C12	C	1.128185	0.190703	0.000045
C13	C	1.508329	-0.044694	0.000059
C14	C	1.504564	-0.185646	0.000053
C15	C	1.091528	0.049689	0.000051
C16	C	0.944816	0.045823	0.000488
C17	C	0.891327	0.282559	0.107213
C18	C	1.038072	0.285580	0.107292
C19	C	1.092851	0.232797	-0.106519
C20	C	0.946864	0.225916	-0.107916
C21	C	1.638636	-0.402991	0.000489
C22	C	1.642764	-0.256506	0.000059
C23	C	1.461383	-0.257938	-0.107311
C24	C	1.458365	-0.404721	-0.107395
C25	C	1.400593	-0.349696	0.106407
C26	C	1.406786	-0.202993	0.107821
C27	C	1.733149	0.180153	0.000068
C28	C	1.874097	0.183932	0.000067
C29	C	1.493951	0.419331	0.000060
C30	C	1.497718	0.560281	0.000060
N31	N	1.425944	0.262440	0.292973
N32	N	1.576346	0.112188	-0.292851
C33	C	1.677081	0.011518	0.647969
C34	C	1.707447	-0.018827	0.529631
C35	C	1.637073	0.051487	0.470460
C36	C	1.536330	0.152152	0.529640
C37	C	1.505967	0.182508	0.647990
C38	C	1.465960	0.222476	0.470482
C39	C	1.365216	0.323142	0.529662
C40	C	1.334858	0.353491	0.648000
C41	C	1.405232	0.283177	0.707170
C42	C	1.496322	0.192121	0.352132
C43	C	1.325208	0.363110	0.352153
C44	C	1.294842	0.393456	0.470492
H45	H	1.153228	-0.024166	-0.076775
C46	C	1.744718	-0.244825	-0.104075
H47	H	1.747605	-0.155155	-0.104686
H48	H	1.721205	-0.287481	-0.170865
H49	H	1.828261	-0.284620	-0.100907
H50	H	1.356248	-0.428963	-0.112264
C51	C	1.670465	0.018099	0.340291
H52	H	1.740534	-0.051932	0.313520
H53	H	1.695420	0.092535	0.313507
H54	H	1.596038	-0.006939	0.313537
H55	H	0.843014	0.385270	0.110895
H56	H	1.252836	0.435468	0.696185
C57	C	1.247798	0.440466	0.287079
H58	H	1.280301	0.407964	0.208122
H59	H	1.257366	0.530297	0.306470
H60	H	1.157971	0.430836	0.306480
H61	H	1.734377	-0.045716	0.696153
C62	C	1.818247	-0.129556	0.464541
H63	H	1.855802	-0.167095	0.516726
H64	H	1.883341	-0.095225	0.418365
H65	H	1.783945	-0.194685	0.418385
H66	H	1.212815	0.475420	0.518691
C67	C	0.931817	-0.055963	-0.103236
H68	H	1.016361	-0.095321	-0.146019
H69	H	0.886741	-0.014179	-0.148828
H70	H	0.884351	-0.121212	-0.078843
C71	C	1.371836	0.316560	0.837344
H72	H	1.428181	0.260266	0.864102
H73	H	1.283678	0.305275	0.864129
H74	H	1.383075	0.404735	0.864111
C75	C	1.690867	-0.190199	0.104015
H76	H	1.708060	-0.252754	0.146888
H77	H	1.625563	-0.121739	0.149439
H78	H	1.768685	-0.155223	0.079844
H79	H	1.115293	0.016121	0.076775
H80	H	0.839878	0.254275	0.187258
C81	C	1.325333	-0.195301	-0.112724
H82	H	1.293585	-0.124330	-0.049406
H83	H	1.266967	-0.258593	-0.111730
H84	H	1.331524	-0.164310	-0.180375
C85	C	0.879576	-0.002191	0.104866
H86	H	0.942736	-0.019395	0.147172
H87	H	0.844334	-0.079961	0.081149
H88	H	0.811418	0.063185	0.150690
C89	C	1.064476	0.248520	0.215897
H90	H	1.154213	0.250042	0.216906
H91	H	1.043282	0.163285	0.217828
H92	H	1.012231	0.309392	0.279967
C93	C	1.067594	0.426807	0.113461
H94	H	0.989930	0.482084	0.115918
H95	H	1.131950	0.429635	0.048662
H96	H	1.099090	0.455838	0.179633
C97	C	1.178381	0.145202	-0.216269
H98	H	1.236444	0.082131	-0.198123
H99	H	1.227337	0.197437	-0.258383
H100	H	1.124120	0.101966	-0.259999
H101	H	1.672710	-0.425200	0.077485
H102	H	1.437871	-0.154011	0.187247
H103	H	0.899552	0.325046	-0.114719
C104	C	0.935715	0.128524	-0.215004
H105	H	0.886914	0.062551	-0.194006
H106	H	1.020656	0.089542	-0.257077
H107	H	0.892664	0.173398	-0.259985
H108	H	1.115291	0.336283	-0.107555
H109	H	1.531027	-0.247573	-0.187207
H110	H	1.527318	-0.465519	-0.187647
C111	C	1.737513	-0.488263	-0.102937
H112	H	1.822399	-0.465443	-0.102028
H113	H	1.713606	-0.474197	-0.170168
H114	H	1.737548	-0.577762	-0.100412
C115	C	1.431375	-0.378830	0.216342
H116	H	1.503759	-0.446175	0.198407
H117	H	1.357402	-0.406191	0.258261
H118	H	1.451992	-0.302097	0.260170
C119	C	1.268234	-0.134453	0.116586
H120	H	1.268203	-0.094192	0.054351
H121	H	1.241956	-0.069869	0.185109
H122	H	1.209065	-0.197024	0.115678
H123	H	1.578348	0.110159	0.303958
C124	C	1.260170	-0.379363	0.107384
H125	H	1.260668	-0.446271	0.043334
H126	H	1.206638	-0.302612	0.105021
H127	H	1.226587	-0.407539	0.174388
