data_functionalizedCrystal
_audit_creation_method	'MofGen! by Chris Wilmer'
_symmetry_space_group_name_H-M	'P1'
_symmetry_Int_Tables_number	1
_symmetry_cell_setting	triclinic
loop_
_symmetry_equiv_pos_as_xyz
  x,y,z
_cell_length_a	15.944551
_cell_length_b	15.944480
_cell_length_c	14.421503
_cell_angle_alpha	90.006710
_cell_angle_beta	90.003340
_cell_angle_gamma	96.515707
loop_
_atom_site_label
_atom_site_type_symbol
_atom_site_fract_x
_atom_site_fract_y
_atom_site_fract_z
O1	O	0.108038	-1.114566	-0.077094
O2	O	0.441371	-0.781233	0.256240
O3	O	0.774704	-0.447900	0.589573
O4	O	0.121456	-0.870009	-0.077100
O5	O	0.454789	-0.536675	0.256233
O6	O	0.788123	-0.203342	0.589566
O7	O	-0.007530	-0.998966	-0.077088
O8	O	0.325804	-0.665632	0.256245
O9	O	0.659137	-0.332299	0.589578
O10	O	0.237023	-0.985609	-0.077105
O11	O	0.570357	-0.652276	0.256228
O12	O	0.903690	-0.318942	0.589561
O13	O	-0.007511	-0.998944	0.077135
O14	O	0.325823	-0.665611	0.410468
O15	O	0.659156	-0.332278	0.743802
O16	O	0.121475	-0.869987	0.077123
O17	O	0.454808	-0.536654	0.410457
O18	O	0.788142	-0.203320	0.743790
O19	O	0.108057	-1.114545	0.077130
O20	O	0.441390	-0.781212	0.410463
O21	O	0.774724	-0.447878	0.743796
Cu22	Cu	0.114768	-0.992264	0.091208
Cu23	Cu	0.448101	-0.658931	0.424542
Cu24	Cu	0.781434	-0.325597	0.757875
Cu25	Cu	0.114745	-0.992289	-0.091179
Cu26	Cu	0.448078	-0.658956	0.242155
Cu27	Cu	0.781412	-0.325623	0.575488
O28	O	0.237042	-0.985588	0.077118
O29	O	0.570376	-0.652254	0.410451
O30	O	0.903709	-0.318921	0.743785
C31	C	0.120919	-0.838703	0.000011
C32	C	0.454252	-0.505370	0.333344
C33	C	0.787586	-0.172036	0.666677
C34	C	0.119280	-0.745454	0.000009
C35	C	0.452614	-0.412120	0.333342
C36	C	0.785947	-0.078787	0.666675
C37	C	0.195212	-0.509692	0.000001
C38	C	0.528545	-0.176359	0.333334
C39	C	0.861878	0.156974	0.666668
C40	C	0.154282	-0.459123	0.076048
C41	C	0.487616	-0.125790	0.409381
C42	C	0.820949	0.207543	0.742714
C43	C	0.116244	-0.574732	0.000009
C44	C	0.449577	-0.241398	0.333343
C45	C	0.782911	0.091935	0.666676
C46	C	0.154245	-0.459149	-0.076004
C47	C	0.487578	-0.125815	0.257329
C48	C	0.820912	0.207518	0.590662
C49	C	0.113317	-0.409821	0.000006
C50	C	0.446650	-0.076488	0.333339
C51	C	0.779984	0.256846	0.666673
C52	C	0.075336	-0.525391	0.076119
C53	C	0.408670	-0.192057	0.409452
C54	C	0.742003	0.141276	0.742786
C55	C	0.075310	-0.525420	-0.076002
C56	C	0.408643	-0.192086	0.257332
C57	C	0.741977	0.141247	0.590665
C58	C	0.034323	-0.474883	0.000064
C59	C	0.367656	-0.141550	0.333397
C60	C	0.700990	0.191783	0.666730
C61	C	0.117933	-0.669732	0.000012
C62	C	0.451266	-0.336399	0.333345
C63	C	0.784599	-0.003065	0.666679
C64	C	0.111622	-0.314823	0.000010
C65	C	0.444956	0.018510	0.333343
C66	C	0.778289	0.351843	0.666677
C67	C	-0.038814	-0.998401	0.000023
C68	C	0.294519	-0.665067	0.333357
C69	C	0.627853	-0.331734	0.666690
C70	C	-0.132060	-0.996738	0.000024
C71	C	0.201274	-0.663405	0.333357
C72	C	0.534607	-0.330072	0.666691
C73	C	-0.346895	-0.912831	0.000009
C74	C	-0.013562	-0.579498	0.333342
C75	C	0.319772	-0.246164	0.666676
C76	C	-0.407913	-0.951784	0.076051
C77	C	-0.074579	-0.618451	0.409385
C78	C	0.258754	-0.285118	0.742718
C79	C	-0.302785	-0.993731	0.000017
C80	C	0.030549	-0.660398	0.333350
C81	C	0.363882	-0.327064	0.666683
C82	C	-0.407915	-0.951824	-0.076001
C83	C	-0.074582	-0.618491	0.257333
C84	C	0.258752	-0.285158	0.590666
C85	C	-0.467697	-0.990820	0.000006
C86	C	-0.134363	-0.657487	0.333339
C87	C	0.198970	-0.324153	0.666672
C88	C	-0.362574	-1.032706	0.076122
C89	C	-0.029241	-0.699373	0.409455
C90	C	0.304092	-0.366040	0.742789
C91	C	-0.362570	-1.032735	-0.075999
C92	C	-0.029237	-0.699402	0.257335
C93	C	0.304096	-0.366068	0.590668
C94	C	-0.423570	-1.071747	0.000063
C95	C	-0.090237	-0.738414	0.333396
C96	C	0.243096	-0.405080	0.666729
C97	C	-0.207783	-0.995405	0.000024
C98	C	0.125551	-0.662072	0.333357
C99	C	0.458884	-0.328739	0.666690
C100	C	-0.562697	-0.989152	0.000005
C101	C	-0.229364	-0.655818	0.333339
C102	C	0.103969	-0.322485	0.666672
C103	C	0.268327	-0.986153	0.000004
C104	C	0.601660	-0.652820	0.333337
C105	C	0.934993	-0.319486	0.666671
C106	C	0.361572	-0.987815	-0.000003
C107	C	0.694906	-0.654482	0.333331
C108	C	1.028239	-0.321149	0.666664
C109	C	0.108605	-0.145849	0.000015
C110	C	0.441939	0.187484	0.333348
C111	C	0.775272	0.520818	0.666682
C112	C	0.110278	-0.239094	0.000006
C113	C	0.443611	0.094240	0.333339
C114	C	0.776945	0.427573	0.666673
N115	N	0.114783	-0.992252	0.219490
N116	N	0.448116	-0.658919	0.552823
N117	N	0.781450	-0.325586	0.886156
N118	N	0.114723	-0.992308	-0.219460
N119	N	0.448056	-0.658974	0.113873
N120	N	0.781390	-0.325641	0.447207
C121	C	0.174399	-0.932612	0.469138
C122	C	0.507733	-0.599279	0.802471
C123	C	0.841066	-0.265945	1.135804
C124	C	0.190687	-1.008515	0.530941
C125	C	0.524021	-0.675181	0.864274
C126	C	0.857354	-0.341848	1.197608
C127	C	0.114763	-0.992273	0.408651
C128	C	0.448096	-0.658940	0.741984
C129	C	0.781430	-0.325606	1.075318
C130	C	0.098495	-0.916390	0.530941
C131	C	0.431828	-0.583057	0.864275
C132	C	0.765161	-0.249723	1.197608
C133	C	0.114746	-0.992286	0.591372
C134	C	0.448079	-0.658952	0.924706
C135	C	0.781412	-0.325619	1.258039
C136	C	0.131089	-1.068214	0.469094
C137	C	0.464422	-0.734880	0.802427
C138	C	0.797756	-0.401547	1.135760
C139	C	0.038863	-0.976039	0.469088
C140	C	0.372197	-0.642706	0.802422
C141	C	0.705530	-0.309372	1.135755
C142	C	0.055119	-1.051996	0.530864
C143	C	0.388452	-0.718663	0.864197
C144	C	0.721786	-0.385330	1.197531
C145	C	0.114775	-0.992264	0.303390
C146	C	0.448109	-0.658931	0.636723
C147	C	0.781442	-0.325598	0.970056
C148	C	0.114733	-0.992303	0.696631
C149	C	0.448066	-0.658970	1.029965
C150	C	0.781399	-0.325636	1.363298
H151	H	0.263230	-0.525316	0.000068
H152	H	0.596564	-0.191983	0.333401
H153	H	0.929897	0.141351	0.666734
H154	H	0.084743	-0.852212	0.558111
H155	H	0.418076	-0.518878	0.891444
H156	H	0.751410	-0.185545	1.224778
F157	F	-0.434174	-0.907050	0.160079
F158	F	-0.100841	-0.573717	0.493412
F159	F	0.232492	-0.240383	0.826745
H160	H	0.187640	-0.430177	0.140334
H161	H	0.520973	-0.096843	0.473667
H162	H	0.854306	0.236490	0.807000
F163	F	-0.054647	-0.454661	0.000127
F164	F	0.278686	-0.121328	0.333460
F165	F	0.612020	0.212005	0.666794
H166	H	0.187602	-0.430219	-0.140287
H167	H	0.520935	-0.096886	0.193046
H168	H	0.854269	0.236448	0.526379
H169	H	-0.456746	-1.138956	0.000107
H170	H	-0.123413	-0.805623	0.333441
H171	H	0.209921	-0.472290	0.666774
F172	F	0.149162	-1.152120	0.433737
F173	F	0.482495	-0.818786	0.767071
F174	F	0.815828	-0.485453	1.100404
F175	F	0.240369	-0.866734	0.433708
F176	F	0.573702	-0.533401	0.767042
F177	F	0.907035	-0.200067	1.100375
H178	H	-0.342456	-1.066932	-0.140288
H179	H	-0.009123	-0.733599	0.193045
H180	H	0.324210	-0.400265	0.526379
H181	H	-0.342584	-1.066886	0.140480
H182	H	-0.009251	-0.733552	0.473814
H183	H	0.324082	-0.400219	0.807147
H184	H	0.042015	-0.554210	0.140475
H185	H	0.375348	-0.220876	0.473808
H186	H	0.708682	0.112457	0.807141
H187	H	0.004676	-1.102510	0.557796
H188	H	0.338009	-0.769177	0.891130
H189	H	0.671343	-0.435844	1.224463
F190	F	-0.434174	-0.907093	-0.160023
F191	F	-0.100841	-0.573759	0.173310
F192	F	0.232492	-0.240426	0.506643
H193	H	0.041978	-0.554375	-0.140291
H194	H	0.375311	-0.221041	0.193042
H195	H	0.708645	0.112292	0.526376
H196	H	-0.313570	-0.845681	0.000083
H197	H	0.019763	-0.512347	0.333416
H198	H	0.353096	-0.179014	0.666750
F199	F	0.274573	-1.026479	0.566453
F200	F	0.607906	-0.693146	0.899787
F201	F	0.941240	-0.359812	1.233120
H202	H	-0.025295	-0.962272	0.441899
H203	H	0.308038	-0.628939	0.775232
H204	H	0.641371	-0.295606	1.108565
