data_functionalizedCrystal
_audit_creation_method	'MofGen! by Chris Wilmer'
_symmetry_space_group_name_H-M	'P1'
_symmetry_Int_Tables_number	1
_symmetry_cell_setting	triclinic
loop_
_symmetry_equiv_pos_as_xyz
  x,y,z
_cell_length_a	10.654549
_cell_length_b	12.811415
_cell_length_c	9.130313
_cell_angle_alpha	84.564622
_cell_angle_beta	89.997498
_cell_angle_gamma	84.263162
loop_
_atom_site_label
_atom_site_type_symbol
_atom_site_fract_x
_atom_site_fract_y
_atom_site_fract_z
O1	O	1.667074	0.147425	-0.141344
O2	O	1.301523	0.161471	-0.143220
O3	O	1.493495	0.001722	-0.121990
O4	O	1.475102	0.307174	-0.162574
O5	O	1.493481	0.001717	0.121610
O6	O	1.301509	0.161466	0.100380
O7	O	1.667061	0.147420	0.102255
Cu8	Cu	1.484284	0.154443	0.123560
Cu9	Cu	1.484299	0.154448	-0.164525
O10	O	1.475089	0.307169	0.081025
C11	C	1.254723	0.160437	-0.021284
C12	C	1.115296	0.157352	-0.020878
C13	C	0.904308	0.248503	-0.032983
C14	C	1.035313	0.251410	-0.033378
C15	C	1.064267	0.060381	-0.007997
C16	C	0.933264	0.057475	-0.007613
C17	C	1.492457	-0.037392	0.005004
C18	C	1.489370	-0.153933	0.020479
C19	C	1.483562	-0.372909	-0.216045
C20	C	1.480662	-0.482409	-0.201512
C21	C	1.480661	-0.482435	0.064076
C22	C	1.483561	-0.372935	0.049543
C23	C	1.485013	-0.318175	-0.090522
C24	C	1.487923	-0.208674	-0.105054
C25	C	1.487913	-0.208701	0.160533
C26	C	1.485012	-0.318201	0.175066
C27	C	1.713860	0.148454	-0.019683
C28	C	1.853287	0.151539	-0.020099
C29	C	1.476126	0.346283	-0.045971
C30	C	1.479213	0.462824	-0.061456
N31	N	1.484282	0.154438	0.326183
N32	N	1.484311	0.154445	-0.367147
C33	C	1.569316	0.083731	0.412232
C34	C	1.569328	0.083732	0.565569
C35	C	1.399268	0.225155	0.546794
C36	C	1.399251	0.225149	0.393460
H37	H	0.891724	-0.021489	0.002875
O38	O	1.483384	-0.371331	0.311145
C39	C	1.375479	-0.333469	0.386935
H40	H	1.300340	-0.295602	0.304223
H41	H	1.401730	-0.272428	0.461631
C42	C	1.415934	-0.472230	0.582137
C43	C	1.323644	-0.425728	0.480549
H44	H	1.383962	-0.529137	0.639889
H45	H	1.488635	-0.497736	0.531080
H46	H	1.437802	-0.421352	0.644370
H47	H	1.301789	-0.476602	0.418307
H48	H	1.250938	-0.400232	0.531598
H49	H	1.330000	0.282727	0.323394
O50	O	1.085082	0.345510	-0.045960
C51	C	1.217859	0.327911	-0.043601
H52	H	1.248193	0.246220	-0.078852
H53	H	1.254356	0.333273	0.072547
C54	C	1.235363	0.512130	-0.107006
C55	C	1.272620	0.411799	-0.150315
H56	H	1.269144	0.563878	-0.172826
H57	H	1.145909	0.523988	-0.108590
H58	H	1.265780	0.516584	-0.010215
H59	H	1.242190	0.407342	-0.247096
H60	H	1.362071	0.399942	-0.148750
H61	H	1.489099	-0.164126	0.262744
O62	O	1.484826	-0.319574	-0.352016
C63	C	1.377858	-0.245151	-0.369870
H64	H	1.342054	-0.225063	-0.257249
H65	H	1.300677	-0.279567	-0.430855
C66	C	1.457609	-0.169170	-0.597450
C67	C	1.413641	-0.144491	-0.459126
H68	H	1.479679	-0.107080	-0.652513
H69	H	1.529674	-0.219313	-0.585426
H70	H	1.393285	-0.197852	-0.648252
H71	H	1.477970	-0.115822	-0.408320
H72	H	1.341588	-0.094341	-0.471144
H73	H	1.638552	0.026153	0.357459
H74	H	1.638569	0.026155	0.635626
H75	H	1.479475	-0.526968	-0.303726
H76	H	1.479468	-0.527038	0.178111
O77	O	1.489145	-0.155352	-0.241036
C78	C	1.382159	-0.080944	-0.258853
H79	H	1.346399	-0.060844	-0.146219
H80	H	1.304961	-0.115383	-0.319776
C81	C	1.461803	-0.004983	-0.486505
C82	C	1.417888	0.019711	-0.348166
H83	H	1.483839	0.057105	-0.541603
H84	H	1.533879	-0.055115	-0.474506
H85	H	1.397463	-0.033684	-0.537255
H86	H	1.482232	0.048399	-0.297411
H87	H	1.345823	0.069850	-0.360159
O88	O	1.141779	-0.031086	0.004088
C89	C	1.068650	-0.117293	0.015574
H90	H	0.971024	-0.091362	-0.033990
H91	H	1.059163	-0.146974	0.136384
C92	C	1.253365	-0.238243	-0.007243
C93	C	1.133462	-0.206396	-0.068130
H94	H	1.293345	-0.293209	-0.058869
H95	H	1.302635	-0.180165	-0.014976
H96	H	1.245442	-0.262970	0.093430
H97	H	1.141387	-0.181658	-0.168795
H98	H	1.084195	-0.264472	-0.060416
H99	H	0.839194	0.325096	-0.043151
H100	H	1.330040	0.282727	0.601586
