data_functionalizedCrystal
_audit_creation_method	'MofGen! by Chris Wilmer'
_symmetry_space_group_name_H-M	'P1'
_symmetry_Int_Tables_number	1
_symmetry_cell_setting	triclinic
loop_
_symmetry_equiv_pos_as_xyz
  x,y,z
_cell_length_a	23.532407
_cell_length_b	12.811487
_cell_length_c	11.295483
_cell_angle_alpha	99.530033
_cell_angle_beta	85.925856
_cell_angle_gamma	83.449465
loop_
_atom_site_label
_atom_site_type_symbol
_atom_site_fract_x
_atom_site_fract_y
_atom_site_fract_z
O1	O	0.759262	0.121250	-0.085780
O2	O	0.593423	0.139826	-0.083809
O3	O	0.681153	-0.023489	-0.101421
O4	O	0.671532	0.284564	-0.068168
O5	O	0.673447	-0.009166	0.098174
O6	O	0.585717	0.154148	0.115786
O7	O	0.751556	0.135572	0.113815
Cu8	Cu	0.667933	0.146168	0.133025
Cu9	Cu	0.677046	0.129230	-0.103019
O10	O	0.663826	0.298887	0.131427
C11	C	0.676997	-0.055732	-0.005880
C12	C	0.676085	-0.173144	-0.018563
C13	C	0.568353	0.146514	0.015933
C14	C	0.505135	0.145090	0.015766
C15	C	0.665982	-0.378173	0.175226
C16	C	0.665126	-0.488491	0.163315
C17	C	0.673520	-0.504102	-0.054295
C18	C	0.674377	-0.393784	-0.042384
C19	C	0.670607	-0.330822	0.072380
C20	C	0.671459	-0.220501	0.084290
C21	C	0.679858	-0.236115	-0.133318
C22	C	0.679001	-0.346433	-0.145229
C23	C	0.106139	0.232820	0.025290
C24	C	0.046737	0.231499	0.025155
O25	O	0.010091	0.312824	0.033977
N26	N	0.023990	0.134407	0.014672
C27	C	0.060649	0.038631	0.004336
O28	O	0.035847	-0.044074	-0.004591
C29	C	0.120050	0.039954	0.004480
C30	C	0.142793	0.137051	0.014952
C31	C	0.128883	0.329909	0.035762
C32	C	0.188281	0.331229	0.035895
C33	C	0.224935	0.235460	0.025556
C34	C	0.202191	0.138371	0.015085
C35	C	0.156707	-0.055820	-0.005847
C36	C	0.216111	-0.054489	-0.005701
C37	C	0.238854	0.042607	0.004770
C38	C	0.298243	0.043922	0.004879
N39	N	0.320990	0.141014	0.015362
C40	C	0.284336	0.236783	0.025700
C41	C	-0.064097	0.035861	0.004037
C42	C	-0.123496	0.034537	0.003884
C43	C	-0.137405	0.227405	0.024705
C44	C	-0.078004	0.228728	0.024849
C45	C	-0.041351	0.132953	0.014520
C46	C	0.409077	0.239548	0.025978
C47	C	0.468481	0.240859	0.026105
C48	C	0.482384	0.047992	0.005290
C49	C	0.422985	0.046680	0.005157
C50	C	0.386332	0.142466	0.015506
O51	O	0.334923	-0.037360	-0.003934
O52	O	0.309146	0.319475	0.034642
C53	C	0.776625	0.128884	0.014070
C54	C	0.839844	0.130307	0.014229
C55	C	0.667982	0.331130	0.035883
C56	C	0.668894	0.448541	0.048558
N57	N	0.661528	0.158080	0.299046
N58	N	0.683455	0.117309	-0.269041
C59	C	0.729564	0.031498	0.534685
C60	C	0.724727	0.040507	0.660320
C61	C	0.647016	0.185104	0.675954
C62	C	0.651853	0.176094	0.550318
C63	C	0.693128	0.099290	0.479688
C64	C	0.697967	0.090286	0.354051
C65	C	0.620254	0.234876	0.369687
C66	C	0.615417	0.243886	0.495322
H67	H	0.668381	-0.169237	0.177737
H68	H	0.763175	-0.031033	0.477177
H69	H	0.245952	-0.132483	-0.014112
H70	H	0.731577	0.027750	0.296545
H71	H	0.581810	0.306417	0.552843
H72	H	0.662898	-0.326905	0.268671
H73	H	0.486995	0.319930	0.034631
H74	H	-0.142008	-0.044530	-0.004661
H75	H	0.613407	0.247629	0.733476
H76	H	-0.059491	0.307793	0.033382
H77	H	0.206793	0.410295	0.044421
H78	H	0.682073	-0.397711	-0.238667
H79	H	-0.034256	-0.042136	-0.004386
H80	H	0.404467	-0.032386	-0.003387
H81	H	0.676596	-0.555385	-0.147730
H82	H	0.138200	-0.134887	-0.014372
H83	H	0.099044	0.407900	0.044186
H84	H	-0.167260	0.305386	0.033129
H85	H	0.754396	-0.014697	0.705094
H86	H	0.512238	-0.029980	-0.003132
H87	H	0.590587	0.290080	0.324895
H88	H	0.379240	0.317547	0.034408
H89	H	0.661360	-0.527039	0.247062
H90	H	0.683616	-0.197549	-0.217062
