data_functionalizedCrystal
_audit_creation_method	'MofGen! by Chris Wilmer'
_symmetry_space_group_name_H-M	'P1'
_symmetry_Int_Tables_number	1
_symmetry_cell_setting	triclinic
loop_
_symmetry_equiv_pos_as_xyz
  x,y,z
_cell_length_a	21.395362
_cell_length_b	21.295417
_cell_length_c	21.395355
_cell_angle_alpha	90.021451
_cell_angle_beta	90.043940
_cell_angle_gamma	90.046383
loop_
_atom_site_label
_atom_site_type_symbol
_atom_site_fract_x
_atom_site_fract_y
_atom_site_fract_z
Zn1	Zn	0.957860	-0.250415	0.354573
Zn2	Zn	1.457860	0.249585	0.854573
Zn3	Zn	0.957763	-0.355667	0.249790
Zn4	Zn	1.457763	0.144333	0.749790
Zn5	Zn	0.853075	-0.250445	0.249774
Zn6	Zn	1.353075	0.249555	0.749774
Zn7	Zn	0.853045	-0.355680	0.354495
Zn8	Zn	1.353045	0.144320	0.854495
O9	O	0.905436	-0.303052	0.302158
O10	O	1.405436	0.196948	0.802158
O11	O	1.045525	-0.264359	0.340713
O12	O	1.545525	0.235641	0.840713
O13	O	0.943848	-0.341716	0.162110
O14	O	1.443848	0.158284	0.662110
O15	O	0.867029	-0.162351	0.263702
O16	O	1.367029	0.337649	0.763702
O17	O	1.045454	-0.341687	0.263729
O18	O	1.545454	0.158313	0.763729
O19	O	0.944014	-0.162330	0.340697
O20	O	1.444014	0.337670	0.840697
O21	O	0.866934	-0.264409	0.162098
O22	O	1.366934	0.235591	0.662098
O23	O	0.765393	-0.264422	0.263626
O24	O	1.265393	0.235578	0.763626
O25	O	0.866977	-0.341709	0.442183
O26	O	1.366977	0.158291	0.942183
O27	O	0.765371	-0.341738	0.340564
O28	O	1.265371	0.158262	0.840564
O29	O	0.943984	-0.264372	0.442240
O30	O	1.443984	0.235628	0.942240
O31	O	0.943819	-0.443758	0.263653
O32	O	1.443819	0.056242	0.763653
O33	O	0.866883	-0.443767	0.340579
O34	O	1.366883	0.056233	0.840579
C35	C	0.742648	-0.303085	0.302085
C36	C	1.242648	0.196915	0.802085
C37	C	0.673007	-0.303114	0.302069
C38	C	1.173007	0.196886	0.802069
C39	C	0.905354	-0.466603	0.302123
C40	C	1.405354	0.033397	0.802123
C41	C	0.905376	-0.536571	0.302129
C42	C	1.405376	-0.036571	0.802129
C43	C	0.640299	-0.343426	0.342070
C44	C	1.140299	0.156574	0.842070
C45	C	0.574863	-0.343411	0.342098
C46	C	1.074863	0.156589	0.842098
C47	C	0.542139	-0.303090	0.302114
C48	C	1.042139	0.196910	0.802114
C49	C	0.574855	-0.262771	0.262109
C50	C	1.074855	0.237229	0.762109
C51	C	0.640289	-0.262783	0.262087
C52	C	1.140289	0.237217	0.762087
C53	C	0.438414	-0.298019	0.245709
C54	C	0.938414	0.201981	0.745709
C55	C	0.372981	-0.298011	0.245730
C56	C	0.872981	0.201989	0.745730
C57	C	0.340318	-0.303049	0.302183
C58	C	0.840318	0.196951	0.802183
C59	C	0.373096	-0.308108	0.358616
C60	C	0.873096	0.191892	0.858616
C61	C	0.438530	-0.308120	0.358594
C62	C	0.938530	0.191880	0.858594
C63	C	0.471186	-0.303072	0.302134
C64	C	0.971186	0.196928	0.802134
C65	C	0.236657	-0.343346	0.342218
C66	C	0.736657	0.156654	0.842218
C67	C	0.171221	-0.343326	0.342247
C68	C	0.671221	0.156674	0.842247
C69	C	0.171214	-0.262690	0.262252
C70	C	0.671214	0.237310	0.762252
C71	C	0.236649	-0.262706	0.262229
C72	C	0.736649	0.237294	0.762229
C73	C	0.269367	-0.303038	0.302211
C74	C	0.769367	0.196962	0.802211
C75	C	0.945472	-0.569412	0.262115
C76	C	1.445472	-0.069412	0.762115
C77	C	0.945502	-0.635155	0.262129
C78	C	1.445502	-0.135155	0.762129
C79	C	0.905424	-0.668054	0.302151
C80	C	1.405424	-0.168054	0.802151
C81	C	0.865324	-0.635205	0.342173
C82	C	1.365324	-0.135205	0.842173
C83	C	0.865301	-0.569464	0.342162
C84	C	1.365301	-0.069464	0.842162
N85	N	0.850614	-0.771336	0.306903
N86	N	1.350614	-0.271336	0.806903
N87	N	0.850638	-0.833787	0.306910
N88	N	1.350638	-0.333787	0.806910
C89	C	0.905494	-0.866129	0.302187
C90	C	1.405494	-0.366129	0.802187
N91	N	0.960325	-0.833659	0.297445
N92	N	1.460325	-0.333659	0.797445
N93	N	0.960300	-0.771202	0.297435
N94	N	1.460300	-0.271202	0.797435
C95	C	0.905445	-0.739339	0.302167
C96	C	1.405445	-0.239339	0.802167
C97	C	0.945625	-0.970255	0.262186
C98	C	1.445625	-0.470255	0.762186
C99	C	0.945656	-1.035999	0.262204
C100	C	1.445656	-0.535999	0.762204
C101	C	0.865473	-1.036048	0.342245
C102	C	1.365473	-0.536048	0.842245
C103	C	0.865448	-0.970305	0.342230
C104	C	1.365448	-0.470305	0.842230
C105	C	0.905523	-0.937413	0.302197
C106	C	1.405523	-0.437413	0.802197
C107	C	1.068859	-0.303019	0.302231
C108	C	1.568859	0.196981	0.802231
C109	C	1.138501	-0.303005	0.302262
C110	C	1.638501	0.196995	0.802262
C111	C	0.905488	-0.303039	0.465581
C112	C	1.405488	0.196961	0.965581
C113	C	0.905510	-0.303033	0.535223
C114	C	1.405510	0.196967	1.035223
C115	C	0.905535	-0.138861	0.302206
C116	C	1.405535	0.361139	0.802206
C117	C	0.905578	-0.068893	0.302227
C118	C	1.405578	0.431107	0.802227
C119	C	0.905420	-0.303019	0.139370
C120	C	1.405420	0.196981	0.639370
C121	C	0.905519	-0.302847	0.069729
C122	C	1.405519	0.197153	0.569729
C123	C	0.945606	-0.262762	0.567967
C124	C	1.445606	0.237238	1.067967
C125	C	0.945605	-0.262735	0.633402
C126	C	1.445605	0.237265	1.133402
C127	C	0.905515	-0.302991	0.666091
C128	C	1.405515	0.197009	1.166091
C129	C	0.865411	-0.343265	0.633339
C130	C	1.365411	0.156735	1.133339
C131	C	0.865409	-0.343286	0.567905
C132	C	1.365409	0.156714	1.067905
C133	C	0.900539	-0.359672	0.769752
C134	C	1.400539	0.140328	1.269752
C135	C	0.900546	-0.359652	0.835185
C136	C	1.400546	0.140348	1.335185
C137	C	0.905519	-0.302924	0.867912
C138	C	1.405519	0.197076	1.367912
C139	C	0.910498	-0.246215	0.835198
C140	C	1.410498	0.253785	1.335198
C141	C	0.910496	-0.246237	0.769763
C142	C	1.410496	0.253763	1.269763
C143	C	0.905513	-0.302972	0.737043
C144	C	1.405513	0.197028	1.237043
C145	C	0.945616	-0.262620	0.971608
C146	C	1.445616	0.237380	1.471608
C147	C	0.945611	-0.262592	1.037045
C148	C	1.445611	0.237408	1.537045
C149	C	0.865420	-0.343127	1.036981
C150	C	1.365420	0.156873	1.536981
C151	C	0.865422	-0.343150	0.971545
C152	C	1.365422	0.156850	1.471545
C153	C	0.905523	-0.302897	0.938863
C154	C	1.405523	0.197103	1.438863
H155	H	0.548227	-0.376237	0.374675
H156	H	1.048227	0.123763	0.874675
H157	H	0.465215	-0.312237	0.404544
H158	H	0.965215	0.187763	0.904544
N159	N	0.675591	-0.386913	0.385200
N160	N	1.175591	0.113087	0.885200
H161	H	0.702685	-0.416052	0.359676
H162	H	1.202685	0.083948	0.859676
H163	H	0.644901	-0.412406	0.410540
H164	H	1.144901	0.087594	0.910540
H165	H	0.832694	-0.661996	0.374760
H166	H	1.332694	-0.161996	0.874760
N167	N	0.675577	-0.219309	0.218938
N168	N	1.175577	0.280691	0.718938
H169	H	0.702784	-0.190183	0.244446
H170	H	1.202784	0.309817	0.744446
H171	H	0.644884	-0.193801	0.193618
H172	H	1.144884	0.306199	0.693618
N173	N	0.822173	-0.386541	1.072228
N174	N	1.322173	0.113459	1.572228
H175	H	0.828257	-0.380416	1.118650
H176	H	1.328257	0.119584	1.618650
H177	H	0.831896	-0.431502	1.060798
H178	H	1.331896	0.068498	1.560798
H179	H	0.346503	-0.312209	0.404586
H180	H	0.846503	0.187791	0.904586
N181	N	0.988840	-0.219331	0.532719
N182	N	1.488840	0.280669	1.032719
H183	H	0.982753	-0.225450	0.486297
H184	H	1.482753	0.274550	0.986297
H185	H	1.033586	-0.229107	0.544183
H186	H	1.533586	0.270893	1.044183
N187	N	0.271952	-0.386842	0.385340
N188	N	0.771952	0.113158	0.885340
H189	H	0.241299	-0.412374	0.410690
H190	H	0.741299	0.087626	0.910690
H191	H	0.299161	-0.361267	0.414372
H192	H	0.799161	0.138733	0.914372
H193	H	0.914548	-0.200062	0.743130
H194	H	1.414548	0.299938	1.243130
N195	N	0.988853	-0.219298	0.668730
N196	N	1.488853	0.280702	1.168730
H197	H	1.014255	-0.193801	0.638096
H198	H	1.514255	0.306199	1.138096
H199	H	1.017830	-0.244913	0.695897
H200	H	1.517830	0.255087	1.195897
N201	N	0.135939	-0.386810	0.385391
N202	N	0.635939	0.113190	0.885391
H203	H	0.166597	-0.412362	0.410711
H204	H	0.666597	0.087638	0.910711
H205	H	0.108733	-0.415892	0.359835
H206	H	0.608733	0.084108	0.859835
N207	N	0.822167	-0.386732	0.532586
N208	N	1.322167	0.113268	1.032586
H209	H	0.828251	-0.380639	0.486174
H210	H	1.328251	0.119361	0.986174
H211	H	0.777425	-0.376940	0.543987
H212	H	1.277425	0.123060	1.043987
N213	N	0.135928	-0.219195	0.219129
N214	N	0.635928	0.280805	0.719129
H215	H	0.089511	-0.225302	0.225214
H216	H	0.589511	0.274698	0.725214
H217	H	0.147304	-0.228927	0.174359
H218	H	0.647304	0.271073	0.674359
N219	N	0.895175	-0.420813	0.870465
N220	N	1.395175	0.079187	1.370465
H221	H	0.895935	-0.412194	0.916882
H222	H	1.395935	0.087806	1.416882
H223	H	0.931388	-0.448955	0.859049
H224	H	1.431388	0.051045	1.359049
H225	H	0.978311	-1.062736	0.229621
H226	H	1.478311	-0.562736	0.729621
H227	H	0.978105	-0.542633	0.229519
H228	H	1.478105	-0.042633	0.729519
H229	H	0.346298	-0.293896	0.199778
H230	H	0.846298	0.206104	0.699778
N231	N	0.271932	-0.219223	0.219088
N232	N	0.771932	0.280777	0.719088
H233	H	0.241274	-0.193675	0.193763
H234	H	0.741274	0.306325	0.693763
H235	H	0.299027	-0.244802	0.190034
H236	H	0.799027	0.255198	0.690034
N237	N	0.473641	-0.292582	0.184817
N238	N	0.973641	0.207418	0.684817
H239	H	0.442949	-0.289381	0.149071
H240	H	0.942949	0.210619	0.649071
H241	H	0.500745	-0.330933	0.178920
H242	H	1.000745	0.169067	0.678920
N243	N	0.915868	-0.185025	0.870485
N244	N	1.415868	0.314975	1.370485
H245	H	0.915112	-0.193613	0.916901
H246	H	1.415112	0.306387	1.416901
H247	H	0.879654	-0.156891	0.859020
H248	H	1.379654	0.343109	1.359020
N249	N	0.988750	-0.670587	0.218970
N250	N	1.488750	-0.170587	0.718970
H251	H	1.014135	-0.639774	0.193609
H252	H	1.514135	-0.139774	0.693609
H253	H	0.963265	-0.697908	0.189951
H254	H	1.463265	-0.197908	0.689951
H255	H	0.896322	-0.405855	0.743111
H256	H	1.396322	0.094145	1.243111
H257	H	0.548206	-0.229940	0.229555
H258	H	1.048206	0.270060	0.729555
H259	H	0.832795	-0.943565	0.374811
H260	H	1.332795	-0.443565	0.874811
H261	H	0.832649	-0.542724	0.374747
H262	H	1.332649	-0.042724	0.874747
N263	N	0.988847	-0.934772	0.219012
N264	N	1.488847	-0.434772	0.719012
H265	H	1.014257	-0.965555	0.193667
H266	H	1.514257	-0.465555	0.693667
H267	H	1.017819	-0.907444	0.244546
H268	H	1.517819	-0.407444	0.744546
N269	N	0.822160	-0.386674	0.668592
N270	N	1.322160	0.113326	1.168592
H271	H	0.828244	-0.380548	0.715013
H272	H	1.328244	0.119452	1.215013
H273	H	0.831875	-0.431636	0.657162
H274	H	1.331875	0.068364	1.157162
N275	N	0.988855	-0.219142	1.072357
N276	N	1.488855	0.280858	1.572357
H277	H	1.033616	-0.228914	1.061005
H278	H	1.533616	0.271086	1.561005
H279	H	0.982719	-0.225247	1.118759
H280	H	1.482719	0.274753	1.618759
H281	H	0.978266	-0.229840	0.944997
H282	H	1.478266	0.270160	1.444997
N283	N	0.822165	-0.386584	0.936235
N284	N	1.322165	0.113416	1.436235
H285	H	0.831862	-0.431557	0.947626
H286	H	1.331862	0.068443	1.447626
H287	H	0.828256	-0.380439	0.889833
H288	H	1.328256	0.119561	1.389833
N289	N	0.822250	-1.071522	0.385418
N290	N	1.322250	-0.571522	0.885418
H291	H	0.828349	-1.118153	0.379355
H292	H	1.328349	-0.618153	0.879355
H293	H	0.777502	-1.060091	0.375609
H294	H	1.277502	-0.560091	0.875609
