data_functionalizedCrystal
_audit_creation_method	'MofGen! by Chris Wilmer'
_symmetry_space_group_name_H-M	'P1'
_symmetry_Int_Tables_number	1
_symmetry_cell_setting	triclinic
loop_
_symmetry_equiv_pos_as_xyz
  x,y,z
_cell_length_a	27.731994
_cell_length_b	27.732048
_cell_length_c	26.210047
_cell_angle_alpha	90.024710
_cell_angle_beta	89.985111
_cell_angle_gamma	97.368405
loop_
_atom_site_label
_atom_site_type_symbol
_atom_site_fract_x
_atom_site_fract_y
_atom_site_fract_z
O1	O	0.640955	-0.057401	-0.042362
O2	O	1.140955	0.442599	0.457638
O3	O	0.500157	-0.066174	-0.042379
O4	O	1.000157	0.433826	0.457621
O5	O	0.574929	0.008610	-0.042360
O6	O	1.074929	0.508610	0.457640
O7	O	0.566183	-0.132185	-0.042381
O8	O	1.066183	0.367815	0.457619
O9	O	0.574902	0.008630	0.042498
O10	O	1.074902	0.508630	0.542498
O11	O	0.500130	-0.066154	0.042479
O12	O	1.000130	0.433846	0.542479
O13	O	0.640928	-0.057381	0.042496
O14	O	1.140928	0.442619	0.542496
Cu15	Cu	0.570527	-0.061765	0.050236
Cu16	Cu	1.070527	0.438235	0.550236
Cu17	Cu	0.570559	-0.061790	-0.050119
Cu18	Cu	1.070559	0.438210	0.449881
O19	O	0.566156	-0.132165	0.042477
O20	O	1.066156	0.367835	0.542477
C21	C	0.482137	-0.065984	0.000047
C22	C	0.982137	0.434016	0.500047
C23	C	0.428480	-0.065442	0.000041
C24	C	0.928480	0.434558	0.500041
C25	C	0.095747	-0.062015	0.046317
C26	C	0.595747	0.437985	0.546317
C27	C	-0.105911	-0.059953	0.046324
C28	C	0.394089	0.440047	0.546324
O29	O	-0.131996	-0.059656	0.085663
O30	O	0.368004	0.440344	0.585663
N31	N	-0.131111	-0.059708	0.000067
N32	N	0.368889	0.440292	0.500067
C33	C	-0.105893	-0.059976	-0.046193
C34	C	0.394107	0.440024	0.453807
O35	O	-0.131954	-0.059715	-0.085537
O36	O	0.368046	0.440285	0.414463
C37	C	0.095764	-0.062034	-0.046199
C38	C	0.595764	0.437966	0.453801
C39	C	0.120961	-0.062283	0.000060
C40	C	0.620961	0.437717	0.500060
C41	C	0.120944	-0.062264	0.092573
C42	C	0.620944	0.437736	0.592573
C43	C	0.171355	-0.062782	0.092571
C44	C	0.671355	0.437218	0.592571
C45	C	0.196569	-0.063051	0.046313
C46	C	0.696569	0.436949	0.546313
C47	C	0.171372	-0.062801	0.000058
C48	C	0.671372	0.437199	0.500058
C49	C	0.120982	-0.062298	-0.092459
C50	C	0.620982	0.437702	0.407541
C51	C	0.171400	-0.062811	-0.092457
C52	C	0.671400	0.437189	0.407543
C53	C	0.196597	-0.063061	-0.046197
C54	C	0.696597	0.436939	0.453803
C55	C	0.246998	-0.063588	-0.046201
C56	C	0.746998	0.436412	0.453799
N57	N	0.272198	-0.063833	0.000055
N58	N	0.772198	0.436167	0.500055
C59	C	0.246984	-0.063564	0.046312
C60	C	0.746984	0.436436	0.546312
C61	C	-0.211767	-0.058896	-0.046187
C62	C	0.288233	0.441104	0.453813
C63	C	-0.262181	-0.058382	-0.046186
C64	C	0.237819	0.441618	0.453814
C65	C	-0.262195	-0.058359	0.046331
C66	C	0.237805	0.441641	0.546331
C67	C	-0.211780	-0.058876	0.046329
C68	C	0.288220	0.441124	0.546329
C69	C	-0.186566	-0.059141	0.000069
C70	C	0.313434	0.440859	0.500069
C71	C	0.352851	-0.064653	0.046305
C72	C	0.852851	0.435347	0.546305
C73	C	0.403266	-0.065173	0.046298
C74	C	0.903266	0.434827	0.546298
C75	C	0.403276	-0.065194	-0.046218
C76	C	0.903276	0.434806	0.453782
C77	C	0.352865	-0.064676	-0.046213
C78	C	0.852865	0.435324	0.453787
C79	C	0.327654	-0.064404	0.000053
C80	C	0.827654	0.435596	0.500053
O81	O	0.273115	-0.063880	-0.085520
O82	O	0.773115	0.436120	0.414480
O83	O	0.273054	-0.063814	0.085650
O84	O	0.773054	0.436186	0.585650
C85	C	0.045336	-0.061497	0.046319
C86	C	0.545336	0.438503	0.546319
C87	C	0.020139	-0.061247	0.000064
C88	C	0.520139	0.438753	0.500064
C89	C	0.045353	-0.061516	-0.046193
C90	C	0.545353	0.438484	0.453807
C91	C	-0.030275	-0.060734	0.000065
C92	C	0.469725	0.439266	0.500065
C93	C	-0.055490	-0.060465	0.046323
C94	C	0.444510	0.439535	0.546323
C95	C	-0.030290	-0.060710	0.092579
C96	C	0.469710	0.439290	0.592579
C97	C	0.020122	-0.061228	0.092577
C98	C	0.520122	0.438772	0.592577
C99	C	0.020153	-0.061271	-0.092449
C100	C	0.520153	0.438729	0.407551
C101	C	-0.030258	-0.060754	-0.092443
C102	C	0.469742	0.439246	0.407557
C103	C	-0.055472	-0.060485	-0.046186
C104	C	0.444528	0.439515	0.453814
C105	C	0.574732	0.026627	0.000070
C106	C	1.074732	0.526627	0.500070
C107	C	0.574179	0.080282	0.000074
C108	C	1.074179	0.580282	0.500074
C109	C	0.658949	-0.057571	0.000068
C110	C	1.158949	0.442429	0.500068
C111	C	0.712605	-0.058113	0.000071
C112	C	1.212605	0.441887	0.500071
C113	C	0.566353	-0.150182	0.000046
C114	C	1.066353	0.349818	0.500046
C115	C	0.566906	-0.203837	0.000038
C116	C	1.066906	0.296163	0.500038
N117	N	0.570507	-0.061748	0.120820
N118	N	1.070507	0.438252	0.620820
C119	C	0.614884	0.419105	0.000053
C120	C	1.114884	0.919105	0.500053
C121	C	0.612833	0.620764	0.000046
C122	C	1.112833	1.120764	0.500046
O123	O	0.650055	0.652027	0.000028
O124	O	1.150055	1.152027	0.500028
N125	N	0.568496	0.639879	0.000041
N126	N	1.068496	1.139879	0.500041
C127	C	0.524670	0.608576	0.000034
C128	C	1.024670	1.108576	0.500034
O129	O	0.486912	0.629462	0.000024
O130	O	0.986912	1.129462	0.500024
C131	C	0.526721	0.406918	0.000038
C132	C	1.026721	0.906918	0.500038
C133	C	0.571060	0.387806	0.000048
C134	C	1.071060	0.887806	0.500048
C135	C	0.659220	0.399992	0.000063
C136	C	1.159220	0.899992	0.500063
C137	C	0.659732	0.349580	0.000068
C138	C	1.159732	0.849580	0.500068
C139	C	0.615908	0.318281	0.000062
C140	C	1.115908	0.818281	0.500062
C141	C	0.571573	0.337394	0.000053
C142	C	1.071573	0.837394	0.500053
C143	C	0.482895	0.375615	0.000028
C144	C	0.982895	0.875615	0.500028
C145	C	0.483412	0.325198	0.000027
C146	C	0.983412	0.825198	0.500027
C147	C	0.527751	0.306086	0.000037
C148	C	1.027751	0.806086	0.500037
C149	C	0.528262	0.255683	0.000052
C150	C	1.028262	0.755683	0.500052
N151	N	0.572598	0.236568	0.000057
N152	N	1.072598	0.736568	0.500057
C153	C	0.616421	0.267867	0.000062
C154	C	1.116421	0.767867	0.500062
C155	C	0.523596	0.714450	0.000033
C156	C	1.023596	1.214450	0.500033
C157	C	0.523083	0.764864	0.000033
C158	C	1.023083	1.264864	0.500033
C159	C	0.611246	0.777049	0.000044
C160	C	1.111246	1.277049	0.500044
C161	C	0.611759	0.726633	0.000048
C162	C	1.111759	1.226633	0.500048
C163	C	0.567932	0.695335	0.000038
C164	C	1.067932	1.195335	0.500038
C165	C	0.617494	0.161998	0.000073
C166	C	1.117494	0.661998	0.500073
C167	C	0.618002	0.111581	0.000079
C168	C	1.118002	0.611581	0.500079
C169	C	0.529839	0.099401	0.000066
C170	C	1.029839	0.599401	0.500066
C171	C	0.529331	0.149813	0.000062
C172	C	1.029331	0.649813	0.500062
C173	C	0.573162	0.181111	0.000063
C174	C	1.073162	0.681111	0.500063
O175	O	0.491060	0.224391	0.000064
O176	O	0.991060	0.724391	0.500064
O177	O	0.654174	0.246971	0.000061
O178	O	1.154174	0.746971	0.500061
C179	C	0.614372	0.469517	0.000049
C180	C	1.114372	0.969517	0.500049
C181	C	0.570036	0.488629	0.000039
C182	C	1.070036	0.988629	0.500039
C183	C	0.526213	0.457330	0.000034
C184	C	1.026213	0.957330	0.500034
C185	C	0.569523	0.539044	0.000039
C186	C	1.069523	1.039044	0.500039
C187	C	0.613346	0.570343	0.000044
C188	C	1.113346	1.070343	0.500044
C189	C	0.657683	0.551228	0.000049
C190	C	1.157683	1.051228	0.500049
C191	C	0.658195	0.500816	0.000054
C192	C	1.158195	1.000816	0.500054
C193	C	0.481876	0.476445	0.000029
C194	C	0.981876	0.976445	0.500029
C195	C	0.481367	0.526858	0.000025
C196	C	0.981367	1.026858	0.500025
C197	C	0.525191	0.558157	0.000030
C198	C	1.025191	1.058157	0.500030
N199	N	0.570581	-0.061803	-0.120703
N200	N	1.070581	0.438197	0.379297
C201	C	0.541454	-0.032657	0.526798
C202	C	1.041454	0.467343	1.026798
C203	C	0.541432	-0.032645	0.313139
C204	C	1.041432	0.467355	0.813139
O205	O	0.516700	-0.007872	0.285530
O206	O	1.016700	0.492128	0.785530
N207	N	0.570526	-0.061754	0.286403
N208	N	1.070526	0.438246	0.786403
C209	C	0.599629	-0.090867	0.313086
C210	C	1.099629	0.409133	0.813086
O211	O	0.624378	-0.115622	0.285443
O212	O	1.124378	0.384378	0.785443
C213	C	0.599652	-0.090876	0.526743
C214	C	1.099652	0.409124	1.026743
C215	C	0.570554	-0.061768	0.553476
C216	C	1.070554	0.438232	1.053476
C217	C	0.512358	-0.003551	0.553531
C218	C	1.012358	0.496449	1.053531
C219	C	0.512361	-0.003557	0.606942
C220	C	1.012361	0.496443	1.106942
C221	C	0.541461	-0.032668	0.633621
C222	C	1.041461	0.467332	1.133621
C223	C	0.570557	-0.061773	0.606888
C224	C	1.070557	0.438227	1.106888
C225	C	0.628758	-0.119985	0.553424
C226	C	1.128758	0.380015	1.053424
C227	C	0.628762	-0.119984	0.606842
C228	C	1.128762	0.380016	1.106842
C229	C	0.599663	-0.090876	0.633575
C230	C	1.099663	0.409124	1.133575
C231	C	0.599661	-0.090890	0.686978
C232	C	1.099661	0.409110	1.186978
N233	N	0.570567	-0.061780	0.713713
N234	N	1.070567	0.438220	1.213713
C235	C	0.541468	-0.032669	0.687035
C236	C	1.041468	0.467331	1.187035
C237	C	0.599614	-0.090860	0.200912
C238	C	1.099614	0.409140	0.700912
C239	C	0.599607	-0.090859	0.147498
C240	C	1.099607	0.409141	0.647498
C241	C	0.541411	-0.032636	0.147555
C242	C	1.041411	0.467364	0.647555
C243	C	0.541416	-0.032641	0.200970
C244	C	1.041416	0.467359	0.700970
C245	C	0.570520	-0.061751	0.227648
C246	C	1.070520	0.438249	0.727648
C247	C	0.541477	-0.032683	0.799203
C248	C	1.041477	0.467317	1.299203
C249	C	0.541482	-0.032692	0.852619
C250	C	1.041482	0.467308	1.352619
C251	C	0.599679	-0.090913	0.852557
C252	C	1.099679	0.409087	1.352557
C253	C	0.599673	-0.090905	0.799145
C254	C	1.099673	0.409095	1.299145
C255	C	0.570570	-0.061787	0.772470
C256	C	1.070570	0.438213	1.272470
O257	O	0.624384	-0.115646	0.714620
O258	O	1.124384	0.384354	1.214620
O259	O	0.516730	-0.007909	0.714687
O260	O	1.016730	0.492091	1.214687
C261	C	0.541450	-0.032652	0.473386
C262	C	1.041450	0.467348	0.973386
C263	C	0.570546	-0.061757	0.446653
C264	C	1.070546	0.438243	0.946653
C265	C	0.599646	-0.090868	0.473332
C266	C	1.099646	0.409132	0.973332
C267	C	0.570540	-0.061756	0.393239
C268	C	1.070540	0.438244	0.893239
C269	C	0.541440	-0.032645	0.366561
C270	C	1.041440	0.467355	0.866561
C271	C	0.512347	-0.003535	0.393296
C272	C	1.012347	0.496465	0.893296
C273	C	0.512350	-0.003541	0.446708
C274	C	1.012350	0.496459	0.946708
C275	C	0.628739	-0.119978	0.446596
C276	C	1.128739	0.380022	0.946596
C277	C	0.628733	-0.119971	0.393184
C278	C	1.128733	0.380029	0.893184
C279	C	0.599633	-0.090860	0.366506
C280	C	1.099633	0.409140	0.866506
H281	H	-0.050828	-0.060493	0.130243
H282	H	0.449172	0.439507	0.630243
H283	H	0.040678	-0.061489	-0.130118
H284	H	0.540678	0.438511	0.369882
Br285	Br	0.718703	0.442461	0.000069
Br286	Br	1.218703	0.942461	0.500069
Br287	Br	0.437506	-0.065556	-0.108993
Br288	Br	0.937506	0.434444	0.391007
H289	H	0.517779	-0.008972	0.777490
H290	H	1.017779	0.491028	1.277490
H291	H	0.494160	0.073908	0.000064
H292	H	0.994160	0.573908	0.500064
H293	H	0.654110	0.096023	0.000089
H294	H	1.154110	0.596023	0.500089
Br295	Br	-0.064448	-0.060419	-0.155230
Br296	Br	0.435552	0.439581	0.344770
Br297	Br	0.671935	0.700701	0.000063
Br298	Br	1.171935	1.200701	0.500063
Br299	Br	0.676980	0.204466	0.000074
Br300	Br	1.176980	0.704466	0.500074
Br301	Br	0.421187	0.552788	0.000015
Br302	Br	0.921187	1.052788	0.500015
H303	H	0.695837	0.334024	0.000074
H304	H	1.195837	0.834024	0.500074
Br305	Br	0.670720	0.819536	0.000050
Br306	Br	1.170720	1.319536	0.500050
Br307	Br	0.462906	0.790795	0.000031
Br308	Br	0.962906	1.290795	0.500031
Br309	Br	-0.177555	-0.059256	-0.108976
Br310	Br	0.322445	0.440744	0.391024
H311	H	0.493226	0.165375	0.000068
H312	H	0.993226	0.665375	0.500068
H313	H	0.652454	-0.143687	0.531668
H314	H	1.152454	0.356313	1.031668
H315	H	0.488655	0.020162	0.468469
H316	H	0.988655	0.520162	0.968469
Br317	Br	0.472852	0.035969	0.357079
Br318	Br	0.972852	0.535969	0.857079
H319	H	0.040632	-0.061431	0.130246
H320	H	0.540632	0.438569	0.630246
H321	H	0.488661	0.020157	0.531815
H322	H	0.988661	0.520157	1.031815
Br323	Br	0.472869	0.035950	0.643214
Br324	Br	0.972869	0.535950	1.143214
H325	H	0.517721	-0.008939	0.222733
H326	H	1.017721	0.491061	0.722733
H327	H	0.694301	0.485260	0.000062
H328	H	1.194301	0.985260	0.500062
Br329	Br	0.717157	0.593715	0.000060
Br330	Br	1.217157	1.093715	0.500060
H331	H	0.487905	0.688970	0.000026
H332	H	0.987905	1.188970	0.500026
Br333	Br	0.423929	0.282724	0.000012
Br334	Br	0.923929	0.782724	0.500012
Br335	Br	0.639088	-0.130376	0.111224
Br336	Br	1.139088	0.369624	0.611224
H337	H	0.446789	0.391167	0.000016
H338	H	0.946789	0.891167	0.500016
Br339	Br	0.422395	0.433975	0.000019
Br340	Br	0.922395	0.933975	0.500019
Br341	Br	0.668220	-0.159486	0.356911
Br342	Br	1.168220	0.340514	0.856911
H343	H	0.100476	-0.062094	-0.130128
H344	H	0.600476	0.437906	0.369872
Br345	Br	0.205543	-0.063118	0.155354
Br346	Br	0.705543	0.436882	0.655354
Br347	Br	0.668236	-0.159490	0.482794
Br348	Br	1.168236	0.340510	0.982794
H349	H	0.517784	-0.008989	0.874382
H350	H	1.017784	0.491011	1.374382
H351	H	0.517716	-0.008934	0.125825
H352	H	1.017716	0.491066	0.625825
H353	H	0.623316	-0.114567	0.222628
H354	H	1.123316	0.385433	0.722628
Br355	Br	0.668266	-0.159490	0.643044
Br356	Br	1.168266	0.340510	1.143044
Br357	Br	0.205616	-0.063168	-0.155242
Br358	Br	0.705616	0.436832	0.344758
H359	H	0.623360	-0.114614	0.777378
H360	H	1.123360	0.385386	1.277378
H361	H	0.423779	-0.065378	0.083970
H362	H	0.923779	0.434622	0.583970
Br363	Br	0.318643	-0.064282	0.109094
Br364	Br	0.818643	0.435718	0.609094
H365	H	0.100420	-0.062044	0.130243
H366	H	0.600420	0.437956	0.630243
H367	H	-0.191269	-0.059080	0.083998
H368	H	0.308731	0.440920	0.583998
H369	H	0.623370	-0.114615	0.874288
H370	H	1.123370	0.385385	1.374288
H371	H	-0.282693	-0.058187	-0.083855
H372	H	0.217307	0.441813	0.416145
Br373	Br	-0.296424	-0.057994	0.109109
Br374	Br	0.203576	0.442006	0.609109
H375	H	0.332348	-0.064481	-0.083880
H376	H	0.832348	0.435519	0.416120
