data_functionalizedCrystal
_audit_creation_method	'MofGen! by Chris Wilmer'
_symmetry_space_group_name_H-M	'P1'
_symmetry_Int_Tables_number	1
_symmetry_cell_setting	triclinic
loop_
_symmetry_equiv_pos_as_xyz
  x,y,z
_cell_length_a	19.188933
_cell_length_b	19.188930
_cell_length_c	10.268362
_cell_angle_alpha	89.993536
_cell_angle_beta	89.996815
_cell_angle_gamma	83.145175
loop_
_atom_site_label
_atom_site_type_symbol
_atom_site_fract_x
_atom_site_fract_y
_atom_site_fract_z
O1	O	0.926144	0.087171	-0.108271
O2	O	0.722833	0.098903	-0.108285
O3	O	0.830356	-0.008619	-0.108253
O4	O	0.818622	0.194693	-0.108304
O5	O	0.830346	-0.008615	0.108348
O6	O	0.722823	0.098907	0.108315
O7	O	0.926134	0.087174	0.108329
Cu8	Cu	0.824478	0.093041	0.128100
Cu9	Cu	0.824490	0.093037	-0.128056
O10	O	0.818611	0.194696	0.108296
C11	C	0.696817	0.098525	0.000013
C12	C	0.619313	0.097384	0.000009
C13	C	0.066063	0.089237	-0.118044
C14	C	0.138887	0.090305	-0.118049
C15	C	0.175299	0.090844	0.000019
C16	C	0.138882	0.090297	0.118102
C17	C	0.066060	0.089222	0.118104
N18	N	0.284314	0.132264	0.087893
N19	N	0.353492	0.133287	0.087883
C20	C	0.394707	0.094082	0.000021
N21	N	0.364130	0.053824	-0.087851
N22	N	0.294946	0.052804	-0.087845
C23	C	0.254262	0.092009	0.000030
C24	C	0.510080	0.095782	-0.118060
C25	C	0.582906	0.096846	-0.118060
C26	C	0.582899	0.096845	0.118094
C27	C	0.510075	0.095774	0.118091
C28	C	0.473669	0.095246	0.000010
C29	C	0.829971	-0.034628	0.000051
C30	C	0.828830	-0.112132	0.000063
C31	C	0.891921	-0.157056	0.000073
C32	C	0.890849	-0.229880	0.000052
C33	C	0.826683	-0.257777	0.000047
C34	C	0.763584	-0.212843	0.000029
C35	C	0.764658	-0.140021	0.000037
N36	N	0.777632	-0.365781	0.073757
N37	N	0.776617	-0.434959	0.073752
C38	C	0.823445	-0.477185	0.000020
N39	N	0.871338	-0.447621	-0.073690
N40	N	0.872355	-0.378436	-0.073680
C41	C	0.825512	-0.336739	0.000037
C42	C	0.885378	-0.601073	0.000006
C43	C	0.884304	-0.673898	-0.000023
C44	C	0.757037	-0.656860	-0.000033
C45	C	0.758113	-0.584037	-0.000017
C46	C	0.822286	-0.556148	0.000009
C47	C	0.952150	0.087553	0.000027
C48	C	1.029655	0.088694	0.000023
C49	C	0.818997	0.220705	-0.000011
C50	C	0.820137	0.298210	-0.000030
N51	N	0.824474	0.093044	0.308265
N52	N	0.824499	0.093028	-0.308222
C53	C	0.824479	0.093044	0.426108
C54	C	0.824488	0.093038	0.573946
H55	H	0.480437	0.095349	-0.214208
H56	H	0.036427	0.088804	-0.214194
H57	H	0.612545	0.097282	0.214228
O58	O	0.952203	-0.273429	0.000124
C59	C	1.009072	-0.233198	0.000110
H60	H	0.991182	-0.178792	0.041115
H61	H	1.053257	-0.260203	0.063006
H62	H	1.028762	-0.228067	-0.103798
O63	O	0.954237	-0.129930	0.000312
C64	C	0.958654	-0.088309	0.112475
H65	H	0.922219	-0.105426	0.190881
H66	H	1.014943	-0.095017	0.150132
H67	H	0.942373	-0.030829	0.087113
O68	O	0.474806	0.095289	0.232899
C69	C	0.522559	0.095976	0.337112
H70	H	0.571512	0.118840	0.302492
H71	H	0.496980	0.129556	0.419684
H72	H	0.537799	0.040089	0.373429
H73	H	0.706738	-0.547459	-0.000018
O74	O	0.701297	-0.240022	-0.000148
C75	C	0.696868	-0.281615	-0.112346
H76	H	0.751957	-0.299916	-0.149738
H77	H	0.669182	-0.329220	-0.087122
H78	H	0.665886	-0.249341	-0.190901
H79	H	0.713280	-0.103444	0.000029
H80	H	0.937631	-0.578365	0.000021
H81	H	0.704792	-0.679573	-0.000044
O82	O	0.174151	0.090871	-0.232861
C83	C	0.126405	0.090157	-0.337079
H84	H	0.071533	0.111480	-0.302465
H85	H	0.142908	0.124370	-0.419648
H86	H	0.126165	0.034046	-0.373399
O87	O	0.174338	0.090730	0.232711
C88	C	0.224545	0.030889	0.239797
H89	H	0.238155	0.010897	0.137284
H90	H	0.273932	0.045243	0.289765
H91	H	0.202148	-0.011860	0.298071
H92	H	0.036417	0.088783	0.214251
O93	O	0.945641	-0.717467	-0.000188
C94	C	0.984616	-0.704853	-0.112369
H95	H	0.967305	-0.649553	-0.149762
H96	H	1.042862	-0.710154	-0.087123
H97	H	0.975201	-0.744649	-0.190933
O98	O	0.618164	0.097400	-0.232874
C99	C	0.570414	0.096686	-0.337086
H100	H	0.515546	0.118021	-0.302472
H101	H	0.586922	0.130888	-0.419668
H102	H	0.570163	0.040572	-0.373388
