data_functionalizedCrystal
_audit_creation_method	'MofGen! by Chris Wilmer'
_symmetry_space_group_name_H-M	'P1'
_symmetry_Int_Tables_number	1
_symmetry_cell_setting	triclinic
loop_
_symmetry_equiv_pos_as_xyz
  x,y,z
_cell_length_a	15.995350
_cell_length_b	15.995350
_cell_length_c	14.472311
_cell_angle_alpha	90.001458
_cell_angle_beta	90.006054
_cell_angle_gamma	83.492375
loop_
_atom_site_label
_atom_site_type_symbol
_atom_site_fract_x
_atom_site_fract_y
_atom_site_fract_z
O1	O	0.107931	1.110986	0.076758
O2	O	0.121258	0.867211	0.076776
O3	O	-0.007293	0.995762	0.076766
O4	O	0.236482	0.982434	0.076769
O5	O	-0.007306	0.995750	-0.076916
O6	O	0.121246	0.867199	-0.076906
O7	O	0.107918	1.110974	-0.076924
Cu8	Cu	0.114581	0.989086	-0.090947
Cu9	Cu	0.114596	0.989099	0.090800
O10	O	0.236470	0.982423	-0.076913
C11	C	0.120701	0.836010	-0.000062
C12	C	0.119049	0.743060	-0.000055
C13	C	0.113117	0.405312	-0.000074
C14	C	0.021565	0.452746	-0.000418
C15	C	0.023217	0.549436	-0.000065
C16	C	0.116060	0.572873	-0.000065
C17	C	0.161223	0.531792	0.087692
C18	C	0.158923	0.435156	0.087759
C19	C	0.160801	0.434804	-0.087007
C20	C	0.160779	0.531750	-0.088160
C21	C	0.117727	0.667570	-0.000057
C22	C	0.111452	0.310614	-0.000076
C23	C	-0.038494	0.995205	-0.000073
C24	C	-0.131444	0.993553	-0.000068
C25	C	-0.469192	0.987621	-0.000071
C26	C	-0.421758	0.896069	0.000281
C27	C	-0.325068	0.897721	-0.000066
C28	C	-0.301631	0.990564	-0.000069
C29	C	-0.342716	1.035714	-0.087831
C30	C	-0.439352	1.033414	-0.087904
C31	C	-0.439696	1.035318	0.086861
C32	C	-0.342750	1.035297	0.088021
C33	C	-0.206934	0.992231	-0.000071
C34	C	-0.563890	0.985956	-0.000075
C35	C	0.267671	0.982980	-0.000072
C36	C	0.360621	0.984631	-0.000071
C37	C	0.108476	1.142175	-0.000083
C38	C	0.110127	1.235125	-0.000084
N39	N	0.114570	0.989082	-0.218778
C40	C	0.114581	0.989091	-0.407278
C41	C	0.045819	1.057892	-0.446486
C42	C	0.046001	1.058142	-0.553574
C43	C	0.114589	0.989100	-0.592869
C44	C	0.202062	1.007820	-0.553977
C45	C	0.201654	1.008309	-0.446855
C46	C	0.096657	0.901363	-0.446763
C47	C	0.094677	0.901957	-0.553891
C48	C	0.114600	0.989104	-0.697757
C49	C	0.114576	0.989089	-0.302390
N50	N	0.114600	0.989109	0.218631
H51	H	0.125999	0.416853	0.153359
H52	H	0.034216	0.883285	-0.419754
H53	H	0.226140	0.402908	0.091741
H54	H	0.229432	0.545917	0.090955
C55	C	-0.287422	0.849445	-0.085189
H56	H	-0.228130	0.850282	-0.085686
H57	H	-0.310907	0.875403	-0.139782
H58	H	-0.299993	0.792852	-0.082604
C59	C	-0.322005	1.126762	0.095178
H60	H	-0.287847	1.138921	0.044306
H61	H	-0.292655	1.133858	0.151190
H62	H	-0.372721	1.163940	0.094431
H63	H	-0.441357	0.859634	-0.062299
C64	C	0.007753	0.882746	-0.588238
H65	H	-0.016308	0.927638	-0.626179
H66	H	-0.027921	0.876721	-0.536765
H67	H	0.013866	0.832030	-0.622984
H68	H	0.127810	0.559061	-0.153082
H69	H	0.228482	0.547114	-0.093461
H70	H	0.129865	0.560171	0.153002
C71	C	-0.041826	1.043176	-0.589104
H72	H	-0.077940	1.036891	-0.538069
H73	H	-0.037434	0.993571	-0.625701
H74	H	-0.064300	1.089855	-0.625448
H75	H	0.130865	0.414264	-0.153524
H76	H	0.228301	0.403043	-0.087600
C77	C	-0.027882	0.427714	-0.085433
H78	H	0.006860	0.388106	-0.121478
H79	H	-0.044719	0.476294	-0.121566
H80	H	-0.076289	0.403278	-0.065700
H81	H	-0.314340	1.004345	-0.153137
H82	H	0.141492	0.848387	-0.580637
H83	H	-0.471456	1.102819	0.087449
H84	H	0.254253	0.959947	-0.420917
C85	C	-0.464086	0.988914	-0.176515
H86	H	-0.415096	0.972406	-0.212127
H87	H	-0.502060	1.026318	-0.211606
H88	H	-0.490347	0.940549	-0.160475
C89	C	-0.286659	0.849765	0.084911
H90	H	-0.330144	0.829092	0.119954
H91	H	-0.258365	0.886661	0.122043
H92	H	-0.247782	0.803936	0.065156
C93	C	-0.446792	0.846633	0.085292
H94	H	-0.486401	0.881379	0.121331
H95	H	-0.398214	0.829797	0.121433
H96	H	-0.471230	0.798225	0.065552
C97	C	-0.024748	0.587845	-0.085038
H98	H	-0.023799	0.647124	-0.084937
H99	H	-0.081374	0.575351	-0.082863
H100	H	0.001348	0.564760	-0.139743
C101	C	-0.323642	1.127858	-0.092252
H102	H	-0.349073	1.153971	-0.145828
H103	H	-0.264506	1.129463	-0.094881
H104	H	-0.345599	1.156994	-0.038772
H105	H	-0.012513	0.577299	0.062951
C106	C	0.164378	0.832198	-0.412492
H107	H	0.203391	0.856620	-0.374307
H108	H	0.193083	0.805648	-0.463985
H109	H	0.138435	0.791666	-0.378017
H110	H	-0.460230	1.005390	0.153379
H111	H	0.057134	1.122633	-0.419552
H112	H	-0.315496	1.002286	0.152945
H113	H	-0.019408	1.046995	-0.420715
C114	C	0.061533	1.146094	-0.588198
H115	H	0.067764	1.181808	-0.536795
H116	H	0.015114	1.169021	-0.624655
H117	H	0.111322	1.141714	-0.624494
C118	C	0.222912	1.094725	-0.413094
H119	H	0.231712	1.129203	-0.464847
H120	H	0.272525	1.087470	-0.376526
H121	H	0.177599	1.120823	-0.377096
H122	H	0.254479	0.959027	-0.579428
C123	C	0.223843	1.093248	-0.590208
H124	H	0.179749	1.117614	-0.629025
H125	H	0.274801	1.085152	-0.624414
H126	H	0.230399	1.129688	-0.539529
H127	H	-0.014857	0.433157	0.062168
H128	H	-0.471600	1.100630	-0.091888
