data_functionalizedCrystal
_audit_creation_method	'MofGen! by Chris Wilmer'
_symmetry_space_group_name_H-M	'P1'
_symmetry_Int_Tables_number	1
_symmetry_cell_setting	triclinic
loop_
_symmetry_equiv_pos_as_xyz
  x,y,z
_cell_length_a	15.297475
_cell_length_b	18.050590
_cell_length_c	15.298259
_cell_angle_alpha	80.286112
_cell_angle_beta	88.370891
_cell_angle_gamma	80.320920
loop_
_atom_site_label
_atom_site_type_symbol
_atom_site_fract_x
_atom_site_fract_y
_atom_site_fract_z
Zn1	Zn	1.253537	-0.370944	-0.726657
Zn2	Zn	1.278791	-0.519625	-0.580153
Zn3	Zn	1.132391	-0.378168	-0.554880
Zn4	Zn	1.107031	-0.477808	-0.701295
O5	O	1.192938	-0.436636	-0.640746
O6	O	1.379469	-0.405145	-0.728414
O7	O	1.280553	-0.521384	-0.454213
O8	O	1.148505	-0.273286	-0.577705
O9	O	1.398024	-0.514380	-0.620778
O10	O	1.237511	-0.267979	-0.703908
O11	O	1.172993	-0.417456	-0.435646
O12	O	1.006445	-0.376908	-0.553112
O13	O	1.105284	-0.443109	-0.827247
O14	O	0.987813	-0.450113	-0.660682
O15	O	1.212921	-0.364596	-0.845880
O16	O	1.255963	-0.618002	-0.596185
O17	O	1.129772	-0.587279	-0.685188
C18	C	0.965345	-0.409757	-0.601403
C19	C	0.867976	-0.398272	-0.584592
C20	C	0.554865	-0.518724	-0.760896
C21	C	0.646349	-0.529521	-0.776687
C22	C	0.701760	-0.496709	-0.728665
C23	C	0.665679	-0.453100	-0.664848
C24	C	0.574187	-0.442308	-0.649050
C25	C	0.721082	-0.420293	-0.616820
C26	C	0.685001	-0.376683	-0.553002
C27	C	0.593518	-0.365892	-0.537207
C28	C	0.538107	-0.398704	-0.585230
C29	C	0.812573	-0.431085	-0.632618
C30	C	0.831895	-0.354668	-0.520772
C31	C	0.740412	-0.343872	-0.504980
C32	C	1.192876	-0.629586	-0.640700
C33	C	1.192925	-0.712136	-0.640723
C34	C	1.261656	-0.928267	-0.592426
C35	C	1.269220	-0.966756	-0.676072
C36	C	1.192969	-0.863266	-0.640766
C37	C	1.185487	-0.971864	-0.557172
C38	C	1.193014	-1.009253	-0.640802
C39	C	1.200568	-0.900665	-0.724461
C40	C	1.116806	-0.905774	-0.605501
C41	C	1.124331	-0.944227	-0.689197
C42	C	1.192945	-0.779168	-0.640745
C43	C	1.193036	-1.093348	-0.640832
C44	C	1.421419	-0.463621	-0.680244
C45	C	1.518785	-0.475121	-0.697075
C46	C	1.153457	-0.398382	-0.869238
C47	C	1.136632	-0.382081	-0.966607
C48	C	1.193020	-0.242933	-0.640816
C49	C	1.193055	-0.160387	-0.640846
C50	C	1.313213	-0.552577	-1.279737
C51	C	1.329016	-0.567898	-1.188252
C52	C	1.280922	-0.521445	-1.132837
C53	C	1.217021	-0.459669	-1.168914
C54	C	1.201212	-0.444351	-1.260406
C55	C	1.168921	-0.413218	-1.113506
C56	C	1.105020	-0.351442	-1.149583
C57	C	1.089214	-0.336127	-1.241067
C58	C	1.137308	-0.382580	-1.296483
C59	C	1.184730	-0.428536	-1.022014
C60	C	1.072729	-0.320310	-1.002683
C61	C	1.056926	-0.304989	-1.094168
C62	C	1.232316	-0.474694	-0.413153
C63	C	1.249310	-0.490806	-0.315813
H64	H	0.463612	-0.389914	-0.572377
C65	C	0.700711	-0.295906	-0.434779
N66	N	0.670807	-0.259779	-0.381904
H67	H	0.675719	-0.565029	-0.828646
C68	C	1.045870	-0.954234	-0.744519
N69	N	0.986776	-0.961772	-0.786189
C70	C	0.802396	-0.508602	-0.746024
N71	N	0.878200	-0.517565	-0.759098
C72	C	1.209252	-0.859033	-0.820032
N73	N	1.215798	-0.827674	-0.892014
H74	H	0.509743	-0.545440	-0.799983
C75	C	1.029805	-0.869825	-0.565148
N76	N	0.964278	-0.842747	-0.534743
H77	H	1.179139	-1.002781	-0.486463
H78	H	1.236763	-0.478831	-0.992650
H79	H	1.293792	-0.533923	-1.058347
H80	H	1.352358	-0.590397	-1.324862
C81	C	0.553832	-0.317923	-0.467005
N82	N	0.523942	-0.281789	-0.414130
H83	H	1.381036	-0.618202	-1.158884
H84	H	0.877012	-0.327952	-0.481667
C85	C	1.119925	-0.365733	-1.397122
N86	N	1.106833	-0.353047	-1.472924
H87	H	1.037174	-0.285831	-1.270436
C88	C	1.340136	-0.918043	-0.537278
N89	N	1.399249	-0.910338	-0.495746
C90	C	1.356257	-1.002688	-0.716390
N91	N	1.421816	-1.029752	-0.746751
H92	H	0.841941	-0.466592	-0.684579
H93	H	1.004897	-0.254691	-1.123555
H94	H	1.033565	-0.282484	-0.957563
