data_functionalizedCrystal
_audit_creation_method	'MofGen! by Chris Wilmer'
_symmetry_space_group_name_H-M	'P1'
_symmetry_Int_Tables_number	1
_symmetry_cell_setting	triclinic
loop_
_symmetry_equiv_pos_as_xyz
  x,y,z
_cell_length_a	20.453700
_cell_length_b	27.923497
_cell_length_c	9.582880
_cell_angle_alpha	85.072194
_cell_angle_beta	111.207034
_cell_angle_gamma	81.035752
loop_
_atom_site_label
_atom_site_type_symbol
_atom_site_fract_x
_atom_site_fract_y
_atom_site_fract_z
V1	V	1.364915	-0.066922	0.467584
O2	O	1.367836	0.003427	0.457669
O3	O	1.341372	-0.132898	0.465362
O4	O	1.361962	-0.065800	0.671069
O5	O	1.347103	-0.064136	0.250538
V6	V	1.525376	-0.058519	0.441505
O7	O	1.453564	-0.085356	0.524790
O8	O	1.586793	-0.040085	0.384299
O9	O	1.474517	0.007457	0.443727
O10	O	1.561588	-0.128868	0.451420
O11	O	1.582320	-0.061305	0.658551
O12	O	1.453927	-0.059641	0.238021
V13	V	1.031582	-0.066922	0.467584
O14	O	1.034502	0.003427	0.457669
O15	O	1.008038	-0.132898	0.465362
O16	O	1.028628	-0.065800	0.671069
O17	O	1.013770	-0.064136	0.250538
V18	V	1.192043	-0.058519	0.441505
O19	O	1.120231	-0.085356	0.524790
O20	O	1.253459	-0.040085	0.384299
O21	O	1.141184	0.007457	0.443727
O22	O	1.228255	-0.128868	0.451420
O23	O	1.248987	-0.061305	0.658551
O24	O	1.120594	-0.059641	0.238021
C25	C	1.287476	-0.148985	0.458237
C26	C	1.295411	-0.202920	0.457776
V27	V	1.698248	-0.066922	0.467584
O28	O	1.701169	0.003427	0.457669
O29	O	1.674705	-0.132898	0.465362
O30	O	1.695295	-0.065800	0.671069
O31	O	1.680437	-0.064136	0.250538
V32	V	1.858710	-0.058519	0.441505
O33	O	1.786898	-0.085356	0.524790
O34	O	1.920126	-0.040085	0.384299
O35	O	1.807851	0.007457	0.443727
O36	O	1.894921	-0.128868	0.451420
O37	O	1.915654	-0.061305	0.658551
O38	O	1.787261	-0.059641	0.238021
C39	C	1.323192	-0.530504	0.317610
C40	C	1.353028	-0.733213	0.315798
O41	O	1.338663	-0.753584	0.198931
N42	N	1.378219	-0.765427	0.452721
C43	C	1.395956	-0.746961	0.590108
O44	O	1.418074	-0.779012	0.706528
C45	C	1.366124	-0.544254	0.591919
C46	C	1.340926	-0.512042	0.454986
C47	C	1.297995	-0.498293	0.180689
C48	C	1.290533	-0.447619	0.181143
C49	C	1.308267	-0.429156	0.318518
C50	C	1.333463	-0.461368	0.455440
C51	C	1.383866	-0.525789	0.729305
C52	C	1.376408	-0.475109	0.729746
C53	C	1.351209	-0.442897	0.592813
C54	C	1.343735	-0.392231	0.593270
N55	N	1.318544	-0.360017	0.456347
C56	C	1.300810	-0.378480	0.318971
C57	C	1.411616	-0.853385	0.589147
C58	C	1.419073	-0.904061	0.588694
C59	C	1.376145	-0.890309	0.314384
C60	C	1.368684	-0.839632	0.314838
C61	C	1.386425	-0.821171	0.452224
C62	C	1.285140	-0.272061	0.319935
C63	C	1.277677	-0.221383	0.320401
C64	C	1.320608	-0.235139	0.594710
C65	C	1.328068	-0.285813	0.594245
C66	C	1.310334	-0.304272	0.456845
O67	O	1.358094	-0.371825	0.710077
O68	O	1.278709	-0.346421	0.202570
C69	C	1.330654	-0.581179	0.317156
C70	C	1.355850	-0.613390	0.454078
C71	C	1.373584	-0.594927	0.591454
C72	C	1.363307	-0.664067	0.453625
C73	C	1.345573	-0.682529	0.316250
C74	C	1.320382	-0.650315	0.179327
C75	C	1.312920	-0.599641	0.179781
C76	C	1.398775	-0.627141	0.728377
C77	C	1.406235	-0.677815	0.727912
C78	C	1.388501	-0.696277	0.590536
C79	C	1.313741	-0.063394	0.720635
C80	C	1.338372	-0.062913	0.886991
C81	C	1.416193	0.023541	0.450848
C82	C	1.401339	0.077476	0.451318
C83	C	1.389929	-0.062048	0.188447
C84	C	1.358377	-0.062527	0.022089
C85	C	0.954143	-0.148985	0.458237
C86	C	0.962077	-0.202920	0.457776
C87	C	0.980407	-0.063394	0.720635
C88	C	1.005038	-0.062913	0.886991
C89	C	1.082860	0.023541	0.450848
C90	C	1.068005	0.077476	0.451318
C91	C	1.056595	-0.062048	0.188447
C92	C	1.025044	-0.062527	0.022089
C93	C	1.620810	-0.148985	0.458237
C94	C	1.628744	-0.202920	0.457776
C95	C	1.647074	-0.063394	0.720635
C96	C	1.671705	-0.062913	0.886991
C97	C	1.749526	0.023541	0.450848
C98	C	1.734672	0.077476	0.451318
C99	C	1.723262	-0.062048	0.188447
C100	C	1.691711	-0.062527	0.022089
C101	C	1.026725	-0.230720	0.465074
C102	C	1.034193	-0.281399	0.464664
C103	C	0.977011	-0.304278	0.456946
C104	C	0.912358	-0.276476	0.449653
C105	C	0.904893	-0.225797	0.450074
C106	C	1.118354	0.105275	0.444025
C107	C	1.104401	0.155955	0.444443
C108	C	1.040101	0.178834	0.452164
C109	C	0.989749	0.151031	0.459453
C110	C	1.003700	0.100353	0.459025
C111	C	1.693392	-0.230720	0.465074
C112	C	1.700860	-0.281399	0.464664
C113	C	1.643677	-0.304278	0.456946
C114	C	1.579025	-0.276476	0.449653
C115	C	1.571559	-0.225797	0.450074
C116	C	1.785020	0.105275	0.444025
C117	C	1.771067	0.155955	0.444443
C118	C	1.706768	0.178834	0.452164
C119	C	1.656415	0.151031	0.459453
C120	C	1.670366	0.100353	0.459025
H121	H	1.257154	-0.195157	0.208888
H122	H	1.086840	-0.304030	0.470599
H123	H	1.426749	-0.704038	0.839427
H124	H	1.695417	0.220099	0.452510
H125	H	1.413217	-0.612115	0.840247
H126	H	0.852247	-0.203166	0.444123
H127	H	1.283554	-0.513319	0.068815
H128	H	0.937395	0.169667	0.465738
H129	H	1.404385	-0.552008	0.840811
H130	H	1.270699	-0.287084	0.208051
H131	H	0.865803	-0.295111	0.443369
H132	H	1.348164	-0.813407	0.203335
H133	H	1.170714	0.086654	0.437740
H134	H	1.348575	-0.312041	0.705745
H135	H	1.361704	-0.905350	0.202527
H136	H	1.145409	0.178585	0.438509
H137	H	1.518914	-0.203166	0.444123
H138	H	1.649766	-0.345544	0.456604
H139	H	0.983099	-0.345544	0.456604
H140	H	1.028750	0.220099	0.452510
H141	H	1.739959	-0.212098	0.471349
H142	H	0.962699	0.077722	0.464977
H143	H	1.753507	-0.304030	0.470599
H144	H	1.532470	-0.295111	0.443369
H145	H	1.837380	0.086654	0.437740
H146	H	1.812075	0.178585	0.438509
H147	H	1.604062	0.169667	0.465738
H148	H	1.629366	0.077722	0.464977
H149	H	1.270019	-0.421396	0.069638
H150	H	1.439580	-0.930284	0.700197
H151	H	1.426063	-0.838359	0.701029
H152	H	1.390863	-0.460082	0.841625
H153	H	1.335042	-0.220098	0.706558
H154	H	1.292401	-0.573418	0.068276
H155	H	1.073292	-0.212098	0.471349
H156	H	1.305939	-0.665356	0.067470
