data_functionalizedCrystal
_audit_creation_method	'MofGen! by Chris Wilmer'
_symmetry_space_group_name_H-M	'P1'
_symmetry_Int_Tables_number	1
_symmetry_cell_setting	triclinic
loop_
_symmetry_equiv_pos_as_xyz
  x,y,z
_cell_length_a	15.698487
_cell_length_b	18.760492
_cell_length_c	18.760487
_cell_angle_alpha	90.036694
_cell_angle_beta	60.019852
_cell_angle_gamma	60.002254
loop_
_atom_site_label
_atom_site_type_symbol
_atom_site_fract_x
_atom_site_fract_y
_atom_site_fract_z
Zr1	Zr	0.932396	-0.093102	0.686680
O2	O	1.110106	-0.206984	0.572861
O3	O	0.754686	-0.058193	0.721572
O4	O	0.932395	-0.206896	0.721568
O5	O	0.932397	0.059021	0.572867
O6	O	0.932395	-0.206824	0.838871
O7	O	0.932396	-0.058281	0.572864
O8	O	0.614505	0.059179	0.838877
O9	O	1.250287	-0.206981	0.572861
O10	O	0.827780	-0.043248	0.823994
O11	O	0.827781	0.044240	0.736454
O12	O	1.037011	-0.130839	0.736450
O13	O	1.037012	-0.043352	0.648910
Zr14	Zr	0.932397	0.094097	0.873769
Zr15	Zr	0.932396	-0.092986	0.873765
Zr16	Zr	0.932398	0.093982	0.686684
Zr17	Zr	1.155969	-0.093097	0.686680
Zr18	Zr	0.708824	0.094093	0.873769
O19	O	1.110108	0.059188	0.838877
O20	O	1.110105	-0.206820	0.838871
O21	O	1.110108	0.059025	0.572867
O22	O	0.754687	0.207980	0.987588
O23	O	0.754685	-0.058029	0.987582
O24	O	0.754688	0.207816	0.721578
O25	O	0.932396	-0.058026	0.987582
O26	O	0.932398	0.207892	0.838880
O27	O	0.932399	0.207819	0.721577
O28	O	0.932397	0.059277	0.987584
O29	O	1.250287	-0.206890	0.721568
O30	O	0.614506	0.207886	0.838881
O31	O	0.614506	0.207977	0.987588
O32	O	0.614505	0.059271	0.987585
O33	O	1.250288	-0.058275	0.572864
O34	O	1.250288	-0.058183	0.721571
O35	O	0.827782	0.131835	0.823998
O36	O	0.827781	0.044347	0.911538
O37	O	1.037012	-0.043244	0.823994
O38	O	1.037013	0.044244	0.736454
C39	C	0.652741	0.000492	0.780225
C40	C	0.557828	0.000491	0.780225
C41	C	0.932397	0.000354	0.546210
C42	C	0.932397	0.000305	0.466788
C43	C	0.932395	-0.233515	0.780219
C44	C	0.932394	-0.312937	0.780217
C45	C	0.384046	0.000506	0.780223
C46	C	0.480750	0.000500	0.780222
C47	C	1.212052	0.000503	0.780224
C48	C	1.306965	0.000505	0.780224
C49	C	0.823173	-0.304527	0.825914
C50	C	1.041614	-0.395976	0.734525
C51	C	1.041617	-0.470599	0.734526
C52	C	0.932397	-0.462188	0.780222
C53	C	0.823173	-0.379155	0.825918
C54	C	1.150839	-0.553636	0.688838
C55	C	1.150846	-0.628266	0.688837
C56	C	1.041625	-0.619856	0.734529
C57	C	0.932397	-0.536816	0.780226
C58	C	0.823176	-0.528406	0.825923
C59	C	0.713947	-0.445367	0.871616
C60	C	0.713951	-0.370745	0.871610
C61	C	1.041620	-0.694478	0.734535
C62	C	0.823176	-0.603034	0.825927
C63	C	0.932399	0.234511	0.780229
C64	C	0.932399	0.313933	0.780231
C65	C	1.041617	-0.045072	0.085274
C66	C	0.823177	0.046375	0.176676
C67	C	0.823175	0.046300	0.251298
C68	C	0.932396	0.000537	0.242911
C69	C	1.041619	-0.045151	0.159901
C70	C	0.713954	0.091979	0.334312
C71	C	0.713948	0.091905	0.408940
C72	C	0.823170	0.046147	0.400554
C73	C	0.932397	0.000459	0.317538
C74	C	1.041619	-0.045304	0.309151
C75	C	1.150847	-0.090988	0.226136
C76	C	1.150841	-0.090909	0.151515
C77	C	0.823176	0.046068	0.475175
C78	C	1.041620	-0.045383	0.383778
C79	C	0.932396	0.000642	1.014239
C80	C	0.932396	0.000691	1.093661
C81	C	0.652741	0.000636	1.014239
C82	C	0.557828	0.000684	1.093661
C83	C	0.652743	0.234506	0.780230
C84	C	0.557831	0.313926	0.780232
C85	C	0.652743	0.234650	1.014244
C86	C	0.557831	0.314119	1.093668
C87	C	1.212051	-0.233654	0.546205
C88	C	1.306963	-0.313123	0.466780
C89	C	1.212053	0.000359	0.546210
C90	C	1.306965	0.000312	0.466787
C91	C	1.212050	-0.233510	0.780219
C92	C	1.306962	-0.312930	0.780217
C93	C	0.513255	-0.045026	1.085262
C94	C	0.424087	-0.044999	1.159881
C95	C	0.379487	0.000743	1.242898
C96	C	0.424068	0.046454	1.251295
C97	C	0.513241	0.046421	1.176678
C98	C	0.513260	0.396954	0.825929
C99	C	0.424093	0.471585	0.825928
C100	C	0.379492	0.463185	0.780233
C101	C	0.424072	0.380148	0.734530
C102	C	0.513244	0.305520	0.734527
C103	C	0.513259	0.305770	1.176669
C104	C	0.424091	0.380433	1.251304
C105	C	0.379491	0.463443	1.242936
C106	C	0.424072	0.471789	1.159926
C107	C	0.513244	0.397127	1.085293
C108	C	1.351546	-0.304775	0.383779
C109	C	1.440741	-0.379437	0.309145
C110	C	1.485345	-0.462447	0.317513
C111	C	1.440759	-0.470793	0.400523
C112	C	1.351571	-0.396132	0.475156
C113	C	1.351547	0.046014	0.475187
C114	C	1.440740	0.045967	0.400568
C115	C	1.485343	0.000222	0.317551
C116	C	1.440758	-0.045485	0.309153
C117	C	1.351573	-0.045443	0.383771
C118	C	1.351534	-0.304503	0.825921
C119	C	1.440702	-0.379119	0.825936
C120	C	1.485302	-0.462162	0.780242
C121	C	1.440721	-0.470588	0.734537
C122	C	1.351549	-0.395972	0.734527
H123	H	0.734234	-0.596175	0.863135
C124	C	1.489815	-0.562104	0.409722
H125	H	1.450499	-0.556392	0.469843
H126	H	1.475199	-0.593121	0.382497
H127	H	1.574015	-0.593129	0.382509
H128	H	0.625023	-0.303131	0.908812
C129	C	1.270972	-0.562888	0.638587
H130	H	1.336023	-0.623028	0.611386
H131	H	1.275530	-0.535711	0.595339
H132	H	1.275489	-0.535642	0.678046
C133	C	1.161766	-0.095724	0.374546
H134	H	1.226811	-0.122923	0.314419
H135	H	1.166309	-0.056317	0.401829
H136	H	1.166307	-0.139006	0.401683
H137	H	1.557964	0.000194	0.256799
H138	H	0.549520	0.083648	1.183529
H139	H	0.549559	0.238187	1.183500
H140	H	0.734254	0.083629	0.183498
C141	C	0.375002	0.370916	0.684273
H142	H	0.414318	0.310779	0.657048
H143	H	0.290806	0.398161	0.723725
H144	H	0.389628	0.398103	0.641029
C145	C	1.489739	-0.369836	0.876202
H146	H	1.450417	-0.309691	0.903398
H147	H	1.475119	-0.397007	0.919456
H148	H	1.573939	-0.397071	0.836752
C149	C	1.489760	-0.370241	0.217845
H150	H	1.450401	-0.310109	0.223557
H151	H	1.573951	-0.397454	0.186828
H152	H	1.475142	-0.397474	0.186832
C153	C	1.302500	0.096332	0.566498
H154	H	1.242991	0.089824	0.609743
H155	H	1.366523	0.073765	0.573041
H156	H	1.267711	0.156458	0.573044
C157	C	0.562306	-0.095352	0.993953
H158	H	0.522990	-0.122575	0.999650
H159	H	0.547690	-0.055935	0.962938
H160	H	0.646506	-0.138613	0.962946
H161	H	1.477049	-0.538211	0.697334
H162	H	0.306876	0.000763	1.303649
H163	H	0.387742	0.083695	1.318898
C164	C	1.302525	-0.405325	0.566452
H165	H	1.341859	-0.465458	0.560739
H166	H	1.317125	-0.378098	0.597482
H167	H	1.218328	-0.378108	0.597454
C168	C	0.562260	0.406316	0.993994
H169	H	0.621761	0.349967	0.950737
H170	H	0.498225	0.437325	0.987464
H171	H	0.597053	0.437320	0.987453
H172	H	0.387746	0.539385	1.153125
H173	H	0.549564	0.403810	0.863140
C174	C	1.583393	-0.544234	0.780255
H175	H	1.603572	-0.594903	0.746501
H176	H	1.652965	-0.544244	0.755795
H177	H	1.554141	-0.544192	0.838483
H178	H	1.315233	-0.237191	0.376949
C179	C	1.489756	0.096256	0.409821
H180	H	1.450398	0.123517	0.469951
H181	H	1.573948	0.056809	0.382622
H182	H	1.475135	0.139485	0.382609
H183	H	0.549522	0.237917	0.697317
C184	C	1.302545	-0.405248	0.684235
H185	H	1.243046	-0.348922	0.690769
H186	H	1.366587	-0.436297	0.624121
H187	H	1.267750	-0.436243	0.706800
C188	C	0.375056	0.371236	1.342603
H189	H	0.414379	0.311104	1.336891
H190	H	0.389678	0.398453	1.373623
H191	H	0.290856	0.398466	1.373615
H192	H	0.625019	-0.438529	0.908826
H193	H	1.477088	-0.082729	0.241551
H194	H	0.387800	-0.082222	1.153026
C195	C	1.302525	-0.095705	0.374526
H196	H	1.243024	-0.089138	0.430850
H197	H	1.267749	-0.073152	0.343512
H198	H	1.366552	-0.155846	0.343516
C199	C	1.302486	-0.213165	0.876191
H200	H	1.341803	-0.218846	0.903417
H201	H	1.317105	-0.182175	0.836754
H202	H	1.218286	-0.182133	0.919437
H203	H	1.557967	-0.523234	0.256735
H204	H	0.387806	0.539190	0.863148
H205	H	0.734242	-0.236914	0.863113
H206	H	0.625007	0.129103	0.476527
C207	C	1.270991	-0.719599	0.638570
H208	H	1.336036	-0.713918	0.611350
H209	H	1.275533	-0.750587	0.678010
H210	H	1.275531	-0.750633	0.595321
H211	H	0.306883	0.523960	0.780243
H212	H	1.130536	-0.402817	0.697327
H213	H	1.239775	-0.128253	0.219317
C214	C	1.161756	-0.785810	0.684277
H215	H	1.226802	-0.780131	0.657059
H216	H	1.166291	-0.816795	0.723721
H217	H	1.166301	-0.816848	0.641027
C218	C	0.281406	0.545565	1.325034
H219	H	0.261229	0.596203	1.308168
H220	H	0.211831	0.545584	1.358796
H221	H	0.310663	0.545577	1.358782
C222	C	1.270978	-0.141165	0.060204
H223	H	1.255332	-0.134573	0.016964
H224	H	1.315865	-0.118629	0.053716
H225	H	1.315846	-0.201311	0.053593
H226	H	1.130549	-0.082264	0.017681
H227	H	0.625032	0.129237	0.341133
H228	H	0.734244	0.083271	0.542762
