data_functionalizedCrystal
_audit_creation_method	'MofGen! by Chris Wilmer'
_symmetry_space_group_name_H-M	'P1'
_symmetry_Int_Tables_number	1
_symmetry_cell_setting	triclinic
loop_
_symmetry_equiv_pos_as_xyz
  x,y,z
_cell_length_a	14.971482
_cell_length_b	12.837942
_cell_length_c	13.448316
_cell_angle_alpha	90.002966
_cell_angle_beta	90.004522
_cell_angle_gamma	89.220774
loop_
_atom_site_label
_atom_site_type_symbol
_atom_site_fract_x
_atom_site_fract_y
_atom_site_fract_z
O1	O	1.198337	0.135083	0.082678
O2	O	0.939300	0.151266	0.082683
O3	O	1.063075	-0.007735	0.082675
O4	O	1.074562	0.294084	0.082687
O5	O	1.063061	-0.007737	-0.082709
O6	O	0.939287	0.151265	-0.082701
O7	O	1.198323	0.135082	-0.082705
Cu8	Cu	1.068803	0.143173	-0.097804
Cu9	Cu	1.068820	0.143175	0.097782
O10	O	1.074548	0.294083	-0.082697
C11	C	0.905908	0.150542	-0.000008
C12	C	0.806428	0.148376	-0.000006
C13	C	0.759690	0.147354	-0.090158
C14	C	0.666218	0.145302	-0.090159
C15	C	0.619486	0.144278	-0.000008
C16	C	0.666231	0.145296	0.090151
C17	C	0.759701	0.147341	0.090151
C18	C	0.471410	0.141037	0.090144
C19	C	0.377933	0.138993	0.090145
C20	C	0.377927	0.138997	-0.090166
C21	C	0.471397	0.141042	-0.090166
C22	C	0.518135	0.142062	-0.000007
C23	C	1.059187	-0.046361	-0.000017
C24	C	1.047613	-0.161453	-0.000015
C25	C	1.186755	-0.402241	0.000004
C26	C	1.175884	-0.510380	0.000005
C27	C	1.015001	-0.485872	-0.000002
C28	C	1.025872	-0.377733	-0.000004
C29	C	1.111752	-0.335921	-0.000003
C30	C	1.122622	-0.227780	-0.000012
C31	C	0.961739	-0.203275	-0.000012
C32	C	0.950869	-0.311414	-0.000010
C33	C	1.231715	0.135805	-0.000012
C34	C	1.331195	0.137972	-0.000007
C35	C	1.078436	0.332709	-0.000004
C36	C	1.090010	0.447800	0.000001
N37	N	1.068798	0.143171	-0.235368
C38	C	1.128411	0.206155	-0.287403
C39	C	1.128422	0.206151	-0.391506
C40	C	1.068815	0.143167	-0.443573
C41	C	1.009199	0.080176	-0.391531
C42	C	1.009194	0.080176	-0.287430
C43	C	1.009214	0.080183	-0.608511
C44	C	1.009219	0.080185	-0.712620
C45	C	1.128442	0.206158	-0.712587
C46	C	1.128436	0.206157	-0.608486
C47	C	1.068820	0.143168	-0.556451
N48	N	1.068831	0.143168	0.235346
H49	H	0.509443	0.141882	-0.163576
H50	H	0.339868	0.138167	-0.163577
H51	H	0.797754	0.148175	0.163562
H52	H	0.900666	-0.149265	-0.000025
H53	H	1.176981	0.257451	-0.754959
C54	C	0.856406	-0.357419	-0.000023
N55	N	0.785254	-0.392070	-0.000040
C56	C	0.326530	0.137863	0.189316
N57	N	0.287814	0.137010	0.264014
C58	C	0.614823	0.144167	0.189319
N59	N	0.576103	0.143320	0.264015
C60	C	1.217090	-0.181789	-0.000007
N61	N	1.288246	-0.147152	0.000001
H62	H	1.256682	-0.368197	-0.000005
C63	C	1.193968	0.275479	-0.448739
N64	N	1.243330	0.327714	-0.491846
H65	H	0.945082	-0.519934	0.000008
H66	H	1.236960	-0.564374	0.000014
H67	H	1.176945	0.257450	-0.245017
C68	C	0.943659	0.010885	-0.769891
N69	N	0.894282	-0.041317	-0.813028
H70	H	1.176970	0.257449	-0.566096
C71	C	0.943630	0.010893	-0.551276
N72	N	0.894230	-0.041290	-0.508166
H73	H	0.960671	0.028889	-0.433932
C74	C	0.943613	0.010891	-0.230192
N75	N	0.894217	-0.041298	-0.187083
H76	H	0.797732	0.148197	-0.163570
C77	C	0.614810	0.144203	-0.189334
N78	N	0.576089	0.143382	-0.264036
H79	H	0.509461	0.141868	0.163562
