data_functionalizedCrystal
_audit_creation_method	'MofGen! by Chris Wilmer'
_symmetry_space_group_name_H-M	'P1'
_symmetry_Int_Tables_number	1
_symmetry_cell_setting	triclinic
loop_
_symmetry_equiv_pos_as_xyz
  x,y,z
_cell_length_a	11.792254
_cell_length_b	10.723024
_cell_length_c	9.198806
_cell_angle_alpha	89.997988
_cell_angle_beta	89.996104
_cell_angle_gamma	84.333234
loop_
_atom_site_label
_atom_site_type_symbol
_atom_site_fract_x
_atom_site_fract_y
_atom_site_fract_z
O1	O	-1.507274	-0.171111	0.120887
O2	O	-1.007274	0.328889	0.620887
O3	O	-1.176973	-0.188722	0.120890
O4	O	-0.676973	0.311278	0.620890
O5	O	-1.349743	0.001679	0.120883
O6	O	-0.849743	0.501679	0.620883
O7	O	-1.334505	-0.361513	0.120894
O8	O	-0.834505	0.138487	0.620894
O9	O	-1.349729	0.001680	-0.120902
O10	O	-0.849729	0.501680	0.379098
O11	O	-1.176960	-0.188722	-0.120895
O12	O	-0.676960	0.311278	0.379105
O13	O	-1.507260	-0.171111	-0.120898
O14	O	-1.007260	0.328889	0.379102
Cu15	Cu	-1.342109	-0.179916	-0.142973
Cu16	Cu	-0.842109	0.320084	0.357027
Cu17	Cu	-1.342125	-0.179917	0.142966
Cu18	Cu	-0.842125	0.320083	0.642966
O19	O	-1.334491	-0.361512	-0.120891
O20	O	-0.834491	0.138488	0.379109
C21	C	-1.348627	0.048176	-0.000008
C22	C	-0.848627	0.548176	0.499992
C23	C	-1.345309	0.186722	-0.000002
C24	C	-0.845309	0.686722	0.499998
C25	C	-1.134673	-0.187612	-0.000002
C26	C	-0.634673	0.312388	0.499998
C27	C	-1.008653	-0.184292	-0.000001
C28	C	-0.508653	0.315708	0.499999
C29	C	-1.549560	-0.172220	-0.000002
C30	C	-1.049560	0.327780	0.499998
C31	C	-1.675581	-0.175541	0.000006
C32	C	-1.175581	0.324459	0.500006
C33	C	-0.906311	-0.181594	0.000005
C34	C	-0.406311	0.318406	0.500005
C35	C	-0.777917	-0.178220	0.000006
C36	C	-0.277917	0.321780	0.500006
C37	C	-1.335607	-0.408009	0.000003
C38	C	-0.835607	0.091991	0.500003
C39	C	-1.338925	-0.546555	0.000007
C40	C	-0.838925	-0.046555	0.500007
N41	N	-1.342106	-0.179915	-0.344087
N42	N	-0.842106	0.320085	0.155913
C43	C	-1.441982	0.261956	-0.000001
C44	C	-0.941982	0.761956	0.499999
C45	C	-1.438555	0.405150	0.000004
C46	C	-0.938555	0.905150	0.500004
C47	C	-1.414646	-0.099619	-0.416287
C48	C	-0.914646	0.400381	0.083713
C49	C	-1.414664	-0.099615	-0.583699
C50	C	-0.914664	0.400385	-0.083699
N51	N	-1.342137	-0.179908	0.344080
N52	N	-0.842137	0.320092	0.844080
H53	H	-1.527284	0.220355	-0.000011
H54	H	-1.027284	0.720355	0.499989
H55	H	-1.280009	-0.248652	-0.406213
H56	H	-0.780009	0.251348	0.093787
F57	F	-1.495848	-0.009764	-0.664851
F58	F	-0.995848	0.490236	-0.164851
F59	F	-1.233809	0.241090	0.000012
F60	F	-0.733809	0.741090	0.500012
F61	F	-1.546732	0.489645	-0.000005
F62	F	-1.046732	0.989645	0.499995
H63	H	-1.280033	-0.248661	-0.593841
H64	H	-0.780033	0.251339	-0.093841
H65	H	-1.256161	0.388805	-0.000003
H66	H	-0.756161	0.888805	0.499997
F67	F	-1.495604	-0.009545	-0.335090
F68	F	-0.995604	0.490455	0.164910
