data_functionalizedCrystal
_audit_creation_method	'MofGen! by Chris Wilmer'
_symmetry_space_group_name_H-M	'P1'
_symmetry_Int_Tables_number	1
_symmetry_cell_setting	triclinic
loop_
_symmetry_equiv_pos_as_xyz
  x,y,z
_cell_length_a	19.077068
_cell_length_b	19.805407
_cell_length_c	19.805399
_cell_angle_alpha	90.016886
_cell_angle_beta	92.267915
_cell_angle_gamma	87.672914
loop_
_atom_site_label
_atom_site_type_symbol
_atom_site_fract_x
_atom_site_fract_y
_atom_site_fract_z
Zn1	Zn	-0.280208	-1.023886	-0.393533
Zn2	Zn	-0.397910	-1.019256	-0.284888
Zn3	Zn	-0.280230	-0.910705	-0.280359
Zn4	Zn	-0.397870	-0.906116	-0.398033
O5	O	-0.339054	-0.964991	-0.339203
O6	O	-0.295829	-1.117988	-0.379134
O7	O	-0.382326	-1.004840	-0.189571
O8	O	-0.181736	-0.929577	-0.291594
O9	O	-0.382304	-1.114587	-0.299312
O10	O	-0.181720	-1.012730	-0.374742
O11	O	-0.295867	-0.925088	-0.186244
O12	O	-0.295828	-0.815380	-0.295956
O13	O	-0.382235	-0.921755	-0.492152
O14	O	-0.382257	-0.812008	-0.382411
O15	O	-0.295790	-1.008280	-0.488846
O16	O	-0.496396	-1.000390	-0.303675
O17	O	-0.496366	-0.917266	-0.386802
C18	C	-0.339041	-0.789135	-0.339181
C19	C	-0.339052	-0.713903	-0.339188
C20	C	-0.521918	-0.957846	-0.346233
C21	C	-0.600148	-0.954851	-0.349263
C22	C	-0.339006	-0.965022	-0.515744
C23	C	-0.338985	-0.965036	-0.590975
C24	C	-0.636893	-0.996756	-0.307442
C25	C	-0.710399	-0.993943	-0.310296
C26	C	-0.747158	-0.949222	-0.354967
C27	C	-0.710408	-0.907315	-0.396793
C28	C	-0.636904	-0.910132	-0.393942
C29	C	-0.966992	-0.936157	-0.368134
C30	C	-1.040502	-0.933342	-0.370980
C31	C	-1.040487	-1.019971	-0.284484
C32	C	-0.966982	-1.022781	-0.281635
C33	C	-0.930238	-0.980877	-0.323462
N34	N	-0.822292	-0.946344	-0.357884
N35	N	-0.855105	-0.983758	-0.320549
C36	C	-0.155476	-0.972182	-0.332161
C37	C	-0.077246	-0.975247	-0.329160
C38	C	-0.339068	-1.141533	-0.339226
C39	C	-0.339074	-1.216765	-0.339236
C40	C	-0.384124	-0.676818	-0.384137
C41	C	-0.384125	-0.606130	-0.384147
C42	C	-0.339058	-0.572527	-0.339203
C43	C	-0.293981	-0.609617	-0.294252
C44	C	-0.293977	-0.680304	-0.294246
C45	C	-0.293997	-0.324543	-0.294275
C46	C	-0.294006	-0.253851	-0.294283
C47	C	-0.384145	-0.250368	-0.384176
C48	C	-0.384140	-0.321056	-0.384170
C49	C	-0.339062	-0.358139	-0.339221
C50	C	-0.339060	-0.434788	-0.339212
C51	C	-0.339062	-0.495880	-0.339208
C52	C	-0.293962	-0.923521	-0.624586
C53	C	-0.293948	-0.923531	-0.695274
C54	C	-0.338954	-0.965059	-0.732350
C55	C	-0.383983	-1.006576	-0.698734
C56	C	-0.383999	-1.006562	-0.628048
C57	C	-0.383917	-1.006632	-0.983805
C58	C	-0.383895	-1.006644	-1.054496
C59	C	-0.293865	-0.923601	-1.051032
C60	C	-0.293882	-0.923587	-0.980345
C61	C	-0.338913	-0.965101	-0.946736
C62	C	-0.338928	-0.965088	-0.870088
C63	C	-0.338936	-0.965076	-0.808996
C64	C	-0.339052	-0.965000	-0.163347
C65	C	-0.338875	-0.965126	-0.088109
H66	H	-0.606968	-1.033170	-0.271063
H67	H	-0.420548	-1.040463	-1.084682
H68	H	-0.937082	-0.902036	-0.402191
H69	H	-1.070411	-1.054088	-0.250432
H70	H	-0.740343	-0.870905	-0.433168
H71	H	-0.606987	-0.876009	-0.427997
N72	N	-0.245330	-0.878800	-0.940364
H73	H	-0.256252	-0.830013	-0.953078
H74	H	-0.252188	-0.885146	-0.890496
N75	N	-0.432737	-0.713058	-0.432608
H76	H	-0.461289	-0.678836	-0.461085
H77	H	-0.404129	-0.743517	-0.462875
N78	N	-0.245394	-0.217606	-0.245807
H79	H	-0.273960	-0.187156	-0.215494
H80	H	-0.216846	-0.251868	-0.217377
H81	H	-0.937054	-1.059196	-0.245260
H82	H	-0.420847	-0.220166	-0.420778
N83	N	-0.432747	-0.566130	-0.432618
H84	H	-0.461303	-0.598143	-0.461083
H85	H	-0.465277	-0.535525	-0.406257
N86	N	-0.245307	-0.878811	-1.087282
H87	H	-0.252129	-0.885114	-1.137688
H88	H	-0.256269	-0.830044	-1.075332
H89	H	-0.257288	-0.889723	-0.722637
H90	H	-0.420591	-1.040427	-0.956449
H91	H	-1.070429	-0.896932	-0.407369
H92	H	-0.420841	-0.348411	-0.420765
N93	N	-0.245389	-0.364532	-0.245786
H94	H	-0.252220	-0.414412	-0.252599
H95	H	-0.195137	-0.354141	-0.254465
H96	H	-0.420631	-1.040385	-0.728927
H97	H	-0.257272	-0.710498	-0.257647
N98	N	-0.750031	-1.039140	-0.265190
H99	H	-0.715591	-1.067894	-0.236455
H100	H	-0.780576	-1.010436	-0.235028
N101	N	-0.245385	-0.573378	-0.245764
H102	H	-0.252233	-0.522969	-0.252580
H103	H	-0.256291	-0.585300	-0.197831
N104	N	-0.245411	-0.878737	-0.584600
H105	H	-0.216888	-0.852439	-0.616621
H106	H	-0.274062	-0.846284	-0.556364
H107	H	-0.420657	-1.040372	-0.600682
