data_functionalizedCrystal
_audit_creation_method	'MofGen! by Chris Wilmer'
_symmetry_space_group_name_H-M	'P1'
_symmetry_Int_Tables_number	1
_symmetry_cell_setting	triclinic
loop_
_symmetry_equiv_pos_as_xyz
  x,y,z
_cell_length_a	6.817900
_cell_length_b	19.551823
_cell_length_c	9.170709
_cell_angle_alpha	86.455093
_cell_angle_beta	112.460645
_cell_angle_gamma	101.663376
loop_
_atom_site_label
_atom_site_type_symbol
_atom_site_fract_x
_atom_site_fract_y
_atom_site_fract_z
V1	V	-4.103136	-0.066659	-0.486861
V2	V	-3.603136	0.433341	0.013139
O3	O	-4.098305	0.034044	-0.476843
O4	O	-3.598305	0.534044	0.023157
O5	O	-4.045370	-0.161835	-0.484253
O6	O	-3.545370	0.338165	0.015747
O7	O	-4.092042	-0.052101	-0.698869
O8	O	-3.592042	0.447899	-0.198869
O9	O	-4.051310	-0.076449	-0.260741
O10	O	-3.551310	0.423551	0.239259
V11	V	-4.583144	-0.056213	-0.459728
V12	V	-4.083144	0.443787	0.040272
O13	O	-4.372106	-0.089574	-0.546380
O14	O	-3.872106	0.410426	-0.046380
O15	O	-4.764371	-0.033298	-0.400208
O16	O	-4.264371	0.466702	0.099792
O17	O	-4.417703	0.038963	-0.462336
O18	O	-3.917703	0.538963	0.037664
O19	O	-4.705372	-0.156915	-0.469746
O20	O	-4.205372	0.343085	0.030254
O21	O	-4.752367	-0.046422	-0.685847
O22	O	-4.252367	0.453578	-0.185847
O23	O	-4.371031	-0.070770	-0.247720
O24	O	-3.871031	0.429230	0.252280
C25	C	-3.886885	-0.185459	-0.476758
C26	C	-3.386885	0.314541	0.023242
C27	C	-3.921190	-0.263180	-0.476039
C28	C	-3.421190	0.236820	0.023961
C29	C	-3.946419	-0.045482	-0.750521
C30	C	-3.446419	0.454518	-0.250521
C31	C	-4.018569	-0.034209	-0.923843
C32	C	-3.518569	0.465791	-0.423843
C33	C	-4.120444	-0.302766	-0.483498
C34	C	-3.620444	0.197234	0.016502
C35	C	-4.152684	-0.375793	-0.482838
C36	C	-3.652684	0.124207	0.017162
C37	C	-3.985645	-0.409230	-0.474687
C38	C	-3.485645	0.090770	0.025313
C39	C	-3.786367	-0.369635	-0.467236
C40	C	-3.286367	0.130365	0.032764
C41	C	-3.754140	-0.296610	-0.467912
C42	C	-3.254140	0.203390	0.032088
C43	C	-3.855019	-0.521814	-0.375818
C44	C	-3.355019	-0.021814	0.124182
C45	C	-3.887250	-0.594838	-0.375133
C46	C	-3.387250	-0.094838	0.124867
C47	C	-4.085042	-0.634464	-0.472609
C48	C	-3.585042	-0.134464	0.027391
C49	C	-4.250624	-0.601059	-0.570751
C50	C	-3.750624	-0.101059	-0.070751
C51	C	-4.218397	-0.528033	-0.571427
C52	C	-3.718397	-0.028033	-0.071427
C53	C	-4.020571	-0.488414	-0.473954
C54	C	-3.520571	0.011586	0.026046
C55	C	-4.319268	-0.753235	-0.479354
C56	C	-3.819268	-0.253235	0.020646
C57	C	-4.351506	-0.826263	-0.478704
C58	C	-3.851506	-0.326263	0.021296
C59	C	-3.985176	-0.820104	-0.463086
C60	C	-3.485176	-0.320104	0.036914
C61	C	-3.952951	-0.747077	-0.463753
C62	C	-3.452951	-0.247077	0.036247
C63	C	-4.120001	-0.713647	-0.471880
C64	C	-3.620001	-0.213647	0.028120
C65	C	-4.239529	0.062584	-0.469826
C66	C	-3.739529	0.562584	0.030174
C67	C	-4.184464	0.140305	-0.470556
C68	C	-3.684464	0.640305	0.029444
C69	C	-4.179995	-0.077392	-0.196060
C70	C	-3.679995	0.422608	0.303940
C71	C	-4.087083	-0.088661	-0.022736
C72	C	-3.587083	0.411339	0.477264
H73	H	-4.314946	-0.408030	-0.488911
H74	H	-3.814946	0.091970	0.011089
F75	F	-4.298228	-0.267191	-0.492129
F76	F	-3.798228	0.232809	0.007871
F77	F	-4.394611	-0.492483	-0.675881
F78	F	-3.894611	0.007517	-0.175881
F79	F	-4.461144	-0.643227	-0.674498
F80	F	-3.961144	-0.143227	-0.174498
H81	H	-4.455290	-0.726014	-0.485969
H82	H	-3.955290	-0.226014	0.014031
H83	H	-4.090554	-0.143906	-0.974808
H84	H	-3.590554	0.356094	-0.474808
F85	F	-4.563594	-0.868393	-0.486654
F86	F	-4.063594	-0.368393	0.013346
F87	F	-4.014056	0.038005	-0.986491
F88	F	-3.514056	0.538005	-0.486491
H89	H	-3.650366	-0.396865	-0.460603
H90	H	-3.150366	0.103135	0.039397
H91	H	-3.790694	-0.714846	-0.457669
H92	H	-3.290694	-0.214846	0.042331
F93	F	-3.807403	-0.855686	-0.454427
F94	F	-3.307403	-0.355686	0.045573
H95	H	-3.752426	-0.622031	-0.295210
H96	H	-3.252426	-0.122031	0.204790
H97	H	-3.693940	-0.489555	-0.296447
H98	H	-3.193940	0.010445	0.203553
F99	F	-3.542057	-0.254478	-0.459972
F100	F	-3.042057	0.245522	0.040028
