data_functionalizedCrystal
_audit_creation_method	'MofGen! by Chris Wilmer'
_symmetry_space_group_name_H-M	'P1'
_symmetry_Int_Tables_number	1
_symmetry_cell_setting	triclinic
loop_
_symmetry_equiv_pos_as_xyz
  x,y,z
_cell_length_a	17.699083
_cell_length_b	17.699083
_cell_length_c	16.176319
_cell_angle_alpha	90.005533
_cell_angle_beta	89.997690
_cell_angle_gamma	96.716985
loop_
_atom_site_label
_atom_site_type_symbol
_atom_site_fract_x
_atom_site_fract_y
_atom_site_fract_z
O1	O	1.004076	-0.095699	0.068632
O2	O	1.504076	0.404301	0.568632
O3	O	0.783698	-0.108151	0.068660
O4	O	1.283698	0.391849	0.568660
O5	O	0.900113	0.008264	0.068638
O6	O	1.400113	0.508264	0.568638
O7	O	0.887661	-0.212114	0.068654
O8	O	1.387661	0.287886	0.568654
O9	O	0.900102	0.008243	-0.068855
O10	O	1.400102	0.508243	0.431145
O11	O	0.783687	-0.108172	-0.068834
O12	O	1.283687	0.391828	0.431166
O13	O	1.004065	-0.095720	-0.068861
O14	O	1.504065	0.404280	0.431139
Cu15	Cu	0.893875	-0.101948	-0.081401
Cu16	Cu	1.393875	0.398052	0.418599
Cu17	Cu	0.893888	-0.101923	0.081200
Cu18	Cu	1.393888	0.398077	0.581200
O19	O	0.887650	-0.212135	-0.068839
O20	O	1.387650	0.287865	0.431161
C21	C	0.755495	-0.107716	-0.000084
C22	C	1.255495	0.392284	0.499916
C23	C	0.671477	-0.106377	-0.000073
C24	C	1.171477	0.393623	0.499927
C25	C	0.899662	0.036451	-0.000109
C26	C	1.399662	0.536451	0.499891
C27	C	0.898323	0.120469	-0.000109
C28	C	1.398323	0.620469	0.499891
C29	C	0.622856	-0.174711	-0.000069
C30	C	1.122856	0.325289	0.499931
C31	C	0.543913	-0.173448	-0.000079
C32	C	1.043913	0.326552	0.499921
C33	C	0.513592	-0.103852	-0.000089
C34	C	1.013592	0.396148	0.499911
C35	C	0.562219	-0.035513	-0.000096
C36	C	1.062219	0.464487	0.499904
C37	C	0.641161	-0.036776	-0.000091
C38	C	1.141161	0.463224	0.499909
C39	C	0.243856	-0.030418	-0.000117
C40	C	0.743856	0.469582	0.499883
C41	C	0.164908	-0.029160	-0.000120
C42	C	0.664908	0.470840	0.499880
C43	C	0.146608	-0.167090	-0.000105
C44	C	0.646608	0.332910	0.499895
C45	C	0.225550	-0.168353	-0.000100
C46	C	0.725550	0.331647	0.499900
C47	C	0.274170	-0.100015	-0.000112
C48	C	0.774170	0.399985	0.499888
C49	C	0.359769	-0.101384	-0.000102
C50	C	0.859769	0.398616	0.499898
C51	C	0.427995	-0.102481	-0.000093
C52	C	0.927995	0.397519	0.499907
C53	C	1.032268	-0.096156	-0.000116
C54	C	1.532268	0.403844	0.499884
C55	C	1.116286	-0.097494	-0.000121
C56	C	1.616286	0.402506	0.499879
N57	N	0.893871	-0.101965	-0.195767
N58	N	1.393871	0.398035	0.304233
C59	C	0.888102	-0.240322	-0.000091
C60	C	1.388102	0.259678	0.499909
C61	C	0.889440	-0.324340	-0.000085
C62	C	1.389440	0.175660	0.499915
C63	C	0.966656	0.169090	-0.000119
C64	C	1.466656	0.669090	0.499881
C65	C	0.965394	0.248033	-0.000111
C66	C	1.465394	0.748033	0.499889
C67	C	0.895798	0.278354	-0.000100
C68	C	1.395798	0.778354	0.499900
C69	C	0.827459	0.229727	-0.000088
C70	C	1.327459	0.729727	0.499912
C71	C	0.828722	0.150785	-0.000089
C72	C	1.328722	0.650785	0.499911
C73	C	0.822364	0.548090	-0.000080
C74	C	1.322364	1.048090	0.499920
C75	C	0.821106	0.627038	-0.000081
C76	C	1.321106	1.127038	0.499919
C77	C	0.959036	0.645338	-0.000102
C78	C	1.459036	1.145338	0.499898
C79	C	0.960299	0.566396	-0.000104
C80	C	1.460299	1.066396	0.499896
C81	C	0.891961	0.517776	-0.000087
C82	C	1.391961	1.017776	0.499913
C83	C	0.893330	0.432177	-0.000094
C84	C	1.393330	0.932177	0.499906
C85	C	0.894427	0.363951	-0.000099
C86	C	1.394427	0.863951	0.499901
C87	C	0.848080	-0.056059	-0.761154
C88	C	1.348080	0.443941	-0.261154
C89	C	0.848079	-0.056065	-0.674607
C90	C	1.348079	0.443935	-0.174607
C91	C	0.893891	-0.101917	-0.631342
C92	C	1.393891	0.398083	-0.131342
C93	C	0.939714	-0.147759	-0.674629
C94	C	1.439714	0.352241	-0.174629
C95	C	0.939719	-0.147749	-0.761174
C96	C	1.439719	0.352251	-0.261174
C97	C	0.939696	-0.147802	-0.325600
C98	C	1.439696	0.352198	0.174400
C99	C	0.939685	-0.147811	-0.239049
C100	C	1.439685	0.352189	0.260951
C101	C	0.848055	-0.056118	-0.239033
C102	C	1.348055	0.443882	0.260967
C103	C	0.848060	-0.056108	-0.325579
C104	C	1.348060	0.443892	0.174421
C105	C	0.893886	-0.101947	-0.368858
C106	C	1.393886	0.398053	0.131142
C107	C	0.893888	-0.101939	-0.462702
C108	C	1.393888	0.398061	0.037298
C109	C	0.893886	-0.101929	-0.537499
C110	C	1.393886	0.398071	-0.037499
N111	N	0.893898	-0.101900	0.195565
N112	N	1.393898	0.398100	0.695565
H113	H	0.504328	-0.229092	-0.000075
H114	H	1.004328	0.270908	0.499925
C115	C	0.655667	-0.250330	0.000072
C116	C	1.155667	0.249670	0.500072
C117	C	0.630919	-0.291628	0.070799
C118	C	1.130919	0.208372	0.570799
C119	C	0.661117	-0.361298	0.070949
C120	C	1.161117	0.138702	0.570949
H121	H	0.709643	-0.241408	0.000118
H122	H	1.209643	0.258592	0.500118
H123	H	0.638949	-0.278508	-0.047850
H124	H	1.138949	0.221492	0.452150
H125	H	0.647641	-0.263456	0.118708
H126	H	1.147641	0.236544	0.618708
H127	H	0.576947	-0.300571	0.070768
H128	H	1.076947	0.199429	0.570768
H129	H	0.644399	-0.389476	0.023027
H130	H	1.144399	0.110524	0.523027
H131	H	0.715092	-0.352368	0.070993
H132	H	1.215092	0.147632	0.570993
H133	H	0.644324	-0.389330	0.118932
H134	H	1.144324	0.110670	0.618932
H135	H	0.810772	-0.018735	-0.639372
H136	H	1.310772	0.481265	-0.139372
H137	H	1.014680	0.684934	-0.000111
H138	H	1.514680	1.184934	0.499889
C139	C	0.989463	-0.197659	-0.372432
C140	C	1.489463	0.302341	0.127568
C141	C	1.029562	-0.237833	-0.316016
C142	C	1.529562	0.262167	0.183984
C143	C	1.075407	-0.283781	-0.359130
C144	C	1.575407	0.216219	0.140870
H145	H	1.024421	-0.166681	-0.406189
H146	H	1.524421	0.333319	0.093811
H147	H	0.958399	-0.232567	-0.406184
H148	H	1.458399	0.267433	0.093816
H149	H	1.060624	-0.202929	-0.282278
H150	H	1.560624	0.297071	0.217722
H151	H	0.994623	-0.268826	-0.282257
H152	H	1.494623	0.231174	0.217743
H153	H	1.044342	-0.318688	-0.392882
H154	H	1.544342	0.181312	0.107118
H155	H	1.110360	-0.252796	-0.392886
H156	H	1.610360	0.247204	0.107114
H157	H	1.102614	-0.311049	-0.320858
H158	H	1.602614	0.188951	0.179142
C159	C	1.035839	0.533434	-0.000283
C160	C	1.535839	1.033434	0.499717
C161	C	1.040598	0.488656	-0.071031
C162	C	1.540598	0.988656	0.428969
C163	C	1.110179	0.458289	-0.071225
C164	C	1.610179	0.958289	0.428775
H165	H	1.039274	0.502971	0.047608
H166	H	1.539274	1.002971	0.547608
H167	H	1.076379	0.573676	-0.000330
H168	H	1.576379	1.073676	0.499670
H169	H	1.000069	0.448419	-0.070976
H170	H	1.500069	0.948419	0.429024
H171	H	1.037177	0.519101	-0.118933
H172	H	1.537177	1.019101	0.381067
H173	H	1.150720	0.498531	-0.071272
H174	H	1.650720	0.998531	0.428728
H175	H	1.113608	0.427830	-0.023331
H176	H	1.613608	0.927830	0.476669
H177	H	1.113421	0.427910	-0.119230
H178	H	1.613421	0.927910	0.380770
H179	H	0.977019	-0.185089	-0.639395
H180	H	1.477019	0.314911	-0.139395
H181	H	0.810752	-0.018774	-0.360801
H182	H	1.310752	0.481226	0.139199
H183	H	0.283434	0.025228	-0.000127
H184	H	0.783434	0.525228	0.499873
H185	H	0.107012	-0.222734	-0.000100
H186	H	0.607012	0.277266	0.499900
H187	H	1.023330	0.144409	-0.000133
H188	H	1.523330	0.644409	0.499867
H189	H	0.140225	0.027517	-0.000128
H190	H	0.640225	0.527517	0.499872
H191	H	0.773078	0.111198	-0.000081
H192	H	1.273078	0.611198	0.499919
H193	H	0.810744	-0.018791	-0.203785
H194	H	1.310744	0.481209	0.296215
C195	C	1.039668	0.300696	-0.000170
C196	C	1.539668	0.800696	0.499830
C197	C	1.100887	0.257246	-0.000209
C198	C	1.600887	0.757246	0.499791
C199	C	1.169322	0.305732	-0.000275
C200	C	1.669322	0.805732	0.499725
H201	H	1.042160	0.331893	0.047764
H202	H	1.542160	0.831893	0.547764
H203	H	1.042075	0.331856	-0.048136
H204	H	1.542075	0.831856	0.451864
H205	H	1.098481	0.226098	0.047752
H206	H	1.598481	0.726098	0.547752
H207	H	1.098419	0.226050	-0.048140
H208	H	1.598419	0.726050	0.451860
H209	H	1.171729	0.336893	-0.048241
H210	H	1.671729	0.836893	0.451759
H211	H	1.171807	0.336927	0.047659
H212	H	1.671807	0.836927	0.547659
H213	H	1.210867	0.276259	-0.000310
H214	H	1.710867	0.776259	0.499690
H215	H	0.977029	-0.185077	-0.796412
H216	H	1.477029	0.314923	-0.296412
H217	H	0.250232	-0.225025	-0.000089
H218	H	0.750232	0.274975	0.499911
H219	H	0.770792	0.254420	-0.000073
H220	H	1.270792	0.754420	0.499927
H221	H	0.680748	0.018868	-0.000095
H222	H	1.180748	0.518868	0.499905
C223	C	0.798315	-0.006195	-0.807975
C224	C	1.298315	0.493805	-0.307975
C225	C	0.758206	0.033965	-0.751544
C226	C	1.258206	0.533965	-0.251544
C227	C	0.712364	0.079919	-0.794642
C228	C	1.212364	0.579919	-0.294642
H229	H	0.763364	-0.037168	-0.841747
H230	H	1.263364	0.462832	-0.341747
H231	H	0.829384	0.028721	-0.841709
H232	H	1.329384	0.528721	-0.341709
H233	H	0.727140	-0.000946	-0.717823
H234	H	1.227140	0.499054	-0.217823
H235	H	0.793138	0.064953	-0.717769
H236	H	1.293138	0.564953	-0.217769
H237	H	0.743432	0.114835	-0.828377
H238	H	1.243432	0.614835	-0.328377
H239	H	0.677418	0.048939	-0.828413
H240	H	1.177418	0.548939	-0.328413
H241	H	0.685149	0.107178	-0.756360
H242	H	1.185149	0.607178	-0.256360
H243	H	0.764429	0.651721	-0.000074
H244	H	1.264429	1.151721	0.499926
H245	H	0.537526	0.021154	-0.000116
H246	H	1.037526	0.521154	0.499884
C247	C	0.748088	0.495435	-0.000118
C248	C	1.248088	0.995435	0.499882
C249	C	0.686872	0.538888	-0.000136
C250	C	1.186872	1.038888	0.499864
C251	C	0.618435	0.490405	-0.000184
C252	C	1.118435	0.990405	0.499816
H253	H	0.745603	0.464244	0.047815
H254	H	1.245603	0.964244	0.547815
H255	H	0.745670	0.464267	-0.048085
H256	H	1.245670	0.964267	0.451915
H257	H	0.689289	0.570043	0.047827
H258	H	1.189289	1.070043	0.547827
H259	H	0.689332	0.570077	-0.048065
H260	H	1.189332	1.070077	0.451935
H261	H	0.616017	0.459237	-0.048152
H262	H	1.116017	0.959237	0.451848
H263	H	0.615957	0.459217	0.047749
H264	H	1.115957	0.959217	0.547749
H265	H	0.576891	0.519881	-0.000204
H266	H	1.076891	1.019881	0.499796
H267	H	0.976994	-0.185151	-0.203825
H268	H	1.476994	0.314849	0.296175
