data_functionalizedCrystal
_audit_creation_method	'MofGen! by Chris Wilmer'
_symmetry_space_group_name_H-M	'P1'
_symmetry_Int_Tables_number	1
_symmetry_cell_setting	triclinic
loop_
_symmetry_equiv_pos_as_xyz
  x,y,z
_cell_length_a	16.625548
_cell_length_b	16.625546
_cell_length_c	11.169409
_cell_angle_alpha	89.961577
_cell_angle_beta	89.976847
_cell_angle_gamma	90.023536
loop_
_atom_site_label
_atom_site_type_symbol
_atom_site_fract_x
_atom_site_fract_y
_atom_site_fract_z
Zn1	Zn	1.232701	-0.320913	-0.678599
Zn2	Zn	1.482701	-0.070913	-0.428599
Zn3	Zn	1.732701	0.179087	-0.178599
Zn4	Zn	1.982701	0.429087	0.071401
Zn5	Zn	1.232598	-0.455775	-0.477894
Zn6	Zn	1.482598	-0.205775	-0.227894
Zn7	Zn	1.732598	0.044225	0.022106
Zn8	Zn	1.982598	0.294225	0.272106
Zn9	Zn	1.097857	-0.320963	-0.477921
Zn10	Zn	1.347857	-0.070963	-0.227921
Zn11	Zn	1.597857	0.179037	0.022079
Zn12	Zn	1.847857	0.429037	0.272079
Zn13	Zn	1.097833	-0.455710	-0.678527
Zn14	Zn	1.347833	-0.205710	-0.428527
Zn15	Zn	1.597833	0.044290	-0.178527
Zn16	Zn	1.847833	0.294290	0.071473
O17	O	1.165247	-0.388340	-0.578235
O18	O	1.415247	-0.138340	-0.328235
O19	O	1.665247	0.111660	-0.078235
O20	O	1.915247	0.361660	0.171765
O21	O	1.345520	-0.338810	-0.651993
O22	O	1.595520	-0.088810	-0.401993
O23	O	1.845520	0.161190	-0.151993
O24	O	2.095520	0.411190	0.098007
O25	O	1.214691	-0.437940	-0.309948
O26	O	1.464691	-0.187940	-0.059948
O27	O	1.714691	0.062060	0.190052
O28	O	1.964691	0.312060	0.440052
O29	O	1.115797	-0.208124	-0.504583
O30	O	1.365797	0.041876	-0.254583
O31	O	1.615797	0.291876	-0.004583
O32	O	1.865797	0.541876	0.245417
O33	O	1.345444	-0.437892	-0.504536
O34	O	1.595444	-0.187892	-0.254536
O35	O	1.845444	0.062108	-0.004536
O36	O	2.095444	0.312108	0.245464
O37	O	1.214867	-0.208087	-0.652019
O38	O	1.464867	0.041913	-0.402019
O39	O	1.714867	0.291913	-0.152019
O40	O	1.964867	0.541913	0.097981
O41	O	1.115697	-0.338894	-0.309968
O42	O	1.365697	-0.088894	-0.059968
O43	O	1.615697	0.161106	0.190032
O44	O	1.865697	0.411106	0.440032
O45	O	0.985021	-0.338831	-0.504514
O46	O	1.235021	-0.088831	-0.254514
O47	O	1.485021	0.161169	-0.004514
O48	O	1.735021	0.411169	0.245486
O49	O	1.115757	-0.437781	-0.846487
O50	O	1.365757	-0.187781	-0.596487
O51	O	1.615757	0.062219	-0.346487
O52	O	1.865757	0.312219	-0.096487
O53	O	0.985004	-0.437829	-0.651898
O54	O	1.235004	-0.187829	-0.401898
O55	O	1.485004	0.062171	-0.151898
O56	O	1.735004	0.312171	0.098102
O57	O	1.214844	-0.338746	-0.846539
O58	O	1.464844	-0.088746	-0.596539
O59	O	1.714844	0.161254	-0.346539
O60	O	1.964844	0.411254	-0.096539
O61	O	1.214668	-0.568599	-0.504467
O62	O	1.464668	-0.318599	-0.254467
O63	O	1.714668	-0.068599	-0.004467
O64	O	1.964668	0.181401	0.245533
O65	O	1.115657	-0.568551	-0.651872
O66	O	1.365657	-0.318551	-0.401872
O67	O	1.615657	-0.068551	-0.151872
O68	O	1.865657	0.181449	0.098128
C69	C	0.955756	-0.388329	-0.578202
C70	C	1.205756	-0.138329	-0.328202
C71	C	1.455756	0.111671	-0.078202
C72	C	1.705756	0.361671	0.171798
C73	C	0.866135	-0.388343	-0.578216
C74	C	1.116135	-0.138343	-0.328216
C75	C	1.366135	0.111657	-0.078216
C76	C	1.616135	0.361657	0.171784
C77	C	0.537960	-0.388349	-0.578267
C78	C	0.787960	-0.138349	-0.328267
C79	C	1.037960	0.111651	-0.078267
C80	C	1.287960	0.361651	0.171733
C81	C	0.629268	-0.388345	-0.578249
C82	C	0.879268	-0.138345	-0.328249
C83	C	1.129268	0.111655	-0.078249
C84	C	1.379268	0.361655	0.171751
C85	C	0.702045	-0.388346	-0.578241
C86	C	0.952045	-0.138346	-0.328241
C87	C	1.202045	0.111654	-0.078241
C88	C	1.452045	0.361654	0.171759
C89	C	0.793359	-0.388342	-0.578224
C90	C	1.043359	-0.138342	-0.328224
C91	C	1.293359	0.111658	-0.078224
C92	C	1.543359	0.361658	0.171776
C93	C	1.165171	-0.597831	-0.578185
C94	C	1.415171	-0.347831	-0.328185
C95	C	1.665171	-0.097831	-0.078185
C96	C	1.915171	0.152169	0.171815
C97	C	1.165212	-0.687452	-0.578204
C98	C	1.415212	-0.437452	-0.328204
C99	C	1.665212	-0.187452	-0.078204
C100	C	1.915212	0.062548	0.171796
C101	C	1.165353	-1.015628	-0.578329
C102	C	1.415353	-0.765628	-0.328329
C103	C	1.665353	-0.515628	-0.078329
C104	C	1.915353	-0.265628	0.171671
C105	C	1.165311	-0.924320	-0.578297
C106	C	1.415311	-0.674320	-0.328297
C107	C	1.665311	-0.424320	-0.078297
C108	C	1.915311	-0.174320	0.171703
C109	C	1.165282	-0.851543	-0.578266
C110	C	1.415282	-0.601543	-0.328266
C111	C	1.665282	-0.351543	-0.078266
C112	C	1.915282	-0.101543	0.171734
C113	C	1.165241	-0.760229	-0.578235
C114	C	1.415241	-0.510229	-0.328235
C115	C	1.665241	-0.260229	-0.078235
C116	C	1.915241	-0.010229	0.171765
C117	C	1.375556	-0.388353	-0.578270
C118	C	1.625556	-0.138353	-0.328270
C119	C	1.875556	0.111647	-0.078270
C120	C	2.125556	0.361647	0.171730
C121	C	1.465177	-0.388358	-0.578284
C122	C	1.715177	-0.138358	-0.328284
C123	C	1.965177	0.111642	-0.078284
C124	C	2.215177	0.361642	0.171716
C125	C	1.165309	-0.388251	-0.891278
C126	C	1.415309	-0.138251	-0.641278
C127	C	1.665309	0.111749	-0.391278
C128	C	1.915309	0.361749	-0.141278
C129	C	1.165336	-0.388213	-1.024678
C130	C	1.415336	-0.138213	-0.774678
C131	C	1.665336	0.111787	-0.524678
C132	C	1.915336	0.361787	-0.274678
C133	C	1.165346	-0.178032	-0.578312
C134	C	1.415346	0.071968	-0.328312
C135	C	1.665346	0.321968	-0.078312
C136	C	1.915346	0.571968	0.171688
C137	C	1.165388	-0.088410	-0.578345
C138	C	1.415388	0.161590	-0.328345
C139	C	1.665388	0.411590	-0.078345
C140	C	1.915388	0.661590	0.171655
C141	C	1.165232	-0.388371	-0.266411
C142	C	1.415232	-0.138371	-0.016411
C143	C	1.665232	0.111629	0.233589
C144	C	1.915232	0.361629	0.483589
C145	C	1.165362	-0.388182	-0.133011
C146	C	1.415362	-0.138182	0.116989
C147	C	1.665362	0.111818	0.366989
C148	C	1.915362	0.361818	0.616989
