data_functionalizedCrystal
_audit_creation_method	'MofGen! by Chris Wilmer'
_symmetry_space_group_name_H-M	'P1'
_symmetry_Int_Tables_number	1
_symmetry_cell_setting	triclinic
loop_
_symmetry_equiv_pos_as_xyz
  x,y,z
_cell_length_a	10.489741
_cell_length_b	9.016244
_cell_length_c	10.540539
_cell_angle_alpha	90.000067
_cell_angle_beta	95.467667
_cell_angle_gamma	89.995333
loop_
_atom_site_label
_atom_site_type_symbol
_atom_site_fract_x
_atom_site_fract_y
_atom_site_fract_z
O1	O	1.694038	-0.123241	-0.179097
O2	O	1.322840	-0.123263	-0.195909
O3	O	1.516908	-0.123250	-0.002798
O4	O	1.499970	-0.123254	-0.372209
O5	O	1.516879	0.123431	-0.002802
O6	O	1.322812	0.123417	-0.195913
O7	O	1.694009	0.123440	-0.179102
Cu8	Cu	1.508408	0.145953	-0.187508
Cu9	Cu	1.508442	-0.145776	-0.187503
O10	O	1.499942	0.123426	-0.372213
C11	C	1.275294	0.000074	-0.194641
C12	C	1.133665	0.000065	-0.190843
C13	C	1.515623	0.000088	0.044503
C14	C	1.511823	0.000080	0.185452
N15	N	1.508393	0.351139	-0.187511
C16	C	1.065540	0.000081	-0.067971
C17	C	0.973420	-0.121543	-0.126012
C18	C	0.973426	0.121665	-0.126046
C19	C	1.043411	-0.121659	-0.248934
C20	C	1.043426	0.121658	-0.248951
C21	C	0.951334	0.000004	-0.307081
C22	C	1.741555	0.000099	-0.180369
C23	C	1.883184	0.000098	-0.184168
N24	N	1.508466	-0.350962	-0.187490
C25	C	1.404261	0.586164	-0.290466
C26	C	1.404492	0.414273	-0.290852
C27	C	1.641758	0.413485	-0.217660
C28	C	1.641189	0.585430	-0.218389
C29	C	1.480485	0.585682	-0.054069
C30	C	1.477425	0.413728	-0.054933
C31	C	1.501226	0.000085	-0.419514
C32	C	1.505026	0.000084	-0.560463
C33	C	1.366206	-0.000483	0.368896
C34	C	1.370058	0.000073	0.222277
C35	C	1.580030	0.140951	0.247099
C36	C	1.575192	0.141069	0.393644
C37	C	1.578108	-0.139453	0.394167
C38	C	1.579414	-0.141315	0.247185
H39	H	1.115242	-0.000070	0.033036
H40	H	1.074245	-0.224599	-0.300881
F41	F	1.293100	0.130450	0.408814
F42	F	1.356037	0.642421	-0.016587
F43	F	1.745574	0.639794	-0.124068
F44	F	1.518144	-0.279012	0.435404
F45	F	1.349188	0.360471	-0.025061
F46	F	1.674463	0.357182	-0.343453
H47	H	1.305399	0.372123	-0.272709
H48	H	1.665661	0.625519	-0.315730
H49	H	1.315988	0.101217	0.180526
F50	F	1.716107	0.147810	0.217867
H51	H	1.677147	0.147466	0.441600
H52	H	1.721195	0.372586	-0.144706
F53	F	1.514694	-0.277549	0.193195
H54	H	0.901898	-0.000063	-0.408195
F55	F	1.083986	0.256064	-0.316852
F56	F	1.293020	-0.132527	0.406286
H57	H	1.524760	0.246367	0.421848
F58	F	1.570063	0.357578	0.050043
H59	H	1.304858	0.627552	-0.272601
F60	F	1.518072	0.277968	0.191428
H61	H	0.942443	0.224489	-0.074036
F62	F	1.714510	-0.152435	0.215504
H63	H	1.680504	-0.140394	0.441380
H64	H	0.942424	-0.224368	-0.074021
H65	H	1.422014	0.629357	-0.388892
F66	F	1.427959	0.360484	-0.420245
F67	F	1.579791	0.638824	0.046113
F68	F	1.299907	-0.131918	0.166599
