data_functionalizedCrystal
_audit_creation_method	'MofGen! by Chris Wilmer'
_symmetry_space_group_name_H-M	'P1'
_symmetry_Int_Tables_number	1
_symmetry_cell_setting	triclinic
loop_
_symmetry_equiv_pos_as_xyz
  x,y,z
_cell_length_a	13.032831
_cell_length_b	25.639240
_cell_length_c	13.032268
_cell_angle_alpha	97.139101
_cell_angle_beta	89.113023
_cell_angle_gamma	97.153060
loop_
_atom_site_label
_atom_site_type_symbol
_atom_site_fract_x
_atom_site_fract_y
_atom_site_fract_z
Zn1	Zn	1.498183	0.353070	0.780709
Zn2	Zn	1.519860	0.430963	0.608701
Zn3	Zn	1.348060	0.331230	0.586958
Zn4	Zn	1.326110	0.428136	0.758828
O5	O	1.423053	0.385850	0.683799
O6	O	1.644970	0.373726	0.776149
O7	O	1.515328	0.409776	0.461903
O8	O	1.368088	0.260973	0.612717
O9	O	1.660896	0.430953	0.649776
O10	O	1.478383	0.277018	0.755065
O11	O	1.389107	0.336503	0.445928
O12	O	1.201236	0.333762	0.591500
O13	O	1.330678	0.426136	0.905644
O14	O	1.185110	0.404959	0.717771
O15	O	1.457099	0.370985	0.921720
O16	O	1.494044	0.503742	0.628558
O17	O	1.351698	0.501666	0.738855
C18	C	1.155858	0.366684	0.649902
C19	C	1.041548	0.358499	0.635425
C20	C	1.422867	0.521675	0.683718
C21	C	1.422876	0.579791	0.683729
C22	C	0.982645	0.390122	0.691354
C23	C	0.864499	0.381663	0.676393
C24	C	1.497250	0.941249	0.626451
C25	C	1.497281	0.995856	0.626465
O26	O	1.560383	1.025012	0.577716
N27	N	1.423133	1.022096	0.683832
C28	C	1.348957	0.993728	0.741198
O29	O	1.285892	1.021061	0.789996
C30	C	1.348932	0.939122	0.741190
C31	C	1.423078	0.912884	0.683810
C32	C	1.571391	0.915010	0.569077
C33	C	1.571359	0.860406	0.569062
C34	C	1.497187	0.832042	0.626421
C35	C	1.423046	0.858280	0.683795
C36	C	1.274762	0.910755	0.798561
C37	C	1.274744	0.856146	0.798548
C38	C	1.348890	0.829908	0.741168
C39	C	1.348843	0.775312	0.741139
N40	N	1.422990	0.749071	0.683771
C41	C	1.497162	0.777436	0.626412
C42	C	1.349016	1.108403	0.741214
C43	C	1.349035	1.163007	0.741217
C44	C	1.497360	1.165131	0.626485
C45	C	1.497336	1.110526	0.626476
C46	C	1.423163	1.082162	0.683846
C47	C	1.497089	0.662765	0.626384
C48	C	1.497049	0.608156	0.626370
C49	C	1.348728	0.606037	0.741106
C50	C	1.348765	0.660640	0.741116
C51	C	1.422954	0.689003	0.683752
O52	O	1.285775	0.746122	0.789866
O53	O	1.560225	0.750097	0.577633
C54	C	1.691291	0.405091	0.717829
C55	C	1.805599	0.413290	0.732330
C56	C	1.389022	0.400681	0.952041
C57	C	1.374521	0.407001	1.066350
C58	C	1.423229	1.249493	0.683884
C59	C	1.423212	1.191377	0.683862
C60	C	1.457011	0.371043	0.416608
C61	C	1.471712	0.364590	0.302325
C62	C	1.430606	0.382531	1.125266
C63	C	1.415619	0.389063	1.243410
H64	H	1.019683	0.423457	0.750317
F65	F	0.993141	0.314922	0.558365
H66	H	1.288392	0.682005	0.787843
H67	H	1.315402	0.432783	1.103374
F68	F	1.270109	1.190924	0.802275
H69	H	1.288608	1.085311	0.787927
H70	H	1.557759	1.188236	0.579784
H71	H	1.557427	0.586794	0.579641
F72	F	0.816098	0.338084	0.599329
F73	F	1.576050	0.692943	0.565331
H74	H	1.631737	0.839047	0.522342
H75	H	1.631796	0.938099	0.522369
H76	H	0.842630	0.446627	0.791300
H77	H	1.356496	0.414846	1.280430
H78	H	1.214380	0.932109	0.845280
F79	F	1.269795	0.575839	0.802152
H80	H	1.557712	1.089166	0.579753
F81	F	1.195799	0.825963	0.859612
H82	H	1.489714	0.356744	1.088241
H83	H	1.530823	0.338799	1.265306
