data_functionalizedCrystal
_audit_creation_method	'MofGen! by Chris Wilmer'
_symmetry_space_group_name_H-M	'P1'
_symmetry_Int_Tables_number	1
_symmetry_cell_setting	triclinic
loop_
_symmetry_equiv_pos_as_xyz
  x,y,z
_cell_length_a	10.654550
_cell_length_b	14.853567
_cell_length_c	9.730223
_cell_angle_alpha	90.002458
_cell_angle_beta	89.996251
_cell_angle_gamma	84.059917
loop_
_atom_site_label
_atom_site_type_symbol
_atom_site_fract_x
_atom_site_fract_y
_atom_site_fract_z
O1	O	1.666519	0.126622	-0.114390
O2	O	1.300915	0.138686	-0.114367
O3	O	1.493482	0.001477	-0.114383
O4	O	1.473951	0.263832	-0.114374
O5	O	1.493480	0.001480	0.114197
O6	O	1.300912	0.138690	0.114213
O7	O	1.666516	0.126625	0.114190
Zn8	Zn	1.483714	0.132658	0.150493
Zn9	Zn	1.483717	0.132654	-0.150671
O10	O	1.473949	0.263835	0.114206
C11	C	1.254125	0.137802	-0.000074
C12	C	1.114709	0.135152	-0.000066
C13	C	1.034384	0.215939	-0.000083
C14	C	0.903389	0.213443	-0.000107
C15	C	0.933057	0.049367	-0.000102
C16	C	1.064050	0.051863	-0.000068
C17	C	1.085044	0.299227	-0.000080
C18	C	1.004717	0.380021	-0.000099
C19	C	0.873722	0.377525	-0.000123
C20	C	0.823054	0.294236	-0.000128
C21	C	1.492596	-0.032115	-0.000097
C22	C	1.489944	-0.132213	-0.000109
C23	C	1.364344	-0.545419	-0.000075
C24	C	1.593119	-0.565475	-0.000090
C25	C	1.595613	-0.471428	-0.000098
C26	C	1.482470	-0.414372	-0.000093
C27	C	1.366834	-0.451363	-0.000079
C28	C	1.711247	-0.434430	-0.000097
C29	C	1.713745	-0.340378	-0.000104
C30	C	1.600601	-0.283320	-0.000109
C31	C	1.484961	-0.320316	-0.000097
C32	C	1.371818	-0.263260	-0.000091
C33	C	1.256176	-0.300254	-0.000089
C34	C	1.253691	-0.394305	-0.000084
C35	C	1.603087	-0.189269	-0.000114
C36	C	1.374308	-0.169204	-0.000096
C37	C	1.713306	0.127510	-0.000106
C38	C	1.852722	0.130160	-0.000123
C39	C	1.474835	0.297427	-0.000083
C40	C	1.477487	0.397525	-0.000080
N41	N	1.483721	0.132661	0.356030
N42	N	1.483720	0.132644	-0.356207
C43	C	1.569012	0.071925	0.427949
C44	C	1.569009	0.071914	0.571832
C45	C	1.398420	0.193382	0.571864
C46	C	1.398418	0.193388	0.427984
C47	C	1.654315	0.011198	0.355994
C48	C	1.739614	-0.049542	0.427913
C49	C	1.739610	-0.049553	0.571796
C50	C	1.654309	0.011176	0.643760
H51	H	0.891792	-0.018443	-0.000129
C52	C	0.627357	0.335316	-0.117669
C53	C	0.679062	0.291488	-0.000155
H54	H	0.538466	0.333613	-0.117692
H55	H	0.646026	0.396473	-0.117648
H56	H	0.662500	0.305574	-0.197365
H57	H	0.643925	0.321234	0.079541
H58	H	0.660382	0.230319	-0.000163
C59	C	1.909507	-0.328533	-0.117633
C60	C	1.840854	-0.299717	-0.000123
H61	H	1.987975	-0.303424	-0.117650
H62	H	1.924211	-0.392704	-0.117614
H63	H	1.862900	-0.308999	-0.197331
H64	H	1.887457	-0.319257	0.079576
H65	H	1.826154	-0.235532	-0.000130
C66	C	1.815347	-0.103510	0.792339
C67	C	1.833360	-0.116320	0.650854
H68	H	1.873224	-0.144733	0.841140
H69	H	1.829084	-0.043257	0.815925
H70	H	1.731518	-0.113868	0.815905
H71	H	1.917186	-0.105956	0.627285
H72	H	1.819633	-0.176587	0.627258
C73	C	1.227561	0.211796	0.733703
C74	C	1.304671	0.260137	0.650969
H75	H	1.169692	0.253011	0.782544
H76	H	1.182326	0.173979	0.677572
H77	H	1.278374	0.175624	0.797119
H78	H	1.253859	0.296304	0.587546
H79	H	1.349910	0.297969	0.707105
C80	C	1.561420	0.077291	0.849891
C81	C	1.654297	0.011161	0.801920
H82	H	1.561413	0.077278	0.947530
H83	H	1.578710	0.135022	0.817361
H84	H	1.481146	0.064411	0.817331
H85	H	1.734574	0.024045	0.834472
H86	H	1.637016	-0.046583	0.834464
C87	C	1.772671	0.030191	0.149891
C88	C	1.654324	0.011204	0.197837
H89	H	1.772678	0.030191	0.052252
H90	H	1.789929	0.087924	0.182448
H91	H	1.835666	-0.014676	0.182440
H92	H	1.591330	0.056075	0.165296
H93	H	1.637052	-0.046537	0.165266
C94	C	1.080228	-0.110570	-0.000099
C95	C	1.152353	-0.036938	-0.000067
H96	H	1.134746	-0.165392	-0.000105
H97	H	1.028504	-0.108136	0.079596
H98	H	1.028534	-0.108125	-0.079826
H99	H	1.204040	-0.039379	0.079665
H100	H	1.204098	-0.039373	-0.079771
H101	H	1.685234	-0.611936	-0.000083
C102	C	1.264638	0.347466	-0.117551
C103	C	1.229033	0.301976	-0.000052
H104	H	1.353530	0.349166	-0.117529
H105	H	1.240506	0.316592	-0.197248
H106	H	1.224038	0.407498	-0.117549
H107	H	1.269626	0.241941	-0.000059
H108	H	1.253178	0.332848	0.079666
H109	H	1.697240	-0.159152	-0.000107
C110	C	1.227546	0.211812	0.266201
C111	C	1.304664	0.260150	0.348924
H112	H	1.169658	0.253029	0.217402
H113	H	1.278342	0.175654	0.202763
H114	H	1.182321	0.173982	0.322346
H115	H	1.349896	0.297976	0.292778
H116	H	1.253862	0.296325	0.412370
C117	C	1.766607	-0.172076	0.266140
C118	C	1.833343	-0.116332	0.348846
H119	H	1.824467	-0.213317	0.217334
H120	H	1.714264	-0.204821	0.322286
H121	H	1.715844	-0.135893	0.202694
H122	H	1.884099	-0.152515	0.412299
H123	H	1.885708	-0.083585	0.292695
C124	C	1.276536	-0.016124	-0.000099
C125	C	1.249937	-0.106489	-0.000096
H126	H	1.199753	0.022591	-0.000108
H127	H	1.323928	-0.004834	0.079608
H128	H	1.323950	-0.004843	-0.079815
H129	H	1.202530	-0.117772	0.079626
H130	H	1.202524	-0.117784	-0.079811
H131	H	1.270191	-0.575545	-0.000079
H132	H	1.803361	-0.480892	-0.000089
C133	C	1.057918	-0.406149	0.117430
C134	C	1.126582	-0.434966	-0.000073
H135	H	0.979445	-0.431249	0.117431
H136	H	1.104508	-0.425682	0.197124
H137	H	1.043219	-0.341969	0.117409
H138	H	1.141290	-0.499146	-0.000047
H139	H	1.079982	-0.415438	-0.079788
H140	H	1.045981	0.447831	-0.000083
H141	H	1.164056	-0.253787	-0.000075
H142	H	0.808324	0.443311	-0.000124
