data_functionalizedCrystal
_audit_creation_method	'MofGen! by Chris Wilmer'
_symmetry_space_group_name_H-M	'P1'
_symmetry_Int_Tables_number	1
_symmetry_cell_setting	triclinic
loop_
_symmetry_equiv_pos_as_xyz
  x,y,z
_cell_length_a	14.971486
_cell_length_b	14.519709
_cell_length_c	14.048226
_cell_angle_alpha	89.992623
_cell_angle_beta	89.998499
_cell_angle_gamma	83.647137
loop_
_atom_site_label
_atom_site_type_symbol
_atom_site_fract_x
_atom_site_fract_y
_atom_site_fract_z
O1	O	1.187015	0.120184	-0.079053
O2	O	0.926623	0.134576	-0.079079
O3	O	1.063722	-0.006863	-0.079057
O4	O	1.049915	0.261622	-0.079076
O5	O	1.063706	-0.006871	0.079264
O6	O	0.926606	0.134568	0.079242
O7	O	1.186998	0.120175	0.079268
Zn8	Zn	1.056799	0.127370	0.104392
Zn9	Zn	1.056821	0.127381	-0.104203
O10	O	1.049898	0.261614	0.079246
C11	C	0.893289	0.133928	0.000078
C12	C	0.793991	0.131999	0.000068
C13	C	1.063071	-0.041226	0.000104
C14	C	1.061142	-0.143606	0.000104
C15	C	0.736812	0.215091	0.000064
C16	C	0.643512	0.213273	0.000078
C17	C	0.607392	0.128363	0.000090
C18	C	0.664578	0.045265	0.000097
C19	C	0.757876	0.047084	0.000090
C20	C	0.470113	0.041480	0.000111
C21	C	0.376808	0.039661	0.000116
C22	C	0.355749	0.207669	0.000099
C23	C	0.449047	0.209488	0.000092
C24	C	0.506227	0.126390	0.000097
C25	C	1.054043	-0.518498	0.000079
C26	C	1.056015	-0.414191	0.000086
C27	C	1.057593	-0.331055	0.000092
C28	C	1.059564	-0.226742	0.000098
C29	C	1.220331	0.120823	0.000109
C30	C	1.319630	0.122752	0.000112
C31	C	1.050550	0.295978	0.000083
C32	C	1.052478	0.398358	0.000076
N33	N	1.056791	0.127362	0.246753
N34	N	1.056837	0.127382	-0.246564
C35	C	1.117518	0.064759	0.296581
C36	C	1.117524	0.064758	0.396238
C37	C	1.056807	0.127366	0.446066
C38	C	0.996073	0.189972	0.396231
C39	C	0.996064	0.189968	0.296575
C40	C	0.996099	0.189979	0.603945
C41	C	0.996110	0.189985	0.703608
C42	C	1.117560	0.064770	0.703608
C43	C	1.117550	0.064765	0.603952
C44	C	1.056817	0.127373	0.554124
H45	H	0.596960	0.280934	0.000074
H46	H	0.347403	-0.029481	0.000127
H47	H	1.166965	0.013780	0.256017
C48	C	1.184338	-0.004101	0.549137
C49	C	1.182679	-0.109124	0.562849
C50	C	1.249465	-0.177992	0.508032
C51	C	1.317911	-0.141837	0.439502
C52	C	1.319574	-0.036808	0.425786
C53	C	1.252787	0.032060	0.480604
H54	H	1.132008	-0.135894	0.613582
H55	H	1.248234	-0.255742	0.518185
H56	H	1.367351	-0.192817	0.398923
H57	H	1.370244	-0.010039	0.375054
H58	H	1.254018	0.109809	0.470450
C59	C	0.488778	0.302891	0.000079
C60	C	0.467266	0.371936	0.082289
C61	C	0.506994	0.465341	0.082281
C62	C	0.568234	0.489700	0.000063
C63	C	0.589749	0.420653	-0.082153
C64	C	0.550021	0.327248	-0.082145
H65	H	0.421930	0.353905	0.143158
H66	H	0.491067	0.516454	0.143143
H67	H	0.597643	0.558844	0.000057
H68	H	0.635085	0.438684	-0.143022
H69	H	0.565947	0.276136	-0.143007
C70	C	0.292853	0.299078	0.000102
C71	C	0.297001	0.368628	0.082305
C72	C	0.234100	0.460032	0.082304
C73	C	0.167051	0.481886	0.000101
C74	C	0.162900	0.412334	-0.082107
C75	C	0.225801	0.320930	-0.082107
H76	H	0.346637	0.352452	0.143161
H77	H	0.237173	0.511519	0.143161
H78	H	0.120488	0.549548	0.000101
H79	H	0.113264	0.428509	-0.142964
H80	H	0.222728	0.269443	-0.142963
H81	H	1.166972	0.013782	0.436808
C82	C	0.929264	0.258834	0.241762
C83	C	0.862507	0.327735	0.296567
C84	C	0.795702	0.396600	0.241755
C85	C	0.795654	0.396566	0.132137
C86	C	0.862414	0.327663	0.077326
C87	C	0.929219	0.258797	0.132138
H88	H	0.862540	0.327763	0.377718
H89	H	0.746282	0.447607	0.282330
H90	H	0.746201	0.447544	0.091562
H91	H	0.862381	0.327635	-0.003825
H92	H	0.978639	0.207791	0.091562
C93	C	0.533014	-0.049927	0.000115
C94	C	0.528882	-0.119487	0.082330
C95	C	0.591784	-0.210890	0.082329
C96	C	0.658818	-0.232734	0.000113
C97	C	0.662953	-0.163172	-0.082108
C98	C	0.600051	-0.071769	-0.082107
H99	H	0.479257	-0.103319	0.143196
H100	H	0.588723	-0.262384	0.143194
H101	H	0.705382	-0.300396	0.000112
H102	H	0.712578	-0.179340	-0.142975
H103	H	0.603112	-0.020275	-0.142973
C104	C	0.820778	-0.044318	0.000092
C105	C	0.816641	-0.113872	0.082312
C106	C	0.879541	-0.205276	0.082320
C107	C	0.946579	-0.227126	0.000109
C108	C	0.950719	-0.157570	-0.082117
C109	C	0.887818	-0.066166	-0.082125
H110	H	0.767013	-0.097699	0.143175
H111	H	0.876476	-0.256766	0.143189
H112	H	0.993142	-0.294789	0.000115
H113	H	1.000347	-0.173743	-0.142980
H114	H	0.890883	-0.014676	-0.142994
C115	C	1.184362	-0.004102	0.758417
C116	C	1.149314	-0.074695	0.826943
C117	C	1.216117	-0.143560	0.881758
C118	C	1.317969	-0.141833	0.868048
C119	C	1.353022	-0.071237	0.799520
C120	C	1.286219	-0.002372	0.744704
H121	H	1.073913	-0.075977	0.837094
H122	H	1.190168	-0.195820	0.932487
H123	H	1.367420	-0.192811	0.908625
H124	H	1.428423	-0.069955	0.789368
H125	H	1.312168	0.049888	0.693975
C126	C	0.929313	0.258849	0.758416
C127	C	0.827461	0.257112	0.744733
C128	C	0.760662	0.325977	0.799539
C129	C	0.795716	0.396580	0.868028
C130	C	0.897573	0.398320	0.881714
C131	C	0.964372	0.329455	0.826908
H132	H	0.801507	0.204845	0.694030
H133	H	0.685260	0.324689	0.789407
H134	H	0.746267	0.447558	0.908598
H135	H	0.923527	0.450587	0.932417
H136	H	1.039774	0.330743	0.837040
H137	H	0.766213	0.284234	0.000054
H138	H	0.635162	-0.023871	0.000121
H139	H	0.946641	0.240958	0.563379
H140	H	0.946632	0.240946	0.436807
