data_functionalizedCrystal
_audit_creation_method	'MofGen! by Chris Wilmer'
_symmetry_space_group_name_H-M	'P1'
_symmetry_Int_Tables_number	1
_symmetry_cell_setting	triclinic
loop_
_symmetry_equiv_pos_as_xyz
  x,y,z
_cell_length_a	14.560438
_cell_length_b	19.902436
_cell_length_c	14.560438
_cell_angle_alpha	90.002252
_cell_angle_beta	59.996693
_cell_angle_gamma	59.998271
loop_
_atom_site_label
_atom_site_type_symbol
_atom_site_fract_x
_atom_site_fract_y
_atom_site_fract_z
Zr1	Zr	1.005212	0.647324	-0.120519
O2	O	1.196839	0.540030	-0.267192
O3	O	0.813597	0.680214	-0.075547
O4	O	1.005209	0.680212	-0.267164
O5	O	1.005226	0.540035	0.075566
O6	O	1.005191	0.790791	-0.267152
O7	O	1.005228	0.540032	-0.075575
O8	O	0.662433	0.790795	0.075616
O9	O	1.347983	0.540031	-0.267201
O10	O	0.892393	0.776766	-0.056368
O11	O	0.892404	0.694245	0.056417
O12	O	1.118002	0.694242	-0.169187
O13	O	1.118013	0.611720	-0.056401
Zr14	Zr	1.005179	0.823689	0.120553
Zr15	Zr	1.005183	0.823684	-0.120499
Zr16	Zr	1.005207	0.647328	0.120533
Zr17	Zr	1.246269	0.647325	-0.120534
Zr18	Zr	0.764122	0.823687	0.120568
O19	O	1.196793	0.790798	0.075581
O20	O	1.196799	0.790792	-0.267164
O21	O	1.196834	0.540036	0.075553
O22	O	0.813551	0.930983	0.267226
O23	O	0.813557	0.930976	-0.075519
O24	O	0.813592	0.680221	0.267198
O25	O	1.005165	0.930977	-0.075532
O26	O	1.005182	0.790801	0.267198
O27	O	1.005200	0.680222	0.267186
O28	O	1.005163	0.930980	0.075609
O29	O	1.347961	0.680214	-0.267186
O30	O	0.662430	0.790799	0.267220
O31	O	0.662407	0.930982	0.267235
O32	O	0.662411	0.930978	0.075631
O33	O	1.347980	0.540034	-0.075597
O34	O	1.347957	0.680217	-0.075582
O35	O	0.892389	0.776771	0.169221
O36	O	0.892377	0.859292	0.056435
O37	O	1.117987	0.776768	-0.056383
O38	O	1.117998	0.694246	0.056403
C39	C	0.703670	0.735505	0.000036
C40	C	0.601335	0.735504	0.000043
C41	C	0.636560	0.674582	-0.083246
C42	C	0.540420	0.674586	-0.083275
C43	C	0.373831	0.796436	0.083285
C44	C	0.469970	0.796435	0.083308
C45	C	1.005231	0.514906	-0.000007
C46	C	1.005243	0.440037	-0.000016
C47	C	1.005179	0.168035	0.000028
C48	C	1.147498	0.144467	-0.070799
C49	C	1.147587	0.222305	-0.071192
C50	C	1.005212	0.302978	0.000006
C51	C	0.934535	0.300565	-0.051877
C52	C	0.935445	0.222337	-0.052400
C53	C	0.932519	0.223328	0.122770
C54	C	0.935193	0.300249	0.122581
C55	C	1.005222	0.379244	-0.000005
C56	C	1.005164	0.091769	0.000035
C57	C	1.306721	0.735508	-0.000002
C58	C	1.409056	0.735508	-0.000009
C59	C	1.005200	0.735501	-0.301502
C60	C	1.005202	0.735499	-0.403835
C61	C	1.005160	0.956106	0.000042
C62	C	1.005148	1.030976	0.000050
C63	C	1.122966	0.692423	-0.510802
C64	C	1.122959	0.692432	-0.606950
C65	C	0.887416	0.778595	-0.489153
C66	C	0.887423	0.778590	-0.393007
C67	C	1.005190	0.735512	0.301537
C68	C	1.005189	0.735514	0.403869
C69	C	0.703634	0.956105	0.000061
C70	C	0.601287	1.030974	0.000076
C71	C	0.703665	0.735510	0.301556
C72	C	0.601328	0.735511	0.403895
C73	C	0.703629	0.956110	0.301580
C74	C	0.601280	1.030981	0.403928
C75	C	1.306761	0.514902	-0.301546
C76	C	1.409110	0.440031	-0.403894
C77	C	1.306756	0.514908	-0.000027
C78	C	1.409103	0.440039	-0.000042
C79	C	1.306726	0.735502	-0.301522
C80	C	1.409063	0.735501	-0.403861
C81	C	0.553232	1.023055	-0.058810
C82	C	0.457079	1.093396	-0.058818
C83	C	0.408977	1.171654	0.000066
C84	C	0.457042	1.179571	0.058953
C85	C	0.553199	1.109231	0.058955
C86	C	0.553210	1.109224	0.393119
C87	C	0.457056	1.179580	0.489276
C88	C	0.408967	1.171691	0.596242
C89	C	0.457047	1.093440	0.607049
C90	C	0.553206	1.023086	0.510893
C91	C	1.457192	0.361788	-0.393085
C92	C	1.553376	0.291432	-0.489242
C93	C	1.601470	0.299321	-0.596208
C94	C	1.553384	0.377572	-0.607015
C95	C	1.457209	0.447927	-0.510859
C96	C	1.457169	0.447957	0.058834
C97	C	1.553348	0.377616	0.058816
C98	C	1.601453	0.299358	-0.000072
C99	C	1.553384	0.291441	-0.058955
C100	C	1.457213	0.361781	-0.058943
C101	C	0.553240	0.778589	0.510857
C102	C	0.457093	0.778581	0.607012
C103	C	0.457126	0.692417	0.489230
C104	C	0.553278	0.692420	0.393077
H105	H	0.743520	0.624963	-0.151040
H106	H	0.831028	0.241685	-0.004148
Cl107	Cl	1.613854	0.387476	-0.741495
Cl108	Cl	0.396551	1.277959	0.132980
Cl109	Cl	1.613801	0.193070	-0.475630
Cl110	Cl	0.613688	0.924682	-0.132851
H111	H	0.266865	0.846044	0.151077
Cl112	Cl	1.271012	0.638278	-0.741422
Cl113	Cl	1.722376	0.210867	-0.717081
H114	H	1.418081	0.355323	-0.106883
H115	H	0.417957	1.086934	-0.106771
H116	H	0.592350	1.115663	0.306031
H117	H	1.592470	0.384078	0.106769
Cl118	Cl	0.288089	1.260075	0.000056
Cl119	Cl	0.425683	0.873032	0.188020
H120	H	0.417879	1.087029	0.694153
H121	H	0.791525	0.813677	-0.480350
Cl122	Cl	0.584712	0.597995	-0.187987
Cl123	Cl	0.772909	0.388279	0.023936
Cl124	Cl	1.396765	0.546287	-0.524467
H125	H	0.592332	0.959379	0.519710
H126	H	1.203321	0.221027	-0.036662
Cl127	Cl	1.233750	0.083993	-0.017352
Cl128	Cl	0.739365	0.832745	-0.258524
H129	H	1.418009	0.511673	0.106795
H130	H	0.417946	0.813658	0.694102
H131	H	0.330668	1.228985	0.674530
H132	H	1.592566	0.227714	-0.106899
Cl133	Cl	1.010319	0.302954	-0.190000
H134	H	0.417920	1.243289	0.480457
Cl135	Cl	1.396750	0.351849	-0.258625
Cl136	Cl	1.233322	0.082848	-0.209751
H137	H	1.679762	0.242090	-0.000073
Cl138	Cl	0.613591	1.119200	0.132999
Cl139	Cl	0.613646	0.832758	0.524460
H140	H	0.417990	0.657335	0.480436
H141	H	0.986726	0.299873	0.161341
Cl142	Cl	1.233741	0.219560	-0.210982
Cl143	Cl	1.013005	0.165908	-0.191850
Cl144	Cl	0.613743	0.638256	0.258600
H145	H	0.978059	0.187017	0.166111
H146	H	0.827680	0.243246	0.175792
Cl147	Cl	0.774804	0.388949	0.210908
H148	H	1.218869	0.657335	-0.519625
