data_functionalizedCrystal
_audit_creation_method	'MofGen! by Chris Wilmer'
_symmetry_space_group_name_H-M	'P1'
_symmetry_Int_Tables_number	1
_symmetry_cell_setting	triclinic
loop_
_symmetry_equiv_pos_as_xyz
  x,y,z
_cell_length_a	10.654543
_cell_length_b	15.944551
_cell_length_c	14.421503
_cell_angle_alpha	90.001526
_cell_angle_beta	90.002886
_cell_angle_gamma	96.009544
loop_
_atom_site_label
_atom_site_type_symbol
_atom_site_fract_x
_atom_site_fract_y
_atom_site_fract_z
O1	O	-1.666327	0.117940	-0.077014
O2	O	-1.300702	0.129186	-0.077038
O3	O	-1.493499	0.001346	-0.077017
O4	O	-1.473530	0.245781	-0.077035
O5	O	-1.493468	0.001361	0.077206
O6	O	-1.300671	0.129201	0.077185
O7	O	-1.666296	0.117955	0.077209
Cu8	Cu	-1.483481	0.123579	0.091279
Cu9	Cu	-1.483517	0.123562	-0.091108
O10	O	-1.473499	0.245795	0.077188
C11	C	-1.253899	0.128369	0.000071
C12	C	-1.114487	0.125902	0.000062
C13	C	-1.034028	0.201172	0.000057
C14	C	-0.903037	0.198849	0.000071
C15	C	-0.932978	0.045980	0.000090
C16	C	-1.063966	0.048304	0.000083
C17	C	-1.492655	-0.029945	0.000095
C18	C	-1.490169	-0.123206	0.000095
C19	C	-1.364724	-0.338786	0.000074
C20	C	-1.422962	-0.399460	0.076119
C21	C	-1.485673	-0.293957	0.000088
C22	C	-1.423020	-0.399458	-0.075933
C23	C	-1.481321	-0.458895	0.000076
C24	C	-1.543944	-0.353403	0.076196
C25	C	-1.543986	-0.353394	-0.075925
C26	C	-1.602311	-0.414050	0.000139
C27	C	-1.488177	-0.198941	0.000095
C28	C	-1.478827	-0.553911	0.000076
C29	C	-0.713098	0.118776	0.000094
C30	C	-0.852508	0.121255	0.000083
C31	C	-1.474344	0.277087	0.000074
C32	C	-1.476829	0.370347	0.000068
N33	N	-1.483465	0.123591	0.219560
N34	N	-1.483544	0.123544	-0.219389
C35	C	-1.395051	0.183175	0.531004
C36	C	-1.369640	0.107360	0.469179
C37	C	-1.483517	0.123558	0.591449
C38	C	-1.508842	0.199388	0.469180
C39	C	-1.483488	0.123578	0.408728
C40	C	-1.458049	0.047704	0.530986
C41	C	-1.597301	0.139781	0.530992
C42	C	-1.571938	0.063911	0.469195
C43	C	-1.483530	0.123547	0.696710
C44	C	-1.483475	0.123580	0.303469
H45	H	-0.891827	-0.017198	0.000113
H46	H	-1.595044	-0.333111	0.140557
Cl47	Cl	-1.424786	-0.051316	0.572719
Cl48	Cl	-1.687431	-0.013996	0.427555
Cl49	Cl	-1.097536	0.298724	0.000037
H50	H	-1.371792	-0.419858	0.140403
Cl51	Cl	-1.209727	-0.288256	0.000175
H52	H	-1.702792	-0.446629	0.000189
Cl53	Cl	-1.745838	0.161000	0.572949
H54	H	-1.595111	-0.332975	-0.140212
Cl55	Cl	-1.344026	-0.430942	-0.175185
H56	H	-1.129481	-0.012994	0.000089
Cl57	Cl	-0.801892	0.293478	0.000067
H58	H	-1.320201	0.233525	0.558143
Cl59	Cl	-1.221061	0.086178	0.427254
H60	H	-1.530293	0.263510	0.442049
