data_functionalizedCrystal
_audit_creation_method	'MofGen! by Chris Wilmer'
_symmetry_space_group_name_H-M	'P1'
_symmetry_Int_Tables_number	1
_symmetry_cell_setting	triclinic
loop_
_symmetry_equiv_pos_as_xyz
  x,y,z
_cell_length_a	14.908571
_cell_length_b	15.297327
_cell_length_c	14.908308
_cell_angle_alpha	77.691786
_cell_angle_beta	89.824947
_cell_angle_gamma	96.991395
loop_
_atom_site_label
_atom_site_type_symbol
_atom_site_fract_x
_atom_site_fract_y
_atom_site_fract_z
Zn1	Zn	1.259455	-0.470251	0.663960
Zn2	Zn	1.242018	-0.612780	0.536750
Zn3	Zn	1.120930	-0.452943	0.502147
Zn4	Zn	1.083241	-0.611710	0.678228
O5	O	1.176411	-0.536921	0.595271
O6	O	1.381564	-0.496849	0.655596
O7	O	1.234431	-0.584782	0.405232
O8	O	1.162376	-0.329146	0.503159
O9	O	1.368753	-0.601565	0.562136
O10	O	1.264150	-0.341862	0.622043
O11	O	1.145468	-0.467350	0.379809
O12	O	0.991508	-0.466312	0.516994
O13	O	1.098141	-0.599740	0.803264
O14	O	0.963819	-0.582958	0.646360
O15	O	1.227605	-0.495811	0.792781
O16	O	1.197885	-0.738732	0.575970
O17	O	1.081233	-0.737945	0.679913
C18	C	0.945402	-0.522641	0.579471
C19	C	0.846570	-0.516555	0.572737
C20	C	0.632047	-0.626752	0.694664
C21	C	0.539185	-0.621037	0.688340
C22	C	0.567982	-0.499405	0.553769
C23	C	0.660844	-0.505121	0.560093
C24	C	0.692873	-0.568797	0.630542
C25	C	0.785736	-0.574516	0.636861
C26	C	0.814532	-0.452881	0.502295
C27	C	0.721670	-0.447166	0.495971
C28	C	1.133600	-0.771036	0.633267
C29	C	1.115365	-0.871198	0.649557
C30	C	1.307088	-1.155071	0.479176
C31	C	1.324221	-1.060963	0.463866
C32	C	1.272009	-1.013517	0.510288
C33	C	1.202660	-1.060188	0.572022
C34	C	1.185521	-1.154304	0.587328
C35	C	1.150441	-1.012750	0.618439
C36	C	1.081092	-1.059421	0.680173
C37	C	1.063957	-1.153528	0.695477
C38	C	1.116169	-1.200974	0.649056
C39	C	1.167580	-0.918634	0.603133
C40	C	1.046013	-0.917868	0.711285
C41	C	1.028880	-1.011975	0.726595
C42	C	1.408322	-0.551257	0.611134
C43	C	1.507148	-0.557366	0.617894
C44	C	1.160614	-0.549587	0.831854
C45	C	1.153882	-0.554984	0.932671
C46	C	1.219412	-0.301895	0.557150
C47	C	1.237736	-0.201741	0.540904
C48	C	1.192210	-0.524243	0.359602
C49	C	1.199160	-0.518602	0.258756
C50	C	1.276044	-0.456884	1.111201
C51	C	1.269722	-0.461953	1.205927
C52	C	1.134914	-0.570184	1.216852
C53	C	1.141235	-0.565116	1.122125
C54	C	1.211804	-0.508465	1.069303
C55	C	1.218128	-0.503402	0.974576
C56	C	1.083317	-0.611628	0.985501
C57	C	1.076995	-0.616697	1.080227
H58	H	0.864067	-0.405692	0.450081
H59	H	1.003496	-0.879237	0.749083
H60	H	1.275590	-0.457275	0.931569
O61	O	1.352153	-0.395790	1.054219
H62	H	1.395762	-0.360771	1.099268
O63	O	1.058793	-0.631267	1.273826
H64	H	1.065191	-0.626120	1.346733
H65	H	1.322031	-0.419948	1.240036
H66	H	1.224045	-0.880644	0.552868
O67	O	0.666597	-0.695413	0.770659
H68	H	0.741389	-0.689647	0.764286
H69	H	0.695579	-0.395320	0.438616
H70	H	1.285962	-0.936891	0.497817
H71	H	1.349587	-1.193709	0.441381
O72	O	0.820295	-0.643179	0.712849
H73	H	0.790597	-0.711947	0.707459
O74	O	0.473566	-0.683619	0.757431
H75	H	0.511439	-0.728885	0.807450
O76	O	0.533427	-0.430758	0.477764
H77	H	0.458633	-0.436537	0.484131
O78	O	1.000883	-0.677790	1.137205
H79	H	1.004406	-0.748479	1.131539
H80	H	1.031010	-0.653632	0.951379
H81	H	1.380683	-1.022967	0.413602
H82	H	1.102225	-1.277604	0.661521
H83	H	1.007479	-1.191523	0.745734
O84	O	0.954071	-1.062312	0.793164
H85	H	0.950922	-1.135722	0.795996
