data_functionalizedCrystal
_audit_creation_method	'MofGen! by Chris Wilmer'
_symmetry_space_group_name_H-M	'P1'
_symmetry_Int_Tables_number	1
_symmetry_cell_setting	triclinic
loop_
_symmetry_equiv_pos_as_xyz
  x,y,z
_cell_length_a	19.077105
_cell_length_b	19.077068
_cell_length_c	19.805399
_cell_angle_alpha	92.269429
_cell_angle_beta	87.684312
_cell_angle_gamma	90.115316
loop_
_atom_site_label
_atom_site_type_symbol
_atom_site_fract_x
_atom_site_fract_y
_atom_site_fract_z
Zn1	Zn	1.062984	-0.322994	-0.436187
Zn2	Zn	1.396317	0.010339	-0.102853
Zn3	Zn	1.729651	0.343673	0.230480
Zn4	Zn	1.058172	-0.440500	-0.327347
Zn5	Zn	1.391506	-0.107166	0.005986
Zn6	Zn	1.724839	0.226167	0.339319
Zn7	Zn	0.945478	-0.318285	-0.318297
Zn8	Zn	1.278811	0.015048	0.015036
Zn9	Zn	1.612144	0.348382	0.348370
Zn10	Zn	0.940719	-0.435736	-0.435780
Zn11	Zn	1.274052	-0.102402	-0.102447
Zn12	Zn	1.607386	0.230931	0.230887
O13	O	1.001838	-0.379379	-0.379403
O14	O	1.335172	-0.046045	-0.046069
O15	O	1.668505	0.287288	0.287264
O16	O	1.160677	-0.342546	-0.425707
O17	O	1.494010	-0.009213	-0.092373
O18	O	1.827344	0.324121	0.240960
O19	O	1.043201	-0.424310	-0.231430
O20	O	1.376534	-0.090977	0.101903
O21	O	1.709868	0.242356	0.435236
O22	O	0.965071	-0.220580	-0.330318
O23	O	1.298404	0.112754	0.003016
O24	O	1.631737	0.446087	0.336349
O25	O	1.157142	-0.428877	-0.345743
O26	O	1.490475	-0.095543	-0.012410
O27	O	1.823809	0.237790	0.320924
O28	O	1.051402	-0.224039	-0.416931
O29	O	1.384735	0.109294	-0.083597
O30	O	1.718068	0.442627	0.249736
O31	O	0.960405	-0.334520	-0.224781
O32	O	1.293738	-0.001187	0.108552
O33	O	1.627072	0.332147	0.441886
O34	O	0.846515	-0.329900	-0.329923
O35	O	1.179849	0.003433	0.003410
O36	O	1.513182	0.336766	0.336743
O37	O	0.956960	-0.420757	-0.530550
O38	O	1.290293	-0.087424	-0.197217
O39	O	1.623626	0.245909	0.136116
O40	O	0.843019	-0.416191	-0.416238
O41	O	1.176352	-0.082858	-0.082904
O42	O	1.509686	0.250476	0.250429
O43	O	1.046787	-0.337927	-0.530849
O44	O	1.380121	-0.004593	-0.197516
O45	O	1.713454	0.328740	0.135817
O46	O	1.038587	-0.538198	-0.345349
O47	O	1.371920	-0.204864	-0.012015
O48	O	1.705253	0.128469	0.321318
O49	O	0.952294	-0.534698	-0.425014
O50	O	1.285627	-0.201364	-0.091680
O51	O	1.618961	0.131969	0.241653
C52	C	0.819271	-0.372018	-0.372055
C53	C	1.152604	-0.038685	-0.038721
C54	C	1.485937	0.294648	0.294612
C55	C	0.741167	-0.368886	-0.368928
C56	C	1.074500	-0.035553	-0.035595
C57	C	1.407834	0.297780	0.297739
C58	C	0.702669	-0.412410	-0.412333
C59	C	1.036002	-0.079076	-0.078999
C60	C	1.369336	0.254257	0.254334
C61	C	0.629282	-0.409458	-0.409398
C62	C	0.962616	-0.076125	-0.076064
C63	C	1.295949	0.257209	0.257269
C64	C	0.594395	-0.362986	-0.363054
C65	C	0.927728	-0.029652	-0.029721
C66	C	1.261062	0.303681	0.303613
C67	C	0.632899	-0.319458	-0.319647
C68	C	0.966232	0.013876	0.013686
C69	C	1.299565	0.347209	0.347019
C70	C	0.706284	-0.322406	-0.322586
C71	C	1.039617	0.010927	0.010747
C72	C	1.372950	0.344260	0.344080
C73	C	0.375110	-0.349338	-0.349456
C74	C	0.708444	-0.016005	-0.016122
C75	C	1.041777	0.317329	0.317211
C76	C	0.301720	-0.346394	-0.346519
C77	C	0.635053	-0.013060	-0.013185
C78	C	0.968386	0.320273	0.320148
C79	C	0.298109	-0.436393	-0.436270
C80	C	0.631442	-0.103060	-0.102937
C81	C	0.964775	0.230273	0.230397
C82	C	0.371496	-0.439341	-0.439202
C83	C	0.704829	-0.106008	-0.105869
C84	C	1.038162	0.227325	0.227465
C85	C	0.409993	-0.395811	-0.395798
C86	C	0.743326	-0.062477	-0.062465
C87	C	1.076659	0.270856	0.270869
N88	N	0.519382	-0.359969	-0.360051
N89	N	0.852716	-0.026635	-0.026718
N90	N	1.186049	0.306698	0.306615
N91	N	0.485004	-0.398824	-0.398804
N92	N	0.818338	-0.065491	-0.065471
N93	N	1.151671	0.267842	0.267862
C94	C	0.994421	-0.561944	-0.386135
C95	C	1.327754	-0.228611	-0.052801
C96	C	1.661088	0.104722	0.280532
C97	C	0.991312	-0.640049	-0.389040
C98	C	1.324645	-0.306716	-0.055707
C99	C	1.657979	0.026617	0.277627
C100	C	1.034814	-0.678543	-0.348965
C101	C	1.368148	-0.345210	-0.015632
C102	C	1.701481	-0.011877	0.317702
C103	C	1.031894	-0.751931	-0.351702
C104	C	1.365228	-0.418598	-0.018368
C105	C	1.698561	-0.085265	0.314965
C106	C	0.985468	-0.786824	-0.394510
C107	C	1.318801	-0.453490	-0.061177
C108	C	1.652135	-0.120157	0.272157
C109	C	0.941964	-0.748324	-0.434590
C110	C	1.275298	-0.414991	-0.101256
C111	C	1.608631	-0.081658	0.232077
C112	C	0.944888	-0.674938	-0.431856
C113	C	1.278221	-0.341604	-0.098523
C114	C	1.611555	-0.008271	0.234811
C115	C	0.971905	-1.006113	-0.407133
C116	C	1.305238	-0.672779	-0.073799
C117	C	1.638572	-0.339446	0.259534
C118	C	0.968983	-1.079504	-0.409862
C119	C	1.302316	-0.746171	-0.076528
C120	C	1.635650	-0.412838	0.256805
C121	C	1.058914	-1.083107	-0.326974
C122	C	1.392248	-0.749773	0.006359
C123	C	1.725581	-0.416440	0.339693
C124	C	1.061831	-1.009718	-0.324241
C125	C	1.395164	-0.676385	0.009092
C126	C	1.728498	-0.343052	0.342425
C127	C	1.018330	-0.971225	-0.364323
C128	C	1.351663	-0.637892	-0.030990
C129	C	1.684997	-0.304559	0.302343
N130	N	0.982481	-0.861838	-0.397307
N131	N	1.315814	-0.528505	-0.063974
N132	N	1.649148	-0.195171	0.269360
N133	N	1.021321	-0.896213	-0.361530
N134	N	1.354654	-0.562879	-0.028197
N135	N	1.687988	-0.229546	0.305137
C136	C	1.185119	-0.386768	-0.386780
C137	C	1.518452	-0.053435	-0.053446
C138	C	1.851785	0.279899	0.279887
C139	C	1.263222	-0.389917	-0.389923
C140	C	1.596555	-0.056584	-0.056590
C141	C	1.929888	0.276750	0.276743
C142	C	1.001879	-0.379336	-0.555945
C143	C	1.335213	-0.046003	-0.222612
C144	C	1.668546	0.287331	0.110721
C145	C	1.001897	-0.379318	-0.631177
C146	C	1.335230	-0.045984	-0.297844
C147	C	1.668564	0.287349	0.035489
C148	C	1.009304	-0.196101	-0.372660
C149	C	1.342637	0.137233	-0.039327
C150	C	1.675970	0.470566	0.294007
C151	C	1.012485	-0.117999	-0.369787
C152	C	1.345818	0.215335	-0.036453
C153	C	1.679152	0.548668	0.296880
C154	C	1.048671	-0.336186	-0.666678
C155	C	1.382005	-0.002852	-0.333345
C156	C	1.715338	0.330481	-0.000012
C157	C	1.048679	-0.336165	-0.737366
C158	C	1.382013	-0.002832	-0.404033
C159	C	1.715346	0.330501	-0.070700
C160	C	1.001916	-0.379282	-0.772552
C161	C	1.335249	-0.045948	-0.439219
C162	C	1.668583	0.287385	-0.105886
C163	C	0.955137	-0.422416	-0.737047
C164	C	1.288470	-0.089082	-0.403713
C165	C	1.621803	0.244251	-0.070380
C166	C	0.955126	-0.422432	-0.666360
C167	C	1.288459	-0.089098	-0.333026
C168	C	1.621792	0.244235	0.000307
C169	C	0.955179	-0.422352	-1.022119
C170	C	1.288512	-0.089018	-0.688786
C171	C	1.621846	0.244315	-0.355453
C172	C	0.955195	-0.422334	-1.092811
C173	C	1.288528	-0.089001	-0.759478
C174	C	1.621861	0.244333	-0.426145
C175	C	1.048733	-0.336086	-1.093126
C176	C	1.382066	-0.002752	-0.759793
C177	C	1.715399	0.330581	-0.426459
C178	C	1.048722	-0.336102	-1.022439
C179	C	1.382055	-0.002768	-0.689106
C180	C	1.715388	0.330565	-0.355772
C181	C	1.001940	-0.379232	-0.986939
C182	C	1.335273	-0.045899	-0.653606
C183	C	1.668607	0.287434	-0.320272
C184	C	1.001931	-0.379253	-0.910291
C185	C	1.335264	-0.045919	-0.576958
C186	C	1.668598	0.287414	-0.243624
C187	C	1.001928	-0.379266	-0.849199
C188	C	1.335261	-0.045932	-0.515866
C189	C	1.668595	0.287401	-0.182533
C190	C	1.001840	-0.379372	-0.203547
C191	C	1.335173	-0.046039	0.129787
C192	C	1.668506	0.287295	0.463120
C193	C	1.001966	-0.379198	-0.128313
C194	C	1.335300	-0.045864	0.205020
C195	C	1.668633	0.287469	0.538354
H196	H	0.597940	-0.444900	-0.444742
H197	H	0.931274	-0.111566	-0.111408
H198	H	1.264607	0.221767	0.221925
Br199	Br	0.427347	-0.290256	-0.290553
Br200	Br	0.760681	0.043077	0.042780
Br201	Br	1.094014	0.376410	0.376113
Br202	Br	0.891667	-0.480927	-0.784798
Br203	Br	1.225000	-0.147594	-0.451465
Br204	Br	1.558333	0.185740	-0.118132
H205	H	0.604488	-0.281616	-0.281916
H206	H	0.937821	0.051717	0.051417
H207	H	1.271154	0.385051	0.384750
Br208	Br	0.758532	-0.263333	-0.263681
Br209	Br	1.091866	0.070000	0.069652
Br210	Br	1.425199	0.403334	0.402986
H211	H	0.917111	-0.457446	-1.121458
H212	H	1.250445	-0.124112	-0.788125
H213	H	1.583778	0.209221	-0.454791
H214	H	0.917030	-0.457547	-0.637455
H215	H	1.250364	-0.124214	-0.304122
H216	H	1.583697	0.209120	0.029211
Br217	Br	1.097818	-0.631197	-0.290858
Br218	Br	1.431151	-0.297863	0.042475
Br219	Br	1.764484	0.035470	0.375809
Br220	Br	1.117952	-1.135350	-0.272584
Br221	Br	1.451285	-0.802017	0.060750
Br222	Br	1.784619	-0.468684	0.394083
Br223	Br	1.112193	-0.277660	-0.785546
Br224	Br	1.445526	0.055673	-0.452213
Br225	Br	1.778860	0.389006	-0.118879
H226	H	0.731069	-0.450255	-0.450068
H227	H	1.064402	-0.116922	-0.116735
H228	H	1.397735	0.216412	0.216598
H229	H	0.399896	-0.477185	-0.476938
H230	H	0.733229	-0.143852	-0.143605
H231	H	1.066562	0.189481	0.189728
H232	H	1.099635	-0.981311	-0.289383
H233	H	1.432968	-0.647977	0.043950
H234	H	1.766302	-0.314644	0.377283
Br235	Br	1.112145	-0.277673	-0.618933
Br236	Br	1.445478	0.055660	-0.285599
Br237	Br	1.778811	0.388994	0.047734
H238	H	0.266757	-0.471833	-0.471608
H239	H	0.600090	-0.138499	-0.138275
H240	H	0.933423	0.194834	0.195058
Br241	Br	0.254373	-0.283328	-0.283613
Br242	Br	0.587706	0.050006	0.049721
Br243	Br	0.921039	0.383339	0.383054
Br244	Br	1.090940	-0.804171	-0.297316
Br245	Br	1.424273	-0.470838	0.036018
Br246	Br	1.757607	-0.137505	0.369351
H247	H	0.931186	-1.107912	-0.444734
H248	H	1.264519	-0.774578	-0.111400
H249	H	1.597852	-0.441245	0.221933
Br250	Br	0.912868	-0.953881	-0.461530
Br251	Br	1.246201	-0.620548	-0.128197
Br252	Br	1.579534	-0.287215	0.205136
H253	H	1.086804	-0.300994	-0.993794
H254	H	1.420137	0.032339	-0.660461
H255	H	1.753470	0.365672	-0.327127
H256	H	0.904166	-0.776739	-0.469448
H257	H	1.237499	-0.443406	-0.136115
H258	H	1.570833	-0.110073	0.197218
H259	H	1.086822	-0.300964	-1.122038
H260	H	1.420155	0.032370	-0.788705
H261	H	1.753489	0.365703	-0.455371
Br262	Br	0.885852	-0.622695	-0.486250
Br263	Br	1.219185	-0.289361	-0.152917
Br264	Br	1.552518	0.043972	0.180416
Br265	Br	0.891688	-0.480885	-0.973950
Br266	Br	1.225022	-0.147552	-0.640616
Br267	Br	1.558355	0.185781	-0.307283
