data_functionalizedCrystal
_audit_creation_method	'MofGen! by Chris Wilmer'
_symmetry_space_group_name_H-M	'P1'
_symmetry_Int_Tables_number	1
_symmetry_cell_setting	triclinic
loop_
_symmetry_equiv_pos_as_xyz
  x,y,z
_cell_length_a	10.540539
_cell_length_b	10.540510
_cell_length_c	10.268362
_cell_angle_alpha	89.997199
_cell_angle_beta	89.997484
_cell_angle_gamma	84.519401
loop_
_atom_site_label
_atom_site_type_symbol
_atom_site_fract_x
_atom_site_fract_y
_atom_site_fract_z
O1	O	1.685868	0.178904	-0.108231
O2	O	1.316453	0.195760	-0.108246
O3	O	1.509608	0.002623	-0.108238
O4	O	1.492713	0.372041	-0.108240
O5	O	1.509591	0.002615	0.108363
O6	O	1.316436	0.195752	0.108354
O7	O	1.685851	0.178896	0.108370
Cu8	Cu	1.501142	0.187323	0.128139
Cu9	Cu	1.501162	0.187333	-0.128016
O10	O	1.492696	0.372033	0.108361
C11	C	1.269142	0.194492	0.000052
C12	C	1.128194	0.190710	0.000046
C13	C	0.944783	0.045791	0.000552
C14	C	1.091401	0.049624	0.000050
C15	C	1.066524	0.258610	-0.123639
C16	C	0.919980	0.253795	-0.123729
C17	C	0.919472	0.256656	0.122586
C18	C	1.066454	0.257956	0.124207
C19	C	1.508341	-0.044685	0.000060
C20	C	1.504574	-0.185635	0.000052
C21	C	1.638758	-0.403090	0.000553
C22	C	1.642776	-0.256495	0.000059
C23	C	1.433838	-0.230389	-0.123638
C24	C	1.430799	-0.377150	-0.123735
C25	C	1.427901	-0.376967	0.122580
C26	C	1.434456	-0.230626	0.124208
C27	C	1.733163	0.180164	0.000068
C28	C	1.874110	0.183946	0.000066
C29	C	1.493964	0.419340	0.000061
C30	C	1.497731	0.560290	0.000060
N31	N	1.501137	0.187315	0.308305
N32	N	1.501177	0.187330	-0.308182
C33	C	1.501156	0.187330	0.573976
C34	C	1.501142	0.187326	0.426138
H35	H	0.887923	0.210994	0.216339
H36	H	1.134013	-0.003802	0.088714
H37	H	0.916197	-0.009949	0.089254
O38	O	1.122938	0.196140	-0.245575
H39	H	1.046155	0.158391	-0.303767
O40	O	1.485749	-0.433182	0.246771
H41	H	1.522933	-0.356599	0.305707
O42	O	0.904787	-0.027735	-0.116279
H43	H	0.860548	-0.113483	-0.082943
H44	H	1.090669	0.360816	0.131675
H45	H	1.133159	-0.004172	-0.088765
O46	O	1.120702	0.192263	0.245423
H47	H	1.191348	0.112054	0.217372
O48	O	0.856891	0.391636	0.123718
H49	H	0.793780	0.406924	0.037493
O50	O	1.710055	-0.458643	0.118075
H51	H	1.711552	-0.564060	0.116105
O52	O	1.716115	-0.217616	0.117482
H53	H	1.749027	-0.303593	0.175134
H54	H	1.479154	-0.417362	-0.216191
H55	H	1.327432	-0.400144	-0.129343
O56	O	0.882628	0.187304	-0.246182
H57	H	0.911662	0.240862	-0.332559
O58	O	1.299067	-0.167625	-0.129760
H59	H	1.300994	-0.062608	-0.134106
O60	O	1.709688	-0.460695	-0.116277
H61	H	1.644933	-0.515291	-0.174696
O62	O	0.856410	0.388190	-0.131193
H63	H	0.930376	0.456330	-0.134733
H64	H	1.088866	0.362220	-0.128242
H65	H	1.698459	-0.228086	-0.088755
H66	H	1.482976	-0.199529	-0.215684
O67	O	1.502612	-0.192723	0.245428
H68	H	1.586077	-0.142045	0.217383
O69	O	1.300815	-0.165609	0.134135
H70	H	1.282194	-0.099932	0.050348
H71	H	1.324138	-0.399117	0.123409
