data_functionalizedCrystal
_audit_creation_method	'MofGen! by Chris Wilmer'
_symmetry_space_group_name_H-M	'P1'
_symmetry_Int_Tables_number	1
_symmetry_cell_setting	triclinic
loop_
_symmetry_equiv_pos_as_xyz
  x,y,z
_cell_length_a	10.654550
_cell_length_b	9.730223
_cell_length_c	19.288853
_cell_angle_alpha	89.985429
_cell_angle_beta	96.191168
_cell_angle_gamma	90.005341
loop_
_atom_site_label
_atom_site_type_symbol
_atom_site_fract_x
_atom_site_fract_y
_atom_site_fract_z
O1	O	1.665743	0.114438	-0.097555
O2	O	1.300065	0.114419	-0.106849
O3	O	1.493476	0.114384	-0.001140
O4	O	1.472332	0.114474	-0.203263
O5	O	1.493469	-0.114196	-0.001138
O6	O	1.300058	-0.114160	-0.106846
O7	O	1.665736	-0.114142	-0.097552
Zn8	Zn	1.482896	-0.150443	-0.102199
Zn9	Zn	1.482905	0.150721	-0.102202
O10	O	1.472325	-0.114106	-0.203261
C11	C	1.253278	0.000126	-0.106165
C12	C	1.113879	0.000117	-0.104123
N13	N	1.482899	-0.355979	-0.102196
C14	C	1.033057	0.000165	-0.166363
C15	C	0.902078	0.000188	-0.164440
C16	C	0.932754	0.000121	-0.038033
C17	C	1.063731	0.000088	-0.039956
C18	C	1.015345	0.000209	-0.239343
C19	C	0.884366	0.000232	-0.237421
C20	C	1.406992	-0.427952	-0.059677
C21	C	1.406995	-0.571835	-0.059680
C22	C	1.558821	-0.571761	-0.144724
C23	C	1.558811	-0.427880	-0.144724
C24	C	1.319341	-0.427995	-0.010575
C25	C	1.319344	-0.571878	-0.010578
C26	C	1.712523	0.000154	-0.098236
C27	C	1.851922	0.000173	-0.100277
C28	C	1.492794	0.000085	0.024742
C29	C	1.490757	0.000059	0.101859
N30	N	1.482912	0.356257	-0.102200
C31	C	1.590462	-0.000108	0.665248
C32	C	1.592387	-0.000093	0.592789
C33	C	1.478902	-0.000083	0.548825
C34	C	1.363484	-0.000123	0.577326
C35	C	1.361563	-0.000152	0.649784
C36	C	1.394267	0.080036	0.428104
C37	C	1.396194	0.080073	0.355648
C38	C	1.484825	-0.000001	0.325340
C39	C	1.571550	-0.080095	0.367499
C40	C	1.569628	-0.080123	0.439957
C41	C	1.480973	-0.000053	0.470256
C42	C	1.602322	0.000045	0.218279
C43	C	1.604242	0.000051	0.145818
C44	C	1.375337	0.000035	0.130356
C45	C	1.373420	0.000015	0.202816
C46	C	1.486916	0.000026	0.246773
C47	C	1.473011	0.000102	0.770857
C48	C	1.475059	-0.000140	0.693741
H49	H	1.129532	0.000030	0.010725
Br50	Br	0.807436	-0.164224	-0.274178
Br51	Br	1.387096	-0.353632	0.076586
H52	H	1.698221	0.000069	0.122621
Br53	Br	1.221318	0.000023	0.070699
Br54	Br	1.160922	-0.646280	-0.046959
H55	H	0.891907	0.000118	0.014210
Br56	Br	1.661776	-0.330206	-0.202460
Br57	Br	0.813818	0.159696	-0.283253
H58	H	1.044061	-0.095444	-0.267885
Br59	Br	1.372874	-0.637017	0.080707
Br60	Br	1.073962	0.164710	-0.278073
Br61	Br	1.687315	-0.188821	0.497170
Br62	Br	1.749016	-0.000072	0.554109
Br63	Br	1.661835	-0.669349	-0.202440
Br64	Br	1.691851	-0.188766	0.326377
Br65	Br	1.744492	-0.000104	0.724901
H66	H	1.694738	0.000053	0.254071
H67	H	1.279446	-0.000001	0.226015
Br68	Br	1.278511	0.188786	0.298441
Br69	Br	1.273961	0.188704	0.469228
H70	H	1.219918	-0.388960	-0.027646
Br71	Br	1.209468	-0.000123	0.517663
Br72	Br	1.204932	-0.000197	0.688456
