data_functionalizedCrystal
_audit_creation_method	'MofGen! by Chris Wilmer'
_symmetry_space_group_name_H-M	'P1'
_symmetry_Int_Tables_number	1
_symmetry_cell_setting	triclinic
loop_
_symmetry_equiv_pos_as_xyz
  x,y,z
_cell_length_a	6.817900
_cell_length_b	17.078481
_cell_length_c	17.253917
_cell_angle_alpha	99.951811
_cell_angle_beta	102.659311
_cell_angle_gamma	99.306161
loop_
_atom_site_label
_atom_site_type_symbol
_atom_site_fract_x
_atom_site_fract_y
_atom_site_fract_z
V1	V	-3.979160	-0.254878	-0.111101
O2	O	-3.968069	-0.242279	0.005532
O3	O	-3.930531	-0.260587	-0.220480
O4	O	-3.910213	-0.362640	-0.109307
O5	O	-3.988528	-0.139519	-0.106410
V6	V	-4.465480	-0.240175	-0.097160
O7	O	-4.234283	-0.287131	-0.141680
O8	O	-4.660554	-0.207923	-0.066580
O9	O	-4.290902	-0.234467	0.012219
O10	O	-4.593967	-0.252775	-0.213793
O11	O	-4.573508	-0.355535	-0.101850
O12	O	-4.311220	-0.132414	-0.098954
C13	C	-3.776141	-0.258489	-0.247147
C14	C	-3.817531	-0.263875	-0.336565
C15	C	-3.810620	-0.192979	-0.367142
C16	C	-3.849529	-0.198042	-0.451160
C17	C	-3.895337	-0.274002	-0.504600
C18	C	-3.902254	-0.344903	-0.474019
C19	C	-3.863359	-0.339839	-0.390002
C20	C	-4.014503	-0.297020	-0.757102
C21	C	-4.053393	-0.302078	-0.841124
C22	C	-4.000669	-0.155217	-0.818260
C23	C	-3.961764	-0.150159	-0.734242
C24	C	-3.968695	-0.221061	-0.703668
N25	N	-3.935103	-0.279179	-0.590481
N26	N	-3.928943	-0.215883	-0.617789
C27	C	-3.750223	-0.388667	-0.105334
C28	C	-3.775133	-0.476811	-0.104591
C29	C	-3.968160	-0.522535	-0.108257
C30	C	-3.991554	-0.605356	-0.107559
C31	C	-3.821922	-0.642453	-0.103200
C32	C	-3.628878	-0.596722	-0.099531
C33	C	-3.605484	-0.513902	-0.100223
C34	C	-3.872443	-0.889686	-0.100692
C35	C	-3.895854	-0.972514	-0.100002
C36	C	-4.258528	-0.981141	-0.108029
C37	C	-4.235119	-0.898320	-0.108726
C38	C	-4.042077	-0.852596	-0.105053
N39	N	-3.845831	-0.727109	-0.102488
N40	N	-4.018167	-0.767939	-0.105758
C41	C	-4.108634	-0.236563	0.038882
C42	C	-4.046481	-0.231182	0.128299
C43	C	-4.134553	-0.106383	-0.102930
C44	C	-4.088881	-0.018237	-0.103668
H45	H	-3.924479	-0.088305	-0.690736
C46	C	-4.154761	-0.481736	-0.113053
H47	H	-4.273066	-0.520831	-0.115129
H48	H	-4.177313	-0.460041	-0.160607
H49	H	-4.129033	-0.439173	-0.066365
H50	H	-3.490760	-0.626932	-0.095977
C51	C	-4.203881	-0.655653	-0.111596
H52	H	-4.193520	-0.710289	-0.110550
H53	H	-4.298682	-0.654289	-0.160478
H54	H	-4.250419	-0.633417	-0.066236
C55	C	-3.709255	-1.013322	-0.095205
H56	H	-3.750848	-1.069198	-0.095328
H57	H	-3.606779	-0.987547	-0.046550
H58	H	-3.655047	-1.008410	-0.140792
H59	H	-3.715274	-0.852474	-0.097730
C60	C	-3.993078	-0.077233	-0.851895
H61	H	-4.022821	-0.091125	-0.909586
H62	H	-3.859870	-0.043518	-0.830813
H63	H	-4.091908	-0.048949	-0.836046
H64	H	-3.773305	-0.131124	-0.323635
H65	H	-4.020123	-0.354753	-0.732218
C66	C	-3.841906	-0.120056	-0.484791
H67	H	-3.809026	-0.074092	-0.440931
H68	H	-3.971989	-0.121681	-0.519708
H69	H	-3.739958	-0.116274	-0.514473
C70	C	-4.103790	-0.385638	-0.899907
H71	H	-4.102365	-0.427140	-0.869667
H72	H	-4.004045	-0.387957	-0.930539
H73	H	-4.236079	-0.393369	-0.935776
C74	C	-4.421711	-0.857516	-0.113509
H75	H	-4.540020	-0.896608	-0.115583
H76	H	-4.444267	-0.835817	-0.161061
H77	H	-4.395968	-0.814955	-0.066819
C78	C	-3.952637	-0.428457	-0.532800
H79	H	-3.974791	-0.421320	-0.587217
H80	H	-4.073103	-0.460510	-0.526346
H81	H	-3.841063	-0.455085	-0.521106
C82	C	-3.870951	-0.417825	-0.356367
H83	H	-3.903783	-0.463789	-0.400225
H84	H	-3.972883	-0.421612	-0.326684
H85	H	-3.740848	-0.416191	-0.321450
H86	H	-4.415697	-1.018378	-0.111018
H87	H	-3.448293	-0.476670	-0.097218
