data_functionalizedCrystal
_audit_creation_method	'MofGen! by Chris Wilmer'
_symmetry_space_group_name_H-M	'P1'
_symmetry_Int_Tables_number	1
_symmetry_cell_setting	triclinic
loop_
_symmetry_equiv_pos_as_xyz
  x,y,z
_cell_length_a	16.959455
_cell_length_b	12.827892
_cell_length_c	16.959455
_cell_angle_alpha	90.010953
_cell_angle_beta	90.005595
_cell_angle_gamma	90.012339
loop_
_atom_site_label
_atom_site_type_symbol
_atom_site_fract_x
_atom_site_fract_y
_atom_site_fract_z
Zn1	Zn	1.208341	-0.416262	0.446927
Zn2	Zn	1.208295	-0.590982	0.314757
Zn3	Zn	1.076190	-0.416246	0.314765
Zn4	Zn	1.076145	-0.590952	0.446895
O5	O	1.142243	-0.503610	0.380836
O6	O	1.318946	-0.439458	0.429405
O7	O	1.190770	-0.567808	0.204147
O8	O	1.093758	-0.270012	0.332313
O9	O	1.318912	-0.567824	0.332300
O10	O	1.190849	-0.270024	0.429413
O11	O	1.093713	-0.439431	0.204153
O12	O	0.965573	-0.439402	0.332282
O13	O	1.093682	-0.567773	0.557510
O14	O	0.965540	-0.567758	0.429358
O15	O	1.190806	-0.439429	0.557534
O16	O	1.190727	-0.737214	0.332268
O17	O	1.093637	-0.737192	0.429350
C18	C	1.142193	-0.775120	0.380822
C19	C	1.142245	-0.891273	0.380843
C20	C	0.936877	-0.503576	0.380818
C21	C	0.849020	-0.503586	0.380829
C22	C	1.190345	-0.943034	0.332857
C23	C	1.190399	-1.063085	0.332877
C24	C	0.477537	-0.436721	0.330394
C25	C	0.477552	-0.570586	0.431323
C26	C	0.560098	-0.570571	0.431318
C27	C	0.601367	-0.503631	0.380850
C28	C	0.560091	-0.436706	0.330386
C29	C	0.601380	-0.637502	0.481775
C30	C	0.683931	-0.637491	0.481772
C31	C	0.725202	-0.570545	0.431307
C32	C	0.683921	-0.503616	0.380842
C33	C	0.725190	-0.436676	0.330373
C34	C	0.683910	-0.369742	0.279912
C35	C	0.601362	-0.369760	0.279921
C36	C	0.807751	-0.570526	0.431297
C37	C	0.807744	-0.436661	0.330365
C38	C	1.348411	-0.503646	0.380855
C39	C	1.436268	-0.503661	0.380863
C40	C	1.142244	-0.503600	0.587004
C41	C	1.142245	-0.503595	0.674861
C42	C	1.142314	-0.231040	0.380867
C43	C	1.142344	-0.114887	0.380881
C44	C	1.091708	-0.436782	1.046346
C45	C	1.192774	-0.570463	1.046327
C46	C	1.192777	-0.570457	0.963781
C47	C	1.142243	-0.503613	0.922514
C48	C	1.091707	-0.436776	0.963792
C49	C	1.243306	-0.637300	0.922497
C50	C	1.243310	-0.637297	0.839946
C51	C	1.192780	-0.570448	0.798677
C52	C	1.142243	-0.503607	0.839960
C53	C	1.091710	-0.436764	0.798693
C54	C	1.041176	-0.369917	0.839975
C55	C	1.041178	-0.369926	0.922523
C56	C	1.192778	-0.570439	0.716128
C57	C	1.091709	-0.436758	0.716139
C58	C	1.142237	-0.503639	1.175470
C59	C	1.142241	-0.503625	1.087613
H60	H	1.231489	-0.898474	0.291762
C61	C	1.246029	-1.123210	0.277373
H62	H	1.238769	-1.196009	0.284670
H63	H	1.234507	-1.105412	0.224240
H64	H	1.299136	-1.105314	0.288977
H65	H	0.841357	-0.625027	0.472380
C66	C	1.036116	-0.363235	0.670751
H67	H	1.006018	-0.323436	0.707162
H68	H	1.066358	-0.317707	0.638554
H69	H	1.001661	-0.403214	0.638545
C70	C	0.432158	-0.644213	0.486833
H71	H	0.377083	-0.634633	0.479614
H72	H	0.445681	-0.714402	0.475179
H73	H	0.445695	-0.629012	0.539963
C74	C	0.853134	-0.363024	0.274850
H75	H	0.816725	-0.323171	0.244798
H76	H	0.885348	-0.317550	0.305142
H77	H	0.885323	-0.402930	0.240349
H78	H	1.233910	-0.624891	1.079932
C79	C	1.036123	-0.363254	1.091747
H80	H	1.006033	-0.323442	1.055344
H81	H	1.001673	-0.403220	1.123943
H82	H	1.066378	-0.317722	1.123956
H83	H	1.233928	-0.624857	0.682520
C84	C	0.985590	-0.296409	0.967931
H85	H	0.955498	-0.256590	0.931533
H86	H	0.951141	-0.336384	1.000121
H87	H	1.015843	-0.250882	1.000146
H88	H	1.000028	-0.315498	0.806364
H89	H	0.567773	-0.692009	0.522858
H90	H	0.567744	-0.315267	0.238837
C91	C	1.298886	-0.710821	0.967890
H92	H	1.291655	-0.701241	1.022965
H93	H	1.287300	-0.781033	0.954352
H94	H	1.352002	-0.695532	0.954368
H95	H	0.717534	-0.691992	0.522861
C96	C	1.298902	-0.710814	0.794543
H97	H	1.329001	-0.750617	0.830944
H98	H	1.268660	-0.756339	0.762323
H99	H	1.333356	-0.670829	0.762357
C100	C	1.086709	-1.054774	0.436387
H101	H	1.056564	-1.102848	0.466502
H102	H	1.116927	-1.012142	0.470816
H103	H	1.052299	-1.012250	0.406078
C104	C	0.729308	-0.296108	0.224401
H105	H	0.692905	-0.256248	0.194346
H106	H	0.761523	-0.250639	0.254696
H107	H	0.761498	-0.336017	0.189902
C108	C	0.432134	-0.363102	0.274889
H109	H	0.377060	-0.372697	0.282116
H110	H	0.445673	-0.292910	0.286543
H111	H	0.445652	-0.378297	0.221757
H112	H	1.101108	-0.935836	0.421943
