data_functionalizedCrystal
_audit_creation_method	'MofGen! by Chris Wilmer'
_symmetry_space_group_name_H-M	'P1'
_symmetry_Int_Tables_number	1
_symmetry_cell_setting	triclinic
loop_
_symmetry_equiv_pos_as_xyz
  x,y,z
_cell_length_a	12.837939
_cell_length_b	11.295483
_cell_length_c	12.811434
_cell_angle_alpha	88.700054
_cell_angle_beta	90.588920
_cell_angle_gamma	94.544334
loop_
_atom_site_label
_atom_site_type_symbol
_atom_site_fract_x
_atom_site_fract_y
_atom_site_fract_z
O1	O	-1.371764	0.069046	0.277406
O2	O	-1.069798	0.070498	0.264016
O3	O	-1.227230	0.086075	0.119727
O4	O	-1.214331	0.053469	0.421695
O5	O	-1.241068	-0.110611	0.107086
O6	O	-1.083636	-0.126188	0.251375
O7	O	-1.385602	-0.127640	0.264766
Cu8	Cu	-1.235882	-0.144873	0.256916
Cu9	Cu	-1.219517	0.087731	0.271865
O10	O	-1.228170	-0.143217	0.409055
C11	C	-1.038042	-0.027356	0.253172
C12	C	-0.922804	-0.025897	0.239680
C13	C	-0.683782	-0.043430	0.401883
C14	C	-0.575504	-0.042060	0.389210
C15	C	-0.597971	-0.021797	0.201664
C16	C	-0.706248	-0.023166	0.214336
C17	C	-0.749149	-0.033981	0.314449
C18	C	-0.857428	-0.035342	0.327120
C19	C	-0.879893	-0.015087	0.139574
C20	C	-0.771616	-0.013718	0.126902
N21	N	-1.247400	-0.308474	0.246402
C22	C	-1.233002	-0.008063	0.074488
C23	C	-1.229574	0.004466	-0.041479
C24	C	-0.417357	-0.029785	0.275610
C25	C	-0.532595	-0.031242	0.289104
N26	N	-1.208007	0.251333	0.282371
C27	C	-1.330311	0.512671	0.170775
C28	C	-1.321605	0.636478	0.178707
C29	C	-1.181897	0.622757	0.306173
C30	C	-1.190603	0.498949	0.298241
C31	C	-1.264811	0.443911	0.230538
C32	C	-1.273510	0.320102	0.222601
C33	C	-1.133808	0.306383	0.350072
C34	C	-1.125103	0.430190	0.358004
C35	C	-1.217194	0.129322	-0.198040
C36	C	-1.220419	0.117562	-0.089078
C37	C	-1.235507	-0.096877	-0.102851
C38	C	-1.232282	-0.085117	-0.211813
C39	C	-1.223124	0.027986	-0.259403
C40	C	-1.219892	0.039745	-0.368367
C41	C	-1.234987	-0.174693	-0.382138
C42	C	-1.238212	-0.186453	-0.273176
C43	C	-1.222397	-0.049076	0.454294
C44	C	-1.225825	-0.061598	0.570261
H45	H	-0.933127	-0.007386	0.068379
H46	H	-1.064686	0.475016	0.413129
C47	C	-1.355139	0.259562	0.148127
N48	N	-1.416627	0.213966	0.092034
C49	C	-1.241514	-0.286170	-0.449647
N50	N	-1.246429	-0.370132	-0.500496
H51	H	-1.242974	-0.188960	-0.064084
C52	C	-1.411937	0.452126	0.096300
N53	N	-1.473421	0.406525	0.040206
C54	C	-1.061758	0.230736	0.415822
N55	N	-1.007492	0.173758	0.465343
C56	C	-1.393658	0.712110	0.112958
N57	N	-1.447930	0.769076	0.063432
H58	H	-1.121486	0.667585	0.361302
H59	H	-1.245673	-0.278538	-0.234413
H60	H	-1.212428	0.131839	-0.407113
H61	H	-1.215592	0.200081	-0.039120
H62	H	-0.736672	-0.004926	0.045392
C63	C	-0.904617	-0.047245	0.437245
N64	N	-0.940158	-0.056216	0.520193
C65	C	-0.503603	-0.052455	0.485395
N66	N	-0.449447	-0.060286	0.557846
C67	C	-0.730974	-0.055319	0.512006
N68	N	-0.766518	-0.064275	0.594954
C69	C	-0.550761	-0.009914	0.091547
N70	N	-0.515202	-0.000964	0.008606
H71	H	-1.209722	0.221415	-0.236789
