data_functionalizedCrystal
_audit_creation_method	'MofGen! by Chris Wilmer'
_symmetry_space_group_name_H-M	'P1'
_symmetry_Int_Tables_number	1
_symmetry_cell_setting	triclinic
loop_
_symmetry_equiv_pos_as_xyz
  x,y,z
_cell_length_a	14.044220
_cell_length_b	14.044191
_cell_length_c	10.868271
_cell_angle_alpha	89.998192
_cell_angle_beta	89.993930
_cell_angle_gamma	93.190327
loop_
_atom_site_label
_atom_site_type_symbol
_atom_site_fract_x
_atom_site_fract_y
_atom_site_fract_z
O1	O	0.230200	1.277172	-0.102268
O2	O	0.730200	1.777172	0.397732
O3	O	0.221888	1.000500	-0.102284
O4	O	0.721888	1.500500	0.397716
O5	O	0.087708	1.134683	-0.102264
O6	O	0.587708	1.634683	0.397736
O7	O	0.364380	1.142989	-0.102288
O8	O	0.864380	1.642989	0.397712
O9	O	0.087702	1.134671	0.102381
O10	O	0.587702	1.634671	0.602381
O11	O	0.221881	1.000487	0.102361
O12	O	0.721881	1.500487	0.602361
O13	O	0.230194	1.277160	0.102376
O14	O	0.730194	1.777160	0.602376
Zn15	Zn	0.226036	1.138821	0.134860
Zn16	Zn	0.726036	1.638821	0.634860
Zn17	Zn	0.226045	1.138838	-0.134768
Zn18	Zn	0.726045	1.638838	0.365232
O19	O	0.364373	1.142976	0.102357
O20	O	0.864373	1.642976	0.602357
C21	C	0.218248	0.964872	0.000037
C22	C	0.718248	1.464872	0.500037
C23	C	0.207401	0.858728	0.000031
C24	C	0.707401	1.358728	0.500031
C25	C	0.052083	1.131041	0.000059
C26	C	0.552083	1.631041	0.500059
C27	C	-0.054060	1.120197	0.000060
C28	C	0.445940	1.620197	0.500060
C29	C	0.264501	0.613270	0.000039
C30	C	0.764501	1.113270	0.500039
C31	C	0.187585	0.664395	0.000043
C32	C	0.687585	1.164395	0.500043
C33	C	0.198613	0.772532	0.000037
C34	C	0.698613	1.272532	0.500037
C35	C	0.253474	0.505123	0.000045
C36	C	0.753474	1.005123	0.500045
C37	C	-0.248398	1.100370	0.000041
C38	C	0.251602	1.600370	0.500041
C39	C	-0.299526	1.177285	0.000041
C40	C	0.200474	1.677285	0.500041
C41	C	-0.407663	1.166253	0.000031
C42	C	0.092337	1.666253	0.500031
C43	C	-0.140252	1.111400	0.000051
C44	C	0.359748	1.611400	0.500051
C45	C	0.399998	1.146618	0.000031
C46	C	0.899998	1.646618	0.500031
C47	C	0.506142	1.157463	0.000022
C48	C	1.006142	1.657463	0.500022
C49	C	0.233834	1.312788	0.000053
C50	C	0.733834	1.812788	0.500053
C51	C	0.244681	1.418931	0.000051
C52	C	0.744681	1.918931	0.500051
N53	N	0.226030	1.138817	0.318875
N54	N	0.726030	1.638817	0.818875
N55	N	0.226044	1.138849	-0.318782
N56	N	0.726044	1.638849	0.181218
C57	C	0.226043	1.138833	0.569881
C58	C	0.726043	1.638833	1.069881
C59	C	0.226038	1.138821	0.430203
C60	C	0.726038	1.638821	0.930203
H61	H	0.113452	0.626952	-0.000037
H62	H	0.613452	1.126952	0.499963
H63	H	0.338628	0.650711	0.000029
H64	H	0.838628	1.150711	0.500029
O65	O	-0.254716	1.265659	0.000113
O66	O	0.245284	1.765659	0.500113
C67	C	-0.155157	1.257146	0.000092
C68	C	0.344843	1.757146	0.500092
H69	H	-0.138199	1.184580	0.038824
H70	H	0.361801	1.684580	0.538824
H71	H	-0.127023	1.264086	-0.098082
H72	H	0.372977	1.764086	0.401918
C73	C	-0.128146	1.425627	0.032795
C74	C	0.371854	1.925627	0.532795
C75	C	-0.107317	1.336502	0.080376
C76	C	0.392683	1.836502	0.580376
H77	H	-0.098635	1.474579	0.082313
H78	H	0.401365	1.974579	0.582313
H79	H	-0.195220	1.431363	0.032805
H80	H	0.304780	1.931363	0.532805
H81	H	-0.104700	1.431396	-0.049015
H82	H	0.395300	1.931396	0.450985
H83	H	-0.130774	1.330730	0.162179
H84	H	0.369226	1.830730	0.662179
H85	H	-0.040246	1.330767	0.080382
H86	H	0.459754	1.830767	0.580382
H87	H	-0.285837	1.026242	0.000034
H88	H	0.214163	1.526242	0.500034
