data_functionalizedCrystal
_audit_creation_method	'MofGen! by Chris Wilmer'
_symmetry_space_group_name_H-M	'P1'
_symmetry_Int_Tables_number	1
_symmetry_cell_setting	triclinic
loop_
_symmetry_equiv_pos_as_xyz
  x,y,z
_cell_length_a	10.967926
_cell_length_b	16.992695
_cell_length_c	16.053802
_cell_angle_alpha	87.258926
_cell_angle_beta	99.508351
_cell_angle_gamma	92.377135
loop_
_atom_site_label
_atom_site_type_symbol
_atom_site_fract_x
_atom_site_fract_y
_atom_site_fract_z
O1	O	1.654634	-0.117978	0.168637
O2	O	1.296065	-0.126079	0.117045
O3	O	1.473912	-0.007868	0.142641
O4	O	1.476787	-0.236188	0.143041
O5	O	1.464120	-0.014348	0.280090
O6	O	1.286273	-0.132558	0.254494
O7	O	1.644842	-0.124457	0.306087
Zn8	Zn	1.464003	-0.129536	0.302114
Zn9	Zn	1.476904	-0.121000	0.121018
O10	O	1.466996	-0.242667	0.280491
C11	C	1.245076	-0.128239	0.179138
C12	C	1.107733	-0.125015	0.159376
C13	C	1.041428	-0.126934	0.221769
C14	C	0.899477	-0.123601	0.201346
C15	C	1.465317	0.018150	0.210833
C16	C	1.454283	0.105329	0.209245
C17	C	1.695831	-0.122296	0.243992
C18	C	1.833175	-0.125521	0.263748
C19	C	1.475590	-0.268685	0.212296
C20	C	1.486625	-0.355864	0.213879
N21	N	1.455207	-0.135362	0.425708
C22	C	1.560751	0.154269	0.224565
C23	C	1.550376	0.236182	0.223064
C24	C	1.433531	0.269154	0.206250
C25	C	1.327055	0.220208	0.190926
C26	C	1.337432	0.138296	0.192421
C27	C	1.390525	0.513278	0.200050
C28	C	1.380157	0.595196	0.198559
C29	C	1.603479	0.611165	0.230696
C30	C	1.613845	0.529250	0.232194
C31	C	1.507369	0.480311	0.216866
N32	N	1.422924	0.352883	0.204718
N33	N	1.517978	0.396585	0.218392
N34	N	1.485709	-0.115168	-0.002575
C35	C	1.530912	-0.085082	0.480297
C36	C	1.524772	-0.089165	0.566821
C37	C	1.442932	-0.143532	0.598753
C38	C	1.367218	-0.193814	0.544156
C39	C	1.373353	-0.189727	0.457634
C40	C	1.416131	-0.161363	0.856306
C41	C	1.410004	-0.165448	0.942835
C42	C	1.567557	-0.060797	0.965493
C43	C	1.573690	-0.056718	0.878969
C44	C	1.497972	-0.106997	0.824379
N45	N	1.436656	-0.147708	0.687194
N46	N	1.504242	-0.102816	0.735939
H47	H	1.089754	-0.131039	0.290305
O48	O	1.686784	0.118715	0.242697
H49	H	1.692875	0.079147	0.300174
H50	H	1.597561	-0.040814	0.454306
O51	O	1.043720	-0.119561	0.068592
H52	H	1.076713	-0.065100	0.037034
O53	O	0.835469	-0.118147	0.110558
H54	H	0.868462	-0.063687	0.079000
O55	O	1.201031	0.255773	0.172794
H56	H	1.153473	0.238869	0.109351
H57	H	1.690165	0.651019	0.243173
O58	O	1.222593	0.085511	0.175905
H59	H	1.225961	0.050451	0.119790
H60	H	1.629201	-0.019861	1.009947
H61	H	1.586416	-0.048222	0.611268
H62	H	1.640331	-0.012448	0.852972
O63	O	1.291687	-0.243944	0.398743
H64	H	1.350251	-0.280888	0.367318
O65	O	1.254126	0.630764	0.180428
H66	H	1.248059	0.670349	0.122966
O67	O	0.897159	-0.130969	0.354542
H68	H	0.998612	-0.132739	0.356338
O69	O	1.321714	-0.224080	0.977280
H70	H	1.270081	-0.258349	0.924783
H71	H	1.300576	-0.238079	0.570160
O72	O	1.665207	0.288970	0.239602
H73	H	1.748198	0.252280	0.251560
O74	O	1.275683	0.460504	0.183521
H75	H	1.302519	0.398005	0.187373
H76	H	1.708992	0.502411	0.245887
H77	H	1.354480	-0.202304	0.811865
