data_functionalizedCrystal
_audit_creation_method	'MofGen! by Chris Wilmer'
_symmetry_space_group_name_H-M	'P1'
_symmetry_Int_Tables_number	1
_symmetry_cell_setting	triclinic
loop_
_symmetry_equiv_pos_as_xyz
  x,y,z
_cell_length_a	12.759395
_cell_length_b	12.759394
_cell_length_c	12.827885
_cell_angle_alpha	90.029530
_cell_angle_beta	90.019387
_cell_angle_gamma	90.014617
loop_
_atom_site_label
_atom_site_type_symbol
_atom_site_fract_x
_atom_site_fract_y
_atom_site_fract_z
Zn1	Zn	1.606258	-0.418194	0.590854
Zn2	Zn	1.606156	-0.593910	0.416115
Zn3	Zn	1.430561	-0.418248	0.416127
Zn4	Zn	1.430551	-0.593834	0.590814
O5	O	1.518381	-0.506047	0.503478
O6	O	1.753265	-0.441513	0.567686
O7	O	1.582825	-0.570662	0.269880
O8	O	1.453914	-0.271220	0.439326
O9	O	1.753191	-0.570610	0.439306
O10	O	1.582998	-0.271180	0.567697
O11	O	1.453816	-0.441604	0.269889
O12	O	1.283539	-0.441530	0.439288
O13	O	1.453897	-0.570481	0.737056
O14	O	1.283531	-0.570533	0.567630
O15	O	1.582988	-0.441439	0.737085
O16	O	1.582815	-0.740921	0.439268
O17	O	1.453799	-0.740865	0.567619
C18	C	1.245414	-0.506030	0.503457
C19	C	1.128637	-0.506048	0.503473
C20	C	1.518323	-0.779014	0.503460
C21	C	1.518394	-0.895791	0.503488
C22	C	0.909280	-0.371859	0.637406
C23	C	0.964185	-0.304742	0.704342
C24	C	1.073907	-0.304724	0.704324
C25	C	1.128726	-0.371833	0.637364
C26	C	1.073821	-0.438950	0.570428
C27	C	0.964097	-0.438958	0.570451
C28	C	1.073732	-0.573165	0.436537
C29	C	0.964011	-0.573180	0.436548
C30	C	1.128551	-0.640273	0.369577
C31	C	1.073646	-0.707387	0.302633
C32	C	0.963918	-0.707401	0.302653
C33	C	0.909105	-0.640296	0.369611
C34	C	1.652708	-0.895592	0.637261
C35	C	1.719899	-0.950353	0.704155
C36	C	1.719961	-1.060074	0.704178
C37	C	1.652824	-1.115037	0.637301
C38	C	1.585634	-1.060276	0.570407
C39	C	1.585581	-0.950552	0.570389
C40	C	1.451316	-1.060475	0.436640
C41	C	1.451257	-0.950754	0.436611
C42	C	1.384178	-1.115438	0.369764
C43	C	1.316992	-1.060677	0.302862
C44	C	1.316933	-0.950949	0.302842
C45	C	1.384067	-0.895992	0.369717
C46	C	1.792415	-0.506064	0.503499
C47	C	1.909192	-0.506071	0.503508
C48	C	1.518453	-0.505946	0.776048
C49	C	1.518483	-0.505903	0.892201
C50	C	1.518469	-0.232013	0.503518
C51	C	1.518506	-0.115236	0.503535
C52	C	1.518371	-0.506071	0.231968
C53	C	1.518544	-0.505818	0.115815
C54	C	1.582369	-0.442036	0.944000
C55	C	1.582402	-0.441990	1.064051
H56	H	0.819939	-0.371844	0.637405
C57	C	1.249248	-0.640248	0.369555
N58	N	1.340158	-0.640225	0.369532
H59	H	1.652872	-1.204378	0.637334
C60	C	1.134304	-0.230893	0.777957
N61	N	1.179795	-0.175281	0.833416
C62	C	1.384262	-1.236135	0.369778
N63	N	1.384330	-1.327045	0.369780
C64	C	1.656292	-0.368116	1.124227
N65	N	1.711946	-0.312470	1.169554
C66	C	1.444647	-0.579692	1.055645
N67	N	1.388987	-0.635331	1.010318
H68	H	1.118288	-0.762026	0.248125
H69	H	1.262329	-1.105436	0.248422
H70	H	1.262215	-0.906368	0.248373
H71	H	0.919220	-0.762061	0.248150
H72	H	0.919540	-0.250107	0.758862
H73	H	0.819764	-0.640289	0.369621
C74	C	1.656226	-0.368208	0.883847
N75	N	1.711857	-0.312598	0.838542
H76	H	1.463807	-0.560540	0.936731
H77	H	1.774559	-0.905592	0.758608
C78	C	1.249423	-0.371813	0.637352
N79	N	1.340333	-0.371796	0.637340
H80	H	1.652674	-0.806250	0.637239
H81	H	1.774662	-1.104661	0.758660
H82	H	1.384030	-0.806651	0.369702
