data_functionalizedCrystal
_audit_creation_method	'MofGen! by Chris Wilmer'
_symmetry_space_group_name_H-M	'P1'
_symmetry_Int_Tables_number	1
_symmetry_cell_setting	triclinic
loop_
_symmetry_equiv_pos_as_xyz
  x,y,z
_cell_length_a	18.101398
_cell_length_b	16.625546
_cell_length_c	16.625539
_cell_angle_alpha	90.028532
_cell_angle_beta	89.977600
_cell_angle_gamma	89.982266
loop_
_atom_site_label
_atom_site_type_symbol
_atom_site_fract_x
_atom_site_fract_y
_atom_site_fract_z
Zn1	Zn	1.132151	0.321117	-0.456013
Zn2	Zn	1.382151	0.571117	-0.206013
Zn3	Zn	1.632151	0.821117	0.043987
Zn4	Zn	1.882151	1.071117	0.293987
Zn5	Zn	1.132070	0.455956	-0.321175
Zn6	Zn	1.382070	0.705956	-0.071175
Zn7	Zn	1.632070	0.955956	0.178825
Zn8	Zn	1.882070	1.205956	0.428825
Zn9	Zn	1.008314	0.321129	-0.321180
Zn10	Zn	1.258314	0.571129	-0.071180
Zn11	Zn	1.508314	0.821129	0.178820
Zn12	Zn	1.758314	1.071129	0.428820
Zn13	Zn	1.008280	0.455900	-0.455952
Zn14	Zn	1.258280	0.705900	-0.205952
Zn15	Zn	1.508280	0.955900	0.044048
Zn16	Zn	1.758280	1.205900	0.294048
O17	O	1.070204	0.388525	-0.388580
O18	O	1.320204	0.638525	-0.138580
O19	O	1.570204	0.888525	0.111420
O20	O	1.820204	1.138525	0.361420
O21	O	1.235773	0.339021	-0.438149
O22	O	1.485773	0.589021	-0.188149
O23	O	1.735773	0.839021	0.061851
O24	O	1.985773	1.089021	0.311851
O25	O	1.115634	0.438099	-0.208343
O26	O	1.365634	0.688099	0.041657
O27	O	1.615634	0.938099	0.291657
O28	O	1.865634	1.188099	0.541657
O29	O	1.024790	0.208295	-0.339094
O30	O	1.274790	0.458295	-0.089094
O31	O	1.524790	0.708295	0.160906
O32	O	1.774790	0.958295	0.410906
O33	O	1.235714	0.438087	-0.339084
O34	O	1.485714	0.688087	-0.089084
O35	O	1.735714	0.938087	0.160916
O36	O	1.985714	1.188087	0.410916
O37	O	1.115773	0.208286	-0.438154
O38	O	1.365773	0.458286	-0.188154
O39	O	1.615773	0.708286	0.061846
O40	O	1.865773	0.958286	0.311846
O41	O	1.024711	0.339043	-0.208347
O42	O	1.274711	0.589043	0.041653
O43	O	1.524711	0.839043	0.291653
O44	O	1.774711	1.089043	0.541653
O45	O	0.904677	0.338989	-0.339035
O46	O	1.154677	0.588989	-0.089035
O47	O	1.404677	0.838989	0.160965
O48	O	1.654677	1.088989	0.410965
O49	O	1.024731	0.437992	-0.568793
O50	O	1.274731	0.687992	-0.318793
O51	O	1.524731	0.937992	-0.068793
O52	O	1.774731	1.187992	0.181207
O53	O	0.904651	0.438004	-0.438051
O54	O	1.154651	0.688004	-0.188051
O55	O	1.404651	0.938004	0.061949
O56	O	1.654651	1.188004	0.311949
O57	O	1.115739	0.338968	-0.568837
O58	O	1.365739	0.588968	-0.318837
O59	O	1.615739	0.838968	-0.068837
O60	O	1.865739	1.088968	0.181163
O61	O	1.115600	0.568781	-0.339026
O62	O	1.365600	0.818781	-0.089026
O63	O	1.615600	1.068781	0.160974
O64	O	1.865600	1.318781	0.410974
O65	O	1.024652	0.568740	-0.438046
O66	O	1.274652	0.818740	-0.188046
O67	O	1.524652	1.068740	0.061954
O68	O	1.774652	1.318740	0.311954
C69	C	0.877793	0.388493	-0.388538
C70	C	1.127793	0.638493	-0.138538
C71	C	1.377793	0.888493	0.111462
C72	C	1.627793	1.138493	0.361462
C73	C	0.795479	0.388498	-0.388539
C74	C	1.045479	0.638498	-0.138539
C75	C	1.295479	0.888498	0.111461
C76	C	1.545479	1.138498	0.361461
C77	C	1.070134	0.598016	-0.388546
C78	C	1.320134	0.848016	-0.138546
C79	C	1.570134	1.098016	0.111454
C80	C	1.820134	1.348016	0.361454
C81	C	1.070172	0.687637	-0.388559
C82	C	1.320172	0.937637	-0.138559
C83	C	1.570172	1.187637	0.111441
C84	C	1.820172	1.437637	0.361441
C85	C	1.070240	0.388472	-0.598889
C86	C	1.320240	0.638472	-0.348889
C87	C	1.570240	0.888472	-0.098889
C88	C	1.820240	1.138472	0.151111
C89	C	1.070256	0.388450	-0.688510
C90	C	1.320256	0.638450	-0.438510
C91	C	1.570256	0.888450	-0.188510
C92	C	1.820256	1.138450	0.061490
C93	C	0.496388	0.388548	-0.388607
C94	C	0.746388	0.638548	-0.138607
C95	C	0.996388	0.888548	0.111393
C96	C	1.246388	1.138548	0.361393
C97	C	0.527705	0.325939	-0.326612
C98	C	0.777705	0.575939	-0.076612
C99	C	1.027705	0.825939	0.173388
C100	C	1.277705	1.075939	0.423388
C101	C	0.613323	0.326107	-0.326348
C102	C	0.863323	0.576107	-0.076348
C103	C	1.113323	0.826107	0.173652
C104	C	1.363323	1.076107	0.423652
C105	C	0.644771	0.388523	-0.388573
C106	C	0.894771	0.638523	-0.138573
C107	C	1.144771	0.888523	0.111427
C108	C	1.394771	1.138523	0.361427
C109	C	0.613665	0.473459	-0.365354
C110	C	0.863665	0.723459	-0.115354
C111	C	1.113665	0.973459	0.134646
C112	C	1.363665	1.223459	0.384646
C113	C	0.528020	0.473111	-0.364923
C114	C	0.778020	0.723111	-0.114923
C115	C	1.028020	0.973111	0.135077
C116	C	1.278020	1.223111	0.385077
C117	C	0.527997	0.366960	-0.473966
C118	C	0.777997	0.616960	-0.223966
C119	C	1.027997	0.866960	0.026034
C120	C	1.277997	1.116960	0.276034
C121	C	0.613648	0.365068	-0.473500
C122	C	0.863648	0.615068	-0.223500
C123	C	1.113648	0.865068	0.026500
C124	C	1.363648	1.115068	0.276500
C125	C	0.728630	0.388514	-0.388556
C126	C	0.978630	0.638514	-0.138556
C127	C	1.228630	0.888514	0.111444
C128	C	1.478630	1.138514	0.361444
C129	C	0.412529	0.388563	-0.388622
C130	C	0.662529	0.638563	-0.138622
C131	C	0.912529	0.888563	0.111378
C132	C	1.162529	1.138563	0.361378
C133	C	1.263366	0.388559	-0.388623
C134	C	1.513366	0.638559	-0.138623
C135	C	1.763366	0.888559	0.111377
C136	C	2.013366	1.138559	0.361377
C137	C	1.345680	0.388573	-0.388641
C138	C	1.595680	0.638573	-0.138641
C139	C	1.845680	0.888573	0.111359
C140	C	2.095680	1.138573	0.361359
C141	C	1.070294	0.178217	-0.388632
C142	C	1.320294	0.428217	-0.138632
C143	C	1.570294	0.678217	0.111368
C144	C	1.820294	0.928217	0.361368
C145	C	1.070333	0.088595	-0.388654
C146	C	1.320333	0.338595	-0.138654
C147	C	1.570333	0.588595	0.111346
C148	C	1.820333	0.838595	0.361346
C149	C	1.070301	1.015813	-0.388643
C150	C	1.320301	1.265813	-0.138643
C151	C	1.570301	1.515813	0.111357
C152	C	1.820301	1.765813	0.361357
C153	C	1.070262	0.924505	-0.388622
C154	C	1.320262	1.174505	-0.138622
C155	C	1.570262	1.424505	0.111378
C156	C	1.820262	1.674505	0.361378
C157	C	1.070236	0.851728	-0.388600
C158	C	1.320236	1.101728	-0.138600
C159	C	1.570236	1.351728	0.111400
C160	C	1.820236	1.601728	0.361400
C161	C	1.070198	0.760414	-0.388580
C162	C	1.320198	1.010414	-0.138580
C163	C	1.570198	1.260414	0.111420
C164	C	1.820198	1.510414	0.361420
C165	C	1.070268	0.388432	-0.761293
C166	C	1.320268	0.638432	-0.511293
C167	C	1.570268	0.888432	-0.261293
C168	C	1.820268	1.138432	-0.011293
C169	C	1.070285	0.388402	-0.852601
C170	C	1.320285	0.638402	-0.602601
C171	C	1.570285	0.888402	-0.352601
C172	C	1.820285	1.138402	-0.102601
C173	C	1.070302	0.388373	-0.925378
C174	C	1.320302	0.638373	-0.675378
C175	C	1.570302	0.888373	-0.425378
C176	C	1.820302	1.138373	-0.175378
C177	C	1.070321	0.388344	-1.016692
C178	C	1.320321	0.638344	-0.766692
C179	C	1.570321	0.888344	-0.516692
C180	C	1.820321	1.138344	-0.266692
C181	C	1.070210	0.388520	-0.179089
C182	C	1.320210	0.638520	0.070911
C183	C	1.570210	0.888520	0.320911
C184	C	1.820210	1.138520	0.570911
C185	C	1.070338	0.388316	-0.089469
C186	C	1.320338	0.638316	0.160531
C187	C	1.570338	0.888316	0.410531
C188	C	1.820338	1.138316	0.660531
H189	H	0.634354	0.263123	-0.340902
H190	H	0.884354	0.513123	-0.090902
H191	H	1.134354	0.763123	0.159098
H192	H	1.384354	1.013123	0.409098
O193	O	0.640426	0.345015	-0.242567
O194	O	0.890426	0.595015	0.007433
O195	O	1.140426	0.845015	0.257433
O196	O	1.390426	1.095015	0.507433
H197	H	0.701742	0.345193	-0.242083
H198	H	0.951742	0.595193	0.007917
H199	H	1.201742	0.845193	0.257917
H200	H	1.451742	1.095193	0.507917
H201	H	0.506416	0.306102	-0.495077
H202	H	0.756416	0.556102	-0.245077
H203	H	1.006416	0.806102	0.004923
H204	H	1.256416	1.056102	0.254923
H205	H	0.635057	0.407346	-0.522166
H206	H	0.885057	0.657346	-0.272166
H207	H	1.135057	0.907346	-0.022166
H208	H	1.385057	1.157346	0.227834
H209	H	0.634035	0.521357	-0.409094
H210	H	0.884035	0.771357	-0.159094
H211	H	1.134035	1.021357	0.090906
H212	H	1.384035	1.271357	0.340906
H213	H	0.507125	0.262763	-0.341007
H214	H	0.757125	0.512763	-0.091007
H215	H	1.007125	0.762763	0.158993
H216	H	1.257125	1.012763	0.408993
H217	H	0.506159	0.340050	-0.263730
H218	H	0.756159	0.590050	-0.013730
H219	H	1.006159	0.840050	0.236270
H220	H	1.256159	1.090050	0.486270
O221	O	0.501508	0.497350	-0.282264
O222	O	0.751508	0.747350	-0.032264
O223	O	1.001508	0.997350	0.217736
O224	O	1.251508	1.247350	0.467736
H225	H	0.549859	0.509207	-0.242974
H226	H	0.799859	0.759207	0.007026
H227	H	1.049859	1.009207	0.257026
H228	H	1.299859	1.259207	0.507026
O229	O	0.500568	0.536986	-0.422128
O230	O	0.750568	0.786986	-0.172128
O231	O	1.000568	1.036986	0.077872
O232	O	1.250568	1.286986	0.327872
H233	H	0.548467	0.567994	-0.449970
H234	H	0.798467	0.817994	-0.199970
H235	H	1.048467	1.067994	0.050030
H236	H	1.298467	1.317994	0.300030
O237	O	0.642024	0.498137	-0.283584
O238	O	0.892024	0.748137	-0.033584
O239	O	1.142024	0.998137	0.216416
O240	O	1.392024	1.248137	0.466416
H241	H	0.678263	0.450050	-0.259351
H242	H	0.928263	0.700050	-0.009351
H243	H	1.178263	0.950050	0.240649
H244	H	1.428263	1.200050	0.490649
H245	H	0.633983	0.302565	-0.491008
H246	H	0.883983	0.552565	-0.241008
H247	H	1.133983	0.802565	0.008992
H248	H	1.383983	1.052565	0.258992
O249	O	0.501169	0.427354	-0.535161
O250	O	0.751169	0.677354	-0.285161
O251	O	1.001169	0.927354	-0.035161
O252	O	1.251169	1.177354	0.214839
H253	H	0.465496	0.472530	-0.504979
H254	H	0.715496	0.722530	-0.254979
H255	H	0.965496	0.972530	-0.004979
H256	H	1.215496	1.222530	0.245021
