data_functionalizedCrystal
_audit_creation_method	'MofGen! by Chris Wilmer'
_symmetry_space_group_name_H-M	'P1'
_symmetry_Int_Tables_number	1
_symmetry_cell_setting	triclinic
loop_
_symmetry_equiv_pos_as_xyz
  x,y,z
_cell_length_a	10.723024
_cell_length_b	14.853567
_cell_length_c	9.198806
_cell_angle_alpha	90.000611
_cell_angle_beta	89.996352
_cell_angle_gamma	84.051400
loop_
_atom_site_label
_atom_site_type_symbol
_atom_site_fract_x
_atom_site_fract_y
_atom_site_fract_z
O1	O	1.655909	0.126445	-0.120870
O2	O	1.292634	0.138549	-0.120873
O3	O	1.483975	0.001318	-0.120876
O4	O	1.464568	0.263675	-0.120867
O5	O	1.483960	0.001318	0.120909
O6	O	1.292619	0.138548	0.120912
O7	O	1.655894	0.126445	0.120915
Cu8	Cu	1.474255	0.132497	0.142991
Cu9	Cu	1.474273	0.132497	-0.142948
O10	O	1.464553	0.263675	0.120918
C11	C	1.246136	0.137668	0.000019
C12	C	1.107608	0.135032	0.000017
C13	C	1.483088	-0.032275	0.000013
C14	C	1.480453	-0.132373	-0.000000
C15	C	1.031849	0.211819	0.000018
C16	C	0.888673	0.209097	0.000016
C17	C	1.355653	-0.545565	0.000026
C18	C	1.582971	-0.565646	0.000029
C19	C	1.585448	-0.471599	0.000020
C20	C	1.473027	-0.414531	0.000017
C21	C	1.358127	-0.451510	0.000022
C22	C	1.700345	-0.434614	0.000029
C23	C	1.702828	-0.340562	0.000022
C24	C	1.590405	-0.283491	0.000009
C25	C	1.475501	-0.320475	0.000013
C26	C	1.363079	-0.263407	0.000009
C27	C	1.248174	-0.300389	0.000003
C28	C	1.245704	-0.394440	0.000009
C29	C	1.592874	-0.189441	0.000003
C30	C	1.365554	-0.169351	0.000005
C31	C	1.702392	0.127326	0.000020
C32	C	1.840919	0.129961	0.000013
C33	C	1.465439	0.297269	0.000026
C34	C	1.468075	0.397366	0.000030
N35	N	1.474251	0.132496	0.344104
N36	N	1.474286	0.132491	-0.344062
C37	C	1.554592	0.074623	0.416300
C38	C	1.554612	0.074619	0.583713
H39	H	0.823575	0.274833	0.000012
O40	O	1.645741	0.008990	0.665936
H41	H	1.629482	-0.061362	0.636801
H42	H	0.906010	0.064222	0.000002
H43	H	1.674499	-0.612116	0.000043
H44	H	1.066471	0.067277	-0.000023
H45	H	1.405504	0.182044	0.593862
H46	H	1.274005	-0.122892	-0.000004
O47	O	1.383160	0.198142	0.426372
H48	H	1.322346	0.159894	0.495745
H49	H	1.796390	-0.310459	0.000026
O50	O	1.231729	-0.585453	0.000030
H51	H	1.177711	-0.562593	-0.098523
O52	O	1.086319	0.301576	0.000022
H53	H	1.190227	0.289629	0.000014
O54	O	1.716796	-0.149556	0.000011
H55	H	1.699632	-0.074570	0.000013
H56	H	1.623358	0.025074	0.354173
O57	O	1.126918	-0.238836	0.000012
H58	H	1.122613	-0.195507	-0.098536
O59	O	1.121783	-0.434332	0.000033
H60	H	1.115224	-0.476717	-0.098497
O61	O	1.821596	-0.496160	0.000053
H62	H	1.800569	-0.567772	0.000044
