data_functionalizedCrystal
_audit_creation_method	'MofGen! by Chris Wilmer'
_symmetry_space_group_name_H-M	'P1'
_symmetry_Int_Tables_number	1
_symmetry_cell_setting	triclinic
loop_
_symmetry_equiv_pos_as_xyz
  x,y,z
_cell_length_a	17.699083
_cell_length_b	17.699083
_cell_length_c	16.776229
_cell_angle_alpha	89.992455
_cell_angle_beta	89.998886
_cell_angle_gamma	83.283015
loop_
_atom_site_label
_atom_site_type_symbol
_atom_site_fract_x
_atom_site_fract_y
_atom_site_fract_z
O1	O	1.004078	0.095713	-0.066178
O2	O	1.504078	0.595713	0.433822
O3	O	0.783700	0.108165	-0.066204
O4	O	1.283700	0.608165	0.433796
O5	O	0.900116	-0.008250	-0.066183
O6	O	1.400116	0.491750	0.433817
O7	O	0.887663	0.212128	-0.066199
O8	O	1.387663	0.712128	0.433801
O9	O	0.900100	-0.008257	0.066393
O10	O	1.400100	0.491743	0.566393
O11	O	0.783685	0.108158	0.066372
O12	O	1.283685	0.608158	0.566372
O13	O	1.004063	0.095706	0.066398
O14	O	1.504063	0.595706	0.566398
Zn15	Zn	0.893871	0.101931	0.087435
Zn16	Zn	1.393871	0.601931	0.587435
Zn17	Zn	0.893892	0.101940	-0.087241
Zn18	Zn	1.393892	0.601940	0.412759
O19	O	0.887648	0.212121	0.066378
O20	O	1.387648	0.712121	0.566378
C21	C	0.755495	0.107716	0.000081
C22	C	1.255495	0.607716	0.500081
C23	C	0.671477	0.106377	0.000071
C24	C	1.171477	0.606377	0.500071
C25	C	0.622856	0.174710	0.000066
C26	C	1.122856	0.674710	0.500066
C27	C	0.543913	0.173448	0.000077
C28	C	1.043913	0.673448	0.500077
C29	C	0.513592	0.103852	0.000086
C30	C	1.013592	0.603852	0.500086
C31	C	0.562219	0.035513	0.000093
C32	C	1.062219	0.535513	0.500093
C33	C	0.641161	0.036776	0.000088
C34	C	1.141161	0.536776	0.500088
C35	C	0.243856	0.030418	0.000113
C36	C	0.743856	0.530418	0.500113
C37	C	0.164908	0.029160	0.000115
C38	C	0.664908	0.529160	0.500115
C39	C	0.146608	0.167090	0.000101
C40	C	0.646608	0.667090	0.500101
C41	C	0.225550	0.168353	0.000097
C42	C	0.725550	0.668353	0.500097
C43	C	0.274170	0.100015	0.000108
C44	C	0.774170	0.600015	0.500108
C45	C	0.359769	0.101384	0.000098
C46	C	0.859769	0.601384	0.500098
C47	C	0.427995	0.102481	0.000090
C48	C	0.927995	0.602481	0.500090
C49	C	0.899662	-0.036451	0.000105
C50	C	1.399662	0.463549	0.500105
C51	C	0.898323	-0.120469	0.000105
C52	C	1.398323	0.379531	0.500105
C53	C	0.966656	-0.169090	0.000114
C54	C	1.466656	0.330910	0.500114
C55	C	0.965394	-0.248033	0.000107
C56	C	1.465394	0.251967	0.500107
C57	C	0.895798	-0.278354	0.000096
C58	C	1.395798	0.221646	0.500096
C59	C	0.827459	-0.229727	0.000085
C60	C	1.327459	0.270273	0.500085
C61	C	0.828722	-0.150785	0.000086
C62	C	1.328722	0.349215	0.500086
C63	C	0.822364	-0.548090	0.000078
C64	C	1.322364	-0.048090	0.500078
C65	C	0.821106	-0.627038	0.000078
C66	C	1.321106	-0.127038	0.500078
C67	C	0.959036	-0.645338	0.000099
C68	C	1.459036	-0.145338	0.500099
C69	C	0.960299	-0.566396	0.000100
C70	C	1.460299	-0.066396	0.500100
C71	C	0.891961	-0.517776	0.000084
C72	C	1.391961	-0.017776	0.500084
C73	C	0.893330	-0.432177	0.000090
C74	C	1.393330	0.067823	0.500090
C75	C	0.894427	-0.363951	0.000096
C76	C	1.394427	0.136049	0.500096
C77	C	1.032268	0.096156	0.000112
C78	C	1.532268	0.596156	0.500112
C79	C	1.116286	0.097494	0.000116
C80	C	1.616286	0.597494	0.500116
C81	C	0.888102	0.240322	0.000087
C82	C	1.388102	0.740322	0.500087
C83	C	0.889440	0.324340	0.000082
C84	C	1.389440	0.824340	0.500082
N85	N	0.893863	0.101924	0.206646
N86	N	1.393863	0.601924	0.706646
N87	N	0.893906	0.101941	-0.206452
N88	N	1.393906	0.601941	0.293548
C89	C	0.945428	0.050396	0.248372
C90	C	1.445428	0.550396	0.748372
C91	C	0.945432	0.050396	0.331824
C92	C	1.445432	0.550396	0.831824
C93	C	0.893875	0.101927	0.373549
C94	C	1.393875	0.601927	0.873549
C95	C	0.842305	0.153457	0.331817
C96	C	1.342305	0.653457	0.831817
C97	C	0.842297	0.153454	0.248366
C98	C	1.342297	0.653454	0.748366
C99	C	0.842332	0.153472	0.668364
C100	C	1.342332	0.653472	1.168364
C101	C	0.842345	0.153473	0.751820
C102	C	1.342345	0.653473	1.251820
C103	C	0.945466	0.050414	0.751822
C104	C	1.445466	0.550414	1.251822
C105	C	0.945459	0.050411	0.668372
C106	C	1.445459	0.550411	1.168372
C107	C	0.893887	0.101938	0.626647
C108	C	1.393887	0.601938	1.126647
C109	C	0.893882	0.101937	0.536158
C110	C	1.393882	0.601937	1.036158
C111	C	0.893882	0.101932	0.464036
C112	C	1.393882	0.601932	0.964036
H113	H	0.107012	0.222734	0.000097
H114	H	0.607012	0.722734	0.500097
F115	F	0.692907	-0.035954	0.000096
F116	F	1.192907	0.464046	0.500096
F117	F	0.257815	0.242427	0.000082
F118	F	0.757815	0.742427	0.500082
F119	F	1.000311	-0.004446	0.376233
F120	F	1.500311	0.495554	0.876233
H121	H	0.537526	-0.021154	0.000112
H122	H	1.037526	0.478846	0.500112
F123	F	0.132641	-0.044918	0.000125
F124	F	0.632641	0.455082	0.500125
H125	H	0.987444	0.008452	0.634402
H126	H	1.487444	0.508452	1.134402
F127	F	1.000353	-0.004429	0.796235
F128	F	1.500353	0.495571	1.296235
F129	F	0.787467	0.208322	0.796225
F130	F	1.287467	0.708322	1.296225
F131	F	0.747028	-0.659305	0.000066
F132	F	1.247028	-0.159305	0.500066
H133	H	0.283434	-0.025228	0.000123
H134	H	0.783434	0.474772	0.500123
H135	H	0.800342	0.195428	0.634398
H136	H	1.300342	0.695428	1.134398
H137	H	1.021038	-0.287618	0.000116
H138	H	1.521038	0.212382	0.500116
F139	F	0.655118	0.248786	0.000051
F140	F	1.155118	0.748786	0.500051
H141	H	1.016971	-0.541714	0.000113
H142	H	1.516971	-0.041714	0.500113
H143	H	0.987414	0.008437	0.214406
H144	H	1.487414	0.508437	0.714406
H145	H	1.014680	-0.684934	0.000107
H146	H	1.514680	-0.184934	0.500107
H147	H	1.023330	-0.144409	0.000128
H148	H	1.523330	0.355591	0.500128
H149	H	0.800322	0.195412	0.365793
H150	H	1.300322	0.695412	0.865793
F151	F	0.787413	0.208294	0.203959
F152	F	1.287413	0.708294	0.703959
F153	F	0.749632	-0.496354	0.000059
F154	F	1.249632	0.003646	0.500059
F155	F	0.755992	-0.099039	0.000074
F156	F	1.255992	0.400961	0.500074
F157	F	0.492170	0.246178	0.000068
F158	F	0.992170	0.746178	0.500068
F159	F	0.753389	-0.261998	0.000064
F160	F	1.253389	0.238002	0.500064
