data_functionalizedCrystal
_audit_creation_method	'MofGen! by Chris Wilmer'
_symmetry_space_group_name_H-M	'P1'
_symmetry_Int_Tables_number	1
_symmetry_cell_setting	triclinic
loop_
_symmetry_equiv_pos_as_xyz
  x,y,z
_cell_length_a	13.339070
_cell_length_b	15.625429
_cell_length_c	11.804365
_cell_angle_alpha	84.259068
_cell_angle_beta	74.875130
_cell_angle_gamma	99.150231
loop_
_atom_site_label
_atom_site_type_symbol
_atom_site_fract_x
_atom_site_fract_y
_atom_site_fract_z
O1	O	1.400314	0.415306	-0.278380
O2	O	1.900314	0.915306	0.221620
O3	O	1.100705	0.359169	-0.254135
O4	O	1.600705	0.859169	0.245865
O5	O	1.247492	0.264952	-0.213453
O6	O	1.747492	0.764952	0.286547
O7	O	1.253527	0.509523	-0.319062
O8	O	1.753527	1.009523	0.180938
O9	O	1.208846	0.289721	-0.026092
O10	O	1.708846	0.789721	0.473908
O11	O	1.062059	0.383937	-0.066775
O12	O	1.562059	0.883937	0.433225
O13	O	1.361668	0.440075	-0.091019
O14	O	1.861668	0.940075	0.408981
Cu15	Cu	1.208334	0.414268	-0.061789
Cu16	Cu	1.708334	0.914268	0.438211
Cu17	Cu	1.254038	0.384976	-0.283365
Cu18	Cu	1.754038	0.884976	0.216635
O19	O	1.214880	0.534291	-0.131702
O20	O	1.714880	1.034291	0.368298
C21	C	1.042834	0.362070	-0.156360
C22	C	1.542834	0.862070	0.343640
C23	C	0.927974	0.333805	-0.144153
C24	C	1.427974	0.833805	0.355847
C25	C	1.224613	0.245394	-0.105982
C26	C	1.724613	0.745394	0.394018
C27	C	1.214004	0.150214	-0.064889
C28	C	1.714004	0.650214	0.435111
C29	C	0.583078	0.553582	-0.239075
C30	C	1.083078	1.053582	0.260925
C31	C	0.690995	0.580141	-0.250549
C32	C	1.190995	1.080141	0.249451
C33	C	0.750245	0.518560	-0.223950
C34	C	1.250245	1.018560	0.276050
C35	C	0.701567	0.430414	-0.185878
C36	C	1.201567	0.930414	0.314122
C37	C	0.593640	0.403851	-0.174412
C38	C	1.093640	0.903851	0.325588
C39	C	0.760808	0.368828	-0.159287
C40	C	1.260808	0.868828	0.340713
C41	C	0.712130	0.280682	-0.121214
C42	C	1.212130	0.780682	0.378786
C43	C	0.604214	0.254124	-0.109749
C44	C	1.104214	0.754124	0.390251
C45	C	0.544964	0.315706	-0.136348
C46	C	1.044964	0.815706	0.363652
C47	C	0.868734	0.395391	-0.170753
C48	C	1.368734	0.895391	0.329247
C49	C	0.879297	0.245660	-0.106089
C50	C	1.379297	0.745660	0.393911
C51	C	0.771380	0.219100	-0.094616
C52	C	1.271380	0.719100	0.405384
C53	C	1.284405	-0.230333	-0.440348
C54	C	1.784405	0.269667	0.059652
C55	C	1.274424	-0.319765	-0.401699
C56	C	1.774424	0.180235	0.098301
C57	C	1.232294	-0.292750	-0.197452
C58	C	1.732294	0.207250	0.302548
C59	C	1.242277	-0.203313	-0.236083
C60	C	1.742277	0.296687	0.263917
C61	C	1.268331	-0.172112	-0.357532
C62	C	1.768331	0.327888	0.142468
C63	C	1.226203	-0.145092	-0.153268
C64	C	1.726203	0.354908	0.346732
C65	C	1.236179	-0.055663	-0.191896
C66	C	1.736179	0.444337	0.308104
C67	C	1.262229	-0.024456	-0.313340
C68	C	1.762229	0.475544	0.186660
C69	C	1.278307	-0.082683	-0.396161
C70	C	1.778307	0.417317	0.103839
C71	C	1.200142	-0.176296	-0.031819
C72	C	1.700142	0.323704	0.468181
C73	C	1.184068	-0.118075	0.050996
C74	C	1.684068	0.381925	0.550996
C75	C	1.194051	-0.028643	0.012368
C76	C	1.694051	0.471357	0.512368
C77	C	1.220101	0.002564	-0.109076
C78	C	1.720101	0.502564	0.390924
C79	C	1.177973	0.029584	0.095189
C80	C	1.677973	0.529584	0.595189
C81	C	1.187949	0.119013	0.056560
C82	C	1.687949	0.619013	0.556560
C83	C	1.230077	0.091993	-0.147704
C84	C	1.730077	0.591993	0.352296
C85	C	1.419539	0.437173	-0.188797
C86	C	1.919539	0.937173	0.311203
C87	C	1.534401	0.465437	-0.201011
C88	C	2.034401	0.965437	0.298989
C89	C	1.237760	0.553849	-0.239175
C90	C	1.737760	1.053849	0.260825
C91	C	1.248371	0.649028	-0.280275
C92	C	1.748371	1.149028	0.219725
N93	N	1.176196	0.434871	0.094055
N94	N	1.676196	0.934871	0.594055
N95	N	1.286184	0.364367	-0.439207
N96	N	1.786184	0.864367	0.060793
C97	C	1.363359	0.314873	0.519818
C98	C	1.863359	0.814873	1.019818
C99	C	1.387670	0.299283	0.401888
C100	C	1.887670	0.799283	0.901888
C101	C	1.334803	0.333178	0.324924
C102	C	1.834803	0.833178	0.824924
C103	C	1.257622	0.382668	0.365901
C104	C	1.757622	0.882668	0.865901
C105	C	1.233314	0.398266	0.483840
C106	C	1.733314	0.898266	0.983840
C107	C	1.204759	0.416571	0.288946
C108	C	1.704759	0.916571	0.788946
C109	C	1.127577	0.466060	0.329923
C110	C	1.627577	0.966060	0.829923
C111	C	1.103273	0.481655	0.447851
C112	C	1.603273	0.981655	0.947851
C113	C	1.156140	0.447759	0.524815
C114	C	1.656140	0.947759	1.024815
C115	C	1.229066	0.400973	0.171008
C116	C	1.729066	0.900973	0.671008
C117	C	1.099022	0.484365	0.135030
C118	C	1.599022	0.984365	0.635030
C119	C	1.074711	0.499956	0.252959
C120	C	1.574711	0.999956	0.752959
H121	H	0.908356	0.467160	-0.201747
H122	H	1.408356	0.967160	0.298253
H123	H	1.174839	0.166416	0.123998
H124	H	1.674839	0.666416	0.623998
H125	H	1.156750	0.004165	0.194073
H126	H	1.656750	0.504165	0.694073
H127	H	1.192009	-0.249116	-0.000371
H128	H	1.692009	0.250884	0.499629
H129	H	1.055975	0.511968	0.072364
H130	H	1.555975	1.011968	0.572364
H131	H	0.838117	0.540189	-0.233297
H132	H	1.338117	1.040189	0.266703
H133	H	0.457088	0.294086	-0.127007
H134	H	0.957088	0.794086	0.372993
H135	H	1.040436	0.521960	0.481210
H136	H	1.540436	1.021960	0.981210
H137	H	0.730623	0.651908	-0.281556
H138	H	1.230623	1.151908	0.218444
H139	H	0.927539	0.195514	-0.084435
H140	H	1.427539	0.695514	0.415565
H141	H	1.162850	-0.143492	0.149881
H142	H	1.662850	0.356508	0.649881
H143	H	1.251302	0.117399	-0.246601
H144	H	1.751302	0.617399	0.253399
H145	H	1.287506	-0.367169	-0.469146
H146	H	1.787506	0.132831	0.030854
H147	H	1.354601	0.320482	0.228901
H148	H	1.854601	0.820482	0.728901
H149	H	1.450511	0.258990	0.368529
H150	H	1.950511	0.758990	0.868529
H151	H	0.564586	0.182348	-0.078761
H152	H	1.064586	0.682348	0.421239
H153	H	1.406401	0.287286	0.582486
H154	H	1.906401	0.787286	1.082486
H155	H	1.136343	0.460450	0.620845
H156	H	1.636343	0.960450	1.120845
H157	H	1.011868	0.540251	0.286337
H158	H	1.511868	1.040251	0.786337
H159	H	0.731732	0.147329	-0.063625
H160	H	1.231732	0.647329	0.436375
H161	H	0.534829	0.603711	-0.260737
H162	H	1.034829	1.103711	0.239263
H163	H	1.270340	0.048362	-0.344789
H164	H	1.770340	0.548362	0.155211
H165	H	1.299532	-0.057277	-0.495057
H166	H	1.799532	0.442723	0.004943
H167	H	1.305630	-0.204927	-0.539244
H168	H	1.805630	0.295073	-0.039244
H169	H	1.211077	-0.318167	-0.098567
H170	H	1.711077	0.181833	0.401433
H171	H	1.291907	0.360679	0.137655
H172	H	1.791907	0.860679	0.637655
