data_functionalizedCrystal
_audit_creation_method	'MofGen! by Chris Wilmer'
_symmetry_space_group_name_H-M	'P1'
_symmetry_Int_Tables_number	1
_symmetry_cell_setting	triclinic
loop_
_symmetry_equiv_pos_as_xyz
  x,y,z
_cell_length_a	10.685976
_cell_length_b	10.686285
_cell_length_c	19.077174
_cell_angle_alpha	87.730334
_cell_angle_beta	92.244680
_cell_angle_gamma	81.631153
loop_
_atom_site_label
_atom_site_type_symbol
_atom_site_fract_x
_atom_site_fract_y
_atom_site_fract_z
Zn1	Zn	2.001377	-0.675988	-0.283278
Zn2	Zn	2.501377	-0.175988	0.216722
Zn3	Zn	2.007705	-0.878367	-0.156676
Zn4	Zn	2.507705	-0.378367	0.343324
Zn5	Zn	1.780779	-0.651418	-0.176105
Zn6	Zn	2.280779	-0.151418	0.323895
Zn7	Zn	1.805410	-0.871929	-0.283283
Zn8	Zn	2.305410	-0.371929	0.216717
O9	O	1.898817	-0.769425	-0.224836
O10	O	2.398817	-0.269425	0.275164
O11	O	2.179198	-0.715811	-0.258351
O12	O	2.679198	-0.215811	0.241649
O13	O	1.969942	-0.840674	-0.061416
O14	O	2.469942	-0.340674	0.438584
O15	O	1.797085	-0.477696	-0.198451
O16	O	2.297085	0.022304	0.301549
O17	O	2.183847	-0.864498	-0.165337
O18	O	2.683847	-0.364498	0.334663
O19	O	1.959157	-0.495747	-0.277191
O20	O	2.459157	0.004253	0.222809
O21	O	1.803221	-0.673935	-0.075690
O22	O	2.303221	-0.173935	0.424310
O23	O	1.607064	-0.667692	-0.198455
O24	O	2.107064	-0.167692	0.301545
O25	O	1.839066	-0.853525	-0.381120
O26	O	2.339066	-0.353525	0.118880
O27	O	1.625161	-0.829701	-0.277199
O28	O	2.125161	-0.329701	0.222801
O29	O	1.983041	-0.709568	-0.381117
O30	O	2.483041	-0.209568	0.118883
O31	O	1.993827	-1.054495	-0.165342
O32	O	2.493827	-0.554495	0.334658
O33	O	1.845202	-1.049765	-0.258359
O34	O	2.345202	-0.549765	0.241641
C35	C	1.570223	-0.745333	-0.239936
C36	C	2.070223	-0.245333	0.260064
C37	C	1.429653	-0.735057	-0.246411
C38	C	1.929653	-0.235057	0.253589
C39	C	1.922909	-1.098023	-0.209756
C40	C	2.422909	-0.598023	0.290244
C41	C	1.933333	-1.238608	-0.203323
C42	C	2.433333	-0.738608	0.296677
C43	C	2.228695	-0.793613	-0.209676
C44	C	2.728695	-0.293613	0.290324
C45	C	2.369269	-0.803921	-0.203216
C46	C	2.869269	-0.303921	0.296784
C47	C	1.913095	-0.783569	-0.407196
C48	C	2.413095	-0.283569	0.092804
C49	C	1.919180	-0.789596	-0.484907
C50	C	2.419180	-0.289596	0.015093
C51	C	1.874667	-0.439549	-0.239987
C52	C	2.374667	0.060451	0.260013
C53	C	1.864376	-0.298975	-0.246444
C54	C	2.364376	0.201025	0.253556
C55	C	1.835239	-0.705618	-0.528847
C56	C	2.335239	-0.205618	-0.028847
C57	C	1.840952	-0.711291	-0.601864
C58	C	2.340952	-0.211291	-0.101864
C59	C	1.930612	-0.800938	-0.630941
C60	C	2.430612	-0.300938	-0.130941
C61	C	2.014557	-0.884925	-0.586995
C62	C	2.514557	-0.384925	-0.086995
C63	C	2.008837	-0.879257	-0.513979
C64	C	2.508837	-0.379257	-0.013979
C65	C	1.957021	-0.827205	-0.848518
C66	C	2.457021	-0.327205	-0.348518
C67	C	1.962737	-0.832864	-0.921540
C68	C	2.462737	-0.332864	-0.421540
C69	C	1.789129	-0.659231	-0.936404
C70	C	2.289129	-0.159231	-0.436404
C71	C	1.783422	-0.653565	-0.863386
C72	C	2.283422	-0.153565	-0.363386
C73	C	1.867362	-0.737557	-0.819447
C74	C	2.367362	-0.237557	-0.319447
N75	N	1.936456	-0.806736	-0.705576
N76	N	2.436456	-0.306736	-0.205576
N77	N	1.861511	-0.731763	-0.744813
N78	N	2.361511	-0.231763	-0.244813
C79	C	1.884661	-0.755251	-0.043186
C80	C	2.384661	-0.255251	0.456814
C81	C	1.878796	-0.748886	0.034520
C82	C	2.378796	-0.248886	0.534520
H83	H	1.373809	-0.668242	-0.288350
H84	H	1.873809	-0.168242	0.211650
H85	H	2.000340	-1.294483	-0.161476
H86	H	2.500340	-0.794483	0.338524
H87	H	1.762234	-0.632611	-0.505179
H88	H	2.262234	-0.132611	-0.005179
Cl89	Cl	1.760913	-1.212721	-0.311045
Cl90	Cl	2.260913	-0.712721	0.188955
Cl91	Cl	1.455490	-0.907101	-0.138467
Cl92	Cl	1.955490	-0.407101	0.361533
Cl93	Cl	1.735366	-0.605767	-0.657101
Cl94	Cl	2.235366	-0.105767	-0.157101
H95	H	1.710408	-0.580568	-0.839718
H96	H	2.210408	-0.080568	-0.339718
Cl97	Cl	2.075472	-0.945561	-0.958091
Cl98	Cl	2.575472	-0.445561	-0.458091
H99	H	1.720789	-0.590851	-0.972187
H100	H	2.220789	-0.090851	-0.472187
H101	H	2.025358	-0.895609	-0.812751
H102	H	2.525358	-0.395609	-0.312751
H103	H	2.087555	-0.957924	-0.610675
H104	H	2.587555	-0.457924	-0.110675
H105	H	2.077200	-0.947632	-0.478203
H106	H	2.577200	-0.447632	0.021797
