data_functionalizedCrystal
_audit_creation_method	'MofGen! by Chris Wilmer'
_symmetry_space_group_name_H-M	'P1'
_symmetry_Int_Tables_number	1
_symmetry_cell_setting	triclinic
loop_
_symmetry_equiv_pos_as_xyz
  x,y,z
_cell_length_a	12.759401
_cell_length_b	17.077402
_cell_length_c	12.759393
_cell_angle_alpha	90.032336
_cell_angle_beta	89.980404
_cell_angle_gamma	89.975390
loop_
_atom_site_label
_atom_site_type_symbol
_atom_site_fract_x
_atom_site_fract_y
_atom_site_fract_z
Zn1	Zn	1.606196	0.312464	-0.593969
Zn2	Zn	2.106196	0.812464	-0.093969
Zn3	Zn	1.606058	0.443750	-0.418283
Zn4	Zn	2.106058	0.943750	0.081717
Zn5	Zn	1.430495	0.312503	-0.418308
Zn6	Zn	1.930495	0.812503	0.081692
Zn7	Zn	1.430457	0.443693	-0.593925
Zn8	Zn	1.930457	0.943693	-0.093925
O9	O	1.518301	0.378103	-0.506121
O10	O	2.018301	0.878103	-0.006121
O11	O	1.753199	0.329888	-0.570672
O12	O	2.253199	0.829888	-0.070672
O13	O	1.582727	0.426381	-0.271266
O14	O	2.082727	0.926381	0.228734
O15	O	1.453876	0.202651	-0.441639
O16	O	1.953876	0.702651	0.058361
O17	O	1.753097	0.426343	-0.441597
O18	O	2.253097	0.926343	0.058403
O19	O	1.582963	0.202623	-0.570696
O20	O	2.082963	0.702623	-0.070696
O21	O	1.453741	0.329954	-0.271284
O22	O	1.953741	0.829954	0.228716
O23	O	1.283469	0.329898	-0.441596
O24	O	1.783469	0.829898	0.058404
O25	O	1.453811	0.426245	-0.740952
O26	O	1.953811	0.926245	-0.240952
O27	O	1.283441	0.426282	-0.570621
O28	O	1.783441	0.926282	-0.070621
O29	O	1.582926	0.329832	-0.740984
O30	O	2.082926	0.829832	-0.240984
O31	O	1.582690	0.553590	-0.441554
O32	O	2.082690	1.053590	0.058446
O33	O	1.453677	0.553547	-0.570597
O34	O	1.953677	1.053547	-0.070597
C35	C	1.245334	0.378089	-0.506107
C36	C	1.745334	0.878089	-0.006107
C37	C	1.128557	0.378102	-0.506126
C38	C	1.628557	0.878102	-0.006126
C39	C	1.518193	0.582051	-0.506091
C40	C	2.018193	1.082051	-0.006091
C41	C	1.518243	0.669300	-0.506113
C42	C	2.018243	1.169300	-0.006113
C43	C	0.963977	0.428377	-0.573210
C44	C	1.463977	0.928377	-0.073210
C45	C	1.073701	0.428368	-0.573199
C46	C	1.573701	0.928368	-0.073199
C47	C	1.073684	0.327846	-0.439051
C48	C	1.573684	0.827846	0.060949
C49	C	0.963961	0.327859	-0.439057
C50	C	1.463961	0.827859	0.060943
C51	C	1.585487	0.710287	-0.438994
C52	C	2.085487	1.210287	0.061006
C53	C	1.585536	0.792267	-0.439026
C54	C	2.085536	1.292267	0.060974
C55	C	1.518334	0.833260	-0.506171
C56	C	2.018334	1.333260	-0.006171
C57	C	1.451087	0.792268	-0.573296
C58	C	1.951087	1.292268	-0.073296
C59	C	1.451044	0.710289	-0.573270
C60	C	1.951044	1.210289	-0.073270
C61	C	1.451178	0.963138	-0.573346
C62	C	1.951178	1.463138	-0.073346
C63	C	1.451219	1.045122	-0.573371
C64	C	1.951219	1.545122	-0.073371
C65	C	1.585670	1.045116	-0.439102
C66	C	2.085670	1.545116	0.060898
C67	C	1.585627	0.963137	-0.439075
C68	C	2.085627	1.463137	0.060925
C69	C	1.518378	0.922151	-0.506200
C70	C	2.018378	1.422151	-0.006200
C71	C	1.792335	0.378117	-0.506137
C72	C	2.292335	0.878117	-0.006137
C73	C	1.909111	0.378124	-0.506143
C74	C	2.409111	0.878124	-0.006143
C75	C	1.518380	0.378027	-0.780155
C76	C	2.018380	0.878027	-0.280155
C77	C	1.518414	0.377995	-0.896932
C78	C	2.018414	0.877995	-0.396932
C79	C	1.518430	1.173358	-0.506189
C80	C	2.018430	1.673358	-0.006189
C81	C	1.518463	1.086109	-0.506253
C82	C	2.018463	1.586109	-0.006253
C83	C	1.585648	0.327785	-0.951812
C84	C	2.085648	0.827785	-0.451812
C85	C	1.585666	0.327751	-1.061536
C86	C	2.085666	0.827751	-0.561536
C87	C	1.451211	0.428145	-1.061490
C88	C	1.951211	0.928145	-0.561490
C89	C	1.451189	0.428174	-0.951768
C90	C	1.951189	0.928174	-0.451768
C91	C	1.518283	0.378121	-0.233154
C92	C	2.018283	0.878121	0.266846
C93	C	1.518454	0.377932	-0.116378
C94	C	2.018454	0.877932	0.383622
H95	H	0.919322	0.469306	-0.627835
H96	H	1.419322	0.969306	-0.127835
N97	N	1.658212	1.089319	-0.366712
N98	N	2.158212	1.589319	0.133288
H99	H	1.700772	1.050911	-0.324167
H100	H	2.200772	1.550911	0.175833
H101	H	1.615488	1.123391	-0.318069
H102	H	2.115488	1.623391	0.181931
H103	H	1.118369	0.469291	-0.627811
H104	H	1.618369	0.969291	-0.127811
N105	N	1.132844	0.273632	-0.366700
N106	N	1.632844	0.773632	0.133300
H107	H	1.210678	0.281246	-0.376874
H108	H	1.710678	0.781246	0.123126
H109	H	1.113689	0.217588	-0.383186
H110	H	1.613689	0.717588	0.116814
H111	H	1.640292	0.825634	-0.384370
H112	H	2.140292	1.325634	0.115630
H113	H	1.396482	0.469000	-1.106150
H114	H	1.896482	0.969000	-0.606150
N115	N	0.904775	0.273659	-0.366711
N116	N	1.404775	0.773659	0.133289
H117	H	0.956170	0.241811	-0.324216
H118	H	1.456170	0.741811	0.175784
H119	H	0.859277	0.237377	-0.409563
H120	H	1.359277	0.737377	0.090437
H121	H	1.396431	0.469060	-0.907083
H122	H	1.896431	0.969060	-0.407083
N123	N	1.657966	0.666076	-0.366569
N124	N	2.157966	1.166076	0.133431
H125	H	1.700574	0.704483	-0.324058
H126	H	2.200574	1.204483	0.175942
H127	H	1.706546	0.632007	-0.409368
H128	H	2.206546	1.132007	0.090632
H129	H	1.396517	1.078497	-0.628066
H130	H	1.896517	1.578497	-0.128066
N131	N	1.658109	0.918920	-0.366659
N132	N	2.158109	1.418920	0.133341
H133	H	1.700722	0.957323	-0.324144
H134	H	2.200722	1.457323	0.175856
H135	H	1.706683	0.884854	-0.409467
H136	H	2.206683	1.384854	0.090533
N137	N	1.378652	0.918929	-0.645747
N138	N	1.878652	1.418929	-0.145747
H139	H	1.336083	0.957335	-0.688286
H140	H	1.836083	1.457335	-0.188286
H141	H	1.330038	0.884970	-0.602927
H142	H	1.830038	1.384970	-0.102927
H143	H	1.396374	0.825651	-0.627972
H144	H	1.896374	1.325651	-0.127972
H145	H	1.640384	0.286924	-0.907168
H146	H	2.140384	0.786924	-0.407168
H147	H	1.396289	0.676919	-0.627925
H148	H	1.896289	1.176919	-0.127925
N149	N	1.658186	0.273603	-1.120739
N150	N	2.158186	0.773603	-0.620739
H151	H	1.615522	0.237210	-1.166263
H152	H	2.115522	0.737210	-0.666263
H153	H	1.700755	0.241872	-1.069289
H154	H	2.200755	0.741872	-0.569289
