data_functionalizedCrystal
_audit_creation_method	'MofGen! by Chris Wilmer'
_symmetry_space_group_name_H-M	'P1'
_symmetry_Int_Tables_number	1
_symmetry_cell_setting	triclinic
loop_
_symmetry_equiv_pos_as_xyz
  x,y,z
_cell_length_a	18.215405
_cell_length_b	12.759401
_cell_length_c	12.759401
_cell_angle_alpha	89.998871
_cell_angle_beta	90.013527
_cell_angle_gamma	89.974954
loop_
_atom_site_label
_atom_site_type_symbol
_atom_site_fract_x
_atom_site_fract_y
_atom_site_fract_z
Zn1	Zn	-0.293112	-1.606001	0.593937
Zn2	Zn	-0.416147	-1.605917	0.418239
Zn3	Zn	-0.293099	-1.430356	0.418277
Zn4	Zn	-0.416142	-1.430260	0.593880
O5	O	-0.354625	-1.518134	0.506083
O6	O	-0.309441	-1.753011	0.570638
O7	O	-0.399821	-1.582634	0.271223
O8	O	-0.190117	-1.453731	0.441618
O9	O	-0.399834	-1.752949	0.441554
O10	O	-0.190126	-1.582776	0.570675
O11	O	-0.309418	-1.453650	0.271251
O12	O	-0.309414	-1.283322	0.441563
O13	O	-0.399825	-1.453568	0.740909
O14	O	-0.399813	-1.283252	0.570578
O15	O	-0.309436	-1.582683	0.740950
O16	O	-0.519131	-1.582541	0.441498
O17	O	-0.519127	-1.453486	0.570541
C18	C	-0.354612	-1.245166	0.506069
C19	C	-0.354624	-1.128390	0.506088
C20	C	-0.545831	-1.518023	0.506033
C21	C	-0.627630	-1.518071	0.506046
C22	C	-0.354631	-1.518124	0.780116
C23	C	-0.354634	-1.518120	0.896893
C24	C	-0.815802	-1.585428	0.438977
C25	C	-0.892660	-1.585475	0.439003
C26	C	-0.892697	-1.450974	0.573265
C27	C	-0.815839	-1.450933	0.573244
C28	C	-0.777394	-1.518158	0.506094
C29	C	-0.931110	-1.518246	0.506140
C30	C	-1.014444	-1.518297	0.506168
C31	C	-0.694055	-1.518110	0.506067
C32	C	-0.162672	-1.518274	0.506157
C33	C	-0.080873	-1.518333	0.506188
C34	C	-0.354639	-1.792167	0.506098
C35	C	-0.354645	-1.908944	0.506104
C36	C	-0.401770	-1.073518	0.573155
C37	C	-0.401779	-0.963794	0.573166
C38	C	-0.307494	-0.963822	0.439034
C39	C	-0.307482	-1.073544	0.439029
C40	C	-0.456207	-1.073501	0.650592
C41	C	-0.456216	-0.963777	0.650603
C42	C	-0.401703	-1.585286	1.061461
C43	C	-0.401703	-1.585278	0.951737
C44	C	-0.307567	-1.450959	0.951778
C45	C	-0.307571	-1.450963	1.061501
C46	C	-0.456049	-1.662837	1.061437
C47	C	-0.456049	-1.662828	0.951713
C48	C	-0.354637	-1.518134	1.233116
C49	C	-0.354638	-1.518133	1.116339
H50	H	-0.923929	-1.640254	0.384351
C51	C	-0.529187	-1.623411	0.905699
H52	H	-0.526690	-1.624742	0.831339
H53	H	-0.568018	-1.667449	0.928670
H54	H	-0.537966	-1.553707	0.928687
H55	H	-0.440781	-1.744207	0.921938
H56	H	-0.269112	-0.919154	0.384439
H57	H	-0.441031	-1.103289	0.732001
H58	H	-0.435894	-0.929761	0.727958
C59	C	-0.533042	-1.633339	1.101639
H60	H	-0.564703	-1.621194	1.043715
H61	H	-0.551984	-1.689014	1.142991
H62	H	-0.529937	-1.571591	1.143001
H63	H	-0.435637	-1.740146	1.095476
H64	H	-0.924008	-1.396240	0.627934
H65	H	-0.784501	-1.640168	0.384301
H66	H	-0.269254	-1.396270	1.106178
H67	H	-0.784565	-1.396154	0.627903
C68	C	-0.255800	-1.377073	0.891458
H69	H	-0.227775	-1.337073	0.939859
H70	H	-0.223734	-1.417272	0.848658
H71	H	-0.283960	-1.331272	0.848654
C72	C	-0.255619	-1.133900	0.365259
H73	H	-0.227553	-1.085519	0.325316
H74	H	-0.223596	-1.176721	0.405529
H75	H	-0.283719	-1.176684	0.319398
C76	C	-0.529295	-1.119453	0.611030
H77	H	-0.561854	-1.063990	0.593421
H78	H	-0.520478	-1.161359	0.550795
H79	H	-0.550652	-1.161349	0.664480
C80	C	-0.533181	-0.923507	0.620958
H81	H	-0.564825	-0.981404	0.608747
H82	H	-0.552185	-0.882147	0.676600
H83	H	-0.530011	-0.882140	0.559220
