data_functionalizedCrystal
_audit_creation_method	'MofGen! by Chris Wilmer'
_symmetry_space_group_name_H-M	'P1'
_symmetry_Int_Tables_number	1
_symmetry_cell_setting	triclinic
loop_
_symmetry_equiv_pos_as_xyz
  x,y,z
_cell_length_a	14.519709
_cell_length_b	15.995350
_cell_length_c	12.996460
_cell_angle_alpha	89.996249
_cell_angle_beta	89.999498
_cell_angle_gamma	83.586260
loop_
_atom_site_label
_atom_site_type_symbol
_atom_site_fract_x
_atom_site_fract_y
_atom_site_fract_z
O1	O	1.223670	0.109760	-0.085428
O2	O	1.723670	0.609760	0.414572
O3	O	0.955170	0.122685	-0.085458
O4	O	1.455170	0.622685	0.414542
O5	O	1.096760	-0.005654	-0.085441
O6	O	1.596760	0.494346	0.414559
O7	O	1.082080	0.238099	-0.085445
O8	O	1.582080	0.738099	0.414555
O9	O	1.096743	-0.005661	0.085693
O10	O	1.596743	0.494339	0.585693
O11	O	0.955154	0.122679	0.085675
O12	O	1.455154	0.622679	0.585675
O13	O	1.223654	0.109753	0.085706
O14	O	1.723654	0.609753	0.585706
Cu15	Cu	1.089402	0.116215	0.101317
Cu16	Cu	1.589402	0.616215	0.601317
Cu17	Cu	1.089421	0.116223	-0.101069
Cu18	Cu	1.589421	0.616223	0.398931
O19	O	1.082064	0.238093	0.085689
O20	O	1.582064	0.738093	0.585689
C21	C	0.920803	0.122080	0.000104
C22	C	1.420803	0.622080	0.500104
C23	C	0.818425	0.120275	0.000092
C24	C	1.318425	0.620275	0.500092
C25	C	1.096145	-0.036853	0.000124
C26	C	1.596145	0.463147	0.500124
C27	C	1.094325	-0.129806	0.000118
C28	C	1.594325	0.370194	0.500118
C29	C	0.443541	0.113629	0.000139
C30	C	0.943541	0.613629	0.500139
C31	C	0.547846	0.115475	0.000126
C32	C	1.047846	0.615475	0.500126
C33	C	0.630980	0.116952	0.000115
C34	C	1.130980	0.616952	0.500115
C35	C	0.735291	0.118797	0.000104
C36	C	1.235291	0.618797	0.500104
C37	C	1.087791	-0.467563	0.000120
C38	C	1.587791	0.032437	0.500120
C39	C	0.986954	-0.420280	-0.000275
C40	C	1.486954	0.079720	0.499725
C41	C	0.988773	-0.323587	0.000111
C42	C	1.488773	0.176413	0.500111
C43	C	1.091032	-0.299998	0.000118
C44	C	1.591032	0.200002	0.500118
C45	C	1.140760	-0.341005	0.097848
C46	C	1.640760	0.158995	0.597848
C47	C	1.138227	-0.437644	0.097930
C48	C	1.638227	0.062356	0.597930
C49	C	1.140328	-0.437992	-0.096681
C50	C	1.640328	0.062008	0.403319
C51	C	1.140304	-0.341046	-0.097973
C52	C	1.640304	0.158954	0.402027
C53	C	1.092869	-0.205298	0.000121
C54	C	1.592869	0.294702	0.500121
C55	C	1.085957	-0.562264	0.000125
C56	C	1.585957	-0.062264	0.500125
C57	C	1.258021	0.110359	0.000141
C58	C	1.758021	0.610359	0.500141
C59	C	1.360399	0.112164	0.000146
C60	C	1.860399	0.612164	0.500146
C61	C	1.082679	0.269292	0.000122
C62	C	1.582679	0.769292	0.500122
C63	C	1.084498	0.362245	0.000121
C64	C	1.584498	0.862245	0.500121
N65	N	1.089395	0.116209	0.243664
N66	N	1.589395	0.616209	0.743664
C67	C	1.089413	0.116226	0.663478
C68	C	1.589413	0.616226	1.163478
C69	C	1.089406	0.116225	0.546673
C70	C	1.589406	0.616225	1.046673
C71	C	1.089405	0.116219	0.453575
C72	C	1.589405	0.616219	0.953575
C73	C	1.089396	0.116215	0.336762
C74	C	1.589396	0.616215	0.836762
N75	N	1.089427	0.116226	0.756584
N76	N	1.589427	0.616226	1.256584
H77	H	0.949684	-0.295221	-0.069946
H78	H	1.449684	0.204779	0.430054
H79	H	0.946657	-0.438870	-0.070359
H80	H	1.446657	0.061130	0.429641
H81	H	1.106208	-0.312678	0.170570
H82	H	1.606208	0.187322	0.670570
N83	N	1.240269	-0.322138	0.102685
N84	N	1.740269	0.177862	0.602685
H85	H	1.270880	-0.349103	0.166106
H86	H	1.770880	0.150897	0.666106
H87	H	1.274353	-0.345404	0.039342
H88	H	1.774353	0.154596	0.539342
N89	N	1.092229	-0.304957	-0.193755
N90	N	1.592229	0.195043	0.306245
H91	H	1.068138	-0.351649	-0.234580
H92	H	1.568138	0.148351	0.265420
H93	H	1.038789	-0.262183	-0.173626
H94	H	1.538789	0.237817	0.326374
H95	H	1.107366	-0.458578	-0.170754
H96	H	1.607366	0.041422	0.329246
H97	H	0.949408	-0.295784	0.070278
H98	H	1.449408	0.204216	0.570278
N99	N	0.933787	-0.446309	0.092028
N100	N	1.433787	0.053691	0.592028
H101	H	0.974737	-0.488597	0.134098
H102	H	1.474737	0.011403	0.634098
H103	H	0.913674	-0.395231	0.135586
H104	H	1.413674	0.104769	0.635586
H105	H	1.214876	-0.325573	-0.103868
H106	H	1.714876	0.174427	0.396132
H107	H	1.101952	-0.456003	0.170979
H108	H	1.601952	0.043997	0.670979
H109	H	1.212260	-0.469782	0.102369
H110	H	1.712260	0.030218	0.602369
N111	N	1.238810	-0.479909	-0.097552
N112	N	1.738810	0.020091	0.402448
H113	H	1.249383	-0.517873	-0.035581
H114	H	1.749383	-0.017873	0.464419
H115	H	1.249831	-0.514334	-0.162424
H116	H	1.749831	-0.014334	0.337576
