data_functionalizedCrystal
_audit_creation_method	'MofGen! by Chris Wilmer'
_symmetry_space_group_name_H-M	'P1'
_symmetry_Int_Tables_number	1
_symmetry_cell_setting	triclinic
loop_
_symmetry_equiv_pos_as_xyz
  x,y,z
_cell_length_a	18.101398
_cell_length_b	18.101395
_cell_length_c	18.101390
_cell_angle_alpha	89.968753
_cell_angle_beta	89.977223
_cell_angle_gamma	90.026371
loop_
_atom_site_label
_atom_site_type_symbol
_atom_site_fract_x
_atom_site_fract_y
_atom_site_fract_z
Zn1	Zn	1.132110	-0.294895	-0.418847
Zn2	Zn	1.465443	0.038438	-0.085514
Zn3	Zn	1.798776	0.371771	0.247820
Zn4	Zn	1.132009	-0.418752	-0.295009
Zn5	Zn	1.465342	-0.085419	0.038325
Zn6	Zn	1.798676	0.247914	0.371658
Zn7	Zn	1.008272	-0.294919	-0.295008
Zn8	Zn	1.341605	0.038414	0.038325
Zn9	Zn	1.674939	0.371748	0.371659
Zn10	Zn	1.008219	-0.418689	-0.418797
Zn11	Zn	1.341553	-0.085356	-0.085464
Zn12	Zn	1.674886	0.247977	0.247869
O13	O	1.070152	-0.356814	-0.356915
O14	O	1.403486	-0.023481	-0.023582
O15	O	1.736819	0.309853	0.309751
O16	O	1.235729	-0.311342	-0.402441
O17	O	1.569063	0.021992	-0.069107
O18	O	1.902396	0.355325	0.264226
O19	O	1.115575	-0.402362	-0.191376
O20	O	1.448908	-0.069028	0.141958
O21	O	1.782241	0.264305	0.475291
O22	O	1.024764	-0.191283	-0.311456
O23	O	1.358097	0.142050	0.021877
O24	O	1.691430	0.475384	0.355211
O25	O	1.235655	-0.402339	-0.311457
O26	O	1.568989	-0.069006	0.021876
O27	O	1.902322	0.264328	0.355210
O28	O	1.115747	-0.191266	-0.402440
O29	O	1.449080	0.142068	-0.069106
O30	O	1.782413	0.475401	0.264227
O31	O	1.024666	-0.311382	-0.191375
O32	O	1.357999	0.021952	0.141958
O33	O	1.691332	0.355285	0.475292
O34	O	0.904632	-0.311321	-0.311408
O35	O	1.237965	0.022012	0.021925
O36	O	1.571299	0.355346	0.355259
O37	O	1.024674	-0.402232	-0.522437
O38	O	1.358007	-0.068898	-0.189103
O39	O	1.691341	0.264435	0.144230
O40	O	0.904593	-0.402255	-0.402355
O41	O	1.237927	-0.068921	-0.069022
O42	O	1.571260	0.264412	0.264311
O43	O	1.115696	-0.311281	-0.522473
O44	O	1.449029	0.022052	-0.189140
O45	O	1.782362	0.355386	0.144193
O46	O	1.115524	-0.522377	-0.311409
O47	O	1.448857	-0.189044	0.021924
O48	O	1.782190	0.144290	0.355258
O49	O	1.024576	-0.522331	-0.402356
O50	O	1.357909	-0.188997	-0.069023
O51	O	1.691243	0.144336	0.264311
C52	C	0.877742	-0.356784	-0.356877
C53	C	1.211075	-0.023451	-0.023543
C54	C	1.544409	0.309883	0.309790
C55	C	0.795428	-0.356789	-0.356878
C56	C	1.128761	-0.023456	-0.023544
C57	C	1.462095	0.309878	0.309789
C58	C	0.496337	-0.356835	-0.356940
C59	C	0.829670	-0.023502	-0.023607
C60	C	1.163004	0.309831	0.309727
C61	C	0.527662	-0.299336	-0.299997
C62	C	0.860995	0.033997	0.033336
C63	C	1.194328	0.367331	0.366669
C64	C	0.613280	-0.299490	-0.299754
C65	C	0.946613	0.033843	0.033579
C66	C	1.279947	0.367176	0.366912
C67	C	0.644719	-0.356812	-0.356909
C68	C	0.978053	-0.023478	-0.023576
C69	C	1.311386	0.309855	0.309758
C70	C	0.613602	-0.434825	-0.335587
C71	C	0.946935	-0.101492	-0.002253
C72	C	1.280269	0.231842	0.331080
C73	C	0.527957	-0.434505	-0.335191
C74	C	0.861290	-0.101172	-0.001857
C75	C	1.194623	0.232161	0.331476
C76	C	0.527949	-0.336999	-0.435339
C77	C	0.861283	-0.003666	-0.102005
C78	C	1.194616	0.329668	0.231328
C79	C	0.613600	-0.335262	-0.434911
C80	C	0.946934	-0.001929	-0.101577
C81	C	1.280267	0.331405	0.231756
C82	C	0.728579	-0.356803	-0.356893
C83	C	1.061912	-0.023470	-0.023559
C84	C	1.395246	0.309864	0.309774
C85	C	0.412477	-0.356849	-0.356954
C86	C	0.745811	-0.023516	-0.023621
C87	C	1.079144	0.309818	0.309712
C88	C	1.070053	-0.549225	-0.356893
C89	C	1.403387	-0.215891	-0.023560
C90	C	1.736720	0.117442	0.309773
C91	C	1.070079	-0.631539	-0.356909
C92	C	1.403412	-0.298205	-0.023576
C93	C	1.736745	0.035128	0.309758
C94	C	1.070241	-0.930630	-0.356949
C95	C	1.403575	-0.597296	-0.023615
C96	C	1.736908	-0.263963	0.309718
C97	C	1.013152	-0.899306	-0.414312
C98	C	1.346486	-0.565973	-0.080979
C99	C	1.679819	-0.232640	0.252354
C100	C	1.012881	-0.813688	-0.414133
C101	C	1.346214	-0.480355	-0.080799
C102	C	1.679548	-0.147022	0.252534
C103	C	1.070161	-0.782247	-0.356930
C104	C	1.403494	-0.448914	-0.023596
C105	C	1.736827	-0.115580	0.309737
C106	C	1.049034	-0.813402	-0.278878
C107	C	1.382367	-0.480069	0.054455
C108	C	1.715700	-0.146735	0.387788
C109	C	1.048666	-0.899047	-0.279221
C110	C	1.381999	-0.565714	0.054112
C111	C	1.715332	-0.232381	0.387445
C112	C	1.148582	-0.898978	-0.376950
C113	C	1.481916	-0.565645	-0.043617
C114	C	1.815249	-0.232312	0.289717
C115	C	1.148122	-0.813327	-0.378661
C116	C	1.481455	-0.479994	-0.045328
C117	C	1.814788	-0.146660	0.288005
C118	C	1.070116	-0.698388	-0.356914
C119	C	1.403450	-0.365054	-0.023581
C120	C	1.736783	-0.031721	0.309753
C121	C	1.070284	-1.014489	-0.356959
C122	C	1.403617	-0.681156	-0.023626
C123	C	1.736950	-0.347822	0.309707
C124	C	1.263314	-0.356845	-0.356954
C125	C	1.596648	-0.023511	-0.023621
C126	C	1.929981	0.309822	0.309712
C127	C	1.345628	-0.356858	-0.356971
C128	C	1.678962	-0.023524	-0.023638
C129	C	2.012295	0.309809	0.309696
C130	C	1.070190	-0.356747	-0.550077
C131	C	1.403523	-0.023413	-0.216744
C132	C	1.736857	0.309920	0.116589
C133	C	1.070206	-0.356718	-0.632391
C134	C	1.403539	-0.023385	-0.299058
C135	C	1.736873	0.309949	0.034275
C136	C	1.070272	-0.163652	-0.356953
C137	C	1.403605	0.169681	-0.023620
C138	C	1.736939	0.503015	0.309713
C139	C	1.070323	-0.081338	-0.356970
C140	C	1.403656	0.251995	-0.023636
C141	C	1.736990	0.585329	0.309697
C142	C	1.070233	-0.356695	-0.783100
C143	C	1.403566	-0.023362	-0.449767
C144	C	1.736899	0.309972	-0.116433
C145	C	1.127503	-0.299466	-0.814476
C146	C	1.460836	0.033868	-0.481143
C147	C	1.794170	0.367201	-0.147810
C148	C	1.127742	-0.299621	-0.900095
C149	C	1.461076	0.033712	-0.566762
C150	C	1.794409	0.367046	-0.233428
C151	C	1.070259	-0.356671	-0.931482
C152	C	1.403592	-0.023338	-0.598149
C153	C	1.736925	0.309996	-0.264816
C154	C	1.091134	-0.434784	-0.900376
C155	C	1.424468	-0.101451	-0.567043
C156	C	1.757801	0.231883	-0.233709
C157	C	1.091535	-0.434467	-0.814731
C158	C	1.424868	-0.101133	-0.481398
C159	C	1.758202	0.232200	-0.148065
C160	C	0.991948	-0.336488	-0.814649
C161	C	1.325281	-0.003155	-0.481316
C162	C	1.658614	0.330178	-0.147983
C163	C	0.992383	-0.334753	-0.900301
C164	C	1.325716	-0.001419	-0.566967
C165	C	1.659049	0.331914	-0.233634
C166	C	1.070272	-0.356662	-1.015342
C167	C	1.403606	-0.023329	-0.682009
C168	C	1.736939	0.310005	-0.348675
C169	C	1.070221	-0.356709	-0.699240
C170	C	1.403554	-0.023376	-0.365907
C171	C	1.736888	0.309958	-0.032574
C172	C	1.070158	-0.356828	-0.164505
C173	C	1.403491	-0.023494	0.168829
C174	C	1.736824	0.309839	0.502162
C175	C	1.070285	-0.356648	-0.082191
C176	C	1.403619	-0.023314	0.251142
C177	C	1.736952	0.310019	0.584476
H178	H	0.635018	-0.451938	-0.278892
H179	H	0.968351	-0.118605	0.054441
H180	H	1.301685	0.214729	0.387774
H181	H	0.506114	-0.312302	-0.242242
H182	H	0.839447	0.021032	0.091091
H183	H	1.172781	0.354365	0.424424
H184	H	1.026099	-0.792621	-0.472007
H185	H	1.359432	-0.459288	-0.138674
H186	H	1.692765	-0.125955	0.194660
H187	H	0.972875	-0.280507	-0.793053
H188	H	1.306209	0.052826	-0.459719
H189	H	1.639542	0.386159	-0.126386
H190	H	0.976634	-0.277267	-0.920634
H191	H	1.309968	0.056066	-0.587301
H192	H	1.643301	0.389399	-0.253968
C193	C	0.640917	-0.317211	-0.221274
C194	C	0.974250	0.016122	0.112060
C195	C	1.307584	0.349456	0.445393
N196	N	0.661733	-0.330561	-0.162159
N197	N	0.995066	0.002772	0.171174
N198	N	1.328399	0.336106	0.504507
C199	C	1.037622	-0.494062	-0.786684
C200	C	1.370956	-0.160728	-0.453351
C201	C	1.704289	0.172605	-0.120017
N202	N	0.997022	-0.538954	-0.765562
N203	N	1.330356	-0.205621	-0.432229
N204	N	1.663689	0.127713	-0.098895
C205	C	1.103435	-0.785887	-0.219560
C206	C	1.436769	-0.452553	0.113773
C207	C	1.770102	-0.119220	0.447107
N208	N	1.144410	-0.765159	-0.174882
N209	N	1.477744	-0.431826	0.158451
N210	N	1.811077	-0.098492	0.491785
H211	H	0.507692	-0.378879	-0.477766
H212	H	0.841025	-0.045546	-0.144433
H213	H	1.174358	0.287788	0.188900
C214	C	0.931698	-0.386944	-0.929130
C215	C	1.265031	-0.053611	-0.595797
C216	C	1.598364	0.279723	-0.262463
N217	N	0.885994	-0.426269	-0.950833
N218	N	1.219327	-0.092936	-0.617499
N219	N	1.552660	0.240398	-0.284166
H220	H	0.507946	-0.451327	-0.277877
H221	H	0.841280	-0.117993	0.055456
H222	H	1.174613	0.215340	0.388789
C223	C	0.498813	-0.261480	-0.461526
C224	C	0.832146	0.071854	-0.128192
C225	C	1.165480	0.405187	0.205141
N226	N	0.476870	-0.204594	-0.481240
N227	N	0.810203	0.128739	-0.147907
N228	N	1.143536	0.462072	0.185427
C229	C	0.934306	-0.392792	-0.787227
C230	C	1.267640	-0.059458	-0.453893
C231	C	1.600973	0.273875	-0.120560
N232	N	0.890896	-0.435201	-0.766567
N233	N	1.224230	-0.101867	-0.433234
N234	N	1.557563	0.231466	-0.099901
H235	H	1.191116	-0.919235	-0.335170
H236	H	1.524449	-0.585901	-0.001837
H237	H	1.857782	-0.252568	0.331497
C238	C	0.972484	-0.784516	-0.255582
C239	C	1.305817	-0.451182	0.077751
C240	C	1.639151	-0.117849	0.411085
N241	N	0.914824	-0.762760	-0.238040
N242	N	1.248158	-0.429427	0.095293
N243	N	1.581491	-0.096094	0.428627
H244	H	0.991399	-0.919087	-0.262279
H245	H	1.324732	-0.585753	0.071054
H246	H	1.658065	-0.252420	0.404387
H247	H	1.164054	-0.792961	-0.436103
H248	H	1.497387	-0.459628	-0.102770
H249	H	1.830720	-0.126295	0.230564
H250	H	0.634320	-0.241640	-0.313119
H251	H	0.967653	0.091693	0.020214
H252	H	1.300987	0.425026	0.353547
C253	C	1.030825	-0.927067	-0.492752
C254	C	1.364159	-0.593734	-0.159419
C255	C	1.697492	-0.260400	0.173915
N256	N	1.044137	-0.947983	-0.551835
N257	N	1.377470	-0.614650	-0.218501
N258	N	1.710804	-0.281317	0.114832
C259	C	1.206119	-0.317714	-0.927795
C260	C	1.539452	0.015619	-0.594462
C261	C	1.872785	0.348952	-0.261129
N262	N	1.265155	-0.331346	-0.948659
N263	N	1.598488	0.001987	-0.615325
N264	N	1.931821	0.335321	-0.281992
H265	H	0.955437	-0.920889	-0.401230
H266	H	1.288770	-0.587555	-0.067896
H267	H	1.622103	-0.254222	0.265437
C268	C	1.110097	-0.220988	-0.786680
C269	C	1.443431	0.112345	-0.453347
C270	C	1.776764	0.445678	-0.120014
N271	N	1.096985	-0.161877	-0.765741
N272	N	1.430318	0.171457	-0.432408
N273	N	1.763652	0.504790	-0.099074
C274	C	1.036521	-0.493957	-0.927838
C275	C	1.369854	-0.160624	-0.594505
C276	C	1.703187	0.172710	-0.261172
N277	N	0.995385	-0.538525	-0.948525
N278	N	1.328718	-0.205192	-0.615192
N279	N	1.662051	0.128142	-0.281858
H280	H	0.633944	-0.277853	-0.450989
H281	H	0.967277	0.055481	-0.117655
H282	H	1.300610	0.388814	0.215678
H283	H	1.147720	-0.452174	-0.921855
H284	H	1.481053	-0.118841	-0.588521
H285	H	1.814386	0.214493	-0.255188
H286	H	0.954812	-0.793261	-0.400884
H287	H	1.288146	-0.459928	-0.067550
H288	H	1.621479	-0.126595	0.265783
H289	H	1.088443	-0.919771	-0.235023
H290	H	1.421776	-0.586437	0.098310
H291	H	1.755110	-0.253104	0.431643
C292	C	0.499959	-0.494345	-0.388772
C293	C	0.833292	-0.161012	-0.055439
C294	C	1.166625	0.172322	0.277895
N295	N	0.478874	-0.539419	-0.429126
N296	N	0.812207	-0.206085	-0.095793
N297	N	1.145541	0.127248	0.237541
H298	H	0.507091	-0.241309	-0.313215
H299	H	0.840424	0.092024	0.020118
H300	H	1.173758	0.425357	0.353452
C301	C	1.168836	-0.457545	-0.787758
C302	C	1.502169	-0.124212	-0.454425
C303	C	1.835503	0.209122	-0.121092
N304	N	1.227063	-0.474923	-0.767446
N305	N	1.560396	-0.141589	-0.434113
N306	N	1.893729	0.191744	-0.100780
C307	C	1.174603	-0.928081	-0.452533
C308	C	1.507936	-0.594747	-0.119200
C309	C	1.841269	-0.261414	0.214134
N310	N	1.194192	-0.950000	-0.509465
N311	N	1.527526	-0.616667	-0.176132
N312	N	1.860859	-0.283333	0.157201
C313	C	1.208625	-0.784412	-0.326331
C314	C	1.541958	-0.451078	0.007003
C315	C	1.875292	-0.117745	0.340336
N316	N	1.254194	-0.762634	-0.286908
N317	N	1.587528	-0.429301	0.046425
N318	N	1.920861	-0.095967	0.379758
H319	H	1.185182	-0.312699	-0.792968
H320	H	1.518515	0.020634	-0.459635
H321	H	1.851849	0.353968	-0.126302
H322	H	1.114700	-0.241710	-0.921129
H323	H	1.448033	0.091623	-0.587796
H324	H	1.781367	0.424956	-0.254462
C325	C	0.642509	-0.387720	-0.495299
C326	C	0.975842	-0.054387	-0.161966
C327	C	1.309176	0.278947	0.171367
N328	N	0.664281	-0.427239	-0.540782
N329	N	0.997614	-0.093906	-0.207449
N330	N	1.330948	0.239427	0.125885
C331	C	0.641121	-0.494257	-0.389854
C332	C	0.974454	-0.160923	-0.056521
C333	C	1.307788	0.172410	0.276812
N334	N	0.661853	-0.539020	-0.430728
N335	N	0.995186	-0.205687	-0.097394
N336	N	1.328520	0.127646	0.235939
