data_functionalizedCrystal
_audit_creation_method	'MofGen! by Chris Wilmer'
_symmetry_space_group_name_H-M	'P1'
_symmetry_Int_Tables_number	1
_symmetry_cell_setting	triclinic
loop_
_symmetry_equiv_pos_as_xyz
  x,y,z
_cell_length_a	11.026607
_cell_length_b	10.654550
_cell_length_c	9.730223
_cell_angle_alpha	90.001969
_cell_angle_beta	89.996785
_cell_angle_gamma	83.464527
loop_
_atom_site_label
_atom_site_type_symbol
_atom_site_fract_x
_atom_site_fract_y
_atom_site_fract_z
O1	O	-1.614597	0.526882	0.114256
O2	O	-1.260786	0.466886	0.114262
O3	O	-1.445826	0.315911	0.114265
O4	O	-1.429557	0.677858	0.114254
O5	O	-1.445811	0.315896	-0.114315
O6	O	-1.260771	0.466871	-0.114318
O7	O	-1.614582	0.526867	-0.114324
Zn8	Zn	-1.437674	0.496867	-0.150613
Zn9	Zn	-1.437694	0.496886	0.150551
O10	O	-1.429542	0.677843	-0.114326
C11	C	-1.215474	0.455811	-0.000027
C12	C	-1.080483	0.422816	-0.000024
C13	C	-1.444624	0.268846	-0.000021
C14	C	-1.441050	0.128627	-0.000008
C15	C	-1.659894	0.537943	-0.000032
C16	C	-1.794885	0.570937	-0.000025
C17	C	-1.007444	0.513920	-0.000026
C18	C	-0.867923	0.479820	-0.000023
C19	C	-1.430744	0.724907	-0.000038
C20	C	-1.434318	0.865126	-0.000042
C21	C	-1.325369	0.920963	-0.000037
C22	C	-1.328735	1.052714	-0.000015
C23	C	-1.550007	1.072782	-0.000009
C24	C	-1.546641	0.941033	-0.000021
N25	N	-1.437670	0.496855	-0.356149
C26	C	-1.363324	0.403857	-0.572008
C27	C	-1.363308	0.403836	-0.428125
C28	C	-1.512062	0.589893	-0.428063
C29	C	-1.512084	0.589908	-0.571944
N30	N	-1.437708	0.496891	0.356088
H31	H	-1.048204	0.617161	-0.000037
H32	H	-1.302763	0.328115	-0.630601
H33	H	-0.827168	0.376572	0.000015
H34	H	-1.641457	1.134601	-0.000005
Cl35	Cl	-0.857796	0.730347	-0.000049
H36	H	-1.302738	0.328077	-0.369588
Cl37	Cl	-1.184164	0.825541	-0.000056
H38	H	-1.240017	1.098169	-0.000009
H39	H	-1.635365	0.895572	-0.000020
Cl40	Cl	-1.605552	0.706828	-0.337578
Cl41	Cl	-1.605608	0.706870	-0.662344
H42	H	-1.039722	0.319575	0.000014
