data_functionalizedCrystal
_audit_creation_method	'MofGen! by Chris Wilmer'
_symmetry_space_group_name_H-M	'P1'
_symmetry_Int_Tables_number	1
_symmetry_cell_setting	triclinic
loop_
_symmetry_equiv_pos_as_xyz
  x,y,z
_cell_length_a	13.897449
_cell_length_b	15.297510
_cell_length_c	15.298431
_cell_angle_alpha	91.662882
_cell_angle_beta	99.658225
_cell_angle_gamma	80.282551
loop_
_atom_site_label
_atom_site_type_symbol
_atom_site_fract_x
_atom_site_fract_y
_atom_site_fract_z
Zn1	Zn	1.323180	0.262955	-0.555528
Zn2	Zn	1.313632	0.434805	-0.434374
Zn3	Zn	1.184258	0.288345	-0.409075
Zn4	Zn	1.130028	0.409403	-0.580798
O5	O	1.237775	0.348877	-0.494944
O6	O	1.456892	0.285756	-0.539469
O7	O	1.315170	0.436634	-0.308449
O8	O	1.229377	0.162394	-0.407339
O9	O	1.449877	0.412014	-0.450458
O10	O	1.331443	0.143739	-0.514937
O11	O	1.220119	0.329030	-0.289861
O12	O	1.042086	0.304399	-0.431842
O13	O	1.136951	0.368720	-0.700016
O14	O	1.002243	0.393340	-0.558007
O15	O	1.278859	0.261124	-0.681450
O16	O	1.262586	0.554019	-0.474961
O17	O	1.127693	0.535357	-0.582538
C18	C	0.987166	0.348869	-0.494922
C19	C	0.879947	0.348883	-0.494937
C20	C	1.188242	0.576469	-0.534256
C21	C	1.167135	0.673829	-0.551104
C22	C	1.086942	0.709886	-0.614996
C23	C	1.067115	0.801359	-0.630833
C24	C	1.127483	0.856783	-0.582784
C25	C	1.207682	0.820725	-0.518895
C26	C	1.227506	0.729244	-0.503051
C27	C	1.268047	0.876141	-0.470840
C28	C	1.348246	0.840083	-0.406951
C29	C	1.368067	0.748611	-0.391110
C30	C	1.307699	0.693187	-0.439159
C31	C	1.248223	0.967622	-0.486684
C32	C	1.388787	0.986979	-0.374739
C33	C	1.408614	0.895507	-0.358902
C34	C	0.683647	0.348882	-0.494960
C35	C	0.792883	0.348880	-0.494945
C36	C	1.489362	0.348886	-0.494967
C37	C	1.596573	0.348890	-0.494976
C38	C	1.287491	1.120396	-0.455483
C39	C	1.308594	1.023037	-0.438631
C40	C	1.202921	0.309256	-0.723402
C41	C	1.188068	0.292372	-0.820758
C42	C	1.131601	0.228413	-0.856811
C43	C	1.117634	0.212551	-0.948281
C44	C	1.160138	0.260641	-1.003707
C45	C	1.216612	0.324597	-0.967653
C46	C	1.230575	0.340466	-0.876175
C47	C	1.259111	0.372693	-1.023070
C48	C	1.315585	0.436649	-0.987017
C49	C	1.329546	0.452514	-0.895547
C50	C	1.287041	0.404424	-0.840122
C51	C	1.245149	0.356824	-1.114549
C52	C	1.344122	0.468877	-1.133913
C53	C	1.358090	0.484739	-1.042442
C54	C	1.272562	0.388281	-0.267363
C55	C	1.287655	0.404918	-0.169966
H56	H	1.182927	0.996970	-0.538706
Br57	Br	1.141180	0.239114	-1.127847
H58	H	1.473913	0.866137	-0.306882
H59	H	1.037793	0.664756	-0.654107
Br60	Br	1.040942	0.125798	-0.997213
H61	H	1.323841	0.618701	-0.426271
H62	H	1.404071	0.536813	-1.013074
Br63	Br	1.306006	0.425942	-0.715976
Br64	Br	1.476902	0.699677	-0.304397
Br65	Br	1.073942	0.163143	-0.781587
H66	H	1.375516	0.504603	-0.866197
H67	H	1.437943	1.032106	-0.335613
Br68	Br	1.401803	0.534151	-1.209127
H69	H	1.199169	0.304750	-1.143894
Br70	Br	1.100615	0.980919	-0.604322
H71	H	1.001811	0.830712	-0.682846
