data_functionalizedCrystal
_audit_creation_method	'MofGen! by Chris Wilmer'
_symmetry_space_group_name_H-M	'P1'
_symmetry_Int_Tables_number	1
_symmetry_cell_setting	triclinic
loop_
_symmetry_equiv_pos_as_xyz
  x,y,z
_cell_length_a	10.686220
_cell_length_b	15.297327
_cell_length_c	10.686551
_cell_angle_alpha	96.042164
_cell_angle_beta	90.308082
_cell_angle_gamma	103.240265
loop_
_atom_site_label
_atom_site_type_symbol
_atom_site_fract_x
_atom_site_fract_y
_atom_site_fract_z
Zn1	Zn	1.923459	-0.219505	-0.619215
Zn2	Zn	1.870979	-0.382469	-0.451647
Zn3	Zn	1.692454	-0.242538	-0.431496
Zn4	Zn	1.677815	-0.380644	-0.676952
O5	O	1.791177	-0.306289	-0.544828
O6	O	2.094014	-0.232247	-0.581257
O7	O	1.831461	-0.374309	-0.276122
O8	O	1.751187	-0.113484	-0.423800
O9	O	2.055457	-0.351976	-0.458146
O10	O	1.920905	-0.096562	-0.561717
O11	O	1.700299	-0.271502	-0.261316
O12	O	1.512996	-0.269733	-0.479786
O13	O	1.726237	-0.348866	-0.842146
O14	O	1.502241	-0.371200	-0.660122
O15	O	1.906710	-0.230478	-0.799726
O16	O	1.817266	-0.508226	-0.514131
O17	O	1.675349	-0.506885	-0.679662
C18	C	1.461590	-0.322768	-0.574033
C19	C	1.320589	-0.329838	-0.586562
C20	C	1.739061	-0.540222	-0.605372
C21	C	1.716885	-0.640291	-0.631305
C22	C	1.950230	-0.925010	-0.359860
C23	C	1.971064	-0.830990	-0.335489
C24	C	1.907522	-0.783311	-0.409441
C25	C	1.823141	-0.829660	-0.507768
C26	C	1.802297	-0.923690	-0.532135
C27	C	1.759589	-0.781991	-0.581716
C28	C	1.675208	-0.828341	-0.680043
C29	C	1.654369	-0.922361	-0.704406
C30	C	1.717911	-0.970040	-0.630454
C31	C	1.780432	-0.687961	-0.557349
C32	C	1.632499	-0.686642	-0.729624
C33	C	1.611665	-0.780661	-0.753995
C34	C	2.122050	-0.289746	-0.515509
C35	C	2.263049	-0.282696	-0.503015
C36	C	1.820695	-0.286900	-0.867008
C37	C	1.833273	-0.278637	-1.004302
C38	C	1.843533	-0.071439	-0.484070
C39	C	1.865844	0.028640	-0.458179
C40	C	1.761861	-0.325535	-0.223877
C41	C	1.749584	-0.333531	-0.086497
H42	H	1.849135	-0.650232	-0.477290
H43	H	1.668315	-0.386852	-1.051833
C44	C	1.241432	-0.391653	-0.696173
H45	H	1.296439	-0.420275	-0.746909
H46	H	1.202365	-0.356570	-0.745691
H47	H	1.176667	-0.436254	-0.663539
C48	C	1.562597	-0.634209	-0.810980
H49	H	1.509345	-0.675279	-0.873017
H50	H	1.624153	-0.591819	-0.851024
H51	H	1.511147	-0.603187	-0.759079
H52	H	2.039765	-0.793256	-0.255431
C53	C	1.342215	-0.220860	-0.393440
H54	H	1.429779	-0.224052	-0.399118
H55	H	1.310031	-0.240009	-0.315704
H56	H	1.335698	-0.160359	-0.397915
C57	C	1.930450	-0.679890	-0.382644
H58	H	1.989813	-0.659114	-0.313502
H59	H	1.851349	-0.664051	-0.362983
H60	H	1.964365	-0.652698	-0.454917
C61	C	1.943080	-0.206607	-1.051126
H62	H	1.937415	-0.210312	-1.140355
H63	H	2.023462	-0.216778	-1.025889
H64	H	1.936087	-0.148288	-1.016035
C65	C	2.020112	-0.977453	-0.278517
H66	H	2.073347	-0.936387	-0.216464
H67	H	2.071554	-1.008482	-0.330404
H68	H	1.958537	-1.019838	-0.238472
C69	C	1.694990	-1.073464	-0.657255
H70	H	1.744917	-1.095217	-0.599126
H71	H	1.719454	-1.088809	-0.740547
H72	H	1.606451	-1.100173	-0.648598
H73	H	1.585644	-0.960098	-0.784457
H74	H	1.542961	-0.818413	-0.834053
