data_functionalizedCrystal
_audit_creation_method	'MofGen! by Chris Wilmer'
_symmetry_space_group_name_H-M	'P1'
_symmetry_Int_Tables_number	1
_symmetry_cell_setting	triclinic
loop_
_symmetry_equiv_pos_as_xyz
  x,y,z
_cell_length_a	19.902436
_cell_length_b	23.196402
_cell_length_c	23.196401
_cell_angle_alpha	90.013454
_cell_angle_beta	60.001993
_cell_angle_gamma	60.004122
loop_
_atom_site_label
_atom_site_type_symbol
_atom_site_fract_x
_atom_site_fract_y
_atom_site_fract_z
Zr1	Zr	0.735513	0.555350	-0.075725
O2	O	0.875691	0.463281	-0.167787
O3	O	0.595334	0.583572	-0.047495
O4	O	0.735516	0.583546	-0.167777
O5	O	0.735507	0.463330	0.047367
O6	O	0.735521	0.678414	-0.167779
O7	O	0.735508	0.463307	-0.047505
O8	O	0.484761	0.678461	0.047384
O9	O	0.986267	0.463283	-0.167796
O10	O	0.652996	0.666410	-0.035467
O11	O	0.652991	0.595627	0.035336
O12	O	0.818038	0.595597	-0.106280
O13	O	0.818033	0.524814	-0.035478
Zr14	Zr	0.735518	0.706691	0.075581
Zr15	Zr	0.735521	0.706654	-0.075728
Zr16	Zr	0.735511	0.555386	0.075584
Zr17	Zr	0.911870	0.555353	-0.075740
Zr18	Zr	0.559161	0.706687	0.075596
O19	O	0.875697	0.678468	0.047351
O20	O	0.875701	0.678417	-0.167791
O21	O	0.875687	0.463333	0.047355
O22	O	0.595341	0.798759	0.167643
O23	O	0.595345	0.798708	-0.047499
O24	O	0.595330	0.583623	0.167647
O25	O	0.735525	0.798710	-0.047511
O26	O	0.735515	0.678495	0.167633
O27	O	0.735510	0.583626	0.167635
O28	O	0.735523	0.798733	0.047361
O29	O	0.986273	0.583550	-0.167798
O30	O	0.484758	0.678490	0.167654
O31	O	0.484764	0.798757	0.167652
O32	O	0.484766	0.798728	0.047382
O33	O	0.986265	0.463312	-0.047526
O34	O	0.986271	0.583579	-0.047528
O35	O	0.652994	0.666444	0.106136
O36	O	0.652998	0.737226	0.035334
O37	O	0.818040	0.666413	-0.035480
O38	O	0.818035	0.595630	0.035322
C39	C	0.514920	0.631016	-0.000054
C40	C	0.440052	0.631015	-0.000048
C41	C	0.735507	0.441761	-0.000069
C42	C	0.735503	0.377528	-0.000068
C43	C	0.649378	-0.048355	0.036894
C44	C	0.649373	0.012003	0.036892
C45	C	0.735522	0.005222	-0.000071
C46	C	0.821683	-0.061924	-0.037050
C47	C	0.821686	-0.122279	-0.037053
C48	C	0.801521	0.072532	0.005203
C49	C	0.801514	0.132887	0.005211
C50	C	0.735517	0.191375	-0.000066
C51	C	0.669509	0.189507	-0.005338
C52	C	0.669512	0.129152	-0.005341
C53	C	0.735529	0.070662	-0.000072
C54	C	0.649355	0.323957	0.036904
C55	C	0.649354	0.384314	0.036897
C56	C	0.821666	0.310385	-0.037040
C57	C	0.821665	0.250031	-0.037038
C58	C	0.735507	0.256821	-0.000062
C59	C	0.168042	0.631022	-0.000081
C60	C	0.196278	0.586587	0.044799
C61	C	0.274396	0.586346	0.044614
C62	C	0.302989	0.631018	-0.000064
C63	C	0.338553	0.598428	-0.077003
C64	C	0.260715	0.598094	-0.076767
C65	C	0.133530	0.708069	0.031362
C66	C	0.210582	0.707957	0.032928
C67	C	0.379258	0.631017	-0.000058
C68	C	0.091778	0.631021	-0.000091
C69	C	0.956111	0.631024	-0.000090
C70	C	1.030979	0.631025	-0.000097
C71	C	0.735519	0.630975	-0.189336
C72	C	0.735520	0.630960	-0.253571
C73	C	0.735525	0.820279	-0.000075
C74	C	0.735528	0.884512	-0.000076
C75	C	0.821668	0.593999	-0.320708
C76	C	0.821669	0.594017	-0.381064
C77	C	0.735518	0.630986	-0.374277
C78	C	0.649359	0.667954	-0.307128
C79	C	0.649360	0.667941	-0.246775
C80	C	0.669513	0.625735	-0.441589
C81	C	0.669515	0.625743	-0.501942
C82	C	0.735511	0.631030	-0.560425
C83	C	0.801520	0.636296	-0.558553
C84	C	0.801521	0.636282	-0.498200
C85	C	0.735507	0.631005	-0.439716
C86	C	0.821665	0.594088	-0.693009
C87	C	0.821663	0.594111	-0.753364
C88	C	0.649351	0.668043	-0.679426
C89	C	0.649355	0.668025	-0.619073
C90	C	0.735516	0.631043	-0.625870
C91	C	0.735512	0.631065	0.189192
C92	C	0.735511	0.631081	0.253427
C93	C	0.514929	0.820275	-0.000057
C94	C	0.440064	0.884507	-0.000052
C95	C	0.514917	0.631061	0.189211
C96	C	0.440048	0.631075	0.253451
C97	C	0.514926	0.820320	0.189207
C98	C	0.440060	0.884567	0.253447
C99	C	0.956105	0.441720	-0.189352
C100	C	1.030971	0.377473	-0.253591
C101	C	0.956102	0.441765	-0.000087
C102	C	1.030967	0.377534	-0.000092
C103	C	0.956114	0.630979	-0.189355
C104	C	1.030984	0.630965	-0.253596
C105	C	0.404906	0.877705	-0.037013
C106	C	0.334572	0.938051	-0.037022
C107	C	0.299393	1.005199	-0.000066
C108	C	0.334559	1.011999	0.036896
C109	C	0.404896	0.951653	0.036901
C110	C	0.404889	0.668047	0.320583
C111	C	0.334552	0.668058	0.380950
C112	C	0.299369	0.631100	0.374184
C113	C	0.334534	0.594124	0.307045
C114	C	0.404875	0.594109	0.246680
C115	C	0.404904	0.951692	0.246656
C116	C	0.334570	1.012065	0.307011
C117	C	0.299387	1.005311	0.374155
C118	C	0.334549	0.938179	0.380944
C119	C	0.404887	0.877808	0.320591
C120	C	1.066135	0.310348	-0.246801
C121	C	1.136492	0.249976	-0.307155
C122	C	1.171679	0.256730	-0.374299
C123	C	1.136512	0.323862	-0.381088
C124	C	1.066161	0.384233	-0.320735
C125	C	1.066133	0.384335	0.036862
C126	C	1.136486	0.323989	0.036855
C127	C	1.171667	0.256841	-0.000103
C128	C	1.136499	0.250041	-0.037062
C129	C	1.066151	0.310387	-0.037059
C130	C	1.066144	0.667930	-0.246807
C131	C	1.136483	0.667930	-0.307162
C132	C	1.171664	0.630962	-0.374306
C133	C	1.136496	0.593995	-0.381093
C134	C	1.066154	0.593999	-0.320738
H135	H	0.579222	-0.042819	0.067001
H136	H	1.037531	0.438887	-0.326272
F137	F	0.358652	0.512064	0.016114
F138	F	1.028705	0.455793	0.076199
H139	H	0.305947	1.066721	0.301470
F140	F	1.173968	0.331039	-0.452554
F141	F	0.426129	0.525030	-0.110133
F142	F	0.913363	0.554678	-0.452526
H143	H	1.228963	0.207566	-0.423437
F144	F	0.557677	0.083461	0.076243
H145	H	0.615769	0.127634	-0.009635
F146	F	0.297137	0.707417	0.452397
F147	F	1.173900	0.331241	0.076196
F148	F	0.224504	0.631122	0.438437
F149	F	1.028715	0.707280	-0.175353
F150	F	0.224532	1.069419	-0.000077
H151	H	0.615766	0.237130	-0.009633
H152	H	0.433513	0.957201	0.067003
F153	F	0.557664	0.707352	-0.547617
H154	H	0.305877	0.564034	0.301546
F155	F	0.297107	1.083468	0.076227
H156	H	1.228949	0.207710	-0.000100
F157	F	0.557660	0.331182	0.076250
H158	H	0.433492	0.564005	0.192021
F159	F	0.557656	0.455767	0.076244
F160	F	1.173949	0.178572	-0.076392
H161	H	0.433502	0.823154	0.326130
F162	F	1.028728	0.303137	-0.076389
F163	F	0.442336	0.806247	-0.076352
H164	H	0.891818	0.564016	-0.808032
H165	H	0.433540	0.957205	0.191990
F166	F	0.871770	0.641886	-0.496209
F167	F	0.239531	0.614993	0.118663
H168	H	1.165151	0.563896	-0.435769
H169	H	0.244769	0.628367	-0.112022
F170	F	0.299323	0.523988	-0.109666
H171	H	1.165109	0.698032	-0.301622
H172	H	1.228941	0.630964	-0.423444
F173	F	0.224525	1.069570	0.438383
H174	H	0.855263	0.640598	-0.606173
H175	H	0.579205	0.698145	-0.673899
H176	H	1.037534	0.563895	-0.326276
F177	F	0.913353	0.303164	-0.076393
F178	F	0.913359	0.178578	-0.076382
H179	H	0.855274	0.134396	0.009489
H180	H	0.855270	0.024910	0.009499
H181	H	0.891826	-0.067441	-0.067147
F182	F	0.442318	0.707388	0.327800
H183	H	0.114676	0.741332	-0.001171
H184	H	0.891841	-0.176944	-0.067160
H185	H	0.131772	0.608333	0.101598
F186	F	0.230151	0.512752	0.016574
H187	H	0.359448	0.629238	-0.111890
H188	H	0.065483	0.735296	0.087148
H189	H	0.181838	0.732304	0.089610
F190	F	0.297095	0.931001	0.452410
H191	H	0.891826	0.563889	-0.326248
F192	F	1.173904	0.178535	-0.299914
F193	F	0.230981	0.754880	-0.005355
H194	H	0.891822	0.563976	-0.698543
H195	H	0.615770	0.621452	-0.503462
F196	F	1.028698	0.303144	-0.175346
H197	H	0.615771	0.621424	-0.393974
H198	H	0.579206	0.698039	-0.192107
F199	F	0.297156	0.930799	-0.076361
F200	F	0.557671	0.707301	-0.299906
