data_functionalizedCrystal
_audit_creation_method	'MofGen! by Chris Wilmer'
_symmetry_space_group_name_H-M	'P1'
_symmetry_Int_Tables_number	1
_symmetry_cell_setting	triclinic
loop_
_symmetry_equiv_pos_as_xyz
  x,y,z
_cell_length_a	23.532407
_cell_length_b	23.532407
_cell_length_c	12.996460
_cell_angle_alpha	89.985369
_cell_angle_beta	89.999749
_cell_angle_gamma	82.848713
loop_
_atom_site_label
_atom_site_type_symbol
_atom_site_fract_x
_atom_site_fract_y
_atom_site_fract_z
O1	O	0.755260	0.069136	-0.085457
O2	O	1.255260	0.569136	0.414543
O3	O	0.589397	0.079139	-0.085490
O4	O	1.089397	0.579139	0.414510
O5	O	0.677330	-0.008794	-0.085444
O6	O	1.177330	0.491206	0.414556
O7	O	0.667327	0.157069	-0.085503
O8	O	1.167327	0.657069	0.414497
O9	O	0.677321	-0.008799	0.085690
O10	O	1.177321	0.491201	0.585690
O11	O	0.589388	0.079134	0.085644
O12	O	1.089388	0.579134	0.585644
O13	O	0.755251	0.069131	0.085677
O14	O	1.255251	0.569131	0.585677
Cu15	Cu	0.672319	0.074132	0.101286
Cu16	Cu	1.172319	0.574132	0.601286
Cu17	Cu	0.672329	0.074138	-0.101099
Cu18	Cu	1.172329	0.574138	0.398901
O19	O	0.667318	0.157064	0.085630
O20	O	1.167318	0.657064	0.585630
C21	C	0.568176	0.078882	0.000073
C22	C	1.068176	0.578882	0.500073
C23	C	0.504959	0.078116	0.000062
C24	C	1.004959	0.578116	0.500062
C25	C	0.677071	-0.030013	0.000128
C26	C	1.177071	0.469987	0.500128
C27	C	0.676305	-0.093230	0.000144
C28	C	1.176305	0.406770	0.500144
C29	C	0.105856	0.125350	0.000092
C30	C	0.605856	0.625350	0.500092
C31	C	0.046456	0.124638	0.000098
C32	C	0.546456	0.624638	0.500098
O33	O	0.009711	0.168424	0.000120
O34	O	0.509711	0.668424	0.500120
N35	N	0.023830	0.072362	0.000115
N36	N	0.523830	0.572362	0.500115
C37	C	0.060607	0.020794	0.000136
C38	C	0.560607	0.520794	0.500136
O39	O	0.035908	-0.023737	0.000152
O40	O	0.535908	0.476263	0.500152
C41	C	0.120006	0.021506	0.000137
C42	C	0.620006	0.521506	0.500137
C43	C	0.142629	0.073785	0.000109
C44	C	0.642629	0.573785	0.500109
C45	C	0.128480	0.177625	0.000065
C46	C	0.628480	0.677625	0.500065
C47	C	0.187876	0.178336	0.000057
C48	C	0.687876	0.678336	0.500057
C49	C	0.224649	0.126772	0.000075
C50	C	0.724649	0.626772	0.500075
C51	C	0.202025	0.074496	0.000101
C52	C	0.702025	0.574496	0.500101
C53	C	0.156783	-0.030062	0.000165
C54	C	0.656783	0.469938	0.500165
C55	C	0.216185	-0.029345	0.000167
C56	C	0.716185	0.470655	0.500167
C57	C	0.238808	0.022934	0.000139
C58	C	0.738808	0.522934	0.500139
C59	C	0.298194	0.023643	0.000110
C60	C	0.798194	0.523643	0.500110
N61	N	0.320821	0.075920	0.000093
N62	N	0.820821	0.575920	0.500093
C63	C	0.284048	0.127484	0.000075
C64	C	0.784048	0.627484	0.500075
C65	C	-0.064135	0.019302	0.000136
C66	C	0.435865	0.519302	0.500136
C67	C	-0.123533	0.018589	0.000128
C68	C	0.376467	0.518589	0.500128
C69	C	-0.137680	0.122434	0.000092
C70	C	0.362320	0.622434	0.500092
C71	C	-0.078281	0.123146	0.000093
C72	C	0.421719	0.623146	0.500093
C73	C	-0.041509	0.071578	0.000119
C74	C	0.458491	0.571578	0.500119
C75	C	0.408784	0.128974	0.000057
C76	C	0.908784	0.628974	0.500057
C77	C	0.468186	0.129680	0.000044
C78	C	0.968186	0.629680	0.500044
C79	C	0.482329	0.025836	0.000086
C80	C	0.982329	0.525836	0.500086
C81	C	0.422932	0.025129	0.000093
C82	C	0.922932	0.525129	0.500093
C83	C	0.386160	0.076702	0.000082
C84	C	0.886160	0.576702	0.500082
O85	O	0.334974	-0.020119	0.000093
O86	O	0.834974	0.479881	0.500093
O87	O	0.308756	0.172007	0.000073
O88	O	0.808756	0.672007	0.500073
C89	C	0.621110	-0.359397	0.000069
C90	C	1.121110	0.140603	0.500069
C91	C	0.621821	-0.299997	0.000077
C92	C	1.121821	0.200003	0.500077
O93	O	0.578035	-0.263252	0.000035
O94	O	1.078035	0.236748	0.500035
N95	N	0.674097	-0.277371	0.000099
N96	N	1.174097	0.222629	0.500099
C97	C	0.725666	-0.314148	0.000103
C98	C	1.225666	0.185852	0.500103
O99	O	0.770196	-0.289449	0.000121
O100	O	1.270196	0.210551	0.500121
C101	C	0.724954	-0.373547	0.000087
C102	C	1.224954	0.126453	0.500087
C103	C	0.672674	-0.396170	0.000075
C104	C	1.172674	0.103830	0.500075
C105	C	0.568834	-0.382020	0.000056
C106	C	1.068834	0.117980	0.500056
C107	C	0.568123	-0.441417	0.000050
C108	C	1.068123	0.058583	0.500050
C109	C	0.619687	-0.478189	0.000056
C110	C	1.119687	0.021811	0.500056
C111	C	0.671963	-0.455566	0.000069
C112	C	1.171963	0.044434	0.500069
C113	C	0.776521	-0.410324	0.000083
C114	C	1.276521	0.089676	0.500083
C115	C	0.775805	-0.469726	0.000067
C116	C	1.275805	0.030274	0.500067
C117	C	0.723525	-0.492349	0.000056
C118	C	1.223525	0.007651	0.500056
C119	C	0.722816	-0.551735	0.000070
C120	C	1.222816	-0.051735	0.500070
N121	N	0.670539	-0.574361	0.000048
N122	N	1.170539	-0.074361	0.500048
C123	C	0.618975	-0.537589	0.000041
C124	C	1.118975	-0.037589	0.500041
C125	C	0.727157	-0.189406	0.000133
C126	C	1.227157	0.310594	0.500133
C127	C	0.727870	-0.130008	0.000156
C128	C	1.227870	0.369992	0.500156
C129	C	0.624025	-0.115861	0.000128
C130	C	1.124025	0.384139	0.500128
C131	C	0.623313	-0.175260	0.000113
C132	C	1.123313	0.324740	0.500113
C133	C	0.674881	-0.212032	0.000111
C134	C	1.174881	0.287968	0.500111
C135	C	0.617486	-0.662325	0.000029
C136	C	1.117486	-0.162325	0.500029
C137	C	0.616779	-0.721727	0.000027
C138	C	1.116779	-0.221727	0.500027
C139	C	0.720623	-0.735869	0.000049
C140	C	1.220623	-0.235869	0.500049
C141	C	0.721330	-0.676473	0.000057
C142	C	1.221330	-0.176473	0.500057
C143	C	0.669757	-0.639701	0.000043
C144	C	1.169757	-0.139701	0.500043
O145	O	0.766579	-0.588514	0.000107
O146	O	1.266579	-0.088514	0.500107
O147	O	0.574452	-0.562296	0.000009
O148	O	1.074452	-0.062296	0.500009
C149	C	0.776472	0.069388	0.000111
C150	C	1.276472	0.569388	0.500111
C151	C	0.839689	0.070154	0.000116
C152	C	1.339689	0.570154	0.500116
C153	C	0.667577	0.178283	0.000056
C154	C	1.167577	0.678283	0.500056
C155	C	0.668343	0.241500	0.000034
C156	C	1.168343	0.741500	0.500034
N157	N	0.672315	0.074128	0.243633
N158	N	1.172315	0.574128	0.743633
N159	N	0.672337	0.074138	-0.243447
N160	N	1.172337	0.574138	0.256553
C161	C	0.672329	0.074138	0.663447
C162	C	1.172329	0.574138	1.163447
C163	C	0.672323	0.074137	0.546642
C164	C	1.172323	0.574137	1.046642
C165	C	0.672322	0.074134	0.453544
C166	C	1.172322	0.574134	0.953544
C167	C	0.672316	0.074132	0.336731
C168	C	1.172316	0.574132	0.836731
H169	H	0.378852	0.170970	0.000051
H170	H	0.878852	0.670970	0.500051
H171	H	-0.167632	0.164421	0.000082
H172	H	0.332368	0.664421	0.500082
O173	O	0.827357	-0.388452	0.000046
O174	O	1.327357	0.111548	0.500046
C175	C	0.872708	-0.433657	0.000068
C176	C	1.372708	0.066343	0.500068
H177	H	0.856970	-0.473914	-0.032338
H178	H	1.356970	0.026086	0.467662
H179	H	0.888595	-0.442168	0.082170
H180	H	1.388595	0.057832	0.582170
C181	C	0.941374	-0.367714	-0.027237
C182	C	1.441374	0.132286	0.472763
C183	C	0.922046	-0.417157	-0.067046
C184	C	1.422046	0.082843	0.432954
H185	H	0.971810	-0.357536	-0.068632
H186	H	1.471810	0.142464	0.431368
H187	H	0.910821	-0.337258	-0.027248
H188	H	1.410821	0.162742	0.472752
H189	H	0.954610	-0.374813	0.041181
H190	H	1.454610	0.125187	0.541181
H191	H	0.908805	-0.410055	-0.135457
H192	H	1.408805	0.089945	0.364543
H193	H	0.952599	-0.447611	-0.067048
H194	H	1.452599	0.052389	0.432952
O195	O	-0.056239	0.173894	0.000207
O196	O	0.443761	0.673894	0.500207
C197	C	-0.022318	0.177422	0.088851
C198	C	0.477682	0.677422	0.588851
H199	H	-0.007273	0.132450	0.118422
H200	H	0.492727	0.632450	0.618422
H201	H	-0.048704	0.202769	0.150902
H202	H	0.451296	0.702769	0.650902
C203	C	0.011579	0.263024	0.025597
C204	C	0.511579	0.763024	0.525597
C205	C	0.030062	0.207788	0.061911
C206	C	0.530062	0.707788	0.561911
H207	H	0.043888	0.281757	0.008981
H208	H	0.543888	0.781757	0.508981
H209	H	-0.011276	0.260648	-0.034123
H210	H	0.488724	0.760648	0.465877
H211	H	-0.010410	0.284139	0.077311
H212	H	0.489590	0.784139	0.577311
H213	H	0.052044	0.186672	0.010192
H214	H	0.552044	0.686672	0.510192
H215	H	0.052922	0.210161	0.121622
H216	H	0.552922	0.710161	0.621622
H217	H	0.098544	0.219617	0.000054
H218	H	0.598544	0.719617	0.500054
H219	H	0.817799	-0.499664	0.000060
H220	H	1.317799	0.000336	0.500060
H221	H	0.763901	-0.658053	0.000081
H222	H	1.263901	-0.158053	0.500081
H223	H	0.246123	-0.071339	0.000189
H224	H	0.746123	0.428661	0.500189
H225	H	-0.141947	-0.023982	0.000134
H226	H	0.358053	0.476018	0.500134
H227	H	0.769152	-0.219343	0.000139
H228	H	1.269152	0.280657	0.500139
H229	H	0.404512	-0.017441	0.000100
H230	H	0.904512	0.482559	0.500100
H231	H	0.512280	-0.016146	0.000096
H232	H	1.012280	0.483854	0.500096
O233	O	0.134747	-0.080811	0.000333
O234	O	0.634747	0.419189	0.500333
C235	C	0.100827	-0.084338	0.088983
C236	C	0.600827	0.415662	0.588983
H237	H	0.085779	-0.039366	0.118508
H238	H	0.585779	0.460634	0.618508
H239	H	0.127215	-0.109681	0.151058
H240	H	0.627215	0.390319	0.651058
C241	C	0.066936	-0.169945	0.025819
C242	C	0.566936	0.330055	0.525819
C243	C	0.048450	-0.114709	0.062077
C244	C	0.548450	0.385291	0.562077
H245	H	0.034629	-0.188682	0.009225
H246	H	0.534629	0.311318	0.509225
H247	H	0.089791	-0.167570	-0.033904
H248	H	0.589791	0.332430	0.466096
H249	H	0.088927	-0.191057	0.077555
H250	H	0.588927	0.308943	0.577555
H251	H	0.026466	-0.093596	0.010337
H252	H	0.526466	0.406404	0.510337
H253	H	0.025591	-0.117081	0.121792
H254	H	0.525591	0.382919	0.621792
H255	H	0.206289	0.220908	0.000034
H256	H	0.706289	0.720908	0.500034
H257	H	0.486602	0.172255	0.000021
H258	H	0.986602	0.672255	0.500021
H259	H	-0.034198	-0.022693	0.000149
H260	H	0.465802	0.477307	0.500149
H261	H	0.762606	-0.765820	0.000060
H262	H	1.262606	-0.265820	0.500060
H263	H	0.574205	-0.740143	0.000022
H264	H	1.074205	-0.240143	0.500022
H265	H	0.575489	-0.632392	0.000017
H266	H	1.075489	-0.132392	0.500017
H267	H	0.525552	-0.459830	0.000031
H268	H	1.025552	0.040170	0.500031
O269	O	0.518688	-0.346385	0.000098
O270	O	1.018688	0.153615	0.500098
C271	C	0.472403	-0.379103	0.000056
C272	C	0.972403	0.120897	0.500056
H273	H	0.487127	-0.423525	0.032441
H274	H	0.987127	0.076475	0.532441
H275	H	0.456365	-0.383228	-0.082049
H276	H	0.956365	0.116772	0.417951
C277	C	0.405537	-0.294703	0.027397
C278	C	0.905537	0.205297	0.527397
C279	C	0.423620	-0.349262	0.067182
C280	C	0.923620	0.150738	0.567182
H281	H	0.375444	-0.276295	0.068799
H282	H	0.875444	0.223705	0.568799
H283	H	0.436720	-0.272660	0.027422
H284	H	0.936720	0.227340	0.527422
H285	H	0.392176	-0.298148	-0.041023
H286	H	0.892176	0.201852	0.458977
H287	H	0.436987	-0.345815	0.135595
H288	H	0.936987	0.154185	0.635595
H289	H	0.392438	-0.371304	0.067170
H290	H	0.892438	0.128696	0.567170
H291	H	0.580742	-0.193674	0.000107
H292	H	1.080742	0.306326	0.500107
H293	H	0.582038	-0.085909	0.000123
H294	H	1.082038	0.414091	0.500123
H295	H	0.770441	-0.111594	0.000182
H296	H	1.270441	0.388406	0.500182
