data_functionalizedCrystal
_audit_creation_method	'MofGen! by Chris Wilmer'
_symmetry_space_group_name_H-M	'P1'
_symmetry_Int_Tables_number	1
_symmetry_cell_setting	triclinic
loop_
_symmetry_equiv_pos_as_xyz
  x,y,z
_cell_length_a	17.699083
_cell_length_b	16.992695
_cell_length_c	16.176319
_cell_angle_alpha	89.993125
_cell_angle_beta	89.998611
_cell_angle_gamma	86.975619
loop_
_atom_site_label
_atom_site_type_symbol
_atom_site_fract_x
_atom_site_fract_y
_atom_site_fract_z
O1	O	1.010252	0.099146	-0.068631
O2	O	1.510252	0.599146	0.431369
O3	O	0.790676	0.112045	-0.068658
O4	O	1.290676	0.612045	0.431342
O5	O	0.899584	-0.008546	-0.068638
O6	O	1.399584	0.491454	0.431362
O7	O	0.901344	0.219736	-0.068651
O8	O	1.401344	0.719736	0.431349
O9	O	0.899567	-0.008553	0.068855
O10	O	1.399567	0.491447	0.568855
O11	O	0.790660	0.112037	0.068835
O12	O	1.290660	0.612037	0.568835
O13	O	1.010235	0.099138	0.068862
O14	O	1.510235	0.599138	0.568862
Cu15	Cu	0.900446	0.105587	0.081403
Cu16	Cu	1.400446	0.605587	0.581403
Cu17	Cu	0.900465	0.105596	-0.081199
Cu18	Cu	1.400465	0.605596	0.418801
O19	O	0.901328	0.219729	0.068842
O20	O	1.401328	0.719729	0.568842
C21	C	0.762442	0.111579	0.000085
C22	C	1.262442	0.611579	0.500085
C23	C	0.678338	0.110192	0.000075
C24	C	1.178338	0.610192	0.500075
C25	C	0.897311	-0.037758	0.000108
C26	C	1.397311	0.462242	0.500108
C27	C	0.890554	-0.124789	0.000107
C28	C	1.390554	0.375211	0.500107
C29	C	0.634124	0.180976	0.000071
C30	C	1.134124	0.680976	0.500071
C31	C	0.555099	0.179669	0.000082
C32	C	1.055099	0.679669	0.500082
C33	C	0.520290	0.107576	0.000091
C34	C	1.020290	0.607576	0.500091
C35	C	0.564510	0.036787	0.000097
C36	C	1.064510	0.536787	0.500097
C37	C	0.643533	0.038095	0.000092
C38	C	1.143533	0.538095	0.500092
C39	C	0.245818	0.031509	0.000118
C40	C	0.745818	0.531509	0.500118
C41	C	0.166789	0.030206	0.000120
C42	C	0.666789	0.530206	0.500120
C43	C	0.157384	0.173082	0.000108
C44	C	0.657384	0.673082	0.500108
C45	C	0.236408	0.174391	0.000103
C46	C	0.736408	0.674391	0.500103
C47	C	0.280621	0.103602	0.000113
C48	C	0.780621	0.603602	0.500113
C49	C	0.366308	0.105020	0.000103
C50	C	0.866308	0.605020	0.500103
C51	C	0.434604	0.106157	0.000095
C52	C	0.934604	0.606157	0.500095
C53	C	0.955751	-0.175154	0.000116
C54	C	1.455751	0.324846	0.500116
C55	C	0.949398	-0.256928	0.000107
C56	C	1.449398	0.243072	0.500107
C57	C	0.877846	-0.288336	0.000096
C58	C	1.377846	0.211664	0.500096
C59	C	0.812643	-0.237965	0.000084
C60	C	1.312643	0.262035	0.500084
C61	C	0.818998	-0.156192	0.000087
C62	C	1.318998	0.343808	0.500087
C63	C	0.851510	-0.531884	0.000081
C64	C	1.351510	-0.031884	0.500081
C65	C	0.845160	-0.613663	0.000081
C66	C	1.345160	-0.113663	0.500081
C67	C	0.981915	-0.632621	0.000102
C68	C	1.481915	-0.132621	0.500102
C69	C	0.988263	-0.550845	0.000110
C70	C	1.488263	-0.050845	0.500110
C71	C	0.923061	-0.500481	0.000094
C72	C	1.423061	-0.000481	0.500094
N73	N	0.871350	-0.371923	0.000090
N74	N	1.371350	0.128077	0.500090
N75	N	0.929558	-0.416897	0.000095
N76	N	1.429558	0.083103	0.500095
C77	C	1.038469	0.099604	0.000117
C78	C	1.538469	0.599604	0.500117
C79	C	1.122574	0.100991	0.000122
C80	C	1.622574	0.600991	0.500122
C81	C	0.903601	0.248941	0.000094
C82	C	1.403601	0.748941	0.500094
C83	C	0.910358	0.335972	0.000090
C84	C	1.410358	0.835972	0.500090
N85	N	0.900438	0.105580	0.195768
N86	N	1.400438	0.605580	0.695768
N87	N	0.900479	0.105597	-0.195564
N88	N	1.400479	0.605597	0.304436
C89	C	0.948679	0.052204	0.239041
C90	C	1.448679	0.552204	0.739041
C91	C	0.948683	0.052203	0.325588
C92	C	1.448683	0.552203	0.825588
C93	C	0.900449	0.105583	0.368861
C94	C	1.400449	0.605583	0.868861
C95	C	0.852202	0.158961	0.325582
C96	C	1.352202	0.658961	0.825582
C97	C	0.852195	0.158957	0.239036
C98	C	1.352195	0.658957	0.739036
C99	C	0.852229	0.158976	0.674610
C100	C	1.352229	0.658976	1.174610
C101	C	0.852242	0.158977	0.761161
C102	C	1.352242	0.658977	1.261161
C103	C	0.948717	0.052222	0.761162
C104	C	1.448717	0.552222	1.261162
C105	C	0.948709	0.052218	0.674617
C106	C	1.448709	0.552218	1.174617
C107	C	0.900461	0.105593	0.631345
C108	C	1.400461	0.605593	1.131345
C109	C	0.900456	0.105593	0.537501
C110	C	1.400456	0.605593	1.037501
C111	C	0.900457	0.105588	0.462703
C112	C	1.400457	0.605588	0.962703
H113	H	0.662460	0.239682	0.000064
H114	H	1.162460	0.739682	0.500064
H115	H	0.786891	-0.639232	0.000085
H116	H	1.286891	-0.139232	0.500085
H117	H	0.987964	0.008741	0.360821
H118	H	1.487964	0.508741	0.860821
H119	H	0.536162	-0.021912	0.000116
H120	H	1.036162	0.478088	0.500116
H121	H	0.812961	0.202446	0.796393
H122	H	1.312961	0.702446	1.296393
F123	F	0.129744	-0.046529	0.000129
F124	F	0.629744	0.453471	0.500129
F125	F	1.051303	-0.686227	0.000118
F126	F	1.551303	-0.186227	0.500118
H127	H	0.281807	-0.026132	0.000127
H128	H	0.781807	0.473868	0.500127
H129	H	0.679531	-0.019545	0.000095
H130	H	1.179531	0.480455	0.500095
H131	H	0.765906	-0.115186	0.000080
H132	H	1.265906	0.384814	0.500080
F133	F	0.508047	0.255007	0.000074
F134	F	1.008047	0.755007	0.500074
F135	F	1.000049	-0.004592	0.628566
F136	F	1.500049	0.495408	1.128566
H137	H	1.014017	-0.149588	0.000131
H138	H	1.514017	0.350412	0.500131
H139	H	1.002489	-0.297933	0.000117
H140	H	1.502489	0.202067	0.500117
F141	F	1.000066	-0.004588	0.807221
F142	F	1.500066	0.495412	1.307221
F143	F	0.800882	0.215783	0.628564
F144	F	1.300882	0.715783	1.128564
H145	H	0.798417	-0.490887	0.000069
H146	H	1.298417	0.009113	0.500069
H147	H	0.812912	0.202420	0.203804
H148	H	1.312912	0.702420	0.703804
F149	F	1.064419	-0.517425	0.000102
F150	F	1.564419	-0.017425	0.500102
F151	F	0.736492	-0.271394	0.000063
F152	F	1.236492	0.228606	0.500063
F153	F	1.000021	-0.004607	0.192996
F154	F	1.500021	0.495393	0.692996
H155	H	0.264745	0.233096	0.000092
H156	H	0.764745	0.733096	0.500092
F157	F	0.110324	0.248423	0.000100
F158	F	0.610324	0.748423	0.500100
F159	F	0.800863	0.215768	0.371636
F160	F	1.300863	0.715768	0.871636
