data_functionalizedCrystal
_audit_creation_method	'MofGen! by Chris Wilmer'
_symmetry_space_group_name_H-M	'P1'
_symmetry_Int_Tables_number	1
_symmetry_cell_setting	triclinic
loop_
_symmetry_equiv_pos_as_xyz
  x,y,z
_cell_length_a	19.121063
_cell_length_b	19.121246
_cell_length_c	19.120904
_cell_angle_alpha	89.874251
_cell_angle_beta	85.258387
_cell_angle_gamma	84.997708
loop_
_atom_site_label
_atom_site_type_symbol
_atom_site_fract_x
_atom_site_fract_y
_atom_site_fract_z
Zn1	Zn	-0.254527	-1.043555	0.452575
Zn2	Zn	-0.367178	-1.043468	0.339922
Zn3	Zn	-0.254107	-0.931341	0.330325
Zn4	Zn	-0.377162	-0.920834	0.452512
O5	O	-0.313244	-0.984799	0.393833
O6	O	-0.265468	-1.141829	0.441673
O7	O	-0.347825	-1.032955	0.240367
O8	O	-0.155519	-0.950660	0.342551
O9	O	-0.348232	-1.141765	0.358908
O10	O	-0.155828	-1.033103	0.432368
O11	O	-0.264752	-0.950575	0.233316
O12	O	-0.274433	-0.831661	0.342490
O13	O	-0.365249	-0.932752	0.550802
O14	O	-0.364841	-0.823942	0.432261
O15	O	-0.275150	-1.022915	0.550848
O16	O	-0.467146	-1.022767	0.358847
O17	O	-0.474482	-0.932668	0.441567
C18	C	-0.320676	-0.802317	0.386328
C19	C	-0.323873	-0.724249	0.383135
C20	C	-0.282359	-0.687600	0.424797
C21	C	-0.285359	-0.614248	0.421791
C22	C	-0.329878	-0.577545	0.377124
C23	C	-0.371394	-0.614199	0.335457
C24	C	-0.368389	-0.687551	0.338460
C25	C	-0.341099	-0.356068	0.365893
C26	C	-0.344102	-0.282711	0.362894
C27	C	-0.258066	-0.282765	0.449227
C28	C	-0.255069	-0.356118	0.452230
C29	C	-0.296581	-0.392766	0.410560
C30	C	-0.332948	-0.502566	0.374051
C31	C	-0.293508	-0.467744	0.413629
C32	C	-0.496391	-0.976586	0.401258
C33	C	-0.574740	-0.973136	0.404460
C34	C	-0.607707	-1.018458	0.362936
C35	C	-0.681325	-1.015217	0.365952
C36	C	-0.721975	-0.966649	0.410489
C37	C	-0.689004	-0.921325	0.452019
C38	C	-0.615387	-0.924570	0.449006
C39	C	-0.944442	-0.954506	0.421743
C40	C	-1.018064	-0.951263	0.424751
C41	C	-1.010380	-1.045155	0.338685
C42	C	-0.936762	-1.048393	0.335673
C43	C	-0.903797	-1.003072	0.377205
C44	C	-0.797225	-0.963334	0.413572
C45	C	-0.828549	-1.006391	0.374125
C46	C	-0.129381	-0.993063	0.386396
C47	C	-0.051030	-0.996585	0.383226
C48	C	-0.321360	-0.976671	0.577021
C49	C	-0.324818	-0.973207	0.655084
C50	C	-0.305779	-0.167994	0.401363
C51	C	-0.302588	-0.246062	0.404557
C52	C	-0.305107	-0.992939	0.211358
C53	C	-0.301444	-0.996547	0.133293
C54	C	-0.279536	-1.018521	0.691783
C55	C	-0.282783	-1.015258	0.765132
C56	C	-0.331317	-0.966684	0.801780
C57	C	-0.376602	-0.921366	0.765075
C58	C	-0.373351	-0.924626	0.691728
C59	C	-0.343478	-0.954489	1.023240
C60	C	-0.346727	-0.951234	1.096593
C61	C	-0.252907	-1.045125	1.096645
C62	C	-0.249662	-1.048384	1.023296
C63	C	-0.294945	-1.003063	0.986598
C64	C	-0.334639	-0.963349	0.876754
C65	C	-0.291619	-1.006395	0.911625
H66	H	-0.224268	-0.252918	0.483151
Br67	Br	-0.431807	-0.564389	0.274831
Br68	Br	-0.393364	-0.452749	0.313434
H69	H	-0.380358	-0.252830	0.326521
Br70	Br	-0.552546	-1.084367	0.302482
H71	H	-0.917608	-0.917602	0.455558
H72	H	-0.374159	-0.923804	0.906601
Br73	Br	-0.570646	-0.863064	0.505367
H74	H	-0.708163	-1.052122	0.332138
H75	H	-0.903666	-1.087940	0.299407
H76	H	-0.795449	-1.045937	0.337866
Br77	Br	-0.191454	-1.106627	1.146453
H78	H	-1.037228	-1.082054	0.304873
H79	H	-0.416117	-0.881814	0.794920
H80	H	-1.051160	-0.911721	0.461031
H81	H	-0.830330	-0.923789	0.449833
H82	H	-0.380360	-0.917596	0.993370
Br83	Br	-0.213670	-1.084451	0.642054
H84	H	-0.402194	-0.717389	0.304533
Br85	Br	-0.233088	-0.517556	0.474242
H86	H	-0.410218	-0.887720	0.661848
Br87	Br	-0.221943	-0.737404	0.485424
Br88	Br	-0.221356	-1.076789	0.814939
Br89	Br	-0.744171	-0.855418	0.512469
H90	H	-0.210143	-1.087940	0.993462
H91	H	-0.252100	-1.045941	0.881782
Br92	Br	-0.194655	-0.405924	0.512858
H93	H	-0.251556	-0.584411	0.455718
Br94	Br	-0.412597	-0.885306	1.146330
H95	H	-0.374902	-0.385898	0.331962
