data_functionalizedCrystal
_audit_creation_method	'MofGen! by Chris Wilmer'
_symmetry_space_group_name_H-M	'P1'
_symmetry_Int_Tables_number	1
_symmetry_cell_setting	triclinic
loop_
_symmetry_equiv_pos_as_xyz
  x,y,z
_cell_length_a	19.805407
_cell_length_b	12.645330
_cell_length_c	19.805399
_cell_angle_alpha	90.023856
_cell_angle_beta	90.017803
_cell_angle_gamma	90.009962
loop_
_atom_site_label
_atom_site_type_symbol
_atom_site_fract_x
_atom_site_fract_y
_atom_site_fract_z
Zn1	Zn	1.034800	-0.422140	0.382705
Zn2	Zn	1.534800	0.077860	0.882705
Zn3	Zn	1.034742	-0.599418	0.269524
Zn4	Zn	1.534742	-0.099418	0.769524
Zn5	Zn	0.921615	-0.422161	0.269533
Zn6	Zn	1.421615	0.077839	0.769533
Zn7	Zn	0.921606	-0.599353	0.382675
Zn8	Zn	1.421606	-0.099353	0.882675
O9	O	0.978191	-0.510768	0.326109
O10	O	1.478191	-0.010768	0.826109
O11	O	1.129509	-0.445674	0.367701
O12	O	1.629509	0.054326	0.867701
O13	O	1.019715	-0.575940	0.174809
O14	O	1.519715	-0.075940	0.674809
O15	O	0.936657	-0.273811	0.284562
O16	O	1.436657	0.226189	0.784562
O17	O	1.129467	-0.575920	0.284547
O18	O	1.629467	-0.075920	0.784547
O19	O	1.019814	-0.273795	0.367709
O20	O	1.519814	0.226205	0.867709
O21	O	0.936601	-0.445710	0.174815
O22	O	1.436601	0.054290	0.674815
O23	O	0.826897	-0.445647	0.284533
O24	O	1.326897	0.054353	0.784533
O25	O	0.936642	-0.575810	0.477395
O26	O	1.436642	-0.075810	0.977395
O27	O	0.826890	-0.575830	0.367657
O28	O	1.326890	-0.075830	0.867657
O29	O	1.019805	-0.445612	0.477418
O30	O	1.519805	0.054388	0.977418
O31	O	1.019706	-0.747757	0.284517
O32	O	1.519706	-0.247757	0.784517
O33	O	0.936585	-0.747709	0.367648
O34	O	1.436585	-0.247709	0.867648
C35	C	0.802335	-0.510735	0.326093
C36	C	1.302335	-0.010735	0.826093
C37	C	0.727103	-0.510746	0.326102
C38	C	1.227103	-0.010746	0.826102
C39	C	0.691782	-0.443047	0.369466
C40	C	1.191782	0.056953	0.869466
C41	C	0.621093	-0.443053	0.369468
C42	C	1.121093	0.056947	0.869468
C43	C	0.585727	-0.510763	0.326110
C44	C	1.085727	-0.010763	0.826110
C45	C	0.621054	-0.578465	0.282741
C46	C	1.121054	-0.078465	0.782741
C47	C	0.691741	-0.578454	0.282736
C48	C	1.191741	-0.078454	0.782736
C49	C	0.335980	-0.578513	0.282762
C50	C	0.835980	-0.078513	0.782762
C51	C	0.265288	-0.578522	0.282772
C52	C	0.765288	-0.078522	0.782772
C53	C	0.265333	-0.443112	0.369495
C54	C	0.765333	0.056888	0.869495
C55	C	0.336020	-0.443100	0.369489
C56	C	0.836020	0.056900	0.869489
C57	C	0.371340	-0.510798	0.326118
C58	C	0.871340	-0.010798	0.826118
C59	C	0.447988	-0.510790	0.326115
C60	C	0.947988	-0.010790	0.826115
C61	C	0.509080	-0.510778	0.326116
C62	C	1.009080	-0.010778	0.826116
C63	C	0.978157	-0.786198	0.326093
C64	C	1.478157	-0.286198	0.826093
C65	C	0.978204	-0.904028	0.326109
C66	C	1.478204	-0.404028	0.826109
C67	C	1.030412	-1.071577	0.273705
C68	C	1.530412	-0.571577	0.773705
C69	C	1.030582	-0.949017	0.273834
C70	C	1.530582	-0.449017	0.773834
C71	C	0.997546	-0.948417	0.397456
C72	C	1.497546	-0.448417	0.897456
C73	C	0.997960	-1.071015	0.397177
C74	C	1.497960	-0.571015	0.897177
C75	C	0.906635	-1.071348	0.307870
C76	C	1.406635	-0.571348	0.807870
C77	C	0.906978	-0.948744	0.306270
C78	C	1.406978	-0.448744	0.806270
C79	C	1.154734	-0.510802	0.326126
C80	C	1.654734	-0.010802	0.826126
C81	C	1.229966	-0.510817	0.326133
C82	C	1.729966	-0.010817	0.826133
C83	C	0.978229	-0.510701	0.502652
C84	C	1.478229	-0.010701	1.002652
C85	C	0.978245	-0.510673	0.577884
C86	C	1.478245	-0.010673	1.077884
C87	C	0.978243	-0.234263	0.326140
C88	C	1.478243	0.265737	0.826140
C89	C	0.978266	-0.116433	0.326153
C90	C	1.478266	0.383567	0.826153
C91	C	0.978192	-0.510758	0.150253
C92	C	1.478192	-0.010758	0.650253
C93	C	0.978307	-0.510488	0.075022
C94	C	1.478307	-0.010488	0.575022
C95	C	1.021549	-0.442875	0.613241
C96	C	1.521549	0.057125	1.113241
C97	C	1.021556	-0.442845	0.683930
C98	C	1.521556	0.057155	1.183930
C99	C	0.978262	-0.510617	0.719260
C100	C	1.478262	-0.010617	1.219260
C101	C	0.934953	-0.578418	0.683898
C102	C	1.434953	-0.078418	1.183898
C103	C	0.934943	-0.578443	0.613211
C104	C	1.434943	-0.078443	1.113211
C105	C	0.934991	-0.578319	0.968971
C106	C	1.434991	-0.078319	1.468971
C107	C	0.935006	-0.578291	1.039663
C108	C	1.435006	-0.078291	1.539663
C109	C	1.021604	-0.442721	1.039690
C110	C	1.521604	0.057279	1.539690
C111	C	1.021594	-0.442746	0.969003
C112	C	1.521594	0.057254	1.469003
C113	C	0.978283	-0.510542	0.933647
C114	C	1.478283	-0.010542	1.433647
C115	C	0.978275	-0.510573	0.856999
C116	C	1.478275	-0.010573	1.356999
C117	C	0.978273	-0.510592	0.795907
C118	C	1.478273	-0.010592	1.295907
H119	H	0.236495	-0.633662	0.247462
H120	H	0.736495	-0.133662	0.747462
F121	F	0.373655	-0.371039	0.415640
F122	F	0.873655	0.128961	0.915640
F123	F	1.067676	-0.370616	0.931406
F124	F	1.567676	0.129384	1.431406
F125	F	0.373562	-0.650545	0.236591
F126	F	0.873562	-0.150545	0.736591
F127	F	0.888923	-0.650428	1.077263
F128	F	1.388923	-0.150428	1.577263
H129	H	0.236567	-0.387986	0.404807
H130	H	0.736567	0.112014	0.904807
H131	H	1.056868	-0.387515	1.068485
H132	H	1.556868	0.112485	1.568485
F133	F	0.729414	-0.370984	0.415618
F134	F	1.229414	0.129016	0.915618
F135	F	0.583413	-0.650523	0.236592
F136	F	1.083413	-0.150523	0.736592
H137	H	0.720498	-0.633580	0.247424
H138	H	1.220498	-0.133580	0.747424
F139	F	0.950466	-1.109798	0.449991
F140	F	1.450466	-0.609798	0.949991
F141	F	1.065209	-0.908185	0.418038
F142	F	1.565209	-0.408185	0.918038
H143	H	0.899734	-0.633538	0.940193
H144	H	1.399734	-0.133538	1.440193
F145	F	0.888873	-0.650543	0.721501
F146	F	1.388873	-0.150543	1.221501
H147	H	0.899673	-0.633640	0.584424
H148	H	1.399673	-0.133640	1.084424
H149	H	1.018481	-0.919009	0.220931
H150	H	1.518481	-0.419009	0.720931
H151	H	1.018463	-1.101125	0.220648
H152	H	1.518463	-0.601125	0.720648
F153	F	0.583505	-0.371000	0.415624
F154	F	1.083505	0.129000	0.915624
H155	H	1.083182	-1.102313	0.285663
H156	H	1.583182	-0.602313	0.785663
F157	F	1.066396	-1.108294	0.417419
F158	F	1.566396	-0.608294	0.917419
F159	F	1.099927	-0.910580	0.289643
F160	F	1.599927	-0.410580	0.789643
H161	H	0.960721	-0.919272	0.437580
H162	H	1.460721	-0.419272	0.937580
H163	H	0.889046	-1.102352	0.256750
H164	H	1.389046	-0.602352	0.756750
F165	F	0.853453	-0.908730	0.352539
F166	F	1.353453	-0.408730	0.852539
F167	F	0.887913	-0.910831	0.237644
F168	F	1.387913	-0.410831	0.737644
H169	H	0.867782	-1.100357	0.346070
H170	H	1.367782	-0.600357	0.846070
H171	H	1.056821	-0.387640	0.712714
H172	H	1.556821	0.112360	1.212714
F173	F	1.067633	-0.370746	0.575646
F174	F	1.567633	0.129254	1.075646
