data_functionalizedCrystal
_audit_creation_method	'MofGen! by Chris Wilmer'
_symmetry_space_group_name_H-M	'P1'
_symmetry_Int_Tables_number	1
_symmetry_cell_setting	triclinic
loop_
_symmetry_equiv_pos_as_xyz
  x,y,z
_cell_length_a	12.759401
_cell_length_b	13.897448
_cell_length_c	12.759401
_cell_angle_alpha	90.009687
_cell_angle_beta	90.006940
_cell_angle_gamma	90.019217
loop_
_atom_site_label
_atom_site_type_symbol
_atom_site_fract_x
_atom_site_fract_y
_atom_site_fract_z
Zn1	Zn	1.606099	-0.384144	0.594007
Zn2	Zn	2.106099	0.115856	1.094007
Zn3	Zn	1.606024	-0.545407	0.418321
Zn4	Zn	2.106024	-0.045407	0.918321
Zn5	Zn	1.430441	-0.384132	0.418342
Zn6	Zn	1.930441	0.115868	0.918342
Zn7	Zn	1.430381	-0.545403	0.593959
Zn8	Zn	1.930381	-0.045403	1.093959
O9	O	1.518236	-0.464771	0.506157
O10	O	2.018236	0.035229	1.006157
O11	O	1.753110	-0.405543	0.570713
O12	O	2.253110	0.094457	1.070713
O13	O	1.582726	-0.524010	0.271303
O14	O	2.082726	-0.024010	0.771303
O15	O	1.453799	-0.249152	0.441673
O16	O	1.953799	0.250848	0.941673
O17	O	1.753055	-0.524022	0.441638
O18	O	2.253055	-0.024022	0.941638
O19	O	1.582855	-0.249161	0.570733
O20	O	2.082855	0.250839	1.070733
O21	O	1.453726	-0.405522	0.271318
O22	O	1.953726	0.094478	0.771318
O23	O	1.283412	-0.405518	0.441626
O24	O	1.783412	0.094482	0.941626
O25	O	1.453696	-0.524015	0.740986
O26	O	1.953696	-0.024015	1.240986
O27	O	1.283368	-0.524003	0.570651
O28	O	1.783368	-0.024003	1.070651
O29	O	1.582796	-0.405539	0.741021
O30	O	2.082796	0.094461	1.241021
O31	O	1.582668	-0.680388	0.441591
O32	O	2.082668	-0.180388	0.941591
O33	O	1.453624	-0.680385	0.570631
O34	O	1.953624	-0.180385	1.070631
C35	C	1.245269	-0.464760	0.506136
C36	C	1.745269	0.035240	1.006136
C37	C	1.128492	-0.464778	0.506152
C38	C	1.628492	0.035222	1.006152
C39	C	1.073635	-0.526567	0.573230
C40	C	1.573635	-0.026567	1.073230
C41	C	0.963911	-0.526571	0.573251
C42	C	1.463911	-0.026571	1.073251
C43	C	0.963911	-0.402993	0.439108
C44	C	1.463911	0.097007	0.939108
C45	C	1.073633	-0.402986	0.439093
C46	C	1.573633	0.097014	0.939093
C47	C	1.518160	-0.715386	0.506127
C48	C	2.018160	-0.215386	1.006127
C49	C	1.518223	-0.822600	0.506149
C50	C	2.018223	-0.322600	1.006149
C51	C	1.518333	-1.018895	0.506215
C52	C	2.018333	-0.518895	1.006215
C53	C	1.518269	-0.909662	0.506181
C54	C	2.018269	-0.409662	1.006181
C55	C	1.792270	-0.464784	0.506179
C56	C	2.292270	0.035216	1.006179
C57	C	1.909046	-0.464789	0.506188
C58	C	2.409046	0.035211	1.006188
C59	C	1.518248	-0.464778	0.780190
C60	C	2.018248	0.035222	1.280190
C61	C	1.518253	-0.464781	0.896967
C62	C	2.018253	0.035219	1.396967
C63	C	1.518342	-0.213178	0.506211
C64	C	2.018342	0.286822	1.006211
C65	C	1.518387	-0.105964	0.506233
C66	C	2.018387	0.394036	1.006233
C67	C	1.585467	-0.403100	0.951849
C68	C	2.085467	0.096900	1.451849
C69	C	1.585458	-0.403098	1.061573
C70	C	2.085458	0.096902	1.561573
C71	C	1.451018	-0.526466	1.061523
C72	C	1.951018	-0.026466	1.561523
C73	C	1.451023	-0.526462	0.951801
C74	C	1.951023	-0.026462	1.451801
C75	C	1.518224	-0.464786	1.233190
C76	C	2.018224	0.035214	1.733190
C77	C	1.518239	-0.464783	1.116413
C78	C	2.018239	0.035217	1.616413
H79	H	1.118298	-0.576880	0.627837
H80	H	1.618298	-0.076880	1.127837
H81	H	1.396282	-0.576689	0.907115
H82	H	1.896282	-0.076689	1.407115
H83	H	1.118300	-0.352663	0.384470
H84	H	1.618300	0.147337	0.884470
Cl85	Cl	1.366511	-0.604009	1.130466
Cl86	Cl	1.866511	-0.104009	1.630466
H87	H	0.919251	-0.576884	0.627873
H88	H	1.419251	-0.076884	1.127873
Cl89	Cl	0.894938	-0.325318	0.354806
Cl90	Cl	1.394938	0.174682	0.854806
H91	H	1.640207	-0.352872	0.907206
H92	H	2.140207	0.147128	1.407206
Cl93	Cl	1.669968	-0.325562	1.130563
Cl94	Cl	2.169968	0.174438	1.630563
