data_functionalizedCrystal
_audit_creation_method	'MofGen! by Chris Wilmer'
_symmetry_space_group_name_H-M	'P1'
_symmetry_Int_Tables_number	1
_symmetry_cell_setting	triclinic
loop_
_symmetry_equiv_pos_as_xyz
  x,y,z
_cell_length_a	14.519709
_cell_length_b	8.559649
_cell_length_c	7.681481
_cell_angle_alpha	94.930900
_cell_angle_beta	84.260287
_cell_angle_gamma	76.729405
loop_
_atom_site_label
_atom_site_type_symbol
_atom_site_fract_x
_atom_site_fract_y
_atom_site_fract_z
O1	O	-1.199063	-0.224489	-0.146196
O2	O	-0.928812	-0.249156	-0.146249
O3	O	-1.087747	-0.004288	-0.146216
O4	O	-1.040128	-0.469357	-0.146229
O5	O	-1.107314	0.025920	0.146646
O6	O	-0.948379	-0.218948	0.146613
O7	O	-1.218630	-0.194281	0.146666
Zn8	Zn	-1.086611	-0.201819	0.193138
Zn9	Zn	-1.060831	-0.241618	-0.192720
O10	O	-1.059695	-0.439149	0.146633
C11	C	-0.904318	-0.232903	0.000175
C12	C	-0.802183	-0.229461	0.000155
C13	C	-1.101139	0.070335	0.000213
C14	C	-1.111880	0.247684	0.000205
C15	C	-1.243124	-0.210534	0.000238
C16	C	-1.345258	-0.213977	0.000247
C17	C	-0.428202	-0.216774	0.000235
C18	C	-0.532256	-0.220297	0.000212
C19	C	-0.615189	-0.223117	0.000193
C20	C	-0.719249	-0.226641	0.000174
C21	C	-1.046303	-0.513773	0.000201
C22	C	-1.035561	-0.691123	0.000197
N23	N	-1.104212	-0.174655	0.456476
N24	N	-1.043238	-0.268769	-0.456058
H25	H	-0.962003	0.225590	0.000188
H26	H	-1.185444	0.330983	0.000234
H27	H	-0.980995	-0.364830	0.468732
O28	O	-1.186671	-0.047415	0.556110
H29	H	-1.254794	-0.071497	0.520821
