data_functionalizedCrystal
_audit_creation_method	'MofGen! by Chris Wilmer'
_symmetry_space_group_name_H-M	'P1'
_symmetry_Int_Tables_number	1
_symmetry_cell_setting	triclinic
loop_
_symmetry_equiv_pos_as_xyz
  x,y,z
_cell_length_a	17.699083
_cell_length_b	14.519709
_cell_length_c	16.776229
_cell_angle_alpha	89.992406
_cell_angle_beta	89.998886
_cell_angle_gamma	83.481580
loop_
_atom_site_label
_atom_site_type_symbol
_atom_site_fract_x
_atom_site_fract_y
_atom_site_fract_z
O1	O	1.004412	0.116624	-0.066178
O2	O	0.784077	0.131797	-0.066204
O3	O	0.900087	-0.010052	-0.066183
O4	O	0.888403	0.258474	-0.066199
O5	O	0.900071	-0.010061	0.066393
O6	O	0.784062	0.131789	0.066372
O7	O	1.004397	0.116616	0.066398
Zn8	Zn	0.894227	0.124201	0.087435
Zn9	Zn	0.894247	0.124212	-0.087241
O10	O	0.888388	0.258465	0.066377
C11	C	0.755871	0.131249	0.000080
C12	C	0.671848	0.129618	0.000071
C13	C	0.623466	0.212881	0.000066
C14	C	0.544518	0.211343	0.000076
C15	C	0.513954	0.126541	0.000086
C16	C	0.562343	0.043272	0.000093
C17	C	0.641289	0.044811	0.000088
C18	C	0.243962	0.037064	0.000113
C19	C	0.165010	0.035531	0.000115
C20	C	0.147191	0.203596	0.000101
C21	C	0.226137	0.205135	0.000097
C22	C	0.274519	0.121866	0.000108
C23	C	0.360123	0.123535	0.000098
C24	C	0.428352	0.124872	0.000090
C25	C	0.899534	-0.044414	0.000105
C26	C	0.897903	-0.146789	0.000105
C27	C	0.891896	-0.521659	0.000084
C28	C	0.893564	-0.417358	0.000090
C29	C	0.894899	-0.334227	0.000095
C30	C	0.896568	-0.229920	0.000100
C31	C	1.032603	0.117164	0.000112
C32	C	1.116626	0.118795	0.000116
C33	C	0.888940	0.292827	0.000087
C34	C	0.890572	0.395202	0.000082
N35	N	0.894219	0.124192	0.206646
N36	N	0.894262	0.124213	-0.206452
C37	C	0.945603	0.061407	0.248372
C38	C	0.945607	0.061406	0.331824
C39	C	0.894230	0.124196	0.373549
C40	C	0.842840	0.186984	0.331816
C41	C	0.842833	0.186980	0.248366
C42	C	0.842867	0.187002	0.668364
C43	C	0.842880	0.187004	0.751820
C44	C	0.945642	0.061429	0.751822
C45	C	0.945635	0.061424	0.668372
C46	C	0.894242	0.124209	0.626647
C47	C	0.894238	0.124208	0.536158
C48	C	0.894238	0.124202	0.464036
H49	H	0.987444	0.010280	0.214406
C50	C	0.787142	0.255117	0.377259
C51	C	0.798160	0.241703	0.459273
C52	C	0.746873	0.304461	0.501156
H53	H	0.736584	0.245239	0.363688
H54	H	0.795448	0.316673	0.363615
H55	H	0.789849	0.180161	0.472910
H56	H	0.848708	0.251588	0.472867
H57	H	0.755179	0.366017	0.487513
H58	H	0.696318	0.294578	0.487580
H59	H	0.754346	0.295374	0.556807
C60	C	0.787011	0.255254	0.203204
C61	C	0.742032	0.310262	0.257603
C62	C	0.690605	0.373172	0.216030
H63	H	0.755389	0.222232	0.170656
H64	H	0.814264	0.293652	0.170656
H65	H	0.714781	0.271868	0.290136
H66	H	0.773633	0.343304	0.290152
H67	H	0.717857	0.411571	0.183483
H68	H	0.658988	0.340143	0.183484
H69	H	0.660085	0.410508	0.252934
H70	H	0.251017	0.274189	0.000085
C71	C	0.296611	-0.053241	0.000151
C72	C	0.372292	-0.033752	0.000166
C73	C	0.420816	-0.116921	0.000209
H74	H	0.287427	-0.088079	-0.046068
H75	H	0.287380	-0.088035	0.046403
H76	H	0.381519	0.001027	-0.046080
H77	H	0.381499	0.001073	0.046382
H78	H	0.411585	-0.151715	0.046460
H79	H	0.411626	-0.151753	-0.046011
H80	H	0.472170	-0.103710	0.000226
H81	H	0.648344	0.281937	0.000058
H82	H	0.505128	0.279144	0.000072
C83	C	1.001449	-0.006853	0.623216
C84	C	1.046438	-0.061857	0.677621
C85	C	1.097854	-0.124776	0.636054
H86	H	1.033066	0.026163	0.590648
H87	H	0.974188	-0.045253	0.590690
H88	H	1.073698	-0.023462	0.710133
H89	H	1.014842	-0.094893	0.710190
H90	H	1.070592	-0.163176	0.603528
H91	H	1.129466	-0.091752	0.603488
H92	H	1.128380	-0.162109	0.672961
C93	C	0.094571	0.293935	-0.000026
C94	C	0.048709	0.297953	-0.068220
C95	C	0.000222	0.381151	-0.068362
H96	H	0.123986	0.344735	-0.000077
H97	H	0.063362	0.296837	0.046185
H98	H	0.079914	0.295060	-0.114419
H99	H	0.019278	0.247173	-0.068184
H100	H	-0.030987	0.384053	-0.022151
H101	H	0.029643	0.431945	-0.068411
H102	H	-0.030906	0.383885	-0.114627
C103	C	1.001371	-0.006902	0.377020
C104	C	0.989003	-0.097513	0.356719
C105	C	1.040370	-0.160464	0.398327
H106	H	0.994076	0.001956	0.432709
H107	H	1.051903	0.002995	0.363314
H108	H	0.938483	-0.107406	0.370431
H109	H	0.996304	-0.106401	0.301037
H110	H	1.090902	-0.150567	0.384620
H111	H	1.033071	-0.151597	0.454013
H112	H	1.031990	-0.221950	0.384552
C113	C	0.131972	-0.056640	0.000171
C114	C	0.191239	-0.129235	0.000203
C115	C	0.160833	-0.214149	0.000264
H116	H	0.101556	-0.060865	-0.046047
H117	H	0.101566	-0.060777	0.046424
H118	H	0.221632	-0.125099	-0.046044
H119	H	0.221659	-0.125040	0.046418
H120	H	0.130427	-0.218287	0.046517
H121	H	0.130418	-0.218365	-0.045955
H122	H	0.201040	-0.263415	0.000293
C123	C	0.787053	0.255026	0.797226
C124	C	0.740688	0.205962	0.845166
C125	C	0.689262	0.268589	0.887013
H126	H	0.756369	0.292444	0.760517
H127	H	0.814310	0.293367	0.829815
H128	H	0.713433	0.167638	0.812579
H129	H	0.771351	0.168548	0.881890
H130	H	0.716519	0.306929	0.919603
H131	H	0.658583	0.306003	0.850298
H132	H	0.657802	0.235308	0.919551
H133	H	0.801023	0.238126	0.634398
H134	H	0.537452	-0.025775	0.000112
H135	H	0.680683	-0.022990	0.000091
C136	C	1.001312	-0.006854	0.797170
C137	C	0.960928	-0.063265	0.845074
C138	C	1.012184	-0.126181	0.886849
H139	H	1.032881	0.026165	0.829782
H140	H	1.031901	-0.044301	0.760394
H141	H	0.930353	-0.025823	0.881845
H142	H	0.929362	-0.096305	0.812481
H143	H	1.042773	-0.163629	0.850074
H144	H	1.043751	-0.093154	0.919457
H145	H	0.984791	-0.164469	0.919351
