data_functionalizedCrystal
_audit_creation_method	'MofGen! by Chris Wilmer'
_symmetry_space_group_name_H-M	'P1'
_symmetry_Int_Tables_number	1
_symmetry_cell_setting	triclinic
loop_
_symmetry_equiv_pos_as_xyz
  x,y,z
_cell_length_a	14.971491
_cell_length_b	10.723024
_cell_length_c	14.048226
_cell_angle_alpha	90.005928
_cell_angle_beta	90.003182
_cell_angle_gamma	84.042052
loop_
_atom_site_label
_atom_site_type_symbol
_atom_site_fract_x
_atom_site_fract_y
_atom_site_fract_z
O1	O	1.187811	0.162649	0.079199
O2	O	1.687811	0.662649	0.579199
O3	O	0.927516	0.182116	0.079192
O4	O	1.427516	0.682116	0.579192
O5	O	1.063667	-0.009256	0.079192
O6	O	1.563667	0.490744	0.579192
O7	O	1.051659	0.354022	0.079199
O8	O	1.551659	0.854022	0.579199
O9	O	1.063664	-0.009272	-0.079129
O10	O	1.563664	0.490728	0.420871
O11	O	0.927513	0.182100	-0.079130
O12	O	1.427513	0.682100	0.420870
O13	O	1.187808	0.162634	-0.079122
O14	O	1.687808	0.662634	0.420878
Zn15	Zn	1.057660	0.172364	-0.104263
Zn16	Zn	1.557660	0.672364	0.395737
Zn17	Zn	1.057664	0.172385	0.104332
Zn18	Zn	1.557664	0.672385	0.604332
O19	O	1.051656	0.354006	-0.079123
O20	O	1.551656	0.854006	0.420877
C21	C	0.894185	0.181237	0.000030
C22	C	1.394185	0.681237	0.500030
C23	C	0.794874	0.178624	0.000027
C24	C	1.294874	0.678624	0.500027
C25	C	0.367110	0.167360	0.086350
C26	C	0.867110	0.667360	0.586350
C27	C	0.460423	0.169811	0.086346
C28	C	0.960423	0.669811	0.586346
C29	C	0.507074	0.171036	0.000042
C30	C	1.007074	0.671036	0.500042
C31	C	0.460407	0.169797	-0.086264
C32	C	0.960407	0.669797	0.413736
C33	C	0.367096	0.167338	-0.086260
C34	C	0.867096	0.667338	0.413740
C35	C	0.654897	0.174927	-0.086268
C36	C	1.154897	0.674927	0.413732
C37	C	0.748214	0.177389	-0.086272
C38	C	1.248214	0.677389	0.413728
C39	C	0.748223	0.177401	0.086339
C40	C	1.248223	0.677401	0.586339
C41	C	0.654912	0.174941	0.086343
C42	C	1.154912	0.674941	0.586343
C43	C	0.608252	0.173705	0.000036
C44	C	1.108252	0.673705	0.500036
C45	C	1.062792	-0.055754	0.000032
C46	C	1.562792	0.444246	0.500032
C47	C	1.060177	-0.194281	0.000036
C48	C	1.560177	0.305719	0.500036
C49	C	1.136361	-0.270058	0.000039
C50	C	1.636361	0.229942	0.500039
C51	C	1.133660	-0.413233	0.000043
C52	C	1.633660	0.086767	0.500043
C53	C	1.221138	0.163513	0.000041
C54	C	1.721138	0.663513	0.500041
C55	C	1.320449	0.166126	0.000050
C56	C	1.820449	0.666126	0.500050
C57	C	1.052531	0.400504	0.000039
C58	C	1.552531	0.900504	0.500039
C59	C	1.055146	0.539031	0.000042
C60	C	1.555146	1.039031	0.500042
N61	N	1.057667	0.172390	0.246693
N62	N	1.557667	0.672390	0.746693
N63	N	1.057664	0.172350	-0.246624
N64	N	1.557664	0.672350	0.253376
C65	C	1.118069	0.087818	0.296511
C66	C	1.618069	0.587818	0.796511
C67	C	1.118073	0.087814	0.396169
C68	C	1.618073	0.587814	0.896169
C69	C	1.057669	0.172377	0.446006
C70	C	1.557669	0.672377	0.946006
C71	C	0.997264	0.256959	0.396181
C72	C	1.497264	0.756959	0.896181
C73	C	0.997265	0.256968	0.296525
C74	C	1.497265	0.756968	0.796525
C75	C	0.997264	0.256932	0.603895
C76	C	1.497264	0.756932	1.103895
C77	C	0.997261	0.256922	0.703558
C78	C	1.497261	0.756922	1.203558
C79	C	1.118071	0.087778	0.703539
C80	C	1.618071	0.587778	1.203539
C81	C	1.118073	0.087787	0.603883
C82	C	1.618073	0.587787	1.103883
C83	C	1.057666	0.172367	0.554065
C84	C	1.557666	0.672367	1.054065
H85	H	0.498410	0.170809	0.156620
H86	H	0.998410	0.670809	0.656620
H87	H	0.616931	0.173952	0.156620
H88	H	1.116931	0.673952	0.656620
H89	H	0.992955	-0.235403	0.000040
H90	H	1.492955	0.264597	0.500040
Cl91	Cl	0.921331	0.363298	0.233898
Cl92	Cl	1.421331	0.863298	0.733898
Cl93	Cl	0.806880	0.178970	0.194838
Cl94	Cl	1.306880	0.678970	0.694838
Cl95	Cl	0.806860	0.178919	-0.194771
Cl96	Cl	1.306860	0.678919	0.305229
Cl97	Cl	0.921324	0.363239	0.766204
Cl98	Cl	1.421324	0.863239	1.266204
Cl99	Cl	1.194006	-0.018504	0.233869
Cl100	Cl	1.694006	0.481496	0.733869
H101	H	0.989924	-0.395864	0.000033
H102	H	1.489924	0.104136	0.500033
H103	H	0.948078	0.325811	0.563337
H104	H	1.448078	0.825811	1.063337
H105	H	0.616908	0.173936	-0.156548
H106	H	1.116908	0.673936	0.343452
Cl107	Cl	0.308471	0.165829	0.194854
Cl108	Cl	0.808471	0.665829	0.694854
H109	H	1.167257	0.018949	0.436730
H110	H	1.667257	0.518949	0.936730
H111	H	0.948085	0.325819	0.436765
H112	H	1.448085	0.825819	0.936765
Cl113	Cl	1.194003	-0.018529	0.541228
Cl114	Cl	1.694003	0.481471	1.041228
H115	H	1.203583	-0.228937	0.000035
H116	H	1.703583	0.271063	0.500035
H117	H	0.498399	0.170787	-0.156535
H118	H	0.998399	0.670787	0.343465
H119	H	0.329106	0.166345	-0.156534
H120	H	0.829106	0.666345	0.343466
Cl121	Cl	1.234359	-0.513756	0.000040
Cl122	Cl	1.734359	-0.013756	0.500040
Cl123	Cl	1.194008	-0.018552	0.766171
Cl124	Cl	1.694008	0.481448	1.266171
