data_functionalizedCrystal
_audit_creation_method	'MofGen! by Chris Wilmer'
_symmetry_space_group_name_H-M	'P1'
_symmetry_Int_Tables_number	1
_symmetry_cell_setting	triclinic
loop_
_symmetry_equiv_pos_as_xyz
  x,y,z
_cell_length_a	19.077241
_cell_length_b	19.077713
_cell_length_c	25.639234
_cell_angle_alpha	87.723951
_cell_angle_beta	92.323673
_cell_angle_gamma	90.117203
loop_
_atom_site_label
_atom_site_type_symbol
_atom_site_fract_x
_atom_site_fract_y
_atom_site_fract_z
Zn1	Zn	-1.085504	0.236730	-0.335166
Zn2	Zn	-0.752171	0.570064	-0.001833
Zn3	Zn	-0.418837	0.903397	0.331501
Zn4	Zn	-1.090123	0.354228	-0.251380
Zn5	Zn	-0.756790	0.687562	0.081953
Zn6	Zn	-0.423456	1.020895	0.415287
Zn7	Zn	-0.967990	0.241450	-0.244369
Zn8	Zn	-0.634657	0.574784	0.088964
Zn9	Zn	-0.301324	0.908117	0.422297
Zn10	Zn	-0.972666	0.358905	-0.335409
Zn11	Zn	-0.639333	0.692238	-0.002076
Zn12	Zn	-0.306000	1.025572	0.331257
O13	O	-1.029071	0.297829	-0.291581
O14	O	-0.695738	0.631162	0.041752
O15	O	-0.362404	0.964495	0.375085
O16	O	-1.184452	0.248384	-0.326884
O17	O	-0.851119	0.581717	0.006449
O18	O	-0.517786	0.915051	0.339783
O19	O	-1.073898	0.339286	-0.177285
O20	O	-0.740565	0.672620	0.156049
O21	O	-0.407231	1.005953	0.489382
O22	O	-0.979689	0.142496	-0.253378
O23	O	-0.646355	0.475829	0.079955
O24	O	-0.313022	0.809163	0.413289
O25	O	-1.187846	0.334709	-0.265327
O26	O	-0.854513	0.668043	0.068007
O27	O	-0.521179	1.001376	0.401340
O28	O	-1.066025	0.139028	-0.320086
O29	O	-0.732692	0.472361	0.013247
O30	O	-0.399359	0.805695	0.346581
O31	O	-0.984168	0.256429	-0.172134
O32	O	-0.650834	0.589762	0.161199
O33	O	-0.317501	0.923096	0.494533
O34	O	-0.870275	0.260964	-0.253614
O35	O	-0.536941	0.594297	0.079719
O36	O	-0.203608	0.927630	0.413053
O37	O	-0.987658	0.342680	-0.408543
O38	O	-0.654325	0.676013	-0.075209
O39	O	-0.320992	1.009347	0.258124
O40	O	-0.873710	0.347257	-0.320501
O41	O	-0.540377	0.680590	0.012833
O42	O	-0.207044	1.013924	0.346166
O43	O	-1.070560	0.252919	-0.408364
O44	O	-0.737226	0.586252	-0.075030
O45	O	-0.403893	0.919586	0.258303
O46	O	-1.078432	0.453177	-0.265562
O47	O	-0.745099	0.786510	0.067771
O48	O	-0.411765	1.119844	0.401104
O49	O	-0.992137	0.456613	-0.327299
O50	O	-0.658804	0.789946	0.006035
O51	O	-0.325471	1.123280	0.339368
C52	C	-0.846495	0.305131	-0.286323
C53	C	-0.513162	0.638464	0.047010
C54	C	-0.179828	0.971797	0.380343
C55	C	-0.768389	0.308271	-0.284087
C56	C	-0.435056	0.641605	0.049247
C57	C	-0.101722	0.974938	0.382580
C58	C	-0.729931	0.264873	-0.315139
C59	C	-0.396598	0.598207	0.018194
C60	C	-0.063265	0.931540	0.351528
C61	C	-0.656542	0.267821	-0.313033
C62	C	-0.323209	0.601154	0.020300
C63	C	0.010124	0.934488	0.353634
C64	C	-0.621612	0.314171	-0.279877
C65	C	-0.288279	0.647504	0.053456
C66	C	0.045054	0.980838	0.386790
C67	C	-0.660075	0.357571	-0.248821
C68	C	-0.326742	0.690904	0.084512
C69	C	0.006591	1.024237	0.417845
C70	C	-0.733463	0.354619	-0.250925
C71	C	-0.400130	0.687952	0.082408
C72	C	-0.066796	1.021286	0.415742
C73	C	-0.402316	0.327807	-0.270141
C74	C	-0.068983	0.661141	0.063193
C75	C	0.264350	0.994474	0.396526
C76	C	-0.328923	0.330757	-0.268041
C77	C	0.004410	0.664091	0.065293
C78	C	0.337743	0.997424	0.398626
C79	C	-0.325395	0.241007	-0.332252
C80	C	0.007938	0.574340	0.001082
C81	C	0.341271	0.907673	0.334415
C82	C	-0.398785	0.238062	-0.334354
C83	C	-0.065451	0.571395	-0.001021
C84	C	0.267882	0.904729	0.332312
C85	C	-0.437241	0.281459	-0.303297
C86	C	-0.103908	0.614792	0.030036
C87	C	0.229426	0.948126	0.363370
N88	N	-0.546597	0.317187	-0.277725
N89	N	-0.213264	0.650520	0.055608
N90	N	0.120070	0.983853	0.388942
N91	N	-0.512255	0.278439	-0.305447
N92	N	-0.178921	0.611773	0.027887
N93	N	0.154412	0.945106	0.361220
C94	C	-1.036312	0.480390	-0.297230
C95	C	-0.702979	0.813723	0.036104
C96	C	-0.369646	1.147056	0.369437
C97	C	-1.039475	0.558488	-0.299665
C98	C	-0.706141	0.891821	0.033668
C99	C	-0.372808	1.225154	0.367001
C100	C	-0.212359	0.290495	-0.296856
C101	C	0.120974	0.623828	0.036478
C102	C	0.454307	0.957161	0.369811
C103	C	-0.290466	0.287359	-0.299093
C104	C	0.042868	0.620693	0.034241
C105	C	0.376201	0.954026	0.367574
C106	C	-1.029115	0.297795	-0.427955
C107	C	-0.695782	0.631128	-0.094621
C108	C	-0.362449	0.964461	0.238712
C109	C	-1.029134	0.297780	-0.486069
C110	C	-0.695801	0.631114	-0.152735
C111	C	-0.362468	0.964447	0.180598
C112	C	-1.021820	0.114554	-0.285923
C113	C	-0.688487	0.447887	0.047411
C114	C	-0.355154	0.781220	0.380744
C115	C	-1.018731	0.036453	-0.283511
C116	C	-0.685397	0.369786	0.049822
C117	C	-0.352064	0.703119	0.383155
C118	C	-1.062152	0.997893	-0.317120
C119	C	-0.728819	1.331227	0.016214
C120	C	-0.395486	1.664560	0.349547
C121	C	-1.059173	0.924512	-0.314826
C122	C	-0.725840	1.257846	0.018507
C123	C	-0.392507	1.591179	0.351841
C124	C	-1.012769	0.889692	-0.278927
C125	C	-0.679435	1.223026	0.054407
C126	C	-0.346102	1.556359	0.387740
C127	C	-0.969345	0.928257	-0.245315
C128	C	-0.636012	1.261590	0.088018
C129	C	-0.302678	1.594924	0.421352
C130	C	-0.972328	1.001637	-0.247606
C131	C	-0.638995	1.334970	0.085727
C132	C	-0.305661	1.668303	0.419060
C133	C	-0.999034	0.670432	-0.268345
C134	C	-0.665701	1.003765	0.064988
C135	C	-0.332368	1.337098	0.398322
C136	C	-0.996053	0.597047	-0.266057
C137	C	-0.662720	0.930380	0.067276
C138	C	-0.329386	1.263714	0.400609
C139	C	-1.085882	0.593307	-0.335568
C140	C	-0.752549	0.926641	-0.002235
C141	C	-0.419216	1.259974	0.331099
C142	C	-1.088858	0.666689	-0.337858
C143	C	-0.755525	1.000022	-0.004525
C144	C	-0.422192	1.333355	0.328808
C145	C	-1.045438	0.705247	-0.304245
C146	C	-0.712104	1.038580	0.029089
C147	C	-0.378771	1.371913	0.362422
N148	N	-1.009721	0.814685	-0.276583
N149	N	-0.676387	1.148019	0.056751
N150	N	-0.343054	1.481352	0.390084
N151	N	-1.048489	0.780252	-0.306587
N152	N	-0.715156	1.113586	0.026747
N153	N	-0.381823	1.446919	0.360080
C154	C	-0.982428	0.254552	-0.843753
C155	C	-0.649095	0.587885	-0.510420
C156	C	-0.315761	0.921219	-0.177087
C157	C	-0.982431	0.254539	-0.898358
C158	C	-0.649098	0.587872	-0.565024
C159	C	-0.315765	0.921206	-0.231691
O160	O	-0.942688	0.217864	-0.924318
O161	O	-0.609354	0.551197	-0.590985
O162	O	-0.276021	0.884530	-0.257652
N163	N	-1.029153	0.297669	-0.928349
N164	N	-0.695820	0.631002	-0.595015
N165	N	-0.362486	0.964336	-0.261682
C166	C	-1.075870	0.340820	-0.903733
C167	C	-0.742537	0.674153	-0.570400
C168	C	-0.409203	1.007487	-0.237066
O169	O	-1.115610	0.377505	-0.934257
O170	O	-0.782277	0.710838	-0.600924
O171	O	-0.448944	1.044171	-0.267590
C172	C	-1.075863	0.340836	-0.849130
C173	C	-0.742529	0.674169	-0.515797
C174	C	-0.409196	1.007503	-0.182463
C175	C	-1.029143	0.297698	-0.819142
C176	C	-0.695809	0.631031	-0.485808
C177	C	-0.362476	0.964365	-0.152475
C178	C	-0.935711	0.211418	-0.813765
C179	C	-0.602378	0.544751	-0.480432
C180	C	-0.269045	0.878085	-0.147098
C181	C	-0.935709	0.211430	-0.759165
C182	C	-0.602376	0.544763	-0.425832
C183	C	-0.269042	0.878097	-0.092498
C184	C	-0.982424	0.254576	-0.734553
C185	C	-0.649090	0.587909	-0.401220
C186	C	-0.315757	0.921243	-0.067886
C187	C	-1.029140	0.297710	-0.764541
C188	C	-0.695807	0.631043	-0.431208
C189	C	-0.362474	0.964377	-0.097875
C190	C	-1.122575	0.383990	-0.824516
C191	C	-0.789242	0.717324	-0.491182
C192	C	-0.455909	1.050657	-0.157849
C193	C	-1.122564	0.384003	-0.769908
C194	C	-0.789231	0.717336	-0.436575
C195	C	-0.455897	1.050670	-0.103242
C196	C	-1.075844	0.340865	-0.739920
C197	C	-0.742510	0.674198	-0.406587
C198	C	-0.409177	1.007532	-0.073253
C199	C	-1.075853	0.340868	-0.685329
C200	C	-0.742519	0.674202	-0.351996
C201	C	-0.409186	1.007535	-0.018662
N202	N	-1.029131	0.297738	-0.655338
N203	N	-0.695798	0.631072	-0.322005
N204	N	-0.362464	0.964405	0.011329
C205	C	-0.982416	0.254592	-0.679950
C206	C	-0.649083	0.587925	-0.346617
C207	C	-0.315750	0.921259	-0.013283
C208	C	-1.075881	0.340784	-1.018403
C209	C	-0.742547	0.674117	-0.685070
C210	C	-0.409214	1.007451	-0.351736
C211	C	-1.075892	0.340765	-1.073005
C212	C	-0.742559	0.674098	-0.739672
C213	C	-0.409225	1.007431	-0.406339
C214	C	-0.982452	0.254484	-1.067626
C215	C	-0.649119	0.587818	-0.734292
C216	C	-0.315785	0.921151	-0.400959
C217	C	-0.982445	0.254500	-1.013023
C218	C	-0.649112	0.587834	-0.679689
C219	C	-0.315778	0.921167	-0.346356
C220	C	-1.029159	0.297654	-0.988412
C221	C	-0.695825	0.630987	-0.655079
C222	C	-0.362492	0.964321	-0.321745
C223	C	-0.982416	0.254620	-0.565286
C224	C	-0.649082	0.587954	-0.231952
C225	C	-0.315749	0.921287	0.101381
C226	C	-0.982420	0.254634	-0.510681
C227	C	-0.649086	0.587967	-0.177347
C228	C	-0.315753	0.921301	0.155986
C229	C	-1.075856	0.340917	-0.516065
C230	C	-0.742523	0.674250	-0.182732
C231	C	-0.409190	1.007583	0.150602
C232	C	-1.075855	0.340901	-0.570665
C233	C	-0.742522	0.674234	-0.237332
C234	C	-0.409189	1.007567	0.096002
C235	C	-1.029129	0.297750	-0.595274
C236	C	-0.695796	0.631084	-0.261940
C237	C	-0.362463	0.964417	0.071393
O238	O	-1.115574	0.377527	-0.659332
O239	O	-0.782241	0.710860	-0.325999
O240	O	-0.448908	1.044194	0.007334
O241	O	-0.942676	0.217920	-0.649420
O242	O	-0.609343	0.551254	-0.316087
O243	O	-0.276010	0.884587	0.017247
C244	C	-1.029065	0.297810	-0.155738
C245	C	-0.695732	0.631143	0.177595
C246	C	-0.362398	0.964477	0.510929
C247	C	-1.029174	0.297621	-0.097622
C248	C	-0.695841	0.630954	0.235711
C249	C	-0.362508	0.964288	0.569045
H250	H	-0.631630	0.395306	-0.221823
H251	H	-0.298296	0.728640	0.111511
H252	H	0.035037	1.061973	0.444844
Br253	Br	-0.872296	0.152886	-0.718474
Br254	Br	-0.538963	0.486219	-0.385141
Br255	Br	-0.205630	0.819552	-0.051808
H256	H	-1.126654	0.695033	-0.367086
H257	H	-0.793321	1.028367	-0.033752
H258	H	-0.459987	1.361700	0.299581
H259	H	-0.300486	0.368504	-0.241041
H260	H	0.032847	0.701838	0.092292
H261	H	0.366181	1.035171	0.425626
H262	H	-0.758366	0.227132	-0.342139
H263	H	-0.425032	0.560465	-0.008806
H264	H	-0.091699	0.893799	0.324527
H265	H	-0.764775	0.389958	-0.225639
H266	H	-0.431441	0.723291	0.107695
H267	H	-0.098108	1.056625	0.441028
H268	H	-0.944402	0.219373	-0.988609
H269	H	-0.611068	0.552707	-0.655276
H270	H	-0.277735	0.886040	-0.321943
Br271	Br	-0.872294	0.152866	-0.847156
Br272	Br	-0.538960	0.486199	-0.513823
Br273	Br	-0.205627	0.819532	-0.180490
H274	H	-1.113906	0.376019	-0.595083
H275	H	-0.780573	0.709352	-0.261750
H276	H	-0.447239	1.042686	0.071584
Br277	Br	-0.913402	1.053968	-0.201990
Br278	Br	-0.580068	1.387302	0.131344
Br279	Br	-0.246735	1.720635	0.464677
H280	H	-0.963678	0.701817	-0.240975
H281	H	-0.630344	1.035150	0.092359
H282	H	-0.297011	1.368484	0.425692
Br283	Br	-0.919012	0.196083	-0.469985
Br284	Br	-0.585679	0.529416	-0.136652
Br285	Br	-0.252346	0.862749	0.196682
Br286	Br	-0.604352	0.208921	-0.355178
Br287	Br	-0.271019	0.542255	-0.021844
Br288	Br	0.062315	0.875588	0.311489
H289	H	-0.944367	0.219483	-0.585315
H290	H	-0.611034	0.552816	-0.251982
H291	H	-0.277701	0.886149	0.081351
H292	H	-0.427219	0.200321	-0.361355
H293	H	-0.093886	0.533655	-0.028022
H294	H	0.239447	0.866988	0.305311
H295	H	-0.433619	0.363145	-0.244852
H296	H	-0.100285	0.696479	0.088482
H297	H	0.233048	1.029812	0.421815
Br298	Br	-0.919053	0.195928	-1.101038
Br299	Br	-0.585720	0.529261	-0.767705
Br300	Br	-0.252386	0.862595	-0.434371
H301	H	-1.094531	0.893117	-0.342192
H302	H	-0.761198	1.226451	-0.008859
H303	H	-0.427864	1.559784	0.324475
H304	H	-0.294076	0.205674	-0.357536
H305	H	0.039257	0.539007	-0.024203
H306	H	0.372590	0.872341	0.309131
H307	H	-1.099933	1.026239	-0.346358
H308	H	-0.766600	1.359572	-0.013024
H309	H	-0.433266	1.692905	0.320309
Br310	Br	-1.144806	0.540975	-0.381184
Br311	Br	-0.811473	0.874309	-0.047851
Br312	Br	-0.478140	1.207642	0.285482
H313	H	-1.113944	0.375884	-1.097417
H314	H	-0.780610	0.709217	-0.764084
H315	H	-0.447277	1.042551	-0.430751
Br316	Br	-0.933077	0.549791	-0.217329
Br317	Br	-0.599743	0.883125	0.116004
Br318	Br	-0.266410	1.216458	0.449337
Br319	Br	-0.906371	0.881002	-0.196590
Br320	Br	-0.573038	1.214335	0.136743
Br321	Br	-0.239704	1.547669	0.470076
H322	H	-1.113929	0.375920	-0.998369
H323	H	-0.780596	0.709253	-0.665035
H324	H	-0.447263	1.042587	-0.331702
Br325	Br	-1.185981	0.442544	-0.865201
Br326	Br	-0.852648	0.775877	-0.531867
Br327	Br	-0.519314	1.109210	-0.198534
Br328	Br	-1.185962	0.442575	-0.736512
Br329	Br	-0.852628	0.775909	-0.403178
Br330	Br	-0.519295	1.109242	-0.069845
H331	H	-1.113892	0.376043	-0.496016
H332	H	-0.780559	0.709376	-0.162683
H333	H	-0.447226	1.042710	0.170651
