data_functionalizedCrystal
_audit_creation_method	'MofGen! by Chris Wilmer'
_symmetry_space_group_name_H-M	'P1'
_symmetry_Int_Tables_number	1
_symmetry_cell_setting	triclinic
loop_
_symmetry_equiv_pos_as_xyz
  x,y,z
_cell_length_a	6.817900
_cell_length_b	11.102188
_cell_length_c	14.125465
_cell_angle_alpha	94.635546
_cell_angle_beta	100.398878
_cell_angle_gamma	108.603886
loop_
_atom_site_label
_atom_site_type_symbol
_atom_site_fract_x
_atom_site_fract_y
_atom_site_fract_z
V1	V	-4.017258	-0.174747	-0.299977
O2	O	-3.978095	0.009521	-0.294266
O3	O	-3.994671	-0.347575	-0.297925
O4	O	-3.952928	-0.171566	-0.430807
O5	O	-4.020126	-0.167706	-0.160465
V6	V	-4.499605	-0.152765	-0.283290
O7	O	-4.281095	-0.222967	-0.336581
O8	O	-4.685966	-0.104545	-0.246686
O9	O	-4.298986	0.020063	-0.285341
O10	O	-4.656166	-0.337033	-0.289001
O11	O	-4.614134	-0.159806	-0.422802
O12	O	-4.340729	-0.155946	-0.152460
C13	C	-3.846466	-0.389722	-0.293193
C14	C	-3.909179	-0.531007	-0.292388
C15	C	-3.965116	-0.712317	-0.203151
C16	C	-3.906168	-0.579562	-0.203903
C17	C	-3.971123	-0.615214	-0.380126
C18	C	-4.030055	-0.747965	-0.379372
C19	C	-3.962120	-0.760864	-0.114661
C20	C	-3.900176	-0.676667	-0.026922
C21	C	-3.841228	-0.543912	-0.027674
C22	C	-3.844224	-0.495356	-0.116165
C23	C	-3.793218	-0.165204	-0.462695
C24	C	-3.822076	-0.163747	-0.569650
C25	C	-3.874969	-0.161074	-0.765473
C26	C	-4.061263	-0.166435	-0.817794
C27	C	-4.090695	-0.164948	-0.926757
C28	C	-3.845529	-0.162561	-0.656500
C29	C	-4.110534	0.062203	-0.290071
C30	C	-4.027059	0.203487	-0.290882
C31	C	-4.163782	-0.162312	-0.120566
C32	C	-4.114162	-0.163763	-0.013611
H33	H	-3.973559	-0.575668	-0.452171
Cl34	Cl	-3.662875	-0.152280	-0.822658
H35	H	-4.010119	-0.868958	-0.114038
H36	H	-4.198655	-0.172154	-0.780756
H37	H	-3.796164	-0.387255	-0.116769
H38	H	-4.080486	-0.816520	-0.450811
H39	H	-3.897724	-0.716210	0.045124
Cl40	Cl	-3.763335	-0.438067	0.082623
