data_functionalizedCrystal
_audit_creation_method	'MofGen! by Chris Wilmer'
_symmetry_space_group_name_H-M	'P1'
_symmetry_Int_Tables_number	1
_symmetry_cell_setting	triclinic
loop_
_symmetry_equiv_pos_as_xyz
  x,y,z
_cell_length_a	18.215407
_cell_length_b	15.297327
_cell_length_c	18.215399
_cell_angle_alpha	99.648308
_cell_angle_beta	89.982632
_cell_angle_gamma	99.704016
loop_
_atom_site_label
_atom_site_type_symbol
_atom_site_fract_x
_atom_site_fract_y
_atom_site_fract_z
Zn1	Zn	1.074350	-0.359235	-0.466758
Zn2	Zn	1.052956	-0.510106	-0.364980
Zn3	Zn	0.951279	-0.359257	-0.343713
Zn4	Zn	0.929954	-0.510048	-0.488002
O5	O	1.002135	-0.434661	-0.415863
O6	O	1.174494	-0.379264	-0.453266
O7	O	1.039440	-0.490129	-0.259179
O8	O	0.985483	-0.233007	-0.342244
O9	O	1.158776	-0.490108	-0.378490
O10	O	1.075902	-0.232991	-0.432644
O11	O	0.964738	-0.379300	-0.243555
O12	O	0.845468	-0.379244	-0.362844
O13	O	0.949137	-0.490009	-0.588164
O14	O	0.829801	-0.490030	-0.468853
O15	O	1.055224	-0.379207	-0.572555
O16	O	1.018761	-0.636345	-0.399090
O17	O	0.928393	-0.636302	-0.489474
C18	C	0.810932	-0.434634	-0.415847
C19	C	0.729132	-0.434643	-0.415860
C20	C	0.549105	-0.377046	-0.454887
C21	C	0.472245	-0.377053	-0.454890
C22	C	0.455913	-0.492302	-0.376857
C23	C	0.532772	-0.492289	-0.376849
C24	C	0.579366	-0.434662	-0.415868
C25	C	0.425647	-0.434683	-0.415879
C26	C	0.342312	-0.434692	-0.415883
C27	C	0.662706	-0.434652	-0.415864
C28	C	0.968961	-0.669058	-0.448911
C29	C	0.954837	-0.769333	-0.463074
C30	C	1.103387	-1.051958	-0.314891
C31	C	1.116657	-0.957744	-0.301581
C32	C	1.076204	-0.910636	-0.341953
C33	C	1.022477	-0.957753	-0.395638
C34	C	1.009201	-1.051976	-0.408945
C35	C	0.982018	-0.910655	-0.436007
C36	C	0.928291	-0.957771	-0.489692
C37	C	0.915019	-1.051985	-0.502997
C38	C	0.955472	-1.099092	-0.462625
C39	C	0.995294	-0.816431	-0.422700
C40	C	0.901108	-0.816450	-0.516754
C41	C	0.887838	-0.910664	-0.530064
C42	C	1.194084	-0.434690	-0.415881
C43	C	1.275881	-0.434702	-0.415888
C44	C	1.002188	-0.434599	-0.607808
C45	C	1.002211	-0.434573	-0.689603
C46	C	1.035458	-0.199350	-0.382702
C47	C	1.049658	-0.099074	-0.368571
C48	C	1.057475	-0.376824	-0.869663
C49	C	1.057488	-0.376798	-0.946518
C50	C	0.947019	-0.492181	-0.962761
C51	C	0.947004	-0.492202	-0.885906
C52	C	1.002236	-0.434525	-0.839360
C53	C	1.002264	-0.434478	-0.993069
C54	C	1.002277	-0.434450	-1.076399
C55	C	1.002222	-0.434552	-0.756024
C56	C	1.002133	-0.434658	-0.224657
C57	C	1.002289	-0.434430	-0.142826
H58	H	0.557411	-0.539209	-0.345072
H59	H	0.447611	-0.330135	-0.486661
H60	H	0.902052	-0.539142	-1.000668
H61	H	1.087011	-0.833923	-0.331112
H62	H	1.160400	-0.919385	-0.257871
H63	H	0.417968	-0.539221	-0.345089
H64	H	0.902017	-0.539189	-0.861233
H65	H	1.039038	-0.778078	-0.378989
O66	O	0.594280	-0.321110	-0.492892
C67	C	0.624036	-0.277538	-0.611989
C68	C	0.572813	-0.340931	-0.569037
H69	H	0.606709	-0.293553	-0.673563
H70	H	0.619197	-0.204761	-0.588960
H71	H	0.684167	-0.287411	-0.605244
H72	H	0.512662	-0.331138	-0.575765
H73	H	0.577717	-0.413685	-0.592076
O74	O	0.861898	-0.770561	-0.555934
C75	C	0.840578	-0.625417	-0.577084
C76	C	0.885046	-0.677280	-0.532679
H77	H	0.859266	-0.549991	-0.558289
H78	H	0.850877	-0.643815	-0.639052
H79	H	0.778625	-0.644059	-0.566751
H80	H	0.947013	-0.658666	-0.542950
H81	H	0.874685	-0.658877	-0.470726
H82	H	0.871262	-1.090344	-0.546702
O83	O	1.142727	-1.097771	-0.275779
C84	C	1.227029	-1.204158	-0.280946
C85	C	1.182541	-1.152306	-0.325341
H86	H	1.259218	-1.248276	-0.320999
H87	H	1.267759	-1.154359	-0.240298
H88	H	1.186998	-1.248273	-0.248669
H89	H	1.222516	-1.108189	-0.357662
H90	H	1.141802	-1.202153	-0.365944
O91	O	0.942652	-1.190614	-0.475675
C92	C	0.942456	-1.325739	-0.565347
C93	C	0.957012	-1.222091	-0.550667
H94	H	0.954044	-1.351220	-0.625981
H95	H	0.980622	-1.351355	-0.527324
H96	H	0.881866	-1.351377	-0.553610
H97	H	1.017581	-1.196377	-0.562412
H98	H	0.918797	-1.196537	-0.588684
O99	O	0.835650	-0.956576	-0.582158
C100	C	0.773498	-1.101736	-0.644369
C101	C	0.832608	-1.049853	-0.585340
H102	H	0.771030	-1.177159	-0.646971
H103	H	0.716736	-1.083349	-0.628798
H104	H	0.789005	-1.083100	-0.701082
H105	H	0.817171	-1.068461	-0.528605
H106	H	0.889353	-1.068244	-0.600975
H107	H	1.102447	-0.329857	-0.831766
O108	O	1.111222	-0.320721	-0.975837
C109	C	1.220766	-0.206244	-0.951606
C110	C	1.159965	-0.269724	-0.918308
H111	H	1.260182	-0.164983	-0.905108
H112	H	1.253443	-0.247613	-0.993405
H113	H	1.193649	-0.159093	-0.980958
H114	H	1.187021	-0.316888	-0.888918
H115	H	1.127294	-0.228298	-0.876548
