data_functionalizedCrystal
_audit_creation_method	'MofGen! by Chris Wilmer'
_symmetry_space_group_name_H-M	'P1'
_symmetry_Int_Tables_number	1
_symmetry_cell_setting	triclinic
loop_
_symmetry_equiv_pos_as_xyz
  x,y,z
_cell_length_a	18.050589
_cell_length_b	16.120530
_cell_length_c	16.120256
_cell_angle_alpha	90.128265
_cell_angle_beta	92.877403
_cell_angle_gamma	87.123928
loop_
_atom_site_label
_atom_site_type_symbol
_atom_site_fract_x
_atom_site_fract_y
_atom_site_fract_z
Zn1	Zn	-0.376262	1.247404	-0.534589
Zn2	Zn	-0.126262	1.497404	-0.284589
Zn3	Zn	0.123738	1.747404	-0.034589
Zn4	Zn	0.373738	1.997404	0.215411
Zn5	Zn	-0.494483	1.254344	-0.395538
Zn6	Zn	-0.244483	1.504344	-0.145538
Zn7	Zn	0.005517	1.754344	0.104462
Zn8	Zn	0.255517	2.004344	0.354462
Zn9	Zn	-0.363709	1.115396	-0.388506
Zn10	Zn	-0.113709	1.365396	-0.138506
Zn11	Zn	0.136291	1.615396	0.111494
Zn12	Zn	0.386291	1.865396	0.361494
Zn13	Zn	-0.493803	1.108300	-0.527508
Zn14	Zn	-0.243803	1.358300	-0.277508
Zn15	Zn	0.006197	1.608300	-0.027508
Zn16	Zn	0.256197	1.858300	0.222492
O17	O	-0.432065	1.181361	-0.461535
O18	O	-0.182065	1.431361	-0.211535
O19	O	0.067935	1.681361	0.038465
O20	O	0.317935	1.931361	0.288465
O21	O	-0.397483	1.364690	-0.522050
O22	O	-0.147483	1.614690	-0.272050
O23	O	0.102517	1.864690	-0.022050
O24	O	0.352517	2.114690	0.227950
O25	O	-0.472167	1.241786	-0.278239
O26	O	-0.222167	1.491786	-0.028239
O27	O	0.027833	1.741786	0.221761
O28	O	0.277833	1.991786	0.471761
O29	O	-0.261454	1.132972	-0.407905
O30	O	-0.011454	1.382972	-0.157905
O31	O	0.238546	1.632972	0.092095
O32	O	0.488546	1.882972	0.342095
O33	O	-0.484340	1.369789	-0.419890
O34	O	-0.234340	1.619789	-0.169890
O35	O	0.015660	1.869789	0.080110
O36	O	0.265660	2.119789	0.330110
O37	O	-0.270677	1.229958	-0.515232
O38	O	-0.020677	1.479958	-0.265232
O39	O	0.229323	1.729958	-0.015232
O40	O	0.479323	1.979958	0.234768
O41	O	-0.376088	1.139701	-0.273073
O42	O	-0.126088	1.389701	-0.023073
O43	O	0.123912	1.639701	0.226927
O44	O	0.373912	1.889701	0.476927
O45	O	-0.375428	0.998089	-0.401038
O46	O	-0.125428	1.248089	-0.151038
O47	O	0.124572	1.498089	0.098962
O48	O	0.374572	1.748089	0.348962
O49	O	-0.483180	1.120879	-0.644814
O50	O	-0.233180	1.370879	-0.394814
O51	O	0.016820	1.620879	-0.144814
O52	O	0.266820	1.870879	0.105186
O53	O	-0.471007	0.992875	-0.503162
O54	O	-0.221007	1.242875	-0.253162
O55	O	0.028993	1.492875	-0.003162
O56	O	0.278993	1.742875	0.246838
O57	O	-0.396823	1.223078	-0.650016
O58	O	-0.146823	1.473078	-0.400016
O59	O	0.103177	1.723078	-0.150016
O60	O	0.353177	1.973078	0.099984
O61	O	-0.598314	1.234905	-0.413024
O62	O	-0.348314	1.484905	-0.163024
O63	O	-0.098314	1.734905	0.086976
O64	O	0.151686	1.984905	0.336976
O65	O	-0.597814	1.127608	-0.509981
O66	O	-0.347814	1.377608	-0.259981
O67	O	-0.097814	1.627608	-0.009981
O68	O	0.152186	1.877608	0.240019
C69	C	-0.421782	0.965310	-0.450569
C70	C	-0.171782	1.215310	-0.200569
C71	C	0.078218	1.465310	0.049431
C72	C	0.328218	1.715310	0.299431
C73	C	-0.417402	0.872881	-0.445898
C74	C	-0.167402	1.122881	-0.195898
C75	C	0.082598	1.372881	0.054102
C76	C	0.332598	1.622881	0.304102
C77	C	-0.409388	0.703652	-0.437376
C78	C	-0.159388	0.953652	-0.187376
C79	C	0.090612	1.203652	0.062624
C80	C	0.340612	1.453652	0.312624
C81	C	-0.454798	0.659907	-0.485756
C82	C	-0.204798	0.909907	-0.235756
C83	C	0.045202	1.159907	0.014244
C84	C	0.295202	1.409907	0.264244
C85	C	-0.450339	0.565742	-0.481014
C86	C	-0.200339	0.815742	-0.231014
C87	C	0.049661	1.065742	0.018986
C88	C	0.299661	1.315742	0.268986
C89	C	-0.413846	0.797826	-0.442116
C90	C	-0.163846	1.047826	-0.192116
C91	C	0.086154	1.297826	0.057884
C92	C	0.336154	1.547826	0.307884
C93	C	-0.625011	1.181261	-0.461516
C94	C	-0.375011	1.431261	-0.211516
C95	C	-0.125011	1.681261	0.038484
C96	C	0.124989	1.931261	0.288484
C97	C	-0.707560	1.181293	-0.461540
C98	C	-0.457560	1.431293	-0.211540
C99	C	-0.207560	1.681293	0.038460
C100	C	0.042440	1.931293	0.288460
C101	C	-0.906767	1.123000	-0.514249
C102	C	-0.656767	1.373000	-0.264249
C103	C	-0.406767	1.623000	-0.014249
C104	C	-0.156767	1.873000	0.235751
C105	C	-0.951987	1.106577	-0.437343
C106	C	-0.701987	1.356577	-0.187343
C107	C	-0.451987	1.606577	0.062657
C108	C	-0.201987	1.856577	0.312657
C109	C	-0.858694	1.181374	-0.461555
C110	C	-0.608694	1.431374	-0.211555
C111	C	-0.358694	1.681374	0.038445
C112	C	-0.108694	1.931374	0.288445
C113	C	-0.960558	1.197838	-0.538472
C114	C	-0.710558	1.447838	-0.288472
C115	C	-0.460558	1.697838	-0.038472
C116	C	-0.210558	1.947838	0.211528
C117	C	-1.004684	1.181451	-0.461576
C118	C	-0.754684	1.431451	-0.211576
C119	C	-0.504684	1.681451	0.038424
C120	C	-0.254684	1.931451	0.288424
C121	C	-0.902823	1.164914	-0.384607
C122	C	-0.652823	1.414914	-0.134607
C123	C	-0.402823	1.664914	0.115393
C124	C	-0.152823	1.914914	0.365393
C125	C	-0.911394	1.256206	-0.485789
C126	C	-0.661394	1.506206	-0.235789
C127	C	-0.411394	1.756206	0.014211
C128	C	-0.161394	2.006206	0.264211
C129	C	-0.956591	1.239815	-0.408832
C130	C	-0.706591	1.489815	-0.158832
C131	C	-0.456591	1.739815	0.091168
C132	C	-0.206591	1.989815	0.341168
C133	C	-0.774593	1.181328	-0.461544
C134	C	-0.524593	1.431328	-0.211544
C135	C	-0.274593	1.681328	0.038456
C136	C	-0.024593	1.931328	0.288456
C137	C	-1.088783	1.181498	-0.461579
C138	C	-0.838783	1.431498	-0.211579
C139	C	-0.588783	1.681498	0.038421
C140	C	-0.338783	1.931498	0.288421
C141	C	-0.238366	1.181483	-0.461574
C142	C	0.011634	1.431483	-0.211574
C143	C	0.261634	1.681483	0.038426
C144	C	0.511634	1.931483	0.288426
C145	C	-0.155823	1.181535	-0.461590
C146	C	0.094177	1.431535	-0.211590
C147	C	0.344177	1.681535	0.038410
C148	C	0.594177	1.931535	0.288410
C149	C	-0.441326	1.170413	-0.678431
C150	C	-0.191326	1.420413	-0.428431
C151	C	0.058674	1.670413	-0.178431
C152	C	0.308674	1.920413	0.071569
C153	C	-0.445273	1.165747	-0.770859
C154	C	-0.195273	1.415747	-0.520859
C155	C	0.054727	1.665747	-0.270859
C156	C	0.304727	1.915747	-0.020859
C157	C	-0.442388	1.398256	-0.472545
C158	C	-0.192388	1.648256	-0.222545
C159	C	0.057612	1.898256	0.027455
C160	C	0.307612	2.148256	0.277455
C161	C	-0.446787	1.490683	-0.477236
C162	C	-0.196787	1.740683	-0.227236
C163	C	0.053213	1.990683	0.022764
C164	C	0.303213	2.240683	0.272764
C165	C	-0.411464	1.205689	-0.983841
C166	C	-0.161464	1.455689	-0.733841
C167	C	0.088536	1.705689	-0.483841
C168	C	0.338536	1.955689	-0.233841
C169	C	-0.452447	1.157201	-0.940079
C170	C	-0.202447	1.407201	-0.690079
C171	C	0.047553	1.657201	-0.440079
C172	C	0.297553	1.907201	-0.190079
C173	C	-0.448454	1.161958	-0.845916
C174	C	-0.198454	1.411958	-0.595916
C175	C	0.051546	1.661958	-0.345916
C176	C	0.301546	1.911958	-0.095916
C177	C	-0.415455	1.200934	-1.078013
C178	C	-0.165455	1.450934	-0.828013
C179	C	0.084545	1.700934	-0.578013
C180	C	0.334545	1.950934	-0.328013
C181	C	-0.422788	1.192314	-0.245486
C182	C	-0.172788	1.442314	0.004514
C183	C	0.077212	1.692314	0.254514
C184	C	0.327212	1.942314	0.504514
C185	C	-0.418639	1.197141	-0.153067
C186	C	-0.168639	1.447141	0.096933
C187	C	0.081361	1.697141	0.346933
C188	C	0.331361	1.947141	0.596933
H189	H	-0.884892	1.073570	-0.558741
H190	H	-0.634892	1.323570	-0.308741
H191	H	-0.384892	1.573570	-0.058741
H192	H	-0.134892	1.823570	0.191259
O193	O	-0.353462	0.659589	-0.377795
O194	O	-0.103462	0.909589	-0.127795
O195	O	0.146538	1.159589	0.122205
O196	O	0.396538	1.409589	0.372205
H197	H	-0.320879	0.706158	-0.343084
H198	H	-0.070879	0.956158	-0.093084
H199	H	0.179121	1.206158	0.156916
H200	H	0.429121	1.456158	0.406916
H201	H	-0.373382	1.250770	-0.950590
H202	H	-0.123382	1.500770	-0.700590
H203	H	0.126618	1.750770	-0.450590
H204	H	0.376618	2.000770	-0.200590
H205	H	-0.497023	0.693175	-0.530737
H206	H	-0.247023	0.943175	-0.280737
H207	H	0.002977	1.193175	-0.030737
H208	H	0.252977	1.443175	0.219263
O209	O	-0.975802	1.022800	-0.410189
O210	O	-0.725802	1.272800	-0.160189
O211	O	-0.475802	1.522800	0.089811
O212	O	-0.225802	1.772800	0.339811
H213	H	-0.955853	0.974416	-0.454013
H214	H	-0.705853	1.224416	-0.204013
H215	H	-0.455853	1.474416	0.045987
H216	H	-0.205853	1.724416	0.295987
H217	H	-0.877689	1.150945	-0.319546
H218	H	-0.627689	1.400945	-0.069546
H219	H	-0.377689	1.650945	0.180454
H220	H	-0.127689	1.900945	0.430454
O221	O	-0.985384	1.305255	-0.349754
O222	O	-0.735384	1.555255	-0.099754
O223	O	-0.485384	1.805255	0.150246
O224	O	-0.235384	2.055255	0.400246
H225	H	-0.962028	1.291422	-0.285995
H226	H	-0.712028	1.541422	-0.035995
H227	H	-0.462028	1.791422	0.214005
H228	H	-0.212028	2.041422	0.464005
O229	O	-0.887723	1.340064	-0.512868
O230	O	-0.637723	1.590064	-0.262868
O231	O	-0.387723	1.840064	-0.012868
O232	O	-0.137723	2.090064	0.237132
H233	H	-0.910987	1.353594	-0.576725
H234	H	-0.660987	1.603594	-0.326725
H235	H	-0.410987	1.853594	-0.076725
H236	H	-0.160987	2.103594	0.173275
H237	H	-0.985778	1.211732	-0.603511
H238	H	-0.735778	1.461732	-0.353511
H239	H	-0.485778	1.711732	-0.103511
H240	H	-0.235778	1.961732	0.146489
H241	H	-0.490527	1.112113	-0.973333
H242	H	-0.240527	1.362113	-0.723333
H243	H	0.009473	1.612113	-0.473333
H244	H	0.259473	1.862113	-0.223333
