data_functionalizedCrystal
_audit_creation_method	'MofGen! by Chris Wilmer'
_symmetry_space_group_name_H-M	'P1'
_symmetry_Int_Tables_number	1
_symmetry_cell_setting	triclinic
loop_
_symmetry_equiv_pos_as_xyz
  x,y,z
_cell_length_a	13.339070
_cell_length_b	11.026607
_cell_length_c	12.377047
_cell_angle_alpha	99.898556
_cell_angle_beta	81.025403
_cell_angle_gamma	67.892344
loop_
_atom_site_label
_atom_site_type_symbol
_atom_site_fract_x
_atom_site_fract_y
_atom_site_fract_z
O1	O	1.437866	-0.619741	0.094028
O2	O	1.127849	-0.534675	0.094022
O3	O	1.257164	-0.391905	0.094021
O4	O	1.308550	-0.762511	0.094030
O5	O	1.302017	-0.448605	-0.093972
O6	O	1.172701	-0.591375	-0.093970
O7	O	1.482718	-0.676441	-0.093965
Zn8	Zn	1.334831	-0.642910	-0.123815
Zn9	Zn	1.275736	-0.568206	0.123873
O10	O	1.353402	-0.819211	-0.093963
C11	C	1.109969	-0.548655	0.000025
C12	C	0.989867	-0.505824	0.000023
N13	N	1.375169	-0.693896	-0.292856
C14	C	1.270110	-0.371852	0.000026
C15	C	1.241848	-0.227621	0.000029
C16	C	0.685718	-0.838858	0.000049
C17	C	0.798558	-0.879103	0.000055
C18	C	0.846391	-0.785787	0.000047
C19	C	0.781372	-0.652218	0.000034
C20	C	0.668518	-0.611966	0.000037
C21	C	0.829192	-0.558895	0.000034
C22	C	0.764173	-0.425326	0.000021
C23	C	0.651331	-0.385081	0.000024
C24	C	0.603497	-0.478397	0.000032
C25	C	0.942046	-0.599147	0.000031
C26	C	0.924847	-0.372255	0.000018
C27	C	0.812006	-0.332009	0.000013
C28	C	1.500597	-0.662460	0.000035
C29	C	1.620697	-0.705289	0.000044
C30	C	1.340456	-0.839263	0.000035
C31	C	1.368716	-0.983492	0.000039
C32	C	1.319880	-0.180088	0.000032
C33	C	1.290672	-0.031019	0.000036
N34	N	1.235404	-0.517213	0.292914
C35	C	1.468821	-0.812331	0.648001
C36	C	1.497063	-0.848050	0.529674
C37	C	1.431651	-0.765344	0.470478
C38	C	1.337992	-0.646912	0.529621
C39	C	1.309752	-0.611183	0.647960
C40	C	1.272581	-0.564197	0.470437
C41	C	1.178923	-0.445764	0.529580
C42	C	1.150687	-0.410042	0.647907
C43	C	1.216100	-0.492748	0.707103
C44	C	1.300821	-0.599925	0.352098
C45	C	1.141752	-0.398778	0.352057
C46	C	1.113510	-0.363058	0.470384
H47	H	0.994975	-0.707901	0.000037
C48	C	0.870074	-1.026029	0.000054
N49	N	0.923943	-1.136703	0.000047
H50	H	1.193108	-0.463672	0.803455
C51	C	1.439349	-0.274200	0.000026
N52	N	1.529337	-0.345085	0.000017
C53	C	1.171200	0.063086	0.000032
N54	N	1.081216	0.133967	0.000026
C55	C	0.633093	-0.941489	0.000061
N56	N	0.593455	-1.018798	0.000068
C57	C	1.462712	-0.804651	0.340314
N58	N	1.486107	-0.834267	0.242270
C59	C	1.488190	-0.077595	0.000039
N60	N	1.578176	-0.148475	0.000038
C61	C	1.122382	-0.133513	0.000025
N62	N	1.032398	-0.062632	0.000019
H63	H	1.522075	-0.879651	0.696209
C64	C	0.479366	-0.434133	0.000025
N65	N	0.385868	-0.400797	0.000020
H66	H	1.377078	-0.696354	0.303955
C67	C	1.047665	-0.279758	0.712962
N68	N	0.970067	-0.181628	0.761959
C69	C	1.600054	-0.978354	0.464625
N70	N	1.677621	-1.076519	0.415629
C71	C	1.010580	-0.232682	0.535457
N72	N	0.933087	-0.134446	0.584471
C73	C	1.069791	-0.307796	0.286946
N74	N	1.015595	-0.239275	0.237898
H75	H	0.598391	-0.276316	0.000026
H76	H	0.938271	-0.818562	0.000054
C77	C	0.740469	-0.185083	0.000006
N78	N	0.686586	-0.074418	0.000002
H79	H	0.963790	-0.296267	0.000016
