data_functionalizedCrystal
_audit_creation_method	'MofGen! by Chris Wilmer'
_symmetry_space_group_name_H-M	'P1'
_symmetry_Int_Tables_number	1
_symmetry_cell_setting	triclinic
loop_
_symmetry_equiv_pos_as_xyz
  x,y,z
_cell_length_a	18.215407
_cell_length_b	12.759399
_cell_length_c	18.215399
_cell_angle_alpha	90.024962
_cell_angle_beta	90.019833
_cell_angle_gamma	90.015564
loop_
_atom_site_label
_atom_site_type_symbol
_atom_site_fract_x
_atom_site_fract_y
_atom_site_fract_z
Zn1	Zn	1.125122	-0.418265	0.416131
Zn2	Zn	1.125051	-0.593962	0.293071
Zn3	Zn	1.002054	-0.418299	0.293079
Zn4	Zn	1.002041	-0.593903	0.416096
O5	O	1.063567	-0.506107	0.354594
O6	O	1.228097	-0.441581	0.399819
O7	O	1.108711	-0.570699	0.190088
O8	O	1.018415	-0.271273	0.309419
O9	O	1.228045	-0.570665	0.309407
O10	O	1.108832	-0.271248	0.399826
O11	O	1.018346	-0.441640	0.190093
O12	O	0.899068	-0.441583	0.309385
O13	O	1.018392	-0.570566	0.519085
O14	O	0.899059	-0.570599	0.399766
O15	O	1.108819	-0.441525	0.519111
O16	O	1.108699	-0.740975	0.309373
O17	O	1.018324	-0.740932	0.399759
C18	C	0.872361	-0.506089	0.354573
C19	C	0.790562	-0.506107	0.354582
C20	C	0.602382	-0.573391	0.401584
C21	C	0.525524	-0.573394	0.401593
C22	C	0.525504	-0.438842	0.307621
C23	C	0.602361	-0.438835	0.307616
C24	C	0.640799	-0.506115	0.354596
C25	C	0.487083	-0.506126	0.354610
C26	C	0.403749	-0.506129	0.354620
C27	C	0.724138	-0.506111	0.354588
C28	C	1.063522	-0.779075	0.354578
C29	C	1.063570	-0.895851	0.354595
C30	C	1.110682	-0.950701	0.307585
C31	C	1.110729	-1.060425	0.307609
C32	C	1.016546	-1.060440	0.401657
C33	C	1.016503	-0.950718	0.401635
C34	C	1.197595	-1.210299	0.281423
C35	C	1.244701	-1.265152	0.234401
C36	C	1.256026	-1.229601	0.162596
C37	C	1.220235	-1.139198	0.137798
C38	C	1.173125	-1.084351	0.184816
C39	C	1.161813	-1.119900	0.256632
C40	C	0.929636	-0.800842	0.427814
C41	C	0.882521	-0.745993	0.474829
C42	C	0.871188	-0.781542	0.546635
C43	C	0.906966	-0.871947	0.571430
C44	C	0.954081	-0.926797	0.524415
C45	C	0.965415	-0.891240	0.452610
C46	C	1.255520	-0.506126	0.354616
C47	C	1.337319	-0.506134	0.354625
C48	C	1.063612	-0.506035	0.546547
C49	C	1.063631	-0.506004	0.628346
C50	C	1.063633	-0.232074	0.354627
C51	C	1.063660	-0.115297	0.354641
C52	C	1.063565	-0.506103	0.163388
C53	C	1.063688	-0.505838	0.081590
C54	C	1.110733	-0.438749	0.816555
C55	C	1.110742	-0.438719	0.893414
C56	C	1.016581	-0.573096	0.893376
C57	C	1.016569	-0.573120	0.816518
C58	C	1.063649	-0.505949	0.778110
C59	C	1.063670	-0.505894	0.931826
C60	C	1.063679	-0.505861	1.015160
C61	C	1.063639	-0.505980	0.694771
H62	H	1.149008	-0.906030	0.269283
C63	C	0.964779	-0.647050	0.774226
H64	H	0.936750	-0.687064	0.808107
H65	H	0.932718	-0.606873	0.744241
H66	H	0.992926	-0.692838	0.744245
C67	C	0.894506	-0.911060	0.650416
H68	H	0.922557	-0.972762	0.658447
H69	H	0.909355	-0.858392	0.684177
H70	H	0.843911	-0.926174	0.657349
C71	C	1.307844	-1.289934	0.110875
H72	H	1.327539	-1.348859	0.135928
H73	H	1.281265	-1.312977	0.068992
H74	H	1.346709	-1.245186	0.095812
H75	H	0.983217	-1.000407	0.544611
C76	C	0.644664	-0.647392	0.453259
H77	H	0.695941	-0.637763	0.446522
H78	H	0.632093	-0.632111	0.502726
H79	H	0.632051	-0.717967	0.442398
C80	C	0.483269	-0.647396	0.453281
H81	H	0.517171	-0.687464	0.481255
H82	H	0.453309	-0.607264	0.485396
H83	H	0.453267	-0.693129	0.425076
C84	C	0.644622	-0.364829	0.255926
H85	H	0.610724	-0.324771	0.227940
H86	H	0.674623	-0.319101	0.284131
H87	H	0.674585	-0.404966	0.223810
C88	C	0.819353	-0.721220	0.598349
H89	H	0.817726	-0.755349	0.644664
H90	H	0.836888	-0.651657	0.604560
H91	H	0.771458	-0.719464	0.577730
C92	C	1.133761	-0.984914	0.157549
H93	H	1.147254	-0.971592	0.108048
H94	H	1.082154	-0.994783	0.160480
H95	H	1.147608	-0.927007	0.187292
C96	C	1.162510	-0.364851	0.774308
H97	H	1.190546	-0.324817	0.808215
H98	H	1.194565	-0.405042	0.744323
H99	H	1.134354	-0.319081	0.744330
C100	C	0.483224	-0.364844	0.255941
H101	H	0.517114	-0.324769	0.227962
H102	H	0.453223	-0.404978	0.223830
H103	H	0.453261	-0.319117	0.284154
C104	C	1.232690	-1.100101	0.058809
H105	H	1.265878	-1.145709	0.034360
H106	H	1.187225	-1.099130	0.033259
H107	H	1.252669	-1.031341	0.060078
H108	H	1.273842	-1.338757	0.254599
H109	H	1.188386	-1.239246	0.339895
C110	C	1.162541	-0.364813	0.935703
H111	H	1.155804	-0.374411	0.986978
H112	H	1.211980	-0.380205	0.923113
H113	H	1.151787	-0.294220	0.923117
H114	H	0.853393	-0.672375	0.454636
C115	C	0.964770	-1.120797	0.453389
H116	H	0.971536	-1.194000	0.446664
H117	H	0.975502	-1.102755	0.502843
H118	H	0.915321	-1.102881	0.442563
C119	C	0.942090	-0.761748	0.348820
H120	H	0.914021	-0.700064	0.340782
H121	H	0.992678	-0.746631	0.341869
H122	H	0.927232	-0.814435	0.315072
H123	H	0.978252	-0.627787	0.924657
