data_functionalizedCrystal
_audit_creation_method	'MofGen! by Chris Wilmer'
_symmetry_space_group_name_H-M	'P1'
_symmetry_Int_Tables_number	1
_symmetry_cell_setting	triclinic
loop_
_symmetry_equiv_pos_as_xyz
  x,y,z
_cell_length_a	11.792254
_cell_length_b	23.532357
_cell_length_c	10.868271
_cell_angle_alpha	89.989339
_cell_angle_beta	89.995741
_cell_angle_gamma	83.513444
loop_
_atom_site_label
_atom_site_type_symbol
_atom_site_fract_x
_atom_site_fract_y
_atom_site_fract_z
O1	O	1.505034	0.078091	-0.102337
O2	O	2.005034	0.578091	0.397663
O3	O	1.174503	0.086128	-0.102342
O4	O	1.674503	0.586128	0.397658
O5	O	1.349765	-0.000765	-0.102314
O6	O	1.849765	0.499235	0.397686
O7	O	1.329772	0.164984	-0.102365
O8	O	1.829772	0.664984	0.397635
O9	O	1.349751	-0.000768	0.102330
O10	O	1.849751	0.499232	0.602330
O11	O	1.174488	0.086125	0.102303
O12	O	1.674488	0.586125	0.602303
O13	O	1.505020	0.078088	0.102307
O14	O	2.005020	0.578088	0.602307
Zn15	Zn	1.339752	0.082105	0.134797
Zn16	Zn	1.839752	0.582105	0.634797
Zn17	Zn	1.339770	0.082110	-0.134831
Zn18	Zn	1.839770	0.582110	0.365169
O19	O	1.329757	0.164980	0.102280
O20	O	1.829757	0.664980	0.602280
C21	C	1.132217	0.085620	-0.000020
C22	C	1.632217	0.585620	0.499980
C23	C	1.006240	0.084105	-0.000020
C24	C	1.506240	0.584105	0.499980
C25	C	0.903933	0.082873	-0.000025
C26	C	1.403933	0.582873	0.499975
C27	C	0.775583	0.081334	-0.000025
C28	C	1.275583	0.581334	0.499975
C29	C	1.349258	-0.021986	0.000012
C30	C	1.849258	0.478014	0.500012
C31	C	1.347754	-0.085214	0.000023
C32	C	1.847754	0.414786	0.500023
C33	C	1.338323	-0.477279	-0.111595
C34	C	1.838323	0.022721	0.388405
C35	C	1.336893	-0.536687	-0.111602
C36	C	1.836893	-0.036687	0.388398
O37	O	1.336122	-0.567406	-0.206472
O38	O	1.836122	-0.067406	0.293528
N39	N	1.336177	-0.566404	-0.000052
N40	N	1.836177	-0.066404	0.499948
C41	C	1.336878	-0.536710	0.111513
C42	C	1.836878	-0.036710	0.611513
O43	O	1.336136	-0.567442	0.206394
O44	O	1.836136	-0.067442	0.706394
C45	C	1.338299	-0.477303	0.111519
C46	C	1.838299	0.022697	0.611519
C47	C	1.339027	-0.447589	-0.000039
C48	C	1.839027	0.052411	0.499961
C49	C	1.339049	-0.447566	-0.223143
C50	C	1.839049	0.052434	0.276857
C51	C	1.340481	-0.388162	-0.223136
C52	C	1.840481	0.111838	0.276864
C53	C	1.341185	-0.358472	-0.111580
C54	C	1.841185	0.141528	0.388420
C55	C	1.340459	-0.388185	-0.000031
C56	C	1.840459	0.111815	0.499969
C57	C	1.338992	-0.447609	0.223082
C58	C	1.838992	0.052391	0.723082
C59	C	1.340413	-0.388197	0.223078
C60	C	1.840413	0.111803	0.723078
C61	C	1.341141	-0.358484	0.111521
C62	C	1.841141	0.141516	0.611521
C63	C	1.342595	-0.299092	0.111532
C64	C	1.842595	0.200908	0.611532
N65	N	1.343311	-0.269374	-0.000018
N66	N	1.843311	0.230626	0.499982
C67	C	1.342606	-0.299064	-0.111574
C68	C	1.842606	0.200936	0.388426
C69	C	1.333892	-0.661469	0.111492
C70	C	1.833892	-0.161469	0.611492
C71	C	1.332479	-0.720876	0.111488
C72	C	1.832479	-0.220876	0.611488
C73	C	1.332492	-0.720849	-0.111627
C74	C	1.832492	-0.220849	0.388373
C75	C	1.333913	-0.661442	-0.111622
C76	C	1.833913	-0.161442	0.388378
C77	C	1.334608	-0.631752	-0.000058
C78	C	1.834608	-0.131752	0.499942
C79	C	1.345613	-0.174312	-0.111550
C80	C	1.845613	0.325688	0.388450
C81	C	1.347050	-0.114904	-0.111533
C82	C	1.847050	0.385096	0.388467
C83	C	1.347030	-0.114936	0.111582
C84	C	1.847030	0.385064	0.611582
C85	C	1.345600	-0.174339	0.111565
C86	C	1.845600	0.325661	0.611565
C87	C	1.344888	-0.204026	-0.000011
C88	C	1.844888	0.295974	0.499989
O89	O	1.343362	-0.268334	0.206354
O90	O	1.843362	0.231666	0.706354
O91	O	1.343333	-0.268324	-0.206440
O92	O	1.843333	0.231676	0.293560
C93	C	1.547305	0.078596	-0.000018
C94	C	2.047305	0.578596	0.499982
C95	C	1.673282	0.080111	-0.000025
C96	C	2.173282	0.580111	0.499975
C97	C	1.330264	0.186202	-0.000049
C98	C	1.830264	0.686202	0.499951
C99	C	1.331768	0.249429	-0.000069
C100	C	1.831768	0.749429	0.499931
N101	N	1.339747	0.082102	0.318811
N102	N	1.839747	0.582102	0.818811
N103	N	1.339784	0.082109	-0.318846
N104	N	1.839784	0.582109	0.181154
C105	C	1.339765	0.082109	0.569817
C106	C	1.839765	0.582109	1.069817
C107	C	1.339751	0.082107	0.430139
C108	C	1.839751	0.582107	0.930139
H109	H	1.347645	-0.090714	-0.202380
H110	H	1.847645	0.409286	0.297620
Br111	Br	1.341353	-0.347907	0.374495
Br112	Br	1.841353	0.152093	0.874495
H113	H	1.331914	-0.745033	-0.202463
H114	H	1.831914	-0.245033	0.297537
H115	H	1.334504	-0.637253	-0.202462
H116	H	1.834504	-0.137253	0.297538
H117	H	1.347609	-0.090751	0.202408
H118	H	1.847609	0.409249	0.702408
Br119	Br	1.338000	-0.487919	0.374492
Br120	Br	1.838000	0.012081	0.874492
Br121	Br	1.334843	-0.621183	0.262915
Br122	Br	1.834843	-0.121183	0.762915
Br123	Br	1.344646	-0.214592	-0.262975
Br124	Br	1.844646	0.285408	0.237025
Br125	Br	1.341461	-0.347845	-0.374544
Br126	Br	1.841461	0.152155	0.125456
H127	H	1.338472	-0.471733	-0.313991
H128	H	1.838472	0.028267	0.186009
H129	H	1.345018	-0.198534	0.202405
H130	H	1.845018	0.301466	0.702405
Br131	Br	1.331518	-0.761196	0.262893
Br132	Br	1.831518	-0.261196	0.762893
