data_functionalizedCrystal
_audit_creation_method	'MofGen! by Chris Wilmer'
_symmetry_space_group_name_H-M	'P1'
_symmetry_Int_Tables_number	1
_symmetry_cell_setting	triclinic
loop_
_symmetry_equiv_pos_as_xyz
  x,y,z
_cell_length_a	19.288864
_cell_length_b	10.540539
_cell_length_c	17.766277
_cell_angle_alpha	89.995823
_cell_angle_beta	89.976791
_cell_angle_gamma	83.830869
loop_
_atom_site_label
_atom_site_type_symbol
_atom_site_fract_x
_atom_site_fract_y
_atom_site_fract_z
O1	O	0.922410	0.158345	-0.062832
O2	O	0.720292	0.179706	-0.062781
O3	O	0.825962	-0.015784	-0.062807
O4	O	0.816739	0.353835	-0.062806
O5	O	0.825943	-0.015794	0.062382
O6	O	0.720273	0.179696	0.062408
O7	O	0.922391	0.158335	0.062356
Cu8	Cu	0.821330	0.169015	0.073813
Cu9	Cu	0.821352	0.169026	-0.074237
O10	O	0.816721	0.353825	0.062382
C11	C	0.694401	0.179013	-0.000180
C12	C	0.617284	0.176950	-0.000160
C13	C	0.573353	0.291654	-0.000172
C14	C	0.500893	0.289716	-0.000180
C15	C	0.472367	0.173067	-0.000192
C16	C	0.516308	0.058347	-0.000176
C17	C	0.588766	0.060289	-0.000160
C18	C	0.363500	0.081371	-0.044076
C19	C	0.291042	0.079434	-0.044097
C20	C	0.248881	0.167074	-0.000237
C21	C	0.279185	0.256671	0.043633
C22	C	0.351644	0.258613	0.043649
C23	C	0.393799	0.170949	-0.000208
C24	C	0.126381	0.279684	-0.000257
C25	C	0.053919	0.277741	-0.000261
C26	C	0.069336	0.046369	-0.000264
C27	C	0.141795	0.048315	-0.000253
C28	C	0.170313	0.164976	-0.000253
C29	C	0.825261	-0.063076	-0.000214
C30	C	0.823192	-0.203978	-0.000217
C31	C	0.743903	-0.385638	-0.000478
C32	C	0.746000	-0.239067	-0.000197
C33	C	0.860329	-0.266470	0.071262
C34	C	0.857694	-0.412955	0.071323
C35	C	0.859286	-0.413497	-0.071040
C36	C	0.859997	-0.266531	-0.071986
C37	C	0.948281	0.159027	-0.000246
C38	C	1.025399	0.161091	-0.000271
C39	C	0.817422	0.401117	-0.000212
C40	C	0.819491	0.542019	-0.000214
N41	N	0.821320	0.169006	0.177943
N42	N	0.821368	0.169025	-0.178368
C43	C	0.868126	0.082485	0.217318
C44	C	0.868130	0.082479	0.296120
C45	C	0.821334	0.169016	0.335544
C46	C	0.774519	0.255543	0.296159
C47	C	0.774512	0.255538	0.217359
C48	C	0.812807	0.284670	0.460383
C49	C	0.812819	0.284676	0.539182
C50	C	0.821353	0.169031	0.578590
C51	C	0.829889	0.053373	0.539189
C52	C	0.829882	0.053368	0.460389
C53	C	0.821337	0.169030	0.420989
C54	C	0.868166	0.082497	0.703411
C55	C	0.868165	0.082489	0.782214
C56	C	0.774558	0.255564	0.782252
C57	C	0.774555	0.255560	0.703450
C58	C	0.821363	0.169028	0.664034
H59	H	0.177565	-0.045090	-0.000247
H60	H	0.915041	-0.461966	-0.071535
H61	H	0.913209	-0.462161	0.074552
H62	H	0.736416	0.326000	0.328261
O63	O	0.238256	0.341761	0.086291
C64	C	0.256928	0.325611	0.162684
H65	H	0.312797	0.278371	0.166882
H66	H	0.220245	0.262728	0.191343
C67	C	0.182787	0.514746	0.196589
C68	C	0.251408	0.456736	0.201746
H69	H	0.179379	0.595629	0.220687
H70	H	0.170205	0.525626	0.145123
H71	H	0.152225	0.462331	0.220472
H72	H	0.281967	0.509143	0.177856
H73	H	0.263995	0.445868	0.253210
H74	H	0.836830	-0.040804	0.428312
H75	H	0.376314	0.331562	0.079372
O76	O	0.829435	-0.214887	0.134665
C77	C	0.774288	-0.122274	0.114655
H78	H	0.755694	-0.142420	0.055377
H79	H	0.793222	-0.023515	0.116392
C80	C	0.736425	-0.102560	0.243335
C81	C	0.713584	-0.127309	0.170530
H82	H	0.698981	-0.105660	0.277802
H83	H	0.773580	-0.164951	0.256817
H84	H	0.752204	-0.020262	0.244771
H85	H	0.697814	-0.209612	0.169093
H86	H	0.676425	-0.064931	0.157050
O87	O	0.600939	0.405086	-0.000130
C88	C	0.546620	0.505913	-0.000160
H89	H	0.497215	0.470610	0.023526
H90	H	0.536579	0.541281	-0.060221
C91	C	0.628266	0.659321	0.019851
C92	C	0.567588	0.615964	0.048949
H93	H	0.641201	0.727210	0.050140
H94	H	0.664863	0.591394	0.019868
H95	H	0.619891	0.688786	-0.030200
H96	H	0.575966	0.586487	0.098994
H97	H	0.530993	0.683890	0.048941
O98	O	0.729033	0.339675	0.820421
C99	C	0.687733	0.416070	0.768764
H100	H	0.686688	0.364029	0.712597
H101	H	0.710749	0.510260	0.760366
C102	C	0.614224	0.506501	0.868542
C103	C	0.612935	0.442578	0.799558
H104	H	0.568085	0.522858	0.887538
H105	H	0.642050	0.455036	0.903345
H106	H	0.633407	0.584985	0.861534
H107	H	0.593760	0.364089	0.806569
H108	H	0.585104	0.494031	0.764757
O109	O	0.711198	-0.187249	-0.061306
C110	C	0.713077	-0.053900	-0.061069
H111	H	0.759528	-0.029318	-0.026405
H112	H	0.662841	-0.005741	-0.035330
C113	C	0.663192	-0.036689	-0.184978
C114	C	0.720247	-0.006498	-0.142409
H115	H	0.667611	-0.007447	-0.235152
H116	H	0.661923	-0.126528	-0.185138
H117	H	0.621334	0.003445	-0.163521
H118	H	0.762103	-0.046645	-0.163861
H119	H	0.721523	0.083336	-0.142255
H120	H	0.805873	0.378851	0.571256
H121	H	0.736396	0.325994	0.185298
H122	H	0.805846	0.378849	0.428304
H123	H	0.736444	0.326019	0.671388
H124	H	0.713418	-0.413555	-0.051736
O125	O	0.404347	-0.003815	-0.086759
C126	C	0.362066	-0.083316	-0.125476
H127	H	0.306965	-0.032899	-0.130776
H128	H	0.360522	-0.176223	-0.092965
C129	C	0.460074	-0.174683	-0.198016
C130	C	0.392399	-0.112756	-0.204531
H131	H	0.478786	-0.192849	-0.246780
H132	H	0.488560	-0.121126	-0.171930
H133	H	0.458778	-0.252099	-0.170921
H134	H	0.393697	-0.035335	-0.231618
H135	H	0.363913	-0.166301	-0.230624
H136	H	0.713527	-0.415173	0.050509
H137	H	0.917016	-0.245379	0.073906
H138	H	0.834311	-0.444489	-0.125218
O139	O	0.827743	-0.216935	-0.135129
C140	C	0.875840	-0.157899	-0.179327
H141	H	0.931098	-0.200334	-0.164898
H142	H	0.870085	-0.051026	-0.167357
C143	C	0.793642	-0.128340	-0.280988
C144	C	0.861510	-0.180467	-0.263270
H145	H	0.784801	-0.142255	-0.332769
H146	H	0.761236	-0.168109	-0.251210
H147	H	0.788854	-0.039283	-0.271008
H148	H	0.866294	-0.269524	-0.273242
H149	H	0.893916	-0.140713	-0.293052
H150	H	0.906238	0.012023	0.185229
H151	H	0.906246	0.012021	0.328185
O152	O	0.927134	-0.239066	-0.077026
C153	C	0.942358	-0.162264	-0.015499
H154	H	0.905075	-0.176727	0.032792
H155	H	0.936009	-0.057711	-0.033229
C156	C	1.063721	-0.182306	-0.048888
C157	C	1.017933	-0.200077	0.010427
H158	H	1.110340	-0.205624	-0.032897
H159	H	1.053464	-0.234045	-0.090341
H160	H	1.058422	-0.095177	-0.063657
H161	H	1.023227	-0.287206	0.025189
H162	H	1.028192	-0.148353	0.051884
H163	H	0.830232	-0.440547	0.124769
O164	O	0.458136	0.401060	-0.000296
C165	C	0.415814	0.406858	-0.065154
H166	H	0.411669	0.306123	-0.086766
H167	H	0.439960	0.464692	-0.110551
C168	C	0.347656	0.594866	-0.018938
C169	C	0.342560	0.471141	-0.045478
H170	H	0.302470	0.634524	-0.006803
H171	H	0.376171	0.590964	0.024757
H172	H	0.367781	0.643045	-0.056774
H173	H	0.322444	0.422960	-0.007640
H174	H	0.314041	0.475036	-0.089166
O175	O	0.261568	-0.007425	-0.086802
C176	C	0.215322	0.056791	-0.139098
H177	H	0.230523	0.157042	-0.148919
H178	H	0.159870	0.063156	-0.116101
C179	C	0.200505	-0.140214	-0.201961
C180	C	0.219179	-0.017088	-0.214027
H181	H	0.202881	-0.185788	-0.248180
H182	H	0.231659	-0.183479	-0.166726
H183	H	0.154296	-0.134893	-0.182794
H184	H	0.265390	-0.022411	-0.233184
H185	H	0.188032	0.026175	-0.249267
H186	H	0.836837	-0.040796	0.571274
H187	H	0.149601	0.374676	-0.000246
H188	H	0.906278	0.012033	0.671318
H189	H	0.018151	0.371151	-0.000266
H190	H	0.906278	0.012027	0.814274
H191	H	0.046111	-0.048609	-0.000320
H192	H	0.624535	-0.033120	-0.000151
O193	O	0.710785	-0.188382	0.060972
C194	C	0.654851	-0.100392	0.037195
H195	H	0.639964	-0.123480	-0.022970
H196	H	0.671177	0.000325	0.039470
C197	C	0.610092	-0.080783	0.163318
C198	C	0.591803	-0.109147	0.089424
H199	H	0.571202	-0.086178	0.195537
H200	H	0.647777	-0.140060	0.179338
H201	H	0.623698	0.003146	0.165204
H202	H	0.578206	-0.193080	0.087538
H203	H	0.554114	-0.049884	0.073405
O204	O	0.488682	-0.055045	-0.000290
C205	C	0.511101	-0.124927	-0.065132
H206	H	0.561532	-0.090624	-0.086733
H207	H	0.469279	-0.109979	-0.110544
C208	C	0.462020	-0.309927	-0.018906
C209	C	0.523964	-0.267802	-0.045434
H210	H	0.469951	-0.398060	-0.006757
H211	H	0.446913	-0.262845	0.024778
H212	H	0.427174	-0.297459	-0.056754
H213	H	0.558805	-0.280256	-0.007583
H214	H	0.539076	-0.314890	-0.089111
