data_functionalizedCrystal
_audit_creation_method	'MofGen! by Chris Wilmer'
_symmetry_space_group_name_H-M	'P1'
_symmetry_Int_Tables_number	1
_symmetry_cell_setting	triclinic
loop_
_symmetry_equiv_pos_as_xyz
  x,y,z
_cell_length_a	17.640112
_cell_length_b	16.625546
_cell_length_c	17.639306
_cell_angle_alpha	101.183476
_cell_angle_beta	87.804122
_cell_angle_gamma	101.247770
loop_
_atom_site_label
_atom_site_type_symbol
_atom_site_fract_x
_atom_site_fract_y
_atom_site_fract_z
Zn1	Zn	1.247740	-0.103639	-0.195064
Zn2	Zn	1.747740	0.396361	0.304936
Zn3	Zn	1.221995	-0.217609	-0.068086
Zn4	Zn	1.721995	0.282391	0.431914
Zn5	Zn	1.095092	-0.114279	-0.093716
Zn6	Zn	1.595092	0.385721	0.406284
Zn7	Zn	1.120706	-0.269937	-0.220656
Zn8	Zn	1.620706	0.230063	0.279344
O9	O	1.171383	-0.176366	-0.144380
O10	O	1.671383	0.323634	0.355620
O11	O	1.350599	-0.092405	-0.156783
O12	O	1.850599	0.407595	0.343217
O13	O	1.183666	-0.186456	0.034780
O14	O	1.683666	0.313544	0.534780
O15	O	1.115396	-0.000027	-0.107176
O16	O	1.615396	0.499973	0.392824
O17	O	1.331683	-0.176139	-0.063493
O18	O	1.831683	0.323861	0.436507
O19	O	1.227546	0.007790	-0.181636
O20	O	1.727546	0.507790	0.318364
O21	O	1.090432	-0.110540	0.015949
O22	O	1.590432	0.389460	0.515949
O23	O	0.992216	-0.161280	-0.131992
O24	O	1.492216	0.338720	0.368008
O25	O	1.159051	-0.265324	-0.323527
O26	O	1.659051	0.234676	0.176473
O27	O	1.011035	-0.275641	-0.225254
O28	O	1.511035	0.224359	0.274746
O29	O	1.252383	-0.143145	-0.304724
O30	O	1.752383	0.356855	0.195276
O31	O	1.208503	-0.337391	-0.088308
O32	O	1.708503	0.162609	0.411692
O33	O	1.134087	-0.375836	-0.200401
O34	O	1.634087	0.124164	0.299599
C35	C	0.974070	-0.225294	-0.184182
C36	C	1.474070	0.274706	0.315818
C37	C	0.889662	-0.246248	-0.201227
C38	C	1.389662	0.253752	0.298773
C39	C	0.563036	-0.017169	-0.014897
C40	C	1.063036	0.482831	0.485103
C41	C	0.483724	-0.036877	-0.030923
C42	C	0.983724	0.463123	0.469077
C43	C	0.503340	-0.156075	-0.127870
C44	C	1.003340	0.343925	0.372130
C45	C	0.582656	-0.136376	-0.111854
C46	C	1.082656	0.363624	0.388146
C47	C	0.612497	-0.066922	-0.055366
C48	C	1.112497	0.433078	0.444634
C49	C	0.632117	-0.186129	-0.152323
C50	C	1.132117	0.313871	0.347677
C51	C	0.711426	-0.166433	-0.136305
C52	C	1.211426	0.333567	0.363695
C53	C	0.741273	-0.096984	-0.079818
C54	C	1.241273	0.403016	0.420182
C55	C	0.691805	-0.047226	-0.039348
C56	C	1.191805	0.452774	0.460652
C57	C	0.602274	-0.255585	-0.208807
C58	C	1.102274	0.244415	0.291193
C59	C	0.651735	-0.305338	-0.249276
C60	C	1.151735	0.194662	0.250724
C61	C	0.731046	-0.285639	-0.233262
C62	C	1.231046	0.214361	0.266738
C63	C	0.760893	-0.216190	-0.176775
C64	C	1.260893	0.283810	0.323225
C65	C	0.780513	-0.335397	-0.273733
C66	C	1.280513	0.164603	0.226267
C67	C	0.859821	-0.315701	-0.257715
C68	C	1.359821	0.184299	0.242285
C69	C	0.840201	-0.196495	-0.160758
C70	C	1.340201	0.303505	0.339242
C71	C	1.171305	-0.385870	-0.144363
C72	C	1.671305	0.114130	0.355637
C73	C	1.171346	-0.475483	-0.144367
C74	C	1.671346	0.024517	0.355633
C75	C	1.171494	-0.803639	-0.144419
C76	C	1.671494	-0.303639	0.355581
C77	C	1.171451	-0.712337	-0.144407
C78	C	1.671451	-0.212337	0.355593
C79	C	1.171419	-0.639564	-0.144393
C80	C	1.671419	-0.139564	0.355607
C81	C	1.171378	-0.548256	-0.144382
C82	C	1.671378	-0.048256	0.355618
C83	C	1.369467	-0.127248	-0.104424
C84	C	1.869467	0.372752	0.395576
C85	C	1.453878	-0.106317	-0.087397
C86	C	1.953878	0.393683	0.412603
C87	C	1.211446	-0.208885	-0.342449
C88	C	1.711446	0.291115	0.157551
C89	C	1.228519	-0.222742	-0.426855
C90	C	1.728519	0.277258	0.073145
C91	C	1.171486	0.033958	-0.144410
C92	C	1.671486	0.533958	0.355590
C93	C	1.171530	0.123585	-0.144423
C94	C	1.671530	0.623585	0.355577
C95	C	1.041980	-0.070719	-0.753492
C96	C	1.541980	0.429281	-0.253492
C97	C	1.058040	-0.083753	-0.832800
C98	C	1.558040	0.416247	-0.332800
C99	C	1.155115	-0.162796	-0.813174
C100	C	1.655115	0.337204	-0.313174
C101	C	1.139066	-0.149766	-0.733862
C102	C	1.639066	0.350234	-0.233862
C103	C	1.082498	-0.103727	-0.704028
C104	C	1.582498	0.396273	-0.204028
C105	C	1.179584	-0.182774	-0.684398
C106	C	1.679584	0.317226	-0.184398
C107	C	1.163533	-0.169748	-0.605093
C108	C	1.663533	0.330252	-0.105093
C109	C	1.106966	-0.123713	-0.575253
C110	C	1.606966	0.376287	-0.075253
C111	C	1.066447	-0.090701	-0.624723
C112	C	1.566447	0.409299	-0.124723
C113	C	1.236148	-0.228817	-0.714234
C114	C	1.736148	0.271183	-0.214234
C115	C	1.276666	-0.261825	-0.664770
C116	C	1.776666	0.238175	-0.164770
C117	C	1.260620	-0.248794	-0.585463
C118	C	1.760620	0.251206	-0.085463
C119	C	1.204052	-0.202760	-0.555623
C120	C	1.704052	0.297240	-0.055623
C121	C	1.301138	-0.281807	-0.535993
C122	C	1.801138	0.218193	-0.035993
C123	C	1.285088	-0.268781	-0.456689
C124	C	1.785088	0.231219	0.043311
C125	C	1.188001	-0.189734	-0.476319
C126	C	1.688001	0.310266	0.023681
C127	C	1.131520	-0.143905	0.052927
C128	C	1.631520	0.356095	0.552927
C129	C	1.114594	-0.129784	0.137361
C130	C	1.614594	0.370216	0.637361
H131	H	0.756203	-0.391950	-0.319719
H132	H	1.256203	0.108050	0.180281
H133	H	1.141945	-0.152234	-0.452025
H134	H	1.641945	0.347766	0.047975
Br135	Br	0.603544	0.077097	0.061760
Br136	Br	1.103544	0.577097	0.561760
H137	H	0.627427	-0.361889	-0.295266
H138	H	1.127427	0.138111	0.204734
Br139	Br	0.416597	0.030646	0.024014
Br140	Br	0.916597	0.530646	0.524014
Br141	Br	0.926951	-0.383227	-0.312633
Br142	Br	1.426951	0.116773	0.187367
H143	H	0.479032	-0.212626	-0.173860
H144	H	0.979032	0.287374	0.326140
Br145	Br	1.257932	-0.246495	-0.821863
Br146	Br	1.757932	0.253505	-0.321863
H147	H	0.537695	-0.271619	-0.221846
H148	H	1.037695	0.228381	0.278154
Br149	Br	1.085172	-0.106044	-0.467626
Br150	Br	1.585172	0.393956	0.032374
Br151	Br	0.989685	-0.028205	-0.584224
Br152	Br	1.489685	0.471795	-0.084224
Br153	Br	0.848905	-0.070256	-0.058071
Br154	Br	1.348905	0.429744	0.441929
H155	H	1.318091	-0.295646	-0.416411
H156	H	1.818091	0.204354	0.083589
H157	H	0.716106	0.009340	0.006639
H158	H	1.216106	0.509340	0.506639
H159	H	0.995924	-0.033219	-0.729198
H160	H	1.495924	0.466781	-0.229198
H161	H	0.864501	-0.139929	-0.114771
H162	H	1.364501	0.360071	0.385229
H163	H	1.201171	-0.200284	-0.837477
H164	H	1.701171	0.299716	-0.337477
H165	H	1.322722	-0.299313	-0.689073
H166	H	1.822722	0.200687	-0.189073
Br167	Br	1.003069	-0.038919	-0.899925
Br168	Br	1.503069	0.461081	-0.399925
Br169	Br	1.377895	-0.344300	-0.576495
Br170	Br	1.877895	0.155700	-0.076495
