data_functionalizedCrystal
_audit_creation_method	'MofGen! by Chris Wilmer'
_symmetry_space_group_name_H-M	'P1'
_symmetry_Int_Tables_number	1
_symmetry_cell_setting	triclinic
loop_
_symmetry_equiv_pos_as_xyz
  x,y,z
_cell_length_a	10.685904
_cell_length_b	12.594516
_cell_length_c	10.686551
_cell_angle_alpha	94.405296
_cell_angle_beta	98.408451
_cell_angle_gamma	94.378852
loop_
_atom_site_label
_atom_site_type_symbol
_atom_site_fract_x
_atom_site_fract_y
_atom_site_fract_z
Zn1	Zn	1.995820	-0.238560	0.866717
Zn2	Zn	2.495820	0.261440	1.366717
Zn3	Zn	1.979410	-0.431381	0.654457
Zn4	Zn	2.479410	0.068619	1.154457
Zn5	Zn	1.767247	-0.268185	0.638181
Zn6	Zn	2.267247	0.231815	1.138181
Zn7	Zn	1.783532	-0.431278	0.850367
Zn8	Zn	2.283532	0.068722	1.350367
O9	O	1.881502	-0.342351	0.752430
O10	O	2.381502	0.157649	1.252430
O11	O	2.171277	-0.251783	0.852214
O12	O	2.671277	0.248217	1.352214
O13	O	1.937583	-0.422173	0.474666
O14	O	2.437583	0.077827	0.974666
O15	O	1.797620	-0.115304	0.668527
O16	O	2.297620	0.384696	1.168527
O17	O	2.159221	-0.393447	0.696268
O18	O	2.659221	0.106553	1.196268
O19	O	1.965551	-0.093539	0.836431
O20	O	2.465551	0.406461	1.336431
O21	O	1.781708	-0.302274	0.462708
O22	O	2.281708	0.197726	0.962708
O23	O	1.591773	-0.302174	0.652674
O24	O	2.091773	0.197826	1.152674
O25	O	1.825375	-0.393272	1.030168
O26	O	2.325375	0.106728	1.530168
O27	O	1.603738	-0.421998	0.808566
O28	O	2.103738	0.078002	1.308566
O29	O	1.981342	-0.251683	1.042180
O30	O	2.481342	0.248317	1.542180
O31	O	1.953374	-0.580318	0.680414
O32	O	2.453374	-0.080318	1.180414
O33	O	1.809463	-0.580243	0.824348
O34	O	2.309463	-0.080243	1.324348
C35	C	1.551697	-0.365290	0.727080
C36	C	2.051697	0.134710	1.227080
C37	C	1.410607	-0.375128	0.716265
C38	C	1.910607	0.124872	1.216265
C39	C	1.881442	-0.618897	0.752404
C40	C	2.381442	-0.118897	1.252404
C41	C	1.881535	-0.737194	0.752444
C42	C	2.381535	-0.237194	1.252444
C43	C	1.959913	-0.806436	0.674256
C44	C	2.459913	-0.306436	1.174256
C45	C	1.999829	-0.866894	0.792494
C46	C	2.499829	-0.366894	1.292494
C47	C	1.841784	-0.887520	0.634291
C48	C	2.341784	-0.387520	1.134291
C49	C	1.921514	-0.796085	0.870747
C50	C	2.421514	-0.296085	1.370747
C51	C	1.763410	-0.816714	0.712462
C52	C	2.263410	-0.316714	1.212462
C53	C	1.803287	-0.877136	0.830777
C54	C	2.303287	-0.377136	1.330777
C55	C	2.212595	-0.319322	0.777880
C56	C	2.712595	0.180678	1.277880
C57	C	2.353687	-0.309509	0.788726
C58	C	2.853687	0.190491	1.288726
C59	C	1.907006	-0.319162	1.083519
C60	C	2.407006	0.180838	1.583519
C61	C	1.917874	-0.309280	1.224610
C62	C	2.417874	0.190720	1.724610
C63	C	1.881600	-0.064720	0.752488
C64	C	2.381600	0.435280	1.252488
C65	C	1.881641	0.053590	0.752512
C66	C	2.381641	0.553590	1.252512
C67	C	1.856171	-0.365368	0.422635
C68	C	2.356171	0.134632	0.922635
C69	C	1.845548	-0.374932	0.281564
C70	C	2.345548	0.125068	0.781564
H71	H	1.412900	-0.245798	0.859033
H72	H	1.912900	0.254202	1.359033
Cl73	Cl	2.026330	-0.210826	1.315977
Cl74	Cl	2.526330	0.289174	1.815977
H75	H	2.026212	-0.775379	0.608201
H76	H	2.526212	-0.275379	1.108201
Cl77	Cl	1.737111	-0.473393	1.190203
Cl78	Cl	2.237111	0.026607	1.690203
H79	H	1.351400	-0.438828	0.645954
H80	H	1.851400	0.061172	1.145954
H81	H	2.099771	-0.889275	0.826348
H82	H	2.599771	-0.389275	1.326348
Cl83	Cl	1.973688	-0.734799	1.025116
Cl84	Cl	2.473688	-0.234799	1.525116
Cl85	Cl	1.701032	-0.924766	0.933030
Cl86	Cl	2.201032	-0.424766	1.433030
H87	H	1.663493	-0.794310	0.678577
H88	H	2.163493	-0.294310	1.178577
H89	H	1.808120	-0.927340	0.534343
H90	H	2.308120	-0.427340	1.034343
