data_functionalizedCrystal
_audit_creation_method	'MofGen! by Chris Wilmer'
_symmetry_space_group_name_H-M	'P1'
_symmetry_Int_Tables_number	1
_symmetry_cell_setting	triclinic
loop_
_symmetry_equiv_pos_as_xyz
  x,y,z
_cell_length_a	15.944551
_cell_length_b	19.288840
_cell_length_c	18.366186
_cell_angle_alpha	89.983729
_cell_angle_beta	90.001349
_cell_angle_gamma	96.687623
loop_
_atom_site_label
_atom_site_type_symbol
_atom_site_fract_x
_atom_site_fract_y
_atom_site_fract_z
O1	O	-0.104683	0.921640	-0.060664
O2	O	-0.118840	0.719414	-0.060637
O3	O	0.010535	0.826049	-0.060655
O4	O	-0.234059	0.815004	-0.060645
O5	O	0.010541	0.826031	0.060444
O6	O	-0.118834	0.719396	0.060462
O7	O	-0.104677	0.921621	0.060436
Zn8	Zn	-0.111755	0.820506	0.079676
Zn9	Zn	-0.111763	0.820530	-0.079878
O10	O	-0.234052	0.814986	0.060454
C11	C	-0.118385	0.693527	-0.000084
C12	C	-0.117028	0.616419	-0.000075
C13	C	-0.116380	0.580223	-0.066088
C14	C	-0.115096	0.507773	-0.066097
C15	C	-0.114443	0.471523	-0.000089
C16	C	-0.115096	0.507726	0.065933
C17	C	-0.116389	0.580174	0.065940
C18	C	-0.063193	0.362052	0.050470
C19	C	-0.061895	0.289606	0.050460
C20	C	-0.110459	0.248069	-0.000108
C21	C	-0.160311	0.278987	-0.050679
C22	C	-0.161603	0.351435	-0.050672
C23	C	-0.113042	0.392965	-0.000089
C24	C	-0.108420	0.133314	-0.066135
C25	C	-0.107140	0.060862	-0.066142
C26	C	-0.107132	0.060818	0.065890
C27	C	-0.108420	0.133267	0.065894
C28	C	-0.109059	0.169512	-0.000120
C29	C	-0.265348	0.815454	-0.000095
C30	C	-0.358588	0.816828	-0.000092
C31	C	-0.573170	0.886212	-0.000112
C32	C	-0.634311	0.853983	0.059601
C33	C	-0.529304	0.819315	-0.000099
C34	C	-0.634303	0.853985	-0.059793
C35	C	-0.694207	0.821722	-0.000108
C36	C	-0.589217	0.787069	0.059664
C37	C	-0.589202	0.787080	-0.059784
C38	C	-0.650325	0.754803	-0.000057
C39	C	-0.434307	0.817930	-0.000092
C40	C	-0.789203	0.823102	-0.000109
C41	C	0.041830	0.825581	-0.000108
C42	C	0.135071	0.824207	-0.000116
C43	C	-0.105132	0.947508	-0.000119
C44	C	-0.106489	1.024617	-0.000133
N45	N	-0.111748	0.820494	0.188567
N46	N	-0.111762	0.820546	-0.188769
C47	C	-0.054489	0.867728	0.226660
C48	C	-0.054485	0.867732	0.302887
C49	C	-0.111755	0.820510	0.341020
C50	C	-0.169019	0.773267	0.302918
C51	C	-0.169015	0.773260	0.226692
C52	C	-0.188290	0.811413	0.461784
C53	C	-0.188294	0.811426	0.538009
C54	C	-0.111766	0.820530	0.576127
C55	C	-0.035229	0.829636	0.538012
C56	C	-0.035226	0.829628	0.461785
C57	C	-0.111765	0.820513	0.423675
C58	C	-0.054498	0.867771	0.696875
C59	C	-0.054493	0.867770	0.773104
C60	C	-0.169034	0.773308	0.773134
C61	C	-0.169031	0.773306	0.696906
C62	C	-0.111764	0.820540	0.658781
H63	H	-0.202196	0.376605	-0.091847
F64	F	-0.660420	0.890994	-0.125774
F65	F	-0.106457	0.022340	-0.136406
H66	H	-0.215661	0.734856	0.804180
H67	H	-0.569335	0.758789	0.110201
H68	H	-0.215648	0.734817	0.333970
F69	F	-0.212003	0.234785	-0.104500
H70	H	-0.007856	0.906197	0.333908
F71	F	-0.563039	0.750138	-0.125763
F72	F	-0.011502	0.406254	0.104297
H73	H	-0.215644	0.734796	0.195677
F74	F	-0.106445	0.022241	0.136141
F75	F	0.006458	0.918041	0.813646
F76	F	-0.229978	0.723036	0.656362
F77	F	-0.109106	0.171890	-0.136393
H78	H	0.027093	0.837041	0.430754
F79	F	-0.660450	0.890957	0.125574
F80	F	-0.693949	0.682160	-0.000010
F81	F	-0.117063	0.618793	-0.136347
H82	H	-0.114567	0.478206	0.119677
F83	F	0.006462	0.917996	0.186086
H84	H	-0.116918	0.609644	0.119698
F85	F	-0.269750	0.801739	0.578568
F86	F	0.046225	0.839330	0.578574
F87	F	-0.109106	0.171791	0.136156
F88	F	-0.114406	0.469243	-0.136360
F89	F	-0.008855	0.256706	0.104293
F90	F	0.006454	0.918039	0.656299
H91	H	-0.250613	0.803987	0.430754
H92	H	-0.539644	0.941739	-0.000060
