data_functionalizedCrystal
_audit_creation_method	'MofGen! by Chris Wilmer'
_symmetry_space_group_name_H-M	'P1'
_symmetry_Int_Tables_number	1
_symmetry_cell_setting	triclinic
loop_
_symmetry_equiv_pos_as_xyz
  x,y,z
_cell_length_a	15.995350
_cell_length_b	17.038272
_cell_length_c	14.472310
_cell_angle_alpha	89.999298
_cell_angle_beta	89.990621
_cell_angle_gamma	87.301966
loop_
_atom_site_label
_atom_site_type_symbol
_atom_site_fract_x
_atom_site_fract_y
_atom_site_fract_z
O1	O	1.118175	0.100774	-0.076763
O2	O	0.875286	0.113219	-0.076782
O3	O	0.995287	-0.006819	-0.076766
O4	O	0.998174	0.220812	-0.076780
O5	O	0.995254	-0.006812	0.076916
O6	O	0.875253	0.113226	0.076900
O7	O	1.118142	0.100781	0.076919
Cu8	Cu	0.996695	0.107004	0.090942
Cu9	Cu	0.996733	0.106996	-0.090805
O10	O	0.998141	0.220819	0.076902
C11	C	0.844038	0.112708	0.000056
C12	C	0.750978	0.111165	0.000049
C13	C	0.412836	0.105626	0.000069
C14	C	0.454180	0.020137	0.000417
C15	C	0.550981	0.021680	0.000064
C16	C	0.580592	0.108374	0.000060
C17	C	0.542527	0.150536	-0.087699
C18	C	0.445739	0.148388	-0.087766
C19	C	0.445488	0.150162	0.086999
C20	C	0.542432	0.150142	0.088152
C21	C	0.675401	0.109931	0.000051
C22	C	0.318027	0.104071	0.000071
C23	C	0.992645	-0.035945	0.000075
C24	C	0.984810	-0.122740	0.000074
C25	C	1.056739	-0.172836	0.000081
C26	C	1.049373	-0.254389	0.000072
C27	C	0.970077	-0.285843	0.000062
C28	C	0.898143	-0.235740	0.000053
C29	C	0.905510	-0.154189	0.000056
C30	C	0.944051	-0.531607	0.000047
C31	C	0.936689	-0.613164	0.000048
C32	C	1.087920	-0.631807	0.000065
C33	C	1.095280	-0.550254	0.000073
C34	C	1.023346	-0.500158	0.000059
C35	C	0.962546	-0.369202	0.000056
C36	C	1.030878	-0.416801	0.000059
C37	C	1.149390	0.101292	0.000078
C38	C	1.242450	0.102834	0.000079
C39	C	1.000784	0.249944	0.000059
C40	C	1.008618	0.336739	0.000054
N41	N	0.996674	0.107009	0.218773
N42	N	0.996761	0.106984	-0.218636
C43	C	0.996732	0.106993	0.592864
C44	C	0.932276	0.171007	0.553689
C45	C	0.932452	0.171241	0.446601
C46	C	0.996702	0.107001	0.407273
C47	C	1.085336	0.124819	0.446115
C48	C	1.084981	0.125274	0.553237
C49	C	0.973320	0.024970	0.553397
C50	C	0.971356	0.025517	0.446269
C51	C	0.996691	0.107004	0.302385
C52	C	0.996749	0.106991	0.697752
H53	H	0.577035	-0.011462	0.062974
C54	C	0.415059	0.112407	0.176869
C55	C	0.360337	0.161262	0.245314
C56	C	0.329913	0.123495	0.335180
C57	C	0.354211	0.036874	0.356600
C58	C	0.408936	-0.011986	0.288154
C59	C	0.439360	0.025781	0.198288
H60	H	0.342348	0.225388	0.229459
H61	H	0.289402	0.159665	0.385848
H62	H	0.331689	0.008917	0.423124
H63	H	0.426925	-0.076112	0.304009
H64	H	0.479871	-0.010389	0.147619
H65	H	1.146484	-0.672604	0.000074
C66	C	0.849462	-0.647772	0.000029
C67	C	0.788064	-0.628876	0.079817
C68	C	0.700844	-0.663489	0.079799
C69	C	0.675022	-0.716997	-0.000007
C70	C	0.736421	-0.735896	-0.079801
C71	C	0.823641	-0.701284	-0.079783
H72	H	0.807178	-0.589263	0.138899
H73	H	0.655392	-0.649498	0.138868
H74	H	0.610456	-0.742619	-0.000020
H75	H	0.717307	-0.775509	-0.138884
H76	H	0.869093	-0.715274	-0.138853
H77	H	0.897983	-0.394821	0.000050
H78	H	0.906126	0.011995	0.420882
H79	H	1.104724	0.185092	0.578210
H80	H	0.866382	0.160566	0.579472
H81	H	0.833579	-0.261356	0.000039
C82	C	1.030054	-0.041860	0.410123
C83	C	0.994310	-0.108961	0.353325
C84	C	1.053019	-0.176337	0.317185
C85	C	1.147471	-0.176613	0.337844
C86	C	1.183219	-0.109509	0.394645
C87	C	1.124511	-0.042133	0.430785
H88	H	0.924387	-0.108759	0.338029
H89	H	1.026554	-0.226011	0.275136
H90	H	1.190930	-0.226489	0.311091
H91	H	1.253143	-0.109711	0.409941
H92	H	1.150975	0.007541	0.472834
C93	C	0.585430	-0.023392	-0.085071
C94	C	0.524840	-0.060899	-0.152951
C95	C	0.559289	-0.105970	-0.238093
C96	C	0.654327	-0.113534	-0.255354
C97	C	0.714923	-0.076025	-0.187471
C98	C	0.680475	-0.030954	-0.102330
H99	H	0.454481	-0.055301	-0.140176
H100	H	0.514431	-0.133736	-0.288344
H101	H	0.679828	-0.146898	-0.318380
H102	H	0.785282	-0.081623	-0.200247
H103	H	0.725332	-0.003188	-0.052079
C104	C	0.843699	0.156918	0.411117
C105	C	0.772166	0.145186	0.480253
C106	C	0.683408	0.130870	0.444775
C107	C	0.666181	0.128287	0.340160
C108	C	0.737715	0.140019	0.271017
C109	C	0.826474	0.154335	0.306496
H110	H	0.784917	0.147098	0.557701
H111	H	0.630453	0.122185	0.495959
H112	H	0.600476	0.117689	0.313897
H113	H	0.724965	0.138107	0.193569
H114	H	0.879428	0.163020	0.255311
H115	H	1.105401	0.183955	0.419276
C116	C	0.953470	0.253465	0.411954
C117	C	0.890555	0.301026	0.350988
C118	C	0.911578	0.383252	0.316340
C119	C	0.995516	0.417918	0.342657
C120	C	1.058437	0.370357	0.403626
C121	C	1.037414	0.288130	0.438274
H122	H	0.828414	0.275365	0.331504
H123	H	0.864999	0.418460	0.271207
H124	H	1.011079	0.478787	0.317009
H125	H	1.120578	0.396018	0.423110
H126	H	1.083993	0.252922	0.483407
C127	C	1.128498	-0.309492	0.000082
C128	C	1.191868	-0.305972	0.079896
C129	C	1.270999	-0.361074	0.079904
C130	C	1.286759	-0.419695	0.000098
C131	C	1.223388	-0.423218	-0.079722
C132	C	1.144257	-0.368116	-0.079730
H133	H	1.180203	-0.262574	0.138978
H134	H	1.317911	-0.358466	0.138993
H135	H	1.345337	-0.460485	0.000104
H136	H	1.235053	-0.466615	-0.138805
H137	H	1.097345	-0.370724	-0.138819
H138	H	0.909777	0.007837	0.580460
H139	H	0.567542	0.119364	0.153076
H140	H	1.095440	-0.391187	0.000046
C141	C	1.036718	-0.039390	0.587626
C142	C	1.109375	-0.017678	0.651070
C143	C	1.172775	-0.082031	0.685307
C144	C	1.163518	-0.168096	0.656100
C145	C	1.090858	-0.189812	0.592653
C146	C	1.027458	-0.125459	0.558416
H147	H	1.116231	0.046036	0.672694
H148	H	1.226563	-0.065955	0.732276
H149	H	1.210450	-0.215734	0.681445
H150	H	1.084002	-0.253526	0.571029
H151	H	0.973670	-0.141535	0.511448
H152	H	0.433211	-0.014032	0.063353
H153	H	0.947652	0.231532	0.580596
H154	H	1.134751	0.080487	0.579149
C155	C	0.408201	0.233172	-0.093175
C156	C	0.428206	0.285456	-0.176342
C157	C	0.390670	0.370236	-0.181763
C158	C	0.333129	0.402732	-0.104017
C159	C	0.313120	0.350447	-0.020843
C160	C	0.350656	0.265667	-0.015422
H161	H	0.470805	0.261402	-0.233900
H162	H	0.405482	0.408941	-0.243334
H163	H	0.305342	0.465491	-0.108030
H164	H	0.270522	0.374501	0.036715
H165	H	0.335844	0.226962	0.046149
C166	C	0.424456	-0.025826	-0.084125
C167	C	0.362863	0.013925	-0.153379
C168	C	0.333138	-0.032036	-0.237923
C169	C	0.365007	-0.117747	-0.253212
C170	C	0.426604	-0.157503	-0.183955
C171	C	0.456329	-0.111542	-0.099412
H172	H	0.339269	0.077378	-0.142063
H173	H	0.287540	-0.002606	-0.289191
H174	H	0.343003	-0.151770	-0.315796
H175	H	0.450198	-0.220956	-0.195271
H176	H	0.501927	-0.140973	-0.048144
C177	C	0.567740	0.236578	-0.092122
C178	C	0.617876	0.265434	-0.175320
C179	C	0.643091	0.351476	-0.179741
C180	C	0.618170	0.408663	-0.100963
C181	C	0.568032	0.379808	-0.017759
C182	C	0.542817	0.293766	-0.013339
H183	H	0.636326	0.223100	-0.233642
H184	H	0.680207	0.372836	-0.241334
H185	H	0.636836	0.472356	-0.104236
H186	H	0.549581	0.422142	0.040562
H187	H	0.505701	0.272406	0.048255
H188	H	0.885477	-0.490828	0.000036
H189	H	0.425254	0.117636	-0.153365
H190	H	0.846938	-0.113400	0.000050
H191	H	0.568829	0.121246	-0.153008
H192	H	1.134688	0.079434	0.420639
H193	H	0.562300	0.213362	0.093450
H194	H	0.418217	0.213193	0.087589
H195	H	1.121310	-0.147233	0.000094
H196	H	1.159850	-0.524651	0.000081
