data_functionalizedCrystal
_audit_creation_method	'MofGen! by Chris Wilmer'
_symmetry_space_group_name_H-M	'P1'
_symmetry_Int_Tables_number	1
_symmetry_cell_setting	triclinic
loop_
_symmetry_equiv_pos_as_xyz
  x,y,z
_cell_length_a	14.446369
_cell_length_b	20.016444
_cell_length_c	20.016444
_cell_angle_alpha	89.998799
_cell_angle_beta	60.000090
_cell_angle_gamma	60.000070
loop_
_atom_site_label
_atom_site_type_symbol
_atom_site_fract_x
_atom_site_fract_y
_atom_site_fract_z
Zr1	Zr	1.013249	-0.087740	0.643597
O2	O	1.206359	-0.194413	0.536924
O3	O	0.820133	-0.055035	0.676297
O4	O	1.013243	-0.194414	0.676298
O5	O	1.013256	0.054906	0.536924
O6	O	1.013245	-0.194421	0.786240
O7	O	1.013249	-0.055034	0.536923
O8	O	0.667807	0.054904	0.786238
O9	O	1.358695	-0.194418	0.536925
O10	O	0.899569	-0.041097	0.772293
O11	O	0.899572	0.040955	0.690245
O12	O	1.126934	-0.123146	0.690246
O13	O	1.126938	-0.041095	0.608198
Zr14	Zr	1.013264	0.087591	0.818942
Zr15	Zr	1.013253	-0.087750	0.818941
Zr16	Zr	1.013261	0.087601	0.643598
Zr17	Zr	1.256207	-0.087748	0.643599
Zr18	Zr	0.770307	0.087599	0.818940
O19	O	1.206381	0.054886	0.786242
O20	O	1.206364	-0.194427	0.786241
O21	O	1.206376	0.054900	0.536925
O22	O	0.820155	0.194264	0.925615
O23	O	0.820138	-0.055049	0.925614
O24	O	0.820149	0.194278	0.676298
O25	O	1.013257	-0.055055	0.925615
O26	O	1.013271	0.194265	0.786241
O27	O	1.013269	0.194271	0.676299
O28	O	1.013265	0.054884	0.925616
O29	O	1.358698	-0.194426	0.676300
O30	O	0.667816	0.194277	0.786239
O31	O	0.667819	0.194269	0.925614
O32	O	0.667810	0.054896	0.925614
O33	O	1.358704	-0.055045	0.536925
O34	O	1.358707	-0.055053	0.676301
O35	O	0.899579	0.122997	0.772293
O36	O	0.899576	0.040946	0.854341
O37	O	1.126941	-0.041104	0.772294
O38	O	1.126945	0.040947	0.690246
C39	C	0.709354	-0.000065	0.731268
C40	C	0.606211	-0.000061	0.731267
C41	C	1.013252	-0.000062	0.511941
C42	C	1.013251	-0.000058	0.437502
C43	C	1.013271	0.219251	0.731270
C44	C	1.013276	0.293688	0.731271
C45	C	0.459204	0.051926	0.679767
C46	C	0.566824	0.051716	0.679487
C47	C	0.655201	-0.089218	0.693517
C48	C	0.547968	-0.088948	0.693130
C49	C	0.372758	0.036341	0.820553
C50	C	0.478909	0.038160	0.820422
C51	C	1.317160	-0.000085	0.731271
C52	C	1.420302	-0.000088	0.731272
C53	C	1.013242	-0.219400	0.731269
C54	C	1.013237	-0.293837	0.731268
C55	C	1.131944	0.422126	0.688440
C56	C	1.131938	0.492071	0.688437
C57	C	0.894561	0.577723	0.774100
C58	C	0.894568	0.507779	0.774098
C59	C	1.013263	0.429981	0.731269
C60	C	1.013251	0.569870	0.731270
C61	C	1.013244	0.645708	0.731267
C62	C	1.013270	0.354138	0.731270
C63	C	1.013271	0.060487	0.196285
C64	C	1.013265	0.060495	0.266230
C65	C	1.013239	-0.060640	0.266250
C66	C	1.013235	-0.060643	0.196310
C67	C	1.013258	-0.000080	0.161327
C68	C	1.013256	-0.000069	0.301212
C69	C	1.013250	-0.000062	0.377050
C70	C	1.013261	-0.000086	0.085485
C71	C	1.013261	-0.000087	0.950598
C72	C	1.013263	-0.000091	1.025037
C73	C	0.709358	-0.000077	0.950596
C74	C	0.606218	-0.000078	1.025034
C75	C	0.709368	0.219261	0.731268
C76	C	0.606231	0.293701	0.731268
C77	C	0.709373	0.219249	0.950597
C78	C	0.606237	0.293685	1.025035
C79	C	1.317141	-0.219398	0.511942
C80	C	1.420277	-0.293834	0.437504
C81	C	1.317156	-0.000072	0.511943
C82	C	1.420296	-0.000072	0.437505
C83	C	1.317146	-0.219410	0.731271
C84	C	1.420283	-0.293850	0.731271
C85	C	0.557778	-0.042910	1.017162
C86	C	0.460880	-0.042928	1.087098
C87	C	0.412417	-0.000106	1.164904
C88	C	0.460866	0.042728	1.172774
C89	C	0.557769	0.042740	1.102840
C90	C	0.557800	0.371492	0.774096
C91	C	0.460906	0.441443	0.774093
C92	C	0.412437	0.433602	0.731265
C93	C	0.460877	0.355803	0.688432
C94	C	0.557776	0.285854	0.688431
C95	C	0.557802	0.285811	1.102827
C96	C	0.460908	0.355745	1.172776
C97	C	0.412446	0.433552	1.164931
C98	C	0.460891	0.441425	1.087131
C99	C	0.557789	0.371491	1.017184
C100	C	1.468724	-0.285960	0.359711
C101	C	1.565647	-0.355894	0.289763
C102	C	1.614115	-0.433701	0.297608
C103	C	1.565664	-0.441574	0.375408
C104	C	1.468749	-0.371640	0.445355
C105	C	1.468746	0.042754	0.445377
C106	C	1.565671	0.042752	0.375441
C107	C	1.614137	-0.000072	0.297635
C108	C	1.565684	-0.042903	0.289765
C109	C	1.468767	-0.042905	0.359699
C110	C	1.468721	-0.285983	0.774107
C111	C	1.565616	-0.355921	0.774123
C112	C	1.614078	-0.433726	0.731298
C113	C	1.565630	-0.441591	0.688461
C114	C	1.468730	-0.371654	0.688450
H115	H	0.530119	0.117367	0.704809
Cl116	Cl	0.618688	-0.096754	0.919357
H117	H	0.333545	0.490490	1.221894
H118	H	1.429292	0.077632	0.508724
H119	H	0.333535	0.490566	0.731273
Cl120	Cl	0.618643	0.096599	1.112750
Cl121	Cl	0.512098	-0.014247	0.884665
H122	H	0.797923	0.641074	0.808971
H123	H	1.228593	0.358782	0.653564
Cl124	Cl	1.407846	-0.381554	0.543149
H125	H	1.605139	-0.504933	0.381786
H126	H	0.597196	0.222516	0.653558
Cl127	Cl	1.407813	-0.188153	0.349827
Cl128	Cl	0.322015	0.153549	0.718668
Cl129	Cl	0.399921	0.096560	1.270594
Cl130	Cl	1.735902	-0.521640	0.731318
Cl131	Cl	1.626532	-0.345979	0.191967
H132	H	0.494964	0.026882	0.614299
H133	H	0.597253	0.377892	0.808972
H134	H	1.013286	0.109803	0.167804
H135	H	1.605105	0.077633	0.381866
H136	H	1.013220	-0.109965	0.167846
Cl137	Cl	1.735950	-0.521611	0.209665
Cl138	Cl	1.735974	-0.000059	0.209724
Cl139	Cl	1.407862	-0.096742	0.349789
Cl140	Cl	0.610791	-0.133971	0.591697
Cl141	Cl	0.399950	0.539246	1.077282
H142	H	1.013223	-0.109950	0.294740
Cl143	Cl	1.626621	-0.096730	0.191945
H144	H	0.597246	0.222462	1.109231
Cl145	Cl	0.399987	-0.096776	1.077185
H146	H	1.429278	-0.222637	0.808980
Cl147	Cl	0.400020	0.345829	1.270572
Cl148	Cl	0.400025	0.539237	0.827948
H149	H	0.421399	0.349431	0.653563
H150	H	1.605052	-0.349501	0.809005
H151	H	0.797918	0.514181	0.808974
Cl152	Cl	0.290591	-0.000128	1.252815
Cl153	Cl	0.618659	0.381404	0.919390
H154	H	1.605103	-0.504949	0.653595
H155	H	0.655622	0.026461	0.613631
Cl156	Cl	1.281144	0.482191	0.634583
H157	H	1.429303	-0.378071	0.653565
H158	H	0.683984	-0.129647	0.729229
Cl159	Cl	0.514031	-0.152021	0.747315
H160	H	0.279016	0.100982	0.852093
Cl161	Cl	0.797709	-0.134554	0.593052
H162	H	0.346781	-0.001363	0.859108
Cl163	Cl	0.417770	0.139570	0.863967
H164	H	1.013274	0.109815	0.294692
