data_functionalizedCrystal
_audit_creation_method	'MofGen! by Chris Wilmer'
_symmetry_space_group_name_H-M	'P1'
_symmetry_Int_Tables_number	1
_symmetry_cell_setting	triclinic
loop_
_symmetry_equiv_pos_as_xyz
  x,y,z
_cell_length_a	17.917559
_cell_length_b	23.096457
_cell_length_c	17.917603
_cell_angle_alpha	90.000770
_cell_angle_beta	60.142335
_cell_angle_gamma	63.039500
loop_
_atom_site_label
_atom_site_type_symbol
_atom_site_fract_x
_atom_site_fract_y
_atom_site_fract_z
Zr1	Zr	0.806764	0.590893	-0.128982
O2	O	0.951777	0.507832	-0.249496
O3	O	0.654556	0.612373	-0.087352
O4	O	0.796390	0.622878	-0.242742
O5	O	0.820635	0.493570	0.023138
O6	O	0.796392	0.718159	-0.242747
O7	O	0.809943	0.497327	-0.094105
O8	O	0.542677	0.699367	0.035219
O9	O	1.074350	0.512362	-0.254827
O10	O	0.719828	0.697452	-0.075263
O11	O	0.727806	0.623542	0.012238
O12	O	0.894797	0.635911	-0.170714
O13	O	0.902775	0.562000	-0.083214
Zr14	Zr	0.823819	0.736863	0.058000
Zr15	Zr	0.806767	0.742854	-0.128989
Zr16	Zr	0.823817	0.584901	0.058007
Zr17	Zr	1.002254	0.598118	-0.137486
Zr18	Zr	0.628329	0.729638	0.066503
O19	O	0.976027	0.715383	0.016369
O20	O	0.951781	0.723902	-0.249506
O21	O	0.976024	0.499313	0.016379
O22	O	0.678807	0.819924	0.178513
O23	O	0.654560	0.828443	-0.087362
O24	O	0.678803	0.603854	0.178523
O25	O	0.809949	0.834186	-0.094121
O26	O	0.834193	0.704877	0.171760
O27	O	0.834192	0.609597	0.171764
O28	O	0.820641	0.830429	0.023123
O29	O	1.074352	0.633151	-0.254833
O30	O	0.556231	0.694605	0.183850
O31	O	0.556233	0.815394	0.183845
O32	O	0.542679	0.820156	0.035213
O33	O	1.087905	0.507600	-0.106195
O34	O	1.087907	0.628389	-0.106201
O35	O	0.735786	0.691845	0.099732
O36	O	0.727808	0.765756	0.012231
O37	O	0.902778	0.704214	-0.083220
O38	O	0.910756	0.630303	0.004280
C39	C	0.570763	0.654841	-0.024855
C40	C	0.487773	0.651773	-0.021245
C41	C	0.815288	0.473797	-0.035482
C42	C	0.815287	0.409286	-0.035479
C43	C	0.294817	0.681536	-0.056387
C44	C	0.335771	0.646222	-0.014597
C45	C	0.420352	0.649312	-0.018297
C46	C	0.210228	0.678447	-0.052688
C47	C	0.723957	0.411104	0.014337
C48	C	0.723956	0.350489	0.014341
C49	C	0.815289	0.288055	-0.035489
C50	C	0.906632	0.286239	-0.085308
C51	C	0.906631	0.346855	-0.085303
N52	N	0.879594	0.170269	-0.112916
N53	N	0.879589	0.112689	-0.112919
C54	C	0.815297	0.105423	-0.035505
N55	N	0.750995	0.157918	0.041911
N56	N	0.750997	0.215504	0.041912
C57	C	0.815300	0.222325	-0.035499
C58	C	0.723959	0.041518	0.014320
C59	C	0.723962	-0.019100	0.014326
C60	C	0.906640	-0.083349	-0.085331
C61	C	0.906635	-0.022731	-0.085329
C62	C	0.815291	0.039700	-0.035505
C63	C	1.059820	0.672915	-0.046127
C64	C	1.142811	0.675982	-0.049737
C65	C	0.793962	0.671372	-0.269386
C66	C	0.786722	0.673916	-0.348768
C67	C	0.815295	0.853959	-0.035500
C68	C	0.815296	0.918470	-0.035503
C69	C	0.773499	0.678577	-0.494125
C70	C	0.857081	0.649181	-0.576859
C71	C	0.849723	0.651774	-0.657741
C72	C	0.780854	0.675984	-0.413235
C73	C	0.836622	0.656384	0.198404
C74	C	0.843861	0.653840	0.277786
C75	C	0.570767	0.844921	-0.024864
C76	C	0.487777	0.906366	-0.021257
C77	C	0.592094	0.647346	0.209040
C78	C	0.516342	0.641735	0.292032
C79	C	0.592097	0.837427	0.209032
C80	C	0.516347	0.896328	0.292020
C81	C	1.038487	0.490329	-0.280014
C82	C	1.114237	0.431428	-0.363003
C83	C	1.059817	0.482835	-0.046119
C84	C	1.142807	0.421390	-0.049725
C85	C	1.038490	0.680410	-0.280023
C86	C	1.114242	0.686020	-0.363014
C87	C	0.444638	0.899567	-0.065242
C88	C	0.366669	0.957296	-0.061871
C89	C	0.331837	1.021822	-0.014509
C90	C	0.374984	1.028620	0.029477
C91	C	0.452956	0.970892	0.026100
C92	C	0.484935	0.674754	0.376685
C93	C	0.413770	0.669480	0.454671
C94	C	0.374008	0.631190	0.448003
C95	C	0.405422	0.598168	0.363341
C96	C	0.476591	0.603439	0.285357
C97	C	0.476609	0.962575	0.285318
C98	C	0.405444	1.017925	0.363288
C99	C	0.374012	1.007027	0.447958
C100	C	0.413757	0.940772	0.454658
C101	C	0.484926	0.885424	0.376690
C102	C	1.153984	0.365181	-0.356301
C103	C	1.225174	0.309832	-0.434271
C104	C	1.256609	0.320731	-0.518942
C105	C	1.216859	0.386985	-0.525642
C106	C	1.145676	0.442333	-0.447673
C107	C	1.185953	0.428189	-0.005749
C108	C	1.263941	0.370462	-0.009141
C109	C	1.298776	0.305936	-0.056506
C110	C	1.255626	0.299138	-0.100488
C111	C	1.177644	0.356865	-0.097100
C112	C	1.153981	0.724315	-0.356317
C113	C	1.225148	0.729600	-0.434289
C114	C	1.256579	0.696586	-0.518958
C115	C	1.216832	0.658290	-0.525653
C116	C	1.145661	0.653009	-0.447682
H117	H	0.323275	0.714088	-0.094941
O118	O	0.298129	0.603065	0.036439
H119	H	0.268980	0.620911	0.108197
H120	H	1.113313	0.621823	-0.453147
H121	H	0.649582	0.351969	0.054908
O122	O	1.268010	0.770906	-0.427056
H123	H	1.306847	0.749598	-0.392393
O124	O	1.293202	0.229541	-0.151574
H125	H	1.354668	0.190548	-0.146528
H126	H	0.981005	-0.134182	-0.125904
O127	O	0.499469	0.978226	0.073560
H128	H	0.462133	1.032795	0.107067
H129	H	1.314532	0.700891	-0.582440
O130	O	0.297243	0.625514	0.532123
H131	H	0.274869	0.593339	0.513272
O132	O	0.362596	1.089386	0.356067
H133	H	0.279473	1.114602	0.391618
H134	H	0.696423	0.705688	-0.484040
O135	O	1.250746	0.622675	-0.616976
H136	H	1.306923	0.632778	-0.670062
H137	H	0.934163	0.622065	-0.586946
O138	O	0.625442	0.478440	0.068077
H139	H	0.561934	0.469517	0.102723
H140	H	0.472996	0.847033	-0.103820
H141	H	0.980995	0.235402	-0.125879
H142	H	0.981005	0.345369	-0.125868
H143	H	0.388155	0.931908	0.523607
O144	O	0.625447	0.108858	0.068066
H145	H	0.561938	0.099937	0.102722
H146	H	0.331548	0.951748	-0.097690
H147	H	0.649588	-0.017613	0.054899
O148	O	1.333397	0.261027	-0.603031
H149	H	1.303475	0.227910	-0.601677
H150	H	0.981005	-0.024215	-0.125901
H151	H	0.268346	1.068822	-0.011765
O152	O	0.337410	1.098216	0.080564
H153	H	0.255996	1.122801	0.134781
O154	O	0.527818	0.716050	0.383888
H155	H	0.494022	0.738113	0.455859
O156	O	0.527763	0.813970	0.383923
H157	H	0.493932	0.815697	0.455902
O158	O	0.379883	0.705113	0.545976
H159	H	0.446036	0.685855	0.550707
O160	O	0.362504	0.556893	0.356155
H161	H	0.307723	0.558793	0.424610
O162	O	0.510317	0.567933	0.194059
H163	H	0.470649	0.540468	0.202536
H164	H	0.316061	1.052101	0.511438
H165	H	0.502189	0.971462	0.216383
H166	H	1.142516	0.351320	-0.132910
O167	O	1.102795	0.513790	-0.454888
H168	H	1.063966	0.519800	-0.489558
H169	H	1.242463	0.395851	-0.594590
H170	H	1.128393	0.356293	-0.287365
H171	H	1.128402	0.751200	-0.287383
H172	H	1.257527	0.255890	-0.428799
H173	H	1.157598	0.480724	0.032827
H174	H	1.299062	0.376009	0.026679
O175	O	1.382859	0.243672	-0.060127
H176	H	1.406988	0.259246	-0.021570
