data_functionalizedCrystal
_audit_creation_method	'MofGen! by Chris Wilmer'
_symmetry_space_group_name_H-M	'P1'
_symmetry_Int_Tables_number	1
_symmetry_cell_setting	triclinic
loop_
_symmetry_equiv_pos_as_xyz
  x,y,z
_cell_length_a	6.817900
_cell_length_b	11.102188
_cell_length_c	10.773894
_cell_angle_alpha	95.423105
_cell_angle_beta	96.645922
_cell_angle_gamma	108.603875
loop_
_atom_site_label
_atom_site_type_symbol
_atom_site_fract_x
_atom_site_fract_y
_atom_site_fract_z
V1	V	-3.974351	-0.171169	-0.388944
O2	O	-3.936005	0.013031	-0.381540
O3	O	-3.952057	-0.344021	-0.386284
O4	O	-3.891308	-0.166427	-0.558576
O5	O	-3.997174	-0.165792	-0.208056
V6	V	-4.459085	-0.149385	-0.367308
O7	O	-4.232953	-0.218952	-0.436404
O8	O	-4.650681	-0.101602	-0.319849
O9	O	-4.258173	0.023467	-0.369968
O10	O	-4.614828	-0.333585	-0.374713
O11	O	-4.553659	-0.154762	-0.548197
O12	O	-4.318922	-0.154127	-0.197677
C13	C	-3.804529	-0.386224	-0.380149
C14	C	-3.867357	-0.527519	-0.379104
C15	C	-3.876993	-0.577122	-0.264377
C16	C	-3.936049	-0.709886	-0.263401
C17	C	-3.975821	-0.743432	-0.491889
C18	C	-3.916780	-0.610671	-0.492865
C19	C	-4.109707	-0.875279	-0.128819
C20	C	-4.119309	-0.924884	-0.014084
C21	C	-3.965713	-0.862878	0.090465
C22	C	-3.802466	-0.751266	0.080285
C23	C	-3.792849	-0.701667	-0.034451
C24	C	-3.946490	-0.763672	-0.138996
C25	C	-3.743103	-0.445274	-0.627439
C26	C	-3.733471	-0.395672	-0.742175
C27	C	-3.887055	-0.457677	-0.846734
C28	C	-4.050276	-0.569294	-0.836566
C29	C	-4.059909	-0.618896	-0.721829
C30	C	-3.906324	-0.556882	-0.617270
C31	C	-3.727037	-0.159684	-0.599922
C32	C	-3.740597	-0.156951	-0.738597
C33	C	-3.919387	-0.161688	-0.806460
C34	C	-3.933405	-0.158863	-0.949788
C35	C	-4.069044	0.065663	-0.376101
C36	C	-3.985453	0.206957	-0.377153
C37	C	-4.146537	-0.160874	-0.156324
C38	C	-4.112215	-0.163601	-0.017648
H39	H	-4.252239	-1.015761	-0.005804
H40	H	-3.790697	-0.152708	-0.997792
H41	H	-4.234805	-0.925766	-0.213938
C42	C	-4.359317	-0.283321	-0.895128
C43	C	-4.304883	-0.171907	-0.952864
H44	H	-4.478269	-0.288452	-0.855142
H45	H	-4.245345	-0.280702	-0.833979
H46	H	-4.391288	-0.356371	-0.957115
H47	H	-4.272897	-0.098856	-0.890876
H48	H	-4.418880	-0.174515	-1.014019
H49	H	-3.659931	-0.610798	-0.042741
C50	C	-3.493532	-0.037243	-0.861142
C51	C	-3.547957	-0.148653	-0.803399
H52	H	-3.374608	-0.032126	-0.901151
H53	H	-3.461537	0.035803	-0.799167
H54	H	-3.607537	-0.039862	-0.922286
H55	H	-3.433958	-0.146029	-0.742248
H56	H	-3.579942	-0.221717	-0.865381
H57	H	-3.618033	-0.394775	-0.542301
C58	C	-4.083960	-0.961840	-0.591848
C59	C	-4.030118	-0.834836	-0.616929
H60	H	-4.117462	-1.018264	-0.669046
H61	H	-4.201776	-0.980793	-0.548742
H62	H	-3.969138	-0.972598	-0.540763
H63	H	-4.144947	-0.824075	-0.668007
H64	H	-3.912291	-0.815876	-0.660055
H65	H	-4.062073	-0.167826	-0.758448
H66	H	-3.836752	-0.509423	-0.171746
H67	H	-4.192819	-0.709784	-0.713557
C68	C	-3.727939	-0.645496	0.293749
C69	C	-3.633615	-0.683110	0.195208
H70	H	-3.623692	-0.603408	0.364695
H71	H	-3.826505	-0.719059	0.316229
H72	H	-3.797560	-0.588492	0.267154
H73	H	-3.564007	-0.740121	0.221800
H74	H	-3.535012	-0.609537	0.172726
H75	H	-3.973537	-0.903277	0.183884
C76	C	-4.176204	-0.570345	-1.054346
C77	C	-4.219117	-0.637456	-0.951495
H78	H	-4.280445	-0.612423	-1.125298
H79	H	-4.042749	-0.567812	-1.073892
H80	H	-4.176351	-0.485290	-1.033605
H81	H	-4.218955	-0.722509	-0.972233
H82	H	-4.352607	-0.640004	-0.931948
H83	H	-3.879185	-0.417285	-0.940161
H84	H	-3.600543	-0.304795	-0.750452
