data_functionalizedCrystal
_audit_creation_method	'MofGen! by Chris Wilmer'
_symmetry_space_group_name_H-M	'P1'
_symmetry_Int_Tables_number	1
_symmetry_cell_setting	triclinic
loop_
_symmetry_equiv_pos_as_xyz
  x,y,z
_cell_length_a	6.817900
_cell_length_b	10.773890
_cell_length_c	10.992410
_cell_angle_alpha	95.398895
_cell_angle_beta	108.764651
_cell_angle_gamma	96.645716
loop_
_atom_site_label
_atom_site_type_symbol
_atom_site_fract_x
_atom_site_fract_y
_atom_site_fract_z
V1	V	-4.052541	-0.172595	-0.398500
O2	O	-4.075341	0.008294	-0.393068
O3	O	-3.969472	-0.342226	-0.393703
O4	O	-4.031082	-0.169940	-0.573245
O5	O	-4.013305	-0.165185	-0.212284
V6	V	-4.537170	-0.150958	-0.376479
O7	O	-4.311373	-0.220056	-0.446806
O8	O	-4.728536	-0.103497	-0.328173
O9	O	-4.397033	0.018673	-0.381276
O10	O	-4.631767	-0.331847	-0.381911
O11	O	-4.693804	-0.158368	-0.562695
O12	O	-4.335422	-0.153613	-0.201734
C13	C	-3.805167	-0.383578	-0.386882
C14	C	-3.818715	-0.522254	-0.384125
C15	C	-3.997529	-0.590117	-0.388916
C16	C	-4.011535	-0.733446	-0.386067
C17	C	-3.883756	-0.163809	-0.615904
C18	C	-3.947266	-0.162760	-0.758745
C19	C	-3.817803	-0.153210	-0.953984
C20	C	-3.751678	-0.154817	-0.805481
C21	C	-4.101306	-0.285759	-0.834357
C22	C	-4.166009	-0.284671	-0.982937
C23	C	-4.128927	-0.046502	-0.947793
C24	C	-4.058426	-0.045918	-0.798787
C25	C	-4.224678	0.060019	-0.388093
C26	C	-4.190369	0.198694	-0.390858
C27	C	-4.146089	-0.159748	-0.159068
C28	C	-4.061819	-0.160790	-0.016226
H29	H	-4.333106	-0.753303	-0.397075
F30	F	-4.398895	-0.298628	-1.038491
F31	F	-3.913702	0.073014	-0.731803
H32	H	-4.140252	-0.542108	-0.395135
F33	F	-3.824973	-0.796189	-0.377957
F34	F	-4.293073	-0.299165	-0.796553
H35	H	-3.675999	-0.570266	-0.377921
F36	F	-4.105231	-0.397781	-1.042048
F37	F	-3.706223	-0.036718	-0.979835
H38	H	-3.634843	-0.066375	-0.753213
F39	F	-3.746827	-0.260544	-1.015405
F40	F	-3.638044	-0.263646	-0.771722
H41	H	-4.024529	-0.372509	-0.807700
F42	F	-4.038066	0.075583	-0.975887
H43	H	-4.201055	-0.044474	-0.766293
H44	H	-4.306312	-0.050972	-0.988580
