data_functionalizedCrystal
_audit_creation_method	'MofGen! by Chris Wilmer'
_symmetry_space_group_name_H-M	'P1'
_symmetry_Int_Tables_number	1
_symmetry_cell_setting	triclinic
loop_
_symmetry_equiv_pos_as_xyz
  x,y,z
_cell_length_a	10.489716
_cell_length_b	23.532407
_cell_length_c	9.565339
_cell_angle_alpha	90.005757
_cell_angle_beta	89.996780
_cell_angle_gamma	96.311098
loop_
_atom_site_label
_atom_site_type_symbol
_atom_site_fract_x
_atom_site_fract_y
_atom_site_fract_z
O1	O	1.691402	-0.080274	-0.116269
O2	O	1.319951	-0.087830	-0.116277
O3	O	1.516878	-0.001194	-0.116242
O4	O	1.494476	-0.166910	-0.116304
O5	O	1.516862	-0.001199	0.116278
O6	O	1.319936	-0.087835	0.116244
O7	O	1.691387	-0.080279	0.116251
Zn8	Zn	1.505659	-0.084058	0.153165
Zn9	Zn	1.505679	-0.084051	-0.153191
O10	O	1.494460	-0.166915	0.116217
C11	C	1.272430	-0.087265	-0.000017
C12	C	1.130856	-0.085566	-0.000018
C13	C	1.031416	-0.138694	-0.000041
C14	C	0.954995	-0.110623	0.114620
C15	C	0.955018	-0.110605	-0.114627
C16	C	1.056300	-0.057517	0.114737
C17	C	1.056328	-0.057507	-0.114612
C18	C	0.979958	-0.029397	0.000077
C19	C	1.516300	0.020023	0.000022
C20	C	1.514585	0.083252	0.000037
C21	C	1.620364	0.481658	-0.000015
C22	C	1.618771	0.541069	-0.000022
O23	O	1.716829	0.577167	-0.000070
N24	N	1.501698	0.564466	-0.000022
C25	C	1.386211	0.528449	-0.000029
O26	O	1.286485	0.553806	-0.000030
C27	C	1.387806	0.469040	-0.000031
C28	C	1.504886	0.445646	-0.000017
C29	C	1.737435	0.458263	-0.000003
C30	C	1.739028	0.398857	0.000007
C31	C	1.623549	0.362845	0.000005
C32	C	1.506479	0.386239	-0.000008
C33	C	1.272320	0.433024	-0.000048
C34	C	1.273925	0.373611	-0.000052
C35	C	1.391005	0.350217	-0.000038
C36	C	1.392593	0.290820	-0.000000
N37	N	1.509666	0.267423	-0.000001
C38	C	1.625144	0.303435	0.000002
C39	C	1.382871	0.653214	-0.000025
C40	C	1.381275	0.712622	-0.000012
C41	C	1.613835	0.725238	-0.000009
C42	C	1.615430	0.665828	-0.000011
C43	C	1.499944	0.629816	-0.000025
C44	C	1.628480	0.178676	0.000024
C45	C	1.630063	0.119264	0.000039
C46	C	1.397503	0.106654	0.000028
C47	C	1.395920	0.166061	0.000020
C48	C	1.511419	0.202071	0.000013
O49	O	1.294586	0.254687	0.000042
O50	O	1.724854	0.278070	-0.000015
C51	C	1.738908	-0.080844	-0.000012
C52	C	1.880482	-0.082543	-0.000020
C53	C	1.495039	0.811868	-0.000037
C54	C	1.496754	0.748640	-0.000017
N55	N	1.505654	-0.084062	0.362244
N56	N	1.505694	-0.084042	-0.362270
C57	C	1.414555	-0.124115	0.453431
C58	C	1.529670	-0.135633	0.546608
C59	C	1.390589	-0.072549	0.546623
C60	C	1.620827	-0.095606	0.453369
C61	C	1.481670	-0.032499	0.453376
C62	C	1.596869	-0.043996	0.546510
H63	H	1.100355	-0.035105	0.211770
O64	O	1.737037	-0.107190	0.404749
C65	C	1.833019	-0.065170	0.453269
H66	H	1.788172	-0.024544	0.480016
H67	H	1.908565	-0.055450	0.368389
H68	H	1.879933	-0.081538	0.550633
O69	O	0.952593	0.025767	-0.000092
C70	C	0.881708	0.035922	-0.121053
H71	H	0.900536	0.003585	-0.205248
H72	H	0.912206	0.081017	-0.160959
H73	H	0.775066	0.031376	-0.094766
H74	H	1.461320	0.011084	0.412392
O75	O	1.852873	0.376230	-0.000053
C76	C	1.954440	0.420764	-0.000019
H77	H	1.919200	0.461259	-0.044039
H78	H	2.036233	0.408016	-0.067528
H79	H	1.990018	0.429030	0.111532
H80	H	0.910795	-0.133041	-0.211549
O81	O	1.059197	-0.193799	0.000250
C82	C	1.131979	-0.203536	0.120085
H83	H	1.182274	-0.161149	0.159481
H84	H	1.206654	-0.233443	0.092506
H85	H	1.065867	-0.223891	0.205167
H86	H	1.549984	-0.179230	0.587559
H87	H	1.293263	-0.062820	0.587589
O88	O	1.282161	0.188764	-0.000234
C89	C	1.211813	0.170385	-0.120641
H90	H	1.280297	0.157735	-0.204797
H91	H	1.158028	0.206589	-0.161086
H92	H	1.140231	0.131970	-0.093407
O93	O	1.109058	-0.030856	-0.230379
C94	C	1.057166	-0.059017	-0.351029
H95	H	1.019211	-0.104915	-0.323574
H96	H	1.134949	-0.059175	-0.434223
H97	H	0.975378	-0.035734	-0.392851
O98	O	1.688986	-0.003567	0.594738
C99	C	1.753936	0.024362	0.480686
H100	H	1.743151	-0.004536	0.384793
H101	H	1.859961	0.034332	0.507338
H102	H	1.711220	0.065875	0.457702
O103	O	1.285450	0.071584	-0.000038
C104	C	1.311977	0.014133	0.000001
H105	H	1.412135	0.011446	-0.044005
H106	H	1.238340	-0.012481	-0.067516
H107	H	1.306904	-0.003021	0.111552
H108	H	1.725408	0.100220	0.000054
O109	O	1.740791	0.213570	0.000084
C110	C	1.844449	0.180171	0.000063
H111	H	1.811474	0.135976	0.044085
H112	H	1.925312	0.201746	0.067576
H113	H	1.880383	0.175784	-0.111484
H114	H	1.288822	0.623896	-0.000025
O115	O	0.902246	-0.137471	0.230138
C116	C	0.927904	-0.195040	0.229729
H117	H	0.947579	-0.208712	0.118158
H118	H	0.841484	-0.223170	0.273029
H119	H	1.015394	-0.199790	0.297669
H120	H	1.831477	0.487579	-0.000006
O121	O	1.322887	-0.164589	0.404489
C122	C	1.380739	-0.204098	0.321417
H123	H	1.476734	-0.183233	0.280496
H124	H	1.315354	-0.217907	0.229526
H125	H	1.396908	-0.243101	0.387051
H126	H	1.710767	0.646785	-0.000001
O127	O	1.725898	0.760308	-0.000085
C128	C	1.699371	0.817759	-0.000059
H129	H	1.599218	0.820441	-0.044072
H130	H	1.773016	0.844366	-0.067578
H131	H	1.704430	0.834925	0.111489
H132	H	1.179879	0.344293	-0.000066
O133	O	1.267431	0.735249	-0.000072
C134	C	1.165858	0.690718	-0.000035
H135	H	1.201097	0.650218	-0.044048
H136	H	1.084073	0.703461	-0.067546
H137	H	1.130270	0.682465	0.111517
O138	O	1.158665	0.455805	-0.000263
C139	C	1.150780	0.489771	-0.120714
H140	H	1.251502	0.504158	-0.160840
H141	H	1.100415	0.528872	-0.093652
H142	H	1.094047	0.463749	-0.205049
