data_functionalizedCrystal
_audit_creation_method	'MofGen! by Chris Wilmer'
_symmetry_space_group_name_H-M	'P1'
_symmetry_Int_Tables_number	1
_symmetry_cell_setting	triclinic
loop_
_symmetry_equiv_pos_as_xyz
  x,y,z
_cell_length_a	14.044191
_cell_length_b	23.532407
_cell_length_c	13.101039
_cell_angle_alpha	93.336507
_cell_angle_beta	86.337551
_cell_angle_gamma	88.020227
loop_
_atom_site_label
_atom_site_type_symbol
_atom_site_fract_x
_atom_site_fract_y
_atom_site_fract_z
O1	O	1.261656	0.134377	-0.085184
O2	O	0.985734	0.129420	-0.085197
O3	O	1.132014	0.049419	-0.085171
O4	O	1.115375	0.214379	-0.085210
O5	O	1.121518	0.055169	0.085257
O6	O	0.975238	0.135171	0.085232
O7	O	1.251160	0.140128	0.085244
Zn8	Zn	1.111533	0.138562	0.112297
Zn9	Zn	1.125361	0.130986	-0.112250
O10	O	1.104880	0.220129	0.085218
C11	C	0.945192	0.130127	0.000016
C12	C	0.840027	0.123660	0.000012
C13	C	0.589420	0.157705	0.000015
C14	C	0.647480	0.111845	0.000024
C15	C	0.754623	0.118420	0.000017
C16	C	0.482267	0.151131	0.000021
C17	C	1.126342	0.031055	0.000045
C18	C	1.125068	-0.032231	0.000053
C19	C	1.203646	-0.427075	0.000000
C20	C	1.202463	-0.486540	-0.000007
O21	O	1.275306	-0.519337	-0.000042
N22	N	1.115499	-0.513881	-0.000010
C23	C	1.029713	-0.481755	-0.000016
O24	O	0.955634	-0.510471	-0.000021
C25	C	1.030897	-0.422292	-0.000016
C26	C	1.117867	-0.394953	-0.000002
C27	C	1.290609	-0.399737	0.000013
C28	C	1.291791	-0.340276	0.000023
C29	C	1.206012	-0.308154	0.000020
C30	C	1.119049	-0.335493	0.000008
C31	C	0.945112	-0.390167	-0.000029
C32	C	0.946305	-0.330699	-0.000029
C33	C	1.033274	-0.303361	-0.000015
C34	C	1.034452	-0.243910	0.000015
N35	N	1.121416	-0.216569	0.000018
C36	C	1.207196	-0.248691	0.000020
C37	C	1.027232	-0.606632	-0.000019
C38	C	1.026046	-0.666094	-0.000012
C39	C	1.198797	-0.670875	-0.000005
C40	C	1.199982	-0.611412	-0.000005
C41	C	1.114196	-0.579291	-0.000016
C42	C	1.209673	-0.123819	0.000042
C43	C	1.210848	-0.064353	0.000056
C44	C	1.038097	-0.059577	0.000043
C45	C	1.036922	-0.119038	0.000035
C46	C	1.122717	-0.151158	0.000031
O47	O	0.961648	-0.211077	0.000045
O48	O	1.281263	-0.219968	0.000011
C49	C	1.291702	0.139421	0.000029
C50	C	1.396867	0.145888	0.000026
C51	C	1.110552	0.238493	-0.000000
C52	C	1.111827	0.301778	-0.000015
N53	N	1.102102	0.143733	0.265544
N54	N	1.134799	0.125811	-0.265496
C55	C	1.089271	0.150773	0.474584
C56	C	1.147627	0.118773	0.525470
C57	C	1.140488	0.122690	0.641787
C58	C	1.096409	0.146857	0.358256
H59	H	1.281671	-0.042097	0.000069
N60	N	0.627984	0.213155	0.000003
N61	N	0.604737	0.249258	0.071830
H62	H	0.631982	0.288420	0.071820
N63	N	1.217061	0.080720	0.470575
N64	N	1.215437	0.028435	0.482471
H65	H	1.264486	0.001566	0.443706
N66	N	1.378238	-0.432541	0.000045
N67	N	1.392429	-0.463829	0.071896
H68	H	1.454323	-0.486993	0.071928
N69	N	1.019879	0.188827	0.529527
N70	N	1.014109	0.191994	0.625309
H71	H	0.965102	0.218870	0.664125
N72	N	0.937207	-0.694015	0.000008
N73	N	0.875087	-0.683352	0.071850
H74	H	0.812341	-0.703070	0.071862
H75	H	1.279536	-0.149964	0.000034
H76	H	1.362611	-0.318023	0.000029
N77	N	0.608884	0.056400	0.000047
N78	N	0.520639	0.051066	0.000054
H79	H	0.493375	0.011910	0.000070
N80	N	1.288826	-0.583498	0.000014
N81	N	1.365403	-0.612192	0.000024
H82	H	1.428154	-0.592481	0.000037
H83	H	1.268644	-0.697040	-0.000007
N84	N	0.939589	-0.573832	-0.000027
N85	N	0.861954	-0.598256	-0.000031
H86	H	0.800056	-0.575095	-0.000039
H87	H	0.876446	-0.304549	-0.000040
N88	N	0.856266	-0.418073	-0.000045
N89	N	0.779693	-0.389375	-0.000058
H90	H	0.716938	-0.409082	-0.000073
N91	N	0.948077	-0.146957	0.000053
N92	N	0.871494	-0.118266	0.000066
H93	H	0.808745	-0.137979	0.000076
H94	H	0.968258	-0.033412	0.000045
