data_functionalizedCrystal
_audit_creation_method	'MofGen! by Chris Wilmer'
_symmetry_space_group_name_H-M	'P1'
_symmetry_Int_Tables_number	1
_symmetry_cell_setting	triclinic
loop_
_symmetry_equiv_pos_as_xyz
  x,y,z
_cell_length_a	11.169417
_cell_length_b	19.121063
_cell_length_c	11.169409
_cell_angle_alpha	92.400842
_cell_angle_beta	89.979436
_cell_angle_gamma	92.469728
loop_
_atom_site_label
_atom_site_type_symbol
_atom_site_fract_x
_atom_site_fract_y
_atom_site_fract_z
Zn1	Zn	1.814451	-0.279539	-0.698851
Zn2	Zn	1.805714	-0.397013	-0.506702
Zn3	Zn	1.613731	-0.279582	-0.498188
Zn4	Zn	1.605125	-0.396955	-0.707343
O5	O	1.709755	-0.338272	-0.602771
O6	O	1.981241	-0.295129	-0.673371
O7	O	1.780192	-0.381477	-0.337626
O8	O	1.647615	-0.181292	-0.517690
O9	O	1.974822	-0.381435	-0.532200
O10	O	1.795083	-0.181261	-0.665116
O11	O	1.639143	-0.295201	-0.331371
O12	O	1.444640	-0.295146	-0.525924
O13	O	1.632947	-0.381338	-0.874163
O14	O	1.438317	-0.381380	-0.679589
O15	O	1.786738	-0.295073	-0.867924
O16	O	1.771847	-0.495289	-0.540435
O17	O	1.624475	-0.495247	-0.687844
C18	C	1.397931	-0.338262	-0.602755
C19	C	1.264530	-0.338274	-0.602778
C20	C	1.696312	-0.520752	-0.616011
C21	C	1.690671	-0.598818	-0.621715
C22	C	1.764809	-0.635491	-0.547710
C23	C	1.759510	-0.708842	-0.553082
C24	C	1.680067	-0.745518	-0.632454
C25	C	1.605926	-0.708839	-0.706467
C26	C	1.611231	-0.635489	-0.701100
C27	C	1.660212	-0.966986	-0.652499
C28	C	1.654910	-1.040341	-0.657858
C29	C	1.808497	-1.040339	-0.504474
C30	C	1.813790	-0.966988	-0.499110
C31	C	1.739653	-0.930316	-0.573127
C32	C	1.674647	-0.820494	-0.637944
C33	C	1.745081	-0.855341	-0.567642
C34	C	2.022796	-0.338284	-0.602788
C35	C	2.156196	-0.338288	-0.602795
C36	C	1.709857	-0.338195	-0.915808
C37	C	1.709900	-0.338161	-1.049206
C38	C	1.723283	-0.155080	-0.589506
C39	C	1.729048	-0.077015	-0.583853
C40	C	1.709726	-0.338299	-0.290948
C41	C	1.709930	-0.338135	-0.157537
H42	H	1.829495	-0.605635	-0.483072
C43	C	1.901177	-0.926652	-0.411790
C44	C	1.852848	-0.876307	-0.313830
C45	C	1.940229	-0.835974	-0.226499
C46	C	2.075939	-0.845986	-0.237128
C47	C	2.124276	-0.896334	-0.335092
C48	C	2.036895	-0.936667	-0.422423
H49	H	1.752381	-0.868894	-0.305958
H50	H	1.904446	-0.798703	-0.153980
H51	H	2.140624	-0.816129	-0.172480
H52	H	2.224743	-0.903747	-0.342963
H53	H	2.072677	-0.973937	-0.494942
C54	C	1.890053	-1.080680	-0.423069
C55	C	1.884229	-1.161361	-0.428967
C56	C	1.965794	-1.201702	-0.347561
C57	C	2.053182	-1.161360	-0.260258
C58	C	2.059009	-1.080674	-0.254356
C59	C	1.977445	-1.040334	-0.335762
H60	H	1.819536	-1.191229	-0.493598
H61	H	1.961480	-1.261431	-0.351931
H62	H	2.113561	-1.191222	-0.199997
H63	H	2.123702	-1.050807	-0.189726
H64	H	1.981759	-0.980604	-0.331392
H65	H	1.590232	-1.070200	-0.722513
C66	C	1.518535	-0.749178	-0.793779
C67	C	1.528998	-0.739020	-0.929482
C68	C	1.441602	-0.779357	-1.016794
C69	C	1.343743	-0.829851	-0.968403
C70	C	1.333276	-0.840011	-0.832693
C71	C	1.420672	-0.799674	-0.745381
H72	H	1.601442	-0.701639	-0.965311
H73	H	1.449351	-0.771835	-1.117256
H74	H	1.279047	-0.859710	-1.033037
H75	H	1.260832	-0.877392	-0.796865
H76	H	1.412924	-0.807196	-0.644919
C77	C	1.529674	-0.595144	-0.782502
C78	C	1.392506	-0.605297	-0.773333
C79	C	1.310951	-0.564952	-0.854741
C80	C	1.366564	-0.514455	-0.945318
C81	C	1.503740	-0.504300	-0.954491
C82	C	1.585295	-0.544645	-0.873083
H83	H	1.351332	-0.642680	-0.706278
H84	H	1.209405	-0.572470	-0.847949
H85	H	1.306193	-0.484590	-1.005581
H86	H	1.544914	-0.466917	-1.021546
H87	H	1.686841	-0.537127	-0.879875
C88	C	1.832466	-0.814999	-0.480335
C89	C	1.784136	-0.764644	-0.382391
C90	C	1.871518	-0.724295	-0.295080
C91	C	2.007230	-0.734302	-0.305714
C92	C	2.055566	-0.784659	-0.403662
C93	C	1.968185	-0.825008	-0.490972
H94	H	1.683668	-0.757234	-0.374516
H95	H	1.835735	-0.687017	-0.222573
H96	H	2.071915	-0.704433	-0.241081
H97	H	2.156035	-0.792069	-0.411537
H98	H	2.003968	-0.862286	-0.563480
C99	C	1.587259	-0.860843	-0.725247
C100	C	1.489419	-0.911347	-0.676848
C101	C	1.402037	-0.951699	-0.764154
C102	C	1.412494	-0.941547	-0.899860
C103	C	1.510338	-0.891041	-0.948266
C104	C	1.597720	-0.850689	-0.860959
H105	H	1.481674	-0.918864	-0.576384
H106	H	1.329607	-0.989087	-0.728320
H107	H	1.347809	-0.971418	-0.964489
H108	H	1.518083	-0.883524	-1.048729
H109	H	1.670150	-0.813300	-0.896793
H110	H	1.819881	-0.738699	-0.492818
H111	H	1.599845	-0.937133	-0.712765
