data_functionalizedCrystal
_audit_creation_method	'MofGen! by Chris Wilmer'
_symmetry_space_group_name_H-M	'P1'
_symmetry_Int_Tables_number	1
_symmetry_cell_setting	triclinic
loop_
_symmetry_equiv_pos_as_xyz
  x,y,z
_cell_length_a	16.109302
_cell_length_b	19.188930
_cell_length_c	15.186229
_cell_angle_alpha	90.005403
_cell_angle_beta	90.007553
_cell_angle_gamma	83.303281
loop_
_atom_site_label
_atom_site_type_symbol
_atom_site_fract_x
_atom_site_fract_y
_atom_site_fract_z
O1	O	1.102836	0.089743	0.073278
O2	O	1.602836	0.589743	0.573278
O3	O	0.860737	0.100910	0.073273
O4	O	1.360737	0.600910	0.573273
O5	O	0.988773	-0.006313	0.073258
O6	O	1.488773	0.493687	0.573258
O7	O	0.974800	0.196966	0.073292
O8	O	1.474800	0.696966	0.573292
O9	O	0.988758	-0.006307	-0.073199
O10	O	1.488758	0.493693	0.426801
O11	O	0.860722	0.100917	-0.073185
O12	O	1.360722	0.600917	0.426815
O13	O	1.102821	0.089749	-0.073179
O14	O	1.602821	0.589749	0.426821
Zn15	Zn	0.981769	0.095334	-0.096435
Zn16	Zn	1.481769	0.595334	0.403565
Zn17	Zn	0.981789	0.095326	0.096529
Zn18	Zn	1.481789	0.595326	0.596529
O19	O	0.974785	0.196972	-0.073165
O20	O	1.474785	0.696972	0.426835
C21	C	0.829756	0.100461	0.000043
C22	C	1.329756	0.600461	0.500043
C23	C	0.737466	0.099105	0.000040
C24	C	1.237466	0.599105	0.500040
C25	C	0.525127	0.095971	-0.079786
C26	C	1.025127	0.595971	0.420214
C27	C	0.438411	0.094689	-0.079783
C28	C	0.938411	0.594689	0.420217
C29	C	0.438438	0.094686	0.079893
C30	C	0.938438	0.594686	0.579893
C31	C	0.525153	0.095963	0.079889
C32	C	1.025153	0.595963	0.579889
C33	C	0.568495	0.096609	0.000047
C34	C	1.068495	0.596609	0.500047
C35	C	0.395064	0.094050	0.000054
C36	C	0.895064	0.594050	0.500054
C37	C	0.301043	0.092660	0.000058
C38	C	0.801043	0.592660	0.500058
C39	C	0.662522	0.097998	0.000043
C40	C	1.162522	0.597998	0.500043
C41	C	0.988313	-0.032322	0.000027
C42	C	1.488313	0.467678	0.500027
C43	C	0.986955	-0.109830	0.000020
C44	C	1.486955	0.390170	0.500020
C45	C	1.062082	-0.154578	0.000017
C46	C	1.562082	0.345422	0.500017
C47	C	1.060806	-0.227404	0.000031
C48	C	1.560806	0.272596	0.500031
C49	C	0.984398	-0.255480	0.000030
C50	C	1.484398	0.244520	0.500030
C51	C	0.909261	-0.210722	0.000037
C52	C	1.409261	0.289278	0.500037
C53	C	0.910539	-0.137897	0.000032
C54	C	1.410539	0.362103	0.500032
N55	N	0.925989	-0.363619	-0.049814
N56	N	1.425989	0.136381	0.450186
N57	N	0.924779	-0.432801	-0.049810
N58	N	1.424779	0.067199	0.450190
C59	C	0.980542	-0.474897	0.000048
C60	C	1.480542	0.025103	0.500048
N61	N	1.037573	-0.445201	0.049892
N62	N	1.537573	0.054799	0.549892
N63	N	1.038784	-0.376013	0.049885
N64	N	1.538784	0.123987	0.549885
C65	C	0.983004	-0.334446	0.000036
C66	C	1.483004	0.165554	0.500036
C67	C	1.054291	-0.598613	0.000062
C68	C	1.554291	-0.098613	0.500062
C69	C	1.053012	-0.671441	0.000081
C70	C	1.553012	-0.171441	0.500081
C71	C	0.901465	-0.654757	0.000079
C72	C	1.401465	-0.154757	0.500079
C73	C	0.902746	-0.581931	0.000068
C74	C	1.402746	-0.081931	0.500068
C75	C	0.979162	-0.553864	0.000055
C76	C	1.479162	-0.053864	0.500055
C77	C	1.133802	0.090198	0.000052
C78	C	1.633802	0.590198	0.500052
C79	C	1.226093	0.091555	0.000061
C80	C	1.726093	0.591555	0.500061
C81	C	0.975245	0.222981	0.000068
C82	C	1.475245	0.722981	0.500068
C83	C	0.976604	0.300489	0.000082
C84	C	1.476604	0.800489	0.500082
N85	N	0.981762	0.095339	-0.228128
N86	N	1.481762	0.595339	0.271872
C87	C	1.032045	0.137687	-0.453842
C88	C	1.532045	0.637687	0.046158
C89	C	1.032054	0.137682	-0.546032
C90	C	1.532054	0.637682	-0.046032
C91	C	0.931518	0.052962	-0.546058
C92	C	1.431518	0.552962	-0.046058
C93	C	0.931514	0.052963	-0.453870
C94	C	1.431514	0.552963	0.046130
C95	C	0.981776	0.095330	-0.407764
C96	C	1.481776	0.595330	0.092236
C97	C	0.981789	0.095323	-0.592142
C98	C	1.481789	0.595323	-0.092142
C99	C	0.981798	0.095318	-0.692098
C100	C	1.481798	0.595318	-0.192098
C101	C	0.981768	0.095335	-0.307802
C102	C	1.481768	0.595335	0.192198
N103	N	0.981803	0.095315	0.228221
N104	N	1.481803	0.595315	0.728221
H105	H	0.403138	0.094161	0.144897
H106	H	0.903138	0.594161	0.644897
H107	H	0.890595	0.018469	-0.583609
H108	H	1.390595	0.518469	-0.083609
F109	F	1.143410	-0.124711	0.000023
F110	F	1.643410	0.375289	0.500023
H111	H	0.560413	0.096497	-0.144798
H112	H	1.060413	0.596497	0.355202
H113	H	0.890577	0.018467	-0.416353
H114	H	1.390577	0.518467	0.083647
H115	H	1.072990	0.172173	-0.583544
H116	H	1.572990	0.672173	-0.083544
F117	F	0.392260	0.094011	-0.164752
F118	F	0.892260	0.594011	0.335248
F119	F	0.571311	0.096638	0.164863
F120	F	1.071311	0.596638	0.664863
F121	F	0.820145	-0.684632	0.000082
F122	F	1.320145	-0.184632	0.500082
F123	F	1.140770	-0.275038	0.000030
F124	F	1.640770	0.224962	0.500030
H125	H	0.847049	-0.233585	0.000038
H126	H	1.347049	0.266415	0.500038
F127	F	1.135618	-0.568740	0.000044
F128	F	1.635618	-0.068740	0.500044
F129	F	0.830575	-0.090270	0.000035
F130	F	1.330575	0.409730	0.500035
F131	F	1.085544	0.182774	-0.404776
F132	F	1.585544	0.682774	0.095224
H133	H	1.114192	-0.707875	0.000084
H134	H	1.614192	-0.207875	0.500084
H135	H	0.841569	-0.545495	0.000065
H136	H	1.341569	-0.045495	0.500065
