data_functionalizedCrystal
_audit_creation_method	'MofGen! by Chris Wilmer'
_symmetry_space_group_name_H-M	'P1'
_symmetry_Int_Tables_number	1
_symmetry_cell_setting	triclinic
loop_
_symmetry_equiv_pos_as_xyz
  x,y,z
_cell_length_a	16.625546
_cell_length_b	12.759401
_cell_length_c	12.759393
_cell_angle_alpha	90.019322
_cell_angle_beta	89.963806
_cell_angle_gamma	89.979618
loop_
_atom_site_label
_atom_site_type_symbol
_atom_site_fract_x
_atom_site_fract_y
_atom_site_fract_z
Zn1	Zn	-0.320999	-1.606199	-0.593971
Zn2	Zn	0.179001	-1.106199	-0.093971
Zn3	Zn	-0.455856	-1.606069	-0.418277
Zn4	Zn	0.044144	-1.106069	0.081723
Zn5	Zn	-0.321036	-1.430501	-0.418308
Zn6	Zn	0.178964	-0.930501	0.081692
Zn7	Zn	-0.455788	-1.430465	-0.593916
Zn8	Zn	0.044212	-0.930465	-0.093916
O9	O	-0.388420	-1.518308	-0.506118
O10	O	0.111580	-1.018308	-0.006118
O11	O	-0.338901	-1.753202	-0.570675
O12	O	0.161099	-1.253202	-0.070675
O13	O	-0.438015	-1.582740	-0.271260
O14	O	0.061985	-1.082740	0.228740
O15	O	-0.208199	-1.453876	-0.441646
O16	O	0.291801	-0.953876	0.058354
O17	O	-0.437979	-1.753107	-0.441593
O18	O	0.062021	-1.253107	0.058407
O19	O	-0.208171	-1.582961	-0.570705
O20	O	0.291829	-1.082961	-0.070705
O21	O	-0.338964	-1.453751	-0.271282
O22	O	0.161036	-0.953751	0.228718
O23	O	-0.338898	-1.283475	-0.441592
O24	O	0.161102	-0.783475	0.058408
O25	O	-0.437865	-1.453816	-0.740944
O26	O	0.062135	-0.953816	-0.240944
O27	O	-0.437900	-1.283449	-0.570611
O28	O	0.062100	-0.783449	-0.070611
O29	O	-0.338835	-1.582927	-0.740984
O30	O	0.161165	-1.082927	-0.240984
O31	O	-0.568679	-1.582706	-0.441539
O32	O	-0.068679	-1.082706	0.058461
O33	O	-0.568630	-1.453691	-0.570581
O34	O	-0.068630	-0.953691	-0.070581
C35	C	-0.388397	-1.245341	-0.506099
C36	C	0.111603	-0.745341	-0.006099
C37	C	-0.388406	-1.128564	-0.506117
C38	C	0.111594	-0.628564	-0.006117
C39	C	-0.440037	-1.073716	-0.573184
C40	C	0.059963	-0.573716	-0.073184
C41	C	-0.440044	-0.963992	-0.573194
C42	C	0.059956	-0.463992	-0.073194
C43	C	-0.336787	-0.963974	-0.439059
C44	C	0.163213	-0.463974	0.060941
C45	C	-0.336776	-1.073696	-0.439055
C46	C	0.163224	-0.573696	0.060945
C47	C	-0.491668	-1.128585	-0.640246
C48	C	0.008332	-0.628585	-0.140246
C49	C	-0.543304	-1.073737	-0.707318
C50	C	-0.043304	-0.573737	-0.207318
C51	C	-0.543311	-0.964013	-0.707328
C52	C	-0.043311	-0.464013	-0.207328
C53	C	-0.491681	-0.909137	-0.640265
C54	C	0.008319	-0.409137	-0.140265
C55	C	-0.597911	-1.518209	-0.506074
C56	C	-0.097911	-1.018209	-0.006074
C57	C	-0.687532	-1.518263	-0.506090
C58	C	-0.187532	-1.018263	-0.006090
C59	C	-1.015707	-1.518446	-0.506199
C60	C	-0.515707	-1.018446	-0.006199
C61	C	-0.924399	-1.518392	-0.506172
C62	C	-0.424399	-1.018392	-0.006172
C63	C	-0.851622	-1.518353	-0.506144
C64	C	-0.351622	-1.018353	-0.006144
C65	C	-0.760308	-1.518301	-0.506118
C66	C	-0.260308	-1.018301	-0.006118
C67	C	-0.178111	-1.518437	-0.506185
C68	C	0.321889	-1.018437	-0.006185
C69	C	-0.088490	-1.518492	-0.506213
C70	C	0.411510	-1.018492	-0.006213
C71	C	-0.388338	-1.518382	-0.780151
C72	C	0.111662	-1.018382	-0.280151
C73	C	-0.388304	-1.518413	-0.896928
C74	C	0.111696	-1.018413	-0.396928
C75	C	-0.388436	-0.792342	-0.506133
C76	C	0.111564	-0.292342	-0.006133
C77	C	-0.388423	-0.909118	-0.506130
C78	C	0.111577	-0.409118	-0.006130
C79	C	-0.336734	-1.585650	-0.951813
C80	C	0.163266	-1.085650	-0.451813
C81	C	-0.336705	-1.585675	-1.061537
C82	C	0.163295	-1.085675	-0.561537
C83	C	-0.439822	-1.451223	-1.061482
C84	C	0.060178	-0.951223	-0.561482
C85	C	-0.439846	-1.451194	-0.951759
C86	C	0.060154	-0.951194	-0.451759
C87	C	-0.285192	-1.652870	-0.896981
C88	C	0.214808	-1.152870	-0.396981
C89	C	-0.233619	-1.720113	-0.951866
C90	C	0.266381	-1.220113	-0.451866
C91	C	-0.233590	-1.720138	-1.061590
C92	C	0.266410	-1.220138	-0.561590
C93	C	-0.285133	-1.652920	-1.116429
C94	C	0.214867	-1.152920	-0.616429
C95	C	-0.388443	-1.518296	-0.233150
C96	C	0.111557	-1.018296	0.266850
C97	C	-0.388250	-1.518468	-0.116374
C98	C	0.111750	-1.018468	0.383626
H99	H	-0.585349	-0.919358	-0.761949
H100	H	-0.085349	-0.419358	-0.261949
O101	O	-0.491809	-1.235169	-0.640233
O102	O	0.008191	-0.735169	-0.140233
C103	C	-0.569052	-1.271787	-0.613031
C104	C	-0.069052	-0.771787	-0.113031
H105	H	-0.615517	-1.208548	-0.630873
H106	H	-0.115517	-0.708548	-0.130873
H107	H	-0.583425	-1.345209	-0.660376
H108	H	-0.083425	-0.845209	-0.160376
H109	H	-0.570674	-1.291216	-0.525851
H110	H	-0.070674	-0.791216	-0.025851
H111	H	-0.294727	-1.118354	-0.384451
H112	H	0.205273	-0.618354	0.115549
O113	O	-0.490006	-1.385990	-1.114633
O114	O	0.009994	-0.885990	-0.614633
C115	C	-0.570376	-1.408913	-1.087805
C116	C	-0.070376	-0.908913	-0.587805
H117	H	-0.572067	-1.449276	-1.008140
H118	H	-0.072067	-0.949276	-0.508140
H119	H	-0.606526	-1.333067	-1.084032
H120	H	-0.106526	-0.833067	-0.584032
H121	H	-0.597524	-1.462932	-1.149548
H122	H	-0.097524	-0.962932	-0.649548
H123	H	-0.285096	-1.652933	-1.205774
H124	H	0.214904	-1.152933	-0.705774
O125	O	-0.183589	-1.785547	-0.898714
O126	O	0.316411	-1.285547	-0.398714
C127	C	-0.201226	-1.890256	-0.925508
C128	C	0.298774	-1.390256	-0.425508
H129	H	-0.232201	-1.892435	-1.005163
H130	H	0.267799	-1.392435	-0.505163
H131	H	-0.143037	-1.937403	-0.929288
H132	H	0.356963	-1.437403	-0.429288
H133	H	-0.242700	-1.925601	-0.863743
H134	H	0.257300	-1.425601	-0.363743
H135	H	-0.481826	-1.396427	-0.907071
H136	H	0.018174	-0.896427	-0.407071
H137	H	-0.491684	-0.819792	-0.640288
H138	H	0.008316	-0.319792	-0.140288
O139	O	-0.593339	-1.127154	-0.772514
O140	O	-0.093339	-0.627154	-0.272514
C141	C	-0.547490	-1.190646	-0.840493
C142	C	-0.047490	-0.690646	-0.340493
H143	H	-0.486351	-1.207091	-0.803581
H144	H	0.013649	-0.707091	-0.303581
H145	H	-0.580340	-1.267797	-0.854489
H146	H	-0.080340	-0.767797	-0.354489
H147	H	-0.538704	-1.148396	-0.918375
H148	H	-0.038704	-0.648396	-0.418375
O149	O	-0.286722	-0.910508	-0.373942
O150	O	0.213278	-0.410508	0.126058
C151	C	-0.297792	-0.801903	-0.388342
C152	C	0.202208	-0.301903	0.111658
H153	H	-0.360048	-0.786916	-0.422612
H154	H	0.139952	-0.286916	0.077388
H155	H	-0.292264	-0.760177	-0.309658
H156	H	0.207736	-0.260177	0.190342
H157	H	-0.250016	-0.770795	-0.444396
H158	H	0.249984	-0.270795	0.055604
H159	H	-0.191591	-1.774883	-1.106274
H160	H	0.308409	-1.274883	-0.606274
O161	O	-0.285091	-1.652945	-0.790396
O162	O	0.214909	-1.152945	-0.290396
C163	C	-0.228558	-1.726710	-0.753767
C164	C	0.271442	-1.226710	-0.253767
H165	H	-0.181434	-1.741473	-0.817015
H166	H	0.318566	-1.241473	-0.317015
H167	H	-0.197976	-1.695013	-0.680369
H168	H	0.302024	-1.195013	-0.180369
H169	H	-0.260547	-1.803290	-0.734295
H170	H	0.239453	-1.303290	-0.234295
