data_functionalizedCrystal
_audit_creation_method	'MofGen! by Chris Wilmer'
_symmetry_space_group_name_H-M	'P1'
_symmetry_Int_Tables_number	1
_symmetry_cell_setting	triclinic
loop_
_symmetry_equiv_pos_as_xyz
  x,y,z
_cell_length_a	12.759395
_cell_length_b	25.639239
_cell_length_c	12.759387
_cell_angle_alpha	89.963582
_cell_angle_beta	89.980569
_cell_angle_gamma	90.038532
loop_
_atom_site_label
_atom_site_type_symbol
_atom_site_fract_x
_atom_site_fract_y
_atom_site_fract_z
Zn1	Zn	1.606094	-0.208125	-0.593934
Zn2	Zn	1.605911	-0.295571	-0.418237
Zn3	Zn	1.430392	-0.208151	-0.418274
Zn4	Zn	1.430311	-0.295531	-0.593879
O5	O	1.518177	-0.251845	-0.506081
O6	O	1.753090	-0.219731	-0.570635
O7	O	1.582585	-0.284002	-0.271221
O8	O	1.453809	-0.134983	-0.441614
O9	O	1.752956	-0.283977	-0.441551
O10	O	1.582897	-0.134964	-0.570670
O11	O	1.453632	-0.219775	-0.271248
O12	O	1.283360	-0.219737	-0.441561
O13	O	1.453671	-0.283909	-0.740908
O14	O	1.283300	-0.283934	-0.570578
O15	O	1.582818	-0.219693	-0.740948
O16	O	1.582506	-0.368731	-0.441498
O17	O	1.453494	-0.368702	-0.570542
C18	C	1.245209	-0.251834	-0.506068
C19	C	1.128432	-0.251843	-0.506087
C20	C	1.128553	-0.185051	-0.640719
C21	C	1.073753	-0.151662	-0.708044
C22	C	0.964031	-0.151671	-0.708057
C23	C	0.909107	-0.185072	-0.640736
C24	C	0.963908	-0.218462	-0.573412
C25	C	1.073632	-0.218450	-0.573408
C26	C	0.963787	-0.285249	-0.438776
C27	C	1.073509	-0.285244	-0.438767
C28	C	0.908864	-0.318651	-0.371455
C29	C	0.963664	-0.352043	-0.304134
C30	C	1.073392	-0.352033	-0.304125
C31	C	1.128309	-0.318633	-0.371442
C32	C	1.518000	-0.387687	-0.506033
C33	C	1.518020	-0.445801	-0.506047
C34	C	1.585529	-0.806167	-0.439002
C35	C	1.585570	-0.860771	-0.439017
O36	O	1.642784	-0.889010	-0.381960
N37	N	1.518361	-0.888084	-0.506151
C38	C	1.451115	-0.860789	-0.573283
O39	O	1.393954	-0.889035	-0.630387
C40	C	1.451081	-0.806186	-0.573273
C41	C	1.518286	-0.778876	-0.506127
C42	C	1.652729	-0.778857	-0.371863
C43	C	1.652687	-0.724257	-0.371848
C44	C	1.585444	-0.696966	-0.438972
C45	C	1.518244	-0.724276	-0.506112
C46	C	1.383841	-0.778892	-0.640410
C47	C	1.383813	-0.724285	-0.640395
C48	C	1.451018	-0.696976	-0.573249
C49	C	1.450958	-0.642384	-0.573221
N50	N	1.518167	-0.615072	-0.506087
C51	C	1.585409	-0.642363	-0.438963
C52	C	1.451195	-0.975460	-0.573299
C53	C	1.451223	-1.030062	-0.573304
C54	C	1.585679	-1.030041	-0.439039
C55	C	1.585644	-0.975437	-0.439029
C56	C	1.518403	-0.948147	-0.506165
C57	C	1.585315	-0.527698	-0.438935
C58	C	1.585263	-0.473092	-0.438923
C59	C	1.450812	-0.473119	-0.573191
C60	C	1.450859	-0.527719	-0.573200
C61	C	1.518119	-0.555007	-0.506069
O62	O	1.393776	-0.614111	-0.630252
O63	O	1.642571	-0.614111	-0.381877
C64	C	1.792210	-0.251856	-0.506095
C65	C	1.908987	-0.251860	-0.506100
C66	C	1.518256	-0.251794	-0.780115
C67	C	1.518290	-0.251772	-0.896891
C68	C	1.518383	-0.115472	-0.506152
C69	C	1.518470	-0.057358	-0.506183
C70	C	1.652780	-0.184907	-0.896953
C71	C	1.720039	-0.151467	-0.951844
C72	C	1.720065	-0.151448	-1.061566
C73	C	1.652821	-0.184872	-1.116399
C74	C	1.585562	-0.218312	-1.061507
C75	C	1.585546	-0.218328	-0.951783
C76	C	1.451068	-0.285173	-1.061446
C77	C	1.451046	-0.285195	-0.951724
C78	C	1.383825	-0.318596	-1.116279
C79	C	1.316569	-0.352040	-1.061387
C80	C	1.316547	-0.352058	-0.951659
C81	C	1.383787	-0.318635	-0.896833
C82	C	1.518158	-0.251858	-0.233114
C83	C	1.518328	-0.251733	-0.116337
H84	H	0.919412	-0.124480	-0.762872
H85	H	1.640086	-0.549909	-0.384273
C86	C	0.903248	-0.388780	-0.230088
C87	C	0.918289	-0.384437	-0.110667
C88	C	0.857868	-0.421175	-0.036620
C89	C	0.782406	-0.462255	-0.081994
C90	C	0.767362	-0.466599	-0.201421
C91	C	0.827783	-0.429862	-0.275468
H92	H	0.974153	-0.354026	-0.077073
H93	H	0.869004	-0.417959	0.051788
H94	H	0.737679	-0.489450	-0.027180
H95	H	0.711498	-0.497011	-0.235015
H96	H	0.816646	-0.433078	-0.363876
H97	H	1.774786	-0.124253	-0.907187
H98	H	1.707414	-0.702025	-0.317175
C99	C	1.133669	-0.388762	-0.230065
C100	C	1.073251	-0.425499	-0.156021
C101	C	1.133524	-0.462228	-0.081959
C102	C	1.254214	-0.462222	-0.081940
C103	C	1.314638	-0.425484	-0.155987
C104	C	1.254366	-0.388755	-0.230049
H105	H	0.983903	-0.425504	-0.156032
H106	H	1.088793	-0.489424	-0.027144
H107	H	1.298831	-0.489412	-0.027115
H108	H	1.403986	-0.425479	-0.155976
H109	H	1.299097	-0.361559	-0.284863
C110	C	1.377286	-1.060099	-0.647155
C111	C	1.377314	-1.120161	-0.647183
C112	C	1.303378	-1.150195	-0.721042
C113	C	1.229414	-1.120168	-0.794871
C114	C	1.229383	-1.060104	-0.794846
C115	C	1.303319	-1.030069	-0.720988
H116	H	1.432069	-1.142391	-0.592528
H117	H	1.303401	-1.194659	-0.721060
H118	H	1.174682	-1.142402	-0.849546
H119	H	1.174628	-1.037873	-0.849502
H120	H	1.303296	-0.985605	-0.720969
H121	H	0.819766	-0.185073	-0.640744
C122	C	1.726703	-0.808870	-0.298015
C123	C	1.718175	-0.801399	-0.178573
C124	C	1.792148	-0.831407	-0.104713
C125	C	1.874649	-0.868886	-0.150294
C126	C	1.883180	-0.876359	-0.269741
C127	C	1.809207	-0.846351	-0.343602
H128	H	1.657100	-0.773654	-0.144826
H129	H	1.785832	-0.825875	-0.016290
H130	H	1.929408	-0.891100	-0.095618
H131	H	1.944255	-0.904105	-0.303489
H132	H	1.815523	-0.851883	-0.432025
C133	C	1.659656	-1.060067	-0.365205
C134	C	1.659694	-1.120129	-0.365231
C135	C	1.733665	-1.150157	-0.291402
C136	C	1.807598	-1.120123	-0.217547
C137	C	1.807563	-1.060059	-0.217519
C138	C	1.733592	-1.030030	-0.291348
H139	H	1.604962	-1.142364	-0.419905
H140	H	1.733691	-1.194621	-0.291423
H141	H	1.862356	-1.142352	-0.162895
H142	H	1.862295	-1.037823	-0.162846
H143	H	1.733566	-0.985566	-0.291327
C144	C	1.377210	-0.945444	-0.647142
C145	C	1.257786	-0.953020	-0.638457
C146	C	1.183804	-0.923007	-0.712301
C147	C	1.229246	-0.885418	-0.794829
C148	C	1.348677	-0.877840	-0.803518
C149	C	1.422659	-0.907853	-0.729674
H150	H	1.224141	-0.980847	-0.577361
H151	H	1.095393	-0.928617	-0.705868
H152	H	1.174480	-0.863201	-0.849493
H153	H	1.382321	-0.850013	-0.864614
H154	H	1.511070	-0.902243	-0.736106
H155	H	1.652776	-0.184924	-0.807612
C156	C	1.309840	-0.694267	-0.714242
C157	C	1.190414	-0.701842	-0.705569
C158	C	1.116440	-0.671824	-0.779412
C159	C	1.161891	-0.634231	-0.861928
C160	C	1.281323	-0.626654	-0.870605
C161	C	1.355297	-0.656672	-0.796762
H162	H	1.156763	-0.729672	-0.644482
H163	H	1.028029	-0.677433	-0.772988
H164	H	1.107131	-0.612010	-0.916591
H165	H	1.314974	-0.598825	-0.931692
H166	H	1.443709	-0.651063	-0.803186
C167	C	1.376851	-0.443090	-0.647027
C168	C	1.294372	-0.405606	-0.601424
C169	C	1.220418	-0.375576	-0.675266
C170	C	1.228944	-0.383029	-0.794712
C171	C	1.311427	-0.420515	-0.840322
C172	C	1.385380	-0.450546	-0.766480
H173	H	1.288058	-0.400087	-0.512997
H174	H	1.159359	-0.347826	-0.641502
H175	H	1.174199	-0.360799	-0.849375
H176	H	1.317741	-0.426034	-0.928749
H177	H	1.446439	-0.478295	-0.800244
H178	H	1.217894	-0.185038	-0.640711
H179	H	1.383846	-0.318576	-1.205620
H180	H	1.118483	-0.124467	-0.762853
H181	H	0.819522	-0.318654	-0.371468
H182	H	1.652839	-0.184849	-1.205740
H183	H	1.217650	-0.318619	-0.371436
H184	H	1.639990	-0.450858	-0.384241
H185	H	1.774827	-0.124215	-1.106259
H186	H	1.640369	-0.953205	-0.384354
H187	H	1.329110	-0.801118	-0.695082
H188	H	1.396138	-0.549956	-0.627879
H189	H	1.261819	-0.379248	-1.106040
H190	H	1.261764	-0.379283	-0.906972
H191	H	1.383780	-0.318649	-0.807491
