data_functionalizedCrystal
_audit_creation_method	'MofGen! by Chris Wilmer'
_symmetry_space_group_name_H-M	'P1'
_symmetry_Int_Tables_number	1
_symmetry_cell_setting	triclinic
loop_
_symmetry_equiv_pos_as_xyz
  x,y,z
_cell_length_a	6.817900
_cell_length_b	9.514072
_cell_length_c	14.125286
_cell_angle_alpha	92.628122
_cell_angle_beta	100.396688
_cell_angle_gamma	118.843421
loop_
_atom_site_label
_atom_site_type_symbol
_atom_site_fract_x
_atom_site_fract_y
_atom_site_fract_z
V1	V	-4.075488	-0.220961	-0.300740
O2	O	-3.975000	0.011894	-0.294240
O3	O	-4.110416	-0.439356	-0.299429
O4	O	-4.010132	-0.217002	-0.431563
O5	O	-4.075978	-0.211999	-0.161191
V6	V	-4.550515	-0.193175	-0.283958
O7	O	-4.355382	-0.281912	-0.337552
O8	O	-4.720819	-0.132224	-0.247146
O9	O	-4.292381	0.025220	-0.285269
O10	O	-4.768401	-0.426030	-0.290459
O11	O	-4.667422	-0.202137	-0.423507
O12	O	-4.392665	-0.197134	-0.153135
C13	C	-3.976237	-0.492613	-0.294877
C14	C	-4.085969	-0.671151	-0.294678
C15	C	-3.848313	-0.208977	-0.463426
C16	C	-3.876712	-0.207186	-0.570379
C17	C	-4.116723	-0.210441	-0.818512
C18	C	-3.928660	-0.203693	-0.766175
C19	C	-3.899757	-0.205637	-0.657224
C20	C	-4.145634	-0.208497	-0.927473
C21	C	-4.089905	0.078469	-0.289818
C22	C	-3.959411	0.257004	-0.290024
C23	C	-4.217829	-0.205164	-0.121268
C24	C	-4.168665	-0.206948	-0.014313
H25	H	-3.767091	-0.667907	-0.286146
H26	H	-3.789360	-0.196453	-0.803191
H27	H	-4.278297	-0.746244	-0.298542
Br28	Br	-4.348897	-0.222523	-0.756819
