data_functionalizedCrystal
_audit_creation_method	'MofGen! by Chris Wilmer'
_symmetry_space_group_name_H-M	'P1'
_symmetry_Int_Tables_number	1
_symmetry_cell_setting	triclinic
loop_
_symmetry_equiv_pos_as_xyz
  x,y,z
_cell_length_a	11.169417
_cell_length_b	19.076808
_cell_length_c	11.169409
_cell_angle_alpha	92.337422
_cell_angle_beta	90.019824
_cell_angle_gamma	92.324435
loop_
_atom_site_label
_atom_site_type_symbol
_atom_site_fract_x
_atom_site_fract_y
_atom_site_fract_z
Zn1	Zn	1.815643	-0.280145	0.659291
Zn2	Zn	1.807414	-0.397873	0.450518
Zn3	Zn	1.614926	-0.280188	0.458623
Zn4	Zn	1.606822	-0.397816	0.651167
O5	O	1.711201	-0.339006	0.554900
O6	O	1.982501	-0.295768	0.631605
O7	O	1.781828	-0.382304	0.283641
O8	O	1.648387	-0.181685	0.492034
O9	O	1.976455	-0.382262	0.478221
O10	O	1.795853	-0.181654	0.639464
O11	O	1.640408	-0.295841	0.289595
O12	O	1.445902	-0.295786	0.484156
O13	O	1.634575	-0.382165	0.820197
O14	O	1.439948	-0.382206	0.625617
O15	O	1.787995	-0.295713	0.826166
O16	O	1.773969	-0.496363	0.470343
O17	O	1.626595	-0.496321	0.617758
C18	C	1.399377	-0.338995	0.554885
C19	C	1.265977	-0.339007	0.554906
C20	C	1.698543	-0.521881	0.542316
C21	C	1.693237	-0.600116	0.536972
C22	C	1.767464	-0.636794	0.611283
C23	C	1.762474	-0.710304	0.606264
C24	C	1.683262	-0.747134	0.526928
C25	C	1.609026	-0.710451	0.452614
C26	C	1.614011	-0.636943	0.457640
C27	C	1.660121	-0.966990	0.503666
C28	C	1.655144	-1.040503	0.498643
C29	C	1.808591	-1.040351	0.652296
C30	C	1.813574	-0.966841	0.657309
C31	C	1.739334	-0.930164	0.583000
N32	N	1.678162	-0.822273	0.521794
N33	N	1.744429	-0.855026	0.588141
C34	C	2.024243	-0.339017	0.554915
C35	C	2.157643	-0.339022	0.554922
C36	C	1.711299	-0.338927	0.867948
C37	C	1.711340	-0.338894	1.001350
C38	C	1.723942	-0.155416	0.567559
C39	C	1.729372	-0.077181	0.572954
C40	C	1.711177	-0.339033	0.243073
C41	C	1.711381	-0.338868	0.109685
H42	H	1.822928	-0.740164	0.666767
O43	O	1.578130	-1.076362	0.421734
C44	C	1.497687	-1.118884	0.487094
H45	H	1.539230	-1.129827	0.577337
H46	H	1.410648	-1.090603	0.502135
C47	C	1.420250	-1.175314	0.305431
C48	C	1.471278	-1.188760	0.416265
H49	H	1.403954	-1.218415	0.261739
H50	H	1.474443	-1.146664	0.261395
H51	H	1.347723	-1.151745	0.317981
H52	H	1.543811	-1.212321	0.403713
H53	H	1.417097	-1.217415	0.460297
O54	O	1.588189	-0.931288	0.431425
C55	C	1.659445	-0.888779	0.356857
H56	H	1.751126	-0.877701	0.400025
H57	H	1.670758	-0.917142	0.265987
C58	C	1.485548	-0.832605	0.286819
C59	C	1.598149	-0.818993	0.339844
H60	H	1.447737	-0.789558	0.276319
H61	H	1.437540	-0.861245	0.337053
H62	H	1.494991	-0.856242	0.211100
H63	H	1.588703	-0.795364	0.415567
H64	H	1.646154	-0.790347	0.289621
O65	O	1.541859	-0.601420	0.385336
C66	C	1.470851	-0.649689	0.314255
H67	H	1.516464	-0.702064	0.306552
H68	H	1.379150	-0.657537	0.357599
C69	C	1.399523	-0.556735	0.197928
C70	C	1.455550	-0.621061	0.188458
H71	H	1.390079	-0.539076	0.120332
H72	H	1.447358	-0.524215	0.245819
H73	H	1.323111	-0.563284	0.234053
H74	H	1.531966	-0.614510	0.152349
H75	H	1.407727	-0.653580	0.140559
H76	H	1.878075	-0.936855	0.721911
H77	H	1.544525	-0.740445	0.388022
H78	H	1.869032	-1.070221	0.712796
H79	H	1.831973	-0.606811	0.675882
