data_functionalizedCrystal
_audit_creation_method	'MofGen! by Chris Wilmer'
_symmetry_space_group_name_H-M	'P1'
_symmetry_Int_Tables_number	1
_symmetry_cell_setting	triclinic
loop_
_symmetry_equiv_pos_as_xyz
  x,y,z
_cell_length_a	33.592126
_cell_length_b	33.591377
_cell_length_c	33.588093
_cell_angle_alpha	60.004089
_cell_angle_beta	60.008299
_cell_angle_gamma	59.994549
loop_
_atom_site_label
_atom_site_type_symbol
_atom_site_fract_x
_atom_site_fract_y
_atom_site_fract_z
O1	O	0.055297	-0.581666	0.486338
O2	O	0.555297	-0.081666	0.986338
O3	O	0.020882	-0.452873	0.391864
O4	O	0.520882	0.047127	0.891864
O5	O	0.102445	-0.534352	0.391775
O6	O	0.602445	-0.034352	0.891775
O7	O	-0.026266	-0.500187	0.486427
O8	O	0.473734	-0.000187	0.986427
O9	O	0.129510	-0.507292	0.418747
O10	O	0.629510	-0.007292	0.918747
O11	O	0.047947	-0.425814	0.418835
O12	O	0.547947	0.074186	0.918835
O13	O	0.082362	-0.554606	0.513309
O14	O	0.582362	-0.054606	1.013309
Cu15	Cu	0.067626	-0.487739	0.468535
Cu16	Cu	0.567626	0.012261	0.968535
Cu17	Cu	0.035618	-0.519740	0.436638
Cu18	Cu	0.535618	-0.019740	0.936638
O19	O	0.000799	-0.473128	0.513398
O20	O	0.500799	0.026872	1.013398
N21	N	0.090139	-0.465235	0.490972
N22	N	0.590139	0.034765	0.990972
N23	N	0.013110	-0.542249	0.414202
N24	N	0.513110	-0.042249	0.914202
C25	C	0.124394	-0.431229	0.734914
C26	C	0.624394	0.068771	1.234914
C27	C	0.334265	-0.431145	0.524799
C28	C	0.834265	0.068855	1.024799
C29	C	0.124204	-0.431200	0.524965
C30	C	0.624204	0.068800	1.024965
C31	C	0.124184	-0.221175	0.524955
C32	C	0.624184	0.278825	1.024955
C33	C	0.158017	-0.322536	0.558710
C34	C	0.658017	0.177464	1.058710
C35	C	0.158027	-0.397406	0.558711
C36	C	0.658027	0.102594	1.058711
C37	C	0.176763	-0.378688	0.577408
C38	C	0.676763	0.121312	1.077408
C39	C	0.258412	-0.364594	0.534386
C40	C	0.758412	0.135406	1.034386
C41	C	0.309454	-0.381596	0.517340
C42	C	0.809454	0.118404	1.017340
C43	C	0.309485	-0.464188	0.548836
C44	C	0.809485	0.035812	1.048836
C45	C	0.258444	-0.447186	0.565883
C46	C	0.758444	0.052814	1.065883
C47	C	0.170304	-0.297002	0.508532
C48	C	0.670304	0.202998	1.008532
C49	C	0.153260	-0.245956	0.491537
C50	C	0.653260	0.254044	0.991537
C51	C	0.111648	-0.245983	0.574901
C52	C	0.611648	0.254017	1.074901
C53	C	0.128691	-0.297029	0.591896
C54	C	0.628691	0.202971	1.091896
C55	C	0.107841	-0.385091	0.571080
C56	C	0.607841	0.114909	1.071080
C57	C	0.090813	-0.402108	0.554078
C58	C	0.590813	0.097892	1.054078
C59	C	0.174153	-0.443755	0.512351
C60	C	0.674153	0.056245	1.012351
C61	C	0.191183	-0.426739	0.529347
C62	C	0.691183	0.073261	1.029347
C63	C	0.107923	-0.385106	0.659111
C64	C	0.607923	0.114894	1.159111
C65	C	0.090955	-0.402138	0.710156
C66	C	0.590955	0.097862	1.210156
C67	C	0.174335	-0.443795	0.710087
C68	C	0.674335	0.056205	1.210087
C69	C	0.191302	-0.426764	0.659041
C70	C	0.691302	0.073236	1.159041
C71	C	0.158095	-0.397418	0.633555
C72	C	0.658095	0.102582	1.133555
C73	C	0.232909	-0.397388	0.558656
C74	C	0.732909	0.102612	1.058656
C75	C	0.105069	-0.449619	0.791057
C76	C	0.605069	0.050381	1.291057
C77	C	0.390406	-0.449193	0.505789
C78	C	0.890406	0.050807	1.005789
C79	C	0.104813	-0.449599	0.506607
C80	C	0.604813	0.050401	1.006607
C81	C	0.105125	-0.165028	0.506915
C82	C	0.605125	0.334972	1.006915
C83	C	-0.020560	-0.576246	0.169890
C84	C	0.479440	-0.076246	0.669890
C85	C	-0.020889	-0.786183	0.379970
C86	C	0.479111	-0.286183	0.879970
C87	C	-0.020859	-0.576235	0.380063
C88	C	0.479141	-0.076235	0.880063
C89	C	-0.230772	-0.576015	0.379658
C90	C	0.269228	-0.076015	0.879658
C91	C	-0.129417	-0.609898	0.346025
C92	C	0.370583	-0.109898	0.846025
C93	C	-0.054587	-0.609979	0.346172
C94	C	0.445413	-0.109979	0.846172
C95	C	-0.073269	-0.628671	0.327396
C96	C	0.426731	-0.128671	0.827396
C97	C	-0.087401	-0.710299	0.370335
C98	C	0.412599	-0.210299	0.870335
C99	C	-0.070424	-0.761345	0.387369
C100	C	0.429576	-0.261345	0.887369
C101	C	0.012165	-0.761428	0.356003
C102	C	0.512165	-0.261428	0.856003
C103	C	-0.004813	-0.710383	0.338967
C104	C	0.495187	-0.210383	0.838967
C105	C	-0.155001	-0.622196	0.396191
C106	C	0.344999	-0.122196	0.896191
C107	C	-0.206043	-0.605128	0.413125
C108	C	0.293957	-0.105128	0.913125
C109	C	-0.205914	-0.563467	0.329724
C110	C	0.294086	-0.063467	0.829724
C111	C	-0.154872	-0.580535	0.312790
C112	C	0.345128	-0.080535	0.812790
C113	C	-0.066886	-0.559797	0.333828
C114	C	0.433114	-0.059797	0.833828
C115	C	-0.049903	-0.542809	0.350903
C116	C	0.450097	-0.042809	0.850903
C117	C	-0.008321	-0.626180	0.392654
C118	C	0.491679	-0.126180	0.892654
C119	C	-0.025304	-0.643170	0.375585
C120	C	0.474696	-0.143170	0.875585
C121	C	-0.066758	-0.559805	0.245702
C122	C	0.433242	-0.059805	0.745702
C123	C	-0.049671	-0.542819	0.194658
C124	C	0.450329	-0.042819	0.694658
C125	C	-0.008026	-0.626194	0.194706
C126	C	0.491974	-0.126194	0.694706
C127	C	-0.025111	-0.643179	0.245752
C128	C	0.474889	-0.143179	0.745752
C129	C	-0.054479	-0.609983	0.271248
C130	C	0.445521	-0.109983	0.771248
C131	C	-0.054597	-0.684821	0.346135
C132	C	0.445403	-0.184821	0.846135
C133	C	-0.002109	-0.556901	0.113746
C134	C	0.497891	-0.056901	0.613746
C135	C	-0.002869	-0.842328	0.398966
C136	C	0.497131	-0.342328	0.898966
C137	C	-0.002496	-0.556887	0.398501
C138	C	0.497504	-0.056887	0.898501
C139	C	-0.286914	-0.556929	0.397631
C140	C	0.213086	-0.056929	0.897631
N141	N	0.436349	-0.465146	0.490703
N142	N	0.936349	0.034854	0.990703
O143	O	0.592194	-0.469605	0.374236
O144	O	1.092194	0.030395	0.874236
O145	O	0.592389	-0.564393	0.502890
O146	O	1.092389	-0.064393	1.002890
O147	O	0.592305	-0.564176	0.421300
O148	O	1.092305	-0.064176	0.921300
O149	O	0.592277	-0.469822	0.455826
O150	O	1.092277	0.030178	0.955826
O151	O	0.511216	-0.537214	0.448415
O152	O	1.011216	-0.037214	0.948415
O153	O	0.511300	-0.537431	0.530004
O154	O	1.011300	-0.037431	1.030004
O155	O	0.511104	-0.442643	0.401350
O156	O	1.011104	0.057357	0.901350
Cu157	Cu	0.503798	-0.487575	0.468153
Cu158	Cu	1.003798	0.012425	0.968153
Cu159	Cu	0.599695	-0.519461	0.436087
Cu160	Cu	1.099695	-0.019461	0.936087
O161	O	0.511188	-0.442860	0.482940
O162	O	1.011188	0.057140	0.982940
N163	N	0.667145	-0.541890	0.413532
N164	N	1.167145	-0.041890	0.913532
N165	N	0.090108	-0.119085	0.490958
N166	N	0.590108	0.380915	0.990958
O167	O	-0.026275	0.036848	0.486394
O168	O	0.473725	0.536848	0.986394
O169	O	0.102381	0.036888	0.391584
O170	O	0.602381	0.536888	0.891584
O171	O	0.020751	0.036852	0.391854
O172	O	0.520751	0.536852	0.891854
O173	O	0.055356	0.036884	0.486124
O174	O	0.555356	0.536884	0.986124
O175	O	0.047821	-0.044242	0.418876
O176	O	0.547821	0.455758	0.918876
O177	O	0.129452	-0.044207	0.418606
O178	O	0.629452	0.455793	0.918606
O179	O	0.000796	-0.044246	0.513417
O180	O	0.500796	0.455754	1.013417
Cu181	Cu	0.067596	-0.051631	0.468479
Cu182	Cu	0.567596	0.448369	0.968479
Cu183	Cu	0.035582	0.044273	0.436522
Cu184	Cu	0.535582	0.544273	0.936522
O185	O	0.082426	-0.044211	0.513146
O186	O	0.582426	0.455789	1.013146
N187	N	0.013063	0.111726	0.414043
N188	N	0.513063	0.611726	0.914043
N189	N	0.090453	-0.465282	0.837001
N190	N	0.590453	0.034718	1.337001
O191	O	0.085913	-0.581648	0.992925
O192	O	0.585913	-0.081648	1.492925
O193	O	-0.008857	-0.452947	0.992970
O194	O	0.491143	0.047053	1.492970
O195	O	-0.008635	-0.534562	0.992946
O196	O	0.491365	-0.034562	1.492946
O197	O	0.085691	-0.500033	0.992949
O198	O	0.585691	-0.000033	1.492949
O199	O	0.018365	-0.507512	0.911855
O200	O	0.518365	-0.007512	1.411855
O201	O	0.018143	-0.425898	0.911878
O202	O	0.518143	0.074102	1.411878
O203	O	0.112912	-0.554598	0.911834
O204	O	0.612912	-0.054598	1.411834
Cu205	Cu	0.067993	-0.487778	0.904452
Cu206	Cu	0.567993	0.012222	1.404452
Cu207	Cu	0.036063	-0.519767	1.000352
Cu208	Cu	0.536063	-0.019767	1.500352
O209	O	0.112691	-0.472984	0.911857
O210	O	0.612691	0.027016	1.411857
N211	N	0.013602	-0.542269	1.067803
N212	N	0.513602	-0.042269	1.567803
C213	C	0.031188	-0.423114	0.392334
C214	C	0.531188	0.076886	0.892334
C215	C	0.132194	-0.524016	0.392223
C216	C	0.632194	-0.024016	0.892223
C217	C	0.072056	-0.584366	0.512840
C218	C	0.572056	-0.084366	1.012840
C219	C	-0.028950	-0.483464	0.512950
C220	C	0.471050	0.016536	1.012950
C221	C	0.551868	-0.563965	0.532655
C222	C	1.051868	-0.063965	1.032655
C223	C	0.551766	-0.563697	0.431617
C224	C	1.051766	-0.063697	0.931617
C225	C	0.551623	-0.443070	0.371586
C226	C	1.051623	0.056930	0.871586
C227	C	0.551728	-0.443339	0.472623
C228	C	1.051728	0.056661	0.972623
C229	C	0.132090	-0.003555	0.392006
C230	C	0.632090	0.496445	0.892006
C231	C	0.031035	-0.003698	0.392374
C232	C	0.531035	0.496302	0.892374
C233	C	-0.028947	-0.003703	0.512961
C234	C	0.471053	0.496297	1.012961
C235	C	0.072143	-0.003661	0.512626
C236	C	0.572143	0.496339	1.012626
C237	C	-0.008408	-0.423209	0.952430
C238	C	0.491592	0.076791	1.452430
C239	C	-0.008128	-0.524272	0.952385
C240	C	0.491872	-0.024272	1.452385
C241	C	0.112464	-0.584336	0.952374
C242	C	0.612464	-0.084336	1.452374
C243	C	0.112190	-0.483267	0.952401
C244	C	0.612190	0.016733	1.452401
H245	H	0.050098	-0.392105	0.730957
H246	H	0.550098	0.107895	1.230957
H247	H	0.023834	-0.386116	0.362662
H248	H	0.523834	0.113884	0.862662
H249	H	0.168963	-0.003318	0.362168
H250	H	0.668963	0.496682	0.862168
H251	H	-0.065895	-0.003715	0.542725
H252	H	0.434105	0.496285	1.042725
H253	H	0.023621	-0.003702	0.362756
H254	H	0.523621	0.496298	0.862756
H255	H	0.079554	-0.003651	0.542242
H256	H	0.579554	0.496349	1.042242
O257	O	-0.043859	-0.379094	0.952467
O258	O	0.456141	0.120906	1.452467
C259	C	-0.026304	-0.348746	0.952461
C260	C	0.473696	0.151254	1.452461
H261	H	0.005004	-0.372191	0.967804
H262	H	0.505004	0.127809	1.467804
H263	H	-0.056942	-0.325390	0.976014
H264	H	0.443058	0.174610	1.476014
H265	H	-0.012781	-0.324117	0.913560
H266	H	0.487219	0.175883	1.413560
O267	O	0.551914	-0.599515	0.576714
O268	O	1.051914	-0.099515	1.076714
C269	C	0.551956	-0.641499	0.576693
C270	C	1.051956	-0.141499	1.076693
H271	H	0.536565	-0.630698	0.547844
H272	H	1.036565	-0.130698	1.047844
H273	H	0.528462	-0.659772	0.614082
H274	H	1.028462	-0.159772	1.114082
H275	H	0.590873	-0.667976	0.568138
H276	H	1.090873	-0.167976	1.068138
H277	H	0.169160	-0.531297	0.362501
H278	H	0.669160	-0.031297	0.862501
H279	H	-0.037749	-0.531650	0.952352
H280	H	0.462251	-0.031650	1.452352
O281	O	-0.061863	-0.494047	0.338840
O282	O	0.438137	0.005953	0.838840
C283	C	-0.091353	-0.468393	0.309221
C284	C	0.408647	0.031607	0.809221
H285	H	-0.084827	-0.492744	0.290662
H286	H	0.415173	0.007256	0.790662
H287	H	-0.081726	-0.434363	0.280343
H288	H	0.418274	0.065637	0.780343
H289	H	-0.131350	-0.457328	0.332704
H290	H	0.368650	0.042672	0.832704
H291	H	0.551779	-0.593338	0.424228
H292	H	1.051779	-0.093338	0.924228
H293	H	0.142219	-0.621297	0.952354
H294	H	0.642219	-0.121297	1.452354
O295	O	0.080745	-0.628505	0.548258
O296	O	0.580745	-0.128505	1.048258
C297	C	0.047301	-0.650174	0.561392
C298	C	0.547301	-0.150174	1.061392
H299	H	0.013528	-0.620648	0.551634
H300	H	0.513528	-0.120648	1.051634
H301	H	0.036372	-0.670673	0.602304
H302	H	0.536372	-0.170673	1.102304
H303	H	0.064961	-0.676723	0.540859
H304	H	0.564961	-0.176723	1.040859
O305	O	-0.073070	-0.474695	0.548364
O306	O	0.426930	0.025305	1.048364
C307	C	-0.103382	-0.426792	0.530743
C308	C	0.396618	0.073208	1.030743
H309	H	-0.079910	-0.403631	0.499423
H310	H	0.420090	0.096369	0.999423
H311	H	-0.126733	-0.410469	0.561344
H312	H	0.373267	0.089531	1.061344
H313	H	-0.128014	-0.427538	0.517216
H314	H	0.371986	0.072462	1.017216
O315	O	0.334206	-0.349709	0.493690
O316	O	0.834206	0.150291	0.993690
C317	C	0.321682	-0.315050	0.451631
C318	C	0.821682	0.184950	0.951631
H319	H	0.307638	-0.330783	0.439916
H320	H	0.807638	0.169217	0.939916
H321	H	0.355231	-0.305695	0.420974
H322	H	0.855231	0.194305	0.920974
H323	H	0.292051	-0.280647	0.459991
H324	H	0.792051	0.219353	0.959991
H325	H	0.141823	-0.475877	0.952395
H326	H	0.641823	0.024123	1.452395
H327	H	0.080878	-0.361206	0.638363
H328	H	0.580878	0.138794	1.138363
H329	H	0.551722	-0.413701	0.480010
H330	H	1.051722	0.086299	0.980010
O331	O	0.206660	-0.472305	0.734765
O332	O	0.706660	0.027695	1.234765
C333	C	0.254581	-0.479505	0.701260
C334	C	0.754581	0.020495	1.201260
H335	H	0.254454	-0.473798	0.664886
H336	H	0.754454	0.026202	1.164886
H337	H	0.278843	-0.518214	0.715983
H338	H	0.778843	-0.018214	1.215983
H339	H	0.269195	-0.452326	0.695818
H340	H	0.769195	0.047674	1.195818
O341	O	0.240031	-0.438641	0.634163
O342	O	0.740031	0.061359	1.134163
C343	C	0.252340	-0.395745	0.604644
C344	C	0.752340	0.104255	1.104644
H345	H	0.218686	-0.363676	0.597025
H346	H	0.718686	0.136324	1.097025
H347	H	0.281918	-0.400299	0.568736
H348	H	0.781918	0.099701	1.068736
H349	H	0.266372	-0.388573	0.624298
H350	H	0.766372	0.111427	1.124298
H351	H	0.080840	-0.361208	0.594989
H352	H	0.580840	0.138792	1.094989
H353	H	0.551560	-0.413310	0.334638
H354	H	1.051560	0.086690	0.834638
H355	H	0.201155	-0.467643	0.488446
H356	H	0.701155	0.032357	0.988446
O357	O	0.042047	-0.390123	0.566157
O358	O	0.542047	0.109877	1.066157
C359	C	0.016432	-0.360578	0.595713
C360	C	0.516432	0.139422	1.095713
H361	H	0.040801	-0.367087	0.614243
H362	H	0.540801	0.132913	1.114243
H363	H	-0.017608	-0.370166	0.624614
H364	H	0.482392	0.129834	1.124614
H365	H	0.005390	-0.320592	0.572184
H366	H	0.505390	0.179408	1.072184
H367	H	0.237680	-0.473893	0.585645
H368	H	0.737680	0.026107	1.085645
O369	O	0.239950	-0.438749	0.517294
O370	O	0.739950	0.061251	1.017294
C371	C	0.265564	-0.468270	0.487713
C372	C	0.765564	0.031730	0.987713
H373	H	0.241232	-0.486850	0.494253
H374	H	0.741232	0.013150	0.994253
H375	H	0.299661	-0.497132	0.497232
H376	H	0.799661	0.002868	0.997232
H377	H	0.276513	-0.444700	0.447735
H378	H	0.776513	0.055300	0.947735
H379	H	0.237625	-0.324046	0.528499
H380	H	0.737625	0.175954	1.028499
O381	O	0.334218	-0.512580	0.555908
O382	O	0.834218	-0.012580	1.055908
C383	C	0.300763	-0.537879	0.580973
C384	C	0.800763	-0.037879	1.080973
H385	H	0.264386	-0.515621	0.601909
H386	H	0.764386	-0.015621	1.101909
H387	H	0.315542	-0.574690	0.607603
H388	H	0.815542	-0.074690	1.107603
H389	H	0.295308	-0.543784	0.553676
H390	H	0.795308	-0.043784	1.053676
H391	H	0.194180	-0.317769	0.481510
H392	H	0.694180	0.182231	0.981510
H393	H	0.163263	-0.225165	0.450676
H394	H	0.663263	0.274835	0.950676
H395	H	0.087777	-0.225214	0.601924
H396	H	0.587777	0.274786	1.101924
H397	H	0.118680	-0.317820	0.632757
H398	H	0.618680	0.182180	1.132757
H399	H	-0.059677	-0.501957	0.173865
H400	H	0.440323	-0.001957	0.673865
O401	O	0.020506	-0.658507	0.170018
O402	O	0.520506	-0.158507	0.670018
C403	C	0.027665	-0.706438	0.203514
C404	C	0.527665	-0.206438	0.703514
H405	H	0.021913	-0.706336	0.239916
H406	H	0.521913	-0.206336	0.739916
H407	H	0.066376	-0.730710	0.188823
H408	H	0.566376	-0.230710	0.688823
H409	H	0.000496	-0.721024	0.208889
H410	H	0.500496	-0.221024	0.708889
H411	H	-0.226875	-0.615140	0.453976
H412	H	0.273125	-0.115140	0.953976
O413	O	-0.095254	-0.527490	0.270394
O414	O	0.404746	-0.027490	0.770394
C415	C	-0.102437	-0.479558	0.236901
C416	C	0.397563	0.020442	0.736901
H417	H	-0.071630	-0.479686	0.200544
H418	H	0.428370	0.020314	0.700544
H419	H	-0.102710	-0.455334	0.251666
H420	H	0.397290	0.044666	0.751666
H421	H	-0.138777	-0.464894	0.231411
H422	H	0.361223	0.035106	0.731411
H423	H	-0.015108	-0.684041	0.266548
H424	H	0.484892	-0.184041	0.766548
H425	H	0.015526	-0.653210	0.416597
H426	H	0.515526	-0.153210	0.916597
O427	O	-0.013294	-0.691932	0.387599
O428	O	0.486706	-0.191932	0.887599
C429	C	0.016184	-0.717586	0.417230
C430	C	0.516184	-0.217586	0.917230
H431	H	0.034743	-0.693270	0.410762
H432	H	0.534743	-0.193270	0.910762
H433	H	0.045060	-0.751670	0.407695
H434	H	0.545060	-0.251670	0.907695
H435	H	-0.007414	-0.728564	0.457191
H436	H	0.492586	-0.228564	0.957191
O437	O	0.027118	-0.685707	0.315488
O438	O	0.527118	-0.185707	0.815488
C439	C	0.074699	-0.719217	0.312808
C440	C	0.574699	-0.219217	0.812808
H441	H	0.072713	-0.755589	0.342958
H442	H	0.572713	-0.255589	0.842958
H443	H	0.095635	-0.704493	0.317478
H444	H	0.595635	-0.204493	0.817478
H445	H	0.094224	-0.724667	0.275822
H446	H	0.594224	-0.224667	0.775822
O447	O	-0.095394	-0.527600	0.305315
O448	O	0.404606	-0.027600	0.805315
C449	C	-0.140791	-0.534891	0.328452
C450	C	0.359209	-0.034891	0.828452
H451	H	-0.136722	-0.573619	0.355433
H452	H	0.363278	-0.073619	0.855433
H453	H	-0.153821	-0.529198	0.299911
H454	H	0.346179	-0.029198	0.799911
H455	H	-0.168539	-0.507751	0.348721
H456	H	0.331461	-0.007751	0.848721
H457	H	0.052703	-0.782242	0.350169
H458	H	0.552703	-0.282242	0.850169
H459	H	-0.097137	-0.782089	0.407066
H460	H	0.402863	-0.282089	0.907066
H461	H	-0.127938	-0.689491	0.376175
H462	H	0.372062	-0.189491	0.876175
H463	H	-0.134277	-0.646110	0.423254
H464	H	0.365723	-0.146110	0.923254
H465	H	-0.134040	-0.570516	0.271939
H466	H	0.365960	-0.070516	0.771939
O467	O	-0.230568	-0.534937	0.297376
O468	O	0.269432	-0.034937	0.797376
C469	C	-0.197041	-0.527762	0.249464
C470	C	0.302959	-0.027762	0.749464
H471	H	-0.160672	-0.533501	0.249618
H472	H	0.339328	-0.033501	0.749618
H473	H	-0.211739	-0.489048	0.225197
H474	H	0.288261	0.010952	0.725197
H475	H	-0.191602	-0.554932	0.234835
H476	H	0.308398	-0.054932	0.734835
