data_functionalizedCrystal
_audit_creation_method	'MofGen! by Chris Wilmer'
_symmetry_space_group_name_H-M	'P1'
_symmetry_Int_Tables_number	1
_symmetry_cell_setting	triclinic
loop_
_symmetry_equiv_pos_as_xyz
  x,y,z
_cell_length_a	14.446369
_cell_length_b	14.446369
_cell_length_c	18.878441
_cell_angle_alpha	89.999318
_cell_angle_beta	60.001765
_cell_angle_gamma	59.995508
loop_
_atom_site_label
_atom_site_type_symbol
_atom_site_fract_x
_atom_site_fract_y
_atom_site_fract_z
Zr1	Zr	1.013250	-0.121517	0.682398
O2	O	1.206375	-0.269335	0.569295
O3	O	0.820130	-0.076196	0.717069
O4	O	1.013256	-0.269324	0.717071
O5	O	1.013242	0.076129	0.569292
O6	O	1.013257	-0.269323	0.833641
O7	O	1.013248	-0.076207	0.569293
O8	O	0.667789	0.076148	0.833637
O9	O	1.358710	-0.269342	0.569296
O10	O	0.899562	-0.056874	0.818852
O11	O	0.899557	0.056812	0.731857
O12	O	1.126939	-0.170572	0.731859
O13	O	1.126934	-0.056886	0.644864
Zr14	Zr	1.013242	0.121444	0.868312
Zr15	Zr	1.013252	-0.121514	0.868313
Zr16	Zr	1.013241	0.121442	0.682397
Zr17	Zr	1.256208	-0.121528	0.682399
Zr18	Zr	0.770284	0.121455	0.868310
O19	O	1.206363	0.076124	0.833641
O20	O	1.206376	-0.269332	0.833642
O21	O	1.206361	0.076120	0.569293
O22	O	0.820118	0.269263	0.981415
O23	O	0.820131	-0.076193	0.981416
O24	O	0.820117	0.269259	0.717068
O25	O	1.013250	-0.076201	0.981418
O26	O	1.013236	0.269252	0.833639
O27	O	1.013236	0.269250	0.717069
O28	O	1.013245	0.076134	0.981417
O29	O	1.358711	-0.269340	0.717073
O30	O	0.667781	0.269268	0.833636
O31	O	0.667782	0.269270	0.981414
O32	O	0.667790	0.076150	0.981415
O33	O	1.358703	-0.076223	0.569295
O34	O	1.358704	-0.076221	0.717073
O35	O	0.899554	0.170499	0.818851
O36	O	0.899558	0.056814	0.905846
O37	O	1.126935	-0.056884	0.818853
O38	O	1.126930	0.056801	0.731858
C39	C	0.709343	-0.000022	0.775353
C40	C	0.606201	-0.000018	0.775352
C41	C	1.013258	-0.303940	0.775356
C42	C	1.013262	-0.407082	0.775356
C43	C	1.013245	-0.000039	0.542803
C44	C	1.013244	-0.000040	0.463878
C45	C	0.459188	0.072012	0.720747
C46	C	0.566808	0.071721	0.720450
C47	C	0.655202	-0.123559	0.735327
C48	C	0.547969	-0.123185	0.734917
C49	C	0.372742	0.050431	0.870020
C50	C	0.478892	0.052952	0.869881
C51	C	1.317150	-0.000050	0.775357
C52	C	1.420292	-0.000055	0.775358
C53	C	1.156683	-0.518085	0.720482
C54	C	1.156734	-0.625391	0.720187
C55	C	0.941590	-0.518204	0.735621
C56	C	0.942543	-0.411368	0.735208
C57	C	0.940439	-0.410214	0.869994
C58	C	0.943104	-0.518867	0.869849
C59	C	1.013235	0.303867	0.775354
C60	C	1.013231	0.407009	0.775353
C61	C	1.013251	-0.083966	0.426798
C62	C	1.013244	-0.083962	0.352641
C63	C	1.013240	-0.000035	0.315562
C64	C	1.013229	0.083899	0.352648
C65	C	1.013227	0.083898	0.426807
C66	C	1.013237	0.083894	0.198077
C67	C	1.013241	0.083894	0.123912
C68	C	1.013254	-0.083966	0.123911
C69	C	1.013252	-0.083967	0.198070
C70	C	1.013244	-0.000034	0.235150
C71	C	1.013248	-0.000033	1.007906
C72	C	1.013248	-0.000032	1.086832
C73	C	0.709344	-0.000019	1.007904
C74	C	0.606203	-0.000013	1.086829
C75	C	0.709331	0.303881	0.775352
C76	C	0.606185	0.407028	0.775350
C77	C	0.709333	0.303884	1.007903
C78	C	0.606187	0.407032	1.086828
C79	C	1.317160	-0.303957	0.542807
C80	C	1.420305	-0.407105	0.463882
C81	C	1.317148	-0.000053	0.542806
C82	C	1.420290	-0.000059	0.463880
C83	C	1.317161	-0.303954	0.775358
C84	C	1.420307	-0.407101	0.775359
C85	C	0.557768	-0.059365	1.078483
C86	C	0.460869	-0.059382	1.152635
C87	C	0.412400	-0.000041	1.235131
C88	C	0.460844	0.059312	1.243476
C89	C	0.557748	0.059322	1.169325
C90	C	0.557752	0.396129	1.169310
C91	C	0.460849	0.493038	1.243475
C92	C	0.412377	0.600849	1.235156
C93	C	0.460822	0.611750	1.152665
C94	C	0.557730	0.514842	1.078502
C95	C	1.468753	-0.396201	0.381400
C96	C	1.565686	-0.493110	0.307235
C97	C	1.614162	-0.600922	0.315553
C98	C	1.565711	-0.611823	0.398044
C99	C	1.468787	-0.514915	0.472208
C100	C	1.468734	0.059282	0.472226
C101	C	1.565660	0.059273	0.398075
C102	C	1.614133	-0.000072	0.315578
C103	C	1.565684	-0.059421	0.307234
C104	C	1.468767	-0.059417	0.381385
C105	C	0.459864	0.482020	0.720217
C106	C	0.566794	0.374681	0.720451
C107	C	0.479326	0.481592	0.869878
C108	C	0.371941	0.588461	0.869580
C109	C	0.546913	0.590037	0.736736
C110	C	0.655393	0.481356	0.734818
H111	H	0.530095	0.162692	0.747298
Cl112	Cl	0.517355	0.478407	0.612471
H113	H	1.013217	0.152239	0.322457
Cl114	Cl	0.399961	0.479308	1.347167
H115	H	1.013248	-0.152300	0.322452
H116	H	0.439288	0.143965	0.899783
H117	H	0.597203	0.308352	1.176100
H118	H	0.586484	0.594151	0.668180
H119	H	0.421438	-0.107714	1.145824
H120	H	0.333494	-0.000057	1.295502
H121	H	1.429275	0.107615	0.539393
Cl122	Cl	1.407830	-0.260679	0.370919
H123	H	1.013263	-0.152313	0.456980
H124	H	1.605194	-0.699614	0.404807
H125	H	1.605166	-0.107737	0.240055
Cl126	Cl	0.699723	-0.210068	0.793754
Cl127	Cl	1.407868	-0.134017	0.370877
H128	H	0.333469	0.679749	1.295552
Cl129	Cl	0.399870	0.747294	1.142222
Cl130	Cl	1.626571	-0.479380	0.203543
Cl131	Cl	1.013269	-0.189481	0.244681
H132	H	0.346769	-0.001810	0.910900
Cl133	Cl	0.795083	0.401974	0.627289
Cl134	Cl	1.013222	0.189416	0.244691
H135	H	1.693084	-0.679821	0.255158
Cl136	Cl	1.626541	0.133894	0.408585
Cl137	Cl	1.407884	-0.528642	0.575897
H138	H	0.597171	0.107660	1.176133
H139	H	0.597231	-0.107701	1.011317
Cl140	Cl	0.321430	0.480424	0.761188
H141	H	0.421366	0.107626	1.310654
H142	H	1.013219	0.152241	0.456998
H143	H	0.597154	0.523736	1.011344
H144	H	0.529331	0.320895	0.747243
Cl145	Cl	0.705004	0.520755	0.790377
Cl146	Cl	0.512087	-0.019660	0.937998
Cl147	Cl	1.735971	-0.000062	0.222368
Cl148	Cl	0.704749	0.290876	0.612983
H149	H	0.281188	0.588191	0.900500
H150	H	0.341982	0.667046	0.912899
H151	H	0.986663	-0.406263	0.903218
H152	H	1.013260	-0.152307	0.093716
Cl153	Cl	0.513665	0.523638	0.936067
H154	H	1.013236	0.152237	0.093726
H155	H	0.440771	0.429985	0.901015
Cl156	Cl	0.508632	0.710811	0.798440
H157	H	0.370317	0.163210	0.747453
Cl158	Cl	1.243496	-0.709454	0.761279
H159	H	0.494952	0.037305	0.651333
H160	H	0.588668	-0.163601	0.665258
Cl161	Cl	0.514038	-0.210576	0.792369
Cl162	Cl	0.703925	0.017670	0.612645
H163	H	0.278992	0.140002	0.903461
Cl164	Cl	0.797717	-0.186388	0.628806
H165	H	1.213293	-0.520600	0.746967
H166	H	1.212408	-0.518988	0.651085
H167	H	1.212661	-0.679035	0.650375
H168	H	0.992853	-0.411499	0.665578
H169	H	0.837299	-0.332750	0.772610
H170	H	0.836062	-0.490927	0.773688
H171	H	0.990735	-0.569661	0.666659
H172	H	0.995344	-0.570458	0.899534
H173	H	0.838443	-0.493336	0.914154
H174	H	0.834784	-0.331977	0.911065
