data_functionalizedCrystal
_audit_creation_method	'MofGen! by Chris Wilmer'
_symmetry_space_group_name_H-M	'P1'
_symmetry_Int_Tables_number	1
_symmetry_cell_setting	triclinic
loop_
_symmetry_equiv_pos_as_xyz
  x,y,z
_cell_length_a	16.120566
_cell_length_b	12.759399
_cell_length_c	16.120256
_cell_angle_alpha	87.123291
_cell_angle_beta	89.874858
_cell_angle_gamma	87.111367
loop_
_atom_site_label
_atom_site_type_symbol
_atom_site_fract_x
_atom_site_fract_y
_atom_site_fract_z
Zn1	Zn	-1.247498	0.532288	-0.534652
Zn2	Zn	-0.997498	0.782288	-0.284652
Zn3	Zn	-0.747498	1.032288	-0.034652
Zn4	Zn	-0.497498	1.282288	0.215348
Zn5	Zn	-1.254467	0.699536	-0.395599
Zn6	Zn	-1.004467	0.949536	-0.145599
Zn7	Zn	-0.754467	1.199536	0.104401
Zn8	Zn	-0.504467	1.449536	0.354401
Zn9	Zn	-1.115486	0.514530	-0.388561
Zn10	Zn	-0.865486	0.764530	-0.138561
Zn11	Zn	-0.615486	1.014530	0.111439
Zn12	Zn	-0.365486	1.264530	0.361439
Zn13	Zn	-1.108424	0.698575	-0.527561
Zn14	Zn	-0.858424	0.948575	-0.277561
Zn15	Zn	-0.608424	1.198575	-0.027561
Zn16	Zn	-0.358424	1.448575	0.222439
O17	O	-1.181469	0.611232	-0.461593
O18	O	-0.931469	0.861232	-0.211593
O19	O	-0.681469	1.111232	0.038407
O20	O	-0.431469	1.361232	0.288407
O21	O	-1.364789	0.562308	-0.522119
O22	O	-1.114789	0.812308	-0.272119
O23	O	-0.864789	1.062308	-0.022119
O24	O	-0.614789	1.312308	0.227881
O25	O	-1.241904	0.667965	-0.278300
O26	O	-0.991904	0.917965	-0.028300
O27	O	-0.741904	1.167965	0.221700
O28	O	-0.491904	1.417965	0.471700
O29	O	-1.133036	0.369869	-0.407963
O30	O	-0.883036	0.619869	-0.157963
O31	O	-0.633036	0.869869	0.092037
O32	O	-0.383036	1.119869	0.342037
O33	O	-1.369910	0.685184	-0.419958
O34	O	-1.119910	0.935184	-0.169958
O35	O	-0.869910	1.185184	0.080042
O36	O	-0.619910	1.435184	0.330042
O37	O	-1.230025	0.382915	-0.515295
O38	O	-0.980025	0.632915	-0.265295
O39	O	-0.730025	0.882915	-0.015295
O40	O	-0.480025	1.132915	0.234705
O41	O	-1.139795	0.532042	-0.273129
O42	O	-0.889795	0.782042	-0.023129
O43	O	-0.639795	1.032042	0.226871
O44	O	-0.389795	1.282042	0.476871
O45	O	-0.998183	0.531110	-0.401087
O46	O	-0.748183	0.781110	-0.151087
O47	O	-0.498183	1.031110	0.098913
O48	O	-0.248183	1.281110	0.348913
O49	O	-1.121000	0.683546	-0.644868
O50	O	-0.871000	0.933546	-0.394868
O51	O	-0.621000	1.183546	-0.144868
O52	O	-0.371000	1.433546	0.105132
O53	O	-0.992994	0.666327	-0.503210
O54	O	-0.742994	0.916327	-0.253210
O55	O	-0.492994	1.166327	-0.003210
O56	O	-0.242994	1.416327	0.246790
O57	O	-1.223177	0.561376	-0.650077
O58	O	-0.973177	0.811376	-0.400077
O59	O	-0.723177	1.061376	-0.150077
O60	O	-0.473177	1.311376	0.099923
O61	O	-1.235056	0.846426	-0.413082
O62	O	-0.985056	1.096426	-0.163082
O63	O	-0.735056	1.346426	0.086918
O64	O	-0.485056	1.596426	0.336918
O65	O	-1.127758	0.845720	-0.510034
O66	O	-0.877758	1.095720	-0.260034
O67	O	-0.627758	1.345720	-0.010034
O68	O	-0.377758	1.595720	0.239966
C69	C	-0.965416	0.596688	-0.450616
C70	C	-0.715416	0.846688	-0.200616
C71	C	-0.465416	1.096688	0.049384
C72	C	-0.215416	1.346688	0.299384
C73	C	-0.872986	0.590492	-0.445939
C74	C	-0.622986	0.840492	-0.195939
C75	C	-0.372986	1.090492	0.054061
C76	C	-0.122986	1.340492	0.304061
C77	C	-1.181419	0.884195	-0.461572
C78	C	-0.931419	1.134195	-0.211572
C79	C	-0.681419	1.384195	0.038428
C80	C	-0.431419	1.634195	0.288428
C81	C	-1.181472	1.000977	-0.461594
C82	C	-0.931472	1.250977	-0.211594
C83	C	-0.681472	1.500977	0.038406
C84	C	-0.431472	1.750977	0.288406
C85	C	-1.170523	0.624335	-0.678488
C86	C	-0.920523	0.874335	-0.428488
C87	C	-0.670523	1.124335	-0.178488
C88	C	-0.420523	1.374335	0.071512
C89	C	-1.165859	0.629918	-0.770916
C90	C	-0.915859	0.879918	-0.520916
C91	C	-0.665859	1.129918	-0.270916
C92	C	-0.415859	1.379918	-0.020916
C93	C	-0.703756	0.579157	-0.437408
C94	C	-0.453756	0.829157	-0.187408
C95	C	-0.203756	1.079157	0.062592
C96	C	0.046244	1.329157	0.312592
C97	C	-0.660022	0.643399	-0.485785
C98	C	-0.410022	0.893399	-0.235785
C99	C	-0.160022	1.143399	0.014215
C100	C	0.089978	1.393399	0.264215
C101	C	-0.565856	0.637092	-0.481038
C102	C	-0.315856	0.887092	-0.231038
C103	C	-0.065856	1.137092	0.018962
C104	C	0.184144	1.387092	0.268962
C105	C	-0.797930	0.585463	-0.442154
C106	C	-0.547930	0.835463	-0.192154
C107	C	-0.297930	1.085463	0.057846
C108	C	-0.047930	1.335463	0.307846
C109	C	-0.398366	0.625837	-0.472601
C110	C	-0.148366	0.875837	-0.222601
C111	C	0.101634	1.125837	0.027399
C112	C	0.351634	1.375837	0.277399
C113	C	-0.490797	0.632066	-0.477257
C114	C	-0.240797	0.882066	-0.227257
C115	C	0.009203	1.132066	0.022743
C116	C	0.259203	1.382066	0.272743
C117	C	-1.181541	0.337206	-0.461634
C118	C	-0.931541	0.587206	-0.211634
C119	C	-0.681541	0.837206	0.038366
C120	C	-0.431541	1.087206	0.288366
C121	C	-1.181571	0.220433	-0.461652
C122	C	-0.931571	0.470433	-0.211652
C123	C	-0.681571	0.720433	0.038348
C124	C	-0.431571	0.970433	0.288348
C125	C	-1.237399	1.056179	-0.411175
C126	C	-0.987399	1.306179	-0.161175
C127	C	-0.737399	1.556179	0.088825
C128	C	-0.487399	1.806179	0.338825
C129	C	-1.237451	1.165908	-0.411206
C130	C	-0.987451	1.415908	-0.161206
C131	C	-0.737451	1.665908	0.088794
C132	C	-0.487451	1.915908	0.338794
C133	C	-1.125641	1.165223	-0.512077
C134	C	-0.875641	1.415223	-0.262077
C135	C	-0.625641	1.665223	-0.012077
C136	C	-0.375641	1.915223	0.237923
C137	C	-1.125594	1.055496	-0.512050
C138	C	-0.875594	1.305496	-0.262050
C139	C	-0.625594	1.555496	-0.012050
C140	C	-0.375594	1.805496	0.237950
C141	C	-1.205792	0.582088	-0.983901
C142	C	-0.955792	0.832088	-0.733901
C143	C	-0.705792	1.082088	-0.483901
C144	C	-0.455792	1.332088	-0.233901
C145	C	-1.157315	0.640067	-0.940136
C146	C	-0.907315	0.890067	-0.690136
C147	C	-0.657315	1.140067	-0.440136
C148	C	-0.407315	1.390067	-0.190136
C149	C	-1.162070	0.634419	-0.845973
C150	C	-0.912070	0.884419	-0.595973
C151	C	-0.662070	1.134419	-0.345973
C152	C	-0.412070	1.384419	-0.095973
C153	C	-1.201038	0.587735	-1.078072
C154	C	-0.951038	0.837735	-0.828072
C155	C	-0.701038	1.087735	-0.578072
C156	C	-0.451038	1.337735	-0.328072
C157	C	-1.192420	0.598108	-0.245545
C158	C	-0.942420	0.848108	0.004455
C159	C	-0.692420	1.098108	0.254455
C160	C	-0.442420	1.348108	0.504455
C161	C	-1.197245	0.592240	-0.153126
C162	C	-0.947245	0.842240	0.096874
C163	C	-0.697245	1.092240	0.346874
C164	C	-0.447245	1.342240	0.596874
H165	H	-0.670479	0.519426	-0.392430
H166	H	-0.420479	0.769426	-0.142430
H167	H	-0.170479	1.019426	0.107570
H168	H	0.079521	1.269426	0.357570
H169	H	-1.282900	1.011792	-0.370092
H170	H	-1.032900	1.261792	-0.120092
H171	H	-0.782900	1.511792	0.129908
H172	H	-0.532900	1.761792	0.379908
N173	N	-0.704104	0.722535	-0.545359
N174	N	-0.454104	0.972535	-0.295359
N175	N	-0.204104	1.222535	-0.045359
N176	N	0.045896	1.472535	0.204641
H177	H	-0.689680	0.795796	-0.531589
H178	H	-0.439680	1.045796	-0.281589
H179	H	-0.189680	1.295796	-0.031589
H180	H	0.060320	1.545796	0.218411
H181	H	-0.686050	0.708857	-0.604032
H182	H	-0.436050	0.958857	-0.354032
H183	H	-0.186050	1.208857	-0.104032
H184	H	0.063950	1.458857	0.145968
N185	N	-1.297775	1.225450	-0.356827
N186	N	-1.047775	1.475450	-0.106827
N187	N	-0.797775	1.725450	0.143173
N188	N	-0.547775	1.975450	0.393173
H189	H	-1.333163	1.174258	-0.324862
H190	H	-1.083163	1.424258	-0.074862
H191	H	-0.833163	1.674258	0.175138
H192	H	-0.583163	1.924258	0.425138
H193	H	-1.265919	1.266437	-0.316612
H194	H	-1.015919	1.516437	-0.066612
H195	H	-0.765919	1.766437	0.183388
H196	H	-0.515919	2.016437	0.433388
H197	H	-1.250863	0.528213	-0.950652
H198	H	-1.000863	0.778213	-0.700652
H199	H	-0.750863	1.028213	-0.450652
H200	H	-0.500863	1.278213	-0.200652
N201	N	-1.097615	0.711453	-0.984168
N202	N	-0.847615	0.961453	-0.734168
N203	N	-0.597615	1.211453	-0.484168
N204	N	-0.347615	1.461453	-0.234168
H205	H	-1.038949	0.690259	-0.966080
H206	H	-0.788949	0.940259	-0.716080
H207	H	-0.538949	1.190259	-0.466080
H208	H	-0.288949	1.440259	-0.216080
H209	H	-1.102710	0.705399	-1.046157
H210	H	-0.852710	0.955399	-0.796157
H211	H	-0.602710	1.205399	-0.546157
H212	H	-0.352710	1.455399	-0.296157
H213	H	-1.080051	1.010547	-0.553112
H214	H	-0.830051	1.260547	-0.303112
H215	H	-0.580051	1.510547	-0.053112
H216	H	-0.330051	1.760547	0.196888
N217	N	-1.065372	1.224025	-0.566491
N218	N	-0.815372	1.474025	-0.316491
N219	N	-0.565372	1.724025	-0.066491
N220	N	-0.315372	1.974025	0.183509
H221	H	-1.073885	1.301914	-0.558856
H222	H	-0.823885	1.551914	-0.308856
H223	H	-0.573885	1.801914	-0.058856
H224	H	-0.323885	2.051914	0.191144
H225	H	-1.006641	1.200135	-0.550477
H226	H	-0.756641	1.450135	-0.300477
H227	H	-0.506641	1.700135	-0.050477
H228	H	-0.256641	1.950135	0.199523
