data_functionalizedCrystal
_audit_creation_method	'MofGen! by Chris Wilmer'
_symmetry_space_group_name_H-M	'P1'
_symmetry_Int_Tables_number	1
_symmetry_cell_setting	triclinic
loop_
_symmetry_equiv_pos_as_xyz
  x,y,z
_cell_length_a	19.805407
_cell_length_b	21.295417
_cell_length_c	19.805407
_cell_angle_alpha	90.016581
_cell_angle_beta	90.009221
_cell_angle_gamma	90.030507
loop_
_atom_site_label
_atom_site_type_symbol
_atom_site_fract_x
_atom_site_fract_y
_atom_site_fract_z
Zn1	Zn	1.034647	-0.250712	0.382704
Zn2	Zn	1.284647	-0.000712	0.632704
Zn3	Zn	1.534647	0.249288	0.882704
Zn4	Zn	1.784647	0.499288	1.132704
Zn5	Zn	1.034574	-0.355955	0.269509
Zn6	Zn	1.284574	-0.105955	0.519509
Zn7	Zn	1.534574	0.144045	0.769509
Zn8	Zn	1.784574	0.394045	1.019509
Zn9	Zn	0.921482	-0.250704	0.269529
Zn10	Zn	1.171482	-0.000704	0.519529
Zn11	Zn	1.421482	0.249296	0.769529
Zn12	Zn	1.671482	0.499296	1.019529
Zn13	Zn	0.921417	-0.355948	0.382656
Zn14	Zn	1.171417	-0.105948	0.632656
Zn15	Zn	1.421417	0.144052	0.882656
Zn16	Zn	1.671417	0.394052	1.132656
O17	O	0.978030	-0.303330	0.326100
O18	O	1.228030	-0.053330	0.576100
O19	O	1.478030	0.196670	0.826100
O20	O	1.728030	0.446670	1.076100
O21	O	1.129354	-0.264680	0.367701
O22	O	1.379354	-0.014680	0.617701
O23	O	1.629354	0.235320	0.867701
O24	O	1.879354	0.485320	1.117701
O25	O	1.019569	-0.341992	0.174795
O26	O	1.269569	-0.091992	0.424795
O27	O	1.519569	0.158008	0.674795
O28	O	1.769569	0.408008	0.924795
O29	O	0.936552	-0.162615	0.284570
O30	O	1.186552	0.087385	0.534570
O31	O	1.436552	0.337385	0.784570
O32	O	1.686552	0.587385	1.034570
O33	O	1.129301	-0.342001	0.284537
O34	O	1.379301	-0.092001	0.534537
O35	O	1.629301	0.157999	0.784537
O36	O	1.879301	0.407999	1.034537
O37	O	1.019693	-0.162622	0.367719
O38	O	1.269693	0.087378	0.617719
O39	O	1.519693	0.337378	0.867719
O40	O	1.769693	0.587378	1.117719
O41	O	0.936481	-0.264665	0.174810
O42	O	1.186481	-0.014665	0.424810
O43	O	1.436481	0.235335	0.674810
O44	O	1.686481	0.485335	0.924810
O45	O	0.826757	-0.264658	0.284523
O46	O	1.076757	-0.014658	0.534523
O47	O	1.326757	0.235342	0.784523
O48	O	1.576757	0.485342	1.034523
O49	O	0.936441	-0.341989	0.477379
O50	O	1.186441	-0.091989	0.727379
O51	O	1.436441	0.158011	0.977379
O52	O	1.686441	0.408011	1.227379
O53	O	0.826709	-0.341980	0.367638
O54	O	1.076709	-0.091980	0.617638
O55	O	1.326709	0.158020	0.867638
O56	O	1.576709	0.408020	1.117638
O57	O	1.019630	-0.264673	0.477414
O58	O	1.269630	-0.014673	0.727414
O59	O	1.519630	0.235327	0.977414
O60	O	1.769630	0.485327	1.227414
O61	O	1.019506	-0.444043	0.284490
O62	O	1.269506	-0.194043	0.534490
O63	O	1.519506	0.055957	0.784490
O64	O	1.769506	0.305957	1.034490
O65	O	0.936370	-0.444038	0.367619
O66	O	1.186370	-0.194038	0.617619
O67	O	1.436370	0.055962	0.867619
O68	O	1.686370	0.305962	1.117619
C69	C	0.802174	-0.303318	0.326078
C70	C	1.052174	-0.053318	0.576078
C71	C	1.302174	0.196682	0.826078
C72	C	1.552174	0.446682	1.076078
C73	C	0.726942	-0.303328	0.326084
C74	C	0.976942	-0.053328	0.576084
C75	C	1.226942	0.196672	0.826084
C76	C	1.476942	0.446672	1.076084
C77	C	0.691591	-0.343650	0.369292
C78	C	0.941591	-0.093650	0.619292
C79	C	1.191591	0.156350	0.869292
C80	C	1.441591	0.406350	1.119292
C81	C	0.620903	-0.343651	0.369301
C82	C	0.870903	-0.093651	0.619301
C83	C	1.120903	0.156349	0.869301
C84	C	1.370903	0.406349	1.119301
C85	C	0.585567	-0.303333	0.326100
C86	C	0.835567	-0.053333	0.576100
C87	C	1.085567	0.196667	0.826100
C88	C	1.335567	0.446667	1.076100
C89	C	0.620923	-0.263006	0.282890
C90	C	0.870923	-0.013006	0.532890
C91	C	1.120923	0.236994	0.782890
C92	C	1.370923	0.486994	1.032890
C93	C	0.691610	-0.263002	0.282885
C94	C	0.941610	-0.013002	0.532885
C95	C	1.191610	0.236998	0.782885
C96	C	1.441610	0.486998	1.032885
C97	C	0.335850	-0.263020	0.282913
C98	C	0.585850	-0.013020	0.532913
C99	C	0.835850	0.236980	0.782913
C100	C	1.085850	0.486980	1.032913
C101	C	0.265158	-0.263028	0.282920
C102	C	0.515158	-0.013028	0.532920
C103	C	0.765158	0.236972	0.782920
C104	C	1.015158	0.486972	1.032920
C105	C	0.265142	-0.343669	0.369329
C106	C	0.515142	-0.093669	0.619329
C107	C	0.765142	0.156331	0.869329
C108	C	1.015142	0.406331	1.119329
C109	C	0.335829	-0.343665	0.369324
C110	C	0.585829	-0.093665	0.619324
C111	C	0.835829	0.156335	0.869324
C112	C	1.085829	0.406335	1.119324
C113	C	0.371179	-0.303336	0.326117
C114	C	0.621179	-0.053336	0.576117
C115	C	0.871179	0.196664	0.826117
C116	C	1.121179	0.446664	1.076117
C117	C	0.447828	-0.303335	0.326108
C118	C	0.697828	-0.053335	0.576108
C119	C	0.947828	0.196665	0.826108
C120	C	1.197828	0.446665	1.076108
C121	C	0.508920	-0.303337	0.326105
C122	C	0.758920	-0.053337	0.576105
C123	C	1.008920	0.196663	0.826105
C124	C	1.258920	0.446663	1.076105
C125	C	0.977942	-0.466881	0.326062
C126	C	1.227942	-0.216881	0.576062
C127	C	1.477942	0.033119	0.826062
C128	C	1.727942	0.283119	1.076062
C129	C	0.977966	-0.536849	0.326069
C130	C	1.227966	-0.286849	0.576069
C131	C	1.477966	-0.036849	0.826069
C132	C	1.727966	0.213151	1.076069
C133	C	1.021293	-0.569698	0.282828
C134	C	1.271293	-0.319698	0.532828
C135	C	1.521293	-0.069698	0.782828
C136	C	1.771293	0.180302	1.032828
C137	C	1.021325	-0.635440	0.282843
C138	C	1.271325	-0.385440	0.532843
C139	C	1.521325	-0.135440	0.782843
C140	C	1.771325	0.114560	1.032843
C141	C	0.978017	-0.668332	0.326092
C142	C	1.228017	-0.418332	0.576092
C143	C	1.478017	-0.168332	0.826092
C144	C	1.728017	0.081668	1.076092
C145	C	0.934686	-0.635475	0.369341
C146	C	1.184686	-0.385475	0.619341
C147	C	1.434686	-0.135475	0.869341
C148	C	1.684686	0.114525	1.119341
C149	C	0.934661	-0.569734	0.369329
C150	C	1.184661	-0.319734	0.619329
C151	C	1.434661	-0.069734	0.869329
C152	C	1.684661	0.180266	1.119329
N153	N	0.918806	-0.771599	0.331245
N154	N	1.168806	-0.521599	0.581245
N155	N	1.418806	-0.271599	0.831245
N156	N	1.668806	-0.021599	1.081245
N157	N	0.918832	-0.834050	0.331252
N158	N	1.168832	-0.584050	0.581252
N159	N	1.418832	-0.334050	0.831252
N160	N	1.668832	-0.084050	1.081252
C161	C	0.978093	-0.866407	0.326131
C162	C	1.228093	-0.616407	0.576131
C163	C	1.478093	-0.366407	0.826131
C164	C	1.728093	-0.116407	1.076131
N165	N	1.037328	-0.833952	0.320989
N166	N	1.287328	-0.583952	0.570989
N167	N	1.537328	-0.333952	0.820989
N168	N	1.787328	-0.083952	1.070989
N169	N	1.037300	-0.771495	0.320979
N170	N	1.287300	-0.521495	0.570979
N171	N	1.537300	-0.271495	0.820979
N172	N	1.787300	-0.021495	1.070979
C173	C	0.978040	-0.739617	0.326110
C174	C	1.228040	-0.489617	0.576110
C175	C	1.478040	-0.239617	0.826110
C176	C	1.728040	0.010383	1.076110
C177	C	1.021458	-0.970541	0.282904
C178	C	1.271458	-0.720541	0.532904
C179	C	1.521458	-0.470541	0.782904
C180	C	1.771458	-0.220541	1.032904
C181	C	1.021491	-1.036284	0.282924
C182	C	1.271491	-0.786284	0.532924
C183	C	1.521491	-0.536284	0.782924
C184	C	1.771491	-0.286284	1.032924
C185	C	0.934847	-1.036318	0.369419
C186	C	1.184847	-0.786318	0.619419
C187	C	1.434847	-0.536318	0.869419
C188	C	1.684847	-0.286318	1.119419
C189	C	0.934820	-0.970576	0.369402
C190	C	1.184820	-0.720576	0.619402
C191	C	1.434820	-0.470576	0.869402
C192	C	1.684820	-0.220576	1.119402
C193	C	0.978125	-0.937691	0.326142
C194	C	1.228125	-0.687691	0.576142
C195	C	1.478125	-0.437691	0.826142
C196	C	1.728125	-0.187691	1.076142
C197	C	1.154573	-0.303342	0.326122
C198	C	1.404573	-0.053342	0.576122
C199	C	1.654573	0.196658	0.826122
C200	C	1.904573	0.446658	1.076122
C201	C	1.229805	-0.303348	0.326131
C202	C	1.479805	-0.053348	0.576131
C203	C	1.729805	0.196652	0.826131
C204	C	1.979805	0.446652	1.076131
C205	C	0.978036	-0.303331	0.502642
C206	C	1.228036	-0.053331	0.752642
C207	C	1.478036	0.196669	1.002642
C208	C	1.728036	0.446669	1.252642
C209	C	0.978039	-0.303331	0.577874
C210	C	1.228039	-0.053331	0.827874
C211	C	1.478039	0.196669	1.077874
C212	C	1.728039	0.446669	1.327874
C213	C	0.978138	-0.139139	0.326152
C214	C	1.228138	0.110861	0.576152
C215	C	1.478138	0.360861	0.826152
C216	C	1.728138	0.610861	1.076152
C217	C	0.978184	-0.069171	0.326174
C218	C	1.228184	0.180829	0.576174
C219	C	1.478184	0.430829	0.826174
C220	C	1.728184	0.680829	1.076174
C221	C	1.021350	-0.263079	0.613238
C222	C	1.271350	-0.013079	0.863238
C223	C	1.521350	0.236921	1.113238
C224	C	1.771350	0.486921	1.363238
C225	C	1.021344	-0.263077	0.683926
C226	C	1.271344	-0.013077	0.933926
C227	C	1.521344	0.236923	1.183926
C228	C	1.771344	0.486923	1.433926
C229	C	0.978030	-0.303331	0.719250
C230	C	1.228030	-0.053331	0.969250
C231	C	1.478030	0.196669	1.219250
C232	C	1.728030	0.446669	1.469250
C233	C	0.934714	-0.343585	0.683881
C234	C	1.184714	-0.093585	0.933881
C235	C	1.434714	0.156415	1.183881
C236	C	1.684714	0.406415	1.433881
C237	C	0.934717	-0.343584	0.613194
C238	C	1.184717	-0.093584	0.863194
C239	C	1.434717	0.156416	1.113194
C240	C	1.684717	0.406416	1.363194
C241	C	0.934701	-0.343593	0.968955
C242	C	1.184701	-0.093593	1.218955
C243	C	1.434701	0.156407	1.468955
C244	C	1.684701	0.406407	1.718955
C245	C	0.934703	-0.343593	1.039647
C246	C	1.184703	-0.093593	1.289647
C247	C	1.434703	0.156407	1.539647
C248	C	1.684703	0.406407	1.789647
C249	C	1.021328	-0.263086	1.039687
C250	C	1.271328	-0.013086	1.289687
C251	C	1.521328	0.236914	1.539687
C252	C	1.771328	0.486914	1.789687
C253	C	1.021331	-0.263085	0.969000
C254	C	1.271331	-0.013085	1.219000
C255	C	1.521331	0.236915	1.469000
C256	C	1.771331	0.486915	1.719000
C257	C	0.978013	-0.303336	0.933637
C258	C	1.228013	-0.053336	1.183637
C259	C	1.478013	0.196664	1.433637
C260	C	1.728013	0.446664	1.683637
C261	C	0.978019	-0.303337	0.856989
C262	C	1.228019	-0.053337	1.106989
C263	C	1.478019	0.196663	1.356989
C264	C	1.728019	0.446663	1.606989
C265	C	0.978027	-0.303334	0.795897
C266	C	1.228027	-0.053334	1.045897
C267	C	1.478027	0.196666	1.295897
C268	C	1.728027	0.446666	1.545897
C269	C	0.978018	-0.303341	1.150244
C270	C	1.228018	-0.053341	1.400244
C271	C	1.478018	0.196659	1.650244
C272	C	1.728018	0.446659	1.900244
C273	C	0.978011	-0.303337	1.075012
C274	C	1.228011	-0.053337	1.325012
C275	C	1.478011	0.196663	1.575012
C276	C	1.728011	0.446663	1.825012
H277	H	0.364596	-0.376499	0.404501
H278	H	0.614596	-0.126499	0.654501
H279	H	0.864596	0.123501	0.904501
H280	H	1.114596	0.373501	1.154501
F281	F	0.227514	-0.386590	0.415315
F282	F	0.477514	-0.136590	0.665315
F283	F	0.727514	0.113410	0.915315
F284	F	0.977514	0.363410	1.165315
H285	H	0.899588	-1.063098	0.404636
H286	H	1.149588	-0.813098	0.654636
H287	H	1.399588	-0.563098	0.904636
H288	H	1.649588	-0.313098	1.154636
H289	H	0.899442	-0.376355	0.584402
H290	H	1.149442	-0.126355	0.834402
H291	H	1.399442	0.123645	1.084402
H292	H	1.649442	0.373645	1.334402
F293	F	0.888544	-0.534773	0.415354
F294	F	1.138544	-0.284773	0.665354
F295	F	1.388544	-0.034773	0.915354
F296	F	1.638544	0.215227	1.165354
H297	H	0.899426	-0.662260	0.404556
H298	H	1.149426	-0.412260	0.654556
H299	H	1.399426	-0.162260	0.904556
H300	H	1.649426	0.087740	1.154556
H301	H	0.364623	-0.230186	0.247726
H302	H	0.614623	0.019814	0.497726
H303	H	0.864623	0.269814	0.747726
H304	H	1.114623	0.519814	0.997726
H305	H	0.899444	-0.376358	0.712647
H306	H	1.149444	-0.126358	0.962647
H307	H	1.399444	0.123642	1.212647
H308	H	1.649444	0.373642	1.462647
H309	H	0.236389	-0.230192	0.247740
H310	H	0.486389	0.019808	0.497740
H311	H	0.736389	0.269808	0.747740
H312	H	0.986389	0.519808	0.997740
H313	H	0.592147	-0.230175	0.247717
H314	H	0.842147	0.019825	0.497717
H315	H	1.092147	0.269825	0.747717
H316	H	1.342147	0.519825	0.997717
H317	H	1.056604	-0.230308	0.940243
H318	H	1.306604	0.019692	1.190243
H319	H	1.556604	0.269692	1.440243
H320	H	1.806604	0.519692	1.690243
H321	H	0.899536	-0.943829	0.404610
H322	H	1.149536	-0.693829	0.654610
H323	H	1.399536	-0.443829	0.904610
H324	H	1.649536	-0.193829	1.154610
F325	F	1.067466	-0.220257	0.721560
F326	F	1.317466	0.029743	0.971560
F327	F	1.567466	0.279743	1.221560
F328	F	1.817466	0.529743	1.471560
H329	H	1.056598	-0.230310	1.068487
H330	H	1.306598	0.019690	1.318487
H331	H	1.556598	0.269690	1.568487
H332	H	1.806598	0.519690	1.818487
H333	H	1.056624	-0.230302	0.584482
H334	H	1.306624	0.019698	0.834482
H335	H	1.556624	0.269698	1.084482
H336	H	1.806624	0.519698	1.334482
F337	F	1.067441	-0.670407	0.236818
F338	F	1.317441	-0.420407	0.486818
F339	F	1.567441	-0.170407	0.736818
F340	F	1.817441	0.079593	0.986818
H341	H	1.056556	-0.542925	0.247604
H342	H	1.306556	-0.292925	0.497604
H343	H	1.556556	-0.042925	0.747604
H344	H	1.806556	0.207075	0.997604
H345	H	0.720356	-0.376484	0.404470
H346	H	0.970356	-0.126484	0.654470
H347	H	1.220356	0.123516	0.904470
H348	H	1.470356	0.373516	1.154470
F349	F	0.888597	-0.386432	0.931328
F350	F	1.138597	-0.136432	1.181328
F351	F	1.388597	0.113568	1.431328
F352	F	1.638597	0.363568	1.681328
H353	H	0.899428	-0.376373	1.068405
H354	H	1.149428	-0.126373	1.318405
H355	H	1.399428	0.123627	1.568405
H356	H	1.649428	0.373627	1.818405
H357	H	0.720392	-0.230164	0.247704
H358	H	0.970392	0.019836	0.497704
H359	H	1.220392	0.269836	0.747704
H360	H	1.470392	0.519836	0.997704
H361	H	0.592123	-0.376486	0.404485
H362	H	0.842123	-0.126486	0.654485
H363	H	1.092123	0.123514	0.904485
H364	H	1.342123	0.373514	1.154485
H365	H	1.056778	-1.063028	0.247714
H366	H	1.306778	-0.813028	0.497714
H367	H	1.556778	-0.563028	0.747714
H368	H	1.806778	-0.313028	0.997714
H369	H	1.056722	-0.943765	0.247681
H370	H	1.306722	-0.693765	0.497681
H371	H	1.556722	-0.443765	0.747681
H372	H	1.806722	-0.193765	0.997681
