data_functionalizedCrystal
_audit_creation_method	'MofGen! by Chris Wilmer'
_symmetry_space_group_name_H-M	'P1'
_symmetry_Int_Tables_number	1
_symmetry_cell_setting	triclinic
loop_
_symmetry_equiv_pos_as_xyz
  x,y,z
_cell_length_a	19.805407
_cell_length_b	12.645330
_cell_length_c	19.805399
_cell_angle_alpha	90.023856
_cell_angle_beta	90.019573
_cell_angle_gamma	90.012646
loop_
_atom_site_label
_atom_site_type_symbol
_atom_site_fract_x
_atom_site_fract_y
_atom_site_fract_z
Zn1	Zn	1.034800	-0.422064	0.382737
Zn2	Zn	1.534800	0.077936	0.882737
Zn3	Zn	1.034742	-0.599342	0.269556
Zn4	Zn	1.534742	-0.099342	0.769556
Zn5	Zn	0.921615	-0.422093	0.269562
Zn6	Zn	1.421615	0.077907	0.769562
Zn7	Zn	0.921606	-0.599286	0.382703
Zn8	Zn	1.421606	-0.099286	0.882703
O9	O	0.978191	-0.510696	0.326140
O10	O	1.478191	-0.010696	0.826140
O11	O	1.129509	-0.445592	0.367735
O12	O	1.629509	0.054408	0.867735
O13	O	1.019715	-0.575865	0.174840
O14	O	1.519715	-0.075865	0.674840
O15	O	0.936657	-0.273742	0.284591
O16	O	1.436657	0.226258	0.784591
O17	O	1.129467	-0.575837	0.284582
O18	O	1.629467	-0.075837	0.784582
O19	O	1.019814	-0.273721	0.367741
O20	O	1.519814	0.226279	0.867741
O21	O	0.936601	-0.445641	0.174844
O22	O	1.436601	0.054359	0.674844
O23	O	0.826897	-0.445587	0.284558
O24	O	1.326897	0.054413	0.784558
O25	O	0.936642	-0.575741	0.477424
O26	O	1.436642	-0.075741	0.977424
O27	O	0.826890	-0.575769	0.367683
O28	O	1.326890	-0.075769	0.867683
O29	O	1.019805	-0.445537	0.477449
O30	O	1.519805	0.054463	0.977449
O31	O	1.019706	-0.747682	0.284549
O32	O	1.519706	-0.247682	0.784549
O33	O	0.936585	-0.747640	0.367677
O34	O	1.436585	-0.247640	0.867677
C35	C	0.802335	-0.510676	0.326118
C36	C	1.302335	-0.010676	0.826118
C37	C	0.727103	-0.510693	0.326124
C38	C	1.227103	-0.010693	0.826124
C39	C	0.691773	-0.578581	0.369337
C40	C	1.191773	-0.078581	0.869337
C41	C	0.621084	-0.578583	0.369347
C42	C	1.121084	-0.078583	0.869347
C43	C	0.585727	-0.510701	0.326140
C44	C	1.085727	-0.010701	0.826140
C45	C	0.621062	-0.442805	0.282925
C46	C	1.121062	0.057195	0.782925
C47	C	0.691749	-0.442799	0.282919
C48	C	1.191749	0.057201	0.782919
C49	C	0.335989	-0.442829	0.282947
C50	C	0.835989	0.057171	0.782947
C51	C	0.265297	-0.442843	0.282955
C52	C	0.765297	0.057157	0.782955
C53	C	0.265324	-0.578613	0.369375
C54	C	0.765324	-0.078613	0.869375
C55	C	0.336011	-0.578606	0.369369
C56	C	0.836011	-0.078606	0.869369
C57	C	0.371340	-0.510707	0.326157
C58	C	0.871340	-0.010707	0.826157
C59	C	0.447988	-0.510705	0.326148
C60	C	0.947988	-0.010705	0.826148
C61	C	0.509080	-0.510708	0.326145
C62	C	1.009080	-0.010708	0.826145
C63	C	0.978157	-0.786126	0.326124
C64	C	1.478157	-0.286126	0.826124
C65	C	0.978204	-0.903956	0.326139
C66	C	1.478204	-0.403956	0.826139
C67	C	1.030412	-1.071502	0.273737
C68	C	1.530412	-0.571502	0.773737
C69	C	1.030582	-0.948942	0.273865
C70	C	1.530582	-0.448942	0.773865
C71	C	0.997546	-0.948344	0.397486
C72	C	1.497546	-0.448344	0.897486
C73	C	0.997960	-1.070942	0.397208
C74	C	1.497960	-0.570942	0.897208
C75	C	0.906635	-1.071282	0.307898
C76	C	1.406635	-0.571282	0.807898
C77	C	0.906978	-0.948677	0.306298
C78	C	1.406978	-0.448677	0.806298
C79	C	1.154734	-0.510717	0.326162
C80	C	1.654734	-0.010717	0.826162
C81	C	1.229966	-0.510726	0.326171
C82	C	1.729966	-0.010726	0.826171
C83	C	0.978229	-0.510629	0.502682
C84	C	1.478229	-0.010629	1.002682
C85	C	0.978245	-0.510601	0.577914
C86	C	1.478245	-0.010601	1.077914
C87	C	0.978243	-0.234191	0.326170
C88	C	1.478243	0.265809	0.826170
C89	C	0.978266	-0.116361	0.326184
C90	C	1.478266	0.383639	0.826184
C91	C	0.978192	-0.510686	0.150284
C92	C	1.478192	-0.010686	0.650284
C93	C	0.978307	-0.510416	0.075052
C94	C	1.478307	-0.010416	0.575052
C95	C	1.021549	-0.442800	0.613273
C96	C	1.521549	0.057200	1.113273
C97	C	1.021556	-0.442770	0.683961
C98	C	1.521556	0.057230	1.183961
C99	C	0.978262	-0.510546	0.719290
C100	C	1.478262	-0.010546	1.219290
C101	C	0.934953	-0.578349	0.683927
C102	C	1.434953	-0.078349	1.183927
C103	C	0.934943	-0.578374	0.613240
C104	C	1.434943	-0.078374	1.113240
C105	C	0.934991	-0.578250	0.969000
C106	C	1.434991	-0.078250	1.469000
C107	C	0.935006	-0.578223	1.039692
C108	C	1.435006	-0.078223	1.539692
C109	C	1.021604	-0.442646	1.039722
C110	C	1.521604	0.057354	1.539722
C111	C	1.021594	-0.442671	0.969035
C112	C	1.521594	0.057329	1.469035
C113	C	0.978283	-0.510470	0.933678
C114	C	1.478283	-0.010470	1.433678
C115	C	0.978275	-0.510501	0.857029
C116	C	1.478275	-0.010501	1.357029
C117	C	0.978273	-0.510521	0.795937
C118	C	1.478273	-0.010521	1.295937
H119	H	0.236511	-0.387559	0.247770
H120	H	0.736511	0.112441	0.747770
Cl121	Cl	0.576673	-0.663932	0.423674
Cl122	Cl	1.076673	-0.163932	0.923674
H123	H	0.720556	-0.633862	0.404519
H124	H	1.220556	-0.133862	0.904519
Cl125	Cl	0.846648	-1.116075	0.366871
Cl126	Cl	1.346648	-0.616075	0.866871
H127	H	0.364796	-0.633886	0.404551
H128	H	0.864796	-0.133886	0.904551
Cl129	Cl	1.075983	-0.357596	0.568866
Cl130	Cl	1.575983	0.142404	1.068866
H131	H	0.961642	-1.100613	0.437631
H132	H	1.461642	-0.600613	0.937631
Cl133	Cl	0.220906	-0.663972	0.423700
Cl134	Cl	0.720906	-0.163972	0.923700
Cl135	Cl	0.843754	-0.901420	0.360950
Cl136	Cl	1.343754	-0.401420	0.860950
Cl137	Cl	0.380393	-0.357467	0.228625
Cl138	Cl	0.880393	0.142533	0.728625
Cl139	Cl	0.880573	-0.663433	1.084105
Cl140	Cl	1.380573	-0.163433	1.584105
H141	H	1.056868	-0.387437	1.068518
H142	H	1.556868	0.112563	1.568518
H143	H	0.720514	-0.387512	0.247734
H144	H	1.220514	0.112488	0.747734
H145	H	0.899734	-0.633472	0.940221
H146	H	1.399734	-0.133472	1.440221
H147	H	0.899699	-0.633530	0.712697
H148	H	1.399699	-0.133530	1.212697
H149	H	1.083182	-1.102233	0.285697
H150	H	1.583182	-0.602233	0.785697
Cl151	Cl	0.576613	-0.357461	0.228611
Cl152	Cl	1.076613	0.142539	0.728611
Cl153	Cl	1.011856	-0.902607	0.192198
Cl154	Cl	1.511856	-0.402607	0.692198
Cl155	Cl	0.884456	-0.903895	0.225236
Cl156	Cl	1.384456	-0.403895	0.725236
H157	H	0.899673	-0.633573	0.584452
H158	H	1.399673	-0.133573	1.084452
Cl159	Cl	1.011970	-1.117128	0.191818
Cl160	Cl	1.511970	-0.617128	0.691818
Cl161	Cl	1.112493	-0.903532	0.292544
Cl162	Cl	1.612493	-0.403532	0.792544
Cl163	Cl	1.078797	-1.114970	0.421120
Cl164	Cl	1.578797	-0.614970	0.921120
Cl165	Cl	0.940688	-0.903366	0.459436
Cl166	Cl	1.440688	-0.403366	0.959436
H167	H	1.049313	-0.917557	0.413233
H168	H	1.549313	-0.417557	0.913233
H169	H	1.056821	-0.387562	0.712747
H170	H	1.556821	0.112438	1.212747
Cl171	Cl	0.879478	-1.119150	0.228972
Cl172	Cl	1.379478	-0.619150	0.728972
Cl173	Cl	1.076026	-0.357466	0.924625
Cl174	Cl	1.576026	0.142534	1.424625
