data_functionalizedCrystal
_audit_creation_method	'MofGen! by Chris Wilmer'
_symmetry_space_group_name_H-M	'P1'
_symmetry_Int_Tables_number	1
_symmetry_cell_setting	triclinic
loop_
_symmetry_equiv_pos_as_xyz
  x,y,z
_cell_length_a	21.606444
_cell_length_b	21.606444
_cell_length_c	14.560438
_cell_angle_alpha	59.990791
_cell_angle_beta	89.998722
_cell_angle_gamma	60.003978
loop_
_atom_site_label
_atom_site_type_symbol
_atom_site_fract_x
_atom_site_fract_y
_atom_site_fract_z
Zr1	Zr	0.596225	0.677537	-0.120726
O2	O	0.497403	0.806664	-0.267402
O3	O	0.626519	0.548407	-0.075740
O4	O	0.626519	0.677540	-0.267377
O5	O	0.497402	0.677530	0.075375
O6	O	0.728369	0.677544	-0.267382
O7	O	0.497402	0.677532	-0.075765
O8	O	0.728368	0.446550	0.075420
O9	O	0.497403	0.908525	-0.267427
O10	O	0.715448	0.601524	-0.056585
O11	O	0.639439	0.601520	0.056214
O12	O	0.639440	0.753556	-0.169413
O13	O	0.563431	0.753552	-0.056615
Zr14	Zr	0.758664	0.677541	0.120317
Zr15	Zr	0.758663	0.677544	-0.120735
Zr16	Zr	0.596225	0.677534	0.120326
Zr17	Zr	0.596226	0.839992	-0.120767
Zr18	Zr	0.758663	0.515086	0.120357
O19	O	0.728370	0.806670	0.075331
O20	O	0.728370	0.806674	-0.267414
O21	O	0.497403	0.806661	0.075343
O22	O	0.857485	0.548413	0.266992
O23	O	0.857485	0.548417	-0.075753
O24	O	0.626519	0.548403	0.267005
O25	O	0.857486	0.677548	-0.075785
O26	O	0.728369	0.677538	0.266967
O27	O	0.626519	0.677534	0.266973
O28	O	0.857486	0.677546	0.075356
O29	O	0.626520	0.908530	-0.267434
O30	O	0.728368	0.446548	0.267025
O31	O	0.857485	0.446553	0.267018
O32	O	0.857485	0.446555	0.075413
O33	O	0.497404	0.908522	-0.075823
O34	O	0.626521	0.908528	-0.075830
O35	O	0.715449	0.601522	0.169004
O36	O	0.791458	0.601526	0.056205
O37	O	0.715449	0.753558	-0.056623
O38	O	0.639440	0.753554	0.056176
C39	C	0.677443	0.474332	-0.000154
C40	C	0.677443	0.405366	-0.000137
C41	C	0.621331	0.429099	-0.083422
C42	C	0.621333	0.364310	-0.083446
C43	C	0.677444	0.275788	-0.000178
C44	C	0.733562	0.252055	0.083112
C45	C	0.733562	0.316843	0.083129
C46	C	0.733561	-0.009232	0.083041
C47	C	0.733555	-0.074021	0.083019
C48	C	0.621332	0.038235	-0.083534
C49	C	0.621332	0.103023	-0.083516
C50	C	0.677452	0.079285	-0.000231
C51	C	0.677450	0.149537	-0.000208
C52	C	0.677444	0.205536	-0.000196
C53	C	0.474258	0.677530	-0.000194
C54	C	0.405299	0.677527	-0.000190
C55	C	0.412575	0.598169	0.058701
C56	C	0.347778	0.598171	0.058702
C57	C	0.275705	0.677533	-0.000195
C58	C	0.268430	0.756898	-0.059088
C59	C	0.333227	0.756894	-0.059082
C60	C	0.007112	0.756913	-0.059113
C61	C	-0.057686	0.756910	-0.059118
C62	C	0.021663	0.598190	0.058671
C63	C	0.086460	0.598186	0.058677
C64	C	0.079179	0.677550	-0.000211
C65	C	0.149441	0.677547	-0.000209
C66	C	0.205445	0.677537	-0.000204
C67	C	0.880630	0.677548	-0.000216
C68	C	0.949589	0.677551	-0.000219
C69	C	0.677444	0.677542	-0.301724
C70	C	0.677444	0.677544	-0.404057
C71	C	0.677445	0.880746	-0.000255
C72	C	0.677446	0.949712	-0.000272
C73	C	0.637765	0.756901	-0.511029
C74	C	0.637767	0.756897	-0.607177
C75	C	0.717128	0.598170	-0.489369
C76	C	0.717130	0.598175	-0.393223
C77	C	0.591944	0.848541	-0.579045
C78	C	0.591946	0.848537	-0.675194
C79	C	0.677444	0.677535	0.301315
C80	C	0.677444	0.677534	0.403648
C81	C	0.880629	0.474341	-0.000165
C82	C	0.949588	0.405377	-0.000152
C83	C	0.677443	0.474329	0.301365
C84	C	0.677443	0.405361	0.403715
C85	C	0.880629	0.474337	0.301354
C86	C	0.949588	0.405373	0.403701
C87	C	0.474259	0.880740	-0.301764
C88	C	0.405300	0.949705	-0.404110
C89	C	0.474259	0.880737	-0.000244
C90	C	0.405300	0.949700	-0.000258
C91	C	0.677445	0.880749	-0.301775
C92	C	0.677445	0.949717	-0.404125
C93	C	0.942296	0.372990	-0.059031
C94	C	1.007084	0.308201	-0.059041
C95	C	1.079164	0.275795	-0.000164
C96	C	1.086454	0.308188	0.058717
C97	C	1.021667	0.372981	0.058720
C98	C	0.717119	0.372974	0.510666
C99	C	0.717116	0.308181	0.606844
C100	C	0.677441	0.275771	0.596069
C101	C	0.637760	0.308164	0.489107
C102	C	0.637759	0.372961	0.392932
C103	C	1.021655	0.372989	0.392884
C104	C	1.086456	0.308198	0.489040
C105	C	1.079188	0.275788	0.596012
C106	C	1.007113	0.308179	0.606827
C107	C	0.942314	0.372973	0.510672
C108	C	0.333233	0.982097	-0.393293
C109	C	0.268433	1.046908	-0.489449
C110	C	0.275701	1.079321	-0.596421
C111	C	0.347775	1.046926	-0.607236
C112	C	0.412574	0.982121	-0.511081
C113	C	0.412593	0.982094	0.058612
C114	C	0.347804	1.046902	0.058595
C115	C	0.275725	1.079310	-0.000285
C116	C	0.268434	1.046913	-0.059162
C117	C	0.333222	0.982111	-0.059151
C118	C	0.717128	0.982106	-0.393314
C119	C	0.717143	1.046900	-0.489473
C120	C	0.677471	1.079308	-0.596443
C121	C	0.637787	1.046912	-0.607251
C122	C	0.637776	0.982115	-0.511093
H123	H	0.779251	-0.146103	0.150829
O124	O	0.514245	0.886199	-0.567477
H125	H	0.517450	0.884642	-0.490195
O126	O	0.355683	1.081821	0.122119
H127	H	0.298527	1.132333	0.112218
H128	H	0.779252	0.179974	0.150905
O129	O	0.794082	-0.034835	0.172873
H130	H	0.833092	-0.107274	0.230776
H131	H	0.749434	0.955729	-0.306223
O132	O	0.190686	1.081873	-0.122660
H133	H	0.196490	1.048470	-0.163606
O134	O	0.325353	0.947166	-0.122637
H135	H	0.264345	0.980586	-0.163567
H136	H	0.353684	1.073325	-0.694344
O137	O	0.560811	0.389910	-0.173278
H138	H	0.528465	0.363057	-0.133244
O139	O	0.190694	0.842495	-0.122610
H140	H	0.196522	0.897678	-0.163551
O141	O	0.594993	0.273181	0.477491
H142	H	0.601680	0.222669	0.562343
H143	H	0.327301	0.955710	-0.306200
O144	O	0.490332	0.947159	0.122103
H145	H	0.484506	0.980592	0.163014
H146	H	0.222977	1.132076	-0.000284
O147	O	1.149084	0.205896	0.699715
H148	H	1.149043	0.146847	0.750500
O149	O	0.190701	1.081826	-0.477773
H150	H	0.196540	1.048380	-0.387233
H151	H	0.749431	0.281814	0.693927
O152	O	1.164200	0.273234	0.122216
H153	H	1.170795	0.243707	0.212719
H154	H	0.327297	0.821516	-0.107023
H155	H	0.749458	1.073269	-0.480651
H156	H	0.001174	0.821536	-0.107084
O157	O	0.677473	1.149207	-0.700155
H158	H	0.711726	1.166288	-0.674655
O159	O	1.029510	0.407937	0.277517
H160	H	0.972349	0.458430	0.212458
O161	O	0.759929	0.512584	-0.277843
H162	H	0.787517	0.457397	-0.286467
O163	O	0.560819	0.198502	-0.173334
H164	H	0.521806	0.204121	-0.231263
H165	H	0.605453	0.399322	0.305852
H166	H	0.605486	1.073309	-0.694359
H167	H	0.605459	0.955751	-0.519911
O168	O	0.205803	1.149228	-0.700123
H169	H	0.171587	1.124357	-0.700049
O170	O	0.560814	0.524576	-0.173239
H171	H	0.521803	0.530192	-0.231164
H172	H	0.471252	0.955748	-0.519901
H173	H	0.575639	0.057557	-0.151353
O174	O	0.999278	0.273208	0.722206
H175	H	1.056449	0.222703	0.787241
O176	O	0.864585	0.407882	0.522344
H177	H	0.870425	0.374445	0.612884
H178	H	0.779254	0.297513	0.150949
O179	O	0.759925	0.512568	-0.477684
H180	H	0.753255	0.525895	-0.562511
H181	H	1.145136	0.281832	0.480214
O182	O	0.490311	0.512570	0.122227
H183	H	0.484481	0.457389	0.163186
H184	H	0.353709	0.533549	0.106659
O185	O	1.029538	0.407894	0.122252
H186	H	1.061009	0.437409	0.088233
O187	O	0.164197	0.512590	0.122200
H188	H	0.158371	0.457405	0.163161
O189	O	0.625707	0.895143	-0.579064
H190	H	0.642243	0.917948	-0.655319
O191	O	0.029520	0.512584	0.122200
H192	H	-0.027643	0.525913	0.112315
O193	O	0.759911	0.407927	0.522301
H194	H	0.787488	0.374520	0.612835
O195	O	1.149035	0.205907	-0.000174
H196	H	1.183247	0.230779	-0.037038
O197	O	0.677458	0.205868	0.699805
H198	H	0.711725	0.188787	0.775981
H199	H	0.622176	0.876974	-0.726126
O200	O	-0.135428	0.842511	-0.122636
H201	H	-0.129605	0.897698	-0.163575
H202	H	0.531278	0.883715	-0.727394
O203	O	0.864556	0.407944	-0.122550
H204	H	0.870383	0.374539	-0.163502
H205	H	1.001133	0.281834	-0.106989
