data_functionalizedCrystal
_audit_creation_method	'MofGen! by Chris Wilmer'
_symmetry_space_group_name_H-M	'P1'
_symmetry_Int_Tables_number	1
_symmetry_cell_setting	triclinic
loop_
_symmetry_equiv_pos_as_xyz
  x,y,z
_cell_length_a	12.759401
_cell_length_b	12.759400
_cell_length_c	12.759393
_cell_angle_alpha	89.969510
_cell_angle_beta	89.979062
_cell_angle_gamma	90.016209
loop_
_atom_site_label
_atom_site_type_symbol
_atom_site_fract_x
_atom_site_fract_y
_atom_site_fract_z
Zn1	Zn	1.606266	-0.418173	-0.594020
Zn2	Zn	1.939600	-0.084839	-0.260687
Zn3	Zn	2.272933	0.248494	0.072646
Zn4	Zn	1.606158	-0.593888	-0.418340
Zn5	Zn	1.939491	-0.260555	-0.085007
Zn6	Zn	2.272824	0.072778	0.248326
Zn7	Zn	1.430565	-0.418229	-0.418355
Zn8	Zn	1.763899	-0.084895	-0.085022
Zn9	Zn	2.097232	0.248438	0.248311
Zn10	Zn	1.430557	-0.593815	-0.593978
Zn11	Zn	1.763890	-0.260482	-0.260644
Zn12	Zn	2.097224	0.072852	0.072689
O13	O	1.518387	-0.506026	-0.506173
O14	O	1.851720	-0.172693	-0.172840
O15	O	2.185053	0.160641	0.160493
O16	O	1.753273	-0.441489	-0.570727
O17	O	2.086606	-0.108156	-0.237394
O18	O	2.419940	0.225178	0.095939
O19	O	1.582823	-0.570641	-0.271321
O20	O	1.916156	-0.237307	0.062012
O21	O	2.249489	0.096026	0.395345
O22	O	1.453921	-0.271200	-0.441682
O23	O	1.787255	0.062133	-0.108348
O24	O	2.120588	0.395467	0.224985
O25	O	1.753193	-0.570587	-0.441656
O26	O	2.086526	-0.237253	-0.108323
O27	O	2.419860	0.096080	0.225010
O28	O	1.583008	-0.271159	-0.570742
O29	O	1.916342	0.062174	-0.237409
O30	O	2.249675	0.395508	0.095925
O31	O	1.453816	-0.441584	-0.271332
O32	O	1.787149	-0.108251	0.062001
O33	O	2.120482	0.225082	0.395334
O34	O	1.283543	-0.441513	-0.441640
O35	O	1.616876	-0.108180	-0.108307
O36	O	1.950210	0.225153	0.225026
O37	O	1.453908	-0.570461	-0.741004
O38	O	1.787241	-0.237128	-0.407671
O39	O	2.120574	0.096205	-0.074338
O40	O	1.283537	-0.570516	-0.570669
O41	O	1.616871	-0.237182	-0.237336
O42	O	1.950204	0.096151	0.095997
O43	O	1.583000	-0.441418	-0.741036
O44	O	1.916334	-0.108085	-0.407702
O45	O	2.249667	0.225249	-0.074369
O46	O	1.582815	-0.740900	-0.441615
O47	O	1.916148	-0.407566	-0.108281
O48	O	2.249482	-0.074233	0.225052
O49	O	1.453802	-0.740846	-0.570655
O50	O	1.787135	-0.407512	-0.237321
O51	O	2.120469	-0.074179	0.096012
C52	C	1.245419	-0.506013	-0.506152
C53	C	1.578753	-0.172680	-0.172819
C54	C	1.912086	0.160653	0.160514
C55	C	1.128643	-0.506033	-0.506168
C56	C	1.461976	-0.172700	-0.172835
C57	C	1.795309	0.160634	0.160498
C58	C	1.073805	-0.573307	-0.573248
C59	C	1.407138	-0.239974	-0.239915
C60	C	1.740472	0.093360	0.093419
C61	C	0.964081	-0.573311	-0.573269
C62	C	1.297414	-0.239978	-0.239936
C63	C	1.630748	0.093356	0.093398
C64	C	0.964042	-0.438764	-0.439122
C65	C	1.297375	-0.105431	-0.105788
C66	C	1.630708	0.227902	0.227545
C67	C	1.073764	-0.438756	-0.439107
C68	C	1.407097	-0.105423	-0.105773
C69	C	1.740430	0.227911	0.227560
C70	C	1.518324	-0.778994	-0.506151
C71	C	1.851658	-0.445660	-0.172818
C72	C	2.184991	-0.112327	0.160515
C73	C	1.518394	-0.895770	-0.506177
C74	C	1.851727	-0.562437	-0.172844
C75	C	2.185060	-0.229103	0.160489
C76	C	1.585645	-0.950625	-0.439060
C77	C	1.918979	-0.617292	-0.105727
C78	C	2.252312	-0.283959	0.227606
C79	C	1.585710	-1.060349	-0.439093
C80	C	1.919043	-0.727016	-0.105759
C81	C	2.252376	-0.393683	0.227574
C82	C	1.451262	-1.060353	-0.573362
C83	C	1.784596	-0.727020	-0.240028
C84	C	2.117929	-0.393687	0.093305
C85	C	1.451204	-0.950631	-0.573334
C86	C	1.784537	-0.617298	-0.240000
C87	C	2.117870	-0.283965	0.093333
C88	C	1.663264	-0.950624	-0.361538
C89	C	1.996598	-0.617291	-0.028205
C90	C	2.329931	-0.283957	0.305129
C91	C	1.663329	-1.060348	-0.361570
C92	C	1.996662	-0.727015	-0.028237
C93	C	2.329996	-0.393681	0.305096
C94	C	1.792420	-0.506040	-0.506195
C95	C	2.125753	-0.172706	-0.172862
C96	C	2.459087	0.160627	0.160472
C97	C	1.909197	-0.506046	-0.506204
C98	C	2.242530	-0.172712	-0.172871
C99	C	2.575863	0.160621	0.160463
C100	C	1.518465	-0.505925	-0.780207
C101	C	1.851799	-0.172592	-0.446873
C102	C	2.185132	0.160741	-0.113540
C103	C	1.518499	-0.505882	-0.896984
C104	C	1.851832	-0.172549	-0.563650
C105	C	2.185165	0.160784	-0.230317
C106	C	1.518478	-0.231993	-0.506218
C107	C	1.851811	0.101341	-0.172885
C108	C	2.185144	0.434674	0.160448
C109	C	1.518517	-0.115216	-0.506238
C110	C	1.851850	0.218117	-0.172904
C111	C	2.185183	0.551451	0.160429
C112	C	1.585722	-0.438679	-0.951864
C113	C	1.919056	-0.105345	-0.618530
C114	C	2.252389	0.227988	-0.285197
C115	C	1.585740	-0.438633	-1.061588
C116	C	1.919073	-0.105300	-0.728254
C117	C	2.252407	0.228033	-0.394921
C118	C	1.451308	-0.573004	-1.061542
C119	C	1.784641	-0.239671	-0.728209
C120	C	2.117974	0.093662	-0.394876
C121	C	1.451285	-0.573044	-0.951820
C122	C	1.784619	-0.239710	-0.618487
C123	C	2.117952	0.093623	-0.285153
C124	C	1.518369	-0.506051	-0.233206
C125	C	1.851702	-0.172717	0.100127
C126	C	2.185035	0.160616	0.433461
C127	C	1.518539	-0.505798	-0.116430
C128	C	1.851872	-0.172464	0.216904
C129	C	2.185205	0.160869	0.550237
H130	H	0.919437	-0.628090	-0.627893
H131	H	1.252771	-0.294757	-0.294560
H132	H	1.586104	0.038576	0.038773
H133	H	1.118414	-0.383967	-0.384482
H134	H	1.451747	-0.050634	-0.051149
H135	H	1.785080	0.282700	0.282184
H136	H	1.634138	-0.916676	-0.284211
H137	H	1.967471	-0.583343	0.049122
H138	H	2.300805	-0.250009	0.382455
F139	F	1.657254	-0.367197	-0.893506
F140	F	1.990587	-0.033864	-0.560173
F141	F	2.323921	0.299470	-0.226839
H142	H	1.396559	-1.105035	-0.628039
H143	H	1.729893	-0.771701	-0.294706
H144	H	2.063226	-0.438368	0.038628
F145	F	1.379640	-0.892254	-0.644782
F146	F	1.712973	-0.558921	-0.311449
F147	F	2.046306	-0.225587	0.021884
F148	F	1.769584	-0.911590	-0.390102
F149	F	2.102917	-0.578257	-0.056768
F150	F	2.436250	-0.244924	0.276565
H151	H	0.919346	-0.383991	-0.384521
H152	H	1.252679	-0.050658	-0.051187
H153	H	1.586013	0.282675	0.282146
F154	F	1.379728	-0.644570	-0.893409
F155	F	1.713061	-0.311237	-0.560076
F156	F	2.046395	0.022097	-0.226743
F157	F	1.379782	-0.644482	-1.119912
F158	F	1.713116	-0.311149	-0.786579
F159	F	2.046449	0.022184	-0.453246
F160	F	1.132208	-0.644906	-0.644624
F161	F	1.465541	-0.311573	-0.311290
F162	F	1.798874	0.021760	0.022043
F163	F	1.764363	-1.104720	-0.399769
F164	F	2.097696	-0.771387	-0.066436
F165	F	2.431029	-0.438053	0.266897
H166	H	1.641590	-1.090209	-0.280189
H167	H	1.974923	-0.756876	0.053144
H168	H	2.308257	-0.423543	0.386477
H169	H	1.640479	-0.383908	-1.106266
H170	H	1.973812	-0.050574	-0.772933
H171	H	2.307145	0.282759	-0.439599
