data_functionalizedCrystal
_audit_creation_method	'MofGen! by Chris Wilmer'
_symmetry_space_group_name_H-M	'P1'
_symmetry_Int_Tables_number	1
_symmetry_cell_setting	triclinic
loop_
_symmetry_equiv_pos_as_xyz
  x,y,z
_cell_length_a	23.532407
_cell_length_b	23.532407
_cell_length_c	9.130313
_cell_angle_alpha	89.996739
_cell_angle_beta	90.003577
_cell_angle_gamma	82.848712
loop_
_atom_site_label
_atom_site_type_symbol
_atom_site_fract_x
_atom_site_fract_y
_atom_site_fract_z
O1	O	0.069131	0.755256	0.121722
O2	O	0.569131	1.255256	0.621722
O3	O	0.079134	0.589392	0.121747
O4	O	0.579134	1.089392	0.621747
O5	O	-0.008799	0.677326	0.121707
O6	O	0.491201	1.177326	0.621707
O7	O	0.157064	0.667322	0.121762
O8	O	0.657064	1.167322	0.621762
O9	O	-0.008793	0.677325	-0.121892
O10	O	0.491207	1.177325	0.378108
O11	O	0.079140	0.589392	-0.121852
O12	O	0.579140	1.089392	0.378148
O13	O	0.069137	0.755256	-0.121877
O14	O	0.569137	1.255256	0.378123
Cu15	Cu	0.074139	0.672324	-0.144107
Cu16	Cu	0.574139	1.172324	0.355893
Cu17	Cu	0.074132	0.672324	0.143977
Cu18	Cu	0.574132	1.172324	0.643977
O19	O	0.157070	0.667322	-0.121837
O20	O	0.657070	1.167322	0.378163
C21	C	0.078882	0.568176	-0.000050
C22	C	0.578882	1.068176	0.499950
C23	C	0.078116	0.504959	-0.000041
C24	C	0.578116	1.004959	0.499959
C25	C	0.022921	0.238792	-0.000099
C26	C	0.522921	0.738792	0.499901
C27	C	0.023632	0.298192	-0.000099
C28	C	0.523632	0.798192	0.499901
O29	O	-0.020153	0.334937	-0.000164
O30	O	0.479847	0.834937	0.499836
N31	N	0.075909	0.320818	-0.000071
N32	N	0.575909	0.820818	0.499929
C33	C	0.127477	0.284041	-0.000060
C34	C	0.627477	0.784041	0.499940
O35	O	0.172007	0.308740	-0.000038
O36	O	0.672007	0.808740	0.499962
C37	C	0.126765	0.224642	-0.000071
C38	C	0.626765	0.724642	0.499929
C39	C	0.074485	0.202019	-0.000083
C40	C	0.574485	0.702019	0.499917
C41	C	-0.029354	0.216169	-0.000114
C42	C	0.470646	0.716169	0.499886
C43	C	-0.030066	0.156772	-0.000111
C44	C	0.469934	0.656772	0.499889
C45	C	0.021499	0.119999	-0.000095
C46	C	0.521499	0.619999	0.499905
C47	C	0.073774	0.142623	-0.000081
C48	C	0.573774	0.642623	0.499919
C49	C	0.178333	0.187865	-0.000069
C50	C	0.678333	0.687865	0.499931
C51	C	0.177616	0.128463	-0.000082
C52	C	0.677616	0.628463	0.499918
C53	C	0.125336	0.105840	-0.000094
C54	C	0.625336	0.605840	0.499906
C55	C	0.124627	0.046454	-0.000063
C56	C	0.624627	0.546454	0.499937
N57	N	0.072351	0.023828	-0.000090
N58	N	0.572351	0.523828	0.499910
C59	C	0.020787	0.060600	-0.000106
C60	C	0.520787	0.560600	0.499894
C61	C	0.128968	0.408783	-0.000039
C62	C	0.628968	0.908783	0.499961
C63	C	0.129681	0.468181	-0.000017
C64	C	0.629681	0.968181	0.499983
C65	C	0.025836	0.482328	-0.000059
C66	C	0.525836	0.982328	0.499941
C67	C	0.025124	0.422929	-0.000070
C68	C	0.525124	0.922929	0.499930
C69	C	0.076692	0.386157	-0.000066
C70	C	0.576692	0.886157	0.499934
C71	C	0.019297	-0.064136	-0.000101
C72	C	0.519297	0.435864	0.499899
C73	C	0.018590	-0.123538	-0.000092
C74	C	0.518590	0.376462	0.499908
C75	C	0.122435	-0.137680	-0.000058
C76	C	0.622435	0.362320	0.499942
C77	C	0.123142	-0.078284	-0.000059
C78	C	0.623142	0.421716	0.499941
C79	C	0.071568	-0.041512	-0.000085
C80	C	0.571568	0.458488	0.499915
O81	O	0.168390	0.009675	-0.000003
O82	O	0.668390	0.509675	0.499997
O83	O	-0.023737	0.035892	-0.000148
O84	O	0.476263	0.535892	0.499852
C85	C	-0.030012	0.677071	-0.000096
C86	C	0.469988	1.177071	0.499904
C87	C	-0.093229	0.676305	-0.000108
C88	C	0.406771	1.176305	0.499892
C89	C	-0.492332	0.723538	-0.000034
C90	C	0.007668	1.223538	0.499966
C91	C	-0.551733	0.722827	-0.000023
C92	C	-0.051733	1.222827	0.499977
O93	O	-0.588477	0.766613	0.000024
O94	O	-0.088477	1.266613	0.500024
N95	N	-0.574359	0.670551	-0.000016
N96	N	-0.074359	1.170551	0.499984
C97	C	-0.537581	0.618982	-0.000006
C98	C	-0.037581	1.118982	0.499994
O99	O	-0.562281	0.574452	0.000002
O100	O	-0.062281	1.074452	0.500002
C101	C	-0.478182	0.619695	-0.000007
C102	C	0.021818	1.119695	0.499993
C103	C	-0.455559	0.671974	-0.000028
C104	C	0.044441	1.171974	0.499972
C105	C	-0.469709	0.775814	-0.000055
C106	C	0.030291	1.275814	0.499945
C107	C	-0.410313	0.776525	-0.000069
C108	C	0.089687	1.276525	0.499931
C109	C	-0.373540	0.724961	-0.000062
C110	C	0.126460	1.224961	0.499938
C111	C	-0.396163	0.672685	-0.000042
C112	C	0.103837	1.172685	0.499958
C113	C	-0.441406	0.568127	0.000014
C114	C	0.058594	1.068127	0.500014
C115	C	-0.382003	0.568843	0.000015
C116	C	0.117997	1.068843	0.500015
C117	C	-0.359381	0.621123	-0.000007
C118	C	0.140619	1.121123	0.499993
C119	C	-0.299994	0.621832	-0.000050
C120	C	0.200006	1.121832	0.499950
N121	N	-0.277368	0.674109	-0.000057
N122	N	0.222632	1.174109	0.499943
C123	C	-0.314141	0.725673	-0.000063
C124	C	0.185859	1.225673	0.499937
C125	C	-0.662324	0.617491	-0.000002
C126	C	-0.162324	1.117491	0.499998
C127	C	-0.721722	0.616778	-0.000011
C128	C	-0.221722	1.116778	0.499989
C129	C	-0.735869	0.720623	-0.000026
C130	C	-0.235869	1.220623	0.499974
C131	C	-0.676470	0.721335	-0.000027
C132	C	-0.176470	1.221335	0.499973
C133	C	-0.639698	0.669767	-0.000009
C134	C	-0.139698	1.169767	0.499991
C135	C	-0.189404	0.727163	-0.000094
C136	C	0.310596	1.227163	0.499906
C137	C	-0.130002	0.727869	-0.000114
C138	C	0.369998	1.227869	0.499886
C139	C	-0.115860	0.624025	-0.000091
C140	C	0.384140	1.124025	0.499909
C141	C	-0.175257	0.623318	-0.000079
C142	C	0.324743	1.123318	0.499921
C143	C	-0.212028	0.674891	-0.000075
C144	C	0.287972	1.174891	0.499925
O145	O	-0.263215	0.578069	-0.000091
O146	O	0.236785	1.078069	0.499909
O147	O	-0.289433	0.770196	-0.000052
O148	O	0.210567	1.270196	0.499948
C149	C	0.178283	0.667577	-0.000031
C150	C	0.678283	1.167577	0.499969
C151	C	0.241500	0.668343	-0.000010
C152	C	0.741500	1.168343	0.499990
C153	C	0.069389	0.776472	-0.000077
C154	C	0.569389	1.276472	0.499923
C155	C	0.070155	0.839689	-0.000076
C156	C	0.570155	1.339689	0.499924
N157	N	0.074144	0.672328	-0.346730
N158	N	0.574144	1.172328	0.153270
C159	C	0.113052	0.633382	-0.576739
C160	C	0.613052	1.133382	-0.076739
C161	C	0.113061	0.633382	-0.423403
C162	C	0.613061	1.133382	0.076597
C163	C	0.035210	0.711273	-0.423402
C164	C	0.535210	1.211273	0.076598
C165	C	0.035199	0.711270	-0.576736
C166	C	0.535199	1.211270	-0.076736
C167	C	0.158000	0.588413	-0.576739
C168	C	0.658000	1.088413	-0.076739
C169	C	0.158010	0.588413	-0.423402
C170	C	0.658010	1.088413	0.076598
N171	N	0.074123	0.672325	0.346599
N172	N	0.574123	1.172325	0.846599
H173	H	-0.017447	0.404515	-0.000082
H174	H	0.482553	0.904515	0.499918
O175	O	-0.024203	0.518137	-0.000148
O176	O	0.475797	1.018137	0.499852
C177	C	-0.012358	0.575413	-0.000103
C178	C	0.487642	1.075413	0.499897
H179	H	0.032364	0.577440	-0.046201
H180	H	0.532364	1.077440	0.453799
H181	H	-0.045241	0.602512	-0.070840
H182	H	0.454759	1.102512	0.429160
H183	H	-0.014620	0.592602	0.116763
H184	H	0.485380	1.092602	0.616763
O185	O	-0.030816	-0.028445	0.000145
O186	O	0.469184	0.471555	0.500145
C187	C	-0.062578	-0.038676	0.126284
C188	C	0.437422	0.461324	0.626284
H189	H	-0.032390	-0.059144	0.214465
H190	H	0.467610	0.440856	0.714465
H191	H	-0.085668	0.003591	0.168634
H192	H	0.414332	0.503591	0.668634
H193	H	-0.095361	-0.068749	0.097753
H194	H	0.404639	0.431251	0.597753
H195	H	-0.111587	0.770443	-0.000135
H196	H	0.388413	1.270443	0.499865
O197	O	-0.771677	0.770662	0.000051
O198	O	-0.271677	1.270662	0.500051
C199	C	-0.828953	0.758817	0.000028
C200	C	-0.328953	1.258817	0.500028
H201	H	-0.830976	0.714095	0.046143
H202	H	-0.330976	1.214095	0.546143
H203	H	-0.856046	0.791700	0.070762
H204	H	-0.356046	1.291700	0.570762
H205	H	-0.846153	0.761079	-0.116834
H206	H	-0.346153	1.261079	0.383166
H207	H	0.201655	0.597510	-0.381804
H208	H	0.701655	1.097510	0.118196
O209	O	-0.346364	0.518696	-0.000033
O210	O	0.153636	1.018696	0.499967
C211	C	-0.379075	0.472406	0.000028
C212	C	0.120925	0.972406	0.500028
H213	H	-0.423492	0.487122	-0.046090
H214	H	0.076508	0.987122	0.453910
H215	H	-0.356970	0.436294	-0.070684
H216	H	0.143030	0.936294	0.429316
H217	H	-0.383213	0.456370	0.116902
H218	H	0.116787	0.956370	0.616902
O219	O	0.173891	-0.056240	-0.000242
O220	O	0.673891	0.443760	0.499758
C221	C	0.177417	-0.022322	-0.126437
C222	C	0.677417	0.477678	0.373563
H223	H	0.132444	-0.007277	-0.168504
H224	H	0.632444	0.492723	0.331496
H225	H	0.199898	0.016451	-0.098080
H226	H	0.699898	0.516451	0.401920
H227	H	0.202760	-0.048712	-0.214770
H228	H	0.702760	0.451288	0.285230
H229	H	0.003519	0.742980	-0.360965
H230	H	0.503519	1.242980	0.139035
O231	O	-0.388436	0.827360	-0.000013
O232	O	0.111564	1.327360	0.499987
C233	C	-0.433640	0.872713	-0.000050
C234	C	0.066360	1.372713	0.499950
H235	H	-0.473902	0.856976	0.046071
H236	H	0.026098	1.356976	0.546071
H237	H	-0.421430	0.909234	0.070670
H238	H	0.078570	1.409234	0.570670
H239	H	-0.442139	0.888603	-0.116917
H240	H	0.057861	1.388603	0.383083
O241	O	0.142102	0.539362	-0.366545
O242	O	0.642102	1.039362	0.133455
C243	C	0.092713	0.552625	-0.279620
C244	C	0.592713	1.052625	0.220380
H245	H	0.069028	0.595587	-0.315465
H246	H	0.569028	1.095587	0.184535
H247	H	0.063485	0.517827	-0.293383
H248	H	0.563485	1.017827	0.206617
H249	H	0.105687	0.555183	-0.159726
H250	H	0.605687	1.055183	0.340274
H251	H	-0.023984	-0.141954	-0.000099
H252	H	0.476016	0.358046	0.499901
O253	O	-0.743666	0.565979	0.000254
O254	O	-0.243666	1.065979	0.500254
C255	C	-0.724824	0.534563	0.126400
C256	C	-0.224824	1.034563	0.626400
H257	H	-0.712634	0.565141	0.214571
H258	H	-0.212634	1.065141	0.714571
H259	H	-0.760672	0.510538	0.168761
H260	H	-0.260672	1.010538	0.668761
H261	H	-0.685932	0.502606	0.097874
H262	H	-0.185932	1.002606	0.597874
O263	O	-0.080901	0.134896	-0.000208
O264	O	0.419099	0.634896	0.499792
C265	C	-0.126253	0.180099	-0.000192
C266	C	0.373747	0.680099	0.499808
H267	H	-0.110514	0.220365	-0.046290
H268	H	0.389486	0.720365	0.453710
H269	H	-0.162770	0.167896	-0.070944
H270	H	0.337230	0.667896	0.429056
H271	H	-0.142150	0.188589	0.116666
H272	H	0.357850	0.688589	0.616666
O273	O	-0.080190	0.573901	0.000118
O274	O	0.419810	1.073901	0.500118
C275	C	-0.090383	0.542152	0.126316
C276	C	0.409617	1.042152	0.626316
H277	H	-0.135523	0.556394	0.168369
H278	H	0.364477	1.056394	0.668369
H279	H	-0.085935	0.494627	0.097969
H280	H	0.414065	0.994627	0.597969
H281	H	-0.057934	0.549762	0.214656
H282	H	0.442066	1.049762	0.714656
O283	O	-0.463438	0.517377	0.000246
O284	O	0.036562	1.017377	0.500246
C285	C	-0.497352	0.513852	0.126439
C286	C	0.002648	1.013852	0.626439
H287	H	-0.512402	0.558826	0.168473
H288	H	-0.012402	1.058826	0.668473
H289	H	-0.536122	0.491364	0.098093
H290	H	-0.036122	0.991364	0.598093
H291	H	-0.470957	0.488517	0.214793
H292	H	0.029043	0.988517	0.714793
O293	O	0.207054	0.604315	-0.633574
O294	O	0.707054	1.104315	-0.133574
C295	C	0.193797	0.653718	-0.720471
C296	C	0.693797	1.153718	-0.220471
H297	H	0.150834	0.677400	-0.684633
H298	H	0.650834	1.177400	-0.184633
H299	H	0.228596	0.682940	-0.706667
H300	H	0.728596	1.182940	-0.206667
H301	H	0.191240	0.640762	-0.840376
H302	H	0.691240	1.140762	-0.340376
H303	H	-0.193677	0.580747	-0.000102
H304	H	0.306323	1.080747	0.499898
O305	O	-0.225037	0.777313	-0.000161
O306	O	0.274963	1.277313	0.499839
C307	C	-0.192321	0.823599	-0.000146
C308	C	0.307679	1.323599	0.499854
H309	H	-0.147909	0.808876	-0.046265
H310	H	0.352091	1.308876	0.453735
H311	H	-0.214429	0.859708	-0.070878
H312	H	0.285571	1.359708	0.429122
H313	H	-0.188172	0.839641	0.116715
H314	H	0.311828	1.339641	0.616715
H315	H	0.003495	0.742975	-0.639152
H316	H	0.503495	1.242975	-0.139152
H317	H	0.148872	0.544781	-0.618331
H318	H	0.648872	1.044781	-0.118331
H319	H	-0.071347	0.246104	-0.000131
H320	H	0.428653	0.746104	0.499869
O321	O	0.172560	-0.173349	-0.000239
O322	O	0.672560	0.326651	0.499761
C323	C	0.204315	-0.163147	-0.126414
C324	C	0.704315	0.336853	0.373586
H325	H	0.190072	-0.118005	-0.168472
H326	H	0.690072	0.381995	0.331528
H327	H	0.251838	-0.167594	-0.098033
H328	H	0.751838	0.332406	0.401967
H329	H	0.196712	-0.195592	-0.214762
H330	H	0.696712	0.304408	0.285238
H331	H	-0.499644	0.817806	-0.000054
H332	H	0.000356	1.317806	0.499946
H333	H	0.170964	0.378846	-0.000025
H334	H	0.670964	0.878846	0.499975
O335	O	0.180516	0.490058	-0.000053
O336	O	0.680516	0.990058	0.499947
C337	C	0.225871	0.444857	0.000002
C338	C	0.725871	0.944857	0.500002
H339	H	0.210138	0.404593	-0.046122
H340	H	0.710138	0.904593	0.453878
H341	H	0.262394	0.457068	-0.070707
H342	H	0.762394	0.957068	0.429293
H343	H	0.241755	0.436361	0.116876
H344	H	0.741755	0.936361	0.616876
H345	H	0.220904	0.206274	-0.000053
H346	H	0.720904	0.706274	0.499947
H347	H	-0.658055	0.763906	-0.000043
H348	H	-0.158055	1.263906	0.499957
O349	O	0.227763	0.092824	-0.000006
O350	O	0.727763	0.592824	0.499994
C351	C	0.274053	0.125534	-0.000030
C352	C	0.774053	0.625534	0.499970
H353	H	0.259335	0.169949	0.046082
H354	H	0.759335	0.669949	0.546082
H355	H	0.310161	0.103425	0.070705
H356	H	0.810161	0.603425	0.570705
H357	H	0.290095	0.129679	-0.116893
H358	H	0.790095	0.629679	0.383107
O359	O	-0.626547	0.567432	-0.000200
O360	O	-0.126547	1.067432	0.499800
C361	C	-0.591779	0.564727	-0.126382
C362	C	-0.091779	1.064727	0.373618
H363	H	-0.589018	0.609913	-0.168447
H364	H	-0.089018	1.109913	0.331553
H365	H	-0.547016	0.543246	-0.098009
H366	H	-0.047016	1.043246	0.401991
H367	H	-0.611187	0.538834	-0.214722
H368	H	-0.111187	1.038834	0.285278
