data_functionalizedCrystal
_audit_creation_method	'MofGen! by Chris Wilmer'
_symmetry_space_group_name_H-M	'P1'
_symmetry_Int_Tables_number	1
_symmetry_cell_setting	triclinic
loop_
_symmetry_equiv_pos_as_xyz
  x,y,z
_cell_length_a	18.215407
_cell_length_b	12.594516
_cell_length_c	18.215399
_cell_angle_alpha	89.977894
_cell_angle_beta	89.980167
_cell_angle_gamma	90.016501
loop_
_atom_site_label
_atom_site_type_symbol
_atom_site_fract_x
_atom_site_fract_y
_atom_site_fract_z
Zn1	Zn	1.125117	-0.423740	-0.416146
Zn2	Zn	1.125045	-0.601738	-0.293092
Zn3	Zn	1.002050	-0.423775	-0.293093
Zn4	Zn	1.002035	-0.601679	-0.416117
O5	O	1.063561	-0.512733	-0.354612
O6	O	1.228092	-0.447362	-0.399834
O7	O	1.108705	-0.578170	-0.190108
O8	O	1.018412	-0.274825	-0.309429
O9	O	1.228038	-0.578136	-0.309427
O10	O	1.108829	-0.274799	-0.399835
O11	O	1.018341	-0.447422	-0.190109
O12	O	0.899063	-0.447364	-0.309401
O13	O	1.018386	-0.578035	-0.519105
O14	O	0.899052	-0.578069	-0.399786
O15	O	1.108814	-0.447305	-0.519126
O16	O	1.108690	-0.750676	-0.309399
O17	O	1.018315	-0.750632	-0.399785
C18	C	0.872355	-0.512715	-0.354591
C19	C	0.790556	-0.512733	-0.354599
C20	C	0.602376	-0.580898	-0.401604
C21	C	0.525517	-0.580901	-0.401613
C22	C	0.525499	-0.444588	-0.307636
C23	C	0.602356	-0.444580	-0.307631
C24	C	0.640793	-0.512741	-0.354614
C25	C	0.487077	-0.512752	-0.354628
C26	C	0.403743	-0.512755	-0.354638
C27	C	0.724132	-0.512737	-0.354606
C28	C	1.063513	-0.789274	-0.354605
C29	C	1.063560	-0.907579	-0.354626
C30	C	1.014400	-0.976847	-0.403753
C31	C	0.996471	-1.047706	-0.336600
C32	C	1.081556	-1.047520	-0.421791
C33	C	1.045595	-0.976880	-0.287438
C34	C	1.130712	-0.976687	-0.372674
C35	C	1.112808	-1.047514	-0.305475
C36	C	1.255514	-0.512752	-0.354634
C37	C	1.337313	-0.512760	-0.354643
C38	C	1.063606	-0.512660	-0.546565
C39	C	1.063625	-0.512628	-0.628364
C40	C	1.063630	-0.235112	-0.354635
C41	C	1.063659	-0.116807	-0.354645
C42	C	1.110728	-0.444493	-0.816570
C43	C	1.110737	-0.444462	-0.893429
C44	C	1.016575	-0.580599	-0.893396
C45	C	1.016563	-0.580624	-0.816538
C46	C	1.063644	-0.512572	-0.778127
C47	C	1.063664	-0.512517	-0.931844
C48	C	1.063674	-0.512483	-1.015177
C49	C	1.063634	-0.512604	-0.694788
C50	C	1.063559	-0.512729	-0.163406
C51	C	1.063683	-0.512461	-0.081607
H52	H	0.494195	-0.389095	-0.269384
O53	O	0.639681	-0.646985	-0.447352
C54	C	0.620919	-0.623869	-0.520725
H55	H	0.599806	-0.538846	-0.524534
H56	H	0.671476	-0.633095	-0.557071
H57	H	0.576305	-0.680971	-0.539901
O58	O	1.162536	-1.084362	-0.255970
C59	C	1.215866	-1.145886	-0.292528
H60	H	1.218035	-1.121899	-0.352842
H61	H	1.271838	-1.131974	-0.266249
H62	H	1.200851	-1.233532	-0.288053
O63	O	1.099802	-1.084486	-0.489521
C64	C	1.170055	-1.046727	-0.508928
H65	H	1.201955	-1.025757	-0.457088
H66	H	1.200783	-1.110890	-0.540601
H67	H	1.164235	-0.973002	-0.544787
H68	H	0.978244	-0.636006	-0.924679
O69	O	1.156531	-0.378534	-0.779223
C70	C	1.204034	-0.439139	-0.734752
H71	H	1.208572	-0.522962	-0.757904
H72	H	1.260676	-0.400637	-0.733894
H73	H	1.181269	-0.442825	-0.676499
O74	O	0.970800	-0.646862	-0.779304
C75	C	0.929239	-0.706909	-0.829685
H76	H	0.959388	-0.710582	-0.884478
H77	H	0.921367	-0.790775	-0.807464
H78	H	0.873356	-0.667927	-0.837852
O79	O	1.156546	-0.378299	-0.930658
C80	C	1.198081	-0.318225	-0.880272
H81	H	1.200611	-0.361843	-0.825482
H82	H	1.256071	-0.306867	-0.902491
H83	H	1.171150	-0.237388	-0.872098
H84	H	0.494241	-0.636400	-0.439878
O85	O	0.964822	-0.939771	-0.453327
C86	C	1.001320	-0.878084	-0.506657
H87	H	1.061609	-0.902115	-0.508984
H88	H	0.974911	-0.891770	-0.562590
H89	H	0.996955	-0.790490	-0.491520
H90	H	0.633636	-0.389071	-0.269367
O91	O	0.928731	-1.084876	-0.318512
C92	C	0.877011	-1.048857	-0.370421
H93	H	0.906236	-1.028913	-0.424033
H94	H	0.834552	-1.113680	-0.380704
H95	H	0.848421	-0.974855	-0.348501
O96	O	1.027382	-0.939846	-0.219717
C97	C	1.027537	-0.827904	-0.220528
H98	H	1.019305	-0.798570	-0.279163
H99	H	0.981119	-0.797085	-0.184359
H100	H	1.082309	-0.797536	-0.198718
H101	H	1.187442	-0.945472	-0.387956
