data_functionalizedCrystal
_audit_creation_method	'MofGen! by Chris Wilmer'
_symmetry_space_group_name_H-M	'P1'
_symmetry_Int_Tables_number	1
_symmetry_cell_setting	triclinic
loop_
_symmetry_equiv_pos_as_xyz
  x,y,z
_cell_length_a	19.851628
_cell_length_b	20.875444
_cell_length_c	20.875641
_cell_angle_alpha	64.273268
_cell_angle_beta	90.005247
_cell_angle_gamma	61.739144
loop_
_atom_site_label
_atom_site_type_symbol
_atom_site_fract_x
_atom_site_fract_y
_atom_site_fract_z
Zr1	Zr	0.687023	0.663995	-0.047720
O2	O	0.589612	0.784739	-0.140454
O3	O	0.712229	0.538462	-0.023745
O4	O	0.723439	0.657075	-0.146861
O5	O	0.574856	0.673255	0.084843
O6	O	0.834299	0.657064	-0.146849
O7	O	0.578402	0.666126	-0.017338
O8	O	0.814248	0.444887	0.073382
O9	O	0.594907	0.885432	-0.135388
O10	O	0.811338	0.591861	-0.008131
O11	O	0.725957	0.597189	0.068116
O12	O	0.739155	0.736841	-0.076836
O13	O	0.653774	0.742169	-0.000588
Zr14	Zr	0.858177	0.675347	0.115266
Zr15	Zr	0.863833	0.663978	-0.047701
Zr16	Zr	0.681367	0.675364	0.115247
Zr17	Zr	0.695469	0.824588	-0.039641
Zr18	Zr	0.849731	0.514754	0.107187
O19	O	0.832970	0.800880	0.091292
O20	O	0.841013	0.784714	-0.140427
O21	O	0.581569	0.800905	0.091265
O22	O	0.955588	0.554603	0.208000
O23	O	0.963630	0.538437	-0.023719
O24	O	0.704187	0.554628	0.207973
O25	O	0.970344	0.666087	-0.017297
O26	O	0.821761	0.682267	0.214407
O27	O	0.710900	0.682278	0.214395
O28	O	0.966797	0.673216	0.084885
O29	O	0.735448	0.885418	-0.135373
O30	O	0.809752	0.453924	0.202919
O31	O	0.950292	0.453911	0.202934
O32	O	0.954788	0.444873	0.073397
O33	O	0.590411	0.894469	-0.005851
O34	O	0.730952	0.894455	-0.005836
O35	O	0.806045	0.602501	0.144382
O36	O	0.891425	0.597173	0.068134
O37	O	0.819242	0.742153	-0.000570
O38	O	0.733861	0.747481	0.075678
C39	C	0.762035	0.468794	0.023667
C40	C	0.758449	0.400618	0.020237
C41	C	0.732229	0.022296	-0.004605
C42	C	0.735598	0.086370	-0.001414
C43	C	0.793491	0.066869	0.053689
C44	C	0.848014	-0.016711	0.105609
C45	C	0.844642	-0.080782	0.102420
C46	C	0.809601	0.252966	0.068968
C47	C	0.812970	0.317046	0.072151
C48	C	0.700552	0.420122	-0.034871
C49	C	0.697188	0.356045	-0.038057
C50	C	0.751709	0.272471	0.013864
N51	N	0.796937	0.132361	0.056952
N52	N	0.748259	0.206981	0.010605
C53	C	0.551437	0.669693	0.033749
C54	C	0.476377	0.669700	0.033741
C55	C	0.255673	0.748732	-0.003695
C56	C	0.232203	0.705665	-0.035886
C57	C	0.338968	0.669679	0.033762
C58	C	0.228698	0.712750	0.065940
C59	C	0.206235	0.669665	0.033782
C60	C	0.316488	0.626610	0.001529
C61	C	0.312981	0.633709	0.103395
C62	C	0.289560	0.590584	0.071218
C63	C	0.415431	0.669690	0.033749
C64	C	0.129776	0.669648	0.033794
C65	C	0.993762	0.669649	0.033797
C66	C	1.068823	0.669642	0.033805
C67	C	0.779675	0.655450	-0.170074
C68	C	0.782076	0.650623	-0.239258
C69	C	0.783165	0.870548	0.043879
C70	C	0.786750	0.938724	0.047309
C71	C	0.745527	0.724031	-0.307624
C72	C	0.747793	0.719491	-0.372627
C73	C	0.786605	0.641542	-0.369263
C74	C	0.823159	0.568128	-0.300889
C75	C	0.820897	0.572669	-0.235888
C76	C	0.797415	0.619846	-0.559821
C77	C	0.799673	0.615311	-0.624830
C78	C	0.724308	0.766674	-0.696563
C79	C	0.722045	0.771208	-0.631557
C80	C	0.758603	0.697795	-0.563190
N81	N	0.788921	0.636899	-0.435705
N82	N	0.756292	0.702438	-0.496749
C83	C	0.765525	0.683892	0.237620
C84	C	0.763123	0.688719	0.306804
C85	C	0.983197	0.468772	0.023691
C86	C	1.054672	0.400588	0.020269
C87	C	0.754960	0.483015	0.227514
C88	C	0.748973	0.419666	0.293268
C89	C	0.976122	0.482993	0.227538
C90	C	1.045196	0.419636	0.293300
C91	C	0.569077	0.856349	-0.159991
C92	C	0.500004	0.919706	-0.225753
C93	C	0.562002	0.870570	0.043856
C94	C	0.490527	0.938754	0.047277
C95	C	0.790240	0.856327	-0.159968
C96	C	0.796227	0.919676	-0.225722
C97	C	1.046433	0.365795	-0.021155
C98	C	1.113586	0.301738	-0.024385
C99	C	1.188976	0.272470	0.013813
C100	C	1.197214	0.307269	0.055239
C101	C	1.130063	0.371330	0.058464
C102	C	0.787966	0.392689	0.363963
C103	C	0.782338	0.333175	0.425753
C104	C	0.737721	0.300634	0.416845
C105	C	0.698723	0.327616	0.346142
C106	C	0.704347	0.387134	0.284355
C107	C	1.122209	0.387102	0.284382
C108	C	1.187119	0.327580	0.346166
C109	C	1.175013	0.300589	0.416868
C110	C	1.097992	0.333130	0.425785
C111	C	1.033085	0.392655	0.364001
C112	C	0.422991	0.952248	-0.216835
C113	C	0.358082	1.011790	-0.278618
C114	C	0.370188	1.038784	-0.349320
C115	C	0.447209	1.006239	-0.358237
C116	C	0.512116	0.946703	-0.296454
C117	C	0.498767	0.973553	0.088695
C118	C	0.431616	1.037627	0.091907
C119	C	0.356226	1.066897	0.053707
C120	C	0.347987	1.032095	0.012285
C121	C	0.415138	0.968026	0.009068
C122	C	0.840850	0.952199	-0.216791
C123	C	0.846491	1.011714	-0.278568
C124	C	0.807503	1.038710	-0.349275
C125	C	0.762878	1.006182	-0.358205
C126	C	0.757242	0.946663	-0.296429
H127	H	0.685090	0.038184	-0.049479
Cl128	Cl	0.814593	1.113538	-0.426930
Cl129	Cl	0.271814	1.147441	0.057760
Cl130	Cl	0.624401	0.380567	-0.107330
Cl131	Cl	0.678355	0.858960	-0.782511
H132	H	0.190836	0.749179	0.093145
H133	H	1.243649	0.220307	0.011182
H134	H	0.560147	0.949727	0.119807
H135	H	0.317330	1.087262	-0.399622
H136	H	0.295375	1.038278	-0.271344
H137	H	0.691209	0.154416	-0.043695
H138	H	0.574822	0.920207	-0.303725
Cl139	Cl	0.253204	1.068897	-0.035731
H140	H	0.656164	0.488173	-0.077142
H141	H	0.354249	0.590216	-0.025744
Cl142	Cl	0.441990	1.081362	0.143988
H143	H	0.242088	0.815571	-0.035421
H144	H	0.824298	0.419178	0.371230
Cl145	Cl	0.178341	0.752611	-0.126791
H146	H	0.408418	0.939694	-0.024656
Cl147	Cl	1.140434	0.415057	0.110550
H148	H	0.872600	0.930228	-0.159223
H149	H	0.672596	0.409089	0.226793
Cl150	Cl	0.462414	1.040180	-0.447125
Cl151	Cl	0.730660	0.225810	0.494530
H152	H	0.690443	0.834683	-0.634305
H153	H	0.814098	0.311214	0.483316
H154	H	0.662396	0.301113	0.338900
H155	H	1.132081	0.409069	0.226818
Cl156	Cl	0.310694	0.487324	0.120076
H157	H	1.249827	0.301091	0.338893
H158	H	1.088147	0.311145	0.483358
H159	H	0.889037	-0.148831	0.144695
Cl160	Cl	0.878141	0.147910	0.134242
Cl161	Cl	0.902589	1.052600	-0.267325
Cl162	Cl	1.256620	0.225754	0.494532
H163	H	0.831277	0.551832	-0.622083
H164	H	0.970379	0.419137	0.371272
H165	H	0.347865	0.603330	0.162264
H166	H	0.413119	0.930272	-0.159272
Cl167	Cl	0.866856	0.480380	-0.149940
Cl168	Cl	0.713860	1.040137	-0.447099
Cl169	Cl	0.701130	0.905793	-0.307669
H170	H	0.895149	-0.032584	0.150477
Cl171	Cl	0.696731	0.822030	-0.311862
H172	H	0.985053	0.389624	-0.052270
H173	H	0.718033	0.779268	-0.428291
Cl174	Cl	0.885760	0.292525	0.141425
Cl175	Cl	0.843338	0.527554	-0.473882
H176	H	0.854765	0.504660	-0.298155
H177	H	1.106863	0.273412	-0.058117
Cl178	Cl	1.291997	0.270463	0.103259
