data_functionalizedCrystal
_audit_creation_method	'MofGen! by Chris Wilmer'
_symmetry_space_group_name_H-M	'P1'
_symmetry_Int_Tables_number	1
_symmetry_cell_setting	triclinic
loop_
_symmetry_equiv_pos_as_xyz
  x,y,z
_cell_length_a	14.971491
_cell_length_b	18.266242
_cell_length_c	14.971486
_cell_angle_alpha	90.005330
_cell_angle_beta	83.615182
_cell_angle_gamma	90.010790
loop_
_atom_site_label
_atom_site_type_symbol
_atom_site_fract_x
_atom_site_fract_y
_atom_site_fract_z
O1	O	1.186948	0.060913	0.116584
O2	O	0.926548	0.060907	0.130538
O3	O	1.063727	0.060905	-0.006638
O4	O	1.049768	0.060915	0.253761
O5	O	1.063704	-0.060857	-0.006642
O6	O	0.926525	-0.060855	0.130535
O7	O	1.186924	-0.060849	0.116581
Zn8	Zn	1.056721	-0.080184	0.123557
Zn9	Zn	1.056752	0.080242	0.123562
O10	O	1.049745	-0.060847	0.253757
C11	C	0.893212	0.000026	0.129912
C12	C	0.793915	0.000023	0.128039
C13	C	0.366222	0.066412	0.119961
C14	C	0.459522	0.066410	0.121718
C15	C	0.506155	0.000035	0.122600
C16	C	0.459484	-0.066342	0.121716
C17	C	0.366187	-0.066338	0.119953
C18	C	0.653946	-0.066344	0.125393
C19	C	0.747250	-0.066348	0.127158
C20	C	0.747282	0.066404	0.127158
C21	C	0.653984	0.066407	0.125395
C22	C	0.607319	0.000030	0.124513
N23	N	1.056706	-0.189671	0.123553
C24	C	1.111003	-0.227971	0.177897
C25	C	1.111018	-0.304616	0.177895
C26	C	1.056719	-0.342958	0.123558
C27	C	1.002419	-0.304650	0.069203
C28	C	1.002412	-0.228006	0.069200
N29	N	0.978374	-0.463313	0.121030
N30	N	0.978382	-0.536121	0.121038
C31	C	1.056737	-0.573881	0.123562
N32	N	1.135084	-0.536082	0.126095
N33	N	1.135074	-0.463267	0.126092
C34	C	1.056721	-0.426065	0.123555
C35	C	1.111055	-0.695287	0.177906
C36	C	1.111072	-0.771933	0.177898
C37	C	1.002464	-0.771966	0.069210
C38	C	1.002455	-0.695321	0.069214
C39	C	1.056749	-0.656986	0.123567
C40	C	1.220261	0.000034	0.117207
C41	C	1.319557	0.000041	0.119080
C42	C	1.063091	0.000024	-0.039965
C43	C	1.061221	0.000025	-0.139262
N44	N	1.056773	0.189729	0.123559
C45	C	1.141810	0.000026	-0.196486
C46	C	1.140046	0.000033	-0.289786
C47	C	1.057693	0.000034	-0.325859
C48	C	0.977098	0.000035	-0.268628
C49	C	0.978862	0.000033	-0.175331
C50	C	0.973427	0.000038	-0.463091
C51	C	0.971663	0.000039	-0.556395
C52	C	1.134611	0.000038	-0.577546
C53	C	1.136375	0.000036	-0.484248
C54	C	1.055780	0.000035	-0.427023
C55	C	1.050381	0.000035	0.287084
C56	C	1.052252	0.000040	0.386381
H57	H	0.785216	-0.120396	0.127881
H58	H	0.958195	-0.196823	0.024945
H59	H	0.328192	-0.120385	0.119245
H60	H	1.155293	-0.803115	0.222149
C61	C	0.942734	-0.814133	0.009437
C62	C	0.883001	-0.772000	-0.050340
C63	C	0.823273	-0.814171	-0.110119
C64	C	0.823278	-0.898476	-0.110121
C65	C	0.883013	-0.940614	-0.050342
C66	C	0.942741	-0.898443	0.009437
H67	H	0.882996	-0.709588	-0.050341
H68	H	0.779054	-0.782977	-0.154371
H69	H	0.779063	-0.929693	-0.154373
H70	H	0.883018	-1.003026	-0.050341
H71	H	0.986961	-0.929637	0.053689
H72	H	0.615953	-0.120396	0.124686
H73	H	0.497513	0.120456	0.122430
C74	C	0.510785	-0.139352	0.122692
C75	C	0.564839	-0.157593	0.201522
C76	C	0.616140	-0.230604	0.202504
C77	C	0.613389	-0.285373	0.124656
C78	C	0.559333	-0.267133	0.045820
C79	C	0.508032	-0.194123	0.044838
H80	H	0.566877	-0.117049	0.259155
H81	H	0.656156	-0.244106	0.260864
H82	H	0.651365	-0.339420	0.125383
H83	H	0.557295	-0.307678	-0.011813
H84	H	0.468016	-0.180621	-0.013522
H85	H	0.907797	0.000039	-0.416500
C86	C	1.170732	-0.185806	0.237680
C87	C	1.273408	-0.196328	0.224673
C88	C	1.333138	-0.154162	0.284455
C89	C	1.290193	-0.101475	0.357245
C90	C	1.187511	-0.090951	0.370255
C91	C	1.127781	-0.133117	0.310473
H92	H	1.305204	-0.235332	0.170787
H93	H	1.409149	-0.161953	0.274824
H94	H	1.334408	-0.070262	0.401500
H95	H	1.155716	-0.051947	0.424141
H96	H	1.051770	-0.125326	0.320104
C97	C	0.942716	-0.653188	0.009442
C98	C	0.985651	-0.600497	-0.063351
C99	C	0.925911	-0.558365	-0.123129
C100	C	0.823236	-0.568924	-0.110114
C101	C	0.780297	-0.621618	-0.037319
C102	C	0.840037	-0.663750	0.022459
H103	H	1.061661	-0.592678	-0.072988
H104	H	0.957698	-0.519357	-0.177017
H105	H	0.779013	-0.537736	-0.154366
H106	H	0.704286	-0.629437	-0.027682
H107	H	0.808249	-0.702758	0.076348
H108	H	1.200235	0.000040	-0.624143
C109	C	0.881070	0.000060	-0.596069
C110	C	0.857485	0.063299	-0.657288
C111	C	0.766890	0.063328	-0.696958
C112	C	0.699879	0.000117	-0.675409
C113	C	0.723462	-0.063127	-0.614188
C114	C	0.814058	-0.063155	-0.574518
H115	H	0.907092	0.110096	-0.673242
H116	H	0.749432	0.110145	-0.742278
H117	H	0.632814	0.000139	-0.704775
H118	H	0.673855	-0.109923	-0.598233
H119	H	0.831515	-0.109973	-0.529197
C120	C	1.170737	-0.346752	0.237693
C121	C	1.127776	-0.399437	0.310480
C122	C	1.187490	-0.441568	0.370284
C123	C	1.290165	-0.431015	0.357302
C124	C	1.333132	-0.378329	0.284512
C125	C	1.273418	-0.336197	0.224708
H126	H	1.051764	-0.407251	0.320093
H127	H	1.155682	-0.480571	0.424168
H128	H	1.334369	-0.462204	0.401572
H129	H	1.409144	-0.370515	0.274899
H130	H	1.305226	-0.297194	0.170824
C131	C	0.602687	0.139420	0.124429
C132	C	0.625600	0.194175	0.047061
C133	C	0.574304	0.267189	0.046094
C134	C	0.500095	0.285448	0.122495
C135	C	0.477178	0.230692	0.199868
C136	C	0.528474	0.157678	0.200835
H137	H	0.680538	0.180659	-0.009500
H138	H	0.591270	0.307723	-0.011183
H139	H	0.462123	0.339498	0.121779
H140	H	0.422240	0.244208	0.256429
H141	H	0.511509	0.117144	0.258112
H142	H	0.958209	-0.335873	0.024960
C143	C	1.170788	-0.653113	0.237679
C144	C	1.230531	-0.695245	0.297447
C145	C	1.290266	-0.653073	0.357218
C146	C	1.290259	-0.568768	0.357221
C147	C	1.230514	-0.526631	0.297452
C148	C	1.170778	-0.568803	0.237681
H149	H	1.230538	-0.757657	0.297446
H150	H	1.334493	-0.684267	0.401463
H151	H	1.334478	-0.537550	0.401467
H152	H	1.230506	-0.464219	0.297452
H153	H	1.126551	-0.537610	0.193435
H154	H	0.328259	0.120463	0.119249
H155	H	0.785281	0.120450	0.127878
H156	H	1.208871	0.000021	-0.167123
H157	H	1.205670	0.000033	-0.336374
H158	H	1.203434	0.000030	-0.454880
C159	C	0.886509	0.000041	-0.308310
C160	C	0.862873	-0.063185	-0.369548
C161	C	0.772283	-0.063179	-0.409228
C162	C	0.705329	0.000052	-0.387671
C163	C	0.728964	0.063282	-0.326430
C164	C	0.819554	0.063277	-0.286749
H165	H	0.912437	-0.109996	-0.385509
H166	H	0.754787	-0.109987	-0.454563
H167	H	0.638269	0.000056	-0.417045
H168	H	0.679399	0.110094	-0.310469
H169	H	0.837050	0.110085	-0.241414
H170	H	0.913238	0.000032	-0.128739
