data_functionalizedCrystal
_audit_creation_method	'MofGen! by Chris Wilmer'
_symmetry_space_group_name_H-M	'P1'
_symmetry_Int_Tables_number	1
_symmetry_cell_setting	triclinic
loop_
_symmetry_equiv_pos_as_xyz
  x,y,z
_cell_length_a	10.723024
_cell_length_b	10.723024
_cell_length_c	9.798715
_cell_angle_alpha	89.998022
_cell_angle_beta	89.996609
_cell_angle_gamma	84.467869
loop_
_atom_site_label
_atom_site_type_symbol
_atom_site_fract_x
_atom_site_fract_y
_atom_site_fract_z
O1	O	-1.657187	-0.175024	0.113478
O2	O	-1.294035	-0.191778	0.113483
O3	O	-1.483988	-0.001825	0.113475
O4	O	-1.467234	-0.364977	0.113486
O5	O	-1.483974	-0.001824	-0.113507
O6	O	-1.294021	-0.191777	-0.113499
O7	O	-1.657173	-0.175024	-0.113504
Zn8	Zn	-1.475595	-0.183401	-0.149540
Zn9	Zn	-1.475613	-0.183401	0.149519
O10	O	-1.467220	-0.364977	-0.113496
C11	C	-1.247528	-0.190558	-0.000008
C12	C	-1.108974	-0.186911	-0.000006
C13	C	-1.482762	0.044675	-0.000014
C14	C	-1.479114	0.183229	-0.000009
C15	C	-1.703680	-0.176243	-0.000010
C16	C	-1.842234	-0.179891	-0.000003
C17	C	-1.033991	-0.293198	-0.000002
C18	C	-0.890788	-0.289431	-0.000001
C19	C	-1.468447	-0.411477	-0.000004
C20	C	-1.472094	-0.550031	0.000000
N21	N	-1.475591	-0.183399	-0.353640
C22	C	-1.585401	0.258212	-0.000009
C23	C	-1.581634	0.401415	-0.000004
C24	C	-1.555347	-0.103292	-0.421420
C25	C	-1.555367	-0.103288	-0.578582
N26	N	-1.475627	-0.183393	0.353619
H27	H	-1.075814	-0.386984	-0.000007
H28	H	-1.381099	0.385544	-0.000010
H29	H	-1.623654	-0.034709	-0.636870
H30	H	-1.672624	0.465848	-0.000009
H31	H	-1.067152	-0.093125	0.000026
C32	C	-1.646434	-0.011703	-0.343913
C33	C	-1.719998	0.062223	-0.436903
C34	C	-1.803913	0.146622	-0.365559
H35	H	-1.698962	-0.056815	-0.288152
H36	H	-1.600919	0.040535	-0.288214
H37	H	-1.765510	0.009992	-0.492579
H38	H	-1.667505	0.107362	-0.492667
H39	H	-1.758398	0.198860	-0.309859
H40	H	-1.856432	0.101499	-0.309800
H41	H	-1.853828	0.196798	-0.428641
C42	C	-1.354141	0.239150	0.000209
C43	C	-1.345658	0.313114	0.116974
C44	C	-1.230555	0.364658	0.117213
H45	H	-1.287837	0.173668	0.000278
H46	H	-1.348133	0.289449	-0.078900
H47	H	-1.351654	0.262819	0.196063
H48	H	-1.411935	0.378617	0.116930
H49	H	-1.224546	0.414956	0.038103
H50	H	-1.164259	0.299167	0.117278
H51	H	-1.224788	0.414857	0.196429
C52	C	-0.804946	-0.410805	0.000287
C53	C	-0.828123	-0.480172	0.117083
C54	C	-0.749055	-0.591985	0.117404
H55	H	-0.820428	-0.458200	-0.078773
H56	H	-0.720097	-0.392200	0.000363
H57	H	-0.912952	-0.498781	0.116994
H58	H	-0.812633	-0.432815	0.196162
H59	H	-0.664206	-0.573379	0.117479
H60	H	-0.764544	-0.639368	0.038339
H61	H	-0.764762	-0.639058	0.196654
C62	C	-1.710338	0.202221	-0.000082
C63	C	-1.689236	0.071315	-0.000119
C64	C	-1.804300	0.019698	-0.000205
H65	H	-1.756568	0.229069	0.079049
H66	H	-1.756470	0.229143	-0.079269
H67	H	-1.643124	0.044403	0.079060
H68	H	-1.643025	0.044432	-0.079244
H69	H	-1.850432	0.046621	-0.079392
H70	H	-1.850522	0.046555	0.078927
H71	H	-1.789999	-0.069126	-0.000243
H72	H	-1.407345	-0.251984	-0.588102
C73	C	-1.384494	-0.274648	-0.431568
C74	C	-1.307436	-0.207631	-0.513643
C75	C	-1.223511	-0.291649	-0.585460
H76	H	-1.334332	-0.324943	-0.368822
H77	H	-1.430006	-0.326796	-0.487380
H78	H	-1.261928	-0.155505	-0.457835
H79	H	-1.357563	-0.157340	-0.576414
H80	H	-1.269023	-0.343797	-0.641272
H81	H	-1.173358	-0.341940	-0.522704
H82	H	-1.171225	-0.246191	-0.641165
H83	H	-0.906659	-0.088896	0.000002
