data_functionalizedCrystal
_audit_creation_method	'MofGen! by Chris Wilmer'
_symmetry_space_group_name_H-M	'P1'
_symmetry_Int_Tables_number	1
_symmetry_cell_setting	triclinic
loop_
_symmetry_equiv_pos_as_xyz
  x,y,z
_cell_length_a	20.919309
_cell_length_b	18.426585
_cell_length_c	18.426585
_cell_angle_alpha	90.001096
_cell_angle_beta	62.593117
_cell_angle_gamma	57.444219
loop_
_atom_site_label
_atom_site_type_symbol
_atom_site_fract_x
_atom_site_fract_y
_atom_site_fract_z
Zr1	Zr	0.700787	-0.126207	0.730074
O2	O	0.834341	-0.247979	0.620099
O3	O	0.567227	-0.084786	0.759696
O4	O	0.700784	-0.242084	0.765596
O5	O	0.700788	0.028744	0.614199
O6	O	0.700788	-0.242087	0.885022
O7	O	0.700784	-0.090681	0.614198
O8	O	0.461880	0.039290	0.874467
O9	O	0.939697	-0.252633	0.624754
O10	O	0.622168	-0.072066	0.866399
O11	O	0.622168	0.017063	0.777273
O12	O	0.779414	-0.168135	0.784221
O13	O	0.779414	-0.079007	0.695095
Zr14	Zr	0.700801	0.064258	0.920546
Zr15	Zr	0.700794	-0.126212	0.920545
Zr16	Zr	0.700794	0.064263	0.730075
Zr17	Zr	0.868818	-0.133629	0.737499
Zr18	Zr	0.532770	0.071680	0.913122
O19	O	0.834361	0.022837	0.890925
O20	O	0.834351	-0.247987	0.890924
O21	O	0.834351	0.022845	0.620100
O22	O	0.567247	0.186031	1.030522
O23	O	0.567237	-0.084793	1.030521
O24	O	0.567237	0.186038	0.759697
O25	O	0.700800	-0.090693	1.036422
O26	O	0.700804	0.180135	0.885024
O27	O	0.700800	0.180139	0.765598
O28	O	0.700804	0.028733	1.036422
O29	O	0.939703	-0.252637	0.776153
O30	O	0.461885	0.190688	0.874468
O31	O	0.461891	0.190684	1.025866
O32	O	0.461885	0.039286	1.025866
O33	O	0.939703	-0.101234	0.624755
O34	O	0.939708	-0.101239	0.776153
O35	O	0.622174	0.106187	0.866400
O36	O	0.622174	0.017058	0.955526
O37	O	0.779420	-0.079011	0.873347
O38	O	0.779420	0.010117	0.784221
C39	C	0.490613	-0.021691	0.816023
C40	C	0.419279	-0.018540	0.812872
C41	C	0.700785	-0.030968	0.587060
C42	C	0.700782	-0.030966	0.506200
C43	C	0.700803	0.207275	0.825311
C44	C	0.700806	0.288134	0.825311
C45	C	0.385766	-0.063584	0.857911
C46	C	0.318736	-0.060615	0.854952
C47	C	0.285224	-0.012606	0.806947
C48	C	0.318739	0.032443	0.761906
C49	C	0.385764	0.029479	0.764871
C50	C	0.082849	-0.001324	0.795673
C51	C	0.015822	0.001635	0.792709
C52	C	0.015822	-0.091422	0.885756
C53	C	0.082851	-0.094386	0.888713
C54	C	0.116358	-0.049333	0.843675
C55	C	0.216710	-0.009573	0.803919
C56	C	0.184866	-0.052362	0.846709
C57	C	0.910976	-0.040258	0.834597
C58	C	0.982309	-0.043409	0.837749
C59	C	0.700785	-0.269223	0.825309
C60	C	0.700782	-0.350083	0.825309
C61	C	0.700779	0.584250	0.825311
C62	C	0.700783	0.501864	0.825314
C63	C	0.700792	0.436195	0.825312
C64	C	0.700796	0.353804	0.825313
C65	C	0.700809	-0.030982	0.210087
C66	C	0.700806	-0.030980	0.292473
C67	C	0.700796	-0.030975	0.358141
C68	C	0.700792	-0.030971	0.440532
C69	C	0.700803	-0.030981	1.063560
C70	C	0.700806	-0.030983	1.144420
C71	C	0.490621	-0.021697	1.054273
C72	C	0.419291	-0.018548	1.131981
C73	C	0.490621	0.216559	0.816024
C74	C	0.419291	0.300569	0.812873
C75	C	0.490630	0.216552	1.054274
C76	C	0.419303	0.300560	1.131983
C77	C	0.910958	-0.278501	0.596346
C78	C	0.982285	-0.362509	0.518638
C79	C	0.910967	-0.040252	0.596347
C80	C	0.982297	-0.043400	0.518639
C81	C	0.910967	-0.278507	0.834596
C82	C	0.982297	-0.362518	0.837748
C83	C	0.385790	-0.063599	1.121951
C84	C	0.318776	-0.060659	1.194959
C85	C	0.285261	-0.012662	1.277997
C86	C	0.318768	0.032390	1.288026
C87	C	0.385785	0.029444	1.215019
C88	C	0.385797	0.386551	0.857916
C89	C	0.318783	0.465494	0.854952
C90	C	0.285261	0.458454	0.806949
C91	C	0.318762	0.372463	0.761900
C92	C	0.385778	0.293522	0.764860
C93	C	0.385807	0.293487	1.215006
C94	C	0.318796	0.372414	1.288029
C95	C	0.285278	0.458414	1.278026
C96	C	0.318781	0.465484	1.194994
C97	C	0.385795	0.386558	1.121973
C98	C	1.015790	-0.355436	0.435615
C99	C	1.082821	-0.434364	0.362593
C100	C	1.116342	-0.520364	0.372595
C101	C	1.082835	-0.527434	0.455627
C102	C	1.015810	-0.448508	0.528648
C103	C	1.015805	0.001643	0.528670
C104	C	1.082837	-0.001319	0.455663
C105	C	1.116355	-0.049319	0.372625
C106	C	1.082844	-0.094368	0.362596
C107	C	1.015818	-0.091411	0.435602
C108	C	1.015799	-0.355448	0.885759
C109	C	1.082812	-0.434377	0.888737
C110	C	1.116328	-0.520375	0.843698
C111	C	1.082820	-0.527442	0.795686
C112	C	1.015803	-0.448514	0.792713
H113	H	0.413051	-0.102682	0.896997
H114	H	1.170898	-0.584636	0.846126
H115	H	1.110111	0.035368	0.463846
H116	H	0.988520	-0.285432	0.922435
O117	O	0.286314	-0.104460	0.898718
C118	C	0.330255	-0.147456	0.941734
H119	H	0.398189	-0.159666	0.908247
H120	H	0.286306	-0.101923	1.012006
C121	C	0.262417	-0.224440	0.980163
C122	C	0.345858	-0.239444	0.939029
H123	H	0.272038	-0.281181	0.978498
H124	H	0.232810	-0.195471	0.951185
H125	H	0.225801	-0.186494	1.038719
H126	H	0.382467	-0.277380	0.880471
H127	H	0.375471	-0.268422	0.967997
H128	H	1.170932	-0.051720	0.313186
H129	H	0.413053	0.066136	1.223198
H130	H	0.988520	0.040735	0.596277
O131	O	1.181418	-0.596936	0.301566
C132	C	1.203809	-0.572241	0.226147
H133	H	1.145021	-0.499514	0.241005
H134	H	1.266781	-0.576396	0.203351
C135	C	1.294821	-0.727219	0.136237
C136	C	1.222613	-0.637897	0.154484
H137	H	1.306424	-0.767721	0.092030
H138	H	1.279739	-0.743858	0.187048
H139	H	1.347289	-0.730669	0.117245
H140	H	1.170144	-0.634446	0.173486
H141	H	1.237687	-0.621260	0.103675
H142	H	-0.011466	-0.128101	0.922425
H143	H	0.988531	-0.454277	0.596247
H144	H	-0.011460	0.040729	0.753614
H145	H	1.110119	-0.597472	0.759017
O146	O	1.115247	-0.140913	0.281970
C147	C	1.043730	-0.103520	0.269056
H148	H	0.976683	-0.066507	0.334482
H149	H	1.042833	-0.053240	0.232728
C150	C	1.139740	-0.226052	0.135287
C151	C	1.057392	-0.180598	0.215644
H152	H	1.148169	-0.273596	0.102337
H153	H	1.187924	-0.251243	0.143985
H154	H	1.138982	-0.184143	0.105025
H155	H	1.058156	-0.222504	0.245910
H156	H	1.009209	-0.155416	0.206951
O157	O	0.220148	0.534988	1.349054
C158	C	0.197792	0.510292	1.424474
H159	H	0.216266	0.439345	1.407835
H160	H	0.236987	0.509936	1.451786
C161	C	0.072779	0.666772	1.512881
C162	C	0.095462	0.579636	1.492445
H163	H	0.009658	0.709548	1.554811
H164	H	0.087842	0.683411	1.462070
H165	H	0.105449	0.666462	1.535636
H166	H	0.062801	0.579945	1.469681
H167	H	0.080391	0.562999	1.543255
H168	H	1.110087	-0.428605	0.927832
O169	O	0.286075	0.079009	1.368752
C170	C	0.219754	0.071926	1.431029
H171	H	0.190462	0.056075	1.400105
H172	H	0.251815	0.014810	1.456213
C173	C	0.179547	0.182223	1.544790
C174	C	0.143564	0.162763	1.506811
H175	H	0.132551	0.238253	1.591539
H176	H	0.224231	0.186993	1.502834
H177	H	0.206264	0.134620	1.565770
H178	H	0.116858	0.210359	1.485823
H179	H	0.098874	0.158003	1.548766
H180	H	0.988538	-0.128088	0.427423
H181	H	0.413040	0.223515	0.728183
O182	O	0.983399	-0.455553	0.745992
C183	C	1.027344	-0.548383	0.706898
H184	H	1.095268	-0.591887	0.700709
H185	H	0.983389	-0.568829	0.748551
C186	C	0.959545	-0.509969	0.623886
C187	C	1.042975	-0.563401	0.616278
H188	H	0.969184	-0.519233	0.567989
H189	H	0.929936	-0.447427	0.650227
H190	H	0.922924	-0.527014	0.658601
H191	H	1.079590	-0.546348	0.581573
H192	H	1.072591	-0.625941	0.589930
H193	H	0.110135	-0.133478	0.927802
O194	O	0.418222	0.210026	1.224887
C195	C	0.374228	0.220730	1.313829
H196	H	0.346694	0.289702	1.353129
H197	H	0.315955	0.217181	1.333637
C198	C	0.475899	0.059331	1.282868
C199	C	0.442088	0.144041	1.331137
H200	H	0.517756	0.012024	1.293546
H201	H	0.505537	0.052119	1.222946
H202	H	0.427331	0.056386	1.299380
H203	H	0.490654	0.146989	1.314618
H204	H	0.412459	0.151252	1.391057
O205	O	0.286145	-0.104298	1.185154
C206	C	0.247394	-0.068373	1.136558
H207	H	0.227268	0.003434	1.142029
H208	H	0.298764	-0.113766	1.065713
C209	C	0.187575	-0.153008	1.165066
C210	C	0.162850	-0.064810	1.171792
H211	H	0.135427	-0.150813	1.186797
H212	H	0.213685	-0.177215	1.197803
H213	H	0.230385	-0.190825	1.106027
H214	H	0.120049	-0.026997	1.230831
H215	H	0.136731	-0.040597	1.139066
O216	O	0.286175	0.365514	0.715342
C217	C	0.247374	0.320390	0.747864
H218	H	0.277662	0.277108	0.783261
H219	H	0.171043	0.372978	0.794726
C220	C	0.229989	0.311686	0.628794
C221	C	0.267195	0.258520	0.672264
H222	H	0.242211	0.273525	0.582162
H223	H	0.256127	0.342090	0.606885
H224	H	0.166382	0.355506	0.667855
H225	H	0.330801	0.214709	0.633206
H226	H	0.241068	0.228107	0.694165
H227	H	0.291525	0.366641	1.355631
H228	H	0.291481	0.535516	1.186863
H229	H	0.413059	0.392330	1.054374
H230	H	0.110119	0.035366	0.759004
O231	O	1.115228	-0.427319	0.282003
C232	C	1.071271	-0.334488	0.288843
H233	H	1.003342	-0.290990	0.353643
H234	H	1.115213	-0.314027	0.284567
C235	C	1.139087	-0.372905	0.134967
C236	C	1.055652	-0.319482	0.214552
H237	H	1.129456	-0.363648	0.089140
H238	H	1.168705	-0.435448	0.130358
H239	H	1.175697	-0.355848	0.131416
H240	H	1.019048	-0.336547	0.218106
H241	H	1.026027	-0.256941	0.219160
O242	O	0.286029	0.079272	0.715451
C243	C	0.247266	0.171788	0.748000
H244	H	0.227239	0.189067	0.818000
H245	H	0.298593	0.184446	0.707113
C246	C	0.187243	0.211188	0.658253
C247	C	0.162638	0.232411	0.744231
H248	H	0.135042	0.248583	0.655925
H249	H	0.213360	0.148858	0.636321
H250	H	0.230016	0.221736	0.624190
H251	H	0.119874	0.221851	0.778290
H252	H	0.136511	0.294741	0.766169
O253	O	0.418479	0.073095	0.721060
C254	C	0.512388	0.009218	0.659901
H255	H	0.540810	-0.053275	0.680710
H256	H	0.525173	-0.012156	0.593732
C257	C	0.524396	0.129486	0.628814
C258	C	0.559305	0.052734	0.654375
H259	H	0.553337	0.156329	0.625401
H260	H	0.461127	0.172522	0.670015
H261	H	0.535052	0.111663	0.573675
H262	H	0.548639	0.070559	0.709518
H263	H	0.622573	0.009702	0.613183
O264	O	0.183976	0.037265	0.757481
C265	C	0.145210	0.129780	0.790045
H266	H	0.125220	0.147036	0.860034
H267	H	0.196519	0.142453	0.749143
C268	C	0.085106	0.169214	0.700365
C269	C	0.060548	0.190410	0.786329
H270	H	0.032885	0.206615	0.698069
H271	H	0.111227	0.106885	0.678423
H272	H	0.127865	0.179776	0.666290
H273	H	0.017798	0.179838	0.820400
H274	H	0.034418	0.252740	0.808276
O275	O	0.418497	-0.110301	1.041254
C276	C	0.512406	-0.179754	0.998681
H277	H	0.540832	-0.161448	1.028945
H278	H	0.525193	-0.247051	1.005573
C279	C	0.524401	-0.211925	0.864812
C280	C	0.559316	-0.189438	0.901979
H281	H	0.553339	-0.217902	0.805161
H282	H	0.461132	-0.165136	0.893494
H283	H	0.535059	-0.268004	0.870564
H284	H	0.548648	-0.133355	0.896237
H285	H	0.622585	-0.236218	0.873293
H286	H	0.988500	-0.285418	0.427453
H287	H	0.413083	0.392300	0.897005
H288	H	0.230690	-0.010269	1.337436
O289	O	0.220129	0.535236	0.804204
C290	C	0.197776	0.612631	0.854242
H291	H	0.216253	0.594358	0.904246
H292	H	0.236970	0.636479	0.810170
C293	C	0.072758	0.712083	0.839474
C294	C	0.095446	0.689642	0.900895
H295	H	0.009637	0.759590	0.868249
H296	H	0.087820	0.659942	0.805760
H297	H	0.105428	0.731952	0.802752
H298	H	0.062785	0.669764	0.937609
H299	H	0.080376	0.741783	0.934616
H300	H	0.212149	-0.091446	0.885798
H301	H	1.110137	-0.597464	0.463762
H302	H	0.291515	0.535504	0.891639
