data_functionalizedCrystal
_audit_creation_method	'MofGen! by Chris Wilmer'
_symmetry_space_group_name_H-M	'P1'
_symmetry_Int_Tables_number	1
_symmetry_cell_setting	triclinic
loop_
_symmetry_equiv_pos_as_xyz
  x,y,z
_cell_length_a	14.044220
_cell_length_b	14.472310
_cell_length_c	14.044220
_cell_angle_alpha	89.998762
_cell_angle_beta	86.811122
_cell_angle_gamma	90.008418
loop_
_atom_site_label
_atom_site_type_symbol
_atom_site_fract_x
_atom_site_fract_y
_atom_site_fract_z
O1	O	1.277180	0.076746	-0.230162
O2	O	1.000508	0.076770	-0.221856
O3	O	1.134691	0.076749	-0.087673
O4	O	1.142997	0.076767	-0.364345
O5	O	1.134654	-0.076933	-0.087679
O6	O	1.000471	-0.076912	-0.221862
O7	O	1.277143	-0.076936	-0.230167
Cu8	Cu	1.138804	-0.090956	-0.226015
Cu9	Cu	1.138848	0.090790	-0.226009
O10	O	1.142960	-0.076915	-0.364350
C11	C	0.964868	-0.000069	-0.218223
C12	C	0.858725	-0.000060	-0.207379
N13	N	1.138780	-0.218787	-0.226019
C14	C	0.664388	-0.000079	-0.187553
C15	C	0.613258	-0.000078	-0.264467
C16	C	0.505122	-0.000089	-0.253435
C17	C	0.772534	-0.000069	-0.198583
C18	C	1.138846	-0.592879	-0.226005
C19	C	1.066762	-0.553702	-0.297518
C20	C	1.066968	-0.446614	-0.297819
C21	C	1.138812	-0.407287	-0.226012
C22	C	1.240266	-0.446131	-0.256192
C23	C	1.239871	-0.553253	-0.256710
C24	C	1.110345	-0.553412	-0.124155
C25	C	1.108117	-0.446285	-0.124630
C26	C	1.138800	-0.302399	-0.226015
C27	C	1.138866	-0.697767	-0.226005
C28	C	1.312783	-0.000096	-0.233800
C29	C	1.418926	-0.000098	-0.244645
C30	C	1.131037	-0.000092	-0.052054
C31	C	1.120193	-0.000092	0.054088
N32	N	1.138878	0.218621	-0.225997
C33	C	1.146614	-0.000072	-0.399969
C34	C	1.157459	-0.000066	-0.506112
C35	C	1.100366	-0.000077	0.248426
C36	C	1.177281	-0.000081	0.299556
C37	C	1.166249	-0.000072	0.407692
C38	C	1.111397	-0.000085	0.140280
H39	H	0.650697	-0.000069	-0.338600
H40	H	1.251414	-0.000025	0.262117
H41	H	0.626951	-0.000089	-0.113425
Cl42	Cl	0.950943	-0.406064	-0.268200
H43	H	1.026239	-0.000069	0.285863
H44	H	1.085627	-0.580608	-0.372490
Cl45	Cl	1.276659	-0.591813	-0.371787
H46	H	1.086045	-0.420976	-0.373224
Cl47	Cl	1.325751	-0.593267	-0.179928
Cl48	Cl	1.325606	-0.406805	-0.178458
Cl49	Cl	0.950398	-0.593485	-0.268124
H50	H	1.264447	-0.419291	-0.329931
H51	H	1.037514	-0.580475	-0.097225
H52	H	1.033443	-0.420897	-0.101922
H53	H	1.156561	-0.419518	-0.068267
H54	H	1.162814	-0.578746	-0.070838
