data_functionalizedCrystal
_audit_creation_method	'MofGen! by Chris Wilmer'
_symmetry_space_group_name_H-M	'P1'
_symmetry_Int_Tables_number	1
_symmetry_cell_setting	triclinic
loop_
_symmetry_equiv_pos_as_xyz
  x,y,z
_cell_length_a	10.654550
_cell_length_b	16.992695
_cell_length_c	9.730223
_cell_angle_alpha	89.995280
_cell_angle_beta	89.999957
_cell_angle_gamma	87.576577
loop_
_atom_site_label
_atom_site_type_symbol
_atom_site_fract_x
_atom_site_fract_y
_atom_site_fract_z
O1	O	1.677361	0.110190	-0.114188
O2	O	1.312790	0.120688	-0.114214
O3	O	1.493614	0.001288	-0.114190
O4	O	1.496537	0.229590	-0.114212
O5	O	1.493601	0.001285	0.114390
O6	O	1.312777	0.120685	0.114366
O7	O	1.677349	0.110187	0.114391
Zn8	Zn	1.495061	0.115435	0.150671
Zn9	Zn	1.495078	0.115439	-0.150493
O10	O	1.496525	0.229586	0.114368
C11	C	1.265919	0.119916	0.000073
C12	C	1.126277	0.117609	0.000064
C13	C	1.052866	0.187910	0.000061
C14	C	0.921658	0.185738	0.000085
C15	C	0.937282	0.042959	0.000109
C16	C	1.068488	0.045132	0.000095
C17	C	1.489848	-0.027946	0.000099
C18	C	1.478628	-0.115051	0.000098
C19	C	1.586879	-0.164703	0.000107
C20	C	1.576330	-0.246547	0.000093
C21	C	1.457529	-0.278738	0.000080
C22	C	1.349270	-0.229080	0.000067
C23	C	1.359820	-0.147237	0.000071
C24	C	1.413802	-0.522573	0.000058
C25	C	1.403260	-0.604422	0.000059
C26	C	1.630321	-0.621884	0.000082
C27	C	1.640861	-0.540039	0.000094
C28	C	1.532602	-0.490388	0.000074
N29	N	1.446743	-0.362395	0.000071
N30	N	1.543389	-0.406733	0.000074
C31	C	1.724220	0.110959	0.000102
C32	C	1.863862	0.113265	0.000102
C33	C	1.500291	0.258821	0.000075
C34	C	1.511510	0.345926	0.000068
N35	N	1.495059	0.115432	0.356207
N36	N	1.495089	0.115437	-0.356030
C37	C	1.575159	0.062584	0.428144
C38	C	1.575171	0.062584	0.572026
C39	C	1.414980	0.168287	0.572024
C40	C	1.414962	0.168282	0.428144
H41	H	0.890215	-0.016050	0.000142
C42	C	0.840906	0.263067	0.000075
H43	H	0.754487	0.251396	0.000102
H44	H	0.859190	0.292753	-0.079645
H45	H	0.859210	0.292755	0.079787
H46	H	1.271671	-0.106811	0.000064
C47	C	1.149245	-0.032203	0.000091
H48	H	1.096039	-0.075679	0.000091
H49	H	1.200762	-0.034323	0.079796
H50	H	1.200744	-0.034319	-0.079636
C51	C	1.326850	0.226401	0.651152
H52	H	1.279123	0.257863	0.587698
H53	H	1.375292	0.259334	0.707286
H54	H	1.271732	0.197849	0.707273
H55	H	1.306513	-0.630628	0.000070
C56	C	1.749398	-0.676497	0.000090
H57	H	1.821661	-0.645603	0.000106
H58	H	1.750007	-0.708783	-0.079622
H59	H	1.750000	-0.708791	0.079810
C60	C	1.663286	0.004455	0.651151
H61	H	1.710989	-0.027015	0.587697
H62	H	1.614826	-0.028468	0.707293
H63	H	1.718428	0.032990	0.707262
C64	C	1.218589	-0.264483	0.000042
H65	H	1.155629	-0.223189	0.000022
H66	H	1.209740	-0.296053	0.079749
H67	H	1.209766	-0.296041	-0.079683
H68	H	1.683620	-0.138501	0.000126
C69	C	1.695406	-0.301161	0.000117
H70	H	1.767670	-0.270268	0.000145
H71	H	1.696028	-0.333448	-0.079593
H72	H	1.695995	-0.333453	0.079839
C73	C	1.771542	-0.504635	0.000090
H74	H	1.834503	-0.545929	0.000079
H75	H	1.780378	-0.473074	0.079799
H76	H	1.780373	-0.473070	-0.079633
C77	C	1.326860	0.226421	0.349002
H78	H	1.338315	0.218844	0.253010
H79	H	1.345760	0.278861	0.372565
H80	H	1.242144	0.217413	0.372591
C81	C	1.116430	0.267631	0.000041
H82	H	1.053912	0.309188	0.000056
H83	H	1.167282	0.271450	-0.079674
H84	H	1.167293	0.271445	0.079757
C85	C	1.294721	-0.467968	0.000060
H86	H	1.222461	-0.498864	0.000071
H87	H	1.294110	-0.435671	-0.079647
H88	H	1.294117	-0.435686	0.079785
H89	H	1.640376	0.019549	0.369576
