data_functionalizedCrystal
_audit_creation_method	'MofGen! by Chris Wilmer'
_symmetry_space_group_name_H-M	'P1'
_symmetry_Int_Tables_number	1
_symmetry_cell_setting	triclinic
loop_
_symmetry_equiv_pos_as_xyz
  x,y,z
_cell_length_a	17.699097
_cell_length_b	11.792241
_cell_length_c	16.776229
_cell_angle_alpha	89.993219
_cell_angle_beta	89.989262
_cell_angle_gamma	83.740923
loop_
_atom_site_label
_atom_site_type_symbol
_atom_site_fract_x
_atom_site_fract_y
_atom_site_fract_z
O1	O	1.004838	0.143598	-0.066355
O2	O	0.784560	0.162256	-0.066342
O3	O	0.900044	-0.012307	-0.066343
O4	O	0.889353	0.318161	-0.066354
O5	O	0.900029	-0.012318	0.066233
O6	O	0.784544	0.162245	0.066235
O7	O	1.004822	0.143588	0.066222
Zn8	Zn	0.894681	0.152915	0.087278
Zn9	Zn	0.894701	0.152929	-0.087398
O10	O	0.889338	0.318151	0.066223
C11	C	0.756352	0.161579	-0.000052
C12	C	0.672324	0.159566	-0.000047
C13	C	0.156548	0.147232	-0.072346
C14	C	0.235502	0.149115	-0.072342
C15	C	0.274965	0.150053	-0.000072
C16	C	0.235470	0.149096	0.072200
C17	C	0.156518	0.147204	0.072195
C18	C	0.553875	0.156725	0.072221
C19	C	0.632832	0.158620	0.072220
C20	C	0.632859	0.158636	-0.072317
C21	C	0.553907	0.156744	-0.072321
C22	C	0.514420	0.155781	-0.000051
C23	C	0.428809	0.153736	-0.000056
C24	C	0.360573	0.152106	-0.000066
C25	C	0.899365	-0.054595	-0.000055
C26	C	0.897355	-0.180585	-0.000056
C27	C	0.893659	-0.411253	-0.000069
C28	C	0.895712	-0.282893	-0.000062
C29	C	1.033030	0.144264	-0.000070
C30	C	1.117058	0.146278	-0.000080
C31	C	0.890017	0.360439	-0.000067
C32	C	0.892027	0.486429	-0.000071
N33	N	0.894672	0.152904	0.206489
N34	N	0.894716	0.152930	-0.206609
C35	C	0.945825	0.075640	0.248205
C36	C	0.945829	0.075639	0.331658
C37	C	0.894684	0.152909	0.373392
C38	C	0.843526	0.230177	0.331669
C39	C	0.843519	0.230172	0.248219
C40	C	0.843554	0.230200	0.668216
C41	C	0.843566	0.230201	0.751673
C42	C	0.945864	0.075666	0.751655
C43	C	0.945856	0.075661	0.668205
C44	C	0.894696	0.152925	0.626490
C45	C	0.894691	0.152924	0.536001
C46	C	0.894692	0.152916	0.463878
H47	H	0.124366	0.146439	0.131042
H48	H	0.987506	0.012744	0.634227
C49	C	0.788030	0.314251	0.376873
C50	C	0.800737	0.425759	0.356539
C51	C	0.749621	0.503240	0.398154
H52	H	0.795304	0.303353	0.432561
H53	H	0.737455	0.302078	0.363195
H54	H	0.851300	0.437928	0.370223
H55	H	0.793457	0.436693	0.300858
H56	H	0.699046	0.491067	0.384475
H57	H	0.756899	0.492332	0.453840
H58	H	0.758231	0.578907	0.384358
C59	C	0.675650	0.159493	-0.150846
C60	C	0.664549	0.061452	-0.194459
C61	C	0.703944	0.062215	-0.266805
H62	H	0.728340	0.160693	-0.140611
H63	H	0.657202	0.225314	-0.180580
H64	H	0.683000	-0.004352	-0.164730
H65	H	0.611867	0.060231	-0.204714
H66	H	0.685496	0.128036	-0.296540
H67	H	0.756632	0.063418	-0.256563
H68	H	0.696412	-0.004298	-0.296409
C69	C	0.511004	0.155959	-0.150764
C70	C	0.457577	0.252492	-0.155002
C71	C	0.418050	0.251811	-0.227257
H72	H	0.485637	0.089138	-0.153844
H73	H	0.545803	0.156856	-0.193826
H74	H	0.422783	0.251585	-0.111951
H75	H	0.482924	0.319328	-0.151936
H76	H	0.452849	0.252708	-0.270320
H77	H	0.392688	0.184986	-0.230331
H78	H	0.381801	0.317312	-0.230146
C79	C	0.510879	0.155607	0.150601
C80	C	0.433293	0.153705	0.135137
C81	C	0.393660	0.152650	0.207324
H82	H	0.518217	0.222047	0.180362
H83	H	0.529279	0.089723	0.180294
H84	H	0.414898	0.219582	0.105457
H85	H	0.425931	0.087269	0.105387
H86	H	0.412061	0.086766	0.237017
H87	H	0.401005	0.219092	0.237080
H88	H	0.341015	0.151349	0.196842
C89	C	0.675548	0.159567	0.150773
C90	C	0.624072	0.158284	0.214065
C91	C	0.663396	0.159141	0.286435
H92	H	0.700851	0.226445	0.153895
H93	H	0.711834	0.094119	0.153816
H94	H	0.587801	0.223725	0.211025
H95	H	0.598768	0.091410	0.210971
H96	H	0.699682	0.093693	0.289477
H97	H	0.688697	0.226020	0.289548
H98	H	0.628477	0.158260	0.329387
H99	H	0.801915	0.293126	0.785652
H100	H	0.801865	0.293087	0.214254
C101	C	1.001525	-0.008109	0.796903
C102	C	1.075967	0.010183	0.776596
C103	C	1.127262	-0.066957	0.818267
H104	H	0.993098	-0.083891	0.783267
H105	H	0.994257	0.002954	0.852589
H106	H	1.083232	-0.000890	0.720923
H107	H	1.084419	0.085949	0.790235
H108	H	1.119994	-0.055893	0.873953
H109	H	1.118827	-0.142733	0.804627
H110	H	1.177776	-0.054549	0.804500
C111	C	0.278181	0.150049	0.150750
C112	C	0.226699	0.148776	0.214037
C113	C	0.266016	0.149640	0.286411
H114	H	0.303484	0.216928	0.153871
H115	H	0.314466	0.084602	0.153800
H116	H	0.190428	0.214217	0.210990
H117	H	0.201394	0.081902	0.210944
H118	H	0.302301	0.084192	0.289460
H119	H	0.291317	0.216519	0.289523
H120	H	0.231093	0.148765	0.329360
C121	C	0.787936	0.313915	0.622886
C122	C	0.741339	0.253551	0.575010
C123	C	0.690091	0.330639	0.533242
H124	H	0.815267	0.361134	0.590254
H125	H	0.757436	0.359927	0.659666
H126	H	0.771835	0.207559	0.538234
H127	H	0.713991	0.206336	0.607621
H128	H	0.659591	0.376650	0.570022
H129	H	0.717428	0.377854	0.500615
H130	H	0.658464	0.289693	0.500759
H131	H	0.124423	0.146476	-0.131197
C132	C	1.001389	-0.008384	0.203042
C133	C	1.046172	-0.076070	0.257442
C134	C	1.097358	-0.153499	0.215869
H135	H	1.033129	0.032250	0.170470
H136	H	0.973988	-0.055646	0.170519
H137	H	1.073571	-0.028813	0.289951
H138	H	1.014452	-0.116729	0.290015
H139	H	1.069957	-0.200761	0.183346
H140	H	1.129092	-0.112855	0.183299
H141	H	1.127744	-0.199440	0.252773
H142	H	0.267651	0.149885	-0.131188
C143	C	1.001250	-0.008378	0.376987
C144	C	0.960667	-0.077815	0.424899
C145	C	1.011699	-0.155238	0.466657
H146	H	1.032942	0.032262	0.409593
H147	H	1.031699	-0.054454	0.340201
H148	H	0.930231	-0.031744	0.461681
H149	H	0.928978	-0.118480	0.392313
H150	H	1.042147	-0.201315	0.429871
H151	H	1.043387	-0.114589	0.499258
H152	H	0.984170	-0.202367	0.499164
