data_functionalizedCrystal
_audit_creation_method	'MofGen! by Chris Wilmer'
_symmetry_space_group_name_H-M	'P1'
_symmetry_Int_Tables_number	1
_symmetry_cell_setting	triclinic
loop_
_symmetry_equiv_pos_as_xyz
  x,y,z
_cell_length_a	12.594517
_cell_length_b	12.594516
_cell_length_c	12.759387
_cell_angle_alpha	89.968678
_cell_angle_beta	89.978484
_cell_angle_gamma	90.011616
loop_
_atom_site_label
_atom_site_type_symbol
_atom_site_fract_x
_atom_site_fract_y
_atom_site_fract_z
Zn1	Zn	1.627300	-0.423679	-0.594085
Zn2	Zn	1.627204	-0.601700	-0.418408
Zn3	Zn	1.449304	-0.423736	-0.418414
Zn4	Zn	1.449300	-0.601616	-0.594039
O5	O	1.538277	-0.512683	-0.506236
O6	O	1.776233	-0.447306	-0.570798
O7	O	1.603566	-0.578152	-0.271387
O8	O	1.472957	-0.274782	-0.441739
O9	O	1.776162	-0.578097	-0.441729
O10	O	1.603731	-0.274741	-0.570804
O11	O	1.472864	-0.447402	-0.271392
O12	O	1.300357	-0.447320	-0.441694
O13	O	1.472950	-0.577953	-0.741066
O14	O	1.300354	-0.578008	-0.570725
O15	O	1.603727	-0.447224	-0.741100
O16	O	1.603562	-0.750635	-0.441683
O17	O	1.472857	-0.750573	-0.570719
C18	C	1.261736	-0.512661	-0.506206
C19	C	1.143430	-0.512678	-0.506217
C20	C	1.074148	-0.441500	-0.436171
C21	C	1.003344	-0.538590	-0.410330
C22	C	1.003435	-0.415635	-0.532076
C23	C	1.074185	-0.609819	-0.480326
C24	C	1.074282	-0.486799	-0.602117
C25	C	1.003510	-0.583956	-0.576312
C26	C	1.538227	-0.789224	-0.506218
C27	C	1.538304	-0.907529	-0.506245
C28	C	1.609477	-0.976777	-0.436138
C29	C	1.635488	-1.047468	-0.532032
C30	C	1.512426	-1.047637	-0.410412
C31	C	1.564364	-0.976662	-0.602190
C32	C	1.441257	-0.976825	-0.480505
C33	C	1.467231	-1.047483	-0.576466
C34	C	1.815898	-0.512705	-0.506268
C35	C	1.934203	-0.512714	-0.506282
C36	C	1.538349	-0.512573	-0.780270
C37	C	1.538380	-0.512526	-0.897047
C38	C	1.538355	-0.235062	-0.506278
C39	C	1.538389	-0.116757	-0.506295
C40	C	1.402288	-0.376367	-0.897070
C41	C	1.334262	-0.308266	-0.951943
C42	C	1.334294	-0.308228	-1.061665
C43	C	1.402357	-0.376300	-1.116516
C44	C	1.470383	-0.444400	-1.061644
C45	C	1.470346	-0.444429	-0.951920
C46	C	1.606468	-0.580563	-1.061620
C47	C	1.606443	-0.580598	-0.951898
C48	C	1.674531	-0.648635	-1.116472
C49	C	1.742565	-0.716732	-1.061599
C50	C	1.742531	-0.716767	-0.951871
C51	C	1.674469	-0.648699	-0.897026
C52	C	1.538266	-0.512716	-0.233269
C53	C	1.538442	-0.512463	-0.116493
H54	H	0.972689	-0.644234	-0.635575
H55	H	1.105132	-0.691927	-0.458391
O56	O	1.808787	-0.782698	-1.114927
C57	C	1.877549	-0.722092	-1.178442
H58	H	1.884147	-0.638273	-1.145398
H59	H	1.959448	-0.760600	-1.179692
H60	H	1.844657	-0.718396	-1.261593
O61	O	1.674479	-0.648769	-1.223055
C62	C	1.647148	-0.750768	-1.259697
H63	H	1.600695	-0.794783	-1.196464
H64	H	1.596152	-0.743110	-1.333109
H65	H	1.722494	-0.796888	-1.279147
O66	O	1.808710	-0.782959	-0.898733
C67	C	1.868761	-0.843048	-0.970679
H68	H	1.872488	-0.799425	-1.048902
H69	H	1.952608	-0.854437	-0.938984
H70	H	1.829748	-0.923871	-0.982328
O71	O	1.268046	-0.242112	-0.898822
C72	C	1.208030	-0.181981	-0.970784
H73	H	1.204356	-0.225551	-1.048988
H74	H	1.124162	-0.170626	-0.939081
H75	H	1.247039	-0.101146	-0.982472
H76	H	1.105465	-0.464858	-0.683165
H77	H	1.278899	-0.252776	-1.106342
O78	O	1.674430	-0.648929	-0.790443
C79	C	1.647013	-0.750938	-0.753762
H80	H	1.665196	-0.812230	-0.816979
H81	H	1.694985	-0.769891	-0.680352
H82	H	1.558689	-0.753181	-0.734294
H83	H	0.972302	-0.333563	-0.553885
H84	H	1.669676	-0.945730	-0.376904
O85	O	1.402580	-0.376257	-1.223099
C86	C	1.504603	-0.348896	-1.259772
H87	H	1.565888	-0.367114	-1.196545
H88	H	1.523526	-0.396880	-1.333171
H89	H	1.506894	-0.260574	-1.279255
H90	H	1.105164	-0.381366	-0.376863
H91	H	1.490503	-1.078812	-0.329347
O92	O	1.733501	-1.084450	-0.557867
C93	C	1.808262	-1.048412	-0.483748
H94	H	1.765969	-1.028634	-0.407204
H95	H	1.869738	-1.113159	-0.469090
H96	H	1.849533	-0.974305	-0.515014
O97	O	1.402094	-0.376298	-0.790488
C98	C	1.327459	-0.301595	-0.753841
H99	H	1.265295	-0.286657	-0.817069
H100	H	1.287036	-0.333725	-0.680423
H101	H	1.369691	-0.223999	-0.734397
H102	H	1.359174	-0.945768	-0.458678
O103	O	0.966214	-0.564557	-0.313551
C104	C	1.002216	-0.489314	-0.239899
H105	H	1.022112	-0.411857	-0.281804
H106	H	0.937403	-0.474331	-0.179296
H107	H	1.076244	-0.520908	-0.199038
O108	O	1.590787	-0.939765	-0.698937
C109	C	1.692855	-0.976612	-0.726086
H110	H	1.711698	-1.051380	-0.679264
H111	H	1.695278	-0.995567	-0.813409
H112	H	1.754121	-0.912686	-0.707540
O113	O	1.395482	-1.084476	-0.647218
C114	C	1.395722	-1.196417	-0.645888
H115	H	1.427435	-1.225597	-0.567317
H116	H	1.311328	-1.226928	-0.657553
H117	H	1.448596	-1.227244	-0.711716
