data_functionalizedCrystal
_audit_creation_method	'MofGen! by Chris Wilmer'
_symmetry_space_group_name_H-M	'P1'
_symmetry_Int_Tables_number	1
_symmetry_cell_setting	triclinic
loop_
_symmetry_equiv_pos_as_xyz
  x,y,z
_cell_length_a	17.699077
_cell_length_b	8.597304
_cell_length_c	16.176319
_cell_angle_alpha	82.293375
_cell_angle_beta	89.993140
_cell_angle_gamma	84.313138
loop_
_atom_site_label
_atom_site_type_symbol
_atom_site_fract_x
_atom_site_fract_y
_atom_site_fract_z
O1	O	1.005727	0.198423	-0.082865
O2	O	0.785562	0.224254	-0.084709
O3	O	0.899976	-0.017147	-0.067511
O4	O	0.891313	0.439823	-0.100063
O5	O	0.899960	-0.017162	0.069983
O6	O	0.785546	0.224238	0.052786
O7	O	1.005711	0.198408	0.054629
Cu8	Cu	0.895627	0.211322	0.066262
Cu9	Cu	0.895646	0.211340	-0.096341
O10	O	0.891297	0.439808	0.037432
C11	C	0.757349	0.223322	-0.015896
C12	C	0.673308	0.220550	-0.015700
C13	C	0.633821	0.219236	0.059342
C14	C	0.554857	0.216606	0.059530
C15	C	0.515380	0.215302	-0.015326
C16	C	0.554873	0.216612	-0.090373
C17	C	0.633837	0.219231	-0.090560
C18	C	0.236422	0.206051	-0.089622
C19	C	0.157453	0.203437	-0.089430
C20	C	0.157442	0.203426	0.060467
C21	C	0.236406	0.206045	0.060281
C22	C	0.275892	0.207346	-0.014766
C23	C	0.361514	0.210194	-0.014969
C24	C	0.429759	0.212465	-0.015124
C25	C	0.899037	-0.075623	0.005399
C26	C	0.896254	-0.249840	0.017804
C27	C	1.033924	0.199339	-0.014185
C28	C	1.117965	0.202111	-0.014387
C29	C	0.892236	0.498284	-0.035481
C30	C	0.895019	0.672501	-0.047891
N31	N	0.895619	0.211308	0.180628
N32	N	0.895660	0.211341	-0.210707
C33	C	0.946297	0.104459	0.231504
C34	C	0.946301	0.104458	0.318051
C35	C	0.895630	0.211313	0.353720
C36	C	0.844946	0.318167	0.302837
C37	C	0.844939	0.318160	0.216292
C38	C	0.844972	0.318196	0.651864
C39	C	0.844985	0.318198	0.738415
C40	C	0.946334	0.104494	0.753622
C41	C	0.946327	0.104487	0.667077
C42	C	0.895641	0.211334	0.616203
C43	C	0.895637	0.211333	0.522359
C44	C	0.895637	0.211323	0.447562
H45	H	0.522711	0.215509	0.120639
N46	N	0.278977	0.207462	0.141020
H47	H	0.270651	0.109752	0.180747
H48	H	0.334975	0.209383	0.129445
N49	N	0.114871	0.202004	-0.170167
H50	H	0.076691	0.298168	-0.180364
H51	H	0.151916	0.203159	-0.217687
H52	H	0.987563	0.017452	0.202469
N53	N	0.894836	-0.338313	0.104890
H54	H	0.896057	-0.261740	0.146965
H55	H	0.846954	-0.393330	0.112032
N56	N	1.000988	-0.010732	0.372922
H57	H	1.033099	-0.078399	0.337192
H58	H	1.034876	0.049333	0.404524
N59	N	0.896451	-0.239036	-0.134972
H60	H	0.895232	-0.315607	-0.177049
H61	H	0.850745	-0.158203	-0.143953
N62	N	0.676396	0.220658	0.140079
H63	H	0.639396	0.219424	0.187645
H64	H	0.714578	0.124494	0.150196
H65	H	0.522726	0.215539	-0.151321
H66	H	0.125283	0.202359	0.121574
N67	N	0.279006	0.207442	-0.170560
H68	H	0.242013	0.206221	-0.217950
H69	H	0.306355	0.305774	-0.180838
N70	N	1.000983	-0.010756	0.628605
H71	H	1.033088	-0.078449	0.673969
H72	H	0.971493	-0.080063	0.597645
H73	H	0.665986	0.220304	-0.151667
H74	H	0.987604	0.017488	0.795055
H75	H	0.803719	0.405216	0.767454
N76	N	0.790302	0.433425	0.596999
H77	H	0.758206	0.501116	0.632730
H78	H	0.819777	0.502735	0.556137
N79	N	0.790287	0.433410	0.341305
H80	H	0.797981	0.417206	0.403851
H81	H	0.799847	0.544724	0.318237
N82	N	0.790275	0.433395	0.161415
H83	H	0.758176	0.501090	0.197142
H84	H	0.819754	0.502701	0.120556
