data_functionalizedCrystal
_audit_creation_method	'MofGen! by Chris Wilmer'
_symmetry_space_group_name_H-M	'P1'
_symmetry_Int_Tables_number	1
_symmetry_cell_setting	triclinic
loop_
_symmetry_equiv_pos_as_xyz
  x,y,z
_cell_length_a	18.215407
_cell_length_b	12.759394
_cell_length_c	12.759387
_cell_angle_alpha	90.031405
_cell_angle_beta	90.019761
_cell_angle_gamma	90.015285
loop_
_atom_site_label
_atom_site_type_symbol
_atom_site_fract_x
_atom_site_fract_y
_atom_site_fract_z
Zn1	Zn	1.125123	-0.418201	0.594070
Zn2	Zn	1.125053	-0.593917	0.418388
Zn3	Zn	1.002056	-0.418254	0.418399
Zn4	Zn	1.002043	-0.593840	0.594019
O5	O	1.063569	-0.506053	0.506219
O6	O	1.228098	-0.441520	0.570782
O7	O	1.108713	-0.570670	0.271368
O8	O	1.018415	-0.271226	0.441728
O9	O	1.228046	-0.570618	0.441709
O10	O	1.108832	-0.271187	0.570793
O11	O	1.018347	-0.441611	0.271376
O12	O	0.899070	-0.441536	0.441679
O13	O	1.018394	-0.570487	0.741047
O14	O	0.899060	-0.570538	0.570706
O15	O	1.108820	-0.441445	0.741084
O16	O	1.108701	-0.740928	0.441659
O17	O	1.018326	-0.740871	0.570695
C18	C	0.872362	-0.506035	0.506189
C19	C	0.790563	-0.506053	0.506201
C20	C	0.602384	-0.573330	0.573301
C21	C	0.525525	-0.573333	0.573314
C22	C	0.525505	-0.438796	0.439160
C23	C	0.602363	-0.438788	0.439153
C24	C	0.640800	-0.506061	0.506222
C25	C	0.487084	-0.506072	0.506242
C26	C	0.403750	-0.506075	0.506255
C27	C	0.724139	-0.506057	0.506210
C28	C	1.063524	-0.779021	0.506193
C29	C	1.063573	-0.895797	0.506218
C30	C	1.157751	-0.895803	0.371954
C31	C	1.204859	-0.950667	0.304834
C32	C	1.204902	-1.060388	0.304862
C33	C	1.157834	-1.115249	0.372020
C34	C	1.110725	-1.060385	0.439140
C35	C	1.110686	-0.950661	0.439102
C36	C	1.016552	-1.060379	0.573408
C37	C	1.016504	-0.950658	0.573375
C38	C	0.969484	-1.115240	0.640565
C39	C	0.922370	-1.060376	0.707681
C40	C	0.922329	-0.950648	0.707649
C41	C	0.969396	-0.895794	0.640495
C42	C	1.255521	-0.506072	0.506250
C43	C	1.337320	-0.506080	0.506263
C44	C	1.063613	-0.505951	0.780252
C45	C	1.063632	-0.505908	0.897029
C46	C	1.063633	-0.232020	0.506267
C47	C	1.063660	-0.115243	0.506288
C48	C	1.063566	-0.506079	0.233251
C49	C	1.063690	-0.505826	0.116475
C50	C	1.157782	-0.640224	1.116446
C51	C	1.204816	-0.707440	1.061570
C52	C	1.204792	-0.707480	0.951848
C53	C	1.157726	-0.640299	0.897000
C54	C	1.110691	-0.573084	0.951875
C55	C	1.110722	-0.573049	1.061600
C56	C	1.016597	-0.438692	0.951905
C57	C	1.016624	-0.438645	1.061626
C58	C	0.969531	-0.371512	0.897056
C59	C	0.922499	-0.304289	0.951932
C60	C	0.922526	-0.304251	1.061660
C61	C	0.969589	-0.371430	1.116502
H62	H	1.157711	-0.806462	0.371910
H63	H	0.633677	-0.628105	0.627915
Br64	Br	1.268741	-0.876210	0.213704
H65	H	1.243096	-0.762207	0.907169
H66	H	0.969512	-0.371553	0.807715
Br67	Br	0.473392	-0.664626	0.664359
H68	H	1.157813	-0.640189	1.205787
H69	H	0.494200	-0.384026	0.384553
Br70	Br	0.858633	-0.213122	0.877491
Br71	Br	1.157685	-0.640368	0.748091
Br72	Br	1.157549	-1.264156	0.371566
Br73	Br	0.654504	-0.347477	0.348120
H74	H	0.884223	-0.249518	1.106333
H75	H	1.243266	-1.105058	0.250213
H76	H	0.884055	-1.105052	0.762360
H77	H	0.883970	-0.905984	0.762310
H78	H	0.969525	-1.204581	0.640588
Br79	Br	0.969579	-0.746886	0.640784
H80	H	0.969619	-0.371401	1.205843
H81	H	1.243134	-0.762140	1.106240
