data_functionalizedCrystal
_audit_creation_method	'MofGen! by Chris Wilmer'
_symmetry_space_group_name_H-M	'P1'
_symmetry_Int_Tables_number	1
_symmetry_cell_setting	triclinic
loop_
_symmetry_equiv_pos_as_xyz
  x,y,z
_cell_length_a	14.519731
_cell_length_b	14.519709
_cell_length_c	11.804365
_cell_angle_alpha	101.851959
_cell_angle_beta	78.128556
_cell_angle_gamma	83.684499
loop_
_atom_site_label
_atom_site_type_symbol
_atom_site_fract_x
_atom_site_fract_y
_atom_site_fract_z
O1	O	1.242457	0.102395	-0.099032
O2	O	1.742457	0.602395	0.400968
O3	O	0.973983	0.116611	-0.099034
O4	O	1.473983	0.616611	0.400966
O5	O	1.115336	-0.024733	-0.099022
O6	O	1.615336	0.475267	0.400978
O7	O	1.101104	0.243739	-0.099043
O8	O	1.601104	0.743739	0.400957
O9	O	1.078123	0.012440	0.099031
O10	O	1.578123	0.512440	0.599031
O11	O	0.936770	0.153784	0.099019
O12	O	1.436770	0.653784	0.599019
O13	O	1.205244	0.139568	0.099021
O14	O	1.705244	0.639568	0.599021
Cu15	Cu	1.067609	0.150070	0.117104
Cu16	Cu	1.567609	0.650070	0.617104
Cu17	Cu	1.111618	0.106109	-0.117116
Cu18	Cu	1.611618	0.606109	0.382884
O19	O	1.063891	0.280912	0.099009
O20	O	1.563891	0.780912	0.599009
C21	C	0.921017	0.134531	-0.000007
C22	C	1.421017	0.634531	0.499993
C23	C	0.818637	0.132535	-0.000008
C24	C	1.318637	0.632535	0.499992
C25	C	1.096066	-0.040506	0.000005
C26	C	1.596066	0.459494	0.500005
C27	C	1.094078	-0.142888	0.000005
C28	C	1.594078	0.357112	0.500005
C29	C	0.735494	0.130912	-0.000013
C30	C	1.235494	0.630912	0.499987
C31	C	0.631185	0.128886	-0.000013
C32	C	1.131185	0.628886	0.499987
C33	C	0.548046	0.127277	-0.000013
C34	C	1.048046	0.627277	0.499987
C35	C	0.443731	0.125250	-0.000015
C36	C	0.943731	0.625250	0.499985
C37	C	1.086764	-0.517790	-0.000026
C38	C	1.586764	-0.017790	0.499974
C39	C	1.088795	-0.413480	-0.000017
C40	C	1.588795	0.086520	0.499983
C41	C	1.090420	-0.330342	-0.000009
C42	C	1.590420	0.169658	0.499991
C43	C	1.092452	-0.226026	-0.000002
C44	C	1.592452	0.273974	0.499998
C45	C	1.258210	0.121647	-0.000008
C46	C	1.758210	0.621647	0.499992
C47	C	1.360592	0.123642	-0.000015
C48	C	1.860592	0.623642	0.499985
C49	C	1.083161	0.296685	-0.000020
C50	C	1.583161	0.796685	0.499980
C51	C	1.085151	0.399064	-0.000028
C52	C	1.585151	0.899064	0.499972
N53	N	1.036662	0.180989	0.281842
N54	N	1.536662	0.680989	0.781842
N55	N	1.142571	0.075182	-0.281854
N56	N	1.642571	0.575182	0.218146
C57	C	1.216885	0.000916	0.655806
C58	C	1.716885	0.500916	1.155806
C59	C	1.240295	-0.022479	0.531146
C60	C	1.740295	0.477521	1.031146
C61	C	1.189389	0.028386	0.468814
C62	C	1.689389	0.528386	0.968814
C63	C	1.115069	0.102650	0.531154
C64	C	1.615069	0.602650	1.031154
C65	C	1.091662	0.126051	0.655826
C66	C	1.591662	0.626051	1.155826
C67	C	1.064165	0.153522	0.468834
C68	C	1.564165	0.653522	0.968834
C69	C	0.989845	0.227785	0.531174
C70	C	1.489845	0.727785	1.031174
C71	C	0.966441	0.251183	0.655833
C72	C	1.466441	0.751183	1.155833
C73	C	1.017348	0.200318	0.718166
C74	C	1.517348	0.700318	1.218166
C75	C	1.087572	0.130120	0.344162
C76	C	1.587572	0.630120	0.844162
C77	C	0.962349	0.255256	0.344182
C78	C	1.462349	0.755256	0.844182
C79	C	0.938939	0.278650	0.468842
C80	C	1.438939	0.778650	0.968842
H81	H	1.148084	0.069655	0.293416
H82	H	1.648084	0.569655	0.793416
H83	H	1.258332	-0.040487	0.706565
H84	H	1.758332	0.459513	1.206565
H85	H	0.998285	0.219363	0.819674
H86	H	1.498285	0.719363	1.319674
H87	H	0.920897	0.296677	0.293432
H88	H	1.420897	0.796677	0.793432
H89	H	1.208453	0.009335	0.367310
H90	H	1.708453	0.509335	0.867310
H91	H	0.878426	0.339118	0.519614
H92	H	1.378426	0.839118	1.019614
H93	H	1.300807	-0.082942	0.480394
H94	H	1.800807	0.417058	0.980394
H95	H	0.905933	0.311659	0.706591
H96	H	1.405933	0.811659	1.206591
