data_functionalizedCrystal
_audit_creation_method	'MofGen! by Chris Wilmer'
_symmetry_space_group_name_H-M	'P1'
_symmetry_Int_Tables_number	1
_symmetry_cell_setting	triclinic
loop_
_symmetry_equiv_pos_as_xyz
  x,y,z
_cell_length_a	14.908571
_cell_length_b	13.897447
_cell_length_c	14.908308
_cell_angle_alpha	86.731647
_cell_angle_beta	89.824947
_cell_angle_gamma	86.715799
loop_
_atom_site_label
_atom_site_type_symbol
_atom_site_fract_x
_atom_site_fract_y
_atom_site_fract_z
Zn1	Zn	1.345302	-0.503381	0.587592
Zn2	Zn	1.845302	-0.003381	1.087592
Zn3	Zn	1.353885	-0.655952	0.437235
Zn4	Zn	1.853885	-0.155952	0.937235
Zn5	Zn	1.203617	-0.484854	0.428589
Zn6	Zn	1.703617	0.015146	0.928589
Zn7	Zn	1.194912	-0.654806	0.578887
Zn8	Zn	1.694912	-0.154806	1.078887
O9	O	1.274429	-0.574748	0.508076
O10	O	1.774429	-0.074748	1.008076
O11	O	1.472267	-0.531853	0.574908
O12	O	1.972267	-0.031853	1.074908
O13	O	1.341186	-0.625981	0.310263
O14	O	1.841186	-0.125981	0.810263
O15	O	1.222463	-0.352334	0.449706
O16	O	1.722463	0.147666	0.949706
O17	O	1.478572	-0.643946	0.464442
O18	O	1.978572	-0.143946	0.964442
O19	O	1.326559	-0.365946	0.566525
O20	O	1.826559	0.134054	1.066525
O21	O	1.230785	-0.500276	0.303911
O22	O	1.730785	-0.000276	0.803911
O23	O	1.076636	-0.499165	0.441265
O24	O	1.576636	0.000835	0.941265
O25	O	1.207627	-0.641993	0.705866
O26	O	1.707627	-0.141993	1.205866
O27	O	1.070241	-0.624028	0.551688
O28	O	1.570241	-0.124028	1.051688
O29	O	1.318118	-0.530742	0.712262
O30	O	1.818118	-0.030742	1.212262
O31	O	1.332745	-0.790777	0.456001
O32	O	1.832745	-0.290777	0.956001
O33	O	1.215949	-0.789935	0.560071
O34	O	1.715949	-0.289935	1.060071
C35	C	1.040813	-0.559462	0.494594
C36	C	1.540813	-0.059462	0.994594
C37	C	0.940870	-0.552947	0.488848
C38	C	1.440870	-0.052947	0.988848
C39	C	0.746464	-0.670908	0.592879
C40	C	1.246464	-0.170908	1.092879
C41	C	0.652559	-0.664790	0.587484
C42	C	1.152559	-0.164790	1.087484
C43	C	0.659151	-0.534589	0.472666
C44	C	1.159151	-0.034589	0.972666
C45	C	0.753057	-0.540707	0.478062
C46	C	1.253057	-0.040707	0.978062
C47	C	0.796710	-0.608870	0.538170
C48	C	1.296710	-0.108870	1.038170
C49	C	0.890618	-0.614992	0.543560
C50	C	1.390618	-0.114992	1.043560
C51	C	0.897208	-0.484787	0.428748
C52	C	1.397208	0.015213	0.928748
C53	C	0.803303	-0.478669	0.423352
C54	C	1.303303	0.021331	0.923352
C55	C	1.274357	-0.825356	0.508051
C56	C	1.774357	-0.325356	1.008051
C57	C	1.274407	-0.932575	0.508075
C58	C	1.774407	-0.432575	1.008075
C59	C	1.274449	-1.019649	0.508098
C60	C	1.774449	-0.519649	1.008098
C61	C	1.274511	-1.128886	0.508124
C62	C	1.774511	-0.628886	1.008124
C63	C	1.508957	-0.590094	0.521610
C64	C	2.008957	-0.090094	1.021610
C65	C	1.608899	-0.596634	0.527378
C66	C	2.108899	-0.096634	1.027378
C67	C	1.260944	-0.588306	0.742601
C68	C	1.760944	-0.088306	1.242601
C69	C	1.255198	-0.594084	0.842542
C70	C	1.755198	-0.094084	1.342542
C71	C	1.274525	-0.323164	0.508122
C72	C	1.774525	0.176836	1.008122
C73	C	1.274565	-0.215953	0.508142
C74	C	1.774565	0.284047	1.008142
C75	C	1.287913	-0.561176	0.274466
C76	C	1.787913	-0.061176	0.774466
C77	C	1.293834	-0.555138	0.174535
C78	C	1.793834	-0.055138	0.674535
C79	C	1.359451	-0.489072	1.037003
C80	C	1.859451	0.010928	1.537003
C81	C	1.354054	-0.494498	1.130906
C82	C	1.854054	0.005502	1.630906
C83	C	1.239004	-0.610355	1.124254
C84	C	1.739004	-0.110355	1.624254
C85	C	1.244401	-0.604929	1.030350
C86	C	1.744401	-0.104929	1.530350
C87	C	1.304627	-0.544287	0.986728
C88	C	1.804627	-0.044287	1.486728
C89	C	1.310028	-0.538867	0.892823
C90	C	1.810028	-0.038867	1.392823
C91	C	1.194973	-0.654718	0.886173
C92	C	1.694973	-0.154718	1.386173
C93	C	1.189577	-0.660144	0.980076
C94	C	1.689577	-0.160144	1.480076
H95	H	0.926159	-0.670495	0.592502
H96	H	1.426159	-0.170495	1.092502
H97	H	0.782008	-0.726413	0.641817
H98	H	1.282008	-0.226413	1.141817
H99	H	0.767747	-0.423171	0.374416
H100	H	1.267747	0.076829	0.874416
H101	H	1.140541	-0.709515	1.015606
H102	H	1.640541	-0.209515	1.515606
H103	H	0.611652	-0.715306	0.632036
H104	H	1.111652	-0.215306	1.132036
H105	H	0.938129	-0.434274	0.384197
H106	H	1.438129	0.065726	0.884197
H107	H	1.359068	-0.489491	0.857308
H108	H	1.859068	0.010509	1.357308
H109	H	0.623592	-0.479089	0.423735
H110	H	1.123592	0.020911	0.923735
H111	H	1.408494	-0.439700	1.001485
H112	H	1.908494	0.060300	1.501485
H113	H	1.150334	-0.699681	0.845229
H114	H	1.650334	-0.199681	1.345229
H115	H	1.189971	-0.659726	1.159787
H116	H	1.689971	-0.159726	1.659787
H117	H	1.398695	-0.449534	1.171836
H118	H	1.898695	0.050466	1.671836
