data_functionalizedCrystal
_audit_creation_method	'MofGen! by Chris Wilmer'
_symmetry_space_group_name_H-M	'P1'
_symmetry_Int_Tables_number	1
_symmetry_cell_setting	triclinic
loop_
_symmetry_equiv_pos_as_xyz
  x,y,z
_cell_length_a	19.851628
_cell_length_b	15.698487
_cell_length_c	15.698487
_cell_angle_alpha	90.002309
_cell_angle_beta	60.004274
_cell_angle_gamma	59.997805
loop_
_atom_site_label
_atom_site_type_symbol
_atom_site_fract_x
_atom_site_fract_y
_atom_site_fract_z
Zr1	Zr	0.737314	-0.111801	0.820695
O2	O	0.877846	-0.247829	0.684689
O3	O	0.596782	-0.070095	0.862379
O4	O	0.737310	-0.247814	0.862391
O5	O	0.737320	0.070071	0.684678
O6	O	0.737308	-0.247809	1.002576
O7	O	0.737317	-0.070110	0.684677
O8	O	0.485928	0.070098	1.002555
O9	O	0.988700	-0.247835	0.684699
O10	O	0.654583	-0.052311	0.984786
O11	O	0.654587	0.052301	0.880168
O12	O	0.820041	-0.156940	0.880182
O13	O	0.820045	-0.052329	0.775564
Zr14	Zr	0.737314	0.111780	1.044274
Zr15	Zr	0.737309	-0.111792	1.044273
Zr16	Zr	0.737318	0.111772	0.820696
Zr17	Zr	0.914113	-0.111811	0.820711
Zr18	Zr	0.560514	0.111791	1.044258
O19	O	0.877846	0.070074	1.002589
O20	O	0.877840	-0.247817	1.002588
O21	O	0.877852	0.070063	0.684690
O22	O	0.596782	0.247808	1.180280
O23	O	0.596776	-0.070083	1.180279
O24	O	0.596788	0.247797	0.862381
O25	O	0.737308	-0.070092	1.180291
O26	O	0.737317	0.247793	1.002578
O27	O	0.737320	0.247788	0.862393
O28	O	0.737310	0.070089	1.180292
O29	O	0.988696	-0.247829	0.862413
O30	O	0.485931	0.247808	1.002555
O31	O	0.485928	0.247815	1.180270
O32	O	0.485924	0.070104	1.180269
O33	O	0.988703	-0.070125	0.684699
O34	O	0.988700	-0.070118	0.862414
O35	O	0.654587	0.156920	0.984787
O36	O	0.654583	0.052308	1.089404
O37	O	0.820041	-0.052321	0.984801
O38	O	0.820045	0.052291	0.880183
C39	C	0.516165	0.000003	0.932465
C40	C	0.441109	0.000008	0.932458
C41	C	0.737319	-0.000020	0.652822
C42	C	0.737321	-0.000024	0.557908
C43	C	0.737319	0.279645	0.932485
C44	C	0.737321	0.374558	0.932486
C45	C	0.259752	0.057037	0.875434
C46	C	0.270089	-0.041337	0.834094
C47	C	0.303689	-0.000007	0.932475
C48	C	0.159636	0.098343	0.973783
C49	C	0.170944	-0.000013	0.932491
C50	C	0.315060	-0.098439	0.891078
C51	C	0.204561	0.041312	1.030822
C52	C	0.214932	-0.057121	0.989506
C53	C	0.380160	-0.000002	0.932464
C54	C	0.094479	-0.000028	0.932501
C55	C	0.958463	-0.000023	0.932504
C56	C	1.033519	-0.000028	0.932511
C57	C	0.737308	-0.279666	0.932483
C58	C	0.737307	-0.374578	0.932483
C59	C	0.737304	0.548343	0.932486
C60	C	0.737309	0.451639	0.932488
C61	C	0.737323	-0.000022	0.480825
C62	C	0.737318	-0.000011	0.384128
C63	C	0.737308	0.000000	1.212146
C64	C	0.737307	0.000003	1.307061
C65	C	0.516159	0.000013	1.212127
C66	C	0.441101	0.000021	1.307035
C67	C	0.516170	0.279658	0.932466
C68	C	0.441116	0.374575	0.932460
C69	C	0.516165	0.279669	1.212128
C70	C	0.441109	0.374589	1.307036
C71	C	0.958463	-0.279689	0.652841
C72	C	1.033519	-0.374609	0.557932
C73	C	0.958468	-0.000034	0.652842
C74	C	1.033526	-0.000042	0.557934
C75	C	0.958457	-0.279679	0.932503
C76	C	1.033512	-0.374596	0.932509
C77	C	0.405854	-0.054595	1.296995
C78	C	0.335339	-0.054608	1.386163
C79	C	0.300068	0.000001	1.485369
C80	C	0.335323	0.054619	1.495407
C81	C	0.405841	0.054625	1.406241
C82	C	0.405870	0.473769	0.987066
C83	C	0.335358	0.562962	0.987057
C84	C	0.300089	0.552959	0.932445
C85	C	0.335342	0.453755	0.877832
C86	C	0.405857	0.364564	0.877836
C87	C	0.405859	0.364558	1.406225
C88	C	0.335346	0.453738	1.495410
C89	C	0.300079	0.552947	1.485404
C90	C	0.335335	0.562975	1.386205
C91	C	0.405851	0.473797	1.297022
C92	C	1.068776	-0.364579	0.458744
C93	C	1.139312	-0.453758	0.369558
C94	C	1.174583	-0.552967	0.379564
C95	C	1.139322	-0.562996	0.478764
C96	C	1.068793	-0.473817	0.567946
C97	C	1.068781	0.054565	0.567974
C98	C	1.139316	0.054554	0.478806
C99	C	1.174589	-0.000059	0.379599
C100	C	1.139330	-0.054672	0.369561
C101	C	1.068802	-0.054666	0.458728
C102	C	1.068758	-0.364560	0.987131
C103	C	1.139270	-0.453736	0.987157
C104	C	1.174539	-0.552947	0.932555
C105	C	1.139286	-0.562981	0.877932
C106	C	1.068770	-0.473806	0.877912
H107	H	0.279497	0.105203	0.827134
H108	H	1.168049	-0.643782	0.486898
H109	H	0.306595	0.099079	1.576193
H110	H	0.434531	0.099106	1.414430
Br111	Br	0.425723	-0.237139	0.832702
Br112	Br	1.020909	-0.229927	1.061243
Br113	Br	0.182356	-0.137635	1.069901
Br114	Br	0.453714	0.487373	1.061196
Br115	Br	1.270302	-0.673986	0.258518
H116	H	1.168013	-0.643771	0.833476
Br117	Br	0.315035	-0.099603	0.695482
Br118	Br	0.287511	0.440103	1.630024
Br119	Br	0.287506	-0.128734	1.372515
H120	H	0.177609	0.076292	1.113968
Br121	Br	0.453708	-0.128720	1.162369
H122	H	1.040087	-0.481997	0.648708
H123	H	0.093207	0.181519	1.008712
H124	H	1.168009	-0.445572	0.288795
H125	H	0.242646	-0.000012	1.557966
Br126	Br	0.287528	0.697582	1.061182
Br127	Br	1.020929	0.128687	0.702600
H128	H	1.168061	-0.099136	0.288776
Br129	Br	0.204389	0.674017	0.932450
Br130	Br	1.187103	-0.440093	1.061290
Br131	Br	0.287467	0.440198	0.803722
Br132	Br	0.453679	0.229948	0.803723
Br133	Br	0.453712	0.229929	1.419834
H134	H	0.242659	0.625553	1.558031
Br135	Br	1.020921	-0.229949	0.445135
Br136	Br	0.287462	0.697624	1.372643
Br137	Br	0.453677	0.487429	1.162412
Br138	Br	1.187149	0.128680	0.492453
H139	H	1.231958	-0.625550	0.932579
H140	H	1.232017	-0.000055	0.307003
H141	H	1.040099	-0.099131	0.450539
Br142	Br	1.020952	-0.487446	0.803765
