data_functionalizedCrystal
_audit_creation_method	'MofGen! by Chris Wilmer'
_symmetry_space_group_name_H-M	'P1'
_symmetry_Int_Tables_number	1
_symmetry_cell_setting	triclinic
loop_
_symmetry_equiv_pos_as_xyz
  x,y,z
_cell_length_a	6.817900
_cell_length_b	11.102302
_cell_length_c	11.102288
_cell_angle_alpha	91.947539
_cell_angle_beta	108.605689
_cell_angle_gamma	108.605901
loop_
_atom_site_label
_atom_site_type_symbol
_atom_site_fract_x
_atom_site_fract_y
_atom_site_fract_z
V1	V	-4.111533	-0.396257	-0.175842
O2	O	-4.070565	-0.388714	0.008447
O3	O	-4.088310	-0.393547	-0.348662
O4	O	-4.088315	-0.569078	-0.173138
O5	O	-4.070560	-0.211967	-0.168292
V6	V	-4.588635	-0.374214	-0.153798
O7	O	-4.386875	-0.444609	-0.224195
O8	O	-4.763490	-0.325862	-0.105445
O9	O	-4.388652	-0.376924	0.019022
O10	O	-4.747000	-0.381758	-0.338087
O11	O	-4.747005	-0.558504	-0.161348
O12	O	-4.388647	-0.201393	-0.156502
C13	C	-3.938621	-0.387296	-0.390792
C14	C	-4.001088	-0.386232	-0.532075
C15	C	-4.214443	-0.392073	-0.604923
C16	C	-4.273131	-0.391084	-0.737674
C17	C	-3.905084	-0.378407	-0.724716
C18	C	-3.846404	-0.379405	-0.591969
C19	C	-3.938625	-0.611202	-0.166892
C20	C	-4.001092	-0.752484	-0.165825
C21	C	-4.273128	-0.958089	-0.170658
C22	C	-4.214453	-0.825341	-0.171668
C23	C	-3.846404	-0.812384	-0.158983
C24	C	-3.905085	-0.945131	-0.157982
C25	C	-4.201683	-0.383172	0.061145
C26	C	-4.118456	-0.384244	0.202426
C27	C	-4.201678	-0.159263	-0.162752
C28	C	-4.118448	-0.017979	-0.163813
H29	H	-3.672661	-0.374654	-0.532654
H30	H	-4.446863	-1.017400	-0.175412
O31	O	-4.480222	-0.396565	-0.808540
C32	C	-4.467991	-0.285768	-0.868441
H33	H	-4.297954	-0.243263	-0.876966
H34	H	-4.496119	-0.211841	-0.808395
C35	C	-4.855169	-0.374230	-0.993003
C36	C	-4.646333	-0.322029	-1.003483
H37	H	-4.965184	-0.396594	-1.076301
H38	H	-4.863413	-0.448874	-0.952644
H39	H	-4.878578	-0.312615	-0.942960
H40	H	-4.622917	-0.383650	-1.053512
H41	H	-4.638089	-0.247396	-1.043855
O42	O	-4.364599	-0.398882	-0.546627
C43	C	-4.398886	-0.510435	-0.487497
H44	H	-4.249380	-0.541945	-0.467727
H45	H	-4.552342	-0.590613	-0.553931
C46	C	-4.614629	-0.442717	-0.384154
C47	C	-4.430994	-0.481411	-0.359862
H48	H	-4.634445	-0.424817	-0.305426
H49	H	-4.591538	-0.367563	-0.423995
H50	H	-4.742488	-0.509539	-0.439519
H51	H	-4.303136	-0.414584	-0.304511
H52	H	-4.454065	-0.556553	-0.320009
H53	H	-3.672681	-0.753054	-0.154234
H54	H	-3.779115	-0.993894	-0.152412
H55	H	-3.779154	-0.372846	-0.773498
H56	H	-4.340416	-0.776586	-0.177245
