data_functionalizedCrystal
_audit_creation_method	'MofGen! by Chris Wilmer'
_symmetry_space_group_name_H-M	'P1'
_symmetry_Int_Tables_number	1
_symmetry_cell_setting	triclinic
loop_
_symmetry_equiv_pos_as_xyz
  x,y,z
_cell_length_a	8.559649
_cell_length_b	11.026607
_cell_length_c	7.088929
_cell_angle_alpha	82.408099
_cell_angle_beta	95.325015
_cell_angle_gamma	89.182341
loop_
_atom_site_label
_atom_site_type_symbol
_atom_site_fract_x
_atom_site_fract_y
_atom_site_fract_z
O1	O	2.096118	-0.026458	-0.158957
O2	O	1.648469	0.034577	-0.158966
O3	O	1.835194	-0.169136	-0.158955
O4	O	1.909394	0.177256	-0.158968
O5	O	1.860132	-0.196415	0.159021
O6	O	1.673407	0.007298	0.159011
O7	O	2.121056	-0.053737	0.159019
Cu8	Cu	1.899509	-0.025710	0.188049
Cu9	Cu	1.870017	0.006551	-0.187995
O10	O	1.934332	0.149977	0.159009
C11	C	1.602739	0.025563	0.000021
C12	C	1.429319	0.039332	0.000018
C13	C	1.833974	-0.226711	0.000030
C14	C	1.793166	-0.357621	0.000023
C15	C	1.905841	-0.441927	0.000022
C16	C	1.863667	-0.577231	0.000014
C17	C	2.166786	-0.044723	0.000028
C18	C	2.340205	-0.058490	0.000019
C19	C	1.935551	0.207551	0.000019
C20	C	1.976358	0.338463	0.000014
N21	N	1.920263	-0.048402	0.452538
N22	N	1.849272	0.029232	-0.452485
H23	H	1.396583	-0.152772	0.000013
N24	N	2.145513	-0.624494	0.000035
H25	H	2.189857	-0.647668	-0.117837
H26	H	2.151549	-0.533094	0.000113
N27	N	1.354648	0.164234	-0.000007
H28	H	1.237191	0.156701	-0.000014
H29	H	1.397720	0.199665	0.117870
H30	H	1.993858	-0.128853	0.534198
N31	N	2.074984	-0.404868	0.000052
H32	H	2.087716	-0.344908	-0.117811
H33	H	2.106066	-0.365204	0.118015
N34	N	1.694515	-0.614283	-0.000008
H35	H	1.688363	-0.705686	-0.000014
H36	H	1.650269	-0.591034	0.117870
N37	N	1.624023	-0.394680	0.000000
H38	H	1.617871	-0.486083	-0.000006
H39	H	1.579776	-0.371430	0.117879
H40	H	1.775696	0.109685	0.465865
