data_functionalizedCrystal
_audit_creation_method	'MofGen! by Chris Wilmer'
_symmetry_space_group_name_H-M	'P1'
_symmetry_Int_Tables_number	1
_symmetry_cell_setting	triclinic
loop_
_symmetry_equiv_pos_as_xyz
  x,y,z
_cell_length_a	12.759401
_cell_length_b	12.759400
_cell_length_c	12.759393
_cell_angle_alpha	90.030447
_cell_angle_beta	90.018496
_cell_angle_gamma	90.013326
loop_
_atom_site_label
_atom_site_type_symbol
_atom_site_fract_x
_atom_site_fract_y
_atom_site_fract_z
Zn1	Zn	1.606267	-0.418200	0.593990
Zn2	Zn	1.606166	-0.593919	0.418313
Zn3	Zn	1.430569	-0.418255	0.418329
Zn4	Zn	1.430562	-0.593838	0.593955
O5	O	1.518391	-0.506053	0.506147
O6	O	1.753274	-0.441520	0.570694
O7	O	1.582833	-0.570673	0.271294
O8	O	1.453920	-0.271226	0.441652
O9	O	1.753200	-0.570620	0.441625
O10	O	1.583005	-0.271186	0.570709
O11	O	1.453822	-0.441614	0.271306
O12	O	1.283547	-0.441535	0.441618
O13	O	1.453909	-0.570482	0.740980
O14	O	1.283542	-0.570536	0.570649
O15	O	1.582998	-0.441442	0.741006
O16	O	1.582826	-0.740929	0.441591
O17	O	1.453811	-0.740870	0.570634
C18	C	1.245423	-0.506033	0.506132
C19	C	1.128647	-0.506050	0.506151
C20	C	1.073810	-0.573328	0.573227
C21	C	0.964086	-0.573342	0.573238
C22	C	0.964045	-0.438796	0.439089
C23	C	1.073767	-0.438778	0.439084
C24	C	1.128689	-0.640600	0.640294
C25	C	1.073852	-0.707885	0.707374
C26	C	0.964128	-0.707898	0.707385
C27	C	0.909241	-0.640627	0.640316
C28	C	1.518336	-0.779020	0.506130
C29	C	1.518408	-0.895797	0.506158
C30	C	1.585589	-0.950558	0.573413
C31	C	1.585638	-1.060282	0.573439
C32	C	1.451322	-1.060474	0.438945
C33	C	1.451269	-0.950752	0.438926
C34	C	1.652728	-0.895603	0.640645
C35	C	1.719915	-0.950364	0.707905
C36	C	1.719964	-1.060088	0.707931
C37	C	1.652826	-1.115051	0.640697
C38	C	1.792424	-0.506073	0.506161
C39	C	1.909201	-0.506082	0.506168
C40	C	1.518464	-0.505947	0.780180
C41	C	1.518496	-0.505902	0.896957
C42	C	1.518475	-0.232019	0.506186
C43	C	1.518510	-0.115243	0.506203
C44	C	1.518378	-0.506083	0.233179
C45	C	1.518550	-0.505832	0.116403
C46	C	1.585722	-0.438704	0.951834
C47	C	1.585747	-0.438666	1.061558
C48	C	1.451316	-0.573033	1.061518
C49	C	1.451287	-0.573064	0.951796
C50	C	1.652930	-0.371541	0.896994
C51	C	1.720163	-0.304339	0.951872
C52	C	1.720188	-0.304301	1.061596
C53	C	1.652980	-0.371465	1.116443
H54	H	1.118548	-0.762647	0.761985
C55	C	1.794140	-0.230374	1.121958
N56	N	1.849848	-0.174694	1.167420
H57	H	0.819896	-0.640634	0.640340
C58	C	1.652677	-0.774904	0.640627
N59	N	1.652637	-0.683994	0.640613
H60	H	1.774662	-1.104672	0.762705
C61	C	1.653007	-0.371414	1.237143
N62	N	1.653031	-0.371378	1.328054
C63	C	1.793760	-0.889903	0.781861
N64	N	1.849383	-0.844365	0.837565
H65	H	1.396563	-0.906165	0.384161
H66	H	0.919482	-0.762676	0.762012
H67	H	1.118417	-0.383987	0.384473
H68	H	1.652920	-0.371567	0.807652
C69	C	1.794082	-0.230457	0.891538
N70	N	1.849759	-0.174808	0.846096
C71	C	1.652878	-1.235751	0.640735
N72	N	1.652921	-1.326662	0.640761
H73	H	1.218032	-0.640599	0.640290
C74	C	1.377524	-1.120937	0.364945
N75	N	1.321955	-1.166478	0.309188
C76	C	0.903665	-0.364810	0.365313
N77	N	0.858187	-0.309085	0.309740
C78	C	1.377395	-0.646910	1.121854
N79	N	1.321717	-0.702556	1.167299
H80	H	1.396529	-0.627767	0.907114
