data_functionalizedCrystal
_audit_creation_method	'MofGen! by Chris Wilmer'
_symmetry_space_group_name_H-M	'P1'
_symmetry_Int_Tables_number	1
_symmetry_cell_setting	triclinic
loop_
_symmetry_equiv_pos_as_xyz
  x,y,z
_cell_length_a	16.120530
_cell_length_b	16.120484
_cell_length_c	12.759393
_cell_angle_alpha	92.864008
_cell_angle_beta	87.079999
_cell_angle_gamma	90.167327
loop_
_atom_site_label
_atom_site_type_symbol
_atom_site_fract_x
_atom_site_fract_y
_atom_site_fract_z
Zn1	Zn	1.254505	-0.395558	-0.699367
Zn2	Zn	1.247340	-0.534629	-0.532099
Zn3	Zn	1.115436	-0.388538	-0.514373
Zn4	Zn	1.108357	-0.527511	-0.698406
O5	O	1.181409	-0.461559	-0.611061
O6	O	1.369920	-0.419923	-0.685000
O7	O	1.229807	-0.515291	-0.382727
O8	O	1.139845	-0.273106	-0.531897
O9	O	1.364657	-0.522098	-0.562108
O10	O	1.242018	-0.278264	-0.667811
O11	O	1.132898	-0.407958	-0.369704
O12	O	0.998131	-0.401056	-0.530965
O13	O	1.127779	-0.509966	-0.845554
O14	O	0.992930	-0.503159	-0.666173
O15	O	1.235153	-0.413021	-0.846261
O16	O	1.222943	-0.650048	-0.561176
O17	O	1.120832	-0.644818	-0.683361
C18	C	0.965358	-0.450574	-0.596542
C19	C	0.872929	-0.445895	-0.590356
C20	C	1.170365	-0.677606	-0.624112
C21	C	1.165716	-0.770035	-0.629736
C22	C	0.703702	-0.437332	-0.579071
C23	C	0.659954	-0.485848	-0.643132
C24	C	0.565790	-0.481083	-0.636853
C25	C	0.797874	-0.442095	-0.585349
C26	C	1.157233	-0.939265	-0.640025
C27	C	1.205735	-0.983020	-0.582125
C28	C	1.201015	-1.077185	-0.587850
C29	C	1.161952	-0.845091	-0.634301
C30	C	1.398304	-0.472588	-0.625638
C31	C	1.490732	-0.477287	-0.631850
C32	C	1.181476	-0.461482	-0.885094
C33	C	1.181504	-0.461450	-1.001871
C34	C	1.192520	-0.244670	-0.597984
C35	C	1.197255	-0.152245	-0.592411
C36	C	1.237418	-0.410962	-1.057102
C37	C	1.237434	-0.410927	-1.166825
C38	C	1.125619	-0.511874	-1.166076
C39	C	1.125600	-0.511904	-1.056354
C40	C	1.181394	-0.461578	-0.338094
C41	C	1.181539	-0.461384	-0.221315
H42	H	0.693221	-0.530960	-0.702694
H43	H	0.670437	-0.392222	-0.519514
O44	O	1.259381	-0.943305	-0.517727
C45	C	1.214523	-0.890732	-0.443673
H46	H	1.147740	-0.913713	-0.434296
H47	H	1.244676	-0.891198	-0.364805
H48	H	1.214880	-0.824776	-0.472035
O49	O	1.071243	-0.560913	-1.218838
C50	C	1.021901	-0.605497	-1.146559
H51	H	1.020750	-0.571310	-1.066100
H52	H	0.955935	-0.611029	-1.174388
H53	H	1.049116	-0.670201	-1.140743
H54	H	1.080062	-0.553017	-1.011384
H55	H	1.112167	-0.972524	-0.693889
O56	O	1.291746	-0.361870	-1.004334
C57	C	1.341113	-0.317315	-1.076618
H58	H	1.307213	-0.312684	-1.152365
H59	H	1.353334	-0.252258	-1.041566
H60	H	1.402711	-0.350973	-1.094375
H61	H	1.282964	-0.369813	-1.211789
