data_functionalizedCrystal
_audit_creation_method	'MofGen! by Chris Wilmer'
_symmetry_space_group_name_H-M	'P1'
_symmetry_Int_Tables_number	1
_symmetry_cell_setting	triclinic
loop_
_symmetry_equiv_pos_as_xyz
  x,y,z
_cell_length_a	18.101398
_cell_length_b	12.759394
_cell_length_c	12.759387
_cell_angle_alpha	89.968340
_cell_angle_beta	90.028222
_cell_angle_gamma	89.989896
loop_
_atom_site_label
_atom_site_type_symbol
_atom_site_fract_x
_atom_site_fract_y
_atom_site_fract_z
Zn1	Zn	1.132233	0.418344	0.594215
Zn2	Zn	1.132156	0.594061	0.418533
Zn3	Zn	1.008384	0.418382	0.418528
Zn4	Zn	1.008378	0.593967	0.594148
O5	O	1.070288	0.506188	0.506356
O6	O	1.235856	0.441676	0.570940
O7	O	1.115707	0.570812	0.271511
O8	O	1.024847	0.271356	0.441859
O9	O	1.235799	0.570775	0.441867
O10	O	1.115839	0.271328	0.570936
O11	O	1.024772	0.441741	0.271508
O12	O	0.904750	0.441650	0.441795
O13	O	1.024838	0.570615	0.741178
O14	O	0.904746	0.570652	0.570822
O15	O	1.115834	0.441585	0.741227
O16	O	1.115702	0.741069	0.441803
O17	O	1.024763	0.741000	0.570826
C18	C	0.877877	0.506146	0.506301
C19	C	0.795563	0.506153	0.506303
C20	C	1.070243	0.779156	0.506331
C21	C	1.070292	0.895932	0.506355
C22	C	1.070344	0.506085	0.780390
C23	C	1.070367	0.506041	0.897166
C24	C	0.496472	0.506218	0.506391
C25	C	0.527775	0.424648	0.425607
C26	C	0.613393	0.424867	0.425262
C27	C	0.644855	0.506185	0.506347
C28	C	0.613757	0.616861	0.476100
C29	C	0.528112	0.616408	0.475538
C30	C	0.528086	0.478074	0.617613
C31	C	0.613737	0.475610	0.617006
C32	C	0.728714	0.506173	0.506324
C33	C	0.412613	0.506238	0.506411
C34	C	1.263450	0.506232	0.506412
C35	C	1.345764	0.506250	0.506435
C36	C	1.070353	0.232155	0.506405
C37	C	1.070380	0.115378	0.506425
C38	C	1.165058	0.895951	0.372103
C39	C	1.212460	0.950821	0.304989
C40	C	1.212504	1.060543	0.305018
C41	C	1.165141	1.115397	0.372170
C42	C	1.117739	1.060527	0.439283
C43	C	1.117699	0.950802	0.439245
C44	C	1.022978	1.060508	0.573539
C45	C	1.022930	0.950786	0.573507
C46	C	0.975616	1.115362	0.640690
C47	C	0.928208	1.060492	0.707800
C48	C	0.928166	0.950764	0.707768
C49	C	0.975527	0.895916	0.640620
C50	C	1.070275	0.506215	0.233389
C51	C	1.070394	0.505963	0.116612
C52	C	1.165128	0.371692	0.897237
C53	C	1.212518	0.304501	0.952134
C54	C	1.212536	0.304463	1.061855
C55	C	1.165157	0.371620	1.116683
C56	C	1.117767	0.438811	1.061787
C57	C	1.117755	0.438844	0.952063
C58	C	1.023004	0.573153	1.061716
C59	C	1.022988	0.573199	0.951994
C60	C	0.975625	0.640311	1.116544
C61	C	0.928237	0.707508	1.061648
C62	C	0.928221	0.707544	0.951919
C63	C	0.975598	0.640389	0.897098
H64	H	0.507189	0.342327	0.444357
H65	H	1.251024	0.906149	0.250317
H66	H	0.633847	0.443473	0.342847
H67	H	0.889653	1.105163	0.762474
N68	N	0.502680	0.552594	0.693124
N69	N	0.465088	0.522823	0.769705
H70	H	0.447140	0.575458	0.823025
H71	H	0.889622	0.762248	0.907229
N72	N	0.640586	0.544760	0.696529
N73	N	0.708461	0.552314	0.712927
H74	H	0.727414	0.601184	0.769074
H75	H	1.165018	0.806610	0.372059
N76	N	0.500728	0.447721	0.322827
N77	N	0.458498	0.523979	0.308816
H78	H	0.439394	0.540278	0.236228
N79	N	0.639324	0.695140	0.547610
N80	N	0.680850	0.670172	0.621840
H81	H	0.698907	0.725455	0.672347
H82	H	1.251092	0.249821	0.907481
H83	H	1.165125	0.371726	0.807896
N84	N	0.500997	0.378596	0.652108
N85	N	0.458056	0.327230	0.595130
H86	H	0.438922	0.256970	0.619482
N87	N	0.639784	0.321907	0.449001
N88	N	0.679348	0.274153	0.384501
H89	H	0.697986	0.201433	0.401258
N90	N	1.260912	1.116613	0.236463
N91	N	1.260936	1.214578	0.236502
H92	H	1.295123	1.254180	0.188084
N93	N	0.879735	0.894719	0.776311
N94	N	0.832527	0.833579	0.739269
H95	H	0.798321	0.794000	0.787678
N96	N	1.260940	0.235814	1.117920
N97	N	1.303233	0.175851	1.068962
H98	H	1.337417	0.127365	1.108557
N99	N	0.879829	0.776083	1.117643
N100	N	0.811495	0.769080	1.105355
H101	H	0.777303	0.817508	1.144906
H102	H	1.165187	1.204738	0.372196
H103	H	0.508101	0.640274	0.394230
N104	N	0.639225	0.373428	0.645610
N105	N	0.623587	0.296203	0.589600
H106	H	0.641592	0.224035	0.609796
H107	H	0.507405	0.679242	0.531812
N108	N	1.165173	0.371553	1.228760
N109	N	1.207483	0.311548	1.277762
H110	H	1.207493	0.311499	1.356918
H111	H	0.975493	0.806575	0.640581
N112	N	0.975674	1.227439	0.640719
N113	N	1.018001	1.276420	0.580794
H114	H	1.018042	1.355576	0.580814
N115	N	0.640626	0.647312	0.375201
N116	N	0.682668	0.587695	0.325395
H117	H	0.701643	0.609195	0.254132
N118	N	0.975644	0.640252	1.228621
N119	N	1.017959	0.580257	1.277626
H120	H	1.017973	0.580216	1.356782
H121	H	0.975593	0.640417	0.807757
