data_functionalizedCrystal
_audit_creation_method	'MofGen! by Chris Wilmer'
_symmetry_space_group_name_H-M	'P1'
_symmetry_Int_Tables_number	1
_symmetry_cell_setting	triclinic
loop_
_symmetry_equiv_pos_as_xyz
  x,y,z
_cell_length_a	16.109301
_cell_length_b	10.723024
_cell_length_c	14.586319
_cell_angle_alpha	89.997376
_cell_angle_beta	89.999213
_cell_angle_gamma	83.964675
loop_
_atom_site_label
_atom_site_type_symbol
_atom_site_fract_x
_atom_site_fract_y
_atom_site_fract_z
O1	O	1.104075	0.160391	-0.076180
O2	O	1.604075	0.660391	0.423820
O3	O	0.862130	0.180351	-0.076194
O4	O	1.362130	0.680351	0.423806
O5	O	0.988683	-0.011279	-0.076183
O6	O	1.488683	0.488721	0.423817
O7	O	0.977521	0.352021	-0.076191
O8	O	1.477521	0.852021	0.423809
O9	O	0.988674	-0.011282	0.076297
O10	O	1.488674	0.488718	0.576297
O11	O	0.862121	0.180348	0.076287
O12	O	1.362121	0.680348	0.576287
O13	O	1.104066	0.160388	0.076301
O14	O	1.604066	0.660388	0.576301
Cu15	Cu	0.983093	0.170368	0.090216
Cu16	Cu	1.483093	0.670368	0.590216
Cu17	Cu	0.983103	0.170371	-0.090110
Cu18	Cu	1.483103	0.670371	0.409890
O19	O	0.977513	0.352018	0.076290
O20	O	1.477513	0.852018	0.576290
C21	C	0.831146	0.179541	0.000044
C22	C	1.331146	0.679541	0.500044
C23	C	0.738836	0.177117	0.000039
C24	C	1.238836	0.677117	0.500039
C25	C	0.517200	0.285190	0.000047
C26	C	1.017200	0.785190	0.500047
C27	C	0.430466	0.282903	0.000053
C28	C	0.930466	0.782903	0.500053
C29	C	0.449003	0.055540	0.000054
C30	C	0.949003	0.555540	0.500054
C31	C	0.535735	0.057829	0.000055
C32	C	1.035735	0.557829	0.500055
C33	C	0.569831	0.172657	0.000047
C34	C	1.069831	0.672657	0.500047
C35	C	0.396365	0.168081	0.000052
C36	C	0.896365	0.668081	0.500052
C37	C	0.302324	0.165600	0.000058
C38	C	0.802324	0.665600	0.500058
C39	C	0.663877	0.175139	0.000042
C40	C	1.163877	0.675139	0.500042
C41	C	0.987866	-0.057770	0.000056
C42	C	1.487866	0.442230	0.500056
C43	C	0.985436	-0.196292	0.000053
C44	C	1.485436	0.303708	0.500053
C45	C	1.056249	-0.272213	0.000055
C46	C	1.556249	0.227787	0.500055
C47	C	1.053739	-0.415383	0.000052
C48	C	1.553739	0.084617	0.500052
C49	C	1.135050	0.161198	0.000060
C50	C	1.635050	0.661198	0.500060
C51	C	1.227359	0.163622	0.000060
C52	C	1.727359	0.663622	0.500060
C53	C	0.978329	0.398508	0.000049
C54	C	1.478329	0.898508	0.500049
C55	C	0.980760	0.537031	0.000046
C56	C	1.480760	1.037031	0.500046
N57	N	0.983091	0.170365	0.217048
N58	N	1.483091	0.670365	0.717048
N59	N	0.983111	0.170364	-0.216942
N60	N	1.483111	0.670364	0.283058
C61	C	1.039148	0.085539	0.452059
C62	C	1.539148	0.585539	0.952059
C63	C	1.039150	0.085536	0.548041
C64	C	1.539150	0.585536	1.048041
C65	C	0.927048	0.255194	0.548040
C66	C	1.427048	0.755194	1.048040
C67	C	0.927043	0.255190	0.452061
C68	C	1.427043	0.755190	0.952061
C69	C	0.983097	0.170364	0.404073
C70	C	1.483097	0.670364	0.904073
C71	C	0.983105	0.170365	0.596034
C72	C	1.483105	0.670365	1.096034
C73	C	0.983107	0.170362	0.700101
C74	C	1.483107	0.670362	1.200101
C75	C	0.983094	0.170365	0.299999
C76	C	1.483094	0.670365	0.799999
H77	H	0.544958	0.378691	0.000048
H78	H	1.044958	0.878691	0.500048
Br79	Br	1.154784	-0.524106	0.000067
Br80	Br	1.654784	-0.024106	0.500067
H81	H	0.578589	-0.033815	0.000057
H82	H	1.078589	0.466185	0.500057
Br83	Br	0.879710	-0.354253	0.000053
Br84	Br	1.379710	0.145747	0.500053
H85	H	1.118732	-0.231219	0.000065
H86	H	1.618732	0.268781	0.500065
H87	H	1.084791	0.016463	0.587109
H88	H	1.584791	0.516463	1.087109
H89	H	0.881411	0.324259	0.587122
H90	H	1.381411	0.824259	1.087122
H91	H	0.922953	-0.237286	0.000043
H92	H	1.422953	0.262714	0.500043
H93	H	0.387617	0.374539	0.000056
H94	H	0.887617	0.874539	0.500056
H95	H	0.421231	-0.037950	0.000066
H96	H	0.921231	0.462050	0.500066
Br97	Br	1.115220	-0.029584	0.386936
Br98	Br	1.615220	0.470416	0.886936
H99	H	0.881395	0.324265	0.412988
H100	H	1.381395	0.824265	0.912988
