data_functionalizedCrystal
_audit_creation_method	'MofGen! by Chris Wilmer'
_symmetry_space_group_name_H-M	'P1'
_symmetry_Int_Tables_number	1
_symmetry_cell_setting	triclinic
loop_
_symmetry_equiv_pos_as_xyz
  x,y,z
_cell_length_a	9.130313
_cell_length_b	19.188930
_cell_length_c	10.654551
_cell_angle_alpha	83.815105
_cell_angle_beta	90.003475
_cell_angle_gamma	90.014381
loop_
_atom_site_label
_atom_site_type_symbol
_atom_site_fract_x
_atom_site_fract_y
_atom_site_fract_z
O1	O	0.122265	0.927166	0.156781
O2	O	0.122164	0.723993	0.177887
O3	O	0.122214	0.830251	-0.015504
O4	O	0.122215	0.820909	0.350172
O5	O	-0.121385	0.830250	-0.015513
O6	O	-0.121435	0.723992	0.177877
O7	O	-0.121334	0.927165	0.156772
Cu8	Cu	-0.143627	0.825579	0.167324
Cu9	Cu	0.144457	0.825580	0.167335
O10	O	-0.121383	0.820908	0.350163
C11	C	0.000352	0.697977	0.177199
C12	C	0.000313	0.620459	0.175147
N13	N	-0.346249	0.825583	0.167315
N14	N	0.347080	0.825581	0.167334
C15	C	0.000337	0.576278	0.288622
C16	C	0.000353	0.503441	0.286695
C17	C	0.000375	0.474790	0.171285
C18	C	0.000343	0.518981	0.057795
C19	C	0.000312	0.591816	0.059726
N20	N	0.083341	0.366233	0.083073
N21	N	0.083373	0.297042	0.081246
C22	C	0.000464	0.255343	0.165461
N23	N	-0.082459	0.285447	0.251591
N24	N	-0.082485	0.354644	0.253421
C25	C	0.000407	0.395813	0.169179
C26	C	0.000503	0.132183	0.276855
C27	C	0.000510	0.059346	0.274922
C28	C	0.000515	0.074887	0.046020
C29	C	0.000494	0.147723	0.047955
C30	C	0.000495	0.176366	0.163376
C31	C	0.423754	0.872721	0.081866
C32	C	0.577091	0.872724	0.081860
C33	C	0.577066	0.778441	0.252792
C34	C	0.423732	0.778442	0.252803
C35	C	0.000416	0.829564	-0.062292
C36	C	0.000422	0.827511	-0.201692
C37	C	0.000482	0.953181	0.157460
C38	C	0.000530	1.030699	0.159512
C39	C	0.133209	0.826549	-0.267170
C40	C	0.133209	0.824614	-0.398149
C41	C	-0.132376	0.824608	-0.398161
C42	C	-0.132375	0.826538	-0.267183
C43	C	0.000417	0.821595	0.396951
C44	C	0.000421	0.823647	0.536351
H45	H	0.000368	0.467462	0.379103
H46	H	0.639491	0.740060	0.322378
H47	H	0.000521	0.023373	0.367331
H48	H	0.361300	0.740054	0.322407
H49	H	0.241340	0.827339	-0.213850
H50	H	0.639514	0.911110	0.012266
N51	N	0.276428	0.823620	-0.468785
H52	H	0.360548	0.824545	-0.407421
H53	H	0.282161	0.866039	-0.533520
N54	N	-0.275601	0.823573	-0.468802
H55	H	-0.255455	0.822210	-0.561714
H56	H	-0.333549	0.867118	-0.456318
N57	N	-0.275601	0.827574	-0.196548
H58	H	-0.359727	0.826670	-0.257910
H59	H	-0.281362	0.871579	-0.152621
H60	H	0.000381	0.495648	-0.036172
N61	N	0.000348	0.607172	0.413106
H62	H	0.000369	0.568126	0.484700
H63	H	-0.089965	0.637035	0.418903
H64	H	0.000294	0.627789	-0.032682
N65	N	0.000497	0.163085	0.401336
H66	H	0.000502	0.124040	0.472932
H67	H	-0.089817	0.192950	0.407117
H68	H	0.000624	0.051560	-0.047949
H69	H	0.361347	0.911106	0.012273
N70	N	0.000468	0.195382	-0.074437
H71	H	0.000482	0.166181	-0.147843
H72	H	0.090758	0.225961	-0.078622
