data_functionalizedCrystal
_audit_creation_method	'MofGen! by Chris Wilmer'
_symmetry_space_group_name_H-M	'P1'
_symmetry_Int_Tables_number	1
_symmetry_cell_setting	triclinic
loop_
_symmetry_equiv_pos_as_xyz
  x,y,z
_cell_length_a	17.077404
_cell_length_b	13.897448
_cell_length_c	17.077396
_cell_angle_alpha	89.972632
_cell_angle_beta	89.980499
_cell_angle_gamma	90.017917
loop_
_atom_site_label
_atom_site_type_symbol
_atom_site_fract_x
_atom_site_fract_y
_atom_site_fract_z
Zn1	Zn	1.200083	-0.384009	-0.443849
Zn2	Zn	1.200002	-0.545322	-0.312585
Zn3	Zn	1.068815	-0.384043	-0.312597
Zn4	Zn	1.068795	-0.545264	-0.443809
O5	O	1.134424	-0.464660	-0.378210
O6	O	1.309919	-0.405417	-0.426448
O7	O	1.182574	-0.523966	-0.202740
O8	O	1.086270	-0.249057	-0.330029
O9	O	1.309860	-0.523933	-0.330010
O10	O	1.182712	-0.249032	-0.426459
O11	O	1.086192	-0.405475	-0.202748
O12	O	0.958965	-0.405420	-0.329990
O13	O	1.086236	-0.523835	-0.553661
O14	O	0.958950	-0.523868	-0.426391
O15	O	1.182693	-0.405362	-0.553690
O16	O	1.182555	-0.680296	-0.329971
O17	O	1.086157	-0.680254	-0.426380
C18	C	0.930476	-0.464642	-0.378188
C19	C	0.843226	-0.464658	-0.378198
C20	C	0.802249	-0.526427	-0.428313
C21	C	0.720268	-0.526429	-0.428326
C22	C	0.679267	-0.464666	-0.378218
C23	C	0.720250	-0.402890	-0.328100
C24	C	0.802229	-0.402884	-0.328092
C25	C	0.549380	-0.402909	-0.328119
C26	C	0.467395	-0.402916	-0.328126
C27	C	0.467419	-0.526454	-0.428353
C28	C	0.549398	-0.526448	-0.428345
C29	C	0.590376	-0.464673	-0.378226
C30	C	1.134366	-0.715274	-0.378187
C31	C	1.134414	-0.822488	-0.378204
C32	C	1.134496	-1.018783	-0.378253
C33	C	1.134448	-0.909550	-0.378228
C34	C	1.339168	-0.464678	-0.378232
C35	C	1.426418	-0.464686	-0.378242
C36	C	1.134471	-0.464588	-0.582954
C37	C	1.134491	-0.464558	-0.670204
C38	C	1.134502	-0.213067	-0.378250
C39	C	1.134536	-0.105853	-0.378267
C40	C	1.184718	-0.402864	-0.711211
C41	C	1.184728	-0.402832	-0.793191
C42	C	1.134514	-0.464500	-0.834164
C43	C	1.084281	-0.526197	-0.793151
C44	C	1.084268	-0.526223	-0.711172
C45	C	1.084313	-0.526139	-0.964021
C46	C	1.084326	-0.526114	-1.046006
C47	C	1.184772	-0.402747	-1.046040
C48	C	1.184759	-0.402774	-0.964061
C49	C	1.134528	-0.464472	-0.923055
C50	C	1.134421	-0.464661	-0.174262
C51	C	1.134553	-0.464419	-0.087013
H52	H	0.686860	-0.352597	-0.287305
H53	H	0.835626	-0.576725	-0.469114
N54	N	0.593582	-0.336289	-0.274061
H55	H	0.627619	-0.291634	-0.306020
H56	H	0.555122	-0.297229	-0.242325
H57	H	1.043396	-0.576365	-0.930636
H58	H	1.225671	-0.352508	-1.079432
H59	H	1.225611	-0.352650	-0.677857
N60	N	0.846430	-0.336255	-0.274045
H61	H	0.808017	-0.297129	-0.242303
H62	H	0.880423	-0.375454	-0.237658
N63	N	1.030112	-0.592689	-0.837351
H64	H	1.061998	-0.637383	-0.871366
H65	H	0.998293	-0.631712	-0.798891
H66	H	0.434014	-0.352612	-0.287334
H67	H	0.582779	-0.576746	-0.469142
H68	H	1.225629	-0.352596	-0.826575
N69	N	0.676070	-0.593065	-0.482367
H70	H	0.714484	-0.632200	-0.514101
H71	H	0.642039	-0.637648	-0.450341
N72	N	1.238923	-0.336270	-0.919867
H73	H	1.270746	-0.297180	-0.958282
H74	H	1.206979	-0.291641	-0.885854
N75	N	0.423225	-0.593086	-0.482408
H76	H	0.461639	-0.632219	-0.514143
H77	H	0.389191	-0.637670	-0.450385
N78	N	1.030169	-0.592625	-1.090201
H79	H	0.998341	-0.631710	-1.051785
H80	H	0.993866	-0.553341	-1.124217
N81	N	1.030088	-0.592755	-0.666939
H82	H	0.998278	-0.631817	-0.705333
H83	H	1.062014	-0.637411	-0.632919
