data_functionalizedCrystal
_audit_creation_method	'MofGen! by Chris Wilmer'
_symmetry_space_group_name_H-M	'P1'
_symmetry_Int_Tables_number	1
_symmetry_cell_setting	triclinic
loop_
_symmetry_equiv_pos_as_xyz
  x,y,z
_cell_length_a	21.395362
_cell_length_b	21.295417
_cell_length_c	21.395355
_cell_angle_alpha	89.978549
_cell_angle_beta	89.956060
_cell_angle_gamma	90.046383
loop_
_atom_site_label
_atom_site_type_symbol
_atom_site_fract_x
_atom_site_fract_y
_atom_site_fract_z
Zn1	Zn	0.957860	-0.250415	-0.354573
Zn2	Zn	1.207860	-0.000415	-0.104573
Zn3	Zn	1.457860	0.249585	0.145427
Zn4	Zn	1.707860	0.499585	0.395427
Zn5	Zn	0.957763	-0.355667	-0.249790
Zn6	Zn	1.207763	-0.105667	0.000210
Zn7	Zn	1.457763	0.144333	0.250210
Zn8	Zn	1.707763	0.394333	0.500210
Zn9	Zn	0.853075	-0.250445	-0.249774
Zn10	Zn	1.103075	-0.000445	0.000226
Zn11	Zn	1.353075	0.249555	0.250226
Zn12	Zn	1.603075	0.499555	0.500226
Zn13	Zn	0.853045	-0.355680	-0.354495
Zn14	Zn	1.103045	-0.105680	-0.104495
Zn15	Zn	1.353045	0.144320	0.145505
Zn16	Zn	1.603045	0.394320	0.395505
O17	O	0.905436	-0.303052	-0.302158
O18	O	1.155436	-0.053052	-0.052158
O19	O	1.405436	0.196948	0.197842
O20	O	1.655436	0.446948	0.447842
O21	O	1.045525	-0.264359	-0.340713
O22	O	1.295525	-0.014359	-0.090713
O23	O	1.545525	0.235641	0.159287
O24	O	1.795525	0.485641	0.409287
O25	O	0.943848	-0.341716	-0.162110
O26	O	1.193848	-0.091716	0.087890
O27	O	1.443848	0.158284	0.337890
O28	O	1.693848	0.408284	0.587890
O29	O	0.867029	-0.162351	-0.263702
O30	O	1.117029	0.087649	-0.013702
O31	O	1.367029	0.337649	0.236298
O32	O	1.617029	0.587649	0.486298
O33	O	1.045454	-0.341687	-0.263729
O34	O	1.295454	-0.091687	-0.013729
O35	O	1.545454	0.158313	0.236271
O36	O	1.795454	0.408313	0.486271
O37	O	0.944014	-0.162330	-0.340697
O38	O	1.194014	0.087670	-0.090697
O39	O	1.444014	0.337670	0.159303
O40	O	1.694014	0.587670	0.409303
O41	O	0.866934	-0.264409	-0.162098
O42	O	1.116934	-0.014409	0.087902
O43	O	1.366934	0.235591	0.337902
O44	O	1.616934	0.485591	0.587902
O45	O	0.765393	-0.264422	-0.263626
O46	O	1.015393	-0.014422	-0.013626
O47	O	1.265393	0.235578	0.236374
O48	O	1.515393	0.485578	0.486374
O49	O	0.866977	-0.341709	-0.442183
O50	O	1.116977	-0.091709	-0.192183
O51	O	1.366977	0.158291	0.057817
O52	O	1.616977	0.408291	0.307817
O53	O	0.765371	-0.341738	-0.340564
O54	O	1.015371	-0.091738	-0.090564
O55	O	1.265371	0.158262	0.159436
O56	O	1.515371	0.408262	0.409436
O57	O	0.943984	-0.264372	-0.442240
O58	O	1.193984	-0.014372	-0.192240
O59	O	1.443984	0.235628	0.057760
O60	O	1.693984	0.485628	0.307760
O61	O	0.943819	-0.443758	-0.263653
O62	O	1.193819	-0.193758	-0.013653
O63	O	1.443819	0.056242	0.236347
O64	O	1.693819	0.306242	0.486347
O65	O	0.866883	-0.443767	-0.340579
O66	O	1.116883	-0.193767	-0.090579
O67	O	1.366883	0.056233	0.159421
O68	O	1.616883	0.306233	0.409421
C69	C	0.742648	-0.303085	-0.302085
C70	C	0.992648	-0.053085	-0.052085
C71	C	1.242648	0.196915	0.197915
C72	C	1.492648	0.446915	0.447915
C73	C	0.673007	-0.303114	-0.302069
C74	C	0.923007	-0.053114	-0.052069
C75	C	1.173007	0.196886	0.197931
C76	C	1.423007	0.446886	0.447931
C77	C	0.640299	-0.343426	-0.342070
C78	C	0.890299	-0.093426	-0.092070
C79	C	1.140299	0.156574	0.157930
C80	C	1.390299	0.406574	0.407930
C81	C	0.574863	-0.343411	-0.342098
C82	C	0.824863	-0.093411	-0.092098
C83	C	1.074863	0.156589	0.157902
C84	C	1.324863	0.406589	0.407902
C85	C	0.542139	-0.303090	-0.302114
C86	C	0.792139	-0.053090	-0.052114
C87	C	1.042139	0.196910	0.197886
C88	C	1.292139	0.446910	0.447886
C89	C	0.574855	-0.262771	-0.262109
C90	C	0.824855	-0.012771	-0.012109
C91	C	1.074855	0.237229	0.237891
C92	C	1.324855	0.487229	0.487891
C93	C	0.640289	-0.262783	-0.262087
C94	C	0.890289	-0.012783	-0.012087
C95	C	1.140289	0.237217	0.237913
C96	C	1.390289	0.487217	0.487913
C97	C	0.438414	-0.298019	-0.245709
C98	C	0.688414	-0.048019	0.004291
C99	C	0.938414	0.201981	0.254291
C100	C	1.188414	0.451981	0.504291
C101	C	0.372981	-0.298011	-0.245730
C102	C	0.622981	-0.048011	0.004270
C103	C	0.872981	0.201989	0.254270
C104	C	1.122981	0.451989	0.504270
C105	C	0.340318	-0.303049	-0.302183
C106	C	0.590318	-0.053049	-0.052183
C107	C	0.840318	0.196951	0.197817
C108	C	1.090318	0.446951	0.447817
C109	C	0.373096	-0.308108	-0.358616
C110	C	0.623096	-0.058108	-0.108616
C111	C	0.873096	0.191892	0.141384
C112	C	1.123096	0.441892	0.391384
C113	C	0.438530	-0.308120	-0.358594
C114	C	0.688530	-0.058120	-0.108594
C115	C	0.938530	0.191880	0.141406
C116	C	1.188530	0.441880	0.391406
C117	C	0.471186	-0.303072	-0.302134
C118	C	0.721186	-0.053072	-0.052134
C119	C	0.971186	0.196928	0.197866
C120	C	1.221186	0.446928	0.447866
C121	C	0.236657	-0.343346	-0.342218
C122	C	0.486657	-0.093346	-0.092218
C123	C	0.736657	0.156654	0.157782
C124	C	0.986657	0.406654	0.407782
C125	C	0.171221	-0.343326	-0.342247
C126	C	0.421221	-0.093326	-0.092247
C127	C	0.671221	0.156674	0.157753
C128	C	0.921221	0.406674	0.407753
C129	C	0.171214	-0.262690	-0.262252
C130	C	0.421214	-0.012690	-0.012252
C131	C	0.671214	0.237310	0.237748
C132	C	0.921214	0.487310	0.487748
C133	C	0.236649	-0.262706	-0.262229
C134	C	0.486649	-0.012706	-0.012229
C135	C	0.736649	0.237294	0.237771
C136	C	0.986649	0.487294	0.487771
C137	C	0.269367	-0.303038	-0.302211
C138	C	0.519367	-0.053038	-0.052211
C139	C	0.769367	0.196962	0.197789
C140	C	1.019367	0.446962	0.447789
C141	C	0.905354	-0.466603	-0.302123
C142	C	1.155354	-0.216603	-0.052123
C143	C	1.405354	0.033397	0.197877
C144	C	1.655354	0.283397	0.447877
C145	C	0.905376	-0.536571	-0.302129
C146	C	1.155376	-0.286571	-0.052129
C147	C	1.405376	-0.036571	0.197871
C148	C	1.655376	0.213429	0.447871
C149	C	0.945472	-0.569412	-0.262115
C150	C	1.195472	-0.319412	-0.012115
C151	C	1.445472	-0.069412	0.237885
C152	C	1.695472	0.180588	0.487885
C153	C	0.945502	-0.635155	-0.262129
C154	C	1.195502	-0.385155	-0.012129
C155	C	1.445502	-0.135155	0.237871
C156	C	1.695502	0.114845	0.487871
C157	C	0.905424	-0.668054	-0.302151
C158	C	1.155424	-0.418054	-0.052151
C159	C	1.405424	-0.168054	0.197849
C160	C	1.655424	0.081946	0.447849
C161	C	0.865324	-0.635205	-0.342173
C162	C	1.115324	-0.385205	-0.092173
C163	C	1.365324	-0.135205	0.157827
C164	C	1.615324	0.114795	0.407827
C165	C	0.865301	-0.569464	-0.342162
C166	C	1.115301	-0.319464	-0.092162
C167	C	1.365301	-0.069464	0.157838
C168	C	1.615301	0.180536	0.407838
N169	N	0.850614	-0.771336	-0.306903
N170	N	1.100614	-0.521336	-0.056903
N171	N	1.350614	-0.271336	0.193097
N172	N	1.600614	-0.021336	0.443097
N173	N	0.850638	-0.833787	-0.306910
N174	N	1.100638	-0.583787	-0.056910
N175	N	1.350638	-0.333787	0.193090
N176	N	1.600638	-0.083787	0.443090
C177	C	0.905494	-0.866129	-0.302187
C178	C	1.155494	-0.616129	-0.052187
C179	C	1.405494	-0.366129	0.197813
C180	C	1.655494	-0.116129	0.447813
N181	N	0.960325	-0.833659	-0.297445
N182	N	1.210325	-0.583659	-0.047445
N183	N	1.460325	-0.333659	0.202555
N184	N	1.710325	-0.083659	0.452555
N185	N	0.960300	-0.771202	-0.297435
N186	N	1.210300	-0.521202	-0.047435
N187	N	1.460300	-0.271202	0.202565
N188	N	1.710300	-0.021202	0.452565
C189	C	0.905445	-0.739339	-0.302167
C190	C	1.155445	-0.489339	-0.052167
C191	C	1.405445	-0.239339	0.197833
C192	C	1.655445	0.010661	0.447833
C193	C	0.945625	-0.970255	-0.262186
C194	C	1.195625	-0.720255	-0.012186
C195	C	1.445625	-0.470255	0.237814
C196	C	1.695625	-0.220255	0.487814
C197	C	0.945656	-1.035999	-0.262204
C198	C	1.195656	-0.785999	-0.012204
C199	C	1.445656	-0.535999	0.237796
C200	C	1.695656	-0.285999	0.487796
C201	C	0.865473	-1.036048	-0.342245
C202	C	1.115473	-0.786048	-0.092245
C203	C	1.365473	-0.536048	0.157755
C204	C	1.615473	-0.286048	0.407755
C205	C	0.865448	-0.970305	-0.342230
C206	C	1.115448	-0.720305	-0.092230
C207	C	1.365448	-0.470305	0.157770
C208	C	1.615448	-0.220305	0.407770
C209	C	0.905523	-0.937413	-0.302197
C210	C	1.155523	-0.687413	-0.052197
C211	C	1.405523	-0.437413	0.197803
C212	C	1.655523	-0.187413	0.447803
C213	C	1.068859	-0.303019	-0.302231
C214	C	1.318859	-0.053019	-0.052231
C215	C	1.568859	0.196981	0.197769
C216	C	1.818859	0.446981	0.447769
C217	C	1.138501	-0.303005	-0.302262
C218	C	1.388501	-0.053005	-0.052262
C219	C	1.638501	0.196995	0.197738
C220	C	1.888501	0.446995	0.447738
C221	C	0.905488	-0.303039	-0.465581
C222	C	1.155488	-0.053039	-0.215581
C223	C	1.405488	0.196961	0.034419
C224	C	1.655488	0.446961	0.284419
C225	C	0.905510	-0.303033	-0.535223
C226	C	1.155510	-0.053033	-0.285223
C227	C	1.405510	0.196967	-0.035223
C228	C	1.655510	0.446967	0.214777
C229	C	0.905535	-0.138861	-0.302206
C230	C	1.155535	0.111139	-0.052206
C231	C	1.405535	0.361139	0.197794
C232	C	1.655535	0.611139	0.447794
C233	C	0.905578	-0.068893	-0.302227
C234	C	1.155578	0.181107	-0.052227
C235	C	1.405578	0.431107	0.197773
C236	C	1.655578	0.681107	0.447773
C237	C	0.945606	-0.262762	-0.567967
C238	C	1.195606	-0.012762	-0.317967
C239	C	1.445606	0.237238	-0.067967
C240	C	1.695606	0.487238	0.182033
C241	C	0.945605	-0.262735	-0.633402
C242	C	1.195605	-0.012735	-0.383402
C243	C	1.445605	0.237265	-0.133402
C244	C	1.695605	0.487265	0.116598
C245	C	0.905515	-0.302991	-0.666091
C246	C	1.155515	-0.052991	-0.416091
C247	C	1.405515	0.197009	-0.166091
C248	C	1.655515	0.447009	0.083909
C249	C	0.865411	-0.343265	-0.633339
C250	C	1.115411	-0.093265	-0.383339
C251	C	1.365411	0.156735	-0.133339
C252	C	1.615411	0.406735	0.116661
C253	C	0.865409	-0.343286	-0.567905
C254	C	1.115409	-0.093286	-0.317905
C255	C	1.365409	0.156714	-0.067905
C256	C	1.615409	0.406714	0.182095
C257	C	0.900539	-0.359672	-0.769752
C258	C	1.150539	-0.109672	-0.519752
C259	C	1.400539	0.140328	-0.269752
C260	C	1.650539	0.390328	-0.019752
C261	C	0.900546	-0.359652	-0.835185
C262	C	1.150546	-0.109652	-0.585185
C263	C	1.400546	0.140348	-0.335185
C264	C	1.650546	0.390348	-0.085185
C265	C	0.905519	-0.302924	-0.867912
C266	C	1.155519	-0.052924	-0.617912
C267	C	1.405519	0.197076	-0.367912
C268	C	1.655519	0.447076	-0.117912
C269	C	0.910498	-0.246215	-0.835198
C270	C	1.160498	0.003785	-0.585198
C271	C	1.410498	0.253785	-0.335198
C272	C	1.660498	0.503785	-0.085198
C273	C	0.910496	-0.246237	-0.769763
C274	C	1.160496	0.003763	-0.519763
C275	C	1.410496	0.253763	-0.269763
C276	C	1.660496	0.503763	-0.019763
C277	C	0.905513	-0.302972	-0.737043
C278	C	1.155513	-0.052972	-0.487043
C279	C	1.405513	0.197028	-0.237043
C280	C	1.655513	0.447028	0.012957
C281	C	0.945616	-0.262620	-0.971608
C282	C	1.195616	-0.012620	-0.721608
C283	C	1.445616	0.237380	-0.471608
C284	C	1.695616	0.487380	-0.221608
C285	C	0.945611	-0.262592	-1.037045
C286	C	1.195611	-0.012592	-0.787045
C287	C	1.445611	0.237408	-0.537045
C288	C	1.695611	0.487408	-0.287045
C289	C	0.865420	-0.343127	-1.036981
C290	C	1.115420	-0.093127	-0.786981
C291	C	1.365420	0.156873	-0.536981
C292	C	1.615420	0.406873	-0.286981
C293	C	0.865422	-0.343150	-0.971545
C294	C	1.115422	-0.093150	-0.721545
C295	C	1.365422	0.156850	-0.471545
C296	C	1.615422	0.406850	-0.221545
C297	C	0.905523	-0.302897	-0.938863
C298	C	1.155523	-0.052897	-0.688863
C299	C	1.405523	0.197103	-0.438863
C300	C	1.655523	0.447103	-0.188863
C301	C	0.905420	-0.303019	-0.139370
C302	C	1.155420	-0.053019	0.110630
C303	C	1.405420	0.196981	0.360630
C304	C	1.655420	0.446981	0.610630
C305	C	0.905519	-0.302847	-0.069729
C306	C	1.155519	-0.052847	0.180271
C307	C	1.405519	0.197153	0.430271
C308	C	1.655519	0.447153	0.680271
H309	H	0.346503	-0.312209	-0.404586
H310	H	0.596503	-0.062209	-0.154586
H311	H	0.846503	0.187791	0.095414
H312	H	1.096503	0.437791	0.345414
Br313	Br	0.999922	-0.679734	-0.207820
Br314	Br	1.249922	-0.429734	0.042180
Br315	Br	1.499922	-0.179734	0.292180
Br316	Br	1.749922	0.070266	0.542180
H317	H	0.263297	-0.376183	-0.374777
H318	H	0.513297	-0.126183	-0.124777
H319	H	0.763297	0.123817	0.125223
H320	H	1.013297	0.373817	0.375223
H321	H	0.896322	-0.405855	-0.743111
H322	H	1.146322	-0.155855	-0.493111
H323	H	1.396322	0.094145	-0.243111
H324	H	1.646322	0.344145	0.006889
H325	H	0.832694	-0.661996	-0.374760
H326	H	1.082694	-0.411996	-0.124760
H327	H	1.332694	-0.161996	0.125240
H328	H	1.582694	0.088004	0.375240
H329	H	0.832843	-1.062834	-0.374834
H330	H	1.082843	-0.812834	-0.124834
H331	H	1.332843	-0.562834	0.125166
H332	H	1.582843	-0.312834	0.375166
H333	H	0.978255	-0.229938	-0.660067
H334	H	1.228255	0.020062	-0.410067
H335	H	1.478255	0.270062	-0.160067
H336	H	1.728255	0.520062	0.089933
Br337	Br	0.917252	-0.169222	-0.879604
Br338	Br	1.167252	0.080778	-0.629604
Br339	Br	1.417252	0.330778	-0.379604
Br340	Br	1.667252	0.580778	-0.129604
Br341	Br	0.328503	-0.291147	-0.169143
Br342	Br	0.578503	-0.041147	0.080857
Br343	Br	0.828503	0.208853	0.330857
Br344	Br	1.078503	0.458853	0.580857
Br345	Br	0.999868	-0.524775	-0.207794
Br346	Br	1.249868	-0.274775	0.042206
Br347	Br	1.499868	-0.024775	0.292206
Br348	Br	1.749868	0.225225	0.542206
Br349	Br	0.917249	-0.169279	-0.725367
Br350	Br	1.167249	0.080721	-0.475367
Br351	Br	1.417249	0.330721	-0.225367
Br352	Br	1.667249	0.580721	0.024633
H353	H	0.666920	-0.229954	-0.229513
H354	H	0.916920	0.020046	0.020487
H355	H	1.166920	0.270046	0.270487
H356	H	1.416920	0.520046	0.520487
Br357	Br	1.000083	-1.080570	-0.207900
Br358	Br	1.250083	-0.830570	0.042100
Br359	Br	1.500083	-0.580570	0.292100
Br360	Br	1.750083	-0.330570	0.542100
H361	H	0.832795	-0.943565	-0.374811
H362	H	1.082795	-0.693565	-0.124811
H363	H	1.332795	-0.443565	0.125189
H364	H	1.582795	-0.193565	0.375189
H365	H	0.832649	-0.542724	-0.374747
H366	H	1.082649	-0.292724	-0.124747
H367	H	1.332649	-0.042724	0.125253
H368	H	1.582649	0.207276	0.375253
Br369	Br	0.530445	-0.208044	-0.207849
Br370	Br	0.780445	0.041956	0.042151
Br371	Br	1.030445	0.291956	0.292151
Br372	Br	1.280445	0.541956	0.542151
H373	H	0.978259	-0.943473	-0.229590
H374	H	1.228259	-0.693473	0.020410
H375	H	1.478259	-0.443473	0.270410
H376	H	1.728259	-0.193473	0.520410
Br377	Br	1.000027	-0.208132	-0.523615
Br378	Br	1.250027	0.041868	-0.273615
Br379	Br	1.500027	0.291868	-0.023615
Br380	Br	1.750027	0.541868	0.226385
H381	H	0.978266	-0.229840	-0.944997
H382	H	1.228266	0.020160	-0.694997
H383	H	1.478266	0.270160	-0.444997
H384	H	1.728266	0.520160	-0.194997
H385	H	0.978261	-0.229795	-1.063704
H386	H	1.228261	0.020205	-0.813704
H387	H	1.478261	0.270205	-0.563704
H388	H	1.728261	0.520205	-0.313704
H389	H	0.832771	-0.375897	-1.063595
H390	H	1.082771	-0.125897	-0.813595
H391	H	1.332771	0.124103	-0.563595
H392	H	1.582771	0.374103	-0.313595
H393	H	0.832775	-0.375947	-0.944885
H394	H	1.082775	-0.125947	-0.694885
H395	H	1.332775	0.124053	-0.444885
H396	H	1.582775	0.374053	-0.194885
H397	H	0.896496	-0.405828	-0.861816
H398	H	1.146496	-0.155828	-0.611816
H399	H	1.396496	0.094172	-0.361816
H400	H	1.646496	0.344172	-0.111816
Br401	Br	0.810998	-0.397893	-0.677701
Br402	Br	1.060998	-0.147893	-0.427701
Br403	Br	1.310998	0.102107	-0.177701
Br404	Br	1.560998	0.352107	0.072299
H405	H	0.666933	-0.376266	-0.374628
H406	H	0.916933	-0.126266	-0.124628
H407	H	1.166933	0.123734	0.125372
H408	H	1.416933	0.373734	0.375372
Br409	Br	0.530463	-0.398122	-0.396391
Br410	Br	0.780463	-0.148122	-0.146391
Br411	Br	1.030463	0.101878	0.103609
Br412	Br	1.280463	0.351878	0.353609
H413	H	0.465215	-0.312237	-0.404544
H414	H	0.715215	-0.062237	-0.154544
H415	H	0.965215	0.187763	0.095456
H416	H	1.215215	0.437763	0.345456
H417	H	0.144590	-0.376152	-0.374825
H418	H	0.394590	-0.126152	-0.124825
H419	H	0.644590	0.123848	0.125175
H420	H	0.894590	0.373848	0.375175
H421	H	0.832755	-0.376079	-0.541245
H422	H	1.082755	-0.126079	-0.291245
H423	H	1.332755	0.123921	-0.041245
H424	H	1.582755	0.373921	0.208755
Br425	Br	0.126809	-0.207962	-0.207992
Br426	Br	0.376809	0.042038	0.042008
Br427	Br	0.626809	0.292038	0.292008
Br428	Br	0.876809	0.542038	0.542008
H429	H	0.263280	-0.229883	-0.229652
H430	H	0.513280	0.020117	0.020348
H431	H	0.763280	0.270117	0.270348
H432	H	1.013280	0.520117	0.520348
H433	H	0.465003	-0.293914	-0.199735
H434	H	0.715003	-0.043914	0.050265
H435	H	0.965003	0.206086	0.300265
H436	H	1.215003	0.456086	0.550265
