data_functionalizedCrystal
_audit_creation_method	'MofGen! by Chris Wilmer'
_symmetry_space_group_name_H-M	'P1'
_symmetry_Int_Tables_number	1
_symmetry_cell_setting	triclinic
loop_
_symmetry_equiv_pos_as_xyz
  x,y,z
_cell_length_a	17.640112
_cell_length_b	18.101397
_cell_length_c	17.640968
_cell_angle_alpha	101.235310
_cell_angle_beta	87.860920
_cell_angle_gamma	101.246095
loop_
_atom_site_label
_atom_site_type_symbol
_atom_site_fract_x
_atom_site_fract_y
_atom_site_fract_z
Zn1	Zn	1.247779	-0.021278	0.195078
Zn2	Zn	1.747779	0.478722	0.695078
Zn3	Zn	1.222013	-0.174069	0.068085
Zn4	Zn	1.722013	0.325931	0.568085
Zn5	Zn	1.095112	-0.069452	0.093721
Zn6	Zn	1.595112	0.430548	0.593721
Zn7	Zn	1.120754	-0.164321	0.220668
Zn8	Zn	1.620754	0.335679	0.720668
O9	O	1.171414	-0.107280	0.144388
O10	O	1.671414	0.392720	0.644388
O11	O	1.350630	-0.025465	0.156795
O12	O	1.850630	0.474535	0.656795
O13	O	1.183665	-0.184432	-0.034789
O14	O	1.683665	0.315568	0.465211
O15	O	1.115416	0.040585	0.107186
O16	O	1.615416	0.540585	0.607186
O17	O	1.331700	-0.137720	0.063493
O18	O	1.831700	0.362280	0.563493
O19	O	1.227579	0.075978	0.181653
O20	O	1.727579	0.575978	0.681653
O21	O	1.090432	-0.107570	-0.015954
O22	O	1.590432	0.392430	0.484046
O23	O	0.992245	-0.098118	0.131999
O24	O	1.492245	0.401882	0.631999
O25	O	1.159118	-0.121106	0.323548
O26	O	1.659118	0.378894	0.823548
O27	O	1.011084	-0.167818	0.225266
O28	O	1.511084	0.332182	0.725266
O29	O	1.252443	-0.016013	0.304748
O30	O	1.752443	0.483987	0.804748
O31	O	1.208529	-0.276423	0.088306
O32	O	1.708529	0.223577	0.588306
O33	O	1.134134	-0.269261	0.200408
O34	O	1.634134	0.230739	0.700408
C35	C	0.974110	-0.137138	0.184192
C36	C	1.474110	0.362862	0.684192
C37	C	0.889706	-0.149925	0.201238
C38	C	1.389706	0.350075	0.701238
C39	C	0.563039	-0.010125	0.014897
C40	C	1.063039	0.489875	0.514897
C41	C	0.483731	-0.022153	0.030925
C42	C	0.983731	0.477847	0.530925
C43	C	0.503368	-0.094900	0.127877
C44	C	1.003368	0.405100	0.627877
C45	C	0.582680	-0.082875	0.111860
C46	C	1.082680	0.417125	0.611860
C47	C	0.612509	-0.040488	0.055369
C48	C	1.112509	0.459512	0.555369
C49	C	0.632150	-0.113237	0.152331
C50	C	1.132150	0.386763	0.652331
C51	C	0.711455	-0.101217	0.136313
C52	C	1.211455	0.398783	0.636313
C53	C	0.741290	-0.058833	0.079822
C54	C	1.241290	0.441167	0.579822
C55	C	0.691814	-0.028467	0.039350
C56	C	1.191814	0.471533	0.539350
C57	C	0.602319	-0.155629	0.208818
C58	C	1.102319	0.344371	0.708818
C59	C	0.651789	-0.185992	0.249290
C60	C	1.151789	0.314008	0.749290
C61	C	0.731096	-0.173966	0.233275
C62	C	1.231096	0.326034	0.733275
C63	C	0.760931	-0.131583	0.176785
C64	C	1.260931	0.368417	0.676785
C65	C	0.780572	-0.204333	0.273747
C66	C	1.280572	0.295667	0.773747
C67	C	0.859877	-0.192312	0.257729
C68	C	1.359877	0.307688	0.757729
C69	C	0.840236	-0.119562	0.160766
C70	C	1.340236	0.380438	0.660766
C71	C	1.171342	-0.299709	0.144364
C72	C	1.671342	0.200291	0.644364
C73	C	1.171386	-0.382015	0.144366
C74	C	1.671386	0.117985	0.644366
C75	C	1.171497	-0.681075	0.144415
C76	C	1.671497	-0.181075	0.644415
C77	C	1.218108	-0.654286	0.073760
C78	C	1.718108	-0.154286	0.573760
C79	C	1.218342	-0.568602	0.073871
C80	C	1.718342	-0.068602	0.573871
C81	C	1.171442	-0.532708	0.144390
C82	C	1.671442	-0.032708	0.644390
C83	C	1.209323	-0.542195	0.220066
C84	C	1.709323	-0.042195	0.720066
C85	C	1.209711	-0.627845	0.219654
C86	C	1.709711	-0.127845	0.719654
C87	C	1.086988	-0.666422	0.140120
C88	C	1.586988	-0.166422	0.640120
C89	C	1.087023	-0.581120	0.138253
C90	C	1.587023	-0.081120	0.638253
C91	C	1.171410	-0.448856	0.144381
C92	C	1.671410	0.051144	0.644381
C93	C	1.171531	-0.764925	0.144430
C94	C	1.671531	-0.264925	0.644430
C95	C	1.369490	-0.077307	0.104430
C96	C	1.869490	0.422693	0.604430
C97	C	1.453897	-0.064534	0.087402
C98	C	1.953897	0.435466	0.587402
C99	C	1.211515	-0.062098	0.342474
C100	C	1.711515	0.437902	0.842474
C101	C	1.228603	-0.042844	0.426887
C102	C	1.728603	0.457156	0.926887
C103	C	1.171511	0.085907	0.144424
C104	C	1.671511	0.585907	0.644424
C105	C	1.171552	0.168232	0.144440
C106	C	1.671552	0.668232	0.644440
C107	C	1.131514	-0.152227	-0.052936
C108	C	1.631514	0.347773	0.447064
C109	C	1.114573	-0.171250	-0.137378
C110	C	1.614573	0.328750	0.362622
C111	C	1.041888	-0.253103	0.753445
C112	C	1.541888	0.246897	1.253445
C113	C	1.057961	-0.234999	0.832760
C114	C	1.557961	0.265001	1.332760
C115	C	1.155131	-0.125576	0.813174
C116	C	1.655131	0.374424	1.313174
C117	C	1.139064	-0.143668	0.733856
C118	C	1.639064	0.356332	1.233856
C119	C	1.082442	-0.207433	0.703998
C120	C	1.582442	0.292567	1.203998
C121	C	1.179618	-0.097998	0.684410
C122	C	1.679618	0.402002	1.184410
C123	C	1.163554	-0.116092	0.605098
C124	C	1.663554	0.383908	1.105098
C125	C	1.106936	-0.179855	0.575233
C126	C	1.606936	0.320145	1.075233
C127	C	1.066378	-0.225527	0.624687
C128	C	1.566378	0.274473	1.124687
C129	C	1.236244	-0.034237	0.714269
C130	C	1.736244	0.465763	1.214269
C131	C	1.276798	0.011433	0.664822
C132	C	1.776798	0.511433	1.164822
C133	C	1.260731	-0.006657	0.585510
C134	C	1.760731	0.493343	1.085510
C135	C	1.204113	-0.070420	0.555645
C136	C	1.704113	0.429580	1.055645
C137	C	1.301289	0.039015	0.536057
C138	C	1.801289	0.539015	1.036057
C139	C	1.285225	0.020921	0.456745
C140	C	1.785225	0.520921	0.956745
C141	C	1.188049	-0.088514	0.476333
C142	C	1.688049	0.411486	0.976333
H143	H	0.587330	0.024404	-0.031092
H144	H	1.087330	0.524404	0.468908
H145	H	1.322902	0.063349	0.689144
H146	H	1.822902	0.563349	1.189144
H147	H	0.995762	-0.305012	0.729137
H148	H	1.495762	0.194988	1.229137
H149	H	1.141923	-0.140423	0.452025
H150	H	1.641923	0.359577	0.952025
C151	C	0.828529	-0.045608	0.062203
C152	C	1.328529	0.454392	0.562203
N153	N	0.894237	-0.035645	0.048934
N154	N	1.394237	0.464355	0.548934
C155	C	1.167033	-0.650229	0.292027
C156	C	1.667033	-0.150229	0.792027
N157	N	1.134896	-0.667083	0.346543
N158	N	1.634896	-0.167083	0.846543
C159	C	1.035809	-0.549400	0.204441
C160	C	1.535809	-0.049400	0.704441
N161	N	0.997237	-0.525508	0.254301
N162	N	1.497237	-0.025508	0.754301
H163	H	1.093861	-0.194589	0.510652
H164	H	1.593861	0.305411	1.010652
H165	H	0.479070	-0.129414	0.173869
H166	H	0.979070	0.370586	0.673869
C167	C	0.429315	0.011253	-0.013601
C168	C	0.929315	0.511253	0.486399
N169	N	0.388330	0.036413	-0.047138
N170	N	0.888330	0.536413	0.452862
C171	C	1.363570	0.109155	0.568912
C172	C	1.863570	0.609155	1.068912
N173	N	1.410480	0.161987	0.593660
N174	N	1.910480	0.661987	1.093660
H175	H	1.177113	-0.517834	0.273428
H176	H	1.677113	-0.017834	0.773428
C177	C	0.618968	-0.232615	0.311429
C178	C	1.118968	0.267385	0.811429
N179	N	0.594249	-0.267729	0.358236
N180	N	1.094249	0.232271	0.858236
H181	H	1.270978	-0.507870	0.226014
H182	H	1.770978	-0.007870	0.726014
C183	C	1.004090	-0.295672	0.591839
C184	C	1.504090	0.204328	1.091839
N185	N	0.957178	-0.348504	0.567097
N186	N	1.457178	0.151496	1.067097
C187	C	0.515081	-0.168851	0.226438
C188	C	1.015081	0.331149	0.726438
N189	N	0.449373	-0.178807	0.239710
N190	N	0.949373	0.321193	0.739710
H191	H	1.055653	-0.704137	0.086740
H192	H	1.555653	-0.204137	0.586740
H193	H	0.756272	-0.238851	0.319737
H194	H	1.256272	0.261149	0.819737
C195	C	1.183738	-0.703244	-0.003018
C196	C	1.683738	-0.203244	0.496982
N197	N	1.157848	-0.740124	-0.060849
N198	N	1.657848	-0.240124	0.439151
C199	C	1.329836	0.071161	0.402351
C200	C	1.829836	0.571161	0.902351
N201	N	1.363439	0.109003	0.361381
N202	N	1.863439	0.609003	0.861381
C203	C	1.183765	-0.561327	-0.002608
C204	C	1.683765	-0.061327	0.497392
N205	N	1.157713	-0.555853	-0.060212
N206	N	1.657713	-0.055853	0.439788
H207	H	1.249323	-0.019508	0.778850
H208	H	1.749323	0.480492	1.278850
H209	H	0.900157	-0.217035	0.290685
H210	H	1.400157	0.282965	0.790685
H211	H	0.864526	-0.085033	0.114777
H212	H	1.364526	0.414967	0.614777
C213	C	0.724630	0.018165	-0.022790
C214	C	1.224630	0.518165	0.477210
N215	N	0.749348	0.053285	-0.069594
N216	N	1.249348	0.553285	0.430406
H217	H	1.024932	-0.272194	0.873018
H218	H	1.524932	0.227806	1.373018
C219	C	1.293814	-0.637397	0.227104
C220	C	1.793814	-0.137397	0.727104
N221	N	1.357163	-0.644589	0.232711
N222	N	1.857163	-0.144589	0.732711
H223	H	1.201235	-0.073660	0.837496
H224	H	1.701235	0.426340	1.337496
H225	H	1.280023	-0.663736	0.075228
H226	H	1.780023	-0.163736	0.575228
H227	H	1.280613	-0.535955	0.075430
H228	H	1.780613	-0.035955	0.575430
C229	C	1.048825	-0.575217	0.063130
C230	C	1.548825	-0.075217	0.563130
N231	N	1.020054	-0.570764	0.006549
N232	N	1.520054	-0.070764	0.506549
H233	H	1.052059	-0.683524	0.191779
H234	H	1.552059	-0.183524	0.691779
