data_functionalizedCrystal
_audit_creation_method	'MofGen! by Chris Wilmer'
_symmetry_space_group_name_H-M	'P1'
_symmetry_Int_Tables_number	1
_symmetry_cell_setting	triclinic
loop_
_symmetry_equiv_pos_as_xyz
  x,y,z
_cell_length_a	18.101398
_cell_length_b	18.101397
_cell_length_c	16.625539
_cell_angle_alpha	90.031854
_cell_angle_beta	90.025913
_cell_angle_gamma	90.015732
loop_
_atom_site_label
_atom_site_type_symbol
_atom_site_fract_x
_atom_site_fract_y
_atom_site_fract_z
Zn1	Zn	1.132187	-0.294922	0.456004
Zn2	Zn	1.132103	-0.418771	0.321163
Zn3	Zn	1.008343	-0.294937	0.321172
Zn4	Zn	1.008320	-0.418716	0.455941
O5	O	1.070238	-0.356836	0.388570
O6	O	1.235809	-0.311367	0.438140
O7	O	1.115660	-0.402374	0.208332
O8	O	1.024816	-0.191302	0.339089
O9	O	1.235747	-0.402358	0.339073
O10	O	1.115804	-0.191291	0.438149
O11	O	1.024734	-0.311394	0.208339
O12	O	0.904707	-0.311340	0.339027
O13	O	1.024777	-0.402265	0.568781
O14	O	0.904690	-0.402280	0.438040
O15	O	1.115782	-0.311314	0.568828
O16	O	1.115638	-0.522396	0.339011
O17	O	1.024695	-0.522356	0.438032
C18	C	0.877828	-0.356806	0.388528
C19	C	0.795514	-0.356811	0.388529
C20	C	0.496423	-0.356858	0.388597
C21	C	0.527734	-0.299355	0.326604
C22	C	0.613352	-0.299509	0.326340
C23	C	0.644805	-0.356834	0.388563
C24	C	0.613701	-0.434846	0.365342
C25	C	0.528056	-0.434526	0.364911
C26	C	0.528036	-0.337026	0.473957
C27	C	0.613686	-0.335289	0.473491
C28	C	0.728665	-0.356825	0.388546
C29	C	0.412563	-0.356871	0.388613
C30	C	1.070175	-0.549247	0.388531
C31	C	1.070216	-0.631561	0.388541
C32	C	1.070310	-0.930652	0.388615
C33	C	1.127369	-0.899321	0.326147
C34	C	1.127567	-0.813703	0.326309
C35	C	1.070263	-0.782269	0.388578
C36	C	1.091421	-0.813277	0.473570
C37	C	1.091863	-0.898922	0.473230
C38	C	0.991941	-0.899155	0.366826
C39	C	0.992328	-0.813506	0.364929
C40	C	1.070235	-0.698410	0.388562
C41	C	1.070340	-1.014511	0.388636
C42	C	1.263400	-0.356867	0.388613
C43	C	1.345714	-0.356880	0.388631
C44	C	1.070286	-0.356781	0.598879
C45	C	1.070307	-0.356758	0.688500
C46	C	1.070322	-0.163674	0.388627
C47	C	1.070358	-0.081360	0.388651
C48	C	1.070233	-0.356838	0.179079
C49	C	1.070356	-0.356653	0.089459
C50	C	1.070341	-0.356675	1.016676
C51	C	1.070330	-0.356700	0.925368
C52	C	1.070324	-0.356717	0.852591
C53	C	1.070312	-0.356741	0.761277
H54	H	0.508045	-0.451344	0.302508
C55	C	1.205994	-0.785952	0.345780
N56	N	1.265069	-0.765051	0.360446
H57	H	1.114330	-0.792741	0.263289
C58	C	0.641147	-0.257728	0.497143
N59	N	0.661832	-0.199308	0.514953
H60	H	0.635100	-0.374119	0.522156
H61	H	0.633806	-0.312619	0.263089
H62	H	0.634382	-0.241660	0.340896
C63	C	1.169254	-0.925839	0.498153
N64	N	1.227549	-0.946110	0.516921
C65	C	0.499927	-0.220963	0.346048
N66	N	0.478977	-0.161916	0.360694
C67	C	0.500678	-0.393605	0.536359
N68	N	0.480068	-0.436221	0.583355
H69	H	0.634075	-0.478838	0.409081
H70	H	0.949427	-0.919416	0.412324
C71	C	0.498611	-0.316855	0.241654
N72	N	0.476674	-0.330037	0.177670
H73	H	1.114292	-0.919965	0.262938
H74	H	1.185104	-0.920794	0.340398
C75	C	0.500072	-0.494369	0.423244
N76	N	0.478998	-0.539445	0.467177
H77	H	0.635117	-0.451955	0.303613
H78	H	0.506454	-0.281130	0.495069
C79	C	1.038165	-0.926919	0.538261
N80	N	0.997725	-0.948003	0.587247
C81	C	1.167947	-0.784235	0.498922
N82	N	1.225589	-0.762362	0.518013
C83	C	1.036998	-0.785763	0.538143
N84	N	0.996007	-0.765036	0.586779
C85	C	0.965941	-0.928410	0.284545
N86	N	0.946366	-0.950445	0.222568
H87	H	0.947527	-0.792116	0.407095
H88	H	0.976374	-0.793247	0.302381
