data_functionalizedCrystal
_audit_creation_method	'MofGen! by Chris Wilmer'
_symmetry_space_group_name_H-M	'P1'
_symmetry_Int_Tables_number	1
_symmetry_cell_setting	triclinic
loop_
_symmetry_equiv_pos_as_xyz
  x,y,z
_cell_length_a	16.109301
_cell_length_b	9.065218
_cell_length_c	8.140239
_cell_angle_alpha	90.001686
_cell_angle_beta	89.997285
_cell_angle_gamma	95.761317
loop_
_atom_site_label
_atom_site_type_symbol
_atom_site_fract_x
_atom_site_fract_y
_atom_site_fract_z
O1	O	1.104587	-0.189628	-0.136606
O2	O	0.862706	-0.213227	-0.136609
O3	O	0.988646	0.013336	-0.136604
O4	O	0.978647	-0.416191	-0.136611
O5	O	0.988639	0.013338	0.136623
O6	O	0.862699	-0.213225	0.136618
O7	O	1.104580	-0.189626	0.136621
Zn8	Zn	0.983638	-0.201425	0.180000
Zn9	Zn	0.983648	-0.201428	-0.179988
O10	O	0.978640	-0.416188	0.136616
C11	C	0.831720	-0.212270	0.000004
C12	C	0.739403	-0.209404	0.000003
C13	C	0.987682	0.068300	0.000007
C14	C	0.984808	0.232074	-0.000001
C15	C	1.135565	-0.190583	0.000004
C16	C	1.227883	-0.193449	-0.000006
C17	C	1.449174	-0.065675	0.000005
C18	C	1.535915	-0.068379	0.000010
C19	C	1.518106	-0.337188	-0.000002
C20	C	1.431366	-0.334482	0.000004
C21	C	1.396903	-0.198721	-0.000001
C22	C	1.570383	-0.204131	-0.000001
C23	C	1.664432	-0.207065	0.000005
C24	C	1.302848	-0.195787	-0.000004
C25	C	0.979604	-0.471153	0.000002
C26	C	0.982478	-0.634926	-0.000001
N27	N	0.983638	-0.201421	0.425683
N28	N	0.983654	-0.201419	-0.425671
H29	H	1.421116	0.044871	0.000004
H30	H	1.578471	0.039961	0.000017
C31	C	1.556019	-0.486513	-0.000018
H32	H	1.615164	-0.469072	-0.000039
H33	H	1.538146	-0.541301	0.095257
H34	H	1.538144	-0.541283	-0.095316
H35	H	1.388805	-0.442832	0.000005
