data_functionalizedCrystal
_audit_creation_method	'MofGen! by Chris Wilmer'
_symmetry_space_group_name_H-M	'P1'
_symmetry_Int_Tables_number	1
_symmetry_cell_setting	triclinic
loop_
_symmetry_equiv_pos_as_xyz
  x,y,z
_cell_length_a	14.971486
_cell_length_b	14.971486
_cell_length_c	9.130313
_cell_angle_alpha	89.995272
_cell_angle_beta	90.001434
_cell_angle_gamma	83.614129
loop_
_atom_site_label
_atom_site_type_symbol
_atom_site_fract_x
_atom_site_fract_y
_atom_site_fract_z
O1	O	1.186943	0.116563	-0.121632
O2	O	0.926543	0.130521	-0.121672
O3	O	1.063723	-0.006658	-0.121640
O4	O	1.049764	0.253742	-0.121663
O5	O	1.063713	-0.006662	0.121959
O6	O	0.926534	0.130517	0.121927
O7	O	1.186934	0.116559	0.121967
Cu8	Cu	1.056733	0.123538	0.144190
Cu9	Cu	1.056744	0.123542	-0.143894
O10	O	1.049755	0.253738	0.121936
C11	C	0.893214	0.129895	0.000123
C12	C	0.793917	0.128024	0.000108
C13	C	0.736692	0.208614	0.000103
C14	C	0.643392	0.206850	0.000125
C15	C	0.607320	0.124497	0.000141
C16	C	0.664552	0.043902	0.000151
C17	C	0.757850	0.045666	0.000139
C18	C	0.470090	0.040231	0.000171
C19	C	0.376786	0.038466	0.000180
C20	C	0.355632	0.201415	0.000157
C21	C	0.448930	0.203179	0.000145
C22	C	0.506156	0.122584	0.000152
C23	C	1.063094	-0.039985	0.000159
C24	C	1.061223	-0.139282	0.000157
C25	C	1.141812	-0.196507	0.000171
C26	C	1.140049	-0.289807	0.000156
C27	C	1.057696	-0.325879	0.000138
C28	C	0.977101	-0.268646	0.000120
C29	C	0.978865	-0.175349	0.000124
C30	C	0.973430	-0.463109	0.000114
C31	C	0.971665	-0.556413	0.000112
C32	C	1.134614	-0.577567	0.000145
C33	C	1.136378	-0.484269	0.000150
C34	C	1.055782	-0.427043	0.000135
C35	C	1.220263	0.117185	0.000170
C36	C	1.319561	0.119056	0.000175
C37	C	1.050384	0.287065	0.000134
C38	C	1.052254	0.386362	0.000126
N39	N	1.056732	0.123534	0.346812
N40	N	1.056753	0.123539	-0.346517
C41	C	1.117495	0.062816	0.423478
C42	C	1.117504	0.062816	0.576815
C43	C	0.995983	0.184260	0.576807
C44	C	0.995971	0.184254	0.423473
H45	H	0.596802	0.272474	0.000119
H46	H	0.946485	0.233698	0.361047
H47	H	0.907800	-0.416517	0.000098
H48	H	0.766054	0.275675	0.000088
H49	H	0.516682	-0.025399	0.000179
O50	O	0.487843	0.292000	0.000146
H51	H	0.432377	0.347747	0.000165
H52	H	0.904606	-0.585780	0.000121
H53	H	0.309033	0.267039	0.000158
O54	O	1.183052	-0.002660	0.659511
H55	H	1.225305	-0.044874	0.580438
O56	O	0.337881	-0.050359	0.000225
H57	H	0.263391	-0.038041	0.000220
O58	O	0.625652	-0.044925	0.000181
H59	H	0.583653	-0.049634	-0.099106
H60	H	0.804443	-0.019958	0.000143
O61	O	0.930462	0.249763	0.659488
H62	H	0.886961	0.212048	0.729382
O63	O	1.230637	-0.157601	0.000176
H64	H	1.286378	-0.213072	0.000164
O65	O	1.226969	-0.351532	0.000194
H66	H	1.284531	-0.310774	0.000234
H67	H	1.166970	0.013372	0.361065
H68	H	1.203437	-0.454903	0.000175
O69	O	1.221549	-0.639279	0.000158
H70	H	1.224659	-0.682278	-0.099139
H71	H	0.910047	-0.298024	0.000096
O72	O	0.891945	-0.113620	0.000126
H73	H	0.834382	-0.154375	0.000130
