data_functionalizedCrystal
_audit_creation_method	'MofGen! by Chris Wilmer'
_symmetry_space_group_name_H-M	'P1'
_symmetry_Int_Tables_number	1
_symmetry_cell_setting	triclinic
loop_
_symmetry_equiv_pos_as_xyz
  x,y,z
_cell_length_a	11.169417
_cell_length_b	13.031981
_cell_length_c	11.169409
_cell_angle_alpha	97.219778
_cell_angle_beta	90.019513
_cell_angle_gamma	97.193279
loop_
_atom_site_label
_atom_site_type_symbol
_atom_site_fract_x
_atom_site_fract_y
_atom_site_fract_z
Zn1	Zn	1.774262	-0.416001	0.617782
Zn2	Zn	1.748641	-0.590825	0.391569
Zn3	Zn	1.573538	-0.416066	0.417108
Zn4	Zn	1.548058	-0.590741	0.592227
O5	O	1.661125	-0.503409	0.504672
O6	O	1.938811	-0.439200	0.587781
O7	O	1.725355	-0.567705	0.226998
O8	O	1.621550	-0.269791	0.465111
O9	O	1.919988	-0.567643	0.421583
O10	O	1.769021	-0.269743	0.612546
O11	O	1.596707	-0.439310	0.245761
O12	O	1.402209	-0.439229	0.440331
O13	O	1.578123	-0.567500	0.763576
O14	O	1.383489	-0.567562	0.568990
O15	O	1.744314	-0.439119	0.782351
O16	O	1.700648	-0.737081	0.396803
O17	O	1.553280	-0.737019	0.544226
C18	C	1.349302	-0.503394	0.504660
C19	C	1.215899	-0.503414	0.504680
C20	C	1.621451	-0.774976	0.464996
C21	C	1.604589	-0.891153	0.448063
C22	C	1.669989	-0.942842	0.513533
C23	C	1.652562	-1.062917	0.496033
C24	C	1.974165	-0.503423	0.504684
C25	C	2.107564	-0.503430	0.504689
C26	C	1.661234	-0.503292	0.817731
C27	C	1.661280	-0.503243	0.951138
C28	C	1.700986	-0.230781	0.544528
C29	C	1.717972	-0.114603	0.561512
C30	C	1.661096	-0.503449	0.192841
C31	C	1.661325	-0.503204	0.059477
H32	H	1.738878	-0.898201	0.582545
C33	C	1.811052	-1.054314	0.654747
C34	C	1.916133	-0.979203	0.613697
C35	C	2.009211	-0.918915	0.706931
C36	C	1.997209	-0.933740	0.841214
C37	C	1.892124	-1.008855	0.882271
C38	C	1.799045	-1.069142	0.789038
H39	H	1.925021	-0.968226	0.514286
H40	H	2.087002	-0.863310	0.676537
H41	H	2.066111	-0.889111	0.910231
H42	H	1.883235	-1.019832	0.981682
H43	H	1.721254	-1.124747	0.819431
C44	C	1.511515	-0.951451	0.354835
C45	C	1.552747	-1.026556	0.249787
C46	C	1.459670	-1.086851	0.156557
C47	C	1.325361	-1.072041	0.168375
C48	C	1.284122	-0.996933	0.273428
C49	C	1.377199	-0.936638	0.366658
H50	H	1.652177	-1.037522	0.241034
H51	H	1.490199	-1.142451	0.078789
H52	H	1.256460	-1.116675	0.099360
H53	H	1.184692	-0.985966	0.282181
H54	H	1.346670	-0.881038	0.444426
C55	C	1.559483	-1.123211	0.402801
C56	C	1.600716	-1.198316	0.297752
C57	C	1.507639	-1.258611	0.204522
C58	C	1.373330	-1.243801	0.216341
C59	C	1.332091	-1.168693	0.321394
C60	C	1.425167	-1.108398	0.414624
H61	H	1.700146	-1.209283	0.289000
H62	H	1.538168	-1.314211	0.126755
H63	H	1.304429	-1.288435	0.147326
H64	H	1.232661	-1.157726	0.330146
H65	H	1.394639	-1.052798	0.492391
