data_functionalizedCrystal
_audit_creation_method	'MofGen! by Chris Wilmer'
_symmetry_space_group_name_H-M	'P1'
_symmetry_Int_Tables_number	1
_symmetry_cell_setting	triclinic
loop_
_symmetry_equiv_pos_as_xyz
  x,y,z
_cell_length_a	12.594517
_cell_length_b	12.594516
_cell_length_c	12.594509
_cell_angle_alpha	89.973801
_cell_angle_beta	90.011478
_cell_angle_gamma	89.988061
loop_
_atom_site_label
_atom_site_type_symbol
_atom_site_fract_x
_atom_site_fract_y
_atom_site_fract_z
Zn1	Zn	1.627267	0.423827	0.601595
Zn2	Zn	1.627158	0.601837	0.423623
Zn3	Zn	1.449271	0.423860	0.423655
Zn4	Zn	1.449253	0.601751	0.601584
O5	O	1.538237	0.512819	0.512614
O6	O	1.776198	0.447463	0.577979
O7	O	1.603522	0.578278	0.274681
O8	O	1.472935	0.274910	0.447277
O9	O	1.776118	0.578246	0.447223
O10	O	1.603708	0.274886	0.578009
O11	O	1.472830	0.447519	0.274705
O12	O	1.300323	0.447436	0.447266
O13	O	1.472905	0.578099	0.750531
O14	O	1.300310	0.578131	0.577989
O15	O	1.603691	0.447379	0.750540
O16	O	1.603505	0.750772	0.447212
O17	O	1.472799	0.750708	0.577959
C18	C	1.261696	0.512779	0.512630
C19	C	1.143391	0.512787	0.512663
C20	C	1.074161	0.584012	0.583626
C21	C	1.003353	0.486966	0.609800
C22	C	1.003400	0.609913	0.486464
C23	C	1.074140	0.415689	0.538888
C24	C	1.074194	0.538702	0.415507
C25	C	1.003417	0.441590	0.441645
C26	C	1.538167	0.789360	0.512604
C27	C	1.538235	0.907665	0.512635
C28	C	1.538308	0.512726	0.790235
C29	C	1.538339	0.512686	0.908541
C30	C	1.815858	0.512860	0.512599
C31	C	1.934163	0.512878	0.512592
C32	C	1.538336	0.235198	0.512648
C33	C	1.538378	0.116893	0.512662
C34	C	1.467137	0.976923	0.583698
C35	C	1.441204	1.047786	0.486580
C36	C	1.564265	1.047601	0.609770
C37	C	1.512250	0.976971	0.415465
C38	C	1.635357	0.976779	0.538721
C39	C	1.609460	1.047610	0.441535
C40	C	1.538227	0.512835	0.236073
C41	C	1.538403	0.512575	0.117768
C42	C	1.467227	0.583744	0.977789
C43	C	1.564347	0.609757	1.048564
C44	C	1.441294	0.486609	1.048565
C45	C	1.635510	0.538750	0.977757
C46	C	1.512391	0.415556	0.977752
C47	C	1.609579	0.441532	1.048495
H48	H	0.972551	0.381327	0.381603
O49	O	1.110919	0.317708	0.565557
C50	C	1.073968	0.290447	0.667658
H51	H	0.999233	0.337973	0.686340
H52	H	1.137867	0.309325	0.728929
C53	C	1.140031	0.112598	0.648236
C54	C	1.048236	0.170964	0.671178
H55	H	1.124163	0.038895	0.650411
H56	H	1.164930	0.130965	0.579450
H57	H	1.193272	0.128342	0.699299
H58	H	0.995002	0.155230	0.620108
H59	H	1.023328	0.152592	0.739956
O60	O	1.486202	0.317702	0.940427
C61	C	1.487469	0.318921	0.828492
H62	H	1.540646	0.386242	0.799637
H63	H	1.403361	0.331527	0.797469
C64	C	1.465322	0.129601	0.822548
C65	C	1.530643	0.212280	0.787107
H66	H	1.491949	0.063819	0.797018
H67	H	1.464465	0.128779	0.897960
H68	H	1.395237	0.140120	0.796692
H69	H	1.600723	0.201768	0.812974
H70	H	1.531513	0.213098	0.711697
O71	O	1.111303	0.565028	0.317583
C72	C	1.073672	0.666663	0.289453
H73	H	1.052648	0.712825	0.364396
H74	H	1.000006	0.658302	0.237510
C75	C	1.186299	0.669923	0.135606
C76	C	1.160486	0.726624	0.227654
H77	H	1.239846	0.706909	0.097482
H78	H	1.211649	0.601448	0.154556
H79	H	1.124903	0.662960	0.092334
H80	H	1.221877	0.733575	0.270931
H81	H	1.135148	0.795102	0.208710
H82	H	1.490197	0.946074	0.333307
O83	O	1.681129	1.084544	0.369712
C84	C	1.628567	1.147618	0.293562
H85	H	1.551158	1.178889	0.328516
H86	H	1.610552	1.097693	0.220258
C87	C	1.795128	1.203307	0.219253
C88	C	1.700058	1.241722	0.262188
H89	H	1.839227	1.261352	0.199896
H90	H	1.830541	1.160810	0.270554
H91	H	1.780101	1.161703	0.158172
H92	H	1.715085	1.283314	0.323275
H93	H	1.664649	1.284229	0.210897
H94	H	1.359198	0.464598	1.079669
H95	H	1.105226	0.644128	0.643714
H96	H	1.359136	1.078999	0.464538
H97	H	0.972321	0.692013	0.464338
O98	O	1.395659	0.655683	0.940793
C99	C	1.423440	0.757922	0.976900
H100	H	1.511733	0.759933	0.996744
H101	H	1.375410	0.777832	1.050981
C102	C	1.290956	0.837519	0.865091
C103	C	1.399401	0.839992	0.889455
H104	H	1.276124	0.888146	0.811154
H105	H	1.272236	0.768639	0.840767
H106	H	1.250944	0.854108	0.926833
H107	H	1.439410	0.823391	0.827718
H108	H	1.418128	0.908872	0.913766
H109	H	1.586224	1.078626	0.691905
H110	H	1.717406	0.945569	0.560809
O111	O	1.590422	0.707680	1.085808
C112	C	1.506797	0.747062	1.148939
H113	H	1.457292	0.677932	1.179974
H114	H	1.454509	0.801688	1.099136
C115	C	1.613756	0.894577	1.205133
C116	C	1.552959	0.809670	1.243258
H117	H	1.642230	0.933201	1.263311
H118	H	1.670095	0.868048	1.162598
H119	H	1.570173	0.940088	1.163630
H120	H	1.596545	0.764155	1.284749
H121	H	1.496629	0.836193	1.285803
H122	H	1.669813	0.381393	1.079345
H123	H	1.717630	0.560853	0.946785
H124	H	0.972236	0.465078	0.691933
H125	H	1.406904	0.945884	0.643707
