data_functionalizedCrystal
_audit_creation_method	'MofGen! by Chris Wilmer'
_symmetry_space_group_name_H-M	'P1'
_symmetry_Int_Tables_number	1
_symmetry_cell_setting	triclinic
loop_
_symmetry_equiv_pos_as_xyz
  x,y,z
_cell_length_a	14.519710
_cell_length_b	12.837942
_cell_length_c	11.295483
_cell_angle_alpha	85.469583
_cell_angle_beta	85.888022
_cell_angle_gamma	90.745458
loop_
_atom_site_label
_atom_site_type_symbol
_atom_site_fract_x
_atom_site_fract_y
_atom_site_fract_z
O1	O	1.241209	-0.128940	-0.098998
O2	O	0.974116	-0.144944	-0.099006
O3	O	1.101740	0.013971	-0.098995
O4	O	1.113586	-0.287855	-0.099009
O5	O	1.090528	0.000035	0.099055
O6	O	0.962905	-0.158881	0.099044
O7	O	1.229998	-0.142876	0.099052
Cu8	Cu	1.095428	-0.152151	0.117131
Cu9	Cu	1.108686	-0.135669	-0.117086
O10	O	1.102374	-0.301792	0.099041
C11	C	0.934086	-0.151166	0.000018
C12	C	0.831512	-0.148931	0.000015
C13	C	1.092133	0.045631	0.000029
C14	C	1.080199	0.160731	0.000027
C15	C	1.270028	-0.136654	0.000025
C16	C	1.372603	-0.138889	0.000020
C17	C	1.748210	-0.147117	0.000019
C18	C	1.643704	-0.144832	0.000019
C19	C	1.560410	-0.143003	0.000019
C20	C	1.455897	-0.140718	0.000021
C21	C	1.111982	-0.333451	0.000014
C22	C	1.123916	-0.448550	0.000008
N23	N	1.086109	-0.163742	0.281867
C24	C	1.223670	0.401424	0.000006
C25	C	1.212462	0.509571	0.000004
C26	C	1.046574	0.485174	0.000011
C27	C	1.057782	0.377027	0.000014
C28	C	1.146334	0.335156	0.000013
C29	C	1.157541	0.227007	0.000024
C30	C	0.991654	0.202612	0.000023
C31	C	0.980446	0.310759	0.000020
N32	N	1.118012	-0.124070	-0.281821
C33	C	1.185089	-0.040570	0.531165
C34	C	1.178054	-0.049337	0.655828
C35	C	1.064999	-0.190038	0.655858
C36	C	1.072034	-0.181271	0.531195
C37	C	1.132082	-0.106536	0.468853
C38	C	1.139122	-0.097774	0.344188
C39	C	1.026063	-0.238469	0.344220
C40	C	1.019028	-0.247237	0.468883
H41	H	1.229643	0.192918	0.000028
H42	H	1.295771	0.367332	0.000017
O43	O	1.243435	0.032106	0.470783
C44	C	1.354880	0.170684	0.483905
C45	C	1.288823	0.088440	0.552432
H46	H	1.391608	0.216237	0.549888
H47	H	1.313841	0.226753	0.425585
H48	H	1.408144	0.129888	0.425495
H49	H	1.235545	0.129146	0.610907
H50	H	1.329923	0.032377	0.610677
O51	O	0.960623	-0.319854	0.529263
C52	C	0.849271	-0.458525	0.516133
C53	C	0.915362	-0.376314	0.447610
H54	H	0.812675	-0.504211	0.450147
H55	H	0.795905	-0.417803	0.574472
H56	H	0.890362	-0.514476	0.574524
H57	H	0.874349	-0.320340	0.389155
H58	H	0.968729	-0.417107	0.389346
O59	O	1.006532	-0.262511	0.716382
C60	C	0.849331	-0.325561	0.754530
C61	C	0.915442	-0.243414	0.685930
H62	H	0.775673	-0.310163	0.729917
H63	H	0.853329	-0.320481	0.854345
H64	H	0.870065	-0.406911	0.730051
H65	H	0.894753	-0.162026	0.710310
H66	H	0.911435	-0.248586	0.586132
H67	H	1.275438	0.563524	-0.000005
H68	H	1.221216	0.004380	0.706559
H69	H	0.928680	0.148643	0.000038
H70	H	0.974480	0.519285	-0.000001
H71	H	0.908350	0.344865	0.000016
H72	H	1.188018	-0.036924	0.293430
H73	H	0.982904	-0.292186	0.293471
