data_functionalizedCrystal
_audit_creation_method	'MofGen! by Chris Wilmer'
_symmetry_space_group_name_H-M	'P1'
_symmetry_Int_Tables_number	1
_symmetry_cell_setting	triclinic
loop_
_symmetry_equiv_pos_as_xyz
  x,y,z
_cell_length_a	10.654544
_cell_length_b	17.666332
_cell_length_c	10.654545
_cell_angle_alpha	89.999268
_cell_angle_beta	84.485139
_cell_angle_gamma	90.007664
loop_
_atom_site_label
_atom_site_type_symbol
_atom_site_fract_x
_atom_site_fract_y
_atom_site_fract_z
O1	O	1.667847	0.062963	0.176392
O2	O	1.302369	0.062960	0.193198
O3	O	1.493510	0.062961	0.002056
O4	O	1.476706	0.062962	0.367534
O5	O	1.493485	-0.062936	0.002062
O6	O	1.302343	-0.062937	0.193204
O7	O	1.667822	-0.062934	0.176398
Cu8	Cu	1.485080	-0.074431	0.184802
Cu9	Cu	1.485110	0.074457	0.184794
O10	O	1.476680	-0.062935	0.367540
C11	C	1.255558	0.000011	0.191967
C12	C	1.116115	0.000010	0.188275
C13	C	1.116062	-0.137246	0.188297
C14	C	1.050526	-0.205872	0.186576
C15	C	0.919507	-0.205869	0.183105
C16	C	0.854022	-0.137232	0.181351
C17	C	0.919558	-0.068606	0.183071
C18	C	1.050580	-0.068617	0.186546
C19	C	0.919612	0.068649	0.183041
C20	C	1.050630	0.068647	0.186521
C21	C	0.854127	0.137285	0.181286
C22	C	0.919663	0.205913	0.183016
C23	C	1.050689	0.205906	0.186488
C24	C	1.116166	0.137273	0.188241
N25	N	1.485068	-0.179150	0.184806
C26	C	1.561964	-0.781198	0.261649
C27	C	1.561951	-0.701951	0.261661
C28	C	1.485122	-0.662331	0.184782
C29	C	1.408275	-0.701966	0.107908
C30	C	1.408281	-0.781212	0.107907
N31	N	1.480786	-0.537907	0.074727
N32	N	1.480788	-0.462627	0.074731
C33	C	1.485099	-0.423567	0.184781
N34	N	1.489433	-0.462633	0.294828
N35	N	1.489437	-0.537920	0.294823
C36	C	1.485107	-0.576402	0.184774
C37	C	1.561921	-0.298013	0.261670
C38	C	1.561900	-0.218764	0.261685
C39	C	1.408231	-0.218781	0.107920
C40	C	1.408245	-0.298028	0.107917
C41	C	1.485097	-0.337640	0.184790
C42	C	1.714633	0.000017	0.177629
C43	C	1.854076	0.000023	0.181321
C44	C	1.492263	0.000014	-0.044739
C45	C	1.488571	0.000019	-0.184182
N46	N	1.485132	0.179176	0.184780
C47	C	1.488614	0.137275	-0.184198
C48	C	1.486905	0.205903	-0.249715
C49	C	1.483436	0.205904	-0.380734
C50	C	1.481672	0.137269	-0.446238
C51	C	1.483380	0.068641	-0.380720
C52	C	1.486853	0.068648	-0.249699
C53	C	1.483328	-0.068613	-0.380704
C54	C	1.486807	-0.068616	-0.249686
C55	C	1.481564	-0.137248	-0.446208
C56	C	1.483282	-0.205877	-0.380691
C57	C	1.486752	-0.205875	-0.249665
C58	C	1.488515	-0.137244	-0.184169
C59	C	1.477927	0.000014	0.414335
C60	C	1.481620	0.000014	0.553778
H61	H	0.866147	-0.261750	0.181714
F62	F	1.488563	-0.278920	-0.179945
F63	F	1.492327	0.137280	-0.044758
F64	F	1.255607	0.137260	0.191943
H65	H	1.491347	-0.137236	-0.077487
H66	H	1.222742	-0.137256	0.191140
H67	H	0.747342	-0.137236	0.178509
H68	H	1.345718	-0.669703	0.045315
H69	H	1.345713	-0.813475	0.045310
H70	H	1.478832	0.137276	-0.552918
F71	F	0.849966	0.278952	0.181120
H72	H	1.488340	0.261784	-0.196367
H73	H	1.482033	0.261787	-0.434077
H74	H	1.481836	-0.261754	-0.434034
H75	H	1.624493	-0.330266	0.324270
F76	F	1.643655	-0.176592	0.343527
F77	F	1.643749	-0.823351	0.343472
H78	H	1.345687	-0.330292	0.045316
H79	H	0.747446	0.137283	0.178451
F80	F	1.120429	0.278949	0.188310
F81	F	1.643744	-0.659770	0.343464
F82	F	1.326454	-0.176620	0.026106
F83	F	1.477860	-0.137245	-0.585649
H84	H	1.103858	-0.261754	0.188001
