data_functionalizedCrystal
_audit_creation_method	'MofGen! by Chris Wilmer'
_symmetry_space_group_name_H-M	'P1'
_symmetry_Int_Tables_number	1
_symmetry_cell_setting	triclinic
loop_
_symmetry_equiv_pos_as_xyz
  x,y,z
_cell_length_a	10.723024
_cell_length_b	15.995292
_cell_length_c	9.198806
_cell_angle_alpha	90.000241
_cell_angle_beta	90.003396
_cell_angle_gamma	83.968243
loop_
_atom_site_label
_atom_site_type_symbol
_atom_site_fract_x
_atom_site_fract_y
_atom_site_fract_z
O1	O	1.655653	0.117438	0.120872
O2	O	2.155653	0.617438	0.620872
O3	O	1.292353	0.128679	0.120876
O4	O	1.792353	0.628679	0.620876
O5	O	1.483972	0.001225	0.120876
O6	O	1.983972	0.501225	0.620876
O7	O	1.464034	0.244892	0.120872
O8	O	1.964034	0.744892	0.620872
O9	O	1.483958	0.001224	-0.120909
O10	O	1.983958	0.501224	0.379091
O11	O	1.292339	0.128678	-0.120909
O12	O	1.792339	0.628678	0.379091
O13	O	1.655638	0.117437	-0.120913
O14	O	2.155638	0.617437	0.379087
Cu15	Cu	1.473988	0.123057	-0.142988
Cu16	Cu	1.973988	0.623057	0.357012
Cu17	Cu	1.474004	0.123059	0.142951
Cu18	Cu	1.974004	0.623059	0.642951
O19	O	1.464020	0.244891	-0.120913
O20	O	1.964020	0.744891	0.379087
C21	C	1.245857	0.127861	-0.000016
C22	C	1.745857	0.627861	0.499984
C23	C	1.107335	0.125413	-0.000014
C24	C	1.607335	0.625413	0.499986
C25	C	1.483153	-0.029976	-0.000013
C26	C	1.983153	0.470024	0.499987
C27	C	1.480720	-0.122943	-0.000002
C28	C	1.980720	0.377057	0.499998
C29	C	1.031420	0.196730	-0.000015
C30	C	1.531420	0.696730	0.499985
C31	C	0.888250	0.194202	-0.000013
C32	C	1.388250	0.694202	0.499987
C33	C	1.471777	-0.460733	-0.000015
C34	C	1.971777	0.039267	0.499985
C35	C	1.610082	-0.436626	-0.000557
C36	C	2.110082	0.063374	0.499443
C37	C	1.612711	-0.339935	-0.000007
C38	C	2.112711	0.160065	0.499993
C39	C	1.476215	-0.293151	-0.000010
C40	C	1.976215	0.206849	0.499990
C41	C	1.407077	-0.322649	0.138058
C42	C	1.907077	0.177351	0.638058
C43	C	1.405412	-0.419449	0.138168
C44	C	1.905412	0.080551	0.638168
C45	C	1.402572	-0.419323	-0.136787
C46	C	1.902572	0.080677	0.363213
C47	C	1.407697	-0.322801	-0.138606
C48	C	1.907697	0.177199	0.361394
C49	C	1.478716	-0.198441	-0.000002
C50	C	1.978716	0.301559	0.499998
C51	C	1.469272	-0.555443	-0.000014
C52	C	1.969272	-0.055443	0.499986
C53	C	1.702134	0.118256	-0.000018
C54	C	2.202134	0.618256	0.499982
C55	C	1.840657	0.120703	-0.000011
C56	C	2.340657	0.620703	0.499989
C57	C	1.464838	0.276092	-0.000021
C58	C	1.964838	0.776092	0.499979
C59	C	1.467271	0.369059	-0.000023
C60	C	1.967271	0.869059	0.499977
N61	N	1.473985	0.123056	-0.344102
N62	N	1.973985	0.623056	0.155898
C63	C	1.554638	0.069426	-0.583703
C64	C	2.054638	0.569426	-0.083703
C65	C	1.554622	0.069427	-0.416291
C66	C	2.054622	0.569427	0.083709
N67	N	1.474017	0.123053	0.344065
N68	N	1.974017	0.623053	0.844065
H69	H	1.072420	0.259658	-0.000024
H70	H	1.572420	0.759658	0.499976
F71	F	1.277472	-0.280458	-0.149510
F72	F	1.777472	0.219542	0.350490
H73	H	1.623679	0.023514	-0.645799
H74	H	2.123679	0.523514	-0.145799
F75	F	1.459123	-0.455983	-0.273571
F76	F	1.959123	0.044017	0.226429
H77	H	0.905880	0.059647	-0.000001
H78	H	1.405880	0.559647	0.499999
F79	F	1.269509	-0.438375	-0.138009
F80	F	1.769509	0.061625	0.361991
H81	H	1.404953	0.168969	-0.406210
H82	H	1.904953	0.668969	0.093790
F83	F	1.644838	0.009409	-0.335103
F84	F	2.144838	0.509409	0.164897
F85	F	1.473490	-0.298152	-0.272116
F86	F	1.973490	0.201848	0.227884
H87	H	1.663385	-0.464317	-0.099571
H88	H	2.163385	0.035683	0.400429
F89	F	0.802993	0.274005	-0.000003
F90	F	1.302993	0.774005	0.499997
H91	H	1.066335	0.062485	0.000024
H92	H	1.566335	0.562485	0.500024
F93	F	1.383785	0.183072	-0.574775
F94	F	1.883785	0.683072	-0.074775
F95	F	1.683460	-0.314657	-0.129386
F96	F	2.183460	0.185343	0.370614
F97	F	1.679385	-0.474154	0.128133
F98	F	2.179385	0.025846	0.628133
H99	H	1.667189	-0.321217	0.099137
H100	H	2.167189	0.178783	0.599137
F101	F	1.468019	-0.454143	0.273065
F102	F	1.968019	0.045857	0.773065
H103	H	1.304006	-0.434582	0.144422
H104	H	1.804006	0.065418	0.644422
F105	F	1.469846	-0.296072	0.272363
F106	F	1.969846	0.203928	0.772363
F107	F	1.275792	-0.281747	0.144774
F108	F	1.775792	0.218253	0.644774
