data_functionalizedCrystal
_audit_creation_method	'MofGen! by Chris Wilmer'
_symmetry_space_group_name_H-M	'P1'
_symmetry_Int_Tables_number	1
_symmetry_cell_setting	triclinic
loop_
_symmetry_equiv_pos_as_xyz
  x,y,z
_cell_length_a	18.101398
_cell_length_b	21.295417
_cell_length_c	18.101389
_cell_angle_alpha	89.977434
_cell_angle_beta	89.975673
_cell_angle_gamma	90.025773
loop_
_atom_site_label
_atom_site_type_symbol
_atom_site_fract_x
_atom_site_fract_y
_atom_site_fract_z
Zn1	Zn	1.132124	-0.250755	-0.418817
Zn2	Zn	1.132021	-0.356008	-0.294967
Zn3	Zn	1.008283	-0.250748	-0.294979
Zn4	Zn	1.008235	-0.355981	-0.418755
O5	O	1.070166	-0.303373	-0.356880
O6	O	1.235743	-0.264731	-0.402409
O7	O	1.115584	-0.342054	-0.191335
O8	O	1.024774	-0.162660	-0.311437
O9	O	1.235668	-0.342060	-0.311417
O10	O	1.115759	-0.162664	-0.402421
O11	O	1.024674	-0.264720	-0.191344
O12	O	0.904644	-0.264694	-0.311377
O13	O	1.024692	-0.342014	-0.522397
O14	O	0.904609	-0.342008	-0.402315
O15	O	1.115713	-0.264705	-0.522442
O16	O	1.115538	-0.444094	-0.311357
O17	O	1.024592	-0.444074	-0.402304
C18	C	0.877755	-0.303348	-0.356841
C19	C	0.795441	-0.303352	-0.356842
C20	C	0.496350	-0.303391	-0.356904
C21	C	0.527673	-0.254504	-0.299967
C22	C	0.613291	-0.254635	-0.299724
C23	C	0.644733	-0.303371	-0.356873
C24	C	0.613615	-0.369679	-0.335543
C25	C	0.527970	-0.369407	-0.335147
C26	C	0.527965	-0.286547	-0.435305
C27	C	0.613615	-0.285070	-0.434877
C28	C	0.728592	-0.303364	-0.356857
C29	C	0.412491	-0.303403	-0.356919
C30	C	1.070069	-0.466925	-0.356839
C31	C	1.070095	-0.536893	-0.356846
C32	C	1.117492	-0.569749	-0.309538
C33	C	1.117527	-0.635491	-0.309555
C34	C	1.070151	-0.668375	-0.356871
C35	C	1.022751	-0.635511	-0.404188
C36	C	1.022722	-0.569770	-0.404175
N37	N	1.005367	-0.771637	-0.362504
N38	N	1.005396	-0.834089	-0.362512
C39	C	1.070234	-0.866450	-0.356914
N40	N	1.135044	-0.834001	-0.351293
N41	N	1.135014	-0.771543	-0.351282
C42	C	1.070177	-0.739661	-0.356891
C43	C	1.117673	-0.970592	-0.309622
C44	C	1.117709	-1.036335	-0.309644
C45	C	1.022926	-1.036354	-0.404273
C46	C	1.022897	-0.970612	-0.404255
C47	C	1.070269	-0.937734	-0.356925
C48	C	1.263328	-0.303399	-0.356919
C49	C	1.345642	-0.303410	-0.356935
C50	C	1.070209	-0.303357	-0.550042
C51	C	1.070227	-0.303350	-0.632356
C52	C	1.070283	-0.139183	-0.356937
C53	C	1.070334	-0.069215	-0.356961
C54	C	1.070270	-0.303232	-0.931447
C55	C	1.012805	-0.351719	-0.900093
C56	C	1.012960	-0.351944	-0.814475
C57	C	1.070248	-0.303291	-0.783064
C58	C	1.148274	-0.321303	-0.814168
C59	C	1.147953	-0.321621	-0.899813
C60	C	1.050388	-0.236626	-0.899877
C61	C	1.048652	-0.237011	-0.814226
C62	C	1.070240	-0.303323	-0.699205
C63	C	1.070283	-0.303202	-1.015306
C64	C	1.070166	-0.303344	-0.164469
C65	C	1.070291	-0.303173	-0.082155
H66	H	0.507709	-0.322155	-0.477728
H67	H	1.192239	-0.287098	-0.793825
H68	H	0.954772	-0.340562	-0.920680
N69	N	1.165885	-0.536177	-0.261190
N70	N	1.208203	-0.565526	-0.218954
H71	H	1.242382	-0.541815	-0.184808
N72	N	0.639137	-0.223861	-0.455068
N73	N	0.677056	-0.216647	-0.512174
H74	H	0.695082	-0.173417	-0.526434
H75	H	0.635021	-0.318083	-0.479573
N76	N	1.097320	-0.189287	-0.787387
N77	N	1.102578	-0.179489	-0.719511
H78	H	1.136956	-0.145787	-0.700551
N79	N	0.640469	-0.387926	-0.264420
N80	N	0.678067	-0.436807	-0.257622
H81	H	0.697031	-0.449692	-0.207390
H82	H	1.165420	-0.369476	-0.792722
H83	H	0.984298	-0.943858	-0.442774
N84	N	1.166116	-1.069909	-0.261316
N85	N	1.166136	-1.128606	-0.261334
H86	H	1.200324	-1.152319	-0.227201
N87	N	1.166073	-0.936994	-0.261301
N88	N	1.166045	-0.878297	-0.261298
H89	H	1.200231	-0.854569	-0.227175
N90	N	1.029102	-0.413284	-0.927068
N91	N	0.989592	-0.458764	-0.908415
H92	H	1.001105	-0.502246	-0.927464
H93	H	0.984355	-1.063127	-0.442802
N94	N	1.029453	-0.413876	-0.788780
N95	N	1.040891	-0.457066	-0.834100
H96	H	1.052540	-0.500809	-0.815954
H97	H	1.156126	-0.662248	-0.271032
N98	N	0.940375	-0.337800	-0.788097
N99	N	0.889247	-0.327694	-0.832941
H100	H	0.837980	-0.317708	-0.814316
N101	N	0.500893	-0.226949	-0.459629
N102	N	0.457964	-0.196163	-0.419470
H103	H	0.438842	-0.154070	-0.436641
N104	N	0.639679	-0.192945	-0.316476
N105	N	0.594843	-0.149492	-0.328427
H106	H	0.613475	-0.105918	-0.340248
N107	N	0.974366	-0.669108	-0.452521
N108	N	0.974397	-0.727805	-0.452525
H109	H	0.940227	-0.751533	-0.486664
N110	N	0.974304	-0.536195	-0.452490
N111	N	0.974283	-0.477498	-0.452469
H112	H	0.940087	-0.453784	-0.486592
H113	H	1.164808	-0.370312	-0.919793
H114	H	1.192220	-0.287839	-0.920557
H115	H	0.994480	-0.220216	-0.921464
H116	H	0.991232	-0.223428	-0.793895
N117	N	1.102890	-0.191311	-0.925329
N118	N	1.110787	-0.181848	-0.993029
H119	H	1.147869	-0.149848	-1.011009
N120	N	0.501870	-0.192630	-0.316555
N121	N	0.516544	-0.168161	-0.377605
H122	H	0.498314	-0.124461	-0.389322
H123	H	0.633745	-0.265769	-0.241630
N124	N	0.500626	-0.268311	-0.227518
N125	N	0.458382	-0.313999	-0.217635
H126	H	0.439279	-0.323753	-0.166468
N127	N	0.502872	-0.387331	-0.263245
N128	N	0.548608	-0.399953	-0.213705
H129	H	0.530887	-0.412612	-0.162922
N130	N	0.501979	-0.416659	-0.384887
N131	N	0.518878	-0.472893	-0.374611
H132	H	0.500524	-0.506268	-0.409735
H133	H	0.633980	-0.407079	-0.375715
