data_functionalizedCrystal
_audit_creation_method	'MofGen! by Chris Wilmer'
_symmetry_space_group_name_H-M	'P1'
_symmetry_Int_Tables_number	1
_symmetry_cell_setting	triclinic
loop_
_symmetry_equiv_pos_as_xyz
  x,y,z
_cell_length_a	10.654550
_cell_length_b	17.038272
_cell_length_c	9.130313
_cell_angle_alpha	89.998262
_cell_angle_beta	89.996220
_cell_angle_gamma	87.798229
loop_
_atom_site_label
_atom_site_type_symbol
_atom_site_fract_x
_atom_site_fract_y
_atom_site_fract_z
O1	O	1.678036	0.109874	-0.121922
O2	O	1.313530	0.120343	-0.121899
O3	O	1.493617	0.001281	-0.121899
O4	O	1.497950	0.228936	-0.121923
O5	O	1.493615	0.001284	0.121700
O6	O	1.313528	0.120346	0.121700
O7	O	1.678034	0.109878	0.121676
Cu8	Cu	1.495781	0.115112	0.143931
Cu9	Cu	1.495783	0.115108	-0.144153
O10	O	1.497948	0.228939	0.121676
C11	C	1.266660	0.119576	-0.000097
C12	C	1.127003	0.117276	-0.000087
C13	C	1.054026	0.187378	-0.000116
C14	C	0.922804	0.185212	-0.000141
C15	C	0.937548	0.042837	-0.000115
C16	C	1.068767	0.045004	-0.000080
C17	C	1.045513	0.269577	-0.000137
C18	C	0.914292	0.267411	-0.000162
C19	C	1.489675	-0.027867	-0.000100
C20	C	1.477918	-0.114726	-0.000099
C21	C	1.585862	-0.164237	-0.000105
C22	C	1.574808	-0.245850	-0.000118
C23	C	1.455808	-0.277949	-0.000115
C24	C	1.347856	-0.228431	-0.000114
C25	C	1.358911	-0.146821	-0.000111
C26	C	1.416750	-0.523925	-0.000133
C27	C	1.405702	-0.605542	-0.000131
C28	C	1.632656	-0.622955	-0.000137
C29	C	1.643701	-0.541342	-0.000126
C30	C	1.535749	-0.491831	-0.000133
C31	C	1.444505	-0.361370	-0.000124
C32	C	1.547052	-0.408412	-0.000134
C33	C	1.724905	0.110645	-0.000129
C34	C	1.864562	0.112944	-0.000148
C35	C	1.501889	0.258088	-0.000126
C36	C	1.513646	0.344947	-0.000136
N37	N	1.495788	0.115114	0.346553
N38	N	1.495785	0.115100	-0.346776
C39	C	1.575554	0.062412	0.423205
C40	C	1.575550	0.062403	0.576542
C41	C	1.416010	0.167805	0.576561
C42	C	1.416009	0.167810	0.423227
C43	C	1.667667	0.001561	0.423195
C44	C	1.667663	0.001552	0.576532
H45	H	1.128180	-0.012080	-0.000035
O46	O	1.338582	0.219100	0.650882
C47	C	1.279504	0.354700	0.697881
C48	C	1.367255	0.296694	0.613603
H49	H	1.302672	0.417447	0.667796
H50	H	1.177758	0.343985	0.667703
H51	H	1.293177	0.345603	0.820634
H52	H	1.353693	0.305757	0.490831
H53	H	1.468969	0.307424	0.643903
H54	H	1.682764	-0.138109	-0.000098
O55	O	1.635347	-0.070203	0.373785
C56	C	1.576622	-0.200997	0.437812
C57	C	1.613180	-0.119760	0.493968
H58	H	1.558716	-0.241092	0.534951
H59	H	1.487839	-0.194418	0.368509
H60	H	1.656343	-0.227640	0.368386
H61	H	1.533542	-0.093073	0.563454
H62	H	1.702001	-0.126390	0.563191
H63	H	1.765419	0.014955	0.618141
H64	H	1.643941	-0.382273	-0.000169
H65	H	1.077829	0.301726	0.101811
O66	O	1.679793	-0.293832	-0.000048
C67	C	1.906065	-0.302491	-0.000119
C68	C	1.787268	-0.248061	-0.000164
H69	H	1.992989	-0.265506	-0.000244
H70	H	1.906643	-0.341122	0.101848
H71	H	1.906504	-0.341147	-0.102043
H72	H	1.786751	-0.209355	0.101691
H73	H	1.786737	-0.209482	-0.102199
H74	H	1.740603	-0.515213	-0.000128
O75	O	0.881033	-0.027384	0.000141
C76	C	0.853518	-0.149752	0.126302
C77	C	0.917574	-0.070244	0.126215
H78	H	0.883057	-0.184434	0.228206
H79	H	0.747186	-0.139307	0.126370
H80	H	0.882959	-0.184399	0.024320
H81	H	0.888234	-0.035557	0.228180
H82	H	1.023894	-0.080745	0.126072
O83	O	1.090749	0.300853	-0.125665
C84	C	1.041342	0.357296	-0.361677
C85	C	0.989941	0.321912	-0.219575
H86	H	0.959866	0.374317	-0.437655
H87	H	1.095905	0.411668	-0.334382
H88	H	1.106331	0.312040	-0.418237
H89	H	0.924902	0.367110	-0.162946
H90	H	0.935452	0.267525	-0.246965
H91	H	1.308794	-0.631674	-0.000105
H92	H	1.760620	0.020614	0.375629
O93	O	0.862746	0.297105	0.125356
C94	C	0.900318	0.355013	0.361337
C95	C	0.958858	0.321427	0.219251
H96	H	0.977998	0.374671	0.437303
H97	H	0.834700	0.407397	0.334016
H98	H	0.844909	0.307776	0.417923
H99	H	1.014330	0.368607	0.162596
H100	H	1.024406	0.269025	0.246667
H101	H	1.720544	-0.663275	-0.000135
H102	H	0.875436	0.298381	-0.102119
H103	H	1.351046	0.210718	0.360818
O104	O	1.311983	-0.475755	0.000065
C105	C	1.192709	-0.373540	0.126310
C106	C	1.311426	-0.428041	0.126252
H107	H	1.192206	-0.334961	0.228337
H108	H	1.192201	-0.334843	0.024432
H109	H	1.105777	-0.410517	0.126246
H110	H	1.398422	-0.391126	0.126368
H111	H	1.311823	-0.466742	0.228122
O112	O	1.232327	-0.259704	-0.000308
C113	C	1.088108	-0.341698	-0.126544
C114	C	1.218994	-0.306351	-0.126496
H115	H	1.077277	-0.379407	-0.228572
H116	H	1.077233	-0.379523	-0.024666
H117	H	1.012877	-0.292278	-0.126471
H118	H	1.294304	-0.355721	-0.126621
H119	H	1.229762	-0.268506	-0.228365
O120	O	1.253964	-0.098802	-0.000299
C121	C	1.063419	-0.058908	-0.126547
C122	C	1.182207	-0.113346	-0.126489
H123	H	1.005384	-0.070636	-0.228576
H124	H	1.005192	-0.070668	-0.024670
H125	H	1.091792	0.004928	-0.126480
H126	H	1.153947	-0.177201	-0.126608
H127	H	1.240404	-0.101519	-0.228357
O128	O	1.328981	-0.392647	-0.000303
C129	C	1.184774	-0.474650	-0.126537
C130	C	1.315651	-0.439292	-0.126496
H131	H	1.173944	-0.512357	-0.228568
H132	H	1.173913	-0.512480	-0.024663
H133	H	1.109532	-0.425236	-0.126452
H134	H	1.390971	-0.488655	-0.126632
H135	H	1.326404	-0.401442	-0.228361
H136	H	1.631874	-0.055271	0.624087
