data_functionalizedCrystal
_audit_creation_method	'MofGen! by Chris Wilmer'
_symmetry_space_group_name_H-M	'P1'
_symmetry_Int_Tables_number	1
_symmetry_cell_setting	triclinic
loop_
_symmetry_equiv_pos_as_xyz
  x,y,z
_cell_length_a	19.851628
_cell_length_b	17.917603
_cell_length_c	17.917603
_cell_angle_alpha	60.138055
_cell_angle_beta	90.006324
_cell_angle_gamma	63.032829
loop_
_atom_site_label
_atom_site_type_symbol
_atom_site_fract_x
_atom_site_fract_y
_atom_site_fract_z
Zr1	Zr	0.687408	0.806776	-0.128968
O2	O	0.590746	0.951820	-0.249517
O3	O	0.712421	0.654545	-0.087313
O4	O	0.724625	0.796396	-0.242720
O5	O	0.574170	0.820664	0.023131
O6	O	0.835486	0.796383	-0.242705
O7	O	0.578542	0.809970	-0.094110
O8	O	0.813654	0.542638	0.035290
O9	O	0.596001	1.074409	-0.254863
O10	O	0.811403	0.719812	-0.075215
O11	O	0.725406	0.727802	0.012270
O12	O	0.739776	0.894813	-0.170702
O13	O	0.653778	0.902804	-0.083217
Zr14	Zr	0.857245	0.823811	0.058042
Zr15	Zr	0.864218	0.806755	-0.128944
Zr16	Zr	0.680435	0.823832	0.058018
Zr17	Zr	0.695789	1.002290	-0.137495
Zr18	Zr	0.848864	0.628297	0.066569
O19	O	0.832232	0.976042	0.016387
O20	O	0.842147	0.951791	-0.249483
O21	O	0.580831	0.976071	0.016354
O22	O	0.953906	0.678767	0.178591
O23	O	0.963822	0.654516	-0.087279
O24	O	0.702506	0.678796	0.178557
O25	O	0.970483	0.809923	-0.094057
O26	O	0.820028	0.834191	0.171794
O27	O	0.709167	0.834204	0.171779
O28	O	0.966111	0.820617	0.023184
O29	O	0.736541	1.074392	-0.254844
O30	O	0.808111	0.556195	0.183919
O31	O	0.948652	0.556178	0.183937
O32	O	0.954195	0.542621	0.035309
O33	O	0.590458	1.087966	-0.106234
O34	O	0.730999	1.087949	-0.106215
O35	O	0.804877	0.735774	0.099776
O36	O	0.890874	0.727783	0.012292
O37	O	0.819247	0.902784	-0.083195
O38	O	0.733249	0.910775	0.004289
C39	C	0.761844	0.570735	-0.024797
C40	C	0.758286	0.487734	-0.021177
C41	C	0.751785	0.335768	-0.014566
C42	C	0.792865	0.294814	-0.056357
C43	C	0.789249	0.210255	-0.052679
C44	C	0.755401	0.420335	-0.018243
C45	C	0.551164	0.815320	-0.035492
C46	C	0.476104	0.815328	-0.035503
C47	C	0.255702	0.910726	-0.087536
C48	C	0.232492	0.857700	-0.119932
C49	C	0.338695	0.815303	-0.035476
C50	C	0.228165	0.868334	-0.003096
C51	C	0.205961	0.815287	-0.035452
C52	C	0.316476	0.762273	-0.067921
C53	C	0.312145	0.772925	0.048960
C54	C	0.288984	0.719829	0.016587
C55	C	0.415158	0.815316	-0.035493
C56	C	0.129503	0.815266	-0.035437
C57	C	0.993489	0.815267	-0.035433
C58	C	1.068549	0.815258	-0.035423
C59	C	0.781049	0.793959	-0.269354
C60	C	0.784010	0.786719	-0.348734
C61	C	0.782809	1.059852	-0.046129
C62	C	0.786367	1.142853	-0.049749
C63	C	0.789434	0.773493	-0.494089
C64	C	0.755221	0.857090	-0.576839
C65	C	0.758239	0.849731	-0.657720
C66	C	0.786417	0.780850	-0.413200
C67	C	0.763604	0.836628	0.198428
C68	C	0.760643	0.843868	0.277809
C69	C	0.983006	0.570709	-0.024767
C70	C	1.054508	0.487699	-0.021137
C71	C	0.753121	0.592069	0.209094
C72	C	0.746603	0.516309	0.292095
C73	C	0.974283	0.592043	0.209124
C74	C	1.042825	0.516274	0.292135
C75	C	0.570370	1.038544	-0.280050
C76	C	0.501828	1.114313	-0.363060
C77	C	0.561647	1.059878	-0.046159
C78	C	0.490145	1.142888	-0.049789
C79	C	0.791532	1.038518	-0.280020
C80	C	0.798050	1.114278	-0.363020
C81	C	1.046604	0.444555	-0.065118
C82	C	1.113783	0.366568	-0.061725
C83	C	1.188865	0.331721	-0.014345
C84	C	1.196768	0.374873	0.029636
C85	C	1.129590	0.452863	0.026238
C86	C	0.785024	0.484893	0.376758
C87	C	0.778897	0.413719	0.454753
C88	C	0.734352	0.373958	0.448082
C89	C	0.695926	0.405381	0.363409
C90	C	0.702049	0.476559	0.285417
C91	C	1.119911	0.476521	0.285451
C92	C	1.184321	0.405338	0.363441
C93	C	1.171644	0.373904	0.448113
C94	C	1.094551	0.413664	0.454795
C95	C	1.030142	0.484851	0.376806
C96	C	0.424743	1.154076	-0.356377
C97	C	0.360334	1.225283	-0.434368
C98	C	0.373011	1.256721	-0.519040
C99	C	0.450104	1.216955	-0.525722
C100	C	0.514511	1.145755	-0.447732
C101	C	0.498050	1.186039	-0.005816
C102	C	0.430873	1.264046	-0.009230
C103	C	0.355791	1.298895	-0.056613
C104	C	0.347888	1.255740	-0.100591
C105	C	0.415064	1.177740	-0.097181
C106	C	0.842602	1.154017	-0.356321
C107	C	0.848742	1.225192	-0.434301
C108	C	0.810325	1.256632	-0.518980
C109	C	0.765772	1.216886	-0.525678
C110	C	0.759637	1.145707	-0.447698
H111	H	0.830751	0.323259	-0.094899
H112	H	0.242374	0.991404	-0.131618
F113	F	0.406638	1.131817	-0.143981
F114	F	0.883494	1.120569	-0.266206
H115	H	0.713902	0.307326	0.023971
H116	H	0.301098	1.362409	-0.059382
H117	H	1.257908	0.346489	0.068211
H118	H	1.243558	0.268215	-0.011584
H119	H	1.107332	0.331443	-0.097541
F120	F	0.896158	1.267485	-0.427154
H121	H	0.286747	1.284127	-0.139169
F122	F	0.366109	0.703722	-0.103829
F123	F	1.081071	0.380200	0.544917
F124	F	0.306548	0.614304	0.074093
F125	F	0.187516	0.904524	-0.213251
F126	F	0.357122	0.726146	0.142259
H127	H	1.224096	0.315938	0.511610
F128	F	0.966703	0.481630	-0.115551
H129	H	0.659657	0.372997	0.357991
F130	F	0.816860	1.332391	-0.601966
F131	F	0.830676	0.672728	-0.480885
F132	F	0.661156	0.509982	0.195314
F133	F	0.724884	1.250364	-0.615808
H134	H	0.437323	1.299171	0.026586
F135	F	0.819801	0.380287	0.544858
H136	H	0.460416	1.242561	-0.594671
H137	H	0.723356	1.113359	-0.453166
H138	H	1.136037	0.487982	0.062058
H139	H	0.190083	0.913187	0.024278
H140	H	0.723661	0.934186	-0.586941
H141	H	0.821297	0.517259	0.382207
H142	H	0.729372	0.316002	0.511596
H143	H	1.130247	0.502103	0.216514
H144	H	1.247088	0.372971	0.357985
F145	F	0.948103	0.527148	0.383933
H146	H	0.414405	1.128483	-0.287439
H147	H	0.297567	1.257648	-0.428910
H148	H	0.320559	1.314697	-0.582537
H149	H	0.577276	1.113380	-0.453184
H150	H	0.559178	1.157672	0.032774
