data_functionalizedCrystal
_audit_creation_method	'MofGen! by Chris Wilmer'
_symmetry_space_group_name_H-M	'P1'
_symmetry_Int_Tables_number	1
_symmetry_cell_setting	triclinic
loop_
_symmetry_equiv_pos_as_xyz
  x,y,z
_cell_length_a	13.897449
_cell_length_b	15.297327
_cell_length_c	15.296720
_cell_angle_alpha	107.319222
_cell_angle_beta	80.337801
_cell_angle_gamma	80.292005
loop_
_atom_site_label
_atom_site_type_symbol
_atom_site_fract_x
_atom_site_fract_y
_atom_site_fract_z
Zn1	Zn	1.280070	0.461193	0.589805
Zn2	Zn	1.279960	0.589814	0.461199
Zn3	Zn	1.152528	0.434324	0.434325
Zn4	Zn	1.084978	0.616662	0.616648
O5	O	1.199384	0.525498	0.525494
O6	O	1.415033	0.478264	0.572758
O7	O	1.291280	0.546708	0.327509
O8	O	1.197762	0.307751	0.432469
O9	O	1.414952	0.572762	0.478272
O10	O	1.291467	0.327491	0.546699
O11	O	1.197656	0.432470	0.307765
O12	O	1.008589	0.458502	0.458498
O13	O	1.082634	0.618519	0.743211
O14	O	0.958961	0.592465	0.592449
O15	O	1.225967	0.504296	0.723490
O16	O	1.225780	0.723513	0.504300
O17	O	1.082528	0.743238	0.618508
C18	C	1.146834	0.767122	0.567253
C19	C	1.124434	0.870495	0.585149
C20	C	0.948777	0.525482	0.525471
C21	C	0.841557	0.525501	0.525487
C22	C	1.146778	0.567399	0.768034
C23	C	1.124360	0.585255	0.871390
C24	C	0.645255	0.525509	0.525512
C25	C	0.754492	0.525502	0.525495
C26	C	1.450969	0.525515	0.525518
C27	C	1.558180	0.525522	0.525528
C28	C	1.252161	0.282934	0.483592
C29	C	1.274652	0.179568	0.465736
C30	C	1.359807	1.120712	0.397908
C31	C	1.380853	1.023587	0.381089
C32	C	1.316751	0.985309	0.432103
C33	C	1.231597	1.044166	0.499938
C34	C	1.210545	1.141300	0.516753
C35	C	1.167488	1.005897	0.550948
C36	C	1.082335	1.064754	0.618783
C37	C	1.061287	1.161878	0.635595
C38	C	1.125390	1.200156	0.584582
C39	C	1.188541	0.908763	0.534132
C40	C	1.039279	0.929352	0.652978
C41	C	1.018232	1.026477	0.669796
C42	C	1.251856	0.483693	0.283886
C43	C	1.274517	0.465575	0.180485
C44	C	1.359678	0.397717	1.121663
C45	C	1.380746	0.380942	1.024556
C46	C	1.316651	0.432019	0.986259
C47	C	1.231485	0.499874	1.045081
C48	C	1.210419	0.516655	1.142199
C49	C	1.167392	0.550957	1.006795
C50	C	1.082226	0.618812	1.065616
C51	C	1.061163	0.635590	1.162724
C52	C	1.125258	0.584513	1.201021
C53	C	1.188458	0.534175	0.909676
C54	C	1.039199	0.653113	0.930212
C55	C	1.018131	0.669888	1.027320
H56	H	1.333891	0.906225	0.418404
H57	H	0.991821	0.690849	1.210616
C58	C	0.967618	1.226618	0.710206
H59	H	0.932460	1.189915	0.738186
H60	H	0.925119	1.258405	0.681170
H61	H	0.987495	1.271466	0.757307
H62	H	0.948900	1.074411	0.725028
C63	C	1.430308	1.162813	0.341795
H64	H	1.484035	1.113852	0.298983
H65	H	1.456380	1.206812	0.383949
H66	H	1.394003	1.193737	0.307813
H67	H	1.257873	0.860850	0.478901
H68	H	1.450184	0.975669	0.325858
H69	H	1.108260	1.279243	0.598274
C70	C	0.968689	0.709298	0.888096
H71	H	0.993426	0.689578	0.821834
H72	H	0.965754	0.774533	0.914802
H73	H	0.903389	0.698425	0.901653
H74	H	1.108109	0.598168	1.280093
H75	H	1.333811	0.418357	0.907189
C76	C	1.474419	0.306307	0.959859
H77	H	1.509570	0.278285	0.996572
H78	H	1.516921	0.335340	0.928125
H79	H	1.454553	0.259234	0.914973
C80	C	0.968765	0.887257	0.709099
H81	H	0.993504	0.820983	0.689378
H82	H	0.903466	0.900869	0.698204
H83	H	0.965842	0.913938	0.774342
H84	H	0.948787	0.725136	1.075225
H85	H	1.257801	0.478926	0.861793
C86	C	1.430169	0.341540	1.163791
H87	H	1.405419	0.361250	1.230051
H88	H	1.495469	0.352401	1.150235
H89	H	1.433093	0.276302	1.137084
