data_functionalizedCrystal
_audit_creation_method	'MofGen! by Chris Wilmer'
_symmetry_space_group_name_H-M	'P1'
_symmetry_Int_Tables_number	1
_symmetry_cell_setting	triclinic
loop_
_symmetry_equiv_pos_as_xyz
  x,y,z
_cell_length_a	17.077404
_cell_length_b	18.215405
_cell_length_c	17.077396
_cell_angle_alpha	89.968409
_cell_angle_beta	89.980499
_cell_angle_gamma	90.025110
loop_
_atom_site_label
_atom_site_type_symbol
_atom_site_fract_x
_atom_site_fract_y
_atom_site_fract_z
Zn1	Zn	1.200044	-0.292980	-0.443826
Zn2	Zn	1.533377	0.040353	-0.110492
Zn3	Zn	1.866710	0.373687	0.222841
Zn4	Zn	1.199946	-0.416053	-0.312553
Zn5	Zn	1.533280	-0.082720	0.020781
Zn6	Zn	1.866613	0.250613	0.354114
Zn7	Zn	1.068776	-0.293006	-0.312574
Zn8	Zn	1.402109	0.040328	0.020760
Zn9	Zn	1.735442	0.373661	0.354093
Zn10	Zn	1.068739	-0.416010	-0.443776
Zn11	Zn	1.402072	-0.082676	-0.110443
Zn12	Zn	1.735406	0.250657	0.222890
O13	O	1.134376	-0.354512	-0.378182
O14	O	1.467709	-0.021179	-0.044849
O15	O	1.801043	0.312155	0.288485
O16	O	1.309878	-0.309313	-0.426424
O17	O	1.643211	0.024020	-0.093091
O18	O	1.976544	0.357353	0.240243
O19	O	1.182521	-0.399760	-0.202708
O20	O	1.515854	-0.066427	0.130625
O21	O	1.849187	0.266907	0.463958
O22	O	1.086245	-0.190018	-0.330014
O23	O	1.419578	0.143315	0.003319
O24	O	1.752911	0.476649	0.336653
O25	O	1.309806	-0.399735	-0.329978
O26	O	1.643139	-0.066402	0.003355
O27	O	1.976473	0.266932	0.336688
O28	O	1.182687	-0.189999	-0.426444
O29	O	1.516020	0.143334	-0.093111
O30	O	1.849353	0.476668	0.240222
O31	O	1.086150	-0.309357	-0.202724
O32	O	1.419483	0.023976	0.130609
O33	O	1.752817	0.357309	0.463943
O34	O	0.958924	-0.309315	-0.329966
O35	O	1.292257	0.024018	0.003367
O36	O	1.625590	0.357352	0.336701
O37	O	1.086182	-0.399660	-0.553630
O38	O	1.419516	-0.066327	-0.220296
O39	O	1.752849	0.267006	0.113037
O40	O	0.958897	-0.399685	-0.426360
O41	O	1.292230	-0.066352	-0.093027
O42	O	1.625564	0.266981	0.240307
O43	O	1.182651	-0.309271	-0.553666
O44	O	1.515985	0.024062	-0.220333
O45	O	1.849318	0.357396	0.113001
O46	O	1.182485	-0.519032	-0.329930
O47	O	1.515819	-0.185699	0.003403
O48	O	1.849152	0.147635	0.336737
O49	O	1.086088	-0.519000	-0.426340
O50	O	1.419421	-0.185666	-0.093006
O51	O	1.752754	0.147667	0.240327
C52	C	0.930428	-0.354499	-0.378160
C53	C	1.263762	-0.021165	-0.044827
C54	C	1.597095	0.312168	0.288506
C55	C	0.843178	-0.354511	-0.378170
C56	C	1.176512	-0.021178	-0.044836
C57	C	1.509845	0.312156	0.288497
C58	C	0.802195	-0.401638	-0.428282
C59	C	1.135528	-0.068304	-0.094948
C60	C	1.468861	0.265029	0.238385
C61	C	0.720214	-0.401639	-0.428294
C62	C	1.053548	-0.068306	-0.094961
C63	C	1.386881	0.265027	0.238373
C64	C	0.679219	-0.354517	-0.378190
C65	C	1.012552	-0.021184	-0.044857
C66	C	1.345886	0.312149	0.288476
C67	C	0.720208	-0.307385	-0.328076
C68	C	1.053542	0.025948	0.005257
C69	C	1.386875	0.359282	0.338590
C70	C	0.802187	-0.307380	-0.328068
C71	C	1.135521	0.025953	0.005265
C72	C	1.468854	0.359286	0.338598
C73	C	0.549338	-0.307400	-0.328095
C74	C	0.882672	0.025934	0.005238
C75	C	1.216005	0.359267	0.338571
C76	C	0.467354	-0.307405	-0.328102
C77	C	0.800687	0.025928	0.005231
C78	C	1.134020	0.359262	0.338565
C79	C	0.467365	-0.401659	-0.428321
C80	C	0.800699	-0.068325	-0.094988
C81	C	1.134032	0.265008	0.238346
C82	C	0.549344	-0.401654	-0.428313
C83	C	0.882678	-0.068321	-0.094980
C84	C	1.216011	0.265013	0.238354
C85	C	0.590328	-0.354522	-0.378198
C86	C	0.923661	-0.021189	-0.044864
C87	C	1.256995	0.312144	0.288469
C88	C	1.134293	-0.545718	-0.378144
C89	C	1.467627	-0.212385	-0.044811
C90	C	1.800960	0.120948	0.288522
C91	C	1.134330	-0.627517	-0.378154
C92	C	1.467663	-0.294184	-0.044821
C93	C	1.800996	0.039149	0.288512
C94	C	1.184642	-0.815703	-0.328046
C95	C	1.517975	-0.482370	0.005287
C96	C	1.851308	-0.149037	0.338620
C97	C	1.184677	-0.892562	-0.328065
C98	C	1.518010	-0.559229	0.005268
C99	C	1.851343	-0.225896	0.338601
C100	C	1.084211	-0.892569	-0.428374
C101	C	1.417544	-0.559235	-0.095041
C102	C	1.750878	-0.225902	0.238293
C103	C	1.084180	-0.815711	-0.428359
C104	C	1.417514	-0.482378	-0.095025
C105	C	1.750847	-0.149045	0.238308
C106	C	1.134395	-0.777281	-0.378190
C107	C	1.467728	-0.443947	-0.044857
C108	C	1.801061	-0.110614	0.288476
C109	C	1.134460	-0.930997	-0.378225
C110	C	1.467794	-0.597663	-0.044892
C111	C	1.801127	-0.264330	0.288442
C112	C	1.134498	-1.014330	-0.378246
C113	C	1.467831	-0.680997	-0.044912
C114	C	1.801165	-0.347664	0.288421
C115	C	1.134358	-0.693942	-0.378170
C116	C	1.467691	-0.360609	-0.044837
C117	C	1.801025	-0.027275	0.288497
C118	C	1.339120	-0.354526	-0.378204
C119	C	1.672454	-0.021193	-0.044871
C120	C	2.005787	0.312141	0.288462
C121	C	1.426370	-0.354532	-0.378214
C122	C	1.759703	-0.021199	-0.044880
C123	C	2.093037	0.312135	0.288453
C124	C	1.134424	-0.354458	-0.582926
C125	C	1.467757	-0.021125	-0.249593
C126	C	1.801090	0.312209	0.083740
C127	C	1.134444	-0.354435	-0.670176
C128	C	1.467777	-0.021101	-0.336843
C129	C	1.801111	0.312232	-0.003510
C130	C	1.134481	-0.162559	-0.378237
C131	C	1.467814	0.170774	-0.044904
C132	C	1.801147	0.504107	0.288430
C133	C	1.134525	-0.080760	-0.378261
C134	C	1.467859	0.252573	-0.044927
C135	C	1.801192	0.585906	0.288406
C136	C	1.184677	-0.307365	-0.711187
C137	C	1.518010	0.025968	-0.377853
C138	C	1.851344	0.359302	-0.044520
C139	C	1.184687	-0.307341	-0.793167
C140	C	1.518020	0.025993	-0.459834
C141	C	1.851353	0.359326	-0.126501
C142	C	1.134466	-0.354390	-0.834136
C143	C	1.467799	-0.021057	-0.500802
C144	C	1.801133	0.312277	-0.167469
C145	C	1.084227	-0.401462	-0.793120
C146	C	1.417561	-0.068129	-0.459786
C147	C	1.750894	0.265205	-0.126453
C148	C	1.084214	-0.401482	-0.711141
C149	C	1.417548	-0.068149	-0.377807
C150	C	1.750881	0.265185	-0.044474
C151	C	1.084259	-0.401418	-0.963990
C152	C	1.417592	-0.068084	-0.630656
C153	C	1.750926	0.265249	-0.297323
C154	C	1.084273	-0.401399	-1.045974
C155	C	1.417606	-0.068065	-0.712641
C156	C	1.750939	0.265268	-0.379308
C157	C	1.184731	-0.307276	-1.046016
C158	C	1.518064	0.026057	-0.712683
C159	C	1.851398	0.359391	-0.379350
C160	C	1.184718	-0.307296	-0.964037
C161	C	1.518051	0.026037	-0.630704
C162	C	1.851385	0.359370	-0.297371
C163	C	1.134480	-0.354369	-0.923027
C164	C	1.467814	-0.021036	-0.589694
C165	C	1.801147	0.312297	-0.256360
C166	C	1.134374	-0.354513	-0.174234
C167	C	1.467707	-0.021180	0.159099
C168	C	1.801041	0.312154	0.492432
C169	C	1.134506	-0.354329	-0.086985
C170	C	1.467839	-0.020996	0.246348
C171	C	1.801172	0.312338	0.579682
H172	H	1.225530	-0.784415	-0.287197
H173	H	1.558863	-0.451082	0.046136
H174	H	1.892197	-0.117748	0.379469
N175	N	0.846389	-0.256545	-0.274020
N176	N	1.179722	0.076788	0.059313
N177	N	1.513055	0.410122	0.392646
H178	H	0.832095	-0.267906	-0.217912
H179	H	1.165428	0.065427	0.115421
H180	H	1.498762	0.398761	0.448754
H181	H	0.904528	-0.263710	-0.281685
H182	H	1.237862	0.069623	0.051649
H183	H	1.571195	0.402957	0.384982
N184	N	0.846406	-0.452463	-0.482325
N185	N	1.179739	-0.119129	-0.148992
N186	N	1.513072	0.214204	0.184341
H187	H	0.904558	-0.445312	-0.474716
H188	H	1.237892	-0.111979	-0.141383
H189	H	1.571225	0.221354	0.191950
H190	H	0.832047	-0.505008	-0.470006
H191	H	1.165380	-0.171674	-0.136672
H192	H	1.498714	0.161659	0.196661
N193	N	1.238863	-0.934008	-0.273976
N194	N	1.572196	-0.600675	0.059357
N195	N	1.905530	-0.267341	0.392690
H196	H	1.275236	-0.965845	-0.305916
H197	H	1.608570	-0.632511	0.027417
H198	H	1.941903	-0.299178	0.360751
H199	H	1.270614	-0.897953	-0.242204
H200	H	1.603947	-0.564620	0.091130
H201	H	1.937281	-0.231287	0.424463
N202	N	1.238866	-0.256580	-0.837411
N203	N	1.572199	0.076753	-0.504078
N204	N	1.905532	0.410086	-0.170745
H205	H	1.206986	-0.222466	-0.871426
H206	H	1.540319	0.110867	-0.538093
H207	H	1.873652	0.444201	-0.204759
H208	H	1.270676	-0.226826	-0.798978
H209	H	1.604009	0.106508	-0.465645
H210	H	1.937342	0.439841	-0.132311
N211	N	1.029976	-0.774266	-0.482440
N212	N	1.363309	-0.440932	-0.149106
N213	N	1.696642	-0.107599	0.184227
H214	H	1.037579	-0.719746	-0.474817
H215	H	1.370912	-0.386413	-0.141484
H216	H	1.704245	-0.053079	0.191849
H217	H	1.042162	-0.787650	-0.538517
H218	H	1.375495	-0.454317	-0.205184
H219	H	1.708828	-0.120983	0.128150
N220	N	1.030046	-0.934016	-0.482477
N221	N	1.363379	-0.600682	-0.149144
N222	N	1.696713	-0.267349	0.184190
H223	H	1.061933	-0.965857	-0.518891
H224	H	1.395267	-0.632524	-0.185558
H225	H	1.728600	-0.299191	0.147776
H226	H	0.993711	-0.965909	-0.450490
H227	H	1.327044	-0.632575	-0.117157
H228	H	1.660378	-0.299242	0.216177
H229	H	0.686849	-0.440016	-0.469099
H230	H	1.020182	-0.106682	-0.135766
H231	H	1.353516	0.226651	0.197567
H232	H	1.043301	-0.439804	-0.677751
H233	H	1.376635	-0.106470	-0.344418
H234	H	1.709968	0.226863	-0.011084
H235	H	1.043377	-0.439709	-1.079329
H236	H	1.376710	-0.106375	-0.745996
H237	H	1.710044	0.226958	-0.412662
H238	H	1.225575	-0.269054	-0.677836
H239	H	1.558908	0.064279	-0.344503
H240	H	1.892242	0.397613	-0.011169
H241	H	1.225616	-0.268989	-0.930683
H242	H	1.558950	0.064345	-0.597350
H243	H	1.892283	0.397678	-0.264016
H244	H	1.043338	-0.439738	-0.930602
H245	H	1.376671	-0.106405	-0.597268
H246	H	1.710004	0.226929	-0.263935
H247	H	1.225635	-0.268946	-1.079411
H248	H	1.558969	0.064387	-0.746078
H249	H	1.892302	0.397720	-0.412744
N250	N	1.030052	-0.452192	-0.837316
N251	N	1.363385	-0.118859	-0.503982
N252	N	1.696718	0.214475	-0.170649
H253	H	1.061933	-0.486291	-0.871328
H254	H	1.395266	-0.152958	-0.537995
H255	H	1.728600	0.180375	-0.204662
H256	H	0.998228	-0.481965	-0.798853
H257	H	1.331562	-0.148631	-0.465519
H258	H	1.664895	0.184702	-0.132186
H259	H	0.433993	-0.440032	-0.469129
H260	H	0.767326	-0.106699	-0.135796
H261	H	1.100659	0.226634	0.197538
N262	N	0.423122	-0.256606	-0.274048
N263	N	0.756456	0.076728	0.059286
N264	N	1.089789	0.410061	0.392619
H265	H	0.389119	-0.222547	-0.306005
H266	H	0.722452	0.110786	0.027328
H267	H	1.055785	0.444119	0.360661
H268	H	0.389142	-0.286555	-0.237641
H269	H	0.722476	0.046778	0.095693
H270	H	1.055809	0.380112	0.429026
N271	N	0.593545	-0.256563	-0.274047
N272	N	0.926878	0.076771	0.059286
N273	N	1.260212	0.410104	0.392619
H274	H	0.555137	-0.226713	-0.242306
H275	H	0.888470	0.106620	0.091028
H276	H	1.221803	0.439954	0.424361
H277	H	0.627531	-0.286475	-0.237660
H278	H	0.960864	0.046859	0.095673
H279	H	1.294197	0.380192	0.429007
H280	H	0.582721	-0.440029	-0.469108
H281	H	0.916054	-0.106696	-0.135774
H282	H	1.249387	0.226638	0.197559
H283	H	0.686823	-0.269014	-0.287284
H284	H	1.020157	0.064319	0.046049
H285	H	1.353490	0.397652	0.379382
