data_functionalizedCrystal
_audit_creation_method	'MofGen! by Chris Wilmer'
_symmetry_space_group_name_H-M	'P1'
_symmetry_Int_Tables_number	1
_symmetry_cell_setting	triclinic
loop_
_symmetry_equiv_pos_as_xyz
  x,y,z
_cell_length_a	16.959455
_cell_length_b	16.959453
_cell_length_c	12.759387
_cell_angle_alpha	90.034440
_cell_angle_beta	90.027824
_cell_angle_gamma	90.021841
loop_
_atom_site_label
_atom_site_type_symbol
_atom_site_fract_x
_atom_site_fract_y
_atom_site_fract_z
Zn1	Zn	1.208416	-0.314703	0.594183
Zn2	Zn	1.208310	-0.446903	0.418493
Zn3	Zn	1.076227	-0.314735	0.418498
Zn4	Zn	1.076198	-0.446836	0.594109
O5	O	1.142288	-0.380794	0.506321
O6	O	1.319013	-0.332253	0.570907
O7	O	1.190757	-0.429412	0.271472
O8	O	1.093819	-0.204120	0.441836
O9	O	1.318935	-0.429380	0.441827
O10	O	1.190937	-0.204096	0.570912
O11	O	1.093716	-0.332309	0.271476
O12	O	0.965612	-0.332245	0.441764
O13	O	1.093769	-0.429267	0.741140
O14	O	0.965591	-0.429299	0.570785
O15	O	1.190909	-0.332189	0.741195
O16	O	1.190729	-0.557505	0.441756
O17	O	1.093667	-0.557456	0.570780
C18	C	0.936922	-0.380768	0.506268
C19	C	0.849065	-0.380776	0.506270
C20	C	1.142205	-0.586161	0.506282
C21	C	1.142241	-0.674017	0.506301
C22	C	0.477538	-0.431318	0.439075
C23	C	0.477640	-0.330336	0.573695
C24	C	0.560186	-0.330323	0.573669
C25	C	0.601412	-0.380809	0.506347
C26	C	0.560092	-0.431308	0.439050
C27	C	0.601513	-0.279830	0.640972
C28	C	0.684064	-0.279816	0.640950
C29	C	0.725291	-0.330299	0.573622
C30	C	0.683966	-0.380799	0.506321
C31	C	0.725191	-0.431285	0.438999
C32	C	0.683867	-0.481783	0.371692
C33	C	0.601319	-0.481791	0.371721
C34	C	0.807839	-0.330290	0.573593
C35	C	0.807745	-0.431276	0.438973
C36	C	1.091681	-0.715295	0.573431
C37	C	1.192841	-0.715293	0.439194
C38	C	1.192881	-0.797839	0.439214
C39	C	1.142320	-0.839117	0.506343
C40	C	1.091720	-0.797848	0.573454
C41	C	1.243485	-0.839114	0.372112
C42	C	1.243527	-0.921664	0.372129
C43	C	1.192962	-0.962943	0.439254
C44	C	1.142359	-0.921670	0.506367
C45	C	1.091798	-0.962948	0.573496
C46	C	1.041191	-0.921676	0.640604
C47	C	1.041155	-0.839127	0.640579
C48	C	1.192998	-1.045492	0.439279
C49	C	1.091838	-1.045501	0.573520
C50	C	1.348456	-0.380821	0.506375
C51	C	1.436313	-0.380832	0.506398
C52	C	1.142348	-0.380717	0.780355
C53	C	1.142373	-0.380684	0.897131
C54	C	1.142393	-0.174626	0.506383
C55	C	1.142438	-0.086769	0.506409
C56	C	1.142274	-0.380814	0.233353
C57	C	1.142402	-0.380625	0.116577
C58	C	1.243532	-0.279603	0.897208
C59	C	1.294122	-0.229051	0.952107
C60	C	1.294141	-0.229022	1.061828
C61	C	1.243563	-0.279549	1.116654
C62	C	1.192973	-0.330101	1.061755
C63	C	1.192961	-0.330126	0.952030
C64	C	1.091811	-0.431177	1.061678
C65	C	1.091795	-0.431211	0.951956
C66	C	1.041233	-0.481704	1.116503
C67	C	0.990645	-0.532261	1.061604
C68	C	0.990629	-0.532289	0.951876
C69	C	1.041204	-0.481763	0.897057
H70	H	0.841305	-0.472386	0.384147
H71	H	1.243576	-0.279515	1.205995
H72	H	1.234207	-1.079092	0.384647
H73	H	1.243528	-0.279629	0.807867
H74	H	0.567666	-0.522903	0.316923
O75	O	0.432970	-0.485777	0.366481
H76	H	0.475508	-0.520875	0.319660
H77	H	1.335300	-0.187912	0.907456
H78	H	0.444070	-0.289237	0.628511
H79	H	0.999953	-0.805519	0.695217
H80	H	1.041249	-0.481674	1.205845
O81	O	1.037100	-0.670789	0.645814
H82	H	1.045566	-0.606452	0.634528
O83	O	0.728634	-0.225343	0.713524
H84	H	0.686097	-0.190233	0.760332
H85	H	0.949423	-0.573446	0.907184
O86	O	0.936092	-0.586747	1.120734
H87	H	0.971448	-0.626958	1.170726
H88	H	1.050665	-1.079103	0.628186
O89	O	1.041193	-0.481806	0.778715
H90	H	0.981580	-0.465832	0.749759
O91	O	0.852406	-0.275831	0.646180
H92	H	0.916734	-0.284306	0.634856
O93	O	1.247388	-0.670768	0.366822
H94	H	1.212029	-0.633214	0.313304
H95	H	1.284734	-0.955261	0.317484
O96	O	0.728334	-0.536232	0.299075
H97	H	0.792676	-0.527735	0.310367
O98	O	1.348696	-0.174499	1.121064
H99	H	1.410725	-0.188073	1.100043
O100	O	0.557052	-0.225373	0.713573
H101	H	0.492709	-0.233854	0.702268
H102	H	1.000028	-0.955295	0.695266
H103	H	1.284654	-0.805503	0.317462
