data_functionalizedCrystal
_audit_creation_method	'MofGen! by Chris Wilmer'
_symmetry_space_group_name_H-M	'P1'
_symmetry_Int_Tables_number	1
_symmetry_cell_setting	triclinic
loop_
_symmetry_equiv_pos_as_xyz
  x,y,z
_cell_length_a	17.699104
_cell_length_b	19.288859
_cell_length_c	18.366186
_cell_angle_alpha	89.994011
_cell_angle_beta	90.010768
_cell_angle_gamma	96.787378
loop_
_atom_site_label
_atom_site_type_symbol
_atom_site_fract_x
_atom_site_fract_y
_atom_site_fract_z
O1	O	-1.003945	0.087906	-0.060578
O2	O	-0.503945	0.587906	0.439422
O3	O	-0.783553	0.099319	-0.060573
O4	O	-0.283553	0.599319	0.439427
O5	O	-0.900120	-0.007510	-0.060571
O6	O	-0.400120	0.492490	0.439429
O7	O	-0.887378	0.194735	-0.060580
O8	O	-0.387378	0.694735	0.439420
O9	O	-0.900100	-0.007515	0.060528
O10	O	-0.400100	0.492485	0.560528
O11	O	-0.783533	0.099314	0.060526
O12	O	-0.283533	0.599314	0.560526
O13	O	-1.003925	0.087901	0.060521
O14	O	-0.503925	0.587901	0.560521
Zn15	Zn	-0.893726	0.093606	0.079751
Zn16	Zn	-0.393726	0.593606	0.579751
Zn17	Zn	-0.893752	0.093613	-0.079803
Zn18	Zn	-0.393752	0.593613	0.420197
O19	O	-0.887358	0.194730	0.060520
O20	O	-0.387358	0.694730	0.560520
C21	C	-0.755347	0.098905	-0.000023
C22	C	-0.255347	0.598905	0.499977
C23	C	-0.671331	0.097671	-0.000021
C24	C	-0.171331	0.597671	0.499979
C25	C	-0.146380	0.153417	-0.000023
C26	C	0.353620	0.653417	0.499977
C27	C	-0.225322	0.154572	-0.000027
C28	C	0.274678	0.654572	0.499973
C29	C	-0.274030	0.091859	-0.000025
C30	C	0.225970	0.591859	0.499975
C31	C	-0.243791	0.027987	-0.000027
C32	C	0.256209	0.527987	0.499973
C33	C	-0.164850	0.026832	-0.000029
C34	C	0.335150	0.526832	0.499971
C35	C	-0.562151	0.032643	-0.000020
C36	C	-0.062151	0.532643	0.499980
C37	C	-0.641096	0.033802	-0.000015
C38	C	-0.141096	0.533802	0.499985
C39	C	-0.622623	0.160383	-0.000018
C40	C	-0.122623	0.660383	0.499982
C41	C	-0.543682	0.159228	-0.000020
C42	C	-0.043682	0.659228	0.499980
C43	C	-0.513450	0.095356	-0.000026
C44	C	-0.013450	0.595356	0.499974
C45	C	-0.427852	0.094104	-0.000023
C46	C	0.072148	0.594104	0.499977
C47	C	-0.359626	0.093111	-0.000021
C48	C	0.140374	0.593111	0.499979
C49	C	-0.899700	-0.033390	-0.000022
C50	C	-0.399700	0.466610	0.499978
C51	C	-0.898472	-0.110495	-0.000023
C52	C	-0.398472	0.389505	0.499977
C53	C	-0.958559	-0.674461	-0.000044
C54	C	-0.458559	-0.174461	0.499956
C55	C	-0.959720	-0.602013	-0.000038
C56	C	-0.459720	-0.102013	0.499962
C57	C	-0.891323	-0.557392	-0.000036
C58	C	-0.391323	-0.057392	0.499964
C59	C	-0.821761	-0.585224	-0.000023
C60	C	-0.321761	-0.085224	0.499977
C61	C	-0.820602	-0.657670	-0.000022
C62	C	-0.320602	-0.157670	0.499978
C63	C	-0.840321	-0.436180	-0.042460
C64	C	-0.340321	0.063820	0.457540
C65	C	-0.841482	-0.363735	-0.042466
C66	C	-0.341482	0.136265	0.457534
C67	C	-0.894895	-0.333941	-0.000036
C68	C	-0.394895	0.166059	0.499964
C69	C	-0.947158	-0.376603	0.042390
C70	C	-0.447158	0.123397	0.542390
C71	C	-0.945999	-0.449050	0.042391
C72	C	-0.445999	0.050950	0.542391
C73	C	-0.892572	-0.478834	-0.000037
C74	C	-0.392572	0.021166	0.499963
C75	C	-0.965711	-0.227561	-0.000037
C76	C	-0.465711	0.272439	0.499963
C77	C	-0.966869	-0.155111	-0.000026
C78	C	-0.466869	0.344889	0.499974
C79	C	-0.828909	-0.138324	-0.000019
C80	C	-0.328909	0.361676	0.499981
C81	C	-0.827753	-0.210772	-0.000022
C82	C	-0.327753	0.289228	0.499978
C83	C	-0.896156	-0.255387	-0.000035
C84	C	-0.396156	0.244613	0.499965
C85	C	-0.032131	0.088315	-0.000027
C86	C	0.467869	0.588315	0.499973
C87	C	-0.116147	0.089549	-0.000023
C88	C	0.383853	0.589549	0.499977
C89	C	-0.887777	0.220610	-0.000031
C90	C	-0.387777	0.720610	0.499969
C91	C	-0.889006	0.297715	-0.000035
C92	C	-0.389006	0.797715	0.499965
N93	N	-0.893714	0.093601	0.188642
N94	N	-0.393714	0.593601	0.688642
N95	N	-0.893770	0.093613	-0.188694
N96	N	-0.393770	0.593613	0.311306
C97	C	-0.945346	0.046321	0.226743
C98	C	-0.445346	0.546321	0.726743
C99	C	-0.945351	0.046317	0.302971
C100	C	-0.445351	0.546317	0.802971
C101	C	-0.893730	0.093607	0.341095
C102	C	-0.393730	0.593607	0.841095
C103	C	-0.842088	0.140891	0.302984
C104	C	-0.342088	0.640891	0.802984
C105	C	-0.842080	0.140888	0.226758
C106	C	-0.342080	0.640888	0.726758
C107	C	-0.883597	0.156882	0.461853
C108	C	-0.383597	0.656882	0.961853
C109	C	-0.883611	0.156886	0.538078
C110	C	-0.383611	0.656886	1.038078
C111	C	-0.893752	0.093616	0.576202
C112	C	-0.393752	0.593616	1.076202
C113	C	-0.903895	0.030339	0.538093
C114	C	-0.403895	0.530339	1.038093
C115	C	-0.903887	0.030336	0.461866
C116	C	-0.403887	0.530336	0.961866
C117	C	-0.893733	0.093615	0.423750
C118	C	-0.393733	0.593615	0.923750
C119	C	-0.945393	0.046328	0.696958
C120	C	-0.445393	0.546328	1.196958
C121	C	-0.945392	0.046324	0.773188
C122	C	-0.445392	0.546324	1.273188
C123	C	-0.842133	0.140904	0.773200
C124	C	-0.342133	0.640904	1.273200
C125	C	-0.842130	0.140902	0.696972
C126	C	-0.342130	0.640902	1.196972
C127	C	-0.893764	0.093614	0.658856
C128	C	-0.393764	0.593614	1.158856
H129	H	-0.647246	0.212390	-0.000016
H130	H	-0.147246	0.712390	0.499984
F131	F	-0.491848	0.225975	-0.000019
F132	F	0.008152	0.725975	0.499981
H133	H	-0.106728	0.204485	-0.000020
H134	H	0.393272	0.704485	0.499980
F135	F	-0.295631	-0.038757	-0.000027
F136	F	0.204369	0.461243	0.499973
H137	H	-1.014258	-0.710782	-0.000050
H138	H	-0.514258	-0.210782	0.499950
H139	H	-0.912144	-0.021186	0.430841
H140	H	-0.412144	0.478814	0.930841
H141	H	-0.987434	0.007822	0.665923
H142	H	-0.487434	0.507822	1.165923
F143	F	-0.132675	-0.041144	-0.000028
F144	F	0.367325	0.458856	0.499972
F145	F	-1.000345	-0.004005	0.813739
F146	F	-0.500345	0.495995	1.313739
F147	F	-0.529986	-0.035335	-0.000040
F148	F	-0.029986	0.464665	0.499960
H149	H	-1.016360	-0.579353	-0.000045
H150	H	-0.516360	-0.079353	0.499955
H151	H	-0.912153	-0.021182	0.569132
H152	H	-0.412153	0.478818	1.069132
H153	H	-0.680753	-0.017269	-0.000016
H154	H	-0.180753	0.482731	0.499984
F155	F	-1.001617	-0.494451	0.087546
F156	F	-0.501617	0.005549	0.587546
H157	H	-0.766073	-0.548888	-0.000020
H158	H	-0.266073	-0.048888	0.499980
F159	F	-0.785865	-0.318338	-0.087625
F160	F	-0.285865	0.181662	0.412375
H161	H	-0.249934	0.206579	-0.000034
H162	H	0.250066	0.706579	0.499966
F163	F	-0.787178	0.191227	0.656419
F164	F	-0.287178	0.691227	1.156419
H165	H	-0.796816	-0.460430	-0.077007
H166	H	-0.296816	0.039570	0.422993
F167	F	-0.787190	0.191228	0.813770
F168	F	-0.287190	0.691228	1.313770
F169	F	-1.004010	-0.344902	0.087549
F170	F	-0.504010	0.155098	0.587549
H171	H	-1.021409	-0.263888	-0.000047
H172	H	-0.521409	0.236112	0.499953
H173	H	-1.023510	-0.132459	-0.000029
H174	H	-0.523510	0.367541	0.499971
F175	F	-1.000296	-0.004008	0.186179
F176	F	-0.500296	0.495992	0.686179
H177	H	-0.763962	-0.680324	-0.000013
H178	H	-0.263962	-0.180324	0.499987
H179	H	-0.875326	0.208408	0.430818
H180	H	-0.375326	0.708408	0.930818
F181	F	-0.756115	-0.090839	-0.000009
F182	F	-0.256115	0.409161	0.499991
H183	H	-0.771115	-0.233426	-0.000020
H184	H	-0.271115	0.266574	0.499980
F185	F	-0.872821	0.224230	0.578630
F186	F	-0.372821	0.724230	1.078630
H187	H	-0.987398	0.007814	0.333999
H188	H	-0.487398	0.507814	0.833999
H189	H	-0.800057	0.179394	0.334029
H190	H	-0.300057	0.679394	0.834029
F191	F	-0.787123	0.191213	0.186206
F192	F	-0.287123	0.691213	0.686206
