data_functionalizedCrystal
_audit_creation_method	'MofGen! by Chris Wilmer'
_symmetry_space_group_name_H-M	'P1'
_symmetry_Int_Tables_number	1
_symmetry_cell_setting	triclinic
loop_
_symmetry_equiv_pos_as_xyz
  x,y,z
_cell_length_a	6.817900
_cell_length_b	17.982783
_cell_length_c	11.168136
_cell_angle_alpha	94.260959
_cell_angle_beta	108.508683
_cell_angle_gamma	102.448572
loop_
_atom_site_label
_atom_site_type_symbol
_atom_site_fract_x
_atom_site_fract_y
_atom_site_fract_z
V1	V	-4.079234	-0.105423	-0.394223
O2	O	-4.070936	0.005054	-0.386180
O3	O	-4.025403	-0.209026	-0.392046
O4	O	-4.055994	-0.103807	-0.565921
O5	O	-4.040133	-0.100893	-0.211101
V6	V	-4.560305	-0.092208	-0.372257
O7	O	-4.345870	-0.134412	-0.442408
O8	O	-4.743867	-0.063220	-0.324073
O9	O	-4.390930	0.011394	-0.374435
O10	O	-4.686000	-0.202686	-0.380301
O11	O	-4.716803	-0.096739	-0.555380
O12	O	-4.360338	-0.093825	-0.200560
C13	C	-3.868269	-0.234281	-0.385961
C14	C	-3.905710	-0.318977	-0.385325
C15	C	-3.866680	-0.347884	-0.269338
C16	C	-3.901881	-0.427466	-0.268745
C17	C	-3.976097	-0.478139	-0.384140
C18	C	-4.015134	-0.449228	-0.500135
C19	C	-3.979948	-0.369648	-0.500728
C20	C	-4.157040	-0.770166	-0.497749
C21	C	-4.192219	-0.849751	-0.497148
C22	C	-4.078973	-0.827984	-0.265767
C23	C	-4.043787	-0.748404	-0.266360
C24	C	-4.082838	-0.719500	-0.382355
C25	C	-4.044672	-0.633208	-0.382997
C26	C	-4.014248	-0.564429	-0.383499
C27	C	-3.907290	-0.100064	-0.607754
C28	C	-3.969536	-0.099427	-0.748121
C29	C	-4.171076	-0.102757	-0.816830
C30	C	-4.235416	-0.102100	-0.961907
C31	C	-4.211405	0.036646	-0.380517
C32	C	-4.153203	0.121341	-0.381161
C33	C	-4.172384	-0.097571	-0.158720
C34	C	-4.089376	-0.098203	-0.018351
H35	H	-3.870102	-0.450997	-0.174298
O36	O	-3.883439	-0.094943	-0.948012
C37	C	-3.823920	-0.158765	-0.993735
H38	H	-3.973211	-0.207154	-1.046045
H39	H	-3.735187	-0.141058	-1.062238
C40	C	-3.493741	-0.127607	-0.816233
C41	C	-3.677102	-0.187041	-0.880472
H42	H	-3.403169	-0.145047	-0.746370
H43	H	-3.533835	-0.084606	-0.785431
H44	H	-3.419823	-0.112856	-0.873332
H45	H	-3.751030	-0.201784	-0.823378
H46	H	-3.637017	-0.230044	-0.911262
H47	H	-3.806232	-0.306630	-0.175370
O48	O	-3.820632	-0.095344	-0.806182
C49	C	-3.806112	-0.028472	-0.864604
H50	H	-3.961124	-0.009584	-0.884010
H51	H	-3.666971	0.019595	-0.798432
C52	C	-3.578424	-0.069069	-0.967763
C53	C	-3.768820	-0.045874	-0.991607
H54	H	-3.555411	-0.079801	-1.046102
H55	H	-3.588198	-0.114121	-0.928400
H56	H	-3.462495	-0.029008	-0.912616
H57	H	-3.884748	-0.085937	-1.046740
H58	H	-3.759064	-0.000829	-1.030983
H59	H	-3.983346	-0.707148	-0.172393
O60	O	-4.263977	-0.899001	-0.609204
C61	C	-4.114020	-0.942013	-0.609775
H62	H	-3.949853	-0.909277	-0.540118
H63	H	-4.164736	-1.000232	-0.579590
C64	C	-4.305100	-0.994778	-0.830826
C65	C	-4.103463	-0.954568	-0.745279
H66	H	-4.298593	-1.002527	-0.914411
H67	H	-4.406134	-0.965803	-0.830441
H68	H	-4.347341	-1.043290	-0.805655
H69	H	-4.061238	-0.906054	-0.770441
H70	H	-4.002421	-0.983536	-0.745672
H71	H	-4.047187	-0.851527	-0.171319
O72	O	-4.194971	-0.742221	-0.610532
C73	C	-4.268056	-0.804015	-0.712250
H74	H	-4.213030	-0.856203	-0.675706
H75	H	-4.450134	-0.819240	-0.753327
C76	C	-4.243847	-0.716353	-0.862121
C77	C	-4.176248	-0.780449	-0.817239
H78	H	-4.187225	-0.701816	-0.926887
H79	H	-4.194616	-0.674721	-0.793593
H80	H	-4.395577	-0.729049	-0.896343
H81	H	-4.024523	-0.767749	-0.783004
H82	H	-4.225451	-0.822079	-0.885764
H83	H	-4.075578	-0.490493	-0.594092
H84	H	-4.295987	-0.106090	-0.768248
O85	O	-4.017876	-0.341692	-0.613507
C86	C	-4.090976	-0.403482	-0.715233
H87	H	-4.035946	-0.455672	-0.678702
H88	H	-4.273054	-0.418706	-0.756301
C89	C	-4.066791	-0.315811	-0.865095
C90	C	-3.999187	-0.379910	-0.820228
H91	H	-4.010182	-0.301270	-0.929864
H92	H	-4.017550	-0.274182	-0.796561
H93	H	-4.218522	-0.328506	-0.899309
H94	H	-3.847462	-0.367210	-0.786001
H95	H	-4.048401	-0.421536	-0.888759
H96	H	-4.408071	-0.104955	-1.020972
