data_functionalizedCrystal
_audit_creation_method	'MofGen! by Chris Wilmer'
_symmetry_space_group_name_H-M	'P1'
_symmetry_Int_Tables_number	1
_symmetry_cell_setting	triclinic
loop_
_symmetry_equiv_pos_as_xyz
  x,y,z
_cell_length_a	12.759401
_cell_length_b	13.897448
_cell_length_c	12.759393
_cell_angle_alpha	89.968008
_cell_angle_beta	89.980858
_cell_angle_gamma	90.017704
loop_
_atom_site_label
_atom_site_type_symbol
_atom_site_fract_x
_atom_site_fract_y
_atom_site_fract_z
Zn1	Zn	1.606230	-0.383971	-0.593995
Zn2	Zn	1.606117	-0.545296	-0.418309
Zn3	Zn	1.430533	-0.384017	-0.418331
Zn4	Zn	1.430512	-0.545225	-0.593948
O5	O	1.518348	-0.464627	-0.506146
O6	O	1.753236	-0.405381	-0.570700
O7	O	1.582786	-0.523951	-0.271291
O8	O	1.453897	-0.249029	-0.441662
O9	O	1.753153	-0.523906	-0.441625
O10	O	1.582981	-0.248995	-0.570721
O11	O	1.453786	-0.405460	-0.271307
O12	O	1.283510	-0.405391	-0.441617
O13	O	1.453860	-0.523786	-0.740975
O14	O	1.283494	-0.523830	-0.570642
O15	O	1.582960	-0.405312	-0.741010
O16	O	1.582766	-0.680268	-0.441579
O17	O	1.453750	-0.680216	-0.570620
C18	C	1.245381	-0.464609	-0.506127
C19	C	1.128604	-0.464624	-0.506144
C20	C	1.518271	-0.715242	-0.506115
C21	C	1.518335	-0.822456	-0.506138
C22	C	0.964037	-0.526405	-0.573240
C23	C	1.073761	-0.526392	-0.573223
C24	C	1.073718	-0.402871	-0.439070
C25	C	0.963996	-0.402889	-0.439083
C26	C	0.909199	-0.588170	-0.640330
C27	C	0.964077	-0.649924	-0.707403
C28	C	1.073801	-0.649912	-0.707386
C29	C	1.128647	-0.588145	-0.640296
C30	C	1.518445	-1.018751	-0.506203
C31	C	1.518381	-0.909518	-0.506170
C32	C	1.792381	-0.464646	-0.506165
C33	C	1.909158	-0.464655	-0.506173
C34	C	1.518420	-0.464536	-0.780179
C35	C	1.518451	-0.464497	-0.896956
C36	C	1.518454	-0.213034	-0.506199
C37	C	1.518499	-0.105820	-0.506222
C38	C	1.585660	-0.526125	-1.061539
C39	C	1.585628	-0.526169	-0.951814
C40	C	1.451293	-0.402785	-0.951827
C41	C	1.451320	-0.402747	-1.061550
C42	C	1.652849	-0.587794	-1.116391
C43	C	1.720006	-0.649508	-1.061528
C44	C	1.719974	-0.649551	-0.951803
C45	C	1.652786	-0.587881	-0.896943
C46	C	1.518337	-0.464649	-0.233178
C47	C	1.518509	-0.464416	-0.116402
H48	H	0.819856	-0.588185	-0.640354
H49	H	1.396593	-0.352574	-0.907151
H50	H	0.919313	-0.352602	-0.384478
C51	C	1.652887	-0.587755	-1.237090
N52	N	1.652914	-0.587725	-1.328000
H53	H	1.774703	-0.699722	-1.106202
H54	H	1.774650	-0.699807	-0.907136
H55	H	0.919415	-0.700218	-0.762019
C56	C	1.134165	-0.717848	-0.781160
N57	N	1.179628	-0.769016	-0.836732
C58	C	1.249347	-0.588130	-0.640287
N59	N	1.340258	-0.588112	-0.640289
H60	H	1.118382	-0.352583	-0.384451
C61	C	1.652749	-0.587938	-0.776242
N62	N	1.652725	-0.587980	-0.685332
H63	H	1.396644	-0.352495	-1.106221
