data_functionalizedCrystal
_audit_creation_method	'MofGen! by Chris Wilmer'
_symmetry_space_group_name_H-M	'P1'
_symmetry_Int_Tables_number	1
_symmetry_cell_setting	triclinic
loop_
_symmetry_equiv_pos_as_xyz
  x,y,z
_cell_length_a	21.295411
_cell_length_b	13.032831
_cell_length_c	13.031981
_cell_angle_alpha	89.102241
_cell_angle_beta	82.799991
_cell_angle_gamma	82.805709
loop_
_atom_site_label
_atom_site_type_symbol
_atom_site_fract_x
_atom_site_fract_y
_atom_site_fract_z
Zn1	Zn	-0.425359	1.520371	-0.609666
Zn2	Zn	-0.305253	1.498421	-0.781629
Zn3	Zn	-0.308645	1.348372	-0.587783
Zn4	Zn	-0.399035	1.326535	-0.759732
O5	O	-0.359573	1.423425	-0.684703
O6	O	-0.419024	1.661376	-0.650800
O7	O	-0.217609	1.478469	-0.755921
O8	O	-0.336564	1.389514	-0.446757
O9	O	-0.330782	1.645249	-0.777141
O10	O	-0.422314	1.515880	-0.462835
O11	O	-0.220102	1.368229	-0.613503
O12	O	-0.311039	1.201559	-0.592270
O13	O	-0.490621	1.352295	-0.739820
O14	O	-0.377448	1.185515	-0.718600
O15	O	-0.509961	1.494705	-0.629567
O16	O	-0.305257	1.457294	-0.922653
O17	O	-0.374158	1.331011	-0.906565
C18	C	-0.341755	1.156221	-0.650685
C19	C	-0.334146	1.041907	-0.636156
C20	C	-0.363545	0.983019	-0.692285
C21	C	-0.355680	0.864869	-0.677271
C22	C	-0.523771	1.423513	-0.684692
C23	C	-0.593742	1.423550	-0.684687
C24	C	-0.636681	1.497701	-0.627275
C25	C	-0.702427	1.497705	-0.627231
C26	C	-0.725232	1.423567	-0.684617
C27	C	-0.682284	1.349403	-0.742032
C28	C	-0.616540	1.349395	-0.742067
N29	N	-0.820164	1.404232	-0.773589
N30	N	-0.882619	1.404246	-0.773554
C31	C	-0.923316	1.423587	-0.684514
N32	N	-0.899200	1.442933	-0.595511
N33	N	-0.836739	1.442924	-0.595548
C34	C	-0.796520	1.423568	-0.684585
C35	C	-1.037545	1.497746	-0.627048
C36	C	-1.103292	1.497744	-0.627001
C37	C	-1.083147	1.349446	-0.741812
C38	C	-1.017402	1.349445	-0.741850
C39	C	-0.994605	1.423600	-0.684470
C40	C	-0.196024	1.423406	-0.684647
C41	C	-0.126092	1.423604	-0.684387
C42	C	-0.336498	1.389429	-0.951932
C43	C	-0.326654	1.374980	-1.066265
C44	C	-0.377461	1.691672	-0.718854
C45	C	-0.385084	1.805983	-0.733408
C46	C	-0.364727	1.431021	-1.125105
C47	C	-0.354554	1.416088	-1.243275
C48	C	-0.382754	1.457581	-0.416434
C49	C	-0.392632	1.472137	-0.302114
H50	H	-0.394539	1.020073	-0.751451
O51	O	-0.744059	1.569842	-0.571442
C52	C	-0.709839	1.635272	-0.520782
H53	H	-0.659577	1.633461	-0.563382
H54	H	-0.735199	1.717700	-0.520129
H55	H	-0.707071	1.607566	-0.437872
O56	O	-0.412632	1.501320	-1.080710
C57	C	-0.454671	1.450520	-1.011141
H58	H	-0.428592	1.374593	-0.985325
H59	H	-0.472386	1.501890	-0.940823
H60	H	-0.497028	1.434001	-1.051019
O61	O	-0.297253	0.997771	-0.565428
C62	C	-0.321676	1.036997	-0.466252
H63	H	-0.374367	1.067292	-0.464912
H64	H	-0.316021	0.972748	-0.406511
H65	H	-0.294392	1.102667	-0.447137
H66	H	-0.314426	1.357045	-1.280380
O67	O	-0.440540	1.542442	-1.257729
C68	C	-0.482583	1.491648	-1.188161
H69	H	-0.456506	1.415723	-1.162336
H70	H	-0.500300	1.543023	-1.117848
H71	H	-0.524937	1.475126	-1.228044
O72	O	-0.318698	0.820507	-0.606763
C73	C	-0.319082	0.712418	-0.607463
H74	H	-0.331810	0.687777	-0.685048
H75	H	-0.269840	0.672377	-0.595227
H76	H	-0.355904	0.689695	-0.542682
O77	O	-0.614472	1.569579	-0.571434
C78	C	-0.578284	1.519459	-0.497547
H79	H	-0.560085	1.436911	-0.523928
H80	H	-0.536049	1.563100	-0.489078
H81	H	-0.609455	1.517836	-0.419891
H82	H	-0.416082	0.843031	-0.792575
H83	H	-0.700856	1.289037	-0.788753
O84	O	-0.574913	1.277323	-0.797941
C85	C	-0.609135	1.211866	-0.848561
H86	H	-0.658511	1.253537	-0.857454
H87	H	-0.582418	1.190581	-0.928213
H88	H	-0.614148	1.138552	-0.800951
O89	O	-1.015502	1.569814	-0.571210
C90	C	-1.067503	1.635274	-0.520537
H91	H	-1.111858	1.593607	-0.511586
H92	H	-1.056229	1.656558	-0.440908
H93	H	-1.076471	1.708589	-0.568138
O94	O	-1.145030	1.569641	-0.571091
C95	C	-1.184879	1.519550	-0.497194
H96	H	-1.160197	1.439357	-0.480544
H97	H	-1.194934	1.566824	-0.422777
H98	H	-1.231729	1.511964	-0.528506
O99	O	-1.105398	1.277535	-0.797547
C100	C	-1.172634	1.293426	-0.785188
H101	H	-1.189826	1.377081	-0.761590
H102	H	-1.190508	1.276658	-0.861332
H103	H	-1.191939	1.239392	-0.722650
O104	O	-0.975775	1.277373	-0.797719
C105	C	-1.009998	1.211918	-0.848339
H106	H	-1.059372	1.253595	-0.857243
H107	H	-0.983278	1.190623	-0.927987
H108	H	-1.015018	1.138609	-0.800723
O109	O	-0.278856	1.304483	-1.110631
C110	C	-0.304918	1.230212	-1.164334
H111	H	-0.353696	1.264449	-1.184868
H112	H	-0.271889	1.206959	-1.238217
H113	H	-0.310243	1.159173	-1.113346
