data_functionalizedCrystal
_audit_creation_method	'MofGen! by Chris Wilmer'
_symmetry_space_group_name_H-M	'P1'
_symmetry_Int_Tables_number	1
_symmetry_cell_setting	triclinic
loop_
_symmetry_equiv_pos_as_xyz
  x,y,z
_cell_length_a	12.759395
_cell_length_b	29.839132
_cell_length_c	29.839125
_cell_angle_alpha	89.986179
_cell_angle_beta	90.011518
_cell_angle_gamma	89.953200
loop_
_atom_site_label
_atom_site_type_symbol
_atom_site_fract_x
_atom_site_fract_y
_atom_site_fract_z
Zn1	Zn	1.605952	0.178925	0.253973
Zn2	Zn	2.105952	0.678925	0.753973
Zn3	Zn	1.605777	0.254029	0.178840
Zn4	Zn	2.105777	0.754029	0.678840
Zn5	Zn	1.430278	0.178916	0.178858
Zn6	Zn	1.930278	0.678916	0.678858
Zn7	Zn	1.430149	0.254031	0.253944
Zn8	Zn	1.930149	0.754031	0.753944
O9	O	1.518039	0.216475	0.216404
O10	O	2.018039	0.716475	0.716404
O11	O	1.752950	0.188891	0.244011
O12	O	2.252950	0.688891	0.744011
O13	O	1.582477	0.244061	0.115975
O14	O	2.082477	0.744061	0.615975
O15	O	1.453709	0.116050	0.188842
O16	O	1.953709	0.616050	0.688842
O17	O	1.752821	0.244069	0.188811
O18	O	2.252821	0.744069	0.688811
O19	O	1.582776	0.116057	0.244029
O20	O	2.082776	0.616057	0.744029
O21	O	1.453539	0.188875	0.115989
O22	O	1.953539	0.688875	0.615989
O23	O	1.283240	0.188877	0.188814
O24	O	1.783240	0.688877	0.688814
O25	O	1.453489	0.244072	0.316815
O26	O	1.953489	0.744072	0.816815
O27	O	1.283145	0.244063	0.243980
O28	O	1.783145	0.744063	0.743980
O29	O	1.582651	0.188892	0.316836
O30	O	2.082651	0.688892	0.816836
O31	O	1.582352	0.316896	0.188783
O32	O	2.082352	0.816896	0.688783
O33	O	1.453319	0.316898	0.243962
O34	O	1.953319	0.816898	0.743962
C35	C	1.245071	0.216470	0.216396
C36	C	1.745071	0.716470	0.716396
C37	C	1.128295	0.216478	0.216404
C38	C	1.628295	0.716478	0.716404
C39	C	1.128235	0.274037	0.273754
C40	C	1.628235	0.774037	0.773754
C41	C	1.073344	0.302820	0.302431
C42	C	1.573344	0.802820	0.802431
C43	C	0.963622	0.302825	0.302436
C44	C	1.463622	0.802825	0.802436
C45	C	0.908789	0.274044	0.273763
C46	C	1.408789	0.774044	0.773763
C47	C	0.963680	0.245261	0.245086
C48	C	1.463680	0.745261	0.745086
C49	C	1.073404	0.245259	0.245083
C50	C	1.573404	0.745259	0.745083
C51	C	0.963740	0.187701	0.187739
C52	C	1.463740	0.687701	0.687739
C53	C	1.073462	0.187697	0.187730
C54	C	1.573462	0.687697	0.687730
C55	C	0.908907	0.158919	0.159065
C56	C	1.408907	0.658919	0.659065
C57	C	0.963798	0.130138	0.130386
C58	C	1.463798	0.630138	0.630386
C59	C	1.073526	0.130134	0.130381
C60	C	1.573526	0.630134	0.630381
C61	C	1.128352	0.158914	0.159054
C62	C	1.628352	0.658914	0.659054
C63	C	1.517831	0.333198	0.216377
C64	C	2.017831	0.833198	0.716377
C65	C	1.517838	0.383132	0.216381
C66	C	2.017838	0.883132	0.716381
C67	C	1.585274	0.692762	0.187696
C68	C	2.085274	1.192762	0.687696
C69	C	1.585374	0.880435	0.187706
C70	C	2.085374	1.380435	0.687706
O71	O	1.642597	0.904689	0.163309
O72	O	2.142597	1.404689	0.663309
N73	N	1.518149	0.903917	0.216411
N74	N	2.018149	1.403917	0.716411
C75	C	1.450899	0.880478	0.245118
C76	C	1.950899	1.380478	0.745118
O77	O	1.393730	0.904757	0.269537
O78	O	1.893730	1.404757	0.769537
C79	C	1.450805	0.692806	0.245110
C80	C	1.950805	1.192806	0.745110
C81	C	1.518027	0.669326	0.216399
C82	C	2.018027	1.169326	0.716399
C83	C	1.652491	0.669283	0.158988
C84	C	2.152491	1.169283	0.658988
C85	C	1.652461	0.622367	0.158984
C86	C	2.152461	1.122367	0.658984
C87	C	1.585214	0.598931	0.187688
C88	C	2.085214	1.098931	0.687688
C89	C	1.517997	0.622411	0.216395
C90	C	2.017997	1.122411	0.716395
C91	C	1.383561	0.669367	0.273818
C92	C	1.883561	1.169367	0.773818
C93	C	1.383545	0.622446	0.273815
C94	C	1.883545	1.122446	0.773815
C95	C	1.450767	0.598967	0.245104
C96	C	1.950767	1.098967	0.745104
C97	C	1.450720	0.552059	0.245095
C98	C	1.950720	1.052059	0.745095
N99	N	1.517945	0.528578	0.216390
N100	N	2.017945	1.028578	0.716390
C101	C	1.585192	0.552014	0.187686
C102	C	2.085192	1.052014	0.687686
C103	C	1.450952	0.979009	0.245120
C104	C	1.950952	1.479009	0.745120
C105	C	1.450974	1.025926	0.245121
C106	C	1.950974	1.525926	0.745121
C107	C	1.585450	1.025880	0.187710
C108	C	2.085450	1.525880	0.687710
C109	C	1.585422	0.978962	0.187706
C110	C	2.085422	1.478962	0.687706
C111	C	1.518177	0.955527	0.216414
C112	C	2.018177	1.455527	0.716414
C113	C	1.585124	0.453488	0.187680
C114	C	2.085124	0.953488	0.687680
C115	C	1.585085	0.406568	0.187677
C116	C	2.085085	0.906568	0.687677
C117	C	1.450613	0.406618	0.245090
C118	C	1.950613	0.906618	0.745090
C119	C	1.450647	0.453534	0.245091
C120	C	1.950647	0.953534	0.745091
C121	C	1.517911	0.476967	0.216385
C122	C	2.017911	0.976967	0.716385
O123	O	1.393535	0.527777	0.269483
O124	O	1.893535	1.027777	0.769483
O125	O	1.642369	0.527726	0.163278
O126	O	2.142369	1.027726	0.663278
C127	C	1.585304	0.739678	0.187700
C128	C	2.085304	1.239678	0.687700
C129	C	1.518086	0.763157	0.216407
C130	C	2.018086	1.263157	0.716407
C131	C	1.450839	0.739721	0.245111
C132	C	1.950839	1.239721	0.745111
C133	C	1.518108	0.810075	0.216409
C134	C	2.018108	1.310075	0.716409
C135	C	1.585355	0.833511	0.187705
C136	C	2.085355	1.333511	0.687705
C137	C	1.652580	0.810029	0.159000
C138	C	2.152580	1.310029	0.659000
C139	C	1.652551	0.763114	0.158996
C140	C	2.152551	1.263114	0.658996
C141	C	1.383614	0.763203	0.273816
C142	C	1.883614	1.263203	0.773816
C143	C	1.383648	0.810119	0.273817
C144	C	1.883648	1.310119	0.773817
C145	C	1.450896	0.833555	0.245114
C146	C	1.950896	1.333555	0.745114
C147	C	1.792072	0.216481	0.216412
C148	C	2.292072	0.716481	0.716412
C149	C	1.908849	0.216483	0.216415
C150	C	2.408849	0.716483	0.716415
C151	C	1.518075	0.216484	0.333582
C152	C	2.018075	0.716484	0.833582
C153	C	1.518091	0.216487	0.383517
C154	C	2.018091	0.716487	0.883517
C155	C	1.518237	1.099297	0.216431
C156	C	2.018237	1.599297	0.716431
C157	C	1.518221	1.049362	0.216418
C158	C	2.018221	1.549362	0.716418
C159	C	1.518063	0.216434	0.099681
C160	C	2.018063	0.716434	0.599681
C161	C	1.518252	0.216304	0.049747
C162	C	2.018252	0.716304	0.549747
C163	C	1.450909	0.245116	0.740093
C164	C	1.950909	0.745116	1.240093
C165	C	1.450871	0.245168	0.552420
C166	C	1.950871	0.745168	1.052420
O167	O	1.393648	0.269594	0.528146
O168	O	1.893648	0.769594	1.028146
N169	N	1.518114	0.216446	0.528962
N170	N	2.018114	0.716446	1.028962
C171	C	1.585366	0.187706	0.552425
C172	C	2.085366	0.687706	1.052425
O173	O	1.642552	0.163274	0.528166
O174	O	2.142552	0.663274	1.028166
C175	C	1.585398	0.187652	0.740097
C176	C	2.085398	0.687652	1.240097
C177	C	1.518158	0.216380	0.763553
C178	C	2.018158	0.716380	1.263553
C179	C	1.383674	0.273841	0.763549
C180	C	1.883674	0.773841	1.263549
C181	C	1.383688	0.273830	0.810464
C182	C	1.883688	0.773830	1.310464
C183	C	1.450937	0.245093	0.833924
C184	C	1.950937	0.745093	1.333924
C185	C	1.518172	0.216368	0.810468
C186	C	2.018172	0.716368	1.310468
C187	C	1.652644	0.158911	0.763560
C188	C	2.152644	0.658911	1.263560
C189	C	1.652644	0.158899	0.810481
C190	C	2.152644	0.658899	1.310481
C191	C	1.585404	0.187627	0.833936
C192	C	2.085404	0.687627	1.333936
C193	C	1.585436	0.187620	0.880844
C194	C	2.085436	0.687620	1.380844
N195	N	1.518193	0.216343	0.904302
N196	N	2.018193	0.716343	1.404302
C197	C	1.450944	0.245079	0.880842
C198	C	1.950944	0.745079	1.380842
C199	C	1.585346	0.187737	0.453894
C200	C	2.085346	0.687737	0.953894
C201	C	1.585340	0.187751	0.406977
C202	C	2.085340	0.687751	0.906977
C203	C	1.450843	0.245212	0.406975
C204	C	1.950843	0.745212	0.906975
C205	C	1.450856	0.245200	0.453893
C206	C	1.950856	0.745200	0.953893
C207	C	1.518104	0.216459	0.477352
C208	C	2.018104	0.716459	0.977352
C209	C	1.450979	0.245053	0.979368
C210	C	1.950979	0.745053	1.479368
C211	C	1.451002	0.245041	1.026287
C212	C	1.951002	0.745041	1.526287
C213	C	1.585494	0.187578	1.026285
C214	C	2.085494	0.687578	1.526285
C215	C	1.585476	0.187592	0.979370
C216	C	2.085476	0.687592	1.479370
C217	C	1.518210	0.216331	0.955912
C218	C	2.018210	0.716331	1.455912
O219	O	1.642621	0.163204	0.905146
O220	O	2.142621	0.663204	1.405146
O221	O	1.393750	0.269501	0.905109
O222	O	1.893750	0.769501	1.405109
C223	C	1.450895	0.245128	0.693178
C224	C	1.950895	0.745128	1.193178
C225	C	1.518130	0.216403	0.669722
C226	C	2.018130	0.716403	1.169722
C227	C	1.585379	0.187667	0.693182
C228	C	2.085379	0.687667	1.193182
C229	C	1.518124	0.216417	0.622804
C230	C	2.018124	0.716417	1.122804
C231	C	1.450874	0.245153	0.599344
C232	C	1.950874	0.745153	1.099344
C233	C	1.383632	0.273876	0.622802
C234	C	1.883632	0.773876	1.122802
C235	C	1.383646	0.273864	0.669718
C236	C	1.883646	0.773864	1.169718
C237	C	1.652622	0.158944	0.669724
C238	C	2.152622	0.658944	1.169724
C239	C	1.652603	0.158958	0.622808
C240	C	2.152603	0.658958	1.122808
C241	C	1.585354	0.187695	0.599348
C242	C	2.085354	0.687695	1.099348
H243	H	1.639825	0.387453	0.164296
H244	H	2.139825	0.887453	0.664296
H245	H	1.217694	0.158915	0.159051
H246	H	1.717694	0.658915	0.659051
H247	H	0.918930	0.326260	0.325790
H248	H	1.418930	0.826260	0.825790
H249	H	1.328787	0.603368	0.297194
H250	H	1.828787	1.103368	0.797194
H251	H	1.328855	0.744125	0.297191
H252	H	1.828855	1.244125	0.797191
H253	H	1.640161	0.959848	0.164328
H254	H	2.140161	1.459848	0.664328
H255	H	1.118211	0.106692	0.107032
H256	H	1.618211	0.606692	0.607032
H257	H	1.328932	0.297221	0.829558
H258	H	1.828932	0.797221	1.329558
H259	H	1.639899	0.472562	0.164305
H260	H	2.139899	0.972562	0.664305
H261	H	1.707202	0.603253	0.135607
H262	H	2.207202	1.103253	0.635607
H263	H	1.707258	0.688359	0.135614
H264	H	2.207258	1.188359	0.635614
H265	H	1.640206	1.044970	0.164338
H266	H	2.140206	1.544970	0.664338
H267	H	1.707402	0.135492	0.829579
H268	H	2.207402	0.635492	1.329579
H269	H	1.396102	0.268593	0.472988
H270	H	1.896102	0.768593	0.972988
H271	H	0.919144	0.106704	0.107045
H272	H	1.419144	0.606704	0.607045
H273	H	1.707385	0.135543	0.688820
H274	H	2.207385	0.635543	1.188820
H275	H	1.396225	1.045039	0.268496
H276	H	1.896225	1.545039	0.768496
H277	H	1.396189	0.959931	0.268498
H278	H	1.896189	1.459931	0.768498
H279	H	1.328816	0.688476	0.297195
H280	H	1.828816	1.188476	0.797195
H281	H	1.328905	0.297242	0.744453
H282	H	1.828905	0.797242	1.244453
H283	H	1.396247	0.268436	1.045383
H284	H	1.896247	0.768436	1.545383
H285	H	0.819448	0.274047	0.273774
H286	H	1.319448	0.774047	0.773774
H287	H	0.819566	0.158924	0.159074
H288	H	1.319566	0.658924	0.659074
H289	H	1.395913	0.472652	0.268471
H290	H	1.895913	0.972652	0.768471
H291	H	1.328879	0.297275	0.603693
H292	H	1.828879	0.797275	1.103693
H293	H	1.395858	0.387529	0.268459
H294	H	1.895858	0.887529	0.768459
H295	H	1.396088	0.268611	0.387866
H296	H	1.896088	0.768611	0.887866
H297	H	1.707289	0.744000	0.135618
H298	H	2.207289	1.244000	0.635618
H299	H	1.707333	0.829119	0.135627
H300	H	2.207333	1.329119	0.635627
H301	H	1.707367	0.135565	0.603715
H302	H	2.207367	0.635565	1.103715
H303	H	1.640235	0.164203	0.960271
H304	H	2.140235	0.664203	1.460271
H305	H	1.640250	0.164183	1.045395
H306	H	2.140250	0.664183	1.545395
H307	H	1.328899	0.829232	0.297196
H308	H	1.828899	1.329232	0.797196
H309	H	1.640104	0.164363	0.387883
H310	H	2.140104	0.664363	0.887883
H311	H	1.396195	0.268452	0.960274
H312	H	1.896195	0.768452	1.460274
H313	H	1.640112	0.164332	0.472990
H314	H	2.140112	0.664332	0.972990
H315	H	1.328892	0.297257	0.688811
H316	H	1.828892	0.797257	1.188811
H317	H	1.707398	0.135518	0.744470
H318	H	2.207398	0.635518	1.244470
H319	H	1.217576	0.274039	0.273749
H320	H	1.717576	0.774039	0.773749
H321	H	1.118001	0.326252	0.325777
H322	H	1.618001	0.826252	0.825777
