data_functionalizedCrystal
_audit_creation_method	'MofGen! by Chris Wilmer'
_symmetry_space_group_name_H-M	'P1'
_symmetry_Int_Tables_number	1
_symmetry_cell_setting	triclinic
loop_
_symmetry_equiv_pos_as_xyz
  x,y,z
_cell_length_a	23.532407
_cell_length_b	19.288865
_cell_length_c	17.766277
_cell_angle_alpha	90.011603
_cell_angle_beta	89.993314
_cell_angle_gamma	97.007503
loop_
_atom_site_label
_atom_site_type_symbol
_atom_site_fract_x
_atom_site_fract_y
_atom_site_fract_z
O1	O	0.755438	-0.084320	-0.062555
O2	O	0.589600	-0.096520	-0.062568
O3	O	0.677311	0.010725	-0.062546
O4	O	0.667727	-0.191565	-0.062577
O5	O	0.677296	0.010731	0.062642
O6	O	0.589585	-0.096514	0.062620
O7	O	0.755423	-0.084314	0.062633
Cu8	Cu	0.672502	-0.090414	0.074057
Cu9	Cu	0.672521	-0.090420	-0.073992
O10	O	0.667712	-0.191559	0.062611
C11	C	0.568376	-0.096206	0.000024
C12	C	0.505157	-0.095272	0.000020
C13	C	0.238850	-0.027955	0.000051
C14	C	0.298252	-0.028823	0.000050
O15	O	0.334886	0.024580	0.000085
N16	N	0.321010	-0.092580	0.000036
C17	C	0.284363	-0.155473	0.000029
O18	O	0.309175	-0.209784	0.000017
C19	C	0.224962	-0.154605	0.000035
C20	C	0.202207	-0.090844	0.000042
C21	C	0.216094	0.035801	0.000059
C22	C	0.156696	0.036669	0.000058
C23	C	0.120054	-0.026220	0.000049
C24	C	0.142809	-0.089976	0.000041
C25	C	0.188316	-0.217498	0.000033
C26	C	0.128912	-0.216624	0.000040
C27	C	0.106157	-0.152863	0.000047
C28	C	0.046769	-0.151998	0.000031
N29	N	0.024010	-0.088240	0.000045
C30	C	0.060653	-0.025352	0.000054
C31	C	0.409109	-0.157292	0.000018
C32	C	0.468509	-0.158161	0.000007
C33	C	0.482394	-0.031510	0.000030
C34	C	0.422993	-0.030642	0.000036
C35	C	0.386351	-0.093535	0.000033
C36	C	-0.064088	-0.023535	0.000051
C37	C	-0.123491	-0.022673	0.000047
C38	C	-0.137371	-0.149324	0.000028
C39	C	-0.077972	-0.150186	0.000029
C40	C	-0.041331	-0.087286	0.000043
O41	O	0.010100	-0.205372	-0.000000
O42	O	0.035832	0.028950	0.000076
C43	C	0.676995	0.036604	0.000050
C44	C	0.676069	0.113704	0.000057
C45	C	0.776647	-0.084628	0.000039
C46	C	0.839866	-0.085562	0.000038
N47	N	0.672494	-0.090409	0.178188
C48	C	0.668028	-0.217438	0.000013
C49	C	0.668954	-0.294538	0.000002
C50	C	0.727534	0.158559	0.000064
C51	C	0.726664	0.231004	0.000052
C52	C	0.674327	0.258590	0.000048
C53	C	0.622855	0.213725	0.000036
C54	C	0.623727	0.141282	0.000040
C55	C	0.633178	0.366752	0.043895
C56	C	0.632309	0.439194	0.043895
C57	C	0.671638	0.482027	0.000031
C58	C	0.711845	0.452411	-0.043825
C59	C	0.712716	0.379968	-0.043820
C60	C	0.673377	0.337141	0.000042
C61	C	0.722163	0.605435	0.000024
C62	C	0.721291	0.677881	0.000008
C63	C	0.617481	0.660600	-0.000001
C64	C	0.618354	0.588157	0.000008
C65	C	0.670697	0.560579	0.000024
N66	N	0.672534	-0.090420	-0.178123
C67	C	0.711345	-0.042944	0.217584
C68	C	0.711348	-0.042941	0.296386
C69	C	0.672506	-0.090414	0.335788
C70	C	0.633648	-0.137883	0.296382
C71	C	0.633642	-0.137880	0.217582
C72	C	0.664881	-0.153726	0.460616
C73	C	0.664891	-0.153729	0.539415
C74	C	0.672521	-0.090423	0.578835
C75	C	0.680153	-0.027110	0.539446
C76	C	0.680147	-0.027107	0.460645
C77	C	0.672508	-0.090422	0.421234
C78	C	0.711378	-0.042950	0.703677
C79	C	0.711377	-0.042946	0.782480
C80	C	0.633679	-0.137895	0.782475
C81	C	0.633677	-0.137893	0.703673
C82	C	0.672529	-0.090421	0.664279
H83	H	0.245923	0.087016	0.000069
O84	O	0.210432	-0.279423	-0.000115
C85	C	0.244385	-0.283720	-0.064949
H86	H	0.230437	-0.247513	-0.110253
H87	H	0.238900	-0.339736	-0.086727
H88	H	0.291272	-0.267388	-0.050293
H89	H	0.743012	-0.004291	0.814558
H90	H	0.768575	0.267532	0.000056
O91	O	0.657375	-0.215245	0.577637
C92	C	0.603953	-0.252240	0.558371
H93	H	0.574324	-0.214130	0.536732
H94	H	0.584120	-0.280451	0.610189
H95	H	0.610217	-0.292054	0.512614
H96	H	0.512239	0.019697	0.000038
O97	O	0.373541	-0.218410	-0.000130
C98	C	0.383851	-0.257148	-0.064967
H99	H	0.404242	-0.220330	-0.110275
H100	H	0.341642	-0.285308	-0.086736
H101	H	0.414006	-0.297130	-0.050320
O102	O	0.566590	0.687273	-0.000039
C103	C	0.521351	0.632143	-0.000020
H104	H	0.537191	0.583030	-0.023715
H105	H	0.484802	0.647023	-0.036371
H106	H	0.505477	0.621797	0.060038
O107	O	0.773056	0.578756	-0.000007
C108	C	0.818296	0.633885	0.000006
H109	H	0.802459	0.682987	-0.023698
H110	H	0.854849	0.618988	-0.036341
H111	H	0.834160	0.644261	0.060064
H112	H	0.599568	0.463301	0.079601
H113	H	-0.034261	0.027685	0.000063
H114	H	0.763202	0.714402	0.000010
H115	H	0.742979	-0.004288	0.185512
H116	H	0.742986	-0.004288	0.328469
O117	O	0.573694	0.097777	-0.000063
C118	C	0.541920	0.110193	-0.064915
H119	H	0.556048	0.165242	-0.086536
H120	H	0.494406	0.104771	-0.050338
H121	H	0.549612	0.070606	-0.110309
H122	H	0.580242	0.236190	0.000030
O123	O	0.400959	0.031339	-0.000053
C124	C	0.419690	0.069638	-0.064894
H125	H	0.460842	0.050995	-0.086519
H126	H	0.428081	0.127539	-0.050304
H127	H	0.385296	0.061351	-0.110292
H128	H	0.745453	0.355858	-0.079530
O129	O	0.749056	0.003241	0.665413
C130	C	0.740009	0.071960	0.684664
H131	H	0.694423	0.072044	0.706353
H132	H	0.746642	0.106832	0.632826
H133	H	0.771644	0.092571	0.730379
H134	H	0.743870	0.487285	-0.079544
O135	O	0.595959	-0.184090	0.179343
C136	C	0.605028	-0.252793	0.198596
H137	H	0.650622	-0.252850	0.220248
H138	H	0.598385	-0.287694	0.146767
H139	H	0.573412	-0.273389	0.244338
O140	O	0.093400	-0.277784	0.000000
C141	C	0.126227	-0.334241	0.000012
H142	H	0.170608	-0.316293	-0.023685
H143	H	0.104214	-0.378283	-0.036340
H144	H	0.130405	-0.353800	0.060069
H145	H	0.770156	0.136110	0.000075
H146	H	-0.167216	-0.200526	0.000017
O147	O	-0.055959	-0.212183	0.000047
C148	C	-0.101042	-0.267504	0.000014
H149	H	-0.141352	-0.248318	0.023713
H150	H	-0.088743	-0.312043	0.036354
H151	H	-0.109486	-0.286884	-0.060049
O152	O	0.595888	-0.183913	0.665363
C153	C	0.560858	-0.146934	0.619784
H154	H	0.560036	-0.092162	0.643546
H155	H	0.515521	-0.175558	0.618891
H156	H	0.578689	-0.143179	0.560061
O157	O	0.687463	0.034380	0.577755
C158	C	0.639146	0.039684	0.623363
H159	H	0.600718	0.004818	0.599621
H160	H	0.629522	0.096187	0.624266
H161	H	0.648128	0.022338	0.683080
O162	O	0.594944	0.325250	0.086573
C163	C	0.559264	0.366920	0.125266
H164	H	0.581887	0.422429	0.130568
H165	H	0.549463	0.344328	0.183786
H166	H	0.517591	0.367700	0.092736
H167	H	0.686359	0.024444	0.428578
H168	H	0.576446	0.551634	0.000006
H169	H	0.487030	-0.210082	-0.000009
O170	O	0.134691	0.098668	0.000108
C171	C	0.179780	0.153981	0.000100
H172	H	0.220083	0.134787	0.023790
H173	H	0.167480	0.198522	0.036461
H174	H	0.188236	0.173363	-0.059954
O175	O	0.595923	-0.183916	0.820823
C176	C	0.560880	-0.146933	0.866407
H177	H	0.583705	-0.092440	0.878221
H178	H	0.551797	-0.175983	0.921814
H179	H	0.518803	-0.142472	0.836049
O180	O	0.657573	-0.215246	0.422359
C181	C	0.701713	-0.255277	0.441605
H182	H	0.740269	-0.219290	0.463273
H183	H	0.714630	-0.284494	0.389770
H184	H	0.685932	-0.294416	0.487335
O185	O	0.595894	-0.183905	0.334738
C186	C	0.560854	-0.146922	0.380328
H187	H	0.583680	-0.092429	0.392140
H188	H	0.551775	-0.175972	0.435735
H189	H	0.518775	-0.142461	0.349974
H190	H	-0.142015	0.029251	0.000051
