data_functionalizedCrystal
_audit_creation_method	'MofGen! by Chris Wilmer'
_symmetry_space_group_name_H-M	'P1'
_symmetry_Int_Tables_number	1
_symmetry_cell_setting	triclinic
loop_
_symmetry_equiv_pos_as_xyz
  x,y,z
_cell_length_a	27.732048
_cell_length_b	27.732064
_cell_length_c	14.750779
_cell_angle_alpha	77.467639
_cell_angle_beta	102.540316
_cell_angle_gamma	82.646039
loop_
_atom_site_label
_atom_site_type_symbol
_atom_site_fract_x
_atom_site_fract_y
_atom_site_fract_z
O1	O	0.630377	0.068065	-0.079695
O2	O	0.489580	0.076814	-0.079723
O3	O	0.564347	0.002044	-0.079712
O4	O	0.555611	0.142835	-0.079706
O5	O	0.585482	-0.019090	0.079942
O6	O	0.510716	0.055680	0.079931
O7	O	0.651513	0.046931	0.079958
Zn8	Zn	0.584470	0.047950	0.105293
Zn9	Zn	0.556623	0.075795	-0.105057
O10	O	0.576746	0.121701	0.079947
C11	C	0.482141	0.066064	0.000100
C12	C	0.428484	0.065513	0.000089
C13	C	0.089677	0.106210	0.000132
C14	C	-0.111981	0.104158	0.000141
O15	O	-0.143229	0.141373	0.000184
N16	N	-0.131108	0.059824	0.000137
C17	C	-0.099816	0.015999	0.000138
O18	O	-0.120710	-0.021759	0.000145
C19	C	0.101843	0.018050	0.000136
C20	C	0.120965	0.062389	0.000130
C21	C	0.108801	0.150545	0.000127
C22	C	0.159212	0.151058	0.000120
C23	C	0.190499	0.107237	0.000118
C24	C	0.171376	0.062902	0.000123
C25	C	0.133135	-0.025775	0.000144
C26	C	0.183552	-0.025259	0.000146
C27	C	0.202675	0.019080	0.000140
C28	C	0.253075	0.019594	0.000113
N29	N	0.272202	0.063928	0.000117
C30	C	0.240914	0.107750	0.000119
C31	C	-0.205690	0.014925	0.000137
C32	C	-0.256105	0.014412	0.000136
C33	C	-0.268266	0.102572	0.000140
C34	C	-0.217852	0.103085	0.000135
C35	C	-0.186563	0.059259	0.000140
C36	C	0.346781	0.108824	0.000103
C37	C	0.397197	0.109334	0.000091
C38	C	0.409354	0.021174	0.000092
C39	C	0.358943	0.020665	0.000098
C40	C	0.327657	0.064493	0.000107
O41	O	0.284352	-0.017602	0.000081
O42	O	0.261821	0.145499	0.000133
C43	C	0.039266	0.105697	0.000140
C44	C	0.020143	0.061362	0.000145
C45	C	0.051431	0.017541	0.000143
C46	C	-0.030271	0.060849	0.000144
C47	C	-0.061559	0.104671	0.000146
C48	C	-0.042432	0.149005	0.000149
C49	C	0.007979	0.149519	0.000142
C50	C	0.032304	-0.026794	0.000139
C51	C	-0.018108	-0.027303	0.000145
C52	C	-0.049395	0.016518	0.000148
C53	C	0.574730	-0.026530	0.000112
C54	C	0.574172	-0.080183	0.000103
C55	C	0.526204	-0.457254	0.000089
C56	C	0.528250	-0.255593	0.000089
O57	O	0.491023	-0.224335	0.000043
N58	N	0.572585	-0.236467	0.000097
C59	C	0.616411	-0.267759	0.000100
O60	O	0.654167	-0.246862	0.000097
C61	C	0.614364	-0.469417	0.000094
C62	C	0.570027	-0.488542	0.000095
C63	C	0.481870	-0.476379	0.000090
C64	C	0.481360	-0.526792	0.000095
C65	C	0.525183	-0.558080	0.000100
C66	C	0.569516	-0.538955	0.000100
C67	C	0.658188	-0.500707	0.000090
C68	C	0.657672	-0.551124	0.000086
C69	C	0.613335	-0.570248	0.000087
C70	C	0.612829	-0.620655	0.000111
N71	N	0.568494	-0.639782	0.000103
C72	C	0.524671	-0.608494	0.000097
C73	C	0.617483	-0.161885	0.000105
C74	C	0.617996	-0.111471	0.000108
C75	C	0.529834	-0.099309	0.000095
C76	C	0.529323	-0.149725	0.000099
C77	C	0.573148	-0.181011	0.000096
C78	C	0.523602	-0.714365	0.000109
C79	C	0.523096	-0.764783	0.000119
C80	C	0.611257	-0.776940	0.000127
C81	C	0.611764	-0.726527	0.000122
C82	C	0.567932	-0.695239	0.000110
O83	O	0.650035	-0.651941	0.000146
O84	O	0.486918	-0.629397	0.000078
C85	C	0.526714	-0.406841	0.000084
C86	C	0.571047	-0.387716	0.000084
C87	C	0.614871	-0.419004	0.000089
C88	C	0.571560	-0.337302	0.000087
C89	C	0.527736	-0.306014	0.000082
C90	C	0.483401	-0.325140	0.000073
C91	C	0.482891	-0.375553	0.000079
C92	C	0.659206	-0.399878	0.000098
C93	C	0.659713	-0.349464	0.000094
C94	C	0.615890	-0.318176	0.000088
C95	C	0.658952	0.057681	0.000133
C96	C	0.712607	0.058233	0.000138
C97	C	0.566363	0.150275	0.000122
C98	C	0.566919	0.203929	0.000124
N99	N	0.603478	0.028946	0.248851
N100	N	0.537618	0.094796	-0.248616
C101	C	0.484531	0.147850	0.600652
C102	C	0.497854	0.134536	0.701153
C103	C	0.564073	0.068351	0.701126
C104	C	0.550754	0.081658	0.600622
C105	C	0.510983	0.121408	0.550394
C106	C	0.577206	0.055216	0.550364
C107	C	0.563889	0.068523	0.449870
C108	C	0.524120	0.108272	0.399634
C109	C	0.497666	0.134715	0.449899
C110	C	0.616979	0.015468	0.600595
C111	C	0.643431	-0.010974	0.550336
C112	C	0.630112	0.002331	0.449840
C113	C	0.590343	0.042080	0.399604
C114	C	0.656566	-0.024112	0.399575
C115	C	0.643250	-0.010804	0.299080
C116	C	0.577027	0.055388	0.299110
H117	H	0.209026	-0.060948	0.000151
H118	H	0.544637	0.087753	0.258212
Cl119	Cl	0.464595	0.167785	0.764328
Cl120	Cl	0.667507	-0.702488	0.000156
Cl121	Cl	0.672585	-0.201211	0.000109
Cl122	Cl	0.614071	0.018382	0.764277
H123	H	0.627822	0.004636	0.682424
H124	H	0.343371	-0.015438	0.000089
Cl125	Cl	-0.166363	-0.040176	0.000141
H126	H	0.675814	-0.043338	0.591244
Cl127	Cl	0.507381	0.125004	0.273296
H128	H	0.465277	0.167080	0.409001
H129	H	0.321314	0.144513	0.000113
H130	H	-0.271672	-0.021691	0.000126
Cl131	Cl	0.706568	-0.074077	0.462729
H132	H	0.434837	-0.014504	0.000086
Cl133	Cl	0.473583	-0.173761	0.000097
H134	H	-0.293750	0.138253	0.000142
Cl135	Cl	0.069475	0.205643	0.000127
H136	H	0.446181	-0.450908	0.000082
H137	H	0.117575	-0.061881	0.000150
Cl138	Cl	-0.081776	0.204095	0.000148
H139	H	0.023543	0.185623	0.000138
H140	H	0.695821	-0.333899	0.000100
Cl141	Cl	0.468499	-0.675040	0.000098
Cl142	Cl	-0.042142	-0.083047	0.000141
Cl143	Cl	-0.193817	0.158826	0.000130
H144	H	0.412763	0.145442	0.000086
Cl145	Cl	0.183244	0.206800	0.000119
Cl146	Cl	0.434526	0.197818	0.537503
H147	H	0.057775	-0.062480	0.000140
Cl148	Cl	0.425617	-0.550825	0.000084
Cl149	Cl	0.467354	-0.788822	0.000122
Cl150	Cl	0.474742	-0.059966	0.000088
Cl151	Cl	0.673738	-0.087437	0.000121
Cl152	Cl	0.676506	-0.044046	0.235896
H153	H	0.694292	-0.485145	0.000088
Cl154	Cl	0.712770	-0.590452	0.000079
Cl155	Cl	0.666347	-0.816283	0.000140
H156	H	0.446787	-0.391120	0.000080
H157	H	0.447719	-0.299658	0.000075
H158	H	0.694893	-0.425348	0.000101
