data_functionalizedCrystal
_audit_creation_method	'MofGen! by Chris Wilmer'
_symmetry_space_group_name_H-M	'P1'
_symmetry_Int_Tables_number	1
_symmetry_cell_setting	triclinic
loop_
_symmetry_equiv_pos_as_xyz
  x,y,z
_cell_length_a	14.519731
_cell_length_b	9.065218
_cell_length_c	7.540329
_cell_angle_alpha	89.998243
_cell_angle_beta	89.996948
_cell_angle_gamma	84.352369
loop_
_atom_site_label
_atom_site_type_symbol
_atom_site_fract_x
_atom_site_fract_y
_atom_site_fract_z
O1	O	1.225271	0.193542	-0.147479
O2	O	1.725271	0.693542	0.352521
O3	O	0.956963	0.216284	-0.147481
O4	O	1.456963	0.716284	0.352519
O5	O	1.096663	-0.009833	-0.147476
O6	O	1.596663	0.490167	0.352524
O7	O	1.085571	0.419659	-0.147484
O8	O	1.585571	0.919659	0.352516
O9	O	1.096654	-0.009835	0.147489
O10	O	1.596654	0.490165	0.647489
O11	O	0.956954	0.216281	0.147484
O12	O	1.456954	0.716281	0.647484
O13	O	1.225262	0.193539	0.147486
O14	O	1.725262	0.693539	0.647486
Cu15	Cu	1.091108	0.204910	0.174418
Cu16	Cu	1.591108	0.704910	0.674418
Cu17	Cu	1.091117	0.204913	-0.174413
Cu18	Cu	1.591117	0.704913	0.325587
O19	O	1.085562	0.419656	0.147482
O20	O	1.585562	0.919656	0.647482
C21	C	0.922591	0.215217	0.000001
C22	C	1.422591	0.715217	0.500001
C23	C	0.820188	0.212024	0.000000
C24	C	1.320188	0.712024	0.500000
C25	C	1.095592	-0.064801	0.000003
C26	C	1.595592	0.435199	0.500003
C27	C	1.092405	-0.228584	-0.000005
C28	C	1.592405	0.271416	0.499995
C29	C	0.737025	0.209429	-0.000007
C30	C	1.237025	0.709429	0.499993
C31	C	0.632692	0.206187	-0.000007
C32	C	1.132692	0.706187	0.499993
C33	C	0.549534	0.203614	-0.000007
C34	C	1.049534	0.703614	0.499993
C35	C	0.445195	0.200372	-0.000011
C36	C	0.945195	0.700372	0.499989
C37	C	1.259634	0.194606	-0.000000
C38	C	1.759634	0.694606	0.500000
C39	C	1.362037	0.197799	-0.000011
C40	C	1.862037	0.697799	0.499989
C41	C	1.086633	0.474624	-0.000002
C42	C	1.586633	0.974624	0.499998
C43	C	1.089820	0.638408	-0.000005
C44	C	1.589820	1.138408	0.499995
N45	N	1.091107	0.204907	0.419766
N46	N	1.591107	0.704907	0.919766
N47	N	1.091125	0.204905	-0.419761
N48	N	1.591125	0.704905	0.080239
