data_functionalizedCrystal
_audit_creation_method	'MofGen! by Chris Wilmer'
_symmetry_space_group_name_H-M	'P1'
_symmetry_Int_Tables_number	1
_symmetry_cell_setting	triclinic
loop_
_symmetry_equiv_pos_as_xyz
  x,y,z
_cell_length_a	17.640112
_cell_length_b	29.839131
_cell_length_c	17.640968
_cell_angle_alpha	78.759880
_cell_angle_beta	92.139080
_cell_angle_gamma	101.262129
loop_
_atom_site_label
_atom_site_type_symbol
_atom_site_fract_x
_atom_site_fract_y
_atom_site_fract_z
Zn1	Zn	1.247773	-0.012909	-0.195077
Zn2	Zn	1.221962	-0.105604	-0.068070
Zn3	Zn	1.095092	-0.042135	-0.093715
Zn4	Zn	1.120706	-0.099690	-0.220653
O5	O	1.171383	-0.065084	-0.144379
O6	O	1.350622	-0.015449	-0.156792
O7	O	1.183611	-0.111891	0.034805
O8	O	1.115428	0.024622	-0.107189
O9	O	1.331660	-0.083552	-0.063481
O10	O	1.227601	0.046094	-0.181659
O11	O	1.090400	-0.065260	0.015964
O12	O	0.992216	-0.059526	-0.131990
O13	O	1.159083	-0.073472	-0.323538
O14	O	1.011034	-0.101811	-0.225251
O15	O	1.252438	-0.009715	-0.304746
O16	O	1.208448	-0.167699	-0.088282
O17	O	1.134055	-0.163354	-0.200384
C18	C	0.974070	-0.083198	-0.184179
C19	C	0.889662	-0.090956	-0.201224
C20	C	1.171254	-0.181827	-0.144338
C21	C	1.171274	-0.231759	-0.144332
C22	C	0.563036	-0.006143	-0.014896
C23	C	0.483724	-0.013440	-0.030923
C24	C	0.503340	-0.057573	-0.127868
C25	C	0.582656	-0.050278	-0.111852
C26	C	0.612497	-0.024563	-0.055365
C27	C	0.632117	-0.068698	-0.152321
C28	C	0.711425	-0.061406	-0.136304
C29	C	0.741273	-0.035693	-0.079817
C30	C	0.691806	-0.017270	-0.039348
C31	C	0.602274	-0.094416	-0.208804
C32	C	0.651735	-0.112837	-0.249273
C33	C	0.731045	-0.105541	-0.233260
C34	C	0.760893	-0.079828	-0.176773
C35	C	0.780512	-0.123964	-0.273729
C36	C	0.859821	-0.116671	-0.257712
C37	C	0.840201	-0.072536	-0.160756
C38	C	1.229795	-0.530161	-0.183227
C39	C	1.229887	-0.717820	-0.183256
O40	O	1.279521	-0.732543	-0.216300
N41	N	1.171529	-0.752503	-0.144437
C42	C	1.113141	-0.740269	-0.105613
O43	O	1.063502	-0.774075	-0.072602
C44	C	1.113047	-0.552610	-0.105589
C45	C	1.171413	-0.517929	-0.144403
C46	C	1.288156	-0.495481	-0.222039
C47	C	1.288135	-0.448569	-0.222028
C48	C	1.229753	-0.436337	-0.183204
C49	C	1.171392	-0.471018	-0.144392
C50	C	1.054657	-0.540377	-0.066769
C51	C	1.054638	-0.493458	-0.066768
C52	C	1.113004	-0.458777	-0.105583
C53	C	1.112989	-0.411874	-0.105558
N54	N	1.171347	-0.377191	-0.144376
C55	C	1.229729	-0.389423	-0.183200
C56	C	1.113196	-0.838792	-0.105627
C57	C	1.113220	-0.885706	-0.105631
C58	C	1.229965	-0.863254	-0.183276
C59	C	1.229943	-0.816339	-0.183266
C60	C	1.171554	-0.804109	-0.144445
C61	C	1.229680	-0.290906	-0.183173
C62	C	1.229656	-0.243991	-0.183155
C63	C	1.112909	-0.266447	-0.105515
C64	C	1.112935	-0.313358	-0.105528
C65	C	1.171325	-0.325585	-0.144363
O66	O	1.063376	-0.397117	-0.072537
O67	O	1.279351	-0.355610	-0.216219
C68	C	1.229817	-0.577073	-0.183238
C69	C	1.171456	-0.611753	-0.144426
C70	C	1.113074	-0.599521	-0.105602
C71	C	1.171480	-0.658667	-0.144430
C72	C	1.229862	-0.670899	-0.183254
C73	C	1.288220	-0.636216	-0.222072
C74	C	1.288199	-0.589304	-0.222061
C75	C	1.054716	-0.634204	-0.066784
C76	C	1.054742	-0.681115	-0.066797
C77	C	1.113124	-0.693347	-0.105621
C78	C	1.369467	-0.046900	-0.104423
C79	C	1.453879	-0.039151	-0.087396
C80	C	1.211497	-0.037673	-0.342469
C81	C	1.228591	-0.025993	-0.426883
C82	C	1.171536	0.052118	-0.144432
C83	C	1.171602	0.102062	-0.144455
C84	C	1.041813	-0.153552	-0.753423
C85	C	1.057892	-0.142569	-0.832739
C86	C	1.155095	-0.076184	-0.813163
C87	C	1.139022	-0.087160	-0.733844
C88	C	1.082381	-0.125845	-0.703980
C89	C	1.179589	-0.059453	-0.684401
C90	C	1.163520	-0.070430	-0.605088
C91	C	1.106884	-0.109114	-0.575218
C92	C	1.066312	-0.136822	-0.624667
C93	C	1.236234	-0.020771	-0.714266
C94	C	1.276801	0.006936	-0.664823
C95	C	1.260729	-0.004039	-0.585509
C96	C	1.204092	-0.042722	-0.555639
C97	C	1.301300	0.023669	-0.536060
C98	C	1.285231	0.012692	-0.456747
C99	C	1.188023	-0.053699	-0.476326
C100	C	1.131469	-0.092352	0.052950
C101	C	1.114523	-0.103893	0.137393
H102	H	0.864501	-0.051587	-0.114769
H103	H	1.201214	-0.044688	-0.837489
H104	H	1.065646	-0.828839	-0.074012
H105	H	1.007173	-0.624250	-0.035170
H106	H	0.587337	0.014806	0.031090
H107	H	0.443455	0.001566	0.002030
H108	H	0.805851	-0.029757	-0.066775
H109	H	1.141882	-0.085191	-0.452013
H110	H	1.093804	-0.118052	-0.510635
C111	C	0.724636	0.011020	0.022789
N112	N	0.749363	0.032327	0.069589
H113	H	1.020171	-0.168314	-0.600354
H114	H	1.065376	-0.256481	-0.073902
C115	C	0.470506	-0.085859	-0.190004
N116	N	0.445776	-0.107162	-0.236808
H117	H	1.007213	-0.709351	-0.035182
H118	H	1.347422	0.055164	-0.560387
C119	C	0.618900	-0.141122	-0.311409
N120	N	0.594170	-0.162425	-0.358213
H121	H	1.335660	-0.420333	-0.253636
H122	H	0.756202	-0.144905	-0.319716
H123	H	1.249317	-0.011835	-0.778848
H124	H	0.995673	-0.185044	-0.729110
H125	H	0.900094	-0.131670	-0.290666
C126	C	1.329856	0.043172	-0.402357
N127	N	1.363471	0.066129	-0.361390
C128	C	1.293868	-0.205843	-0.225854
N129	N	1.342230	-0.177112	-0.258013
H130	H	1.277223	-0.300854	-0.214802
H131	H	0.537695	-0.100353	-0.221844
H132	H	1.335699	-0.505433	-0.253658
C133	C	1.294147	-0.778193	-0.225968
N134	N	1.342508	-0.749463	-0.258135
C135	C	1.339098	0.049492	-0.697684
N136	N	1.386017	0.081547	-0.722435
C137	C	1.294182	-0.876717	-0.225987
N138	N	1.342545	-0.886860	-0.258161
C139	C	1.013258	-0.173051	-0.887126
N140	N	0.979640	-0.196010	-0.928089
H141	H	1.065699	-0.913941	-0.074015
H142	H	1.007087	-0.483504	-0.035157
C143	C	0.990444	-0.578517	-0.024076
N144	N	0.942073	-0.607243	0.008081
C145	C	1.352407	-0.551160	-0.264760
N146	N	1.400773	-0.522432	-0.296922
C147	C	1.048733	-0.351509	-0.062826
N148	N	1.000371	-0.380241	-0.030667
H149	H	1.335759	-0.646183	-0.253680
