data_functionalizedCrystal
_audit_creation_method	'MofGen! by Chris Wilmer'
_symmetry_space_group_name_H-M	'P1'
_symmetry_Int_Tables_number	1
_symmetry_cell_setting	triclinic
loop_
_symmetry_equiv_pos_as_xyz
  x,y,z
_cell_length_a	13.032721
_cell_length_b	18.215407
_cell_length_c	18.215399
_cell_angle_alpha	90.014769
_cell_angle_beta	97.151969
_cell_angle_gamma	82.800040
loop_
_atom_site_label
_atom_site_type_symbol
_atom_site_fract_x
_atom_site_fract_y
_atom_site_fract_z
Zn1	Zn	-0.416144	-1.087848	-0.453290
Zn2	Zn	0.083856	-0.587848	0.046710
Zn3	Zn	-0.590912	-1.072139	-0.345853
Zn4	Zn	-0.090912	-0.572139	0.154147
Zn5	Zn	-0.416171	-0.964784	-0.330245
Zn6	Zn	0.083829	-0.464784	0.169755
Zn7	Zn	-0.590832	-0.949130	-0.468876
Zn8	Zn	-0.090832	-0.449130	0.031124
O9	O	-0.503515	-1.018475	-0.399566
O10	O	-0.003515	-0.518475	0.100434
O11	O	-0.439350	-1.188746	-0.439049
O12	O	0.060650	-0.688746	0.060951
O13	O	-0.567777	-1.057875	-0.240803
O14	O	-0.067777	-0.557875	0.259197
O15	O	-0.269930	-0.994235	-0.333512
O16	O	0.230070	-0.494235	0.166488
O17	O	-0.567751	-1.177205	-0.360115
O18	O	-0.067751	-0.677205	0.139885
O19	O	-0.269911	-1.084649	-0.423914
O20	O	0.230089	-0.584649	0.076086
O21	O	-0.439396	-0.979003	-0.229335
O22	O	0.060604	-0.479003	0.270665
O23	O	-0.439318	-0.859726	-0.348624
O24	O	0.060682	-0.359726	0.151376
O25	O	-0.567614	-0.967554	-0.569788
O26	O	-0.067614	-0.467554	-0.069788
O27	O	-0.567640	-0.848224	-0.450476
O28	O	-0.067640	-0.348224	0.049524
O29	O	-0.439272	-1.069469	-0.558338
O30	O	0.060728	-0.569469	-0.058338
O31	O	-0.737139	-1.042696	-0.375227
O32	O	-0.237139	-0.542696	0.124773
O33	O	-0.737080	-0.952321	-0.465611
O34	O	-0.237080	-0.452321	0.034389
C35	C	-0.503474	-0.827273	-0.399548
C36	C	-0.003474	-0.327273	0.100452
C37	C	-0.503482	-0.745473	-0.399560
C38	C	-0.003482	-0.245473	0.100440
C39	C	-0.436752	-0.563276	-0.440745
C40	C	0.063248	-0.063276	0.059255
C41	C	-0.436758	-0.486417	-0.440748
C42	C	0.063242	0.013583	0.059252
C43	C	-0.570261	-0.474428	-0.358391
C44	C	-0.070261	0.025572	0.141609
C45	C	-0.570250	-0.551286	-0.358385
C46	C	-0.070250	-0.051286	0.141615
C47	C	-0.503497	-0.595708	-0.399566
C48	C	-0.003497	-0.095708	0.100434
C49	C	-0.503514	-0.441990	-0.399575
C50	C	-0.003514	0.058010	0.100425
C51	C	-0.503520	-0.358656	-0.399577
C52	C	-0.003520	0.141344	0.100423
C53	C	-0.503489	-0.679048	-0.399563
C54	C	-0.003489	-0.179048	0.100437
C55	C	-0.775027	-0.994125	-0.423820
C56	C	-0.275027	-0.494125	0.076180
C57	C	-0.891181	-0.983775	-0.434221
C58	C	-0.391181	-0.483775	0.065779
C59	C	-0.942960	-1.023916	-0.394171
C60	C	-0.442960	-0.523916	0.105829
C61	C	-1.063012	-1.013220	-0.404920
C62	C	-0.563012	-0.513220	0.095080
C63	C	-0.230943	-1.042941	-0.375233
C64	C	0.269057	-0.542941	0.124767
C65	C	-0.114789	-1.053366	-0.364864
C66	C	0.385211	-0.553366	0.135136
C67	C	-0.503431	-1.018517	-0.591512
C68	C	-0.003431	-0.518517	-0.091512
C69	C	-0.503396	-1.018535	-0.673307
C70	C	-0.003396	-0.518535	-0.173307
C71	C	-0.503545	-0.210425	-0.399582
C72	C	-0.003545	0.289575	0.100418
C73	C	-0.503529	-0.292226	-0.399581
C74	C	-0.003529	0.207774	0.100419
C75	C	-0.436502	-0.977510	-0.855527
C76	C	0.063498	-0.477510	-0.355527
C77	C	-0.436481	-0.977525	-0.932384
C78	C	0.063519	-0.477525	-0.432384
C79	C	-0.570164	-1.059660	-0.944314
C80	C	-0.070164	-0.559660	-0.444314
C81	C	-0.570190	-1.059640	-0.867459
C82	C	-0.070190	-0.559640	-0.367459
C83	C	-0.503353	-1.018567	-0.823067
C84	C	-0.003353	-0.518567	-0.323067
C85	C	-0.503306	-1.018601	-0.976779
C86	C	-0.003306	-0.518601	-0.476779
C87	C	-0.503284	-1.018617	-1.060111
C88	C	-0.003284	-0.518617	-0.560111
C89	C	-0.503376	-1.018550	-0.739730
C90	C	-0.003376	-0.518550	-0.239730
C91	C	-0.503523	-1.018482	-0.208360
C92	C	-0.003523	-0.518482	0.291640
C93	C	-0.503264	-1.018633	-0.126539
C94	C	-0.003264	-0.518633	0.373461
H95	H	-0.624610	-0.438250	-0.324863
H96	H	-0.124610	0.061750	0.175137
C97	C	-1.123172	-0.956094	-0.461996
C98	C	-0.623172	-0.456094	0.038004
H99	H	-1.075118	-0.932301	-0.485733
H100	H	-0.575118	-0.432301	0.014267
H101	H	-1.165818	-0.920275	-0.437610
H102	H	-0.665818	-0.420275	0.062390
H103	H	-1.165684	-0.980471	-0.497869
H104	H	-0.665684	-0.480471	0.002131
H105	H	-0.624602	-0.577692	-0.324848
H106	H	-0.124602	-0.077692	0.175152
C107	C	-1.054626	-1.110478	-0.307774
C108	C	-0.554626	-0.610478	0.192226
H109	H	-0.981831	-1.110166	-0.308027
H110	H	-0.481831	-0.610166	0.191973
H111	H	-1.072387	-1.158352	-0.320150
H112	H	-0.572387	-0.658352	0.179850
H113	H	-1.072534	-1.098133	-0.259912
H114	H	-0.572534	-0.598133	0.240088
H115	H	-0.898416	-1.066204	-0.351928
H116	H	-0.398416	-0.566204	0.148072
C117	C	-0.643730	-1.104803	-0.831747
C118	C	-0.143730	-0.604803	-0.331747
H119	H	-0.634179	-1.098901	-0.779618
H120	H	-0.134179	-0.598901	-0.279618
H121	H	-0.628446	-1.155625	-0.842977
H122	H	-0.128446	-0.655625	-0.342977
H123	H	-0.713941	-1.087727	-0.850607
H124	H	-0.213941	-0.587727	-0.350607
H125	H	-0.935728	-0.941494	-0.476469
H126	H	-0.435728	-0.441494	0.023531
C127	C	-0.363344	-0.450744	-0.486049
C128	C	0.136656	0.049256	0.013951
H129	H	-0.323596	-0.488210	-0.510577
H130	H	0.176404	0.011790	-0.010577
H131	H	-0.317764	-0.424836	-0.453882
H132	H	0.182236	0.075164	0.046118
H133	H	-0.403388	-0.417186	-0.521650
H134	H	0.096612	0.082814	-0.021650
C135	C	-0.363319	-0.612138	-0.486036
C136	C	0.136681	-0.112138	0.013964
H137	H	-0.323563	-0.581813	-0.510556
H138	H	0.176437	-0.081813	-0.010556
H139	H	-0.403341	-0.638547	-0.521631
H140	H	0.096659	-0.138547	-0.021631
H141	H	-0.317731	-0.646193	-0.453856
H142	H	0.182269	-0.146193	0.046144
C143	C	-0.363002	-0.932319	-0.806700
C144	C	0.136998	-0.432319	-0.306700
H145	H	-0.323195	-0.907861	-0.837043
H146	H	0.176805	-0.407861	-0.337043
H147	H	-0.317479	-0.964540	-0.772653
H148	H	0.182521	-0.464540	-0.272653
H149	H	-0.402998	-0.896657	-0.780289
H150	H	0.097002	-0.396657	-0.280289
H151	H	-0.624580	-1.093101	-0.980468
H152	H	-0.124580	-0.593101	-0.480468
C153	C	-0.362941	-0.932366	-0.968086
C154	C	0.137059	-0.432366	-0.468086
H155	H	-0.323137	-0.907908	-0.930638
H156	H	0.176863	-0.407908	-0.430638
H157	H	-0.402896	-0.896719	-1.001632
H158	H	0.097104	-0.396719	-0.501632
H159	H	-0.317401	-0.964616	-0.994006
H160	H	0.182599	-0.464616	-0.494006
