data_functionalizedCrystal
_audit_creation_method	'MofGen! by Chris Wilmer'
_symmetry_space_group_name_H-M	'P1'
_symmetry_Int_Tables_number	1
_symmetry_cell_setting	triclinic
loop_
_symmetry_equiv_pos_as_xyz
  x,y,z
_cell_length_a	10.685909
_cell_length_b	19.077068
_cell_length_c	19.077174
_cell_angle_alpha	85.342852
_cell_angle_beta	87.756993
_cell_angle_gamma	87.782494
loop_
_atom_site_label
_atom_site_type_symbol
_atom_site_fract_x
_atom_site_fract_y
_atom_site_fract_z
Zn1	Zn	-1.925624	0.375770	-0.330478
Zn2	Zn	-1.909269	0.488253	-0.217995
Zn3	Zn	-1.707778	0.362108	-0.221586
Zn4	Zn	-1.707695	0.484669	-0.344149
O5	O	-1.812592	0.427700	-0.278552
O6	O	-2.098983	0.397908	-0.308332
O7	O	-1.875731	0.467302	-0.120104
O8	O	-1.743556	0.265553	-0.231812
O9	O	-2.086967	0.480549	-0.225692
O10	O	-1.903606	0.275591	-0.311814
O11	O	-1.727697	0.374623	-0.122743
O12	O	-1.532239	0.371148	-0.245069
O13	O	-1.743413	0.474441	-0.440703
O14	O	-1.532177	0.461193	-0.335115
O15	O	-1.903525	0.394433	-0.430659
O16	O	-1.875650	0.586144	-0.238949
O17	O	-1.727555	0.583511	-0.331633
C18	C	-1.486695	0.414300	-0.291966
C19	C	-1.347276	0.408585	-0.297722
C20	C	-1.139761	0.441146	-0.265081
C21	C	-1.279181	0.446859	-0.259328
C22	C	-1.799854	0.610335	-0.286399
C23	C	-1.794521	0.688473	-0.289774
C24	C	-1.825284	0.435561	-0.461899
C25	C	-1.830693	0.438911	-0.540031
C26	C	-1.825415	0.244354	-0.270689
C27	C	-1.830879	0.166222	-0.267338
C28	C	-1.869185	0.726534	-0.243139
C29	C	-1.864177	0.799953	-0.246318
C30	C	-1.784497	0.835309	-0.296129
C31	C	-1.709829	0.797243	-0.342770
C32	C	-1.714845	0.723826	-0.339594
C33	C	-1.761227	1.054739	-0.310802
C34	C	-1.756214	1.128161	-0.313973
C35	C	-1.910565	1.130866	-0.217522
C36	C	-1.915568	1.057447	-0.214348
C37	C	-1.840905	1.019388	-0.260990
N38	N	-1.779373	0.910355	-0.299378
N39	N	-1.846036	0.944343	-0.257744
C40	C	-1.756164	0.392234	-0.578111
C41	C	-1.761241	0.395387	-0.651524
C42	C	-1.840855	0.445215	-0.686856
C43	C	-1.915386	0.491898	-0.648772
C44	C	-1.910302	0.488747	-0.575360
C45	C	-1.864319	0.459815	-0.906267
C46	C	-1.869401	0.462961	-0.979684
C47	C	-1.715253	0.366450	-0.982431
C48	C	-1.710182	0.363301	-0.909017
C49	C	-1.784708	0.409986	-0.870940
N50	N	-1.846049	0.448438	-0.761897
N51	N	-1.779507	0.406766	-0.795901
C52	C	-1.800024	0.419821	-0.095913
C53	C	-1.794872	0.416283	-0.017763
H54	H	-1.298908	0.371446	-0.334999
C55	C	-1.344513	0.497032	-0.208971
N56	N	-1.393730	0.534822	-0.171040
H57	H	-1.934064	0.697751	-0.202575
H58	H	-1.924976	0.830939	-0.208342
H59	H	-1.980450	1.028661	-0.173787
C60	C	-1.992692	1.172738	-0.166221
N61	N	-2.054557	1.204276	-0.127580
C62	C	-1.622598	0.308488	-0.870157
N63	N	-1.556630	0.267200	-0.840888
H64	H	-1.691342	0.351654	-0.549348
H65	H	-1.654577	0.328443	-1.013442
C66	C	-1.668564	1.167052	-0.368776
N67	N	-1.602550	1.196345	-0.410052
H68	H	-1.700431	1.023756	-0.348779
H69	H	-1.644957	0.826036	-0.383330
H70	H	-1.971001	0.526752	-0.544356
H71	H	-1.654046	0.692837	-0.377570
C72	C	-1.679266	0.344031	-0.693407
N73	N	-1.617523	0.305345	-0.724953
H74	H	-1.934237	0.503538	-1.008449
C75	C	-1.946375	0.511134	-0.864386
N76	N	-2.008208	0.549777	-0.832838
H77	H	-1.980203	0.532472	-0.677546
