data_functionalizedCrystal
_audit_creation_method	'MofGen! by Chris Wilmer'
_symmetry_space_group_name_H-M	'P1'
_symmetry_Int_Tables_number	1
_symmetry_cell_setting	triclinic
loop_
_symmetry_equiv_pos_as_xyz
  x,y,z
_cell_length_a	12.827892
_cell_length_b	17.077404
_cell_length_c	17.077396
_cell_angle_alpha	90.019501
_cell_angle_beta	89.975123
_cell_angle_gamma	89.984383
loop_
_atom_site_label
_atom_site_type_symbol
_atom_site_fract_x
_atom_site_fract_y
_atom_site_fract_z
Zn1	Zn	-0.416027	-1.200096	-0.443862
Zn2	Zn	0.083973	-0.700096	0.056138
Zn3	Zn	-0.590789	-1.200020	-0.312605
Zn4	Zn	-0.090789	-0.700020	0.187395
Zn5	Zn	-0.416063	-1.068827	-0.312610
Zn6	Zn	0.083937	-0.568827	0.187390
Zn7	Zn	-0.590727	-1.068812	-0.443828
Zn8	Zn	-0.090727	-0.568812	0.056172
O9	O	-0.503402	-1.134439	-0.378226
O10	O	-0.003402	-0.634439	0.121774
O11	O	-0.439220	-1.309932	-0.426463
O12	O	0.060780	-0.809932	0.073537
O13	O	-0.567653	-1.182591	-0.202758
O14	O	-0.067653	-0.682591	0.297242
O15	O	-0.269823	-1.086278	-0.330038
O16	O	0.230177	-0.586278	0.169962
O17	O	-0.567617	-1.309877	-0.330028
O18	O	-0.067617	-0.809877	0.169972
O19	O	-0.269796	-1.182720	-0.426468
O20	O	0.230204	-0.682720	0.073532
O21	O	-0.439282	-1.086205	-0.202763
O22	O	0.060718	-0.586205	0.297237
O23	O	-0.439222	-0.958978	-0.330005
O24	O	0.060778	-0.458978	0.169995
O25	O	-0.567511	-1.086253	-0.553680
O26	O	-0.067511	-0.586253	-0.053680
O27	O	-0.567547	-0.958968	-0.426410
O28	O	-0.067547	-0.458968	0.073590
O29	O	-0.439160	-1.182706	-0.553705
O30	O	0.060840	-0.682706	-0.053705
O31	O	-0.737017	-1.182577	-0.329995
O32	O	-0.237017	-0.682577	0.170005
O33	O	-0.736971	-1.086179	-0.426404
O34	O	-0.236971	-0.586179	0.073596
C35	C	-0.503383	-0.930491	-0.378205
C36	C	-0.003383	-0.430491	0.121795
C37	C	-0.503400	-0.843241	-0.378214
C38	C	-0.003400	-0.343241	0.121786
C39	C	-0.774912	-1.134390	-0.378213
C40	C	-0.274912	-0.634390	0.121787
C41	C	-0.891065	-1.134440	-0.378233
C42	C	-0.391065	-0.634440	0.121767
C43	C	-0.503325	-1.134486	-0.582971
C44	C	-0.003325	-0.634486	-0.082971
C45	C	-0.503292	-1.134506	-0.670221
C46	C	-0.003292	-0.634506	-0.170221
C47	C	-0.942837	-1.182198	-0.330579
C48	C	-0.442837	-0.682198	0.169421
C49	C	-1.062888	-1.182251	-0.330599
C50	C	-0.562888	-0.682251	0.169401
C51	C	-0.230831	-1.134509	-0.378257
C52	C	0.269169	-0.634509	0.121743
C53	C	-0.114678	-1.134540	-0.378271
C54	C	0.385322	-0.634540	0.121729
C55	C	-0.503421	-1.339183	-0.378249
C56	C	-0.003421	-0.839183	0.121751
C57	C	-0.503430	-1.426433	-0.378258
C58	C	-0.003430	-0.926433	0.121742
C59	C	-0.570319	-0.802266	-0.428332
C60	C	-0.070319	-0.302266	0.071668
C61	C	-0.570321	-0.720285	-0.428344
C62	C	-0.070321	-0.220285	0.071656
C63	C	-0.503409	-0.679282	-0.378235
C64	C	-0.003409	-0.179282	0.121765
C65	C	-0.436482	-0.720263	-0.328115
C66	C	0.063518	-0.220263	0.171885
C67	C	-0.436475	-0.802242	-0.328107
C68	C	0.063525	-0.302242	0.171893
C69	C	-0.436502	-0.549393	-0.328134
C70	C	0.063498	-0.049393	0.171866
C71	C	-0.436510	-0.467408	-0.328140
C72	C	0.063490	0.032592	0.171860
C73	C	-0.570349	-0.467436	-0.428371
C74	C	-0.070349	0.032564	0.071629
C75	C	-0.570342	-0.549415	-0.428363
C76	C	-0.070342	-0.049415	0.071637
C77	C	-0.503416	-0.590391	-0.378242
C78	C	-0.003416	-0.090391	0.121758
C79	C	-0.436454	-1.184731	-0.711225
C80	C	0.063546	-0.684731	-0.211225
C81	C	-0.436419	-1.184741	-0.793206
C82	C	0.063581	-0.684741	-0.293206
C83	C	-0.503228	-1.134529	-0.834180
C84	C	-0.003228	-0.634529	-0.334180
C85	C	-0.570069	-1.084298	-0.793170
C86	C	-0.070069	-0.584298	-0.293170
C87	C	-0.570098	-1.084285	-0.711191
C88	C	-0.070098	-0.584285	-0.211191
C89	C	-0.570007	-1.084330	-0.964040
C90	C	-0.070007	-0.584330	-0.464040
C91	C	-0.569980	-1.084344	-1.046025
C92	C	-0.069980	-0.584344	-0.546025
C93	C	-0.436327	-1.184785	-1.046055
C94	C	0.063673	-0.684785	-0.546055
C95	C	-0.436356	-1.184772	-0.964076
C96	C	0.063644	-0.684772	-0.464076
C97	C	-0.503199	-1.134543	-0.923071
C98	C	-0.003199	-0.634543	-0.423071
C99	C	-0.503403	-1.134437	-0.174279
C100	C	-0.003403	-0.634437	0.325721
C101	C	-0.503141	-1.134568	-0.087029
C102	C	-0.003141	-0.634568	0.412971
H103	H	-0.898288	-1.223048	-0.289769
H104	H	-0.398288	-0.723048	0.210231
Cl105	Cl	-0.959841	-1.071377	-0.441252
Cl106	Cl	-0.459841	-0.571377	0.058748
Cl107	Cl	-0.654448	-0.853805	-0.491327
Cl108	Cl	-0.154448	-0.353805	0.008673
H109	H	-0.624839	-0.434070	-0.469184
H110	H	-0.124839	0.065930	0.030816
Cl111	Cl	-0.654453	-0.668777	-0.491352
Cl112	Cl	-0.154453	-0.168777	0.008648
H113	H	-0.381960	-1.225664	-0.930716
H114	H	0.118040	-0.725664	-0.430716
H115	H	-0.624834	-0.582798	-0.469163
H116	H	-0.124834	-0.082798	0.030837
Cl117	Cl	-1.131622	-1.245376	-0.267603
Cl118	Cl	-0.631622	-0.745376	0.232397
H119	H	-1.070163	-1.093647	-0.419068
H120	H	-0.570163	-0.593647	0.080932
H121	H	-0.382012	-0.434025	-0.287346
H122	H	0.117988	0.065975	0.212654
Cl123	Cl	-0.352366	-0.600903	-0.265123
Cl124	Cl	0.147634	-0.100903	0.234877
Cl125	Cl	-0.352355	-0.668715	-0.265124
Cl126	Cl	0.147645	-0.168715	0.234876
H127	H	-0.381977	-0.835603	-0.287300
H128	H	0.118023	-0.335603	0.212700
Cl129	Cl	-0.352465	-1.247863	-0.659722
Cl130	Cl	0.147535	-0.747863	-0.159722
H131	H	-0.381995	-1.225641	-0.826588
H132	H	0.118005	-0.725641	-0.326588
Cl133	Cl	-0.352297	-1.247932	-1.097603
Cl134	Cl	0.147703	-0.747932	-0.597603
H135	H	-0.624379	-1.043455	-1.079384
H136	H	-0.124379	-0.543455	-0.579384
H137	H	-0.624421	-1.043415	-0.930657
H138	H	-0.124421	-0.543415	-0.430657
H139	H	-0.624463	-1.043412	-0.826538
H140	H	-0.124463	-0.543412	-0.326538
Cl141	Cl	-0.654124	-1.021140	-0.659642
Cl142	Cl	-0.154124	-0.521140	-0.159642
