data_functionalizedCrystal
_audit_creation_method	'MofGen! by Chris Wilmer'
_symmetry_space_group_name_H-M	'P1'
_symmetry_Int_Tables_number	1
_symmetry_cell_setting	triclinic
loop_
_symmetry_equiv_pos_as_xyz
  x,y,z
_cell_length_a	12.811438
_cell_length_b	14.519731
_cell_length_c	11.892095
_cell_angle_alpha	93.895723
_cell_angle_beta	91.498957
_cell_angle_gamma	83.868348
loop_
_atom_site_label
_atom_site_type_symbol
_atom_site_fract_x
_atom_site_fract_y
_atom_site_fract_z
O1	O	1.389449	0.127258	0.048454
O2	O	1.086112	0.138819	0.017350
O3	O	1.245811	-0.001127	0.033736
O4	O	1.229750	0.267204	0.032068
O5	O	1.232496	0.010523	0.220377
O6	O	1.072797	0.150469	0.203991
O7	O	1.376134	0.138908	0.235095
Zn8	Zn	1.222351	0.146539	0.249177
Zn9	Zn	1.239895	0.131189	0.003269
O10	O	1.216435	0.278855	0.218710
C11	C	1.040633	0.143638	0.106690
C12	C	0.924957	0.140630	0.094829
C13	C	0.769172	0.130040	-0.023613
C14	C	0.877860	0.132865	-0.012478
C15	C	0.863358	0.145567	0.191010
C16	C	0.754669	0.142741	0.179875
C17	C	0.707580	0.134979	0.072560
C18	C	0.598889	0.132160	0.061426
C19	C	0.584390	0.144855	0.264913
C20	C	0.693078	0.147681	0.276048
C21	C	1.238401	-0.029668	0.126979
C22	C	1.236145	-0.132068	0.126749
C23	C	1.234313	-0.215229	0.126558
C24	C	1.232024	-0.319558	0.126315
C25	C	1.230207	-0.402714	0.126121
C26	C	1.227918	-0.507050	0.125880
C27	C	1.421613	0.134089	0.145753
C28	C	1.537290	0.137097	0.157606
C29	C	1.223846	0.307395	0.125463
C30	C	1.226101	0.409795	0.125687
N31	N	1.210386	0.157014	0.417003
N32	N	1.251869	0.120706	-0.164557
C33	C	1.335130	0.047762	0.666450
C34	C	1.326774	0.055091	0.783934
C35	C	1.185313	0.178996	0.769458
C36	C	1.193669	0.171667	0.651974
C37	C	1.268581	0.106048	0.600474
C38	C	1.276941	0.098725	0.482988
C39	C	1.135476	0.222625	0.468513
C40	C	1.127120	0.229954	0.585998
H41	H	0.901719	0.151876	0.278381
H42	H	1.124314	0.232414	0.811404
H43	H	0.560550	0.125844	-0.025956
H44	H	0.730830	0.123729	-0.110994
H45	H	0.731434	0.153997	0.363421
H46	H	1.066125	0.283377	0.627942
H47	H	0.534229	0.148881	0.343224
H48	H	1.337941	0.045297	0.441058
H49	H	0.928005	0.128843	-0.090793
H50	H	1.396133	-0.005661	0.624519
H51	H	1.081291	0.270088	0.414782
H52	H	1.380963	0.007626	0.837649
