data_functionalizedCrystal
_audit_creation_method	'MofGen! by Chris Wilmer'
_symmetry_space_group_name_H-M	'P1'
_symmetry_Int_Tables_number	1
_symmetry_cell_setting	triclinic
loop_
_symmetry_equiv_pos_as_xyz
  x,y,z
_cell_length_a	21.395362
_cell_length_b	17.640280
_cell_length_c	21.395355
_cell_angle_alpha	101.215078
_cell_angle_beta	90.043940
_cell_angle_gamma	78.812025
loop_
_atom_site_label
_atom_site_type_symbol
_atom_site_fract_x
_atom_site_fract_y
_atom_site_fract_z
Zn1	Zn	1.008318	-0.314390	0.304290
Zn2	Zn	1.508318	0.185610	0.804290
Zn3	Zn	1.029429	-0.446530	0.178373
Zn4	Zn	1.529429	0.053470	0.678373
Zn5	Zn	0.903539	-0.314427	0.199486
Zn6	Zn	1.403539	0.185573	0.699486
Zn7	Zn	0.924713	-0.446546	0.283075
Zn8	Zn	1.424713	0.053454	0.783075
O9	O	0.966500	-0.380473	0.241306
O10	O	1.466500	0.119527	0.741306
O11	O	1.098793	-0.331896	0.287630
O12	O	1.598793	0.168104	0.787630
O13	O	1.012702	-0.429015	0.093494
O14	O	1.512702	0.070985	0.593494
O15	O	0.899742	-0.203828	0.231102
O16	O	1.399742	0.296172	0.731102
O17	O	1.114303	-0.428979	0.195119
O18	O	1.614303	0.071021	0.695119
O19	O	0.976723	-0.203801	0.308102
O20	O	1.476723	0.296199	0.808102
O21	O	0.920212	-0.331959	0.109006
O22	O	1.420212	0.168041	0.609006
O23	O	0.818673	-0.331975	0.210531
O24	O	1.318673	0.168025	0.710531
O25	O	0.935830	-0.429007	0.373569
O26	O	1.435830	0.070993	0.873569
O27	O	0.834230	-0.429043	0.271944
O28	O	1.334230	0.070957	0.771944
O29	O	0.997254	-0.331912	0.389155
O30	O	1.497254	0.168088	0.889155
O31	O	1.033234	-0.557126	0.174548
O32	O	1.533234	-0.057126	0.674548
O33	O	0.956300	-0.557138	0.251472
O34	O	1.456300	-0.057138	0.751472
C35	C	0.803719	-0.380515	0.241227
C36	C	1.303719	0.119485	0.741227
C37	C	0.734083	-0.380552	0.241204
C38	C	1.234083	0.119448	0.741204
C39	C	0.709497	-0.431162	0.273111
C40	C	1.209497	0.068838	0.773111
C41	C	0.644059	-0.431143	0.273143
C42	C	1.144059	0.068857	0.773143
C43	C	0.603210	-0.380521	0.241254
C44	C	1.103210	0.119479	0.741254
C45	C	0.627802	-0.329901	0.209346
C46	C	1.127802	0.170099	0.709346
C47	C	0.693239	-0.329917	0.209321
C48	C	1.193239	0.170083	0.709321
C49	C	0.498463	-0.374155	0.185867
C50	C	0.998463	0.125845	0.685867
C51	C	0.433029	-0.374145	0.185890
C52	C	0.933029	0.125855	0.685890
C53	C	0.401381	-0.380470	0.241331
C54	C	0.901381	0.119530	0.741331
C55	C	0.435178	-0.386821	0.296749
C56	C	0.935178	0.113179	0.796749
C57	C	0.500615	-0.386836	0.296724
C58	C	1.000615	0.113164	0.796724
C59	C	0.532254	-0.380499	0.241278
C60	C	1.032254	0.119501	0.741278
C61	C	0.305840	-0.431062	0.273275
C62	C	0.805840	0.068938	0.773275
C63	C	0.240399	-0.431037	0.273308
C64	C	0.740399	0.068963	0.773308
C65	C	0.224144	-0.329800	0.209505
C66	C	0.724144	0.170200	0.709505
C67	C	0.289583	-0.329820	0.209478
C68	C	0.789583	0.170180	0.709478
C69	C	0.330428	-0.380456	0.241362
C70	C	0.830428	0.119544	0.741362
C71	C	0.999372	-0.585808	0.208431
C72	C	1.499372	-0.085808	0.708431
C73	C	1.013493	-0.673651	0.194387
C74	C	1.513493	-0.173651	0.694387
C75	C	0.859485	-0.962724	0.348219
C76	C	1.359485	-0.462724	0.848219
C77	C	0.872755	-1.045266	0.335003
C78	C	1.372755	-0.545266	0.835003
C79	C	0.952916	-1.045188	0.254983
C80	C	1.452916	-0.545188	0.754983
C81	C	0.939655	-0.962645	0.268194
C82	C	1.439655	-0.462645	0.768194
C83	C	0.892939	-0.921419	0.314813
C84	C	1.392939	-0.421419	0.814813
C85	C	0.973109	-0.921340	0.234788
C86	C	1.473109	-0.421340	0.734788
C87	C	0.959847	-0.838803	0.247996
C88	C	1.459847	-0.338803	0.747996
C89	C	0.913131	-0.797572	0.294610
C90	C	1.413131	-0.297572	0.794610
C91	C	0.879677	-0.838883	0.328021
C92	C	1.379677	-0.338883	0.828021
C93	C	1.019822	-0.962567	0.188167
C94	C	1.519822	-0.462567	0.688167
C95	C	1.053276	-0.921262	0.154760
C96	C	1.553276	-0.421262	0.654760
C97	C	1.040017	-0.838724	0.167971
C98	C	1.540017	-0.338724	0.667971
C99	C	0.993301	-0.797492	0.214586
C100	C	1.493301	-0.297492	0.714586
C101	C	1.073472	-0.797413	0.134561
C102	C	1.573472	-0.297413	0.634561
C103	C	1.060209	-0.714877	0.147769
C104	C	1.560209	-0.214877	0.647769
C105	C	0.980039	-0.714956	0.227794
C106	C	1.480039	-0.214956	0.727794
C107	C	1.129916	-0.380432	0.241386
C108	C	1.629916	0.119568	0.741386
C109	C	1.199555	-0.380414	0.241420
C110	C	1.699555	0.119586	0.741420
C111	C	0.966549	-0.380457	0.404732
C112	C	1.466549	0.119543	0.904732
C113	C	0.966570	-0.380450	0.474374
C114	C	1.466570	0.119550	0.974374
C115	C	0.933515	-0.174337	0.274324
C116	C	1.433515	0.325663	0.774324
C117	C	0.919460	-0.086494	0.288394
C118	C	1.419460	0.413506	0.788394
C119	C	0.966477	-0.380432	0.078525
C120	C	1.466477	0.119568	0.578525
C121	C	0.966542	-0.380216	0.008919
C122	C	1.466542	0.119784	0.508919
C123	C	0.998552	-0.329891	0.515205
C124	C	1.498552	0.170109	1.015205
C125	C	0.998545	-0.329857	0.580646
C126	C	1.498545	0.170143	1.080646
C127	C	0.966566	-0.380397	0.605251
C128	C	1.466566	0.119603	1.105251
C129	C	0.934577	-0.430960	0.564412
C130	C	1.434577	0.069040	1.064412
C131	C	0.934579	-0.430986	0.498974
C132	C	1.434579	0.069014	0.998974
C133	C	0.973012	-0.451559	0.697531
C134	C	1.473012	0.048441	1.197531
C135	C	0.973014	-0.451533	0.762968
C136	C	1.473014	0.048467	1.262968
C137	C	0.966557	-0.380313	0.807086
C138	C	1.466557	0.119687	1.307086
C139	C	0.960109	-0.309116	0.785758
C140	C	1.460109	0.190884	1.285758
C141	C	0.960111	-0.309143	0.720320
C142	C	1.460111	0.190857	1.220320
C143	C	0.966560	-0.380373	0.676208
C144	C	1.466560	0.119627	1.176208
C145	C	0.998533	-0.329712	0.918875
C146	C	1.498533	0.170288	1.418875
C147	C	0.998522	-0.329677	0.984317
C148	C	1.498522	0.170323	1.484317
C149	C	0.934559	-0.430787	0.968082
C150	C	1.434559	0.069213	1.468082
C151	C	0.934565	-0.430815	0.902642
C152	C	1.434565	0.069185	1.402642
C153	C	0.966556	-0.380279	0.878042
C154	C	1.466556	0.119721	1.378042
H155	H	0.409412	-0.391970	0.341895
H156	H	0.909412	0.108030	0.841895
F157	F	1.095810	-0.670914	0.112210
F158	F	1.595810	-0.170914	0.612210
H159	H	0.990951	-1.078765	0.217025
H160	H	1.490951	-0.578765	0.717025
H161	H	0.942002	-0.681389	0.265760
H162	H	1.442002	-0.181389	0.765760
F163	F	0.899129	-0.709729	0.308781
F164	F	1.399129	-0.209729	0.808781
F165	F	1.032596	-0.276102	0.489028
F166	F	1.532596	0.223898	0.989028
H167	H	0.845517	-1.078894	0.362218
H168	H	1.345517	-0.578894	0.862218
F169	F	0.900541	-0.484745	0.590601
F170	F	1.400541	0.015255	1.090601
F171	F	1.033953	-1.050410	0.174128
F172	F	1.533953	-0.550410	0.674128
F173	F	0.532139	-0.367425	0.126854
F174	F	1.032139	0.132575	0.626854
F175	F	0.536582	-0.393592	0.355702
F176	F	1.036582	0.106408	0.855702
F177	F	0.900528	-0.484631	0.859185
F178	F	1.400528	0.015369	1.359185
F179	F	1.102994	-0.965145	0.105148
F180	F	1.602994	-0.465145	0.605148
H181	H	0.821448	-0.929157	0.386185
H182	H	1.321448	-0.429157	0.886185
F183	F	0.953238	-0.233313	0.832707
F184	F	1.453238	0.266687	1.332707
F185	F	0.900539	-0.484801	0.455517
F186	F	1.400539	0.015199	0.955517
H187	H	1.111504	-0.830991	0.096601
H188	H	1.611504	-0.330991	0.596601
H189	H	0.339097	-0.472288	0.299240
H190	H	0.839097	0.027712	0.799240
H191	H	0.742749	-0.472392	0.299075
H192	H	1.242749	0.027608	0.799075
H193	H	1.024578	-0.288559	0.898846
H194	H	1.524578	0.211441	1.398846
F195	F	0.315750	-0.275955	0.175516
F196	F	0.815750	0.224045	0.675516
H197	H	0.594538	-0.288684	0.183383
H198	H	1.094538	0.211316	0.683383
H199	H	0.220383	-0.472248	0.299295
H200	H	0.720383	0.027752	0.799295
H201	H	0.190885	-0.288579	0.183544
H202	H	0.690885	0.211421	0.683544
H203	H	0.405517	-0.368979	0.140765
H204	H	0.905517	0.131021	0.640765
F205	F	0.719405	-0.276047	0.175360
F206	F	1.219405	0.223953	0.675360
H207	H	0.841640	-0.805315	0.365986
H208	H	1.341640	-0.305315	0.865986
F209	F	1.032574	-0.276029	0.624110
F210	F	1.532574	0.223971	1.124110
H211	H	0.954860	-0.251173	0.702958
H212	H	1.454860	0.248827	1.202958
H213	H	1.024564	-0.288501	1.017562
H214	H	1.524564	0.211499	1.517562
H215	H	0.908513	-0.471929	0.988116
H216	H	1.408513	0.028071	1.488116
H217	H	0.624037	-0.472355	0.299127
H218	H	1.124037	0.027645	0.799127
H219	H	0.978268	-0.509506	0.780327
H220	H	1.478268	-0.009506	1.280327
H221	H	0.978100	-0.509540	0.661617
H222	H	1.478100	-0.009540	1.161617
