data_functionalizedCrystal
_audit_creation_method	'MofGen! by Chris Wilmer'
_symmetry_space_group_name_H-M	'P1'
_symmetry_Int_Tables_number	1
_symmetry_cell_setting	triclinic
loop_
_symmetry_equiv_pos_as_xyz
  x,y,z
_cell_length_a	27.732048
_cell_length_b	27.732048
_cell_length_c	26.809956
_cell_angle_alpha	89.981467
_cell_angle_beta	89.990422
_cell_angle_gamma	82.642654
loop_
_atom_site_label
_atom_site_type_symbol
_atom_site_fract_x
_atom_site_fract_y
_atom_site_fract_z
O1	O	0.057516	0.640935	-0.041513
O2	O	0.066261	0.500142	-0.041509
O3	O	-0.008508	0.574911	-0.041501
O4	O	0.132285	0.566166	-0.041520
O5	O	-0.008508	0.574889	0.041458
O6	O	0.066261	0.500119	0.041451
O7	O	0.057516	0.640913	0.041446
Zn8	Zn	0.061889	0.570512	0.054620
Zn9	Zn	0.061889	0.570542	-0.054682
O10	O	0.132285	0.566143	0.041439
C11	C	-0.026515	0.574716	-0.000020
C12	C	-0.080170	0.574164	-0.000016
C13	C	0.057699	0.658931	-0.000035
C14	C	0.058252	0.712586	-0.000041
C15	C	0.066078	0.482124	-0.000028
C16	C	0.065525	0.428469	-0.000026
C17	C	-0.418985	0.614867	-0.000043
C18	C	-0.620645	0.612816	-0.000050
O19	O	-0.651900	0.650037	-0.000073
N20	N	-0.639768	0.568481	-0.000048
C21	C	-0.608474	0.524656	-0.000048
O22	O	-0.629367	0.486899	-0.000052
C23	C	-0.406815	0.526707	-0.000045
C24	C	-0.387694	0.571045	-0.000041
C25	C	-0.399864	0.659202	-0.000041
C26	C	-0.349452	0.659714	-0.000036
C27	C	-0.318161	0.615892	-0.000034
C28	C	-0.337282	0.571557	-0.000037
C29	C	-0.375521	0.482882	-0.000048
C30	C	-0.325104	0.483399	-0.000048
C31	C	-0.305983	0.527737	-0.000045
C32	C	-0.255580	0.528248	-0.000031
N33	N	-0.236456	0.572583	-0.000033
C34	C	-0.267747	0.616405	-0.000034
C35	C	-0.714348	0.523582	-0.000049
C36	C	-0.764762	0.523069	-0.000049
C37	C	-0.776930	0.611230	-0.000052
C38	C	-0.726514	0.611742	-0.000048
C39	C	-0.695224	0.567917	-0.000051
C40	C	-0.161878	0.617477	-0.000025
C41	C	-0.111461	0.617986	-0.000018
C42	C	-0.099298	0.529825	-0.000018
C43	C	-0.149710	0.529316	-0.000021
C44	C	-0.180999	0.573147	-0.000027
O45	O	-0.224296	0.491047	-0.000013
O46	O	-0.246844	0.654156	-0.000042
C47	C	-0.469397	0.614355	-0.000048
C48	C	-0.488518	0.570021	-0.000050
C49	C	-0.457228	0.526198	-0.000048
C50	C	-0.538933	0.569508	-0.000050
C51	C	-0.570223	0.613330	-0.000052
C52	C	-0.551100	0.657665	-0.000054
C53	C	-0.500688	0.658177	-0.000049
C54	C	-0.476351	0.481863	-0.000047
C55	C	-0.526764	0.481355	-0.000050
C56	C	-0.558054	0.525177	-0.000052
C57	C	0.150292	0.566338	-0.000043
C58	C	0.203947	0.566891	-0.000050
N59	N	0.061888	0.570495	0.129216
C60	C	0.017548	1.051401	-0.000018
C61	C	0.019599	1.253060	-0.000017
O62	O	-0.017621	1.284316	0.000010
N63	N	0.063935	1.272184	-0.000024
C64	C	0.107760	1.240890	-0.000028
O65	O	0.145517	1.261783	-0.000030
C66	C	0.105709	1.039231	-0.000026
C67	C	0.061371	1.020110	-0.000024
C68	C	-0.026786	1.032280	-0.000015
C69	C	-0.027298	0.981868	-0.000018
C70	C	0.016524	0.950577	-0.000024
C71	C	0.060858	0.969698	-0.000027
C72	C	0.149534	1.007937	-0.000027
C73	C	0.149017	0.957520	-0.000025
C74	C	0.104679	0.938399	-0.000023
C75	C	0.104168	0.887996	-0.000036
N76	N	0.059833	0.868872	-0.000029
C77	C	0.016011	0.900163	-0.000023
C78	C	0.108834	1.346764	-0.000031
C79	C	0.109347	1.397178	-0.000032
C80	C	0.021186	1.409345	-0.000019
C81	C	0.020674	1.358930	-0.000021
C82	C	0.064499	1.327640	-0.000023
C83	C	0.014938	0.794293	-0.000030
C84	C	0.014430	0.743876	-0.000035
C85	C	0.102591	0.731713	-0.000045
C86	C	0.103099	0.782126	-0.000042
C87	C	0.059269	0.813415	-0.000033
O88	O	0.141369	0.856712	-0.000057
O89	O	-0.021740	0.879260	-0.000011
C90	C	0.018061	1.101813	-0.000015
C91	C	0.062395	1.120934	-0.000018
C92	C	0.106217	1.089643	-0.000024
C93	C	0.062908	1.171348	-0.000019
C94	C	0.019086	1.202639	-0.000013
C95	C	-0.025249	1.183515	-0.000006
C96	C	-0.025761	1.133103	-0.000009
C97	C	0.150553	1.108767	-0.000031
C98	C	0.151061	1.159180	-0.000029
C99	C	0.107239	1.190470	-0.000023
N100	N	0.061885	0.570563	-0.129278
C101	C	0.090999	0.599633	0.473837
C102	C	0.090999	0.599648	0.682715
O103	O	0.115745	0.624410	0.709714
N104	N	0.061884	0.570554	0.708843
C105	C	0.032764	0.541456	0.682749
O106	O	0.007996	0.516713	0.709765
C107	C	0.032762	0.541443	0.473872
C108	C	0.061883	0.570536	0.447746
C109	C	0.120117	0.628724	0.447711
C110	C	0.120119	0.628717	0.395495
C111	C	0.091003	0.599620	0.369404
C112	C	0.061885	0.570530	0.395530
C113	C	0.003640	0.512348	0.447779
C114	C	0.003641	0.512348	0.395556
C115	C	0.032762	0.541441	0.369431
C116	C	0.032770	0.541426	0.317223
N117	N	0.061886	0.570521	0.291095
C118	C	0.091002	0.599618	0.317185
C119	C	0.032768	0.541464	0.792412
C120	C	0.032769	0.541466	0.844631
C121	C	0.091003	0.599660	0.844593
C122	C	0.091004	0.599654	0.792373
C123	C	0.061883	0.570558	0.766284
C124	C	0.091004	0.599602	0.207528
C125	C	0.091005	0.599592	0.155307
C126	C	0.032769	0.541401	0.155349
C127	C	0.032769	0.541409	0.207565
C128	C	0.061889	0.570514	0.233653
O129	O	0.008033	0.516682	0.290192
O130	O	0.115758	0.624365	0.290160
C131	C	0.090998	0.599639	0.526053
C132	C	0.061879	0.570548	0.552179
C133	C	0.032763	0.541451	0.526088
C134	C	0.061880	0.570551	0.604398
C135	C	0.090997	0.599648	0.630489
C136	C	0.120112	0.628742	0.604360
C137	C	0.120114	0.628736	0.552144
C138	C	0.003648	0.512357	0.552217
C139	C	0.003649	0.512365	0.604433
C140	C	0.032765	0.541462	0.630524
H141	H	-0.095896	0.654093	-0.000014
H142	H	-0.187348	0.653168	-0.000031
H143	H	-0.710950	0.647846	-0.000046
F144	F	-0.170060	0.482127	-0.000016
F145	F	-0.329109	0.706905	-0.000043
F146	F	-0.433159	0.705848	-0.000043
H147	H	-0.063403	0.966305	-0.000014
H148	H	-0.020752	0.819764	-0.000022
F149	F	0.196725	1.028276	-0.000030
F150	F	-0.065987	0.483189	-0.000016
F151	F	0.151120	0.659676	0.367697
H152	H	-0.802415	0.646911	-0.000053
H153	H	0.145452	1.412741	-0.000041
F154	F	0.151110	0.659696	0.475471
H155	H	-0.062473	1.057752	-0.000009
H156	H	-0.020074	0.488654	0.374317
F157	F	0.121997	0.630620	0.764573
F158	F	-0.785106	0.475878	-0.000043
H159	H	-0.450879	0.446177	-0.000046
F160	F	0.121990	0.630628	0.872370
H161	H	-0.021677	0.728311	-0.000034
F162	F	0.001781	0.510495	0.872430
H163	H	-0.015430	1.343366	-0.000019
H164	H	0.184706	0.932045	-0.000024
F165	F	-0.395860	0.435691	-0.000053
F166	F	0.150289	0.802476	-0.000051
F167	F	-0.480345	0.705368	-0.000049
H168	H	0.009063	0.517713	0.228838
H169	H	-0.576585	0.693347	-0.000053
F170	F	-0.025453	1.442656	-0.000014
H171	H	0.186239	1.083295	-0.000035
H172	H	0.114721	0.623283	0.134037
F173	F	0.149227	0.698403	-0.000054
F174	F	-0.072952	1.112760	-0.000009
H175	H	-0.688875	0.487892	-0.000050
F176	F	0.155482	1.313467	-0.000035
H177	H	-0.060931	1.209001	-0.000004
F178	F	0.001778	0.510486	0.764652
F179	F	-0.027355	0.481382	0.475573
F180	F	-0.291805	0.436752	-0.000052
F181	F	0.198255	1.179523	-0.000035
H182	H	-0.542327	0.445246	-0.000049
F183	F	0.121995	0.630579	0.235285
F184	F	0.001784	0.510434	0.127572
F185	F	0.151111	0.659698	0.524346
F186	F	0.151102	0.659708	0.632137
H187	H	-0.020064	0.488669	0.625700
F188	F	-0.027338	0.481380	0.524456
