data_functionalizedCrystal
_audit_creation_method	'MofGen! by Chris Wilmer'
_symmetry_space_group_name_H-M	'P1'
_symmetry_Int_Tables_number	1
_symmetry_cell_setting	triclinic
loop_
_symmetry_equiv_pos_as_xyz
  x,y,z
_cell_length_a	6.817900
_cell_length_b	10.773890
_cell_length_c	15.185463
_cell_angle_alpha	96.193938
_cell_angle_beta	104.264314
_cell_angle_gamma	96.645716
loop_
_atom_site_label
_atom_site_type_symbol
_atom_site_fract_x
_atom_site_fract_y
_atom_site_fract_z
V1	V	-4.000720	-0.173415	-0.281905
O2	O	-4.024226	0.007485	-0.278062
O3	O	-3.918275	-0.343036	-0.278512
O4	O	-3.956537	-0.171119	-0.405522
O5	O	-3.985699	-0.165622	-0.150173
V6	V	-4.488213	-0.151733	-0.266327
O7	O	-4.253270	-0.220975	-0.316077
O8	O	-4.685860	-0.104173	-0.232155
O9	O	-4.347451	0.017889	-0.269720
O10	O	-4.582103	-0.332633	-0.270170
O11	O	-4.620630	-0.159526	-0.398059
O12	O	-4.309189	-0.154028	-0.142710
C13	C	-3.754857	-0.384375	-0.273687
C14	C	-3.768763	-0.523045	-0.271736
C15	C	-3.946954	-0.590917	-0.275125
C16	C	-3.961331	-0.734241	-0.273110
C17	C	-3.803664	-0.165076	-0.435700
C18	C	-3.848598	-0.164322	-0.536748
C19	C	-3.857585	-0.154935	-0.959432
C20	C	-4.219608	-0.167413	-0.968576
C21	C	-4.177391	-0.168111	-0.873635
C22	C	-3.975266	-0.162222	-0.821588
C23	C	-3.815359	-0.155636	-0.864482
C24	C	-4.337294	-0.174710	-0.830735
C25	C	-4.295082	-0.175409	-0.735788
C26	C	-4.092953	-0.169511	-0.683739
C27	C	-3.933041	-0.162923	-0.726639
C28	C	-3.730916	-0.157035	-0.674592
C29	C	-3.570999	-0.150438	-0.717489
C30	C	-3.613230	-0.149738	-0.812433
C31	C	-4.050723	-0.170211	-0.588795
C32	C	-3.688690	-0.157736	-0.579642
C33	C	-4.174210	0.059220	-0.274543
C34	C	-4.139542	0.197889	-0.276499
C35	C	-4.125403	-0.160076	-0.112527
C36	C	-4.059709	-0.160823	-0.011479
H37	H	-3.524096	-0.152917	-0.537269
Br38	Br	-3.724776	-0.814223	-0.265797
H39	H	-3.483039	-0.144370	-0.847368
H40	H	-4.281470	-0.754121	-0.280897
H41	H	-4.425301	-0.180779	-0.700870
Br42	Br	-3.532222	-0.603033	-0.264423
Br43	Br	-4.493911	-0.175425	-1.039213
H44	H	-3.727386	-0.149559	-0.994362
Br45	Br	-4.267735	-0.179178	-0.530582
Br46	Br	-4.183505	-0.510934	-0.282459
Br47	Br	-3.296694	-0.142465	-0.646845
Br48	Br	-4.611595	-0.182723	-0.901375
