data_functionalizedCrystal
_audit_creation_method	'MofGen! by Chris Wilmer'
_symmetry_space_group_name_H-M	'P1'
_symmetry_Int_Tables_number	1
_symmetry_cell_setting	triclinic
loop_
_symmetry_equiv_pos_as_xyz
  x,y,z
_cell_length_a	16.109302
_cell_length_b	19.188930
_cell_length_c	15.186229
_cell_angle_alpha	90.005403
_cell_angle_beta	90.007553
_cell_angle_gamma	83.303281
loop_
_atom_site_label
_atom_site_type_symbol
_atom_site_fract_x
_atom_site_fract_y
_atom_site_fract_z
O1	O	1.102836	0.089743	0.073278
O2	O	1.436169	0.423076	0.406612
O3	O	1.769503	0.756409	0.739945
O4	O	0.860737	0.100910	0.073273
O5	O	1.194071	0.434244	0.406606
O6	O	1.527404	0.767577	0.739939
O7	O	0.988773	-0.006313	0.073258
O8	O	1.322106	0.327021	0.406592
O9	O	1.655440	0.660354	0.739925
O10	O	0.974800	0.196966	0.073292
O11	O	1.308134	0.530299	0.406626
O12	O	1.641467	0.863632	0.739959
O13	O	0.988758	-0.006307	-0.073199
O14	O	1.322091	0.327027	0.260134
O15	O	1.655425	0.660360	0.593468
O16	O	0.860722	0.100917	-0.073185
O17	O	1.194056	0.434250	0.260149
O18	O	1.527389	0.767583	0.593482
O19	O	1.102821	0.089749	-0.073179
O20	O	1.436154	0.423082	0.260154
O21	O	1.769488	0.756415	0.593488
Zn22	Zn	0.981769	0.095334	-0.096435
Zn23	Zn	1.315103	0.428667	0.236898
Zn24	Zn	1.648436	0.762000	0.570232
Zn25	Zn	0.981789	0.095326	0.096529
Zn26	Zn	1.315122	0.428659	0.429862
Zn27	Zn	1.648456	0.761992	0.763195
O28	O	0.974785	0.196972	-0.073165
O29	O	1.308119	0.530305	0.260168
O30	O	1.641452	0.863639	0.593502
C31	C	0.829756	0.100461	0.000043
C32	C	1.163090	0.433794	0.333376
C33	C	1.496423	0.767128	0.666710
C34	C	0.737466	0.099105	0.000040
C35	C	1.070799	0.432438	0.333373
C36	C	1.404132	0.765771	0.666707
C37	C	0.525127	0.095971	-0.079786
C38	C	0.858460	0.429304	0.253548
C39	C	1.191794	0.762638	0.586881
C40	C	0.438411	0.094689	-0.079783
C41	C	0.771744	0.428022	0.253551
C42	C	1.105078	0.761356	0.586884
C43	C	0.438438	0.094686	0.079893
C44	C	0.771771	0.428019	0.413226
C45	C	1.105105	0.761353	0.746560
C46	C	0.525153	0.095963	0.079889
C47	C	0.858486	0.429296	0.413223
C48	C	1.191820	0.762630	0.746556
C49	C	0.568495	0.096609	0.000047
C50	C	0.901828	0.429943	0.333381
C51	C	1.235161	0.763276	0.666714
C52	C	0.395064	0.094050	0.000054
C53	C	0.728397	0.427383	0.333387
C54	C	1.061730	0.760717	0.666721
C55	C	0.301043	0.092660	0.000058
C56	C	0.634376	0.425993	0.333391
C57	C	0.967709	0.759327	0.666724
C58	C	0.662522	0.097998	0.000043
C59	C	0.995855	0.431331	0.333377
C60	C	1.329189	0.764665	0.666710
C61	C	0.988313	-0.032322	0.000027
C62	C	1.321646	0.301012	0.333360
C63	C	1.654980	0.634345	0.666694
C64	C	0.986955	-0.109830	0.000020
C65	C	1.320288	0.223504	0.333353
C66	C	1.653621	0.556837	0.666686
C67	C	1.062082	-0.154578	0.000017
C68	C	1.395415	0.178756	0.333350
C69	C	1.728749	0.512089	0.666684
C70	C	1.060806	-0.227404	0.000031
C71	C	1.394139	0.105929	0.333365
C72	C	1.727473	0.439262	0.666698
C73	C	0.984398	-0.255480	0.000030
C74	C	1.317732	0.077854	0.333363
C75	C	1.651065	0.411187	0.666697
C76	C	0.909261	-0.210722	0.000037
C77	C	1.242594	0.122612	0.333371
C78	C	1.575928	0.455945	0.666704
C79	C	0.910539	-0.137897	0.000032
C80	C	1.243873	0.195437	0.333366
C81	C	1.577206	0.528770	0.666699
N82	N	0.925989	-0.363619	-0.049814
N83	N	1.259322	-0.030286	0.283520
N84	N	1.592655	0.303047	0.616853
N85	N	0.924779	-0.432801	-0.049810
N86	N	1.258113	-0.099467	0.283523
N87	N	1.591446	0.233866	0.616856
C88	C	0.980542	-0.474897	0.000048
C89	C	1.313876	-0.141564	0.333381
C90	C	1.647209	0.191769	0.666714
N91	N	1.037573	-0.445201	0.049892
N92	N	1.370906	-0.111867	0.383225
N93	N	1.704239	0.221466	0.716558
N94	N	1.038784	-0.376013	0.049885
N95	N	1.372118	-0.042680	0.383218
N96	N	1.705451	0.290654	0.716551
C97	C	0.983004	-0.334446	0.000036
C98	C	1.316337	-0.001112	0.333370
C99	C	1.649670	0.332221	0.666703
C100	C	1.054291	-0.598613	0.000062
C101	C	1.387624	-0.265280	0.333395
C102	C	1.720958	0.068053	0.666728
C103	C	1.053012	-0.671441	0.000081
C104	C	1.386345	-0.338108	0.333415
C105	C	1.719679	-0.004774	0.666748
C106	C	0.901465	-0.654757	0.000079
C107	C	1.234798	-0.321423	0.333412
C108	C	1.568132	0.011910	0.666745
C109	C	0.902746	-0.581931	0.000068
C110	C	1.236080	-0.248597	0.333401
C111	C	1.569413	0.084736	0.666735
C112	C	0.979162	-0.553864	0.000055
C113	C	1.312495	-0.220530	0.333389
C114	C	1.645828	0.112803	0.666722
C115	C	1.133802	0.090198	0.000052
C116	C	1.467135	0.423531	0.333386
C117	C	1.800469	0.756865	0.666719
C118	C	1.226093	0.091555	0.000061
C119	C	1.559426	0.424888	0.333395
C120	C	1.892759	0.758221	0.666728
C121	C	0.975245	0.222981	0.000068
C122	C	1.308579	0.556314	0.333402
C123	C	1.641912	0.889648	0.666735
C124	C	0.976604	0.300489	0.000082
C125	C	1.309937	0.633822	0.333415
C126	C	1.643270	0.967155	0.666748
N127	N	0.981762	0.095339	-0.228128
N128	N	1.315095	0.428672	0.105206
N129	N	1.648429	0.762005	0.438539
C130	C	1.032045	0.137687	-0.453842
C131	C	1.365379	0.471021	-0.120509
C132	C	1.698712	0.804354	0.212825
C133	C	1.032054	0.137682	-0.546032
C134	C	1.365388	0.471016	-0.212698
C135	C	1.698721	0.804349	0.120635
C136	C	0.931518	0.052962	-0.546058
C137	C	1.264851	0.386295	-0.212725
C138	C	1.598184	0.719628	0.120608
C139	C	0.931514	0.052963	-0.453870
C140	C	1.264847	0.386297	-0.120537
C141	C	1.598180	0.719630	0.212796
C142	C	0.981776	0.095330	-0.407764
C143	C	1.315109	0.428664	-0.074431
C144	C	1.648443	0.761997	0.258902
C145	C	0.981789	0.095323	-0.592142
C146	C	1.315122	0.428657	-0.258809
C147	C	1.648456	0.761990	0.074525
C148	C	0.981798	0.095318	-0.692098
C149	C	1.315132	0.428651	-0.358765
C150	C	1.648465	0.761984	-0.025432
C151	C	0.981768	0.095335	-0.307802
C152	C	1.315101	0.428668	0.025531
C153	C	1.648434	0.762002	0.358865
N154	N	0.981803	0.095315	0.228221
N155	N	1.315136	0.428648	0.561555
N156	N	1.648470	0.761982	0.894888
H157	H	0.403138	0.094161	0.144897
H158	H	0.736472	0.427494	0.478231
H159	H	1.069805	0.760827	0.811564
H160	H	0.890595	0.018469	-0.583609
H161	H	1.223928	0.351802	-0.250275
H162	H	1.557262	0.685135	0.083058
F163	F	1.143410	-0.124711	0.000023
F164	F	1.476744	0.208622	0.333356
F165	F	1.810077	0.541956	0.666689
H166	H	0.560413	0.096497	-0.144798
H167	H	0.893746	0.429831	0.188535
H168	H	1.227080	0.763164	0.521869
H169	H	0.890577	0.018467	-0.416353
H170	H	1.223911	0.351801	-0.083020
H171	H	1.557244	0.685134	0.250314
H172	H	1.072990	0.172173	-0.583544
H173	H	1.406323	0.505506	-0.250210
H174	H	1.739656	0.838839	0.083123
F175	F	0.392260	0.094011	-0.164752
F176	F	0.725593	0.427344	0.168581
F177	F	1.058926	0.760677	0.501915
F178	F	0.571311	0.096638	0.164863
F179	F	0.904645	0.429971	0.498196
F180	F	1.237978	0.763304	0.831530
F181	F	0.820145	-0.684632	0.000082
F182	F	1.153479	-0.351298	0.333415
F183	F	1.486812	-0.017965	0.666749
F184	F	1.140770	-0.275038	0.000030
F185	F	1.474103	0.058296	0.333363
F186	F	1.807436	0.391629	0.666697
H187	H	0.847049	-0.233585	0.000038
H188	H	1.180383	0.099748	0.333372
H189	H	1.513716	0.433081	0.666705
F190	F	1.135618	-0.568740	0.000044
F191	F	1.468951	-0.235406	0.333377
F192	F	1.802284	0.097927	0.666711
F193	F	0.830575	-0.090270	0.000035
F194	F	1.163908	0.243063	0.333369
F195	F	1.497242	0.576396	0.666702
F196	F	1.085544	0.182774	-0.404776
F197	F	1.418877	0.516107	-0.071442
F198	F	1.752210	0.849440	0.261891
H199	H	1.114192	-0.707875	0.000084
H200	H	1.447526	-0.374542	0.333418
H201	H	1.780859	-0.041209	0.666751
H202	H	0.841569	-0.545495	0.000065
H203	H	1.174903	-0.212162	0.333398
H204	H	1.508236	0.121171	0.666732
