data_functionalizedCrystal
_audit_creation_method	'MofGen! by Chris Wilmer'
_symmetry_space_group_name_H-M	'P1'
_symmetry_Int_Tables_number	1
_symmetry_cell_setting	triclinic
loop_
_symmetry_equiv_pos_as_xyz
  x,y,z
_cell_length_a	16.176319
_cell_length_b	27.732064
_cell_length_c	17.699083
_cell_angle_alpha	82.966219
_cell_angle_beta	89.995661
_cell_angle_gamma	90.001664
loop_
_atom_site_label
_atom_site_type_symbol
_atom_site_fract_x
_atom_site_fract_y
_atom_site_fract_z
O1	O	-0.068601	0.641247	0.090116
O2	O	-0.068635	0.500504	0.103796
O3	O	-0.068610	0.574852	-0.013268
O4	O	-0.068626	0.566899	0.207180
O5	O	0.068883	0.574843	-0.013268
O6	O	0.068858	0.500495	0.103796
O7	O	0.068892	0.641238	0.090116
Cu8	Cu	0.081429	0.570866	0.096956
Cu9	Cu	-0.081172	0.570876	0.096956
O10	O	0.068867	0.566890	0.207180
C11	C	0.000107	0.482492	0.103507
C12	C	0.000094	0.428834	0.102636
N13	N	0.195795	0.570862	0.096955
C14	C	0.000147	0.051491	0.027531
C15	C	0.000125	0.253163	0.030735
O16	O	0.000161	0.284206	-0.027544
N17	N	0.000116	0.272540	0.100152
C18	C	0.000118	0.241496	0.168773
O19	O	0.000119	0.262605	0.227889
C20	C	0.000146	0.039825	0.165568
C21	C	0.000147	0.020451	0.096147
C22	C	0.000149	0.032117	-0.041884
C23	C	0.000149	-0.018298	-0.042685
C24	C	0.000149	-0.049339	0.025931
C25	C	0.000148	-0.029964	0.095346
C26	C	0.000154	0.008782	0.234188
C27	C	0.000163	-0.041639	0.233381
C28	C	0.000164	-0.061013	0.163959
C29	C	0.000148	-0.111419	0.163162
N30	N	0.000157	-0.130796	0.093745
C31	C	0.000157	-0.099756	0.025129
C32	C	0.000102	0.347376	0.170450
C33	C	0.000094	0.397794	0.171252
C34	C	0.000102	0.409458	0.033214
C35	C	0.000105	0.359039	0.032413
C36	C	0.000111	0.327999	0.101034
C37	C	0.000159	-0.205632	0.023454
C38	C	0.000156	-0.256052	0.022660
C39	C	0.000152	-0.267711	0.160697
C40	C	0.000150	-0.217295	0.161492
C41	C	0.000156	-0.186256	0.092864
O42	O	0.000122	-0.142491	0.221410
O43	O	0.000175	-0.120874	-0.033979
C44	C	0.000146	0.101906	0.028332
C45	C	0.000145	0.121281	0.097747
C46	C	0.000144	0.090241	0.166363
C47	C	0.000136	0.171698	0.098549
C48	C	0.000137	0.202739	0.029933
C49	C	0.000146	0.183362	-0.039484
C50	C	0.000147	0.132947	-0.040284
C51	C	0.000135	0.109618	0.235779
C52	C	0.000134	0.160033	0.236574
C53	C	0.000134	0.191074	0.167959
N54	N	-0.195537	0.570884	0.096951
C55	C	0.239059	0.600122	0.142548
C56	C	0.325606	0.600127	0.142545
C57	C	0.368887	0.570870	0.096953
C58	C	0.325617	0.541609	0.051354
C59	C	0.239071	0.541607	0.051353
C60	C	0.674645	0.541618	0.051355
C61	C	0.761197	0.541622	0.051361
C62	C	0.761180	0.600138	0.142547
C63	C	0.674635	0.600136	0.142546
C64	C	0.631372	0.570877	0.096945
C65	C	0.537527	0.570873	0.096948
C66	C	0.462730	0.570871	0.096954
C67	C	0.000137	0.574563	-0.041463
C68	C	0.000137	0.573708	-0.125473
C69	C	0.000148	0.659251	0.090405
C70	C	0.000156	0.712908	0.091275
C71	C	0.000149	0.617348	-0.174475
C72	C	0.000141	0.616542	-0.253411
C73	C	0.000128	0.572095	-0.283344
C74	C	0.000114	0.528451	-0.234336
C75	C	0.000115	0.529258	-0.155402
C76	C	0.000106	0.525197	-0.552671
C77	C	0.000107	0.524394	-0.631612
C78	C	0.000132	0.612481	-0.650681
C79	C	0.000134	0.613288	-0.571746
C80	C	0.000115	0.569644	-0.522745
C81	C	0.000122	0.570519	-0.437153
C82	C	0.000127	0.571220	-0.368934
C83	C	0.000119	0.567180	0.235374
C84	C	0.000113	0.568035	0.319385
H85	H	0.000163	-0.180365	-0.032429
O86	O	0.000143	0.180928	0.311454
H87	H	0.000155	0.150869	0.359028
H88	H	0.000098	0.492261	-0.258714
O89	O	0.372268	0.631683	0.191727
H90	H	0.411693	0.657711	0.155166
H91	H	0.000153	-0.034068	-0.099215
O92	O	0.000164	0.665290	-0.142197
H93	H	0.000171	0.658522	-0.079076
H94	H	0.796434	0.517796	0.014231
H95	H	0.000172	-0.066909	0.289261
H96	H	0.000149	0.649482	-0.547379
H97	H	0.000154	-0.271823	-0.033874
O98	O	0.000119	0.338143	-0.042461
H99	H	0.000125	0.368202	-0.090034
O100	O	0.627950	0.631690	0.191722
H101	H	0.672576	0.652041	0.223422
O102	O	0.000090	0.478124	-0.499830
H103	H	0.000082	0.486148	-0.439911
O104	O	0.807840	0.631707	0.191720
H105	H	0.875292	0.626801	0.184055
H106	H	0.000153	0.652079	-0.293306
H107	H	0.203826	0.623943	0.179680
O108	O	0.627987	0.510057	0.002182
H109	H	0.672625	0.489709	-0.029511
H110	H	0.360863	0.517790	0.014228
O111	O	0.000094	0.476451	-0.663899
H112	H	-0.055941	0.473986	-0.699411
H113	H	0.203846	0.517781	0.014227
O114	O	0.000103	0.313899	0.244466
H115	H	0.000088	0.335849	0.292864
O116	O	0.000114	0.482187	-0.102547
H117	H	-0.055927	0.460913	-0.113124
O118	O	0.000148	0.065593	-0.115897
H119	H	0.000146	0.043642	-0.164293
O120	O	0.000115	0.442941	-0.040796
H121	H	0.000118	0.481253	-0.028569
H122	H	0.000143	0.648018	-0.690587
H123	H	0.000082	0.413563	0.227781
O124	O	0.000174	0.029671	0.309064
H125	H	0.000192	-0.000390	0.356634
O126	O	0.000149	0.216849	-0.113490
H127	H	0.000149	0.194911	-0.161901
O128	O	0.000148	-0.196398	0.236368
H129	H	-0.055891	-0.173708	0.240044
H130	H	0.000147	0.117177	-0.096814
O131	O	0.000165	-0.301194	0.234703
H132	H	0.000180	-0.339506	0.222477
H133	H	0.000136	0.084349	0.291656
