data_functionalizedCrystal
_audit_creation_method	'MofGen! by Chris Wilmer'
_symmetry_space_group_name_H-M	'P1'
_symmetry_Int_Tables_number	1
_symmetry_cell_setting	triclinic
loop_
_symmetry_equiv_pos_as_xyz
  x,y,z
_cell_length_a	14.519731
_cell_length_b	11.026607
_cell_length_c	10.065875
_cell_angle_alpha	100.731764
_cell_angle_beta	81.235695
_cell_angle_gamma	96.137435
loop_
_atom_site_label
_atom_site_type_symbol
_atom_site_fract_x
_atom_site_fract_y
_atom_site_fract_z
O1	O	1.260631	0.141444	-0.113493
O2	O	1.760631	0.641444	0.386507
O3	O	0.995240	0.160157	-0.113495
O4	O	1.495240	0.660157	0.386505
O5	O	1.105939	-0.025902	-0.113489
O6	O	1.605939	0.474098	0.386511
O7	O	1.149931	0.327503	-0.113499
O8	O	1.649931	0.827503	0.386501
O9	O	1.084854	0.009720	0.113499
O10	O	1.584854	0.509720	0.613499
O11	O	0.974154	0.195778	0.113493
O12	O	1.474154	0.695778	0.613493
O13	O	1.239545	0.177065	0.113495
O14	O	1.739545	0.677065	0.613495
Zn15	Zn	1.103502	0.192077	0.149533
Zn16	Zn	1.603502	0.692077	0.649533
Zn17	Zn	1.131283	0.145145	-0.149533
Zn18	Zn	1.631283	0.645145	0.350467
O19	O	1.128846	0.363124	0.113489
O20	O	1.628846	0.863124	0.613489
C21	C	1.087281	-0.053321	0.000003
C22	C	1.587281	0.446679	0.500003
C23	C	1.063089	-0.188090	-0.000002
C24	C	1.563089	0.311910	0.499998
C25	C	0.950193	0.177091	-0.000001
C26	C	1.450193	0.677091	0.499999
C27	C	0.847380	0.174463	-0.000002
C28	C	1.347380	0.674463	0.499998
C29	C	1.129889	-0.261745	-0.000003
C30	C	1.629889	0.238255	0.499997
C31	C	1.104887	-0.401037	-0.000008
C32	C	1.604887	0.098963	0.499992
C33	C	0.763885	0.172327	-0.000007
C34	C	1.263885	0.672327	0.499993
C35	C	0.659136	0.169659	-0.000007
C36	C	1.159136	0.669659	0.499993
C37	C	0.575649	0.167542	-0.000007
C38	C	1.075649	0.667542	0.499993
C39	C	0.470894	0.164874	-0.000010
C40	C	0.970894	0.664874	0.499990
C41	C	1.284592	0.160131	-0.000002
C42	C	1.784592	0.660131	0.499998
C43	C	1.387406	0.162757	-0.000010
C44	C	1.887406	0.662757	0.499990
C45	C	1.147504	0.390542	-0.000006
C46	C	1.647504	0.890542	0.499994
C47	C	1.171697	0.525311	-0.000010
C48	C	1.671697	1.025311	0.499990
N49	N	1.084549	0.224107	0.353638
N50	N	1.584549	0.724107	0.853638
N51	N	1.150242	0.113105	-0.353638
N52	N	1.650242	0.613105	0.146362
C53	C	1.124681	0.156281	0.421419
C54	C	1.624681	0.656281	0.921419
C55	C	1.110103	0.180941	0.578585
C56	C	1.610103	0.680941	1.078585
H57	H	1.205588	-0.221680	0.000006
H58	H	1.705588	0.278320	0.500006
H59	H	1.039394	0.300428	0.411962
H60	H	1.539394	0.800428	0.911962
O61	O	1.210050	0.011991	0.569121
O62	O	1.710050	0.511991	1.069121
H63	H	1.237223	-0.033947	0.642682
H64	H	1.737223	0.466053	1.142682
H65	H	1.247412	-0.434649	-0.000112
H66	H	1.747412	0.065351	0.499888
O67	O	1.050300	0.282067	0.655809
O68	O	1.550300	0.782067	1.155809
H69	H	0.990874	0.241191	0.720939
H70	H	1.490874	0.741191	1.220939
O71	O	1.184461	0.055149	0.344159
O72	O	1.684461	0.555149	0.844159
H73	H	1.243890	0.096018	0.279026
H74	H	1.743890	0.596018	0.779026
O75	O	0.962810	-0.241138	0.000006
O76	O	1.462810	0.258862	0.500006
H77	H	0.958908	-0.342217	0.000016
H78	H	1.458908	0.157783	0.500016
O79	O	1.004603	-0.454078	-0.000000
O80	O	1.504603	0.045922	0.500000
H81	H	1.000701	-0.555157	0.000009
H82	H	1.500701	-0.055157	0.500009
