data_functionalizedCrystal
_audit_creation_method	'MofGen! by Chris Wilmer'
_symmetry_space_group_name_H-M	'P1'
_symmetry_Int_Tables_number	1
_symmetry_cell_setting	triclinic
loop_
_symmetry_equiv_pos_as_xyz
  x,y,z
_cell_length_a	15.186229
_cell_length_b	16.109317
_cell_length_c	10.654552
_cell_angle_alpha	83.976940
_cell_angle_beta	90.000132
_cell_angle_gamma	89.998938
loop_
_atom_site_label
_atom_site_type_symbol
_atom_site_fract_x
_atom_site_fract_y
_atom_site_fract_z
O1	O	-0.073128	-1.104083	-0.161517
O2	O	-0.073150	-0.862143	-0.181584
O3	O	-0.073140	-0.988675	0.011264
O4	O	-0.073138	-0.977551	-0.354364
O5	O	0.073317	-0.988666	0.011266
O6	O	0.073308	-0.862134	-0.181582
O7	O	0.073329	-1.104074	-0.161515
Zn8	Zn	0.096572	-0.983103	-0.171548
Zn9	Zn	-0.096392	-0.983114	-0.171551
O10	O	0.073320	-0.977542	-0.354363
C11	C	0.000076	-0.831159	-0.180766
C12	C	0.000068	-0.738849	-0.178318
N13	N	0.228264	-0.983100	-0.171546
C14	C	-0.079756	-0.439733	-0.170413
C15	C	-0.079760	-0.526468	-0.172705
C16	C	0.079916	-0.526477	-0.172686
C17	C	0.079919	-0.439745	-0.170385
C18	C	0.000080	-0.396374	-0.169256
C19	C	0.000073	-0.569842	-0.173848
C20	C	0.000070	-0.663884	-0.176333
C21	C	0.000083	-0.302327	-0.166768
C22	C	0.453992	-1.039148	-0.086183
C23	C	0.546181	-1.039150	-0.086181
C24	C	0.546182	-0.927067	-0.256916
C25	C	0.453994	-0.927061	-0.256911
C26	C	0.407901	-0.983106	-0.171546
C27	C	0.592279	-0.983114	-0.171549
C28	C	0.692235	-0.983116	-0.171547
C29	C	0.307939	-0.983103	-0.171546
N30	N	0.771915	-0.983120	-0.171549
C31	C	0.000086	-0.987853	0.058052
C32	C	0.000079	-0.985409	0.197462
C33	C	0.000097	-0.135058	-0.162334
C34	C	0.000086	-0.227367	-0.164785
C35	C	-0.079754	-0.984267	0.262957
C36	C	-0.079751	-0.981963	0.393947
C37	C	0.079925	-0.981946	0.393934
C38	C	0.079921	-0.984244	0.262946
C39	C	-0.159596	-0.985431	0.197473
C40	C	-0.239435	-0.984290	0.262969
C41	C	-0.239432	-0.981986	0.393958
C42	C	-0.159590	-0.980823	0.459452
C43	C	0.000090	-0.978363	0.598850
C44	C	0.000086	-0.980806	0.459439
H45	H	-0.144766	-0.404424	-0.169492
F46	F	-0.159605	-0.987887	0.058064
F47	F	-0.164733	-0.572611	-0.173933
F48	F	0.164893	-0.980709	0.463641
H49	H	0.416464	-0.881421	-0.326425
H50	H	0.583706	-1.084783	-0.016669
H51	H	-0.159594	-0.978935	0.566110
H52	H	0.144918	-0.561800	-0.173608
H53	H	0.144935	-0.404441	-0.169441
F54	F	0.404940	-1.098794	0.004673
F55	F	-0.324404	-0.985526	0.193264
H56	H	0.583720	-0.881437	-0.326420
H57	H	-0.304441	-0.981049	0.447280
F58	F	0.164888	-0.985463	0.193238
