data_functionalizedCrystal
_audit_creation_method	'MofGen! by Chris Wilmer'
_symmetry_space_group_name_H-M	'P1'
_symmetry_Int_Tables_number	1
_symmetry_cell_setting	triclinic
loop_
_symmetry_equiv_pos_as_xyz
  x,y,z
_cell_length_a	9.065215
_cell_length_b	19.188928
_cell_length_c	7.540329
_cell_angle_alpha	90.010977
_cell_angle_beta	89.997574
_cell_angle_gamma	95.920745
loop_
_atom_site_label
_atom_site_type_symbol
_atom_site_fract_x
_atom_site_fract_y
_atom_site_fract_z
O1	O	1.956848	-0.102360	-0.147496
O2	O	1.527271	-0.110759	-0.147506
O3	O	1.754458	-0.005000	-0.147456
O4	O	1.729661	-0.208119	-0.147546
O5	O	1.754444	-0.004999	0.147509
O6	O	1.527257	-0.110758	0.147459
O7	O	1.956834	-0.102359	0.147469
Cu8	Cu	1.742045	-0.106558	0.174397
Cu9	Cu	1.742061	-0.106560	-0.174434
O10	O	1.729647	-0.208118	0.147419
C11	C	1.472306	-0.109952	-0.000025
C12	C	1.308546	-0.107539	-0.000027
C13	C	1.753649	0.021018	0.000034
C14	C	1.751240	0.098541	0.000057
C15	C	1.884545	0.142430	0.000073
C16	C	1.882282	0.215272	0.000052
C17	C	1.746706	0.244221	0.000051
C18	C	1.613383	0.200322	0.000025
C19	C	1.615650	0.127482	0.000028
N20	N	1.643072	0.353031	0.100442
N21	N	1.640927	0.422227	0.100442
C22	C	1.739868	0.463683	0.000037
N23	N	1.841057	0.433331	-0.100347
N24	N	1.843206	0.364130	-0.100339
C25	C	1.744233	0.323203	0.000046
C26	C	1.870729	0.586555	0.000028
C27	C	1.868461	0.659398	-0.000005
C28	C	1.599558	0.644447	-0.000014
C29	C	1.601830	0.571606	0.000000
C30	C	1.737420	0.542665	0.000029
C31	C	2.011800	-0.103166	-0.000016
C32	C	2.175559	-0.105578	-0.000026
N33	N	1.742044	-0.106556	0.419745
C34	C	1.730461	0.765865	-0.000050
C35	C	1.732883	0.688342	-0.000009
N36	N	1.742073	-0.106556	-0.419782
H37	H	1.994953	0.118871	0.000091
Cl38	Cl	2.049879	0.270457	0.000071
H39	H	1.502996	0.223897	0.000020
Cl40	Cl	1.429117	0.680833	-0.000026
Cl41	Cl	1.448052	0.072304	0.000009
H42	H	1.981135	0.562990	0.000043
H43	H	1.977019	0.695132	-0.000001
Cl44	Cl	1.434236	0.516428	-0.000012
