data_functionalizedCrystal
_audit_creation_method	'MofGen! by Chris Wilmer'
_symmetry_space_group_name_H-M	'P1'
_symmetry_Int_Tables_number	1
_symmetry_cell_setting	triclinic
loop_
_symmetry_equiv_pos_as_xyz
  x,y,z
_cell_length_a	27.732048
_cell_length_b	23.532407
_cell_length_c	22.010155
_cell_angle_alpha	90.011379
_cell_angle_beta	90.002908
_cell_angle_gamma	97.254300
loop_
_atom_site_label
_atom_site_type_symbol
_atom_site_fract_x
_atom_site_fract_y
_atom_site_fract_z
O1	O	-0.641035	0.067758	-0.050439
O2	O	-0.500257	0.078062	-0.050456
O3	O	-0.574891	-0.010031	-0.050453
O4	O	-0.566401	0.155850	-0.050441
O5	O	-0.574878	-0.010017	0.050597
O6	O	-0.500244	0.078075	0.050595
O7	O	-0.641021	0.067772	0.050612
Cu8	Cu	-0.570631	0.072925	0.059830
Cu9	Cu	-0.570647	0.072908	-0.059674
O10	O	-0.566387	0.155864	0.050609
C11	C	-0.482243	0.077852	0.000067
C12	C	-0.428587	0.077201	0.000060
C13	C	-0.574668	-0.031240	0.000069
C14	C	-0.574018	-0.094455	0.000060
C15	C	-0.659035	0.067981	0.000088
C16	C	-0.712691	0.068632	0.000091
C17	C	-0.089846	0.125158	0.000090
C18	C	0.111817	0.122741	0.000095
O19	O	0.143005	0.166594	0.000125
N20	N	0.131021	0.070506	0.000090
C21	C	0.099806	0.018871	0.000088
O22	O	0.120768	-0.025614	0.000091
C23	C	-0.101856	0.021288	0.000087
C24	C	-0.121057	0.073527	0.000086
C25	C	-0.109048	0.177392	0.000089
C26	C	-0.159461	0.177996	0.000085
C27	C	-0.190672	0.126365	0.000081
C28	C	-0.171470	0.074130	0.000081
C29	C	-0.133070	-0.030346	0.000090
C30	C	-0.183489	-0.029737	0.000091
C31	C	-0.202690	0.022501	0.000090
C32	C	-0.253094	0.023103	0.000073
N33	N	-0.272298	0.075338	0.000078
C34	C	-0.241087	0.126969	0.000082
C35	C	0.205682	0.017606	0.000088
C36	C	0.256097	0.017001	0.000087
C37	C	0.268105	0.120872	0.000095
C38	C	0.217689	0.121476	0.000091
C39	C	0.186478	0.069841	0.000092
C40	C	-0.346958	0.128233	0.000071
C41	C	-0.397376	0.128832	0.000064
C42	C	-0.409379	0.024962	0.000059
C43	C	-0.358966	0.024362	0.000063
C44	C	-0.327756	0.076003	0.000071
O45	O	-0.284311	-0.020727	0.000050
O46	O	-0.262058	0.171448	0.000093
C47	C	-0.039433	0.124554	0.000095
C48	C	-0.020232	0.072320	0.000095
C49	C	-0.051443	0.020689	0.000091
C50	C	0.030184	0.071715	0.000094
C51	C	0.061395	0.123346	0.000098
C52	C	0.042191	0.175581	0.000103
C53	C	-0.008222	0.176185	0.000099
C54	C	-0.032239	-0.031547	0.000087
C55	C	0.018175	-0.032146	0.000090
C56	C	0.049386	0.019485	0.000094
C57	C	-0.566611	0.177073	0.000086
C58	C	-0.567261	0.240289	0.000091
C59	C	-0.614108	0.506356	0.000072
C60	C	-0.613504	0.446957	0.000074
O61	O	-0.650668	0.410133	0.000058
N62	N	-0.569134	0.424426	0.000074
C63	C	-0.525365	0.461297	0.000065
O64	O	-0.487570	0.436678	0.000065
C65	C	-0.525970	0.520694	0.000059
C66	C	-0.570343	0.543222	0.000066
C67	C	-0.658477	0.528884	0.000078
C68	C	-0.659081	0.588279	0.000078
C69	C	-0.615315	0.625146	0.000071
C70	C	-0.570946	0.602617	0.000065
C71	C	-0.482201	0.557564	0.000047
C72	C	-0.482810	0.616965	0.000040
C73	C	-0.527182	0.639493	0.000047
C74	C	-0.527784	0.698878	0.000059
N75	N	-0.572154	0.721410	0.000059
C76	C	-0.615920	0.684543	0.000065
C77	C	-0.524100	0.336557	0.000077
C78	C	-0.523495	0.277160	0.000087
C79	C	-0.611634	0.262825	0.000095
C80	C	-0.612238	0.322222	0.000089
C81	C	-0.568470	0.359088	0.000077
C82	C	-0.617184	0.809278	0.000065
C83	C	-0.617784	0.868678	0.000067
C84	C	-0.529645	0.883009	0.000056
C85	C	-0.529045	0.823613	0.000057
C86	C	-0.572818	0.786748	0.000060
O87	O	-0.490640	0.735737	0.000072
O88	O	-0.653709	0.709171	0.000058
N89	N	-0.570624	0.072936	0.143882
C90	C	-0.603697	0.033911	0.563663
C91	C	-0.603699	0.033907	0.627271
O92	O	-0.631800	0.000732	0.660163
N93	N	-0.570647	0.072901	0.659090
C94	C	-0.537587	0.111898	0.627298
O95	O	-0.509473	0.145065	0.660203
C96	C	-0.537583	0.111898	0.563691
C97	C	-0.570640	0.072905	0.531876
C98	C	-0.636751	-0.005079	0.531847
C99	C	-0.636750	-0.005075	0.468244
C100	C	-0.603693	0.033919	0.436457
C101	C	-0.570639	0.072910	0.468272
C102	C	-0.504521	0.150891	0.531900
C103	C	-0.504519	0.150888	0.468290
C104	C	-0.537577	0.111895	0.436474
C105	C	-0.537580	0.111908	0.372882
N106	N	-0.570633	0.072914	0.341063
C107	C	-0.603689	0.033920	0.372850
C108	C	-0.537597	0.111893	0.760875
C109	C	-0.537603	0.111896	0.824481
C110	C	-0.603715	0.033905	0.824449
C111	C	-0.603711	0.033905	0.760843
C112	C	-0.570650	0.072899	0.729056
C113	C	-0.603683	0.033932	0.239279
C114	C	-0.603680	0.033941	0.175670
C115	C	-0.537567	0.111931	0.175707
C116	C	-0.537571	0.111924	0.239310
C117	C	-0.570632	0.072919	0.271095
O118	O	-0.509493	0.145065	0.339949
O119	O	-0.631794	0.000753	0.339937
N120	N	-0.570658	0.072900	0.856274
H121	H	-0.321553	0.170283	0.000080
H122	H	-0.695214	0.606616	0.000081
C123	C	-0.640075	-0.008994	0.859424
C124	C	-0.676436	-0.051891	0.824437
C125	C	-0.712793	-0.094787	0.859414
C126	C	-0.712790	-0.094785	0.929379
C127	C	-0.676428	-0.051887	0.964370
C128	C	-0.640070	-0.008991	0.929393
H129	H	-0.676439	-0.051894	0.772642
H130	H	-0.739711	-0.126544	0.833511
H131	H	-0.739704	-0.126539	0.955271
H132	H	-0.676424	-0.051884	1.016166
H133	H	-0.613153	0.022766	0.955296
C134	C	-0.468154	0.193780	0.566889
C135	C	-0.413118	0.193260	0.558141
C136	C	-0.376748	0.236150	0.593130
C137	C	-0.395413	0.279561	0.636865
C138	C	-0.450451	0.280084	0.645615
C139	C	-0.486821	0.237193	0.610626
H140	H	-0.399299	0.161123	0.525764
H141	H	-0.336005	0.235763	0.586653
H142	H	-0.368489	0.311311	0.662766
H143	H	-0.464270	0.312221	0.677992
H144	H	-0.527564	0.237580	0.617103
H145	H	-0.413007	0.171373	0.000063
H146	H	0.202059	0.164013	0.000094
H147	H	-0.175089	0.220534	0.000083
H148	H	-0.510690	0.143654	0.850381
H149	H	0.271726	-0.025537	0.000078
H150	H	-0.663670	-0.036836	0.557723
H151	H	-0.510654	0.143681	0.149816
C152	C	-0.673109	-0.047973	0.433250
C153	C	-0.672607	-0.112821	0.441988
C154	C	-0.708966	-0.155723	0.406998
C155	C	-0.745827	-0.133777	0.363270
C156	C	-0.746330	-0.068927	0.354530
C157	C	-0.709971	-0.026025	0.389520
H158	H	-0.645319	-0.129069	0.474359
H159	H	-0.708593	-0.203730	0.413468
H160	H	-0.772742	-0.165536	0.337368
H161	H	-0.773618	-0.052679	0.322159
H162	H	-0.710344	0.021982	0.383050
C163	C	0.171355	-0.039198	0.000082
C164	C	0.173342	-0.082123	0.052547
C165	C	0.139018	-0.138927	0.052537
C166	C	0.102706	-0.152806	0.000062
C167	C	0.100717	-0.109880	-0.052407
C168	C	0.135042	-0.053076	-0.052397
H169	H	0.200224	-0.071849	0.091396
H170	H	0.140491	-0.170703	0.091378
H171	H	0.077297	-0.194856	0.000054
H172	H	0.073836	-0.120154	-0.091256
H173	H	0.133569	-0.021300	-0.091239
H174	H	-0.630629	0.002154	0.734942
C175	C	-0.475950	0.377107	0.000076
C176	C	-0.439514	0.374834	-0.052396
C177	C	-0.391365	0.415381	-0.052398
C178	C	-0.379652	0.458199	0.000072
C179	C	-0.416088	0.460473	0.052547
C180	C	-0.464237	0.419927	0.052549
H181	H	-0.448185	0.343136	-0.091241
H182	H	-0.364393	0.413697	-0.091244
H183	H	-0.344009	0.488214	0.000070
H184	H	-0.407418	0.492172	0.091392
H185	H	-0.491210	0.421611	0.091395
H186	H	-0.510658	0.143681	0.265215
C187	C	-0.706625	0.488338	0.000088
C188	C	-0.743051	0.490618	0.052569
C189	C	-0.791203	0.450076	0.052585
C190	C	-0.802928	0.407254	0.000121
C191	C	-0.766500	0.404972	-0.052364
C192	C	-0.718349	0.445514	-0.052380
H193	H	-0.734373	0.522319	0.091410
H194	H	-0.818169	0.451766	0.091437
H195	H	-0.838573	0.377243	0.000132
H196	H	-0.775179	0.373271	-0.091204
H197	H	-0.691383	0.443825	-0.091232
H198	H	-0.446069	0.539233	0.000038
H199	H	-0.083640	0.219439	0.000095
H200	H	0.293526	0.162912	0.000098
H201	H	-0.117446	-0.072884	0.000091
H202	H	-0.447167	0.646979	0.000030
C203	C	-0.217820	-0.086538	0.000090
C204	C	-0.215839	-0.129456	0.052562
C205	C	-0.250170	-0.186256	0.052559
C206	C	-0.286482	-0.200136	0.000084
C207	C	-0.288464	-0.157216	-0.052392
C208	C	-0.254134	-0.100417	-0.052389
H209	H	-0.188958	-0.119182	0.091410
H210	H	-0.248702	-0.218028	0.091406
H211	H	-0.311895	-0.242182	0.000082
H212	H	-0.315346	-0.167490	-0.091240
H213	H	-0.255602	-0.068645	-0.091235
H214	H	-0.477595	0.182641	0.442412
C215	C	-0.029338	0.233650	0.000103
C216	C	-0.017443	0.276415	0.052581
C217	C	-0.038554	0.333883	0.052587
C218	C	-0.071560	0.348586	0.000115
C219	C	-0.083456	0.305820	-0.052367
C220	C	-0.062345	0.248352	-0.052373
H221	H	0.006991	0.265532	0.091427
H222	H	-0.029747	0.365541	0.091438
H223	H	-0.087187	0.391128	0.000119
H224	H	-0.107890	0.316703	-0.091213
H225	H	-0.071152	0.216694	-0.091224
H226	H	-0.510676	0.143652	0.734998
C227	C	-0.665334	0.768732	0.000072
C228	C	-0.701761	0.771005	0.052553
C229	C	-0.749911	0.730460	0.052565
C230	C	-0.761633	0.687641	0.000097
C231	C	-0.725205	0.685367	-0.052388
C232	C	-0.677056	0.725912	-0.052400
H233	H	-0.693085	0.802703	0.091397
H234	H	-0.776878	0.732144	0.091418
H235	H	-0.797277	0.657627	0.000106
H236	H	-0.733882	0.653669	-0.091231
H237	H	-0.650089	0.724228	-0.091253
H238	H	-0.343332	-0.018175	0.000055
H239	H	-0.648370	0.340560	0.000094
C240	C	-0.480238	0.798824	0.000053
C241	C	-0.443954	0.812910	0.052520
C242	C	-0.395147	0.788124	0.052508
C243	C	-0.382623	0.749253	0.000029
C244	C	-0.418907	0.735165	-0.052441
C245	C	-0.467715	0.759951	-0.052429
H246	H	-0.453225	0.841687	0.091371
H247	H	-0.368287	0.798553	0.091350
H248	H	-0.346493	0.730905	0.000021
H249	H	-0.409637	0.706389	-0.091292
H250	H	-0.494574	0.749522	-0.091272
H251	H	-0.434801	-0.017075	0.000054
H252	H	0.067612	0.217621	0.000104
H253	H	0.033803	-0.074688	0.000087
H254	H	-0.057647	-0.073592	0.000085
H255	H	-0.653919	0.887017	0.000074
H256	H	-0.647270	0.232797	0.000098
H257	H	-0.487362	0.258824	0.000093
H258	H	-0.494012	0.913036	0.000053
H259	H	-0.630601	0.002189	0.149768
H260	H	-0.630603	0.002171	0.265150
