data_functionalizedCrystal
_audit_creation_method	'MofGen! by Chris Wilmer'
_symmetry_space_group_name_H-M	'P1'
_symmetry_Int_Tables_number	1
_symmetry_cell_setting	triclinic
loop_
_symmetry_equiv_pos_as_xyz
  x,y,z
_cell_length_a	12.837943
_cell_length_b	14.519709
_cell_length_c	11.892295
_cell_angle_alpha	86.088831
_cell_angle_beta	85.697121
_cell_angle_gamma	90.745457
loop_
_atom_site_label
_atom_site_type_symbol
_atom_site_fract_x
_atom_site_fract_y
_atom_site_fract_z
O1	O	1.369280	-0.245097	0.094026
O2	O	1.067452	-0.233252	0.094030
O3	O	1.226371	-0.105626	0.093996
O4	O	1.210361	-0.372723	0.094060
O5	O	1.239590	-0.095000	-0.094008
O6	O	1.080672	-0.222626	-0.093974
O7	O	1.382499	-0.234471	-0.093979
Zn8	Zn	1.233684	-0.226862	-0.123827
Zn9	Zn	1.216267	-0.240862	0.123878
O10	O	1.223581	-0.362098	-0.093945
C11	C	1.035434	-0.223938	0.000028
C12	C	0.920335	-0.212004	0.000028
C13	C	1.232235	-0.065888	-0.000012
C14	C	1.230001	0.036687	-0.000029
C15	C	0.679641	-0.355475	0.000046
C16	C	0.571494	-0.344266	0.000045
C17	C	0.595894	-0.178377	0.000018
C18	C	0.704040	-0.189586	0.000019
C19	C	0.745909	-0.278138	0.000034
C20	C	0.854058	-0.289347	0.000043
C21	C	0.878455	-0.123458	0.000008
C22	C	0.770308	-0.112249	0.000007
C23	C	1.221775	0.412296	-0.000059
C24	C	1.224059	0.307790	-0.000051
C25	C	1.225888	0.224495	-0.000045
C26	C	1.228173	0.119982	-0.000035
C27	C	1.414518	-0.243786	0.000026
C28	C	1.529616	-0.255720	0.000033
N29	N	1.245579	-0.217307	-0.292878
C30	C	1.217719	0.598167	0.000025
C31	C	1.219961	0.495598	-0.000070
C32	C	1.121494	-0.316931	-0.529551
C33	C	1.129833	-0.310246	-0.647891
C34	C	1.270598	-0.197257	-0.647901
C35	C	1.262260	-0.203942	-0.529561
C36	C	1.187704	-0.263780	-0.470390
C37	C	1.179362	-0.270460	-0.352047
C38	C	1.320131	-0.157476	-0.352060
C39	C	1.328470	-0.150791	-0.470400
N40	N	1.204381	-0.250410	0.292930
H41	H	0.713731	-0.427578	0.000061
C42	C	1.098578	-0.335496	-0.287656
C43	C	1.149122	-0.400661	-0.219670
C44	C	1.074738	-0.460583	-0.160330
H45	H	1.060304	-0.366289	-0.339714
H46	H	1.052114	-0.301142	-0.241443
H47	H	1.195567	-0.435012	-0.265880
H48	H	1.187390	-0.369895	-0.167592
H49	H	1.028274	-0.426229	-0.114117
H50	H	1.036469	-0.491370	-0.212396
H51	H	1.109020	-0.504800	-0.114187
C52	C	1.391720	-0.099452	-0.287849
C53	C	1.331402	-0.041953	-0.220119
C54	C	1.397248	0.011622	-0.161017
H55	H	1.437200	-0.062773	-0.340048
H56	H	1.431813	-0.138796	-0.241481
H57	H	1.291326	-0.002613	-0.266483
H58	H	1.285924	-0.078607	-0.167900
H59	H	1.437342	-0.027722	-0.114649
H60	H	1.442725	0.048295	-0.213224
H61	H	1.356332	0.050635	-0.115048
H62	H	1.389174	-0.102074	-0.518591
H63	H	0.517542	-0.407242	0.000052
C64	C	0.899323	-0.385558	0.000000
C65	C	0.818137	-0.450884	-0.000023
C66	C	0.859793	-0.539524	-0.000082
H67	H	0.936379	-0.397221	0.065544
H68	H	0.945587	-0.389714	-0.065587
H69	H	0.771891	-0.446731	0.065557
H70	H	0.781075	-0.439252	-0.065562
H71	H	0.906057	-0.543680	-0.065669
H72	H	0.896848	-0.551177	0.065464
H73	H	0.804717	-0.583857	-0.000108
C74	C	1.057812	-0.367991	-0.711920
C75	C	0.990721	-0.421805	-0.634766
C76	C	0.924349	-0.475004	-0.693707
H77	H	1.098305	-0.407153	-0.758074
H78	H	1.017788	-0.328406	-0.758074
H79	H	1.030740	-0.461386	-0.588631
H80	H	0.950205	-0.382666	-0.588610
H81	H	0.884326	-0.435419	-0.739862
H82	H	0.964851	-0.514160	-0.739859
H83	H	0.878814	-0.511516	-0.641368
C84	C	0.725049	-0.016032	-0.000059
C85	C	0.806237	0.049299	-0.000091
C86	C	0.764588	0.137945	-0.000162
H87	H	0.678773	-0.011794	0.065484
H88	H	0.688011	-0.004449	-0.065648
H89	H	0.843258	0.037719	0.065490
H90	H	0.852520	0.045090	-0.065629
H91	H	0.727550	0.149528	-0.065750
H92	H	0.718312	0.142173	0.065382
H93	H	0.819668	0.182283	-0.000194
C94	C	1.040704	-0.381957	-0.465154
C95	C	1.091239	-0.447128	-0.397166
C96	C	1.016847	-0.507038	-0.337818
H97	H	1.002422	-0.412748	-0.517207
H98	H	0.994250	-0.347595	-0.418941
H99	H	1.137675	-0.481487	-0.443375
H100	H	1.129516	-0.416365	-0.345093
H101	H	0.970393	-0.472675	-0.291605
H102	H	0.978569	-0.537821	-0.389879
H103	H	1.051124	-0.551258	-0.291674
C104	C	1.351372	-0.132174	-0.712228
C105	C	1.300818	-0.066989	-0.780177
C106	C	1.375189	-0.007012	-0.839445
H107	H	1.397871	-0.166456	-0.758466
H108	H	1.389607	-0.101410	-0.660093
H109	H	1.262601	-0.097750	-0.832306
H110	H	1.254325	-0.032685	-0.733967
H111	H	1.413424	0.023751	-0.787310
H112	H	1.421683	-0.041302	-0.885677
H113	H	1.340898	0.037228	-0.885547
C114	C	0.550219	-0.082321	0.000044
C115	C	0.441324	-0.089064	0.000064
C116	C	0.399213	-0.000596	0.000099
H117	H	0.577453	-0.046293	-0.065507
H118	H	0.568275	-0.053766	0.065625
H119	H	0.423278	-0.117605	-0.065510
H120	H	0.414062	-0.125075	0.065610
H121	H	0.417269	0.027958	0.065679
H122	H	0.426455	0.035424	-0.065453
H123	H	0.325324	-0.005161	0.000123
C124	C	0.950514	-0.039574	0.000174
C125	C	1.006523	-0.046648	0.096888
C126	C	1.072921	0.030600	0.097079
H127	H	0.910209	0.014826	0.000224
H128	H	0.997883	-0.036787	-0.065351
H129	H	0.959160	-0.049426	0.162396
H130	H	1.046848	-0.101032	0.096859
H131	H	1.120290	0.033388	0.031554
H132	H	1.032608	0.084994	0.097126
H133	H	1.110938	0.025807	0.162693
