data_functionalizedCrystal
_audit_creation_method	'MofGen! by Chris Wilmer'
_symmetry_space_group_name_H-M	'P1'
_symmetry_Int_Tables_number	1
_symmetry_cell_setting	triclinic
loop_
_symmetry_equiv_pos_as_xyz
  x,y,z
_cell_length_a	12.759401
_cell_length_b	19.805405
_cell_length_c	12.759393
_cell_angle_alpha	89.962322
_cell_angle_beta	89.981425
_cell_angle_gamma	90.026837
loop_
_atom_site_label
_atom_site_type_symbol
_atom_site_fract_x
_atom_site_fract_y
_atom_site_fract_z
Zn1	Zn	1.606169	-0.269415	-0.593940
Zn2	Zn	2.106169	0.230585	-0.093940
Zn3	Zn	1.606028	-0.382620	-0.418242
Zn4	Zn	2.106028	0.117380	0.081758
Zn5	Zn	1.430472	-0.269451	-0.418280
Zn6	Zn	1.930472	0.230549	0.081720
Zn7	Zn	1.430424	-0.382568	-0.593883
Zn8	Zn	1.930424	0.117432	-0.093883
O9	O	1.518273	-0.326014	-0.506086
O10	O	2.018273	0.173986	-0.006086
O11	O	1.753172	-0.284439	-0.570642
O12	O	2.253172	0.215561	-0.070642
O13	O	1.582701	-0.367645	-0.271226
O14	O	2.082701	0.132355	0.228774
O15	O	1.453857	-0.174730	-0.441621
O16	O	1.953857	0.325270	0.058379
O17	O	1.753068	-0.367610	-0.441557
O18	O	2.253068	0.132390	0.058443
O19	O	1.582942	-0.174703	-0.570678
O20	O	2.082942	0.325297	-0.070678
O21	O	1.453720	-0.284500	-0.271253
O22	O	1.953720	0.215500	0.228747
O23	O	1.283444	-0.284450	-0.441565
O24	O	1.783444	0.215550	0.058435
O25	O	1.453777	-0.367522	-0.740912
O26	O	1.953777	0.132478	-0.240912
O27	O	1.283409	-0.367557	-0.570581
O28	O	1.783409	0.132443	-0.070581
O29	O	1.582896	-0.284389	-0.740954
O30	O	2.082896	0.215611	-0.240954
O31	O	1.582655	-0.477330	-0.441501
O32	O	2.082655	0.022670	0.058499
O33	O	1.453639	-0.477292	-0.570544
O34	O	1.953639	0.022708	-0.070544
C35	C	1.245306	-0.326002	-0.506071
C36	C	1.745306	0.173998	-0.006071
C37	C	1.128529	-0.326013	-0.506090
C38	C	1.628529	0.173987	-0.006090
C39	C	1.073722	-0.282784	-0.573408
C40	C	1.573722	0.217216	-0.073408
C41	C	0.963998	-0.282791	-0.573415
C42	C	1.463998	0.217209	-0.073415
C43	C	0.963898	-0.369262	-0.438783
C44	C	1.463898	0.130738	0.061217
C45	C	1.073620	-0.369251	-0.438771
C46	C	1.573620	0.130749	0.061229
C47	C	1.518155	-0.501870	-0.506035
C48	C	2.018155	-0.001870	-0.006035
C49	C	1.518201	-0.577102	-0.506049
C50	C	2.018201	-0.077102	-0.006049
C51	C	1.585444	-0.612443	-0.438927
C52	C	2.085444	-0.112443	0.061073
C53	C	1.585489	-0.683132	-0.438950
C54	C	2.085489	-0.183132	0.061050
C55	C	1.518284	-0.718477	-0.506091
C56	C	2.018284	-0.218477	-0.006091
C57	C	1.451037	-0.683131	-0.573220
C58	C	1.951037	-0.183131	-0.073220
C59	C	1.450999	-0.612444	-0.573202
C60	C	1.950999	-0.112444	-0.073202
C61	C	1.451192	-0.968204	-0.573298
C62	C	1.951192	-0.468204	-0.073298
C63	C	1.451234	-1.038896	-0.573310
C64	C	1.951234	-0.538896	-0.073310
C65	C	1.585682	-1.038892	-0.439046
C66	C	2.085682	-0.538892	0.060954
C67	C	1.585644	-0.968205	-0.439028
C68	C	2.085644	-0.468205	0.060972
C69	C	1.518402	-0.932865	-0.506161
C70	C	2.018402	-0.432865	-0.006161
C71	C	1.518355	-0.856216	-0.506136
C72	C	2.018355	-0.356216	-0.006136
C73	C	1.518324	-0.795124	-0.506111
C74	C	2.018324	-0.295124	-0.006111
C75	C	1.792307	-0.326026	-0.506102
C76	C	2.292307	0.173974	-0.006102
C77	C	1.909083	-0.326031	-0.506108
C78	C	2.409083	0.173969	-0.006108
C79	C	1.518347	-0.325945	-0.780120
C80	C	2.018347	0.174055	-0.280120
C81	C	1.518378	-0.325916	-0.896896
C82	C	2.018378	0.174084	-0.396896
C83	C	1.518421	-0.149471	-0.506160
C84	C	2.018421	0.350529	-0.006160
C85	C	1.518483	-0.074239	-0.506192
C86	C	2.018483	0.425761	-0.006192
C87	C	1.451242	-0.282615	-0.951772
C88	C	1.951242	0.217385	-0.451772
C89	C	1.451266	-0.282594	-1.061497
C90	C	1.951266	0.217406	-0.561497
C91	C	1.585572	-0.369178	-1.061459
C92	C	2.085572	0.130822	-0.561459
C93	C	1.585541	-0.369201	-0.951737
C94	C	2.085541	0.130799	-0.451737
C95	C	1.518261	-0.326033	-0.233119
C96	C	2.018261	0.173967	0.266881
C97	C	1.518433	-0.325872	-0.116343
C98	C	2.018433	0.174128	0.383657
H99	H	1.118426	-0.247575	-0.628220
H100	H	1.618426	0.252425	-0.128220
F101	F	1.379432	-0.574831	-0.644645
F102	F	1.879432	-0.074831	-0.144645
F103	F	1.657050	-0.415241	-1.119834
F104	F	2.157050	0.084759	-0.619834
H105	H	0.919379	-0.247589	-0.628231
H106	H	1.419379	0.252411	-0.128231
F107	F	1.657253	-1.076509	-0.367601
F108	F	2.157253	-0.576509	0.132399
H109	H	0.919178	-0.404465	-0.383975
H110	H	1.419178	0.095535	0.116025
F111	F	1.379800	-0.236514	-1.119895
F112	F	1.879800	0.263486	-0.619895
F113	F	1.657171	-0.930591	-0.367567
F114	F	2.157171	-0.430591	0.132433
H115	H	1.118245	-0.404454	-0.383947
H116	H	1.618245	0.095546	0.116053
F117	F	1.379626	-0.930601	-0.644746
F118	F	1.879626	-0.430601	-0.144746
H119	H	1.640166	-0.583669	-0.384248
H120	H	2.140166	-0.083669	0.115752
F121	F	1.379518	-0.720750	-0.644683
F122	F	1.879518	-0.220750	-0.144683
H123	H	1.640244	-0.711904	-0.384291
H124	H	2.140244	-0.211904	0.115709
F125	F	1.379703	-1.076512	-0.644775
F126	F	1.879703	-0.576512	-0.144775
F127	F	1.379758	-0.236549	-0.893411
F128	F	1.879758	0.263451	-0.393411
F129	F	1.656997	-0.415294	-0.893331
F130	F	2.156997	0.084706	-0.393331
