data_functionalizedCrystal
_audit_creation_method	'MofGen! by Chris Wilmer'
_symmetry_space_group_name_H-M	'P1'
_symmetry_Int_Tables_number	1
_symmetry_cell_setting	triclinic
loop_
_symmetry_equiv_pos_as_xyz
  x,y,z
_cell_length_a	18.050591
_cell_length_b	18.215406
_cell_length_c	18.215399
_cell_angle_alpha	90.015166
_cell_angle_beta	89.971227
_cell_angle_gamma	90.006116
loop_
_atom_site_label
_atom_site_type_symbol
_atom_site_fract_x
_atom_site_fract_y
_atom_site_fract_z
Zn1	Zn	-1.135469	-0.293128	0.416357
Zn2	Zn	-0.802136	0.040206	0.749690
Zn3	Zn	-0.468802	0.373539	1.083023
Zn4	Zn	-1.135429	-0.416199	0.293318
Zn5	Zn	-0.802096	-0.082865	0.626651
Zn6	Zn	-0.468762	0.250468	0.959985
Zn7	Zn	-1.011278	-0.293136	0.293285
Zn8	Zn	-0.677945	0.040198	0.626618
Zn9	Zn	-0.344611	0.373531	0.959952
Zn10	Zn	-1.011296	-0.416142	0.416324
Zn11	Zn	-0.677962	-0.082809	0.749657
Zn12	Zn	-0.344629	0.250525	1.082990
O13	O	-1.073368	-0.354651	0.354821
O14	O	-0.740035	-0.021318	0.688154
O15	O	-0.406701	0.312016	1.021488
O16	O	-1.239388	-0.309473	0.400063
O17	O	-0.906055	0.023860	0.733396
O18	O	-0.572722	0.357193	1.066730
O19	O	-1.118936	-0.399901	0.190329
O20	O	-0.785602	-0.066568	0.523663
O21	O	-0.452269	0.266765	0.856996
O22	O	-1.027762	-0.190150	0.309611
O23	O	-0.694428	0.143183	0.642944
O24	O	-0.361095	0.476516	0.976277
O25	O	-1.239359	-0.399893	0.309667
O26	O	-0.906026	-0.066560	0.643000
O27	O	-0.572692	0.266773	0.976334
O28	O	-1.119004	-0.190144	0.400031
O29	O	-0.785671	0.143189	0.733364
O30	O	-0.452338	0.476522	1.066698
O31	O	-1.027723	-0.309488	0.190305
O32	O	-0.694389	0.023846	0.523638
O33	O	-0.361056	0.357179	0.856972
O34	O	-0.907356	-0.309433	0.309579
O35	O	-0.574022	0.023901	0.642912
O36	O	-0.240689	0.357234	0.976245
O37	O	-1.027792	-0.399797	0.519312
O38	O	-0.694459	-0.066463	0.852646
O39	O	-0.361125	0.266870	1.185979
O40	O	-0.907369	-0.399805	0.399975
O41	O	-0.574035	-0.066471	0.733308
O42	O	-0.240702	0.266862	1.066641
O43	O	-1.119022	-0.309418	0.519337
O44	O	-0.785688	0.023915	0.852670
O45	O	-0.452355	0.357248	1.186003
O46	O	-1.118953	-0.519175	0.309635
O47	O	-0.785620	-0.185842	0.642968
O48	O	-0.452286	0.147491	0.976302
O49	O	-1.027753	-0.519134	0.400007
O50	O	-0.694420	-0.185800	0.733340
O51	O	-0.361086	0.147533	1.066673
C52	C	-0.880416	-0.354614	0.354770
C53	C	-0.547082	-0.021281	0.688103
C54	C	-0.213749	0.312053	1.021437
C55	C	-0.797870	-0.354616	0.354766
C56	C	-0.464537	-0.021282	0.688099
C57	C	-0.131203	0.312051	1.021432
C58	C	-1.073371	-0.545857	0.354837
C59	C	-0.740037	-0.212524	0.688170
C60	C	-0.406704	0.120809	1.021504
C61	C	-1.073440	-0.627656	0.354868
C62	C	-0.740106	-0.294323	0.688202
C63	C	-0.406773	0.039011	1.021535
C64	C	-1.073413	-0.354600	0.546774
C65	C	-0.740080	-0.021267	0.880107
C66	C	-0.406747	0.312066	1.213441
C67	C	-1.073432	-0.354579	0.628573
C68	C	-0.740099	-0.021245	0.961906
C69	C	-0.406766	0.312088	1.295239
C70	C	-0.598391	-0.305404	0.305711
C71	C	-0.265057	0.027929	0.639044
C72	C	0.068276	0.361262	0.972377
C73	C	-0.549002	-0.372526	0.287612
C74	C	-0.215669	-0.039193	0.620946
C75	C	0.117665	0.294140	0.954279
C76	C	-0.646740	-0.354630	0.354791
C77	C	-0.313406	-0.021297	0.688124
C78	C	0.019927	0.312036	1.021457
C79	C	-0.549047	-0.287524	0.372879
C80	C	-0.215713	0.045809	0.706213
C81	C	0.117620	0.379143	1.039546
C82	C	-0.500755	-0.354639	0.354814
C83	C	-0.167421	-0.021305	0.688147
C84	C	0.165912	0.312028	1.021480
C85	C	-0.598438	-0.421788	0.336657
C86	C	-0.265105	-0.088455	0.669991
C87	C	0.068229	0.244879	1.003324
C88	C	-0.598487	-0.336740	0.421956
C89	C	-0.265154	-0.003407	0.755289
C90	C	0.068179	0.329926	1.088622
C91	C	-0.549121	-0.403909	0.403883
C92	C	-0.215788	-0.070575	0.737216
C93	C	0.117546	0.262758	1.070550
C94	C	-0.730838	-0.354625	0.354776
C95	C	-0.397505	-0.021291	0.688109
C96	C	-0.064171	0.312042	1.021442
C97	C	-0.416658	-0.354652	0.354829
C98	C	-0.083325	-0.021319	0.688162
C99	C	0.250009	0.312015	1.021496
C100	C	-0.267074	-0.354676	0.354859
C101	C	0.066260	-0.021343	0.688192
C102	C	0.399593	0.311991	1.021526
C103	C	-0.349619	-0.354654	0.354841
C104	C	-0.016286	-0.021321	0.688175
C105	C	0.317047	0.312012	1.021508
C106	C	-1.073385	-0.162698	0.354821
C107	C	-0.740052	0.170635	0.688154
C108	C	-0.406719	0.503969	1.021488
C109	C	-1.073393	-0.080899	0.354821
C110	C	-0.740060	0.252434	0.688154
C111	C	-0.406726	0.585767	1.021488
C112	C	-1.025906	0.107293	0.307766
C113	C	-0.692573	0.440626	0.641099
C114	C	-0.359240	0.773959	0.974432
C115	C	-1.025913	0.184151	0.307775
C116	C	-0.692579	0.517485	0.641108
C117	C	-0.359246	0.850818	0.974441
C118	C	-1.120928	0.184147	0.401929
C119	C	-0.787595	0.517480	0.735262
C120	C	-0.454262	0.850813	1.068596
C121	C	-1.120918	0.107289	0.401923
C122	C	-0.787585	0.440623	0.735256
C123	C	-0.454251	0.773956	1.068590
C124	C	-1.073408	0.068864	0.354837
C125	C	-0.740075	0.402198	0.688171
C126	C	-0.406741	0.735531	1.021504
C127	C	-1.073425	0.222580	0.354852
C128	C	-0.740091	0.555914	0.688185
C129	C	-0.406758	0.889247	1.021519
C130	C	-1.073432	0.305914	0.354862
C131	C	-0.740098	0.639247	0.688195
C132	C	-0.406765	0.972581	1.021529
C133	C	-1.073400	-0.014475	0.354828
C134	C	-0.740067	0.318859	0.688161
C135	C	-0.406733	0.652192	1.021495
C136	C	-1.073366	-0.354648	0.163615
C137	C	-0.740032	-0.021315	0.496948
C138	C	-0.406699	0.312018	0.830281
C139	C	-1.073490	-0.354463	0.081816
C140	C	-0.740157	-0.021129	0.415149
C141	C	-0.406824	0.312204	0.748483
C142	C	-1.120953	-0.307475	0.816781
C143	C	-0.787619	0.025859	1.150114
C144	C	-0.454286	0.359192	1.483447
C145	C	-1.120962	-0.307453	0.893639
C146	C	-0.787628	0.025880	1.226973
C147	C	-0.454295	0.359213	1.560306
C148	C	-1.025965	-0.401569	0.893603
C149	C	-0.692631	-0.068235	1.226936
C150	C	-0.359298	0.265098	1.560270
C151	C	-1.025953	-0.401586	0.816745
C152	C	-0.692619	-0.068253	1.150079
C153	C	-0.359286	0.265081	1.483412
C154	C	-1.073451	-0.354540	0.778336
C155	C	-0.740118	-0.021207	1.111670
C156	C	-0.406784	0.312127	1.445003
C157	C	-1.073472	-0.354501	0.932053
C158	C	-0.740138	-0.021168	1.265386
C159	C	-0.406805	0.312165	1.598719
C160	C	-1.073481	-0.354478	1.015386
C161	C	-0.740148	-0.021145	1.348720
C162	C	-0.406814	0.312188	1.682053
C163	C	-1.073441	-0.354562	0.694997
C164	C	-0.740108	-0.021228	1.028331
C165	C	-0.406774	0.312105	1.361664
H166	H	-0.620025	-0.263823	0.264164
H167	H	-0.286692	0.069510	0.597497
H168	H	0.046642	0.402843	0.930831
H169	H	-0.527267	-0.387667	0.230822
H170	H	-0.193933	-0.054333	0.564156
H171	H	0.139400	0.279000	0.897489
H172	H	-1.159611	0.215440	0.440264
H173	H	-0.826278	0.548773	0.773597
H174	H	-0.492944	0.882106	1.106931
F175	F	-1.171474	0.066388	0.452031
F176	F	-0.838140	0.399722	0.785364
F177	F	-0.504807	0.733055	1.118697
H178	H	-0.527623	-0.445589	0.445398
H179	H	-0.194290	-0.112256	0.778731
H180	H	0.139044	0.221077	1.112065
F181	F	-0.975351	0.225047	0.257678
F182	F	-0.642018	0.558380	0.591011
F183	F	-0.308685	0.891713	0.924344
H184	H	-0.620043	-0.478559	0.321305
H185	H	-0.286709	-0.145226	0.654638
H186	H	0.046624	0.188107	0.987971
F187	F	-0.975341	0.066401	0.257655
F188	F	-0.642007	0.399734	0.590988
F189	F	-0.308674	0.733067	0.924321
F190	F	-0.975419	-0.451638	0.934487
F191	F	-0.642086	-0.118305	1.267820
F192	F	-0.308752	0.215028	1.601154
F193	F	-0.626919	-0.316926	0.496164
F194	F	-0.293585	0.016407	0.829498
F195	F	0.039748	0.349741	1.162831
F196	F	-0.975388	-0.451679	0.775828
F197	F	-0.642055	-0.118345	1.109161
F198	F	-0.308722	0.214988	1.442494
H199	H	-0.527313	-0.230777	0.388144
H200	H	-0.193980	0.102556	0.721477
H201	H	0.139354	0.435890	1.054811
H202	H	-1.159627	-0.269165	0.785510
H203	H	-0.826294	0.064168	1.118844
H204	H	-0.492960	0.397502	1.452177
F205	F	-1.171525	-0.257365	0.934551
F206	F	-0.838191	0.075969	1.267885
F207	F	-0.504858	0.409302	1.601218
