data_functionalizedCrystal
_audit_creation_method	'MofGen! by Chris Wilmer'
_symmetry_space_group_name_H-M	'P1'
_symmetry_Int_Tables_number	1
_symmetry_cell_setting	triclinic
loop_
_symmetry_equiv_pos_as_xyz
  x,y,z
_cell_length_a	18.050591
_cell_length_b	18.050589
_cell_length_c	16.120297
_cell_angle_alpha	87.124343
_cell_angle_beta	87.117317
_cell_angle_gamma	90.027061
loop_
_atom_site_label
_atom_site_type_symbol
_atom_site_fract_x
_atom_site_fract_y
_atom_site_fract_z
Zn1	Zn	1.114037	-0.316990	0.471313
Zn2	Zn	1.447370	0.016344	0.804647
Zn3	Zn	1.780704	0.349677	1.137980
Zn4	Zn	1.120235	-0.434885	0.331911
Zn5	Zn	1.453568	-0.101551	0.665244
Zn6	Zn	1.786901	0.231782	0.998577
Zn7	Zn	0.996142	-0.310711	0.331926
Zn8	Zn	1.329476	0.022622	0.665260
Zn9	Zn	1.662809	0.355955	0.998593
Zn10	Zn	0.989805	-0.441139	0.471288
Zn11	Zn	1.323139	-0.107805	0.804621
Zn12	Zn	1.656472	0.225528	1.137955
O13	O	1.055055	-0.375931	0.401610
O14	O	1.388388	-0.042598	0.734943
O15	O	1.721722	0.290736	1.068276
O16	O	1.218784	-0.332639	0.452825
O17	O	1.552117	0.000694	0.786158
O18	O	1.885450	0.334028	1.119492
O19	O	1.109019	-0.413168	0.215249
O20	O	1.442353	-0.079835	0.548582
O21	O	1.775686	0.253499	0.881916
O22	O	1.011840	-0.207620	0.350434
O23	O	1.345173	0.125713	0.683767
O24	O	1.678506	0.459046	1.017100
O25	O	1.223337	-0.419256	0.350407
O26	O	1.556670	-0.085923	0.683740
O27	O	1.890003	0.247411	1.017073
O28	O	1.098456	-0.212233	0.452840
O29	O	1.431790	0.121100	0.786174
O30	O	1.765123	0.454434	1.119507
O31	O	1.017849	-0.321938	0.215261
O32	O	1.351183	0.011395	0.548594
O33	O	1.684516	0.344728	0.881927
O34	O	0.891377	-0.328003	0.350409
O35	O	1.224711	0.005331	0.683742
O36	O	1.558044	0.338664	1.017076
O37	O	1.001039	-0.429915	0.587955
O38	O	1.334373	-0.096582	0.921288
O39	O	1.667706	0.236752	1.254622
O40	O	0.886722	-0.423827	0.452797
O41	O	1.220055	-0.090494	0.786131
O42	O	1.553388	0.242840	1.119464
O43	O	1.092312	-0.338703	0.587974
O44	O	1.425645	-0.005370	0.921307
O45	O	1.758978	0.327964	1.254640
O46	O	1.102874	-0.539638	0.350382
O47	O	1.436208	-0.206305	0.683715
O48	O	1.769541	0.127028	1.017049
O49	O	1.007049	-0.544233	0.452782
O50	O	1.340382	-0.210900	0.786115
O51	O	1.673715	0.122434	1.119449
C52	C	0.862103	-0.375913	0.401603
C53	C	1.195436	-0.042579	0.734936
C54	C	1.528770	0.290754	1.068269
C55	C	0.779556	-0.375924	0.401620
C56	C	1.112890	-0.042590	0.734953
C57	C	1.446223	0.290743	1.068286
C58	C	0.528224	-0.428132	0.457222
C59	C	0.861557	-0.094799	0.790556
C60	C	1.194891	0.238535	1.123889
C61	C	0.581026	-0.442771	0.381129
C62	C	0.914359	-0.109437	0.714462
C63	C	1.247692	0.223896	1.047795
C64	C	0.482436	-0.375947	0.401618
C65	C	0.815769	-0.042613	0.734951
C66	C	1.149103	0.290720	1.068285
C67	C	0.576716	-0.361332	0.477708
C68	C	0.910050	-0.027998	0.811041
C69	C	1.243383	0.305335	1.144375
C70	C	0.628421	-0.375937	0.401623
C71	C	0.961754	-0.042604	0.734956
C72	C	1.295088	0.290729	1.068289
C73	C	0.534152	-0.390619	0.325484
C74	C	0.867486	-0.057285	0.658817
C75	C	1.200819	0.276048	0.992151
C76	C	0.529836	-0.309151	0.422115
C77	C	0.863170	0.024183	0.755448
C78	C	1.196503	0.357516	1.088781
C79	C	0.582618	-0.323761	0.345968
C80	C	0.915951	0.009573	0.679302
C81	C	1.249285	0.342906	1.012635
C82	C	0.398338	-0.375954	0.401616
C83	C	0.731671	-0.042621	0.734950
C84	C	1.065005	0.290713	1.068283
C85	C	0.712518	-0.375930	0.401616
C86	C	1.045851	-0.042596	0.734949
C87	C	1.379185	0.290737	1.068283
C88	C	1.054966	-0.568883	0.401596
C89	C	1.388299	-0.235549	0.734929
C90	C	1.721632	0.097784	1.068262
C91	C	1.054994	-0.651429	0.401618
C92	C	1.388328	-0.318096	0.734951
C93	C	1.721661	0.015237	1.068284
C94	C	1.002934	-0.853405	0.457283
C95	C	1.336267	-0.520071	0.790617
C96	C	1.669601	-0.186738	1.123950
C97	C	0.988267	-0.899407	0.381211
C98	C	1.321600	-0.566073	0.714544
C99	C	1.654934	-0.232740	1.047877
C100	C	1.055067	-0.802560	0.401629
C101	C	1.388400	-0.469227	0.734962
C102	C	1.721734	-0.135894	1.068295
C103	C	1.069770	-0.903640	0.477710
C104	C	1.403103	-0.570307	0.811043
C105	C	1.736437	-0.236974	1.144377
C106	C	1.055135	-0.948546	0.401646
C107	C	1.388469	-0.615213	0.734979
C108	C	1.721802	-0.281879	1.068312
C109	C	1.040366	-0.847473	0.325516
C110	C	1.373699	-0.514140	0.658849
C111	C	1.707033	-0.180807	0.992182
C112	C	1.121898	-0.851705	0.422066
C113	C	1.455232	-0.518371	0.755400
C114	C	1.788565	-0.185038	1.088733
C115	C	1.107259	-0.897682	0.345941
C116	C	1.440593	-0.564349	0.679274
C117	C	1.773926	-0.231015	1.012608
C118	C	1.055026	-0.718462	0.401620
C119	C	1.388359	-0.385128	0.734953
C120	C	1.721692	-0.051795	1.068286
C121	C	1.055177	-1.032643	0.401646
C122	C	1.388510	-0.699309	0.734979
C123	C	1.721844	-0.365976	1.068313
C124	C	1.248760	-0.375950	0.401617
C125	C	1.582093	-0.042617	0.734950
C126	C	1.915427	0.290716	1.068284
C127	C	1.331306	-0.375958	0.401620
C128	C	1.664639	-0.042625	0.734953
C129	C	1.997972	0.290708	1.068287
C130	C	1.045277	-0.385707	0.619060
C131	C	1.378611	-0.052374	0.952393
C132	C	1.711944	0.280960	1.285726
C133	C	1.041111	-0.389873	0.711724
C134	C	1.374444	-0.056539	1.045057
C135	C	1.707777	0.276794	1.378391
C136	C	1.055164	-0.182227	0.401642
C137	C	1.388497	0.151106	0.734975
C138	C	1.721830	0.484440	1.068308
C139	C	1.055210	-0.099682	0.401655
C140	C	1.388543	0.233652	0.734989
C141	C	1.721877	0.566985	1.068322
C142	C	1.064837	-0.366140	0.185005
C143	C	1.398170	-0.032806	0.518339
C144	C	1.731504	0.300527	0.851672
C145	C	1.069148	-0.361765	0.092342
C146	C	1.402481	-0.028431	0.425675
C147	C	1.735814	0.304902	0.759008
C148	C	1.033476	-0.397462	0.881383
C149	C	1.366810	-0.064129	1.214716
C150	C	1.700143	0.269205	1.548049
C151	C	1.076780	-0.354178	0.922688
C152	C	1.410113	-0.020844	1.256022
C153	C	1.743446	0.312489	1.589355
C154	C	1.072532	-0.358400	1.017092
C155	C	1.405865	-0.025067	1.350426
C156	C	1.739199	0.308266	1.683759
C157	C	1.037723	-0.393240	0.786970
C158	C	1.371056	-0.059907	1.120303
C159	C	1.704390	0.273426	1.453637
H160	H	0.507363	-0.252684	0.439477
H161	H	0.840696	0.080649	0.772810
H162	H	1.174030	0.413983	1.106143
H163	H	0.993217	-0.437688	0.916917
H164	H	1.326550	-0.104354	1.250250
H165	H	1.659883	0.228979	1.583584
H166	H	0.504426	-0.472297	0.504184
H167	H	0.837760	-0.138963	0.837518
H168	H	1.171093	0.194370	1.170851
H169	H	0.515435	-0.403045	0.261120
H170	H	0.848768	-0.069712	0.594454
H171	H	1.182101	0.263621	0.927787
F172	F	1.129420	-0.301608	0.876242
F173	F	1.462754	0.031725	1.209575
F174	F	1.796087	0.365058	1.542909
H175	H	0.606284	-0.279623	0.298893
H176	H	0.939618	0.053710	0.632227
H177	H	1.272951	0.387044	0.965560
F178	F	0.610381	-0.516598	0.358465
F179	F	0.943714	-0.183264	0.691798
F180	F	1.277047	0.150069	1.025131
H181	H	0.595526	-0.348973	0.542054
H182	H	0.928860	-0.015640	0.875387
H183	H	1.262193	0.317693	1.208721
F184	F	0.945235	-0.827879	0.518715
F185	F	1.278568	-0.494546	0.852048
F186	F	1.611901	-0.161212	1.185382
F187	F	0.914434	-0.926831	0.358617
F188	F	1.247767	-0.593498	0.691950
F189	F	1.581100	-0.260165	1.025284
H190	H	1.027891	-0.823004	0.261164
H191	H	1.361225	-0.489671	0.594497
H192	H	1.694558	-0.156337	0.927830
F193	F	1.164928	-0.923021	0.284365
F194	F	1.498261	-0.589688	0.617698
F195	F	1.831594	-0.256354	0.951031
H196	H	1.082179	-0.928198	0.542044
H197	H	1.415513	-0.594865	0.875378
H198	H	1.748846	-0.261532	1.208711
F199	F	1.195710	-0.824259	0.444687
F200	F	1.529044	-0.490926	0.778021
F201	F	1.862377	-0.157592	1.111354
