data_functionalizedCrystal
_audit_creation_method	'MofGen! by Chris Wilmer'
_symmetry_space_group_name_H-M	'P1'
_symmetry_Int_Tables_number	1
_symmetry_cell_setting	triclinic
loop_
_symmetry_equiv_pos_as_xyz
  x,y,z
_cell_length_a	12.759401
_cell_length_b	19.077068
_cell_length_c	19.077174
_cell_angle_alpha	85.342852
_cell_angle_beta	87.686247
_cell_angle_gamma	87.671501
loop_
_atom_site_label
_atom_site_type_symbol
_atom_site_fract_x
_atom_site_fract_y
_atom_site_fract_z
Zn1	Zn	1.612885	0.296648	-0.409819
Zn2	Zn	1.599186	0.409803	-0.296663
Zn3	Zn	1.430419	0.291937	-0.291952
Zn4	Zn	1.430349	0.414501	-0.414511
O5	O	1.518210	0.353222	-0.353236
O6	O	1.758089	0.311663	-0.394817
O7	O	1.571095	0.390230	-0.197390
O8	O	1.460386	0.193913	-0.303652
O9	O	1.748024	0.394798	-0.311681
O10	O	1.594443	0.197374	-0.390249
O11	O	1.447103	0.303634	-0.193929
O12	O	1.283389	0.308190	-0.308202
O13	O	1.460267	0.402806	-0.512537
O14	O	1.283338	0.398238	-0.398246
O15	O	1.594375	0.316219	-0.509090
O16	O	1.571027	0.509075	-0.316231
O17	O	1.446984	0.512527	-0.402814
C18	C	1.245242	0.353213	-0.353222
C19	C	1.128465	0.353227	-0.353233
C20	C	1.507541	0.536381	-0.360558
C21	C	1.503074	0.614738	-0.363714
C22	C	1.528841	0.360562	-0.537107
C23	C	1.533372	0.363690	-0.615461
C24	C	1.073596	0.400180	-0.400051
C25	C	0.963873	0.400184	-0.400065
C26	C	0.963897	0.306278	-0.306438
C27	C	1.073619	0.306272	-0.306428
C28	C	0.817280	0.428827	-0.484187
C29	C	0.762406	0.475791	-0.530999
C30	C	0.794634	0.545020	-0.544456
C31	C	0.881733	0.567298	-0.511091
C32	C	0.936600	0.520337	-0.464274
C33	C	0.904375	0.451099	-0.450830
C34	C	1.220213	0.277635	-0.222305
C35	C	1.275083	0.230677	-0.175484
C36	C	1.242857	0.161447	-0.162020
C37	C	1.155754	0.139172	-0.195373
C38	C	1.100884	0.186129	-0.242194
C39	C	1.133118	0.255359	-0.255659
C40	C	1.792243	0.353232	-0.353251
C41	C	1.909020	0.353236	-0.353258
C42	C	1.528950	0.169349	-0.345901
C43	C	1.533527	0.090993	-0.342776
C44	C	1.565612	0.649731	-0.320155
C45	C	1.561418	0.723356	-0.323128
C46	C	1.494678	0.761986	-0.369656
C47	C	1.432137	0.726988	-0.413220
C48	C	1.436338	0.653364	-0.410250
C49	C	1.475187	0.982372	-0.383370
C50	C	1.470989	1.056000	-0.386335
C51	C	1.600271	1.052363	-0.296243
C52	C	1.604462	0.978738	-0.293275
C53	C	1.541925	0.943747	-0.336841
N54	N	1.490386	0.837242	-0.372694
N55	N	1.546223	0.868492	-0.333806
C56	C	1.470947	0.320075	-0.650470
C57	C	1.475199	0.323019	-0.724093
C58	C	1.541883	0.369576	-0.762705
C59	C	1.604310	0.413197	-0.727692
C60	C	1.600051	0.410255	-0.654070
C61	C	1.561537	0.383212	-0.983083
C62	C	1.565793	0.386149	-1.056709
C63	C	1.436680	0.295972	-1.053105
C64	C	1.432432	0.293032	-0.979482
C65	C	1.494855	0.336655	-0.944475
N66	N	1.546234	0.372586	-0.837959
N67	N	1.490498	0.333648	-0.869222
C68	C	1.507683	0.345860	-0.170079
C69	C	1.503368	0.342534	-0.091717
H70	H	1.118249	0.438413	-0.438165
Cl71	Cl	1.396567	0.938392	-0.438138
H72	H	0.691491	0.457646	-0.558165
H73	H	1.650892	0.445766	-0.625567
H74	H	1.619954	0.618282	-0.282264
H75	H	1.385414	0.624874	-0.445721
H76	H	1.416652	0.282159	-0.619036
Cl77	Cl	1.678891	1.096357	-0.241482
Cl78	Cl	1.640020	0.438047	-0.939083
H79	H	1.378128	0.255122	-0.948048
H80	H	1.385858	0.260458	-1.081615
H81	H	1.424362	0.287506	-0.752593
H82	H	0.749948	0.583258	-0.582572
H83	H	1.377801	0.758447	-0.451107
Cl84	Cl	1.649639	0.444676	-1.105250
H85	H	1.658599	0.451108	-0.759136
H86	H	1.007514	0.538475	-0.437108
Cl87	Cl	0.776771	0.341789	-0.467285
H88	H	1.416655	1.087452	-0.424236
H89	H	0.919228	0.268049	-0.268329
H90	H	1.029966	0.167985	-0.269356
H91	H	0.907958	0.623673	-0.522045
H92	H	1.129502	0.082803	-0.184399
H93	H	1.287536	0.123217	-0.123889
H94	H	1.346006	0.248821	-0.148326
Cl95	Cl	1.640045	0.767344	-0.268367
H96	H	1.246467	0.334006	-0.233270
Cl97	Cl	1.688382	0.930180	-0.234790
