data_functionalizedCrystal
_audit_creation_method	'MofGen! by Chris Wilmer'
_symmetry_space_group_name_H-M	'P1'
_symmetry_Int_Tables_number	1
_symmetry_cell_setting	triclinic
loop_
_symmetry_equiv_pos_as_xyz
  x,y,z
_cell_length_a	18.215407
_cell_length_b	18.050589
_cell_length_c	18.215399
_cell_angle_alpha	90.025811
_cell_angle_beta	89.985640
_cell_angle_gamma	89.967859
loop_
_atom_site_label
_atom_site_type_symbol
_atom_site_fract_x
_atom_site_fract_y
_atom_site_fract_z
Zn1	Zn	1.125000	0.295700	-0.416091
Zn2	Zn	1.124894	0.419900	-0.293034
Zn3	Zn	1.001939	0.295723	-0.293043
Zn4	Zn	1.001877	0.419847	-0.416064
O5	O	1.063427	0.357793	-0.354558
O6	O	1.227970	0.312188	-0.399774
O7	O	1.108565	0.403460	-0.190051
O8	O	1.018333	0.191795	-0.309381
O9	O	1.227892	0.403437	-0.309365
O10	O	1.108746	0.191779	-0.399783
O11	O	1.018230	0.312227	-0.190058
O12	O	0.898946	0.312176	-0.309355
O13	O	1.018228	0.403347	-0.519052
O14	O	0.898901	0.403369	-0.399738
O15	O	1.108686	0.312137	-0.519072
O16	O	1.108505	0.523818	-0.309340
O17	O	1.018125	0.523779	-0.399729
C18	C	0.872221	0.357770	-0.354545
C19	C	0.790422	0.357778	-0.354557
C20	C	0.602268	0.310362	-0.401708
C21	C	0.525409	0.310369	-0.401710
C22	C	0.525339	0.405244	-0.307422
C23	C	0.602196	0.405233	-0.307416
C24	C	0.640659	0.357794	-0.354563
C25	C	0.486943	0.357811	-0.354571
C26	C	0.403609	0.357818	-0.354574
C27	C	0.723998	0.357785	-0.354560
C28	C	1.063317	0.550745	-0.354547
C29	C	1.063337	0.633291	-0.354566
C30	C	1.014215	0.832747	-0.403704
C31	C	0.996273	0.882189	-0.336550
C32	C	1.063392	0.784421	-0.354576
C33	C	1.081354	0.882060	-0.421738
C34	C	1.063445	0.930406	-0.354592
C35	C	1.045416	0.832776	-0.287388
C36	C	1.130528	0.832643	-0.372620
C37	C	1.112611	0.882063	-0.305421
C38	C	1.063361	0.700323	-0.354568
C39	C	1.063477	1.014503	-0.354593
C40	C	1.255380	0.357816	-0.354572
C41	C	1.337179	0.357826	-0.354577
C42	C	1.063462	0.357733	-0.546511
C43	C	1.063477	0.357708	-0.628310
C44	C	1.063530	1.164087	-0.354587
C45	C	1.063502	1.081541	-0.354601
C46	C	1.016480	0.310171	-0.816509
C47	C	1.016493	0.310156	-0.893367
C48	C	1.110562	0.405156	-0.893350
C49	C	1.110545	0.405174	-0.816492
C50	C	1.063505	0.357678	-0.778074
C51	C	1.063535	0.357645	-0.931790
C52	C	1.063549	0.357629	-1.015124
C53	C	1.063490	0.357694	-0.694735
C54	C	1.063435	0.357798	-0.163352
C55	C	1.063563	0.357614	-0.081553
H56	H	0.494013	0.443868	-0.269037
O57	O	1.198269	0.806747	-0.390761
C58	C	1.250227	0.832952	-0.339616
H59	H	1.228444	0.885372	-0.312290
H60	H	1.303901	0.845918	-0.369121
H61	H	1.260350	0.788758	-0.296082
H62	H	0.494155	0.271744	-0.440099
O63	O	1.099501	0.907763	-0.489522
C64	C	1.111503	0.847426	-0.537229
H65	H	1.126109	0.796157	-0.503744
H66	H	1.158565	0.861042	-0.576212
H67	H	1.059542	0.836289	-0.570307
O68	O	0.970914	0.263975	-0.930786
C69	C	1.012849	0.215991	-0.975248
H70	H	1.068607	0.242184	-0.986758
H71	H	0.982889	0.206030	-1.029295
H72	H	1.020962	0.160960	-0.945645
O73	O	0.970886	0.263961	-0.779156
C74	C	1.012800	0.216018	-0.734696
H75	H	1.070771	0.211426	-0.757858
H76	H	0.986216	0.158864	-0.733837
H77	H	1.015307	0.238992	-0.676442
O78	O	1.156235	0.451219	-0.930785
C79	C	1.146155	0.441029	-1.006863
H80	H	1.122093	0.383712	-1.017372
H81	H	1.201283	0.446065	-1.036073
H82	H	1.106941	0.485071	-1.028664
H83	H	0.633455	0.443858	-0.269021
H84	H	0.972572	0.811093	-0.445190
O85	O	0.928525	0.908121	-0.318465
C86	C	0.876811	0.882985	-0.370377
H87	H	0.906038	0.869068	-0.423988
H88	H	0.834337	0.928211	-0.380661
H89	H	0.848239	0.831351	-0.348459
H90	H	1.030179	0.811217	-0.230581
H91	H	0.633582	0.271731	-0.440096
H92	H	1.154222	0.903580	-0.263834
O93	O	1.156298	0.451349	-0.779265
C94	C	1.197812	0.493275	-0.829654
H95	H	1.200396	0.462845	-0.884447
H96	H	1.255784	0.501209	-0.807443
H97	H	1.170827	0.549674	-0.837815
