data_functionalizedCrystal
_audit_creation_method	'MofGen! by Chris Wilmer'
_symmetry_space_group_name_H-M	'P1'
_symmetry_Int_Tables_number	1
_symmetry_cell_setting	triclinic
loop_
_symmetry_equiv_pos_as_xyz
  x,y,z
_cell_length_a	27.732048
_cell_length_b	15.944556
_cell_length_c	14.421503
_cell_angle_alpha	89.979576
_cell_angle_beta	89.999761
_cell_angle_gamma	96.927987
loop_
_atom_site_label
_atom_site_type_symbol
_atom_site_fract_x
_atom_site_fract_y
_atom_site_fract_z
O1	O	0.641362	-0.099949	0.077015
O2	O	0.500634	-0.115146	0.077046
O3	O	0.574839	0.014777	0.076996
O4	O	0.567156	-0.229872	0.077065
O5	O	0.574832	0.014791	-0.077227
O6	O	0.500627	-0.115132	-0.077177
O7	O	0.641355	-0.099935	-0.077209
Cu8	Cu	0.570990	-0.107532	-0.091275
Cu9	Cu	0.570998	-0.107549	0.091112
O10	O	0.567150	-0.229858	-0.077159
C11	C	0.482622	-0.114820	-0.000062
C12	C	0.428963	-0.113859	-0.000052
C13	C	0.090455	-0.184588	-0.000072
C14	C	-0.111220	-0.181024	-0.000081
O15	O	-0.142194	-0.245701	-0.000103
N16	N	-0.130678	-0.103985	-0.000101
C17	C	-0.099714	-0.027832	-0.000125
O18	O	-0.120892	0.037776	-0.000152
C19	C	0.101960	-0.031397	-0.000122
C20	C	0.121415	-0.108441	-0.000093
C21	C	0.109911	-0.261626	-0.000044
C22	C	0.160327	-0.262516	-0.000036
C23	C	0.191287	-0.186368	-0.000057
C24	C	0.171831	-0.109331	-0.000085
C25	C	0.132923	0.044756	-0.000153
C26	C	0.183344	0.043858	-0.000154
C27	C	0.202799	-0.033186	-0.000125
C28	C	0.253207	-0.034073	-0.000099
N29	N	0.272665	-0.111112	-0.000079
C30	C	0.241705	-0.187260	-0.000058
C31	C	-0.205596	-0.025966	-0.000124
C32	C	-0.256015	-0.025074	-0.000123
C33	C	-0.267517	-0.178267	-0.000081
C34	C	-0.217097	-0.179158	-0.000076
C35	C	-0.186138	-0.103005	-0.000104
C36	C	0.347583	-0.189123	-0.000042
C37	C	0.398003	-0.190007	-0.000031
C38	C	0.409501	-0.036815	-0.000077
C39	C	0.359085	-0.035931	-0.000084
C40	C	0.328126	-0.112092	-0.000069
O41	O	0.284210	0.030568	-0.000087
O42	O	0.262893	-0.252858	-0.000052
C43	C	0.040040	-0.183698	-0.000079
C44	C	0.020584	-0.106660	-0.000108
C45	C	0.051544	-0.030513	-0.000129
C46	C	-0.029835	-0.105769	-0.000107
C47	C	-0.060794	-0.181916	-0.000086
C48	C	-0.041336	-0.258955	-0.000066
C49	C	0.009080	-0.259846	-0.000058
C50	C	0.032085	0.046526	-0.000149
C51	C	-0.018331	0.047410	-0.000155
C52	C	-0.049291	-0.028737	-0.000134
C53	C	0.574516	0.046074	-0.000122
C54	C	0.573558	0.139307	-0.000141
C55	C	0.659366	-0.100261	-0.000098
C56	C	0.713025	-0.101222	-0.000102
C57	C	0.524699	0.409299	-0.000162
C58	C	0.548256	0.359015	0.075883
C59	C	0.570143	0.474904	-0.000176
C60	C	0.548262	0.359056	-0.076170
C61	C	0.571818	0.310014	-0.000161
C62	C	0.593688	0.425848	0.075932
C63	C	0.593687	0.425893	-0.076189
C64	C	0.617277	0.375642	-0.000125
C65	C	0.569176	0.569893	-0.000184
C66	C	0.572789	0.215028	-0.000146
C67	C	0.567466	0.738843	-0.000084
C68	C	0.568404	0.645606	-0.000196
N69	N	0.570988	-0.107521	-0.219556
C70	C	0.605043	-0.046973	-0.531008
C71	C	0.614820	-0.122515	-0.469153
C72	C	0.570999	-0.107544	-0.591445
C73	C	0.561240	-0.031992	-0.469206
C74	C	0.570995	-0.107528	-0.408723
C75	C	0.580797	-0.183125	-0.530950
C76	C	0.527199	-0.092552	-0.531009
C77	C	0.536957	-0.168150	-0.469182
C78	C	0.571003	-0.107552	-0.696706
C79	C	0.570991	-0.107529	-0.303465
N80	N	0.571004	-0.107554	0.219394
H81	H	0.117091	0.107493	-0.000177
N82	N	0.418987	-0.273107	0.000010
H83	H	0.391721	-0.321209	0.000021
H84	H	0.439659	-0.276815	-0.057156
N85	N	0.591792	-0.267768	-0.566711
H86	H	0.566240	-0.313544	-0.543693
H87	H	0.591750	-0.267169	-0.636739
H88	H	0.508164	-0.219421	-0.442208
H89	H	-0.201261	-0.241893	-0.000057
N90	N	0.550306	0.052636	-0.433292
H91	H	0.517475	0.064422	-0.456764
H92	H	0.550099	0.051796	-0.363267
N93	N	0.314196	-0.271266	-0.000048
H94	H	0.334179	-0.320198	-0.000034
H95	H	0.293020	-0.274255	0.057117
N96	N	-0.172213	0.056182	-0.000144
H97	H	-0.151038	0.059226	0.057026
H98	H	-0.151068	0.059196	-0.057353
H99	H	0.176163	-0.325253	-0.000012
N100	N	0.478151	-0.075730	-0.567034
H101	H	0.470811	-0.018619	-0.544617
H102	H	0.478462	-0.076461	-0.637057
N103	N	0.522827	0.320439	-0.161312
H104	H	0.539629	0.345709	-0.218751
H105	H	0.523936	0.257359	-0.160909
N106	N	0.472862	0.429384	-0.000052
H107	H	0.455756	0.404922	0.057455
H108	H	0.472637	0.492675	-0.000681
H109	H	-0.292733	-0.240269	-0.000065
N110	N	0.076523	-0.343763	-0.000074
H111	H	0.096507	-0.392694	-0.000073
H112	H	0.055342	-0.346771	0.057085
N113	N	0.065477	0.128658	-0.000159
H114	H	0.086656	0.131717	-0.057326
H115	H	0.045464	0.177546	-0.000137
H116	H	0.208549	0.105872	-0.000178
N117	N	-0.074733	-0.341087	-0.000037
H118	H	-0.109624	-0.328824	-0.000045
H119	H	-0.068433	-0.374687	-0.057200
H120	H	0.024915	-0.322583	-0.000036
N121	N	-0.276996	0.058022	-0.000138
H122	H	-0.249728	0.106122	-0.000154
H123	H	-0.297663	0.061737	-0.057312
N124	N	0.643202	0.020796	-0.566973
H125	H	0.676275	0.009361	-0.544470
H126	H	0.642683	0.020630	-0.636997
H127	H	0.612868	0.454899	0.140280
N128	N	0.338097	0.047163	-0.000098
H129	H	0.365362	0.095267	-0.000105
H130	H	0.317433	0.050877	-0.057277
H131	H	0.656446	0.360663	-0.000088
H132	H	0.651859	-0.135196	-0.441982
H133	H	0.434717	0.025183	-0.000091
N134	N	0.619083	0.464594	-0.161353
H135	H	0.653862	0.451729	-0.161966
H136	H	0.601840	0.440157	-0.218711
N137	N	-0.039312	0.130513	-0.000181
H138	H	-0.012044	0.178613	-0.000195
H139	H	-0.059976	0.134223	-0.057360
H140	H	0.529067	0.329824	0.140179
