data_functionalizedCrystal
_audit_creation_method	'MofGen! by Chris Wilmer'
_symmetry_space_group_name_H-M	'P1'
_symmetry_Int_Tables_number	1
_symmetry_cell_setting	triclinic
loop_
_symmetry_equiv_pos_as_xyz
  x,y,z
_cell_length_a	15.538191
_cell_length_b	18.266242
_cell_length_c	15.625429
_cell_angle_alpha	108.083489
_cell_angle_beta	66.736792
_cell_angle_gamma	90.010680
loop_
_atom_site_label
_atom_site_type_symbol
_atom_site_fract_x
_atom_site_fract_y
_atom_site_fract_z
O1	O	1.249530	-0.016799	-0.292680
O2	O	0.975409	0.010820	-0.188629
O3	O	1.119790	-0.038466	-0.374288
O4	O	1.105150	0.032486	-0.107021
O5	O	1.119765	-0.160228	-0.374287
O6	O	0.975385	-0.110942	-0.188628
O7	O	1.249506	-0.138561	-0.292679
Zn8	Zn	1.112441	-0.144084	-0.240653
Zn9	Zn	1.112474	0.016342	-0.240655
O10	O	1.105125	-0.089276	-0.107020
C11	C	0.940316	-0.047172	-0.177742
C12	C	0.835785	-0.038565	-0.145315
N13	N	1.112426	-0.253571	-0.240655
C14	C	0.547568	-0.124077	-0.467471
C15	C	0.449342	-0.115981	-0.436978
C16	C	0.427127	-0.070449	-0.265462
C17	C	0.525352	-0.078544	-0.295940
C18	C	0.585565	-0.105358	-0.396946
C19	C	0.563350	-0.059825	-0.225415
C20	C	0.661567	-0.067916	-0.255892
C21	C	0.721786	-0.094726	-0.356894
C22	C	0.683782	-0.113449	-0.427423
C23	C	0.503135	-0.033006	-0.124410
C24	C	0.541133	-0.014286	-0.053885
C25	C	0.639351	-0.022383	-0.084361
C26	C	0.699570	-0.049193	-0.185363
C27	C	0.677355	-0.003660	-0.013832
C28	C	0.775572	-0.011751	-0.044308
C29	C	0.797787	-0.057284	-0.215839
C30	C	1.176379	-0.313698	-0.322842
C31	C	1.176385	-0.390344	-0.322848
C32	C	1.112447	-0.406858	-0.240655
C33	C	1.048482	-0.346720	-0.158460
C34	C	1.048472	-0.270077	-0.158460
N35	N	1.100568	-0.504981	-0.156996
N36	N	1.100583	-0.577791	-0.157000
C37	C	1.112474	-0.637779	-0.240651
N38	N	1.124366	-0.622211	-0.324305
N39	N	1.124355	-0.549395	-0.324301
C40	C	1.112451	-0.489963	-0.240646
C41	C	1.176436	-0.781016	-0.322850
C42	C	1.176436	-0.857664	-0.322855
C43	C	1.048538	-0.814037	-0.158461
C44	C	1.048534	-0.737392	-0.158462
C45	C	1.112488	-0.720887	-0.240657
C46	C	1.284599	-0.080568	-0.303566
C47	C	1.389130	-0.089171	-0.335993
C48	C	1.119113	-0.108204	-0.407658
C49	C	1.117123	-0.134595	-0.507087
N50	N	1.112496	0.125827	-0.240662
C51	C	1.110619	0.110444	-0.834094
C52	C	1.108744	0.085623	-0.927521
C53	C	1.108718	-0.047113	-0.927506
C54	C	1.110597	-0.022304	-0.834079
C55	C	1.111546	0.056476	-0.787380
C56	C	1.111524	-0.076272	-0.787365
C57	C	1.113398	-0.051464	-0.693944
C58	C	1.114344	0.027312	-0.647237
C59	C	1.113420	0.081284	-0.693958
C60	C	1.110568	-0.155051	-0.834063
C61	C	1.111495	-0.209019	-0.787350
C62	C	1.113376	-0.184212	-0.693930
C63	C	1.114322	-0.105435	-0.647222
C64	C	1.114301	-0.238183	-0.647208
C65	C	1.116174	-0.213375	-0.553787
C66	C	1.116196	-0.080627	-0.553801
C67	C	1.105802	-0.019536	-0.073650
C68	C	1.107792	0.006860	0.025779
H69	H	0.846817	-0.079123	-0.298089
H70	H	1.116977	-0.016478	-0.515780
Br71	Br	0.459407	0.022109	0.083190
Br72	Br	0.961702	-0.369130	-0.046915
Br73	Br	1.116889	0.060984	-0.520450
H74	H	0.732812	-0.135287	-0.509672
Br75	Br	0.629295	-0.160480	-0.604553
Br76	Br	1.107418	-0.154023	-0.990887
H77	H	0.378088	-0.048614	-0.183222
Br78	Br	1.107476	0.158876	-0.990912
Br79	Br	0.595627	0.032745	0.123243
H80	H	1.109032	-0.175246	-0.910128
Br81	Br	0.961671	-0.188470	-0.046913
H82	H	1.228465	-0.439308	-0.389777
H83	H	0.996475	-0.827482	-0.091540
H84	H	0.801760	-0.101303	-0.381706
Br85	Br	1.110195	-0.315929	-0.850730
Br86	Br	0.397777	-0.141400	-0.532703
H87	H	0.996461	-0.688433	-0.091536
Br88	Br	1.114726	0.188198	-0.630580
H89	H	1.113518	-0.302324	-0.685241
Br90	Br	0.369838	-0.022022	-0.083048
Br91	Br	1.263227	-0.758614	-0.434401
Br92	Br	1.117436	-0.286618	-0.490385
Br93	Br	0.827146	0.013659	0.051404
H94	H	1.228511	-0.906623	-0.389785
Br95	Br	1.111925	0.217358	-0.770715
H96	H	1.228452	-0.300263	-0.389772
