data_functionalizedCrystal
_audit_creation_method	'MofGen! by Chris Wilmer'
_symmetry_space_group_name_H-M	'P1'
_symmetry_Int_Tables_number	1
_symmetry_cell_setting	triclinic
loop_
_symmetry_equiv_pos_as_xyz
  x,y,z
_cell_length_a	19.188928
_cell_length_b	27.732048
_cell_length_c	17.666332
_cell_angle_alpha	89.988553
_cell_angle_beta	90.026054
_cell_angle_gamma	97.106768
loop_
_atom_site_label
_atom_site_type_symbol
_atom_site_fract_x
_atom_site_fract_y
_atom_site_fract_z
O1	O	-0.925766	0.060343	-0.063249
O2	O	-0.425766	0.560343	0.436751
O3	O	-0.722402	0.068468	-0.063187
O4	O	-0.222402	0.568468	0.436813
O5	O	-0.830400	-0.005972	-0.063206
O6	O	-0.330400	0.494028	0.436794
O7	O	-0.817768	0.134782	-0.063231
O8	O	-0.317768	0.634782	0.436769
O9	O	-0.830381	-0.005976	0.062691
O10	O	-0.330381	0.494024	0.562691
O11	O	-0.722384	0.068464	0.062709
O12	O	-0.222384	0.568464	0.562709
O13	O	-0.925747	0.060339	0.062648
O14	O	-0.425747	0.560339	0.562648
Cu15	Cu	-0.824064	0.064401	0.074174
Cu16	Cu	-0.324064	0.564401	0.574174
Cu17	Cu	-0.824086	0.064405	-0.074714
Cu18	Cu	-0.324086	0.564405	0.425286
O19	O	-0.817749	0.134779	0.062666
O20	O	-0.317749	0.634779	0.562666
C21	C	-0.696384	0.068203	-0.000231
C22	C	-0.196384	0.568203	0.499769
C23	C	-0.618884	0.067413	-0.000207
C24	C	-0.118884	0.567413	0.499793
C25	C	-0.830126	-0.023982	-0.000255
C26	C	-0.330126	0.476018	0.499745
C27	C	-0.829327	-0.077639	-0.000249
C28	C	-0.329327	0.422361	0.499751
C29	C	-0.573682	0.111092	-0.000224
C30	C	-0.073682	0.611092	0.499776
C31	C	-0.500862	0.110351	-0.000229
C32	C	-0.000862	0.610351	0.499771
C33	C	-0.473249	0.065928	-0.000231
C34	C	0.026751	0.565928	0.499769
C35	C	-0.518462	0.022243	-0.000209
C36	C	-0.018462	0.522243	0.499791
C37	C	-0.591279	0.022986	-0.000197
C38	C	-0.091279	0.522986	0.499803
N39	N	-0.365492	0.031974	-0.043097
N40	N	0.134508	0.531974	0.456903
N41	N	-0.296318	0.031271	-0.043110
N42	N	0.203682	0.531271	0.456890
C43	C	-0.253855	0.063687	-0.000265
C44	C	0.246145	0.563687	0.499735
N45	N	-0.283177	0.096840	0.042585
N46	N	0.216823	0.596840	0.542585
N47	N	-0.352358	0.097544	0.042594
N48	N	0.147642	0.597544	0.542594
C49	C	-0.394292	0.065118	-0.000243
C50	C	0.105708	0.565118	0.499757
C51	C	-0.129693	0.106565	-0.000286
C52	C	0.370307	0.606565	0.499714
C53	C	-0.056872	0.105822	-0.000285
C54	C	0.443128	0.605822	0.499715
C55	C	-0.074473	0.017713	-0.000273
C56	C	0.425527	0.517713	0.499727
C57	C	-0.147292	0.018458	-0.000266
C58	C	0.352708	0.518458	0.499734
C59	C	-0.174897	0.062885	-0.000276
C60	C	0.325103	0.562885	0.499724
C61	C	-0.888120	-0.416275	-0.000306
C62	C	-0.388120	0.083725	0.499694
C63	C	-0.885158	-0.617944	-0.000315
C64	C	-0.385158	-0.117944	0.499685
O65	O	-0.938920	-0.649035	-0.000365
O66	O	-0.438920	-0.149035	0.499635
N67	N	-0.821119	-0.637263	-0.000295
N68	N	-0.321119	-0.137263	0.499705
C69	C	-0.757817	-0.606161	-0.000277
C70	C	-0.257817	-0.106161	0.499723
O71	O	-0.703281	-0.627221	-0.000268
O72	O	-0.203281	-0.127221	0.499732
C73	C	-0.760781	-0.404494	-0.000273
C74	C	-0.260781	0.095506	0.499727
C75	C	-0.824823	-0.385178	-0.000286
C76	C	-0.324823	0.114822	0.499714
C77	C	-0.952157	-0.396958	-0.000319
C78	C	-0.452157	0.103042	0.499681
C79	C	-0.952897	-0.346544	-0.000312
C80	C	-0.452897	0.153456	0.499688
C81	C	-0.889600	-0.315447	-0.000292
C82	C	-0.389600	0.184553	0.499708
C83	C	-0.825563	-0.334763	-0.000279
C84	C	-0.325563	0.165237	0.499721
C85	C	-0.697479	-0.373393	-0.000261
C86	C	-0.197479	0.126607	0.499739
C87	C	-0.698226	-0.322974	-0.000262
C88	C	-0.198226	0.177026	0.499738
C89	C	-0.762268	-0.303657	-0.000274
C90	C	-0.262268	0.196343	0.499726
C91	C	-0.763006	-0.253252	-0.000253
C92	C	-0.263006	0.246748	0.499747
N93	N	-0.827044	-0.233933	-0.000273
N94	N	-0.327044	0.266067	0.499727
C95	C	-0.890341	-0.265030	-0.000293
C96	C	-0.390341	0.234970	0.499707
C97	C	-0.756266	-0.712040	-0.000278
C98	C	-0.256266	-0.212040	0.499722
C99	C	-0.755525	-0.762457	-0.000278
C100	C	-0.255525	-0.262457	0.499722
C101	C	-0.882866	-0.774236	-0.000317
C102	C	-0.382866	-0.274236	0.499683
C103	C	-0.883606	-0.723818	-0.000312
C104	C	-0.383606	-0.223818	0.499688
C105	C	-0.820304	-0.692721	-0.000298
C106	C	-0.320304	-0.192721	0.499702
C107	C	-0.891890	-0.159156	-0.000278
C108	C	-0.391890	0.340844	0.499722
C109	C	-0.892624	-0.108737	-0.000269
C110	C	-0.392624	0.391263	0.499731
C111	C	-0.765284	-0.096962	-0.000234
C112	C	-0.265284	0.403038	0.499766
C113	C	-0.764549	-0.147377	-0.000239
C114	C	-0.264549	0.352623	0.499761
C115	C	-0.827858	-0.178473	-0.000264
C116	C	-0.327858	0.321527	0.499736
O117	O	-0.709272	-0.222132	-0.000212
O118	O	-0.209272	0.277868	0.499788
O119	O	-0.944869	-0.243961	-0.000319
O120	O	-0.444869	0.256039	0.499681
C121	C	-0.887380	-0.466689	-0.000312
C122	C	-0.387380	0.033311	0.499688
C123	C	-0.823343	-0.486006	-0.000299
C124	C	-0.323343	0.013994	0.499701
C125	C	-0.760046	-0.454908	-0.000279
C126	C	-0.260046	0.045092	0.499721
C127	C	-0.822602	-0.536423	-0.000298
C128	C	-0.322602	-0.036423	0.499702
C129	C	-0.885899	-0.567520	-0.000318
C130	C	-0.385899	-0.067520	0.499682
C131	C	-0.949937	-0.548201	-0.000338
C132	C	-0.449937	-0.048201	0.499662
C133	C	-0.950677	-0.497787	-0.000332
C134	C	-0.450677	0.002213	0.499668
C135	C	-0.696008	-0.474228	-0.000259
C136	C	-0.196008	0.025772	0.499741
C137	C	-0.695273	-0.524642	-0.000264
C138	C	-0.195273	-0.024642	0.499736
C139	C	-0.758570	-0.555740	-0.000284
C140	C	-0.258570	-0.055740	0.499716
C141	C	0.048235	0.060605	-0.000297
C142	C	0.548235	0.560605	0.499703
C143	C	-0.029264	0.061399	-0.000286
C144	C	0.470736	0.561399	0.499714
C145	C	-0.818024	0.152788	-0.000286
C146	C	-0.318024	0.652788	0.499714
C147	C	-0.818822	0.206446	-0.000298
C148	C	-0.318822	0.706446	0.499702
N149	N	-0.824053	0.064397	0.178893
N150	N	-0.324053	0.564397	0.678893
N151	N	-0.824102	0.064405	-0.179433
N152	N	-0.324102	0.564405	0.320567
C153	C	-0.871890	0.031451	0.218495
C154	C	-0.371890	0.531451	0.718495
C155	C	-0.871894	0.031449	0.297742
C156	C	-0.371894	0.531449	0.797742
C157	C	-0.824068	0.064401	0.337385
C158	C	-0.324068	0.564401	0.837385
C159	C	-0.776222	0.097349	0.297774
C160	C	-0.276222	0.597349	0.797774
C161	C	-0.776215	0.097347	0.218528
C162	C	-0.276215	0.597347	0.718528
N163	N	-0.814719	0.107191	0.461798
N164	N	-0.314719	0.607191	0.961798
N165	N	-0.814730	0.107191	0.537079
N166	N	-0.314730	0.607191	1.037079
C167	C	-0.824086	0.064408	0.576149
C168	C	-0.324086	0.564408	1.076149
N169	N	-0.833445	0.021622	0.537096
N170	N	-0.333445	0.521622	1.037096
N171	N	-0.833437	0.021623	0.461808
N172	N	-0.333437	0.521623	0.961808
C173	C	-0.824070	0.064406	0.423314
C174	C	-0.324070	0.564406	0.923314
C175	C	-0.871930	0.031456	0.701680
C176	C	-0.371930	0.531456	1.201680
C177	C	-0.871929	0.031453	0.780929
C178	C	-0.371929	0.531453	1.280929
C179	C	-0.776261	0.097358	0.780960
C180	C	-0.276261	0.597358	1.280960
C181	C	-0.776258	0.097357	0.701712
C182	C	-0.276258	0.597357	1.201712
C183	C	-0.824097	0.064406	0.662077
C184	C	-0.324097	0.564406	1.162077
H185	H	-0.596152	0.147268	-0.000234
H186	H	-0.096152	0.647268	0.499766
N187	N	-0.454688	0.154974	-0.000242
N188	N	0.045312	0.654974	0.499758
N189	N	-0.479345	0.194636	-0.000247
N190	N	0.020655	0.694636	0.499753
H191	H	-0.446737	0.226152	-0.000256
H192	H	0.053263	0.726152	0.499744
N193	N	-0.490271	-0.023138	-0.000220
N194	N	0.009729	0.476862	0.499780
N195	N	-0.530642	-0.062135	-0.000209
N196	N	-0.030642	0.437865	0.499791
H197	H	-0.510734	-0.094188	-0.000214
H198	H	-0.010734	0.405812	0.499786
N199	N	-0.629856	-0.544378	-0.000243
N200	N	-0.129856	-0.044378	0.499757
N201	N	-0.615221	-0.571206	0.052822
N202	N	-0.115221	-0.071206	0.552822
H203	H	-0.569022	-0.585144	0.052832
H204	H	-0.069022	-0.085144	0.552832
N205	N	-0.157897	0.151944	-0.000270
N206	N	0.342103	0.651944	0.499730
N207	N	-0.196539	0.162182	0.052805
N208	N	0.303461	0.662182	0.552805
H209	H	-0.216457	0.194231	0.052819
H210	H	0.283543	0.694231	0.552819
N211	N	-0.010706	0.150446	-0.000294
N212	N	0.489294	0.650446	0.499706
N213	N	-0.035367	0.190107	-0.000301
N214	N	0.464633	0.690107	0.499699
H215	H	-0.002761	0.221624	-0.000306
H216	H	0.497239	0.721624	0.499694
N217	N	-0.920786	-0.002203	0.821395
N218	N	-0.420786	0.497797	1.321395
N219	N	-0.963954	0.013053	0.865600
N220	N	-0.463954	0.513053	1.365600
H221	H	-0.998454	-0.010719	0.894185
H222	H	-0.498454	0.489281	1.394185
N223	N	-0.727352	0.131012	0.178085
N224	N	-0.227352	0.631012	0.678085
N225	N	-0.727823	0.175689	0.186923
N226	N	-0.227823	0.675689	0.686923
H227	H	-0.693314	0.199467	0.158360
H228	H	-0.193314	0.699467	0.658360
H229	H	-0.943442	-0.184469	-0.000302
H230	H	-0.443442	0.315531	0.499698
H231	H	-0.704715	-0.686725	-0.000267
H232	H	-0.204715	-0.186725	0.499733
H233	H	-0.628084	-0.012584	-0.000183
H234	H	-0.128084	0.487416	0.499817
H235	H	-0.737317	0.124186	0.813236
H236	H	-0.237317	0.624186	1.313236
N237	N	-0.920710	-0.002263	0.661200
N238	N	-0.420710	0.497737	1.161200
N239	N	-0.963358	-0.031721	0.696573
N240	N	-0.463358	0.468279	1.196573
H241	H	-0.997778	-0.055559	0.667987
H242	H	-0.497778	0.444441	1.167987
H243	H	-0.713749	-0.071634	-0.000215
H244	H	-0.213749	0.428366	0.499785
N245	N	-0.727389	0.131014	0.661267
N246	N	-0.227389	0.631014	1.161267
N247	N	-0.684687	0.160432	0.696668
N248	N	-0.184687	0.660432	1.196668
H249	H	-0.650169	0.184203	0.668105
H250	H	-0.150169	0.684203	1.168105
H251	H	-0.184097	-0.017110	-0.000256
H252	H	0.315903	0.482890	0.499744
H253	H	-0.051991	-0.018457	-0.000322
H254	H	0.448009	0.481543	0.499678
N255	N	-0.947522	-0.806007	-0.000358
N256	N	-0.447522	-0.306007	0.499642
N257	N	-0.990236	-0.804318	-0.053448
N258	N	-0.490236	-0.304318	0.446552
H259	H	-1.035897	-0.826758	-0.053483
H260	H	-0.535897	-0.326758	0.446517
H261	H	-0.944777	-0.093013	-0.000277
H262	H	-0.444777	0.406987	0.499723
N263	N	-1.018322	-0.326825	-0.000328
N264	N	-0.518322	0.173175	0.499672
N265	N	-1.074827	-0.354604	-0.000349
N266	N	-0.574827	0.145396	0.499651
H267	H	-1.121037	-0.340682	-0.000362
H268	H	-0.621037	0.159318	0.499638
H269	H	-0.910849	0.004619	0.329992
H270	H	-0.410849	0.504619	0.829992
H271	H	-0.646677	-0.297656	-0.000252
H272	H	-0.146677	0.202344	0.499748
N273	N	-1.016826	-0.428712	-0.000344
N274	N	-0.516826	0.071288	0.499656
N275	N	-1.073992	-0.411449	-0.000359
N276	N	-0.573992	0.088551	0.499641
H277	H	-1.119669	-0.433872	-0.000372
H278	H	-0.619669	0.066128	0.499628
N279	N	-0.949029	-0.704097	-0.000321
N280	N	-0.449029	-0.204097	0.499679
N281	N	-1.005536	-0.731874	-0.000333
N282	N	-0.505536	-0.231874	0.499667
H283	H	-1.051745	-0.717950	-0.000340
H284	H	-0.551745	-0.217950	0.499660
N285	N	-0.690101	-0.782177	-0.000247
N286	N	-0.190101	-0.282177	0.499753
N287	N	-0.633594	-0.754400	-0.000229
N288	N	-0.133594	-0.254400	0.499771
H289	H	-0.587385	-0.768324	-0.000210
H290	H	-0.087385	-0.268324	0.499790
H291	H	-0.645329	-0.389111	-0.000255
H292	H	-0.145329	0.110889	0.499745
N293	N	-0.699127	-0.167103	-0.000203
N294	N	-0.199127	0.332897	0.499797
N295	N	-0.642617	-0.139329	-0.000174
N296	N	-0.142617	0.360671	0.499826
H297	H	-0.596411	-0.153257	-0.000150
H298	H	-0.096411	0.346743	0.499850
N299	N	-1.016102	-0.478068	-0.000342
N300	N	-0.516102	0.021932	0.499658
N301	N	-1.072607	-0.505847	-0.000359
N302	N	-0.572607	-0.005847	0.499641
H303	H	-1.118817	-0.491924	-0.000366
H304	H	-0.618817	0.008076	0.499634
N305	N	-0.631341	-0.442473	-0.000241
N306	N	-0.131341	0.057527	0.499759
N307	N	-0.574174	-0.459734	-0.000224
N308	N	-0.074174	0.040266	0.499776
H309	H	-0.528498	-0.437310	-0.000208
H310	H	-0.028498	0.062690	0.499792
H311	H	-1.001476	-0.573530	-0.000351
H312	H	-0.501476	-0.073530	0.499649
H313	H	-0.910841	0.004620	0.186226
H314	H	-0.410841	0.504620	0.686226
N315	N	-0.727369	0.131003	0.338276
N316	N	-0.227369	0.631003	0.838276
N317	N	-0.727382	0.131000	0.409031
N318	N	-0.227382	0.631000	0.909031
H319	H	-0.692876	0.154767	0.437636
H320	H	-0.192876	0.654767	0.937636
