data_functionalizedCrystal
_audit_creation_method	'MofGen! by Chris Wilmer'
_symmetry_space_group_name_H-M	'P1'
_symmetry_Int_Tables_number	1
_symmetry_cell_setting	triclinic
loop_
_symmetry_equiv_pos_as_xyz
  x,y,z
_cell_length_a	14.519709
_cell_length_b	15.944493
_cell_length_c	13.596369
_cell_angle_alpha	89.999885
_cell_angle_beta	90.000291
_cell_angle_gamma	83.577594
loop_
_atom_site_label
_atom_site_type_symbol
_atom_site_fract_x
_atom_site_fract_y
_atom_site_fract_z
O1	O	1.223651	0.110112	-0.081650
O2	O	1.723651	0.610112	0.418350
O3	O	0.955148	0.123079	-0.081679
O4	O	1.455148	0.623079	0.418321
O5	O	1.096759	-0.005672	-0.081672
O6	O	1.596759	0.494328	0.418328
O7	O	1.082039	0.238863	-0.081657
O8	O	1.582039	0.738863	0.418343
O9	O	1.096745	-0.005679	0.081911
O10	O	1.596745	0.494321	0.581911
O11	O	0.955134	0.123072	0.081904
O12	O	1.455134	0.623072	0.581904
O13	O	1.223637	0.110105	0.081933
O14	O	1.723637	0.610105	0.581933
Zn15	Zn	1.089383	0.116587	0.107891
Zn16	Zn	1.589383	0.616587	0.607891
Zn17	Zn	1.089402	0.116596	-0.107637
Zn18	Zn	1.589402	0.616596	0.392363
O19	O	1.082025	0.238856	0.081926
O20	O	1.582025	0.738856	0.581926
C21	C	0.920783	0.122471	0.000109
C22	C	1.420783	0.622471	0.500109
C23	C	0.818405	0.120660	0.000097
C24	C	1.318405	0.620660	0.500097
C25	C	0.443522	0.113994	0.000142
C26	C	0.943522	0.613994	0.500142
C27	C	0.547826	0.115845	0.000129
C28	C	1.047826	0.615845	0.500129
C29	C	0.630960	0.117327	0.000119
C30	C	1.130960	0.617327	0.500119
C31	C	0.735271	0.119178	0.000108
C32	C	1.235271	0.619178	0.500108
C33	C	1.096151	-0.036971	0.000115
C34	C	1.596151	0.463029	0.500115
C35	C	1.094347	-0.130222	0.000103
C36	C	1.594347	0.369778	0.500103
C37	C	1.177703	-0.365861	0.000130
C38	C	1.677703	0.134139	0.500130
C39	C	1.132759	-0.416491	-0.080529
C40	C	1.632759	0.083509	0.419471
C41	C	1.091005	-0.300948	0.000114
C42	C	1.591005	0.199052	0.500114
C43	C	1.132725	-0.416474	0.080751
C44	C	1.632725	0.083526	0.580751
C45	C	1.087783	-0.465863	0.000130
C46	C	1.587783	0.034137	0.500130
C47	C	1.046085	-0.350350	-0.080611
C48	C	1.546085	0.149650	0.419389
C49	C	1.046063	-0.350329	0.080741
C50	C	1.546063	0.149671	0.580741
C51	C	1.001056	-0.400926	0.000062
C52	C	1.501056	0.099074	0.500062
C53	C	1.092863	-0.205946	0.000105
C54	C	1.592863	0.294054	0.500105
C55	C	1.085918	-0.560862	0.000133
C56	C	1.585918	-0.060862	0.500133
C57	C	1.258002	0.110713	0.000143
C58	C	1.758002	0.610713	0.500143
C59	C	1.360380	0.112524	0.000148
C60	C	1.860380	0.612524	0.500148
C61	C	1.082634	0.270155	0.000137
C62	C	1.582634	0.770155	0.500137
C63	C	1.084438	0.363406	0.000143
C64	C	1.584438	0.863406	0.500143
N65	N	1.089377	0.116581	0.254983
N66	N	1.589377	0.616581	0.754983
N67	N	1.089415	0.116596	-0.254729
N68	N	1.589415	0.616596	0.245271
C69	C	1.089400	0.116597	0.656274
C70	C	1.589400	0.616597	1.156274
C71	C	1.089391	0.116596	0.544622
C72	C	1.589391	0.616596	1.044622
C73	C	1.089389	0.116590	0.455632
C74	C	1.589389	0.616590	0.955632
C75	C	1.089379	0.116587	0.343973
C76	C	1.589379	0.616587	0.843973
H77	H	1.169379	-0.445381	-0.148713
H78	H	1.669379	0.054619	0.351287
O79	O	0.997631	-0.312255	-0.171046
O80	O	1.497631	0.187745	0.328954
H81	H	0.999406	-0.242844	-0.170362
H82	H	1.499406	0.257156	0.329638
H83	H	1.252382	-0.350125	0.000057
H84	H	1.752382	0.149875	0.500057
O85	O	0.902053	-0.421541	0.000020
O86	O	1.402053	0.078459	0.500020
H87	H	0.866292	-0.394802	-0.066991
H88	H	1.366292	0.105198	0.433009
O89	O	1.181230	-0.454709	0.171087
O90	O	1.681230	0.045291	0.671087
H91	H	1.131683	-0.487162	0.215425
H92	H	1.631683	0.012838	0.715425
H93	H	1.009475	-0.321425	0.148928
H94	H	1.509475	0.178575	0.648928
