data_functionalizedCrystal
_audit_creation_method	'MofGen! by Chris Wilmer'
_symmetry_space_group_name_H-M	'P1'
_symmetry_Int_Tables_number	1
_symmetry_cell_setting	triclinic
loop_
_symmetry_equiv_pos_as_xyz
  x,y,z
_cell_length_a	21.295418
_cell_length_b	18.050590
_cell_length_c	18.050582
_cell_angle_alpha	89.986992
_cell_angle_beta	89.965893
_cell_angle_gamma	90.023858
loop_
_atom_site_label
_atom_site_type_symbol
_atom_site_fract_x
_atom_site_fract_y
_atom_site_fract_z
Zn1	Zn	0.962394	-0.295393	-0.420342
Zn2	Zn	0.962356	-0.419576	-0.296173
Zn3	Zn	0.857135	-0.295439	-0.296125
Zn4	Zn	0.857128	-0.419580	-0.420280
O5	O	0.909753	-0.357497	-0.358230
O6	O	1.050478	-0.311845	-0.403917
O7	O	0.948385	-0.403127	-0.192242
O8	O	0.871117	-0.191508	-0.312608
O9	O	1.050450	-0.403082	-0.312690
O10	O	0.948450	-0.191475	-0.403870
O11	O	0.871080	-0.311924	-0.192206
O12	O	0.769045	-0.311927	-0.312548
O13	O	0.871105	-0.403089	-0.524213
O14	O	0.769040	-0.403133	-0.403764
O15	O	0.948444	-0.311849	-0.524259
O16	O	0.948378	-0.523501	-0.312630
O17	O	0.871068	-0.523504	-0.403811
C18	C	0.746202	-0.357536	-0.358144
C19	C	0.676233	-0.357571	-0.358125
C20	C	0.909735	-0.550449	-0.358235
C21	C	0.909785	-0.632995	-0.358262
C22	C	0.909778	-0.357464	-0.551936
C23	C	0.909788	-0.357450	-0.634481
C24	C	0.643381	-0.405125	-0.405551
C25	C	0.577638	-0.405106	-0.405584
C26	C	0.544751	-0.357542	-0.358179
C27	C	0.577612	-0.309979	-0.310750
C28	C	0.643353	-0.309993	-0.310724
N29	N	0.441482	-0.351735	-0.293223
N30	N	0.379031	-0.351726	-0.293250
C31	C	0.346676	-0.357495	-0.358258
N32	N	0.379132	-0.363288	-0.423238
N33	N	0.441590	-0.363301	-0.423210
C34	C	0.473466	-0.357521	-0.358203
C35	C	0.242538	-0.405031	-0.405723
C36	C	0.176794	-0.405008	-0.405758
C37	C	0.176769	-0.309884	-0.310917
C38	C	0.242511	-0.309904	-0.310889
C39	C	0.275392	-0.357481	-0.358291
C40	C	1.073943	-0.357458	-0.358316
C41	C	1.143912	-0.357442	-0.358353
C42	C	0.909789	-0.163791	-0.358241
C43	C	0.909804	-0.081246	-0.358246
C44	C	0.951856	0.118223	-0.407890
C45	C	0.967244	0.167609	-0.340145
C46	C	0.909798	0.069885	-0.358250
C47	C	0.894433	0.167581	-0.425996
C48	C	0.909793	0.215870	-0.358259
C49	C	0.925215	0.118183	-0.290469
C50	C	0.852378	0.118151	-0.376366
C51	C	0.867744	0.167514	-0.308575
C52	C	0.909802	-0.014214	-0.358245
C53	C	0.909788	0.299966	-0.358256
C54	C	0.867764	-0.406998	-0.833907
C55	C	0.925200	-0.425133	-0.883324
C56	C	0.909819	-0.357393	-0.785612
C57	C	0.852414	-0.339238	-0.883277
C58	C	0.909844	-0.357340	-0.931597
C59	C	0.967286	-0.375564	-0.833942
C60	C	0.894461	-0.289637	-0.833890
C61	C	0.951938	-0.307746	-0.883284
C62	C	0.909804	-0.357426	-0.701514
C63	C	0.909866	-0.357307	-1.015694
C64	C	0.909765	-0.357476	-0.165278
C65	C	0.909876	-0.357281	-0.082732
H66	H	0.670148	-0.443865	-0.444150
H67	H	0.149993	-0.271153	-0.272322
O68	O	0.940819	-0.493413	-0.909276
C69	C	0.995946	-0.488250	-0.952269
H70	H	1.023379	-0.436702	-0.935411
H71	H	0.982903	-0.484359	-1.013392
C72	C	1.003035	-0.620814	-0.960143
C73	C	1.036730	-0.557504	-0.939433
H74	H	1.028191	-0.663534	-0.952229
H75	H	0.965893	-0.624293	-0.931181
H76	H	0.992167	-0.617561	-1.011078
H77	H	1.047590	-0.560754	-0.888498
H78	H	1.073875	-0.554027	-0.968387
H79	H	0.150047	-0.443730	-0.444382
O80	O	0.794505	-0.320809	-0.909094
C81	C	0.777965	-0.249900	-0.882810
H82	H	0.822333	-0.217721	-0.868199
H83	H	0.747271	-0.255743	-0.831370
C84	C	0.686929	-0.247537	-0.961270
C85	C	0.741424	-0.208013	-0.943331
H86	H	0.664387	-0.221700	-0.998600
H87	H	0.698071	-0.295312	-0.978976
H88	H	0.661359	-0.252404	-0.918398
H89	H	0.766997	-0.203155	-0.986200
H90	H	0.730285	-0.160236	-0.925633
H91	H	0.987554	-0.265774	-0.904828
H92	H	0.938269	0.096575	-0.233166
O93	O	0.878856	-0.221385	-0.807867
C94	C	0.824363	-0.226809	-0.763793
H95	H	0.819436	-0.285868	-0.742164
H96	H	0.781450	-0.212047	-0.798512
C97	C	0.835515	-0.100356	-0.724529
C98	C	0.829467	-0.172893	-0.697959
H99	H	0.838661	-0.067096	-0.683921
H100	H	0.872227	-0.096701	-0.754225
H101	H	0.799753	-0.088066	-0.753461
H102	H	0.865232	-0.185185	-0.669035
H103	H	0.792761	-0.176549	-0.668256
H104	H	0.987452	0.096580	-0.449812
O105	O	1.025187	-0.393961	-0.808079
C106	C	1.024471	-0.393781	-0.729972
H107	H	0.974303	-0.402058	-0.709506
H108	H	1.043176	-0.338510	-0.708827
C109	C	1.127811	-0.446897	-0.726002
C110	C	1.066193	-0.457070	-0.700864
H111	H	1.153549	-0.485934	-0.708045
H112	H	1.128294	-0.447016	-0.778623
H113	H	1.143389	-0.400836	-0.708379
H114	H	1.050614	-0.503125	-0.718495
H115	H	1.065708	-0.456959	-0.648245
H116	H	0.550884	-0.443830	-0.444206
H117	H	0.269261	-0.271184	-0.272267
O118	O	1.025207	0.193497	-0.321986
C119	C	1.069413	0.168375	-0.374442
H120	H	1.044387	0.154509	-0.428504
H121	H	1.093849	0.116712	-0.352365
C122	C	1.149238	0.246480	-0.322139
C123	C	1.118500	0.229456	-0.388540
H124	H	1.179519	0.284156	-0.330833
H125	H	1.119456	0.263404	-0.286795
H126	H	1.169596	0.203423	-0.303748
H127	H	1.098137	0.272510	-0.406925
H128	H	1.148280	0.212541	-0.423887
O129	O	0.825382	0.193144	-0.258345
C130	C	0.841803	0.167821	-0.187047
H131	H	0.894030	0.154060	-0.185662
H132	H	0.813428	0.116054	-0.173235
C133	C	0.763377	0.245581	-0.131395
C134	C	0.827524	0.228685	-0.129692
H135	H	0.754566	0.283122	-0.096014
H136	H	0.752311	0.262639	-0.179429
H137	H	0.739738	0.202436	-0.119887
H138	H	0.851161	0.271826	-0.141208
H139	H	0.838593	0.211635	-0.081657
H140	H	0.881440	0.189281	-0.483284
O141	O	0.545642	-0.263884	-0.264617
C142	C	0.507547	-0.306094	-0.216608
H143	H	0.527326	-0.364582	-0.211923
H144	H	0.457738	-0.308673	-0.239582
C145	C	0.482205	-0.197871	-0.145216
C146	C	0.506502	-0.269706	-0.139457
H147	H	0.481557	-0.175425	-0.097626
H148	H	0.507868	-0.169433	-0.177562
H149	H	0.440700	-0.200031	-0.164364
H150	H	0.548008	-0.267546	-0.120319
H151	H	0.480845	-0.298144	-0.107106
O152	O	0.675241	-0.263881	-0.264542
C153	C	0.659095	-0.279992	-0.190506
H154	H	0.640985	-0.339310	-0.186670
H155	H	0.620942	-0.240137	-0.171174
C156	C	0.739702	-0.198444	-0.145643
C157	C	0.717464	-0.271302	-0.140930
H158	H	0.775705	-0.193081	-0.115061
H159	H	0.750578	-0.187587	-0.195522
H160	H	0.707902	-0.165240	-0.129534
H161	H	0.749261	-0.304504	-0.157047
H162	H	0.706594	-0.282164	-0.091052
O163	O	0.274385	-0.451261	-0.451844
C164	C	0.231287	-0.493238	-0.493705
H165	H	0.184443	-0.462811	-0.496344
H166	H	0.224243	-0.549604	-0.466426
C167	C	0.314539	-0.541422	-0.569477
C168	C	0.257005	-0.504048	-0.572723
H169	H	0.330403	-0.548094	-0.618218
H170	H	0.343575	-0.513144	-0.541273
H171	H	0.308661	-0.588390	-0.546741
H172	H	0.262885	-0.457079	-0.595450
H173	H	0.227970	-0.532319	-0.600933
H174	H	0.832232	-0.449003	-0.812228
H175	H	0.803835	0.096413	-0.391709
