data_functionalizedCrystal
_audit_creation_method	'MofGen! by Chris Wilmer'
_symmetry_space_group_name_H-M	'P1'
_symmetry_Int_Tables_number	1
_symmetry_cell_setting	triclinic
loop_
_symmetry_equiv_pos_as_xyz
  x,y,z
_cell_length_a	19.377369
_cell_length_b	27.440280
_cell_length_c	19.377372
_cell_angle_alpha	90.000814
_cell_angle_beta	62.058157
_cell_angle_gamma	48.634130
loop_
_atom_site_label
_atom_site_type_symbol
_atom_site_fract_x
_atom_site_fract_y
_atom_site_fract_z
Zr1	Zr	0.759386	0.381816	0.055869
O2	O	0.943830	0.268766	-0.042074
O3	O	0.607573	0.425680	0.064538
O4	O	0.806418	0.383725	-0.072854
O5	O	0.696506	0.333341	0.227989
O6	O	0.806400	0.463932	-0.072841
O7	O	0.744985	0.310721	0.095318
O8	O	0.450701	0.538981	0.172929
O9	O	1.052205	0.258291	-0.017780
O10	O	0.657916	0.493119	0.094048
O11	O	0.621752	0.450143	0.193048
O12	O	0.855866	0.400747	0.031287
O13	O	0.819701	0.357770	0.130287
Zr14	Zr	0.682039	0.545812	0.267487
Zr15	Zr	0.759356	0.509736	0.055891
Zr16	Zr	0.682069	0.417892	0.267465
Zr17	Zr	0.932231	0.365110	0.094615
Zr18	Zr	0.509194	0.562518	0.228741
O19	O	0.833852	0.501948	0.258818
O20	O	0.943788	0.450653	-0.042043
O21	O	0.833895	0.320062	0.258787
O22	O	0.497595	0.658862	0.365430
O23	O	0.607530	0.607566	0.064569
O24	O	0.497637	0.476975	0.365399
O25	O	0.744919	0.594287	0.095367
O26	O	0.635007	0.543903	0.396210
O27	O	0.635025	0.463696	0.396197
O28	O	0.696440	0.616907	0.228038
O29	O	1.052181	0.359971	-0.017763
O30	O	0.389244	0.567657	0.341119
O31	O	0.389220	0.669337	0.341137
O32	O	0.450678	0.640661	0.172947
O33	O	0.990747	0.286967	0.150409
O34	O	0.990724	0.388647	0.150427
O35	O	0.585559	0.526881	0.292070
O36	O	0.621723	0.569858	0.193069
O37	O	0.819673	0.477485	0.130308
O38	O	0.783508	0.434509	0.229309
C39	C	0.504510	0.484711	0.113213
C40	C	0.431134	0.491803	0.096765
C41	C	0.095006	0.403263	0.301334
C42	C	0.025940	0.410021	0.285949
C43	C	0.063703	0.454885	0.182600
C44	C	0.132769	0.448135	0.197980
C45	C	0.148415	0.422322	0.257347
C46	C	0.186178	0.467194	0.153992
C47	C	0.255242	0.460440	0.169368
C48	C	0.270897	0.434627	0.228731
C49	C	0.217479	0.415568	0.272723
C50	C	0.170537	0.493001	0.094621
C51	C	0.223946	0.512060	0.050633
C52	C	0.293005	0.505311	0.066013
C53	C	0.308660	0.479498	0.125376
C54	C	0.346423	0.524369	0.022021
C55	C	0.415487	0.517615	0.037397
C56	C	0.377724	0.472744	0.140752
C57	C	0.720750	0.303805	0.161651
C58	C	0.720763	0.249499	0.161641
C59	C	0.617359	-0.038964	0.194462
C60	C	0.617351	-0.089980	0.194470
O61	O	0.529464	-0.075356	0.222362
N62	N	0.720678	-0.163715	0.161708
C63	C	0.824018	-0.186432	0.128945
O64	O	0.911904	-0.253833	0.101080
C65	C	0.824023	-0.135415	0.128943
C66	C	0.720692	-0.061681	0.161699
C67	C	0.514036	0.034766	0.227216
C68	C	0.514046	0.085778	0.227207
C69	C	0.617378	0.063061	0.194444
C70	C	0.720701	-0.010669	0.161690
C71	C	0.927359	-0.158131	0.096186
C72	C	0.927355	-0.107106	0.096188
C73	C	0.824024	-0.033373	0.128944
C74	C	0.824043	0.017626	0.128918
N75	N	0.720715	0.091361	0.161679
C76	C	0.617383	0.114078	0.194443
C77	C	0.823999	-0.293567	0.128952
C78	C	0.823997	-0.344585	0.128947
C79	C	0.617329	-0.248130	0.194474
C80	C	0.617334	-0.197112	0.194472
C81	C	0.720671	-0.219833	0.161714
C82	C	0.617411	0.221204	0.194420
C83	C	0.617430	0.272216	0.194404
C84	C	0.824096	0.175758	0.128882
C85	C	0.824078	0.124749	0.128893
C86	C	0.720725	0.147478	0.161668
O87	O	0.911884	0.003056	0.101043
O88	O	0.529507	0.181481	0.222313
C89	C	0.936914	0.442917	0.210143
C90	C	1.010291	0.435825	0.226592
C91	C	0.817425	0.418688	-0.102995
C92	C	0.850248	0.403373	-0.192823
C93	C	0.720675	0.623823	0.161706
C94	C	0.720662	0.678129	0.161715
C95	C	0.441573	0.594070	-0.324456
C96	C	0.472443	0.579664	-0.408871
C97	C	0.679088	0.483233	-0.474379
C98	C	0.648235	0.497634	-0.389968
C99	C	0.529476	0.553053	-0.315011
C100	C	0.736138	0.456617	-0.380524
C101	C	0.705288	0.471014	-0.296119
C102	C	0.586534	0.526429	-0.221159
C103	C	0.498626	0.567450	-0.230607
C104	C	0.854897	0.401195	-0.455481
C105	C	0.942799	0.360178	-0.446037
C106	C	0.911949	0.374578	-0.361631
C107	C	0.793196	0.429993	-0.286672
C108	C	0.999858	0.333557	-0.352184
C109	C	0.969008	0.347954	-0.267779
C110	C	0.762346	0.444390	-0.202267
C111	C	0.624000	0.508940	0.426351
C112	C	0.591177	0.524255	0.516179
C113	C	0.504473	0.644720	0.113241
C114	C	0.431083	0.706118	0.096801
C115	C	0.407798	0.529837	0.377886
C116	C	0.301598	0.552244	0.451266
C117	C	0.407760	0.689846	0.377914
C118	C	0.301547	0.766559	0.451302
C119	C	1.033665	0.237782	-0.054558
C120	C	1.139878	0.161069	-0.127946
C121	C	0.936952	0.282908	0.210115
C122	C	1.010342	0.221510	0.226555
C123	C	1.033627	0.397792	-0.054530
C124	C	1.139827	0.375384	-0.127909
C125	C	0.415514	0.694893	0.037384
C126	C	0.346574	0.752573	0.021920
C127	C	0.293196	0.821480	0.065879
C128	C	0.308772	0.832703	0.125299
C129	C	0.377718	0.775022	0.140757
C130	C	0.232829	0.602825	0.537422
C131	C	0.133049	0.623877	0.606380
C132	C	0.102035	0.594352	0.589178
C133	C	0.170814	0.543765	0.503013
C134	C	0.270597	0.522709	0.434058
C135	C	0.270546	0.825023	0.434089
C136	C	0.170760	0.897105	0.503039
C137	C	0.101972	0.910723	0.589201
C138	C	0.132981	0.852252	0.606414
C139	C	0.232770	0.780171	0.537466
C140	C	1.170887	0.102604	-0.110731
C141	C	1.270694	0.030520	-0.179677
C142	C	1.339486	0.016902	-0.265838
C143	C	1.308473	0.075373	-0.283052
C144	C	1.208672	0.147456	-0.214106
C145	C	1.025921	0.232733	0.285964
C146	C	1.094889	0.175047	0.301409
C147	C	1.148270	0.106140	0.257448
C148	C	1.132690	0.094917	0.198032
C149	C	1.063730	0.152601	0.182583
C150	C	1.170808	0.404923	-0.110681
C151	C	1.270582	0.383883	-0.179622
C152	C	1.339379	0.333300	-0.265791
C153	C	1.308391	0.303761	-0.283019
C154	C	1.208614	0.324805	-0.214079
H155	H	-0.017543	0.394497	0.321770
H156	H	1.114882	0.113680	-0.040581
Br157	Br	0.039725	0.692532	0.723308
Br158	Br	0.199628	0.899755	0.044889
H159	H	1.183429	0.195057	-0.228134
Br160	Br	0.953492	0.326243	0.345635
Br161	Br	1.241857	0.027860	0.278425
H162	H	1.420747	-0.041796	-0.321970
H163	H	0.265302	0.888815	0.161086
H164	H	0.333903	0.743421	-0.026463
H165	H	0.257997	0.732572	0.551493
H166	H	0.533192	-0.229640	0.221148
H167	H	1.107559	0.184199	0.349794
H168	H	0.908227	0.157271	0.102204
H169	H	0.258066	0.626872	0.551445
H170	H	0.533190	-0.137076	0.221154
H171	H	0.326542	0.813948	0.363937
H172	H	0.458980	0.638788	0.001575
Br173	Br	1.401844	0.056879	-0.399991
H174	H	0.145547	0.519729	0.489020
H175	H	1.039492	0.315055	-0.507077
Br176	Br	1.166591	0.284702	-0.237475
Br177	Br	0.128698	0.976446	0.479658
Br178	Br	-0.033454	1.008554	0.682766
H179	H	1.295926	-0.017081	-0.165644
Br180	Br	1.205141	0.001396	0.138380
Br181	Br	0.398953	0.437721	0.221331
H182	H	0.775781	0.438110	-0.535419
H183	H	0.400853	0.613067	-0.416552
H184	H	1.051048	0.143454	0.134208
Br185	Br	0.896766	0.381653	-0.570032
Br186	Br	1.077461	0.473574	0.006255
H187	H	1.295799	0.407941	-0.165577
Br188	Br	0.363912	0.454063	0.317132
Br189	Br	1.401779	0.235105	-0.399965
Br190	Br	1.474791	0.304746	-0.359343
H191	H	0.230218	0.394550	0.321066
Br192	Br	0.116234	0.368241	0.381914
Br193	Br	0.042469	0.489910	0.102027
H194	H	0.114306	0.498494	0.082099
Br195	Br	-0.033389	0.622935	0.682771
H196	H	0.327140	0.429124	0.241245
Br197	Br	0.202712	0.547084	-0.029939
H198	H	0.390381	0.784173	0.189145
Br199	Br	0.039613	0.870746	0.723354
H200	H	0.333684	0.545379	-0.026322
H201	H	0.533282	0.332256	0.221081
Br202	Br	0.487981	0.543477	-0.022303
H203	H	0.533251	0.239721	0.221109
H204	H	0.429885	0.053276	0.253900
Br205	Br	0.373801	0.185842	0.271671
H206	H	0.561418	0.538146	-0.152433
Br207	Br	0.964258	-0.324415	0.084482
Br208	Br	1.067600	-0.258188	0.051737
Br209	Br	0.964244	-0.444651	0.084473
Br210	Br	1.088304	0.292296	-0.254957
Br211	Br	1.067604	-0.137947	0.051732
H212	H	0.908223	0.064708	0.102208
Br213	Br	0.337451	0.642687	-0.128872
Br214	Br	0.280398	0.669307	-0.222721
Br215	Br	0.601171	0.519627	-0.100533
Br216	Br	1.161024	0.258337	-0.453917
