data_functionalizedCrystal
_audit_creation_method	'MofGen! by Chris Wilmer'
_symmetry_space_group_name_H-M	'P1'
_symmetry_Int_Tables_number	1
_symmetry_cell_setting	triclinic
loop_
_symmetry_equiv_pos_as_xyz
  x,y,z
_cell_length_a	14.044220
_cell_length_b	14.044220
_cell_length_c	13.101018
_cell_angle_alpha	86.320065
_cell_angle_beta	86.337807
_cell_angle_gamma	86.811123
loop_
_atom_site_label
_atom_site_type_symbol
_atom_site_fract_x
_atom_site_fract_y
_atom_site_fract_z
O1	O	1.272353	-0.234994	0.085219
O2	O	1.522353	0.015006	0.335219
O3	O	1.772353	0.265006	0.585219
O4	O	2.022353	0.515006	0.835219
O5	O	0.995682	-0.226689	0.085221
O6	O	1.245682	0.023311	0.335221
O7	O	1.495682	0.273311	0.585221
O8	O	1.745682	0.523311	0.835221
O9	O	1.129865	-0.092505	0.085210
O10	O	1.379865	0.157495	0.335210
O11	O	1.629865	0.407495	0.585210
O12	O	1.879865	0.657495	0.835210
O13	O	1.138170	-0.369178	0.085230
O14	O	1.388170	-0.119178	0.335230
O15	O	1.638170	0.130822	0.585230
O16	O	1.888170	0.380822	0.835230
O17	O	1.139481	-0.082847	-0.085221
O18	O	1.389481	0.167153	0.164779
O19	O	1.639481	0.417153	0.414779
O20	O	1.889481	0.667153	0.664779
O21	O	1.005298	-0.217030	-0.085210
O22	O	1.255298	0.032970	0.164790
O23	O	1.505298	0.282970	0.414790
O24	O	1.755298	0.532970	0.664790
O25	O	1.281969	-0.225336	-0.085212
O26	O	1.531969	0.024664	0.164788
O27	O	1.781969	0.274664	0.414788
O28	O	2.031969	0.524664	0.664788
Zn29	Zn	1.145160	-0.219649	-0.112271
Zn30	Zn	1.395160	0.030351	0.137729
Zn31	Zn	1.645160	0.280351	0.387729
Zn32	Zn	1.895160	0.530351	0.637729
Zn33	Zn	1.132491	-0.232375	0.112279
Zn34	Zn	1.382491	0.017625	0.362279
Zn35	Zn	1.632491	0.267625	0.612279
Zn36	Zn	1.882491	0.517625	0.862279
O37	O	1.147786	-0.359519	-0.085201
O38	O	1.397786	-0.109519	0.164799
O39	O	1.647786	0.140481	0.414799
O40	O	1.897786	0.390481	0.664799
C41	C	0.964868	-0.218224	0.000006
C42	C	1.214868	0.031776	0.250006
C43	C	1.464868	0.281776	0.500006
C44	C	1.714868	0.531776	0.750006
C45	C	0.858725	-0.207379	0.000006
C46	C	1.108725	0.042621	0.250006
C47	C	1.358725	0.292621	0.500006
C48	C	1.608725	0.542621	0.750006
C49	C	1.312783	-0.233801	0.000005
C50	C	1.562783	0.016199	0.250005
C51	C	1.812783	0.266199	0.500005
C52	C	2.062783	0.516199	0.750005
C53	C	1.418925	-0.244646	0.000011
C54	C	1.668925	0.005354	0.250011
C55	C	1.918925	0.255354	0.500011
C56	C	2.168925	0.505354	0.750011
C57	C	1.131038	-0.052054	-0.000006
C58	C	1.381038	0.197946	0.249994
C59	C	1.631038	0.447946	0.499994
C60	C	1.881038	0.697946	0.749994
C61	C	1.120193	0.054089	-0.000007
C62	C	1.370193	0.304089	0.249993
C63	C	1.620193	0.554089	0.499993
C64	C	1.870193	0.804089	0.749993
C65	C	1.613263	-0.264472	0.000012
C66	C	1.863263	-0.014472	0.250012
C67	C	2.113263	0.235528	0.500012
C68	C	2.363263	0.485528	0.750012
C69	C	1.664393	-0.187557	0.000006
C70	C	1.914393	0.062443	0.250006
C71	C	2.164393	0.312443	0.500006
C72	C	2.414393	0.562443	0.750006
C73	C	1.772529	-0.198589	0.000006
C74	C	2.022529	0.051411	0.250006
C75	C	2.272529	0.301411	0.500006
C76	C	2.522529	0.551411	0.750006
C77	C	1.505117	-0.253442	0.000012
C78	C	1.755117	-0.003442	0.250012
C79	C	2.005117	0.246558	0.500012
C80	C	2.255117	0.496558	0.750012
C81	C	1.146613	-0.399970	0.000017
C82	C	1.396613	-0.149970	0.250017
C83	C	1.646613	0.100030	0.500017
C84	C	1.896613	0.350030	0.750017
C85	C	1.157457	-0.506114	0.000025
C86	C	1.407457	-0.256114	0.250025
C87	C	1.657457	-0.006114	0.500025
C88	C	1.907457	0.243886	0.750025
N89	N	1.153814	-0.210965	-0.265521
N90	N	1.403814	0.039035	-0.015521
N91	N	1.653814	0.289035	0.234479
N92	N	1.903814	0.539035	0.484479
C93	C	1.100366	0.248426	0.000008
C94	C	1.350366	0.498426	0.250008
C95	C	1.600366	0.748426	0.500008
C96	C	1.850366	0.998426	0.750008
C97	C	1.177280	0.299555	0.000010
C98	C	1.427280	0.549555	0.250010
C99	C	1.677280	0.799555	0.500010
C100	C	1.927280	1.049555	0.750010
C101	C	1.166248	0.407691	0.000018
C102	C	1.416248	0.657691	0.250018
C103	C	1.666248	0.907691	0.500018
C104	C	1.916248	1.157691	0.750018
C105	C	1.111397	0.140280	-0.000001
C106	C	1.361397	0.390280	0.249999
C107	C	1.611397	0.640280	0.499999
C108	C	1.861397	0.890280	0.749999
N109	N	1.123844	-0.241053	0.265529
N110	N	1.373844	0.008947	0.515529
N111	N	1.623844	0.258947	0.765529
N112	N	1.873844	0.508947	1.015529
C113	C	1.165582	-0.199163	0.525435
C114	C	1.415582	0.050837	0.775435
C115	C	1.665582	0.300837	1.025435
C116	C	1.915582	0.550837	1.275435
C117	C	1.112079	-0.252851	0.474567
C118	C	1.362079	-0.002851	0.724567
C119	C	1.612079	0.247149	0.974567
C120	C	1.862079	0.497149	1.224567
C121	C	1.118627	-0.246285	0.358247
C122	C	1.368627	0.003715	0.608247
C123	C	1.618627	0.253715	0.858247
C124	C	1.868627	0.503715	1.108247
C125	C	1.159035	-0.205729	0.641765
C126	C	1.409035	0.044271	0.891765
C127	C	1.659035	0.294271	1.141765
C128	C	1.909035	0.544271	1.391765
H129	H	1.650700	-0.338600	0.000018
H130	H	1.900700	-0.088600	0.250018
H131	H	2.150700	0.161400	0.500018
H132	H	2.400700	0.411400	0.750018
N133	N	1.275485	0.249979	-0.000013
N134	N	1.525485	0.499979	0.249987
N135	N	1.775485	0.749979	0.499987
N136	N	2.025485	0.999979	0.749987
H137	H	1.307792	0.265447	0.063162
H138	H	1.557792	0.515447	0.313162
H139	H	1.807792	0.765447	0.563162
H140	H	2.057792	1.015447	0.813162
H141	H	1.269477	0.178654	-0.000062
H142	H	1.519477	0.428654	0.249938
H143	H	1.769477	0.678654	0.499938
H144	H	2.019477	0.928654	0.749938
H145	H	1.626950	-0.113428	0.000075
H146	H	1.876950	0.136572	0.250075
H147	H	2.126950	0.386572	0.500075
H148	H	2.376950	0.636572	0.750075
N149	N	1.002172	0.298008	0.000010
N150	N	1.252172	0.548008	0.250010
N151	N	1.502172	0.798008	0.500010
N152	N	1.752172	1.048008	0.750010
H153	H	1.008112	0.369347	0.000012
H154	H	1.258112	0.619347	0.250012
H155	H	1.508112	0.869347	0.500012
H156	H	1.758112	1.119347	0.750012
H157	H	0.969930	0.282465	-0.063176
H158	H	1.219930	0.532465	0.186824
H159	H	1.469930	0.782465	0.436824
H160	H	1.719930	1.032465	0.686824
N161	N	1.044887	-0.320269	0.532586
N162	N	1.294887	-0.070269	0.782586
N163	N	1.544887	0.179731	1.032586
N164	N	1.794887	0.429731	1.282586
H165	H	1.049670	-0.315463	0.608661
H166	H	1.299670	-0.065463	0.858661
H167	H	1.549670	0.184537	1.108661
H168	H	1.799670	0.434537	1.358661
H169	H	0.977240	-0.302560	0.513896
H170	H	1.227240	-0.052560	0.763896
H171	H	1.477240	0.197440	1.013896
H172	H	1.727240	0.447440	1.263896
N173	N	1.232769	-0.131750	0.467417
N174	N	1.482769	0.118250	0.717417
N175	N	1.732769	0.368250	0.967417
N176	N	1.982769	0.618250	1.217417
H177	H	1.227978	-0.136557	0.391343
H178	H	1.477978	0.113443	0.641343
H179	H	1.727978	0.363443	0.891343
H180	H	1.977978	0.613443	1.141343
H181	H	1.214847	-0.064145	0.486089
H182	H	1.464847	0.185855	0.736089
H183	H	1.714847	0.435855	0.986089
H184	H	1.964847	0.685855	1.236089
