data_functionalizedCrystal
_audit_creation_method	'MofGen! by Chris Wilmer'
_symmetry_space_group_name_H-M	'P1'
_symmetry_Int_Tables_number	1
_symmetry_cell_setting	triclinic
loop_
_symmetry_equiv_pos_as_xyz
  x,y,z
_cell_length_a	10.654562
_cell_length_b	27.731996
_cell_length_c	9.130313
_cell_angle_alpha	89.992822
_cell_angle_beta	89.996930
_cell_angle_gamma	83.555745
loop_
_atom_site_label
_atom_site_type_symbol
_atom_site_fract_x
_atom_site_fract_y
_atom_site_fract_z
O1	O	1.664937	0.067914	-0.121917
O2	O	1.299186	0.074376	-0.121901
O3	O	1.493455	0.000818	-0.121878
O4	O	1.470668	0.141473	-0.121940
O5	O	1.493452	0.000820	0.121721
O6	O	1.299183	0.074378	0.121698
O7	O	1.664934	0.067916	0.121682
Cu8	Cu	1.482059	0.071147	0.143932
Cu9	Cu	1.482061	0.071145	-0.144151
O10	O	1.470665	0.141475	0.121659
C11	C	1.252407	0.073901	-0.000099
C12	C	1.113025	0.072478	-0.000091
C13	C	1.047521	0.071815	0.132683
C14	C	0.916556	0.070482	0.132659
C15	C	0.916609	0.070476	-0.132925
C16	C	1.047573	0.071806	-0.132900
C17	C	1.047489	0.071821	0.286017
C18	C	0.916523	0.070487	0.285993
C19	C	1.492985	-0.017192	-0.000073
C20	C	1.491576	-0.070857	-0.000058
C21	C	1.482706	-0.403629	-0.132915
C22	C	1.477352	-0.605321	-0.132941
O23	O	1.476607	-0.631397	-0.245871
N24	N	1.476686	-0.630541	-0.000156
C25	C	1.477350	-0.605335	0.132644
O26	O	1.476647	-0.631414	0.245585
C27	C	1.482695	-0.403644	0.132668
C28	C	1.483374	-0.378427	-0.000125
C29	C	1.483384	-0.378412	-0.265698
C30	C	1.484729	-0.327993	-0.265690
C31	C	1.485397	-0.302790	-0.132900
C32	C	1.484719	-0.328007	-0.000117
C33	C	1.483350	-0.378438	0.265467
C34	C	1.484683	-0.328012	0.265461
C35	C	1.485362	-0.302795	0.132668
C36	C	1.486732	-0.252385	0.132680
N37	N	1.487398	-0.227165	-0.000104
C38	C	1.486731	-0.252368	-0.132894
C39	C	1.474546	-0.711226	0.132622
C40	C	1.473212	-0.761649	0.132617
C41	C	1.473212	-0.761631	-0.132969
C42	C	1.474555	-0.711208	-0.132962
C43	C	1.475212	-0.686006	-0.000162
C44	C	1.489557	-0.146483	-0.132868
C45	C	1.490908	-0.096059	-0.132848
C46	C	1.490901	-0.096081	0.132736
C47	C	1.489557	-0.146500	0.132718
C48	C	1.488881	-0.171700	-0.000096
O49	O	1.487464	-0.226277	0.245551
O50	O	1.487406	-0.226279	-0.245818
C51	C	1.481361	-0.454049	-0.132923
C52	C	1.480683	-0.479266	-0.000141
C53	C	1.481351	-0.454064	0.132650
C54	C	1.479349	-0.529689	-0.000146
C55	C	1.478682	-0.554891	-0.132936
C56	C	1.479348	-0.529671	-0.265721
C57	C	1.480693	-0.479251	-0.265713
C58	C	1.480685	-0.479284	0.265434
C59	C	1.479341	-0.529703	0.265416
C60	C	1.478673	-0.554906	0.132625
C61	C	1.711713	0.068391	-0.000123
C62	C	1.851095	0.069814	-0.000141
C63	C	1.471135	0.159484	-0.000149
C64	C	1.472545	0.213149	-0.000174
N65	N	1.482066	0.071149	0.346555
N66	N	1.482064	0.071140	-0.346774
C67	C	1.568110	0.038588	0.423217
C68	C	1.568106	0.038583	0.576554
C69	C	1.396011	0.103702	0.576553
C70	C	1.396010	0.103705	0.423219
C71	C	1.667471	0.000994	0.423219
C72	C	1.667468	0.000988	0.576556
H73	H	0.863301	0.069929	-0.241053
O74	O	1.312301	0.135343	0.650800
C75	C	1.141652	0.199951	0.634614
C76	C	1.236368	0.164135	0.550352
H77	H	1.080254	0.223245	0.553438
H78	H	1.079257	0.178877	0.706361
H79	H	1.195397	0.224270	0.706440
H80	H	1.182727	0.139807	0.478446
H81	H	1.298762	0.185239	0.478697
H82	H	1.478798	-0.550231	0.373560
O83	O	1.775640	0.014982	0.366258
C84	C	1.958562	-0.006858	0.215037
C85	C	1.836101	-0.022768	0.279439
H86	H	2.007494	-0.037374	0.144855
H87	H	1.934903	0.026902	0.144673
H88	H	2.023999	0.001669	0.308007
H89	H	1.770607	-0.031320	0.186563
H90	H	1.859854	-0.056512	0.349842
H91	H	1.325935	0.130214	0.360802
H92	H	0.868816	0.103891	0.344843
O93	O	1.643699	-0.043345	0.373821
C94	C	1.600556	-0.124157	0.437870
C95	C	1.627437	-0.073965	0.494011
H96	H	1.587427	-0.148930	0.535014
H97	H	1.510990	-0.120094	0.368564
H98	H	1.683450	-0.140616	0.368449
H99	H	1.544620	-0.057477	0.563492
H100	H	1.717047	-0.078059	0.563238
H101	H	1.100904	0.072338	-0.241018
H102	H	1.638448	-0.034120	0.624120
O103	O	1.485099	-0.303497	0.394425
C104	C	1.377811	-0.241442	0.548520
C105	C	1.377166	-0.269175	0.402438
H106	H	1.290571	-0.213680	0.555032
H107	H	1.377014	-0.268102	0.643483
H108	H	1.466390	-0.221991	0.555147
H109	H	1.288602	-0.288628	0.395667
H110	H	1.378030	-0.242493	0.307544
H111	H	1.095168	0.038418	0.344915
O112	O	1.782234	0.010893	0.625961
C113	C	1.991400	0.028881	0.561923
C114	C	1.861483	0.017681	0.505774
H115	H	2.055517	0.034362	0.464781
H116	H	1.979321	0.063280	0.631238
H117	H	2.035571	-0.002746	0.631336
H118	H	1.817240	0.049278	0.436301
H119	H	1.873644	-0.016734	0.436539
H120	H	0.888434	0.035237	0.333588
O121	O	1.080781	0.113891	0.342865
C122	C	1.009168	0.191614	0.449462
C123	C	0.971291	0.143987	0.385153
H124	H	0.920666	0.215964	0.483641
H125	H	1.072381	0.183186	0.549050
H126	H	1.062510	0.210964	0.363195
H127	H	0.917902	0.124613	0.471312
H128	H	0.908139	0.152447	0.285533
H129	H	1.491464	-0.075530	-0.240989
H130	H	1.489000	-0.166994	-0.241018
H131	H	1.485277	-0.307465	-0.373824
H132	H	1.482835	-0.398927	-0.373837
H133	H	1.481245	-0.458724	-0.373847
O134	O	1.488755	-0.171049	0.261610
C135	C	1.378390	-0.222852	0.415784
C136	C	1.379160	-0.195086	0.269749
H137	H	1.289779	-0.242284	0.422426
H138	H	1.465614	-0.250620	0.422418
H139	H	1.379174	-0.196173	0.510678
H140	H	1.378333	-0.221727	0.174773
H141	H	1.291945	-0.167310	0.263244
O142	O	1.475148	-0.686786	-0.262086
C143	C	1.475087	-0.692108	-0.525509
C144	C	1.474389	-0.719821	-0.379375
H145	H	1.474501	-0.718806	-0.620374
H146	H	1.387776	-0.664385	-0.532253
H147	H	1.563602	-0.672615	-0.532076
H148	H	1.385934	-0.739343	-0.372710
H149	H	1.561759	-0.747516	-0.372693
O150	O	1.472773	-0.786176	0.261569
C151	C	1.580009	-0.848248	0.415681
C152	C	1.580698	-0.820502	0.269605
H153	H	1.667243	-0.876013	0.422212
H154	H	1.580786	-0.821597	0.510649
H155	H	1.491424	-0.867698	0.422280
H156	H	1.669268	-0.801051	0.262862
H157	H	1.579855	-0.847176	0.174706
H158	H	1.481230	-0.458769	0.373570
O159	O	1.491317	-0.071558	0.261678
C160	C	1.384002	-0.009490	0.415710
C161	C	1.383377	-0.037238	0.269652
H162	H	1.296756	0.018270	0.422191
H163	H	1.383202	-0.036141	0.510696
H164	H	1.472576	0.009965	0.422328
H165	H	1.294819	-0.056695	0.262890
H166	H	1.384244	-0.010564	0.174735
O167	O	1.478467	-0.554172	-0.394671
C168	C	1.368138	-0.606012	-0.548705
C169	C	1.368976	-0.578274	-0.402647
H170	H	1.279637	-0.625514	-0.555188
H171	H	1.368763	-0.579353	-0.643691
H172	H	1.455458	-0.633732	-0.555322
H173	H	1.281671	-0.550554	-0.395888
H174	H	1.368416	-0.604962	-0.307730
H175	H	1.472670	-0.782159	-0.241092
H176	H	1.482799	-0.398961	0.373602
H177	H	1.475087	-0.690711	0.240770
