data_functionalizedCrystal
_audit_creation_method	'MofGen! by Chris Wilmer'
_symmetry_space_group_name_H-M	'P1'
_symmetry_Int_Tables_number	1
_symmetry_cell_setting	triclinic
loop_
_symmetry_equiv_pos_as_xyz
  x,y,z
_cell_length_a	10.686220
_cell_length_b	12.759394
_cell_length_c	10.686551
_cell_angle_alpha	94.406554
_cell_angle_beta	89.691918
_cell_angle_gamma	94.396533
loop_
_atom_site_label
_atom_site_type_symbol
_atom_site_fract_x
_atom_site_fract_y
_atom_site_fract_z
Zn1	Zn	1.972288	-0.256139	0.562381
Zn2	Zn	1.956059	-0.446299	0.352619
Zn3	Zn	1.746406	-0.283015	0.368698
Zn4	Zn	1.762489	-0.444170	0.578397
O5	O	1.859311	-0.357405	0.465524
O6	O	2.145677	-0.271007	0.521124
O7	O	1.914725	-0.436778	0.179206
O8	O	1.776431	-0.132423	0.394417
O9	O	2.133754	-0.410717	0.367013
O10	O	1.942386	-0.112677	0.536715
O11	O	1.760695	-0.316813	0.191020
O12	O	1.572998	-0.314749	0.409947
O13	O	1.803842	-0.407088	0.751818
O14	O	1.584814	-0.433149	0.564012
O15	O	1.957980	-0.268943	0.740052
O16	O	1.930320	-0.593043	0.382543
O17	O	1.788105	-0.591479	0.548421
C18	C	1.533390	-0.376635	0.490463
C19	C	1.393962	-0.384885	0.501162
C20	C	1.859233	-0.630379	0.465499
C21	C	1.859318	-0.747149	0.465522
C22	C	2.007536	-0.748709	0.292904
C23	C	2.081679	-0.804347	0.206608
C24	C	2.081755	-0.914062	0.206636
C25	C	2.007683	-0.968141	0.292973
C26	C	1.933540	-0.912503	0.379270
C27	C	1.933469	-0.802786	0.379229
C28	C	1.785331	-0.910942	0.551891
C29	C	1.785246	-0.801228	0.551859
C30	C	1.711259	-0.965022	0.638228
C31	C	1.637107	-0.909384	0.724521
C32	C	1.637033	-0.799663	0.724488
C33	C	1.711103	-0.745590	0.638155
C34	C	2.186504	-0.338102	0.440489
C35	C	2.325934	-0.329875	0.429820
C36	C	1.884515	-0.334780	0.792725
C37	C	1.895256	-0.325138	0.932158
C38	C	1.859425	-0.083362	0.465573
C39	C	1.859473	0.033420	0.465595
C40	C	1.834276	-0.379863	0.139591
C41	C	1.823778	-0.389194	0.000139
H42	H	2.007464	-0.659376	0.292858
H43	H	1.711041	-0.656256	0.638113
C44	C	1.988017	-0.242298	0.996696
C45	C	2.109708	-0.260037	0.955436
C46	C	2.195194	-0.183753	1.014882
H47	H	1.968227	-0.174199	0.976745
H48	H	1.983263	-0.246630	1.084971
H49	H	2.114458	-0.255694	0.867181
H50	H	2.129538	-0.328121	0.975387
H51	H	2.190440	-0.188085	1.103156
H52	H	2.175391	-0.115659	0.994927
H53	H	2.277771	-0.195784	0.986904
H54	H	1.754365	-0.451418	0.951664
H55	H	2.142135	-0.959362	0.136372
C56	C	1.390651	-0.258823	0.337379
C57	C	1.459674	-0.319373	0.251171
C58	C	1.519329	-0.253954	0.166005
H59	H	1.329415	-0.225393	0.293924
H60	H	1.445554	-0.206808	0.381545
H61	H	1.404775	-0.371369	0.207009
H62	H	1.520929	-0.352801	0.294589
H63	H	1.574232	-0.201939	0.210171
H64	H	1.458085	-0.220527	0.122560
H65	H	1.566177	-0.295025	0.107510
C66	C	1.329627	-0.456202	0.593557
C67	C	1.420323	-0.505311	0.657208
C68	C	1.361104	-0.571022	0.742320
H69	H	1.282747	-0.415395	0.652281
H70	H	1.274823	-0.508289	0.549382
H71	H	1.475104	-0.453231	0.701381
H72	H	1.467208	-0.546137	0.598517
H73	H	1.306301	-0.623109	0.698145
H74	H	1.314227	-0.530207	0.801035
H75	H	1.422631	-0.604358	0.785509
H76	H	2.007763	-1.057476	0.292999
H77	H	1.711332	-1.054357	0.638250
C78	C	2.161962	-0.745448	0.112930
C79	C	2.146005	-0.637459	0.131346
C80	C	2.219931	-0.583174	0.045066
H81	H	2.247709	-0.756990	0.124821
H82	H	2.137164	-0.770328	0.030011
H83	H	2.170810	-0.612588	0.214246
H84	H	2.060273	-0.625886	0.119445
H85	H	2.195133	-0.608054	-0.037854
H86	H	2.305674	-0.594724	0.056964
H87	H	2.209106	-0.509899	0.057542
H88	H	1.576811	-0.953424	0.794814
C89	C	1.556405	-0.739453	0.818248
C90	C	1.491541	-0.810303	0.893839
C91	C	1.417244	-0.754882	0.980217
H92	H	1.608408	-0.689983	0.869378
H93	H	1.497982	-0.703281	0.774429
H94	H	1.549957	-0.846458	0.937654
H95	H	1.439515	-0.859775	0.842744
H96	H	1.358820	-0.718710	0.936398
H97	H	1.469256	-0.705414	1.031337
H98	H	1.373216	-0.802946	1.031508
