data_functionalizedCrystal
_audit_creation_method	'MofGen! by Chris Wilmer'
_symmetry_space_group_name_H-M	'P1'
_symmetry_Int_Tables_number	1
_symmetry_cell_setting	triclinic
loop_
_symmetry_equiv_pos_as_xyz
  x,y,z
_cell_length_a	19.121414
_cell_length_b	19.121073
_cell_length_c	19.076919
_cell_angle_alpha	94.604058
_cell_angle_beta	94.615013
_cell_angle_gamma	94.803854
loop_
_atom_site_label
_atom_site_type_symbol
_atom_site_fract_x
_atom_site_fract_y
_atom_site_fract_z
Zn1	Zn	1.048446	-0.249492	-0.363868
Zn2	Zn	1.548446	0.250508	0.136132
Zn3	Zn	1.048062	-0.362436	-0.251007
Zn4	Zn	1.548062	0.137564	0.248993
Zn5	Zn	0.935513	-0.249805	-0.251018
Zn6	Zn	1.435513	0.250195	0.248982
Zn7	Zn	0.925284	-0.372581	-0.374332
Zn8	Zn	1.425284	0.127419	0.125668
O9	O	0.989326	-0.308579	-0.310056
O10	O	1.489326	0.191421	0.189944
O11	O	1.147041	-0.260098	-0.344513
O12	O	1.647041	0.239902	0.155487
O13	O	1.037252	-0.343381	-0.152168
O14	O	1.537252	0.156619	0.347832
O15	O	0.954935	-0.151114	-0.261613
O16	O	1.454935	0.348886	0.238387
O17	O	1.146759	-0.343078	-0.261595
O18	O	1.646759	0.156922	0.238405
O19	O	1.037907	-0.150884	-0.344524
O20	O	1.537907	0.349116	0.155476
O21	O	0.954563	-0.260632	-0.152176
O22	O	1.454563	0.239368	0.347824
O23	O	0.835510	-0.270468	-0.271759
O24	O	1.335510	0.229532	0.228241
O25	O	0.937501	-0.360367	-0.471784
O26	O	1.437501	0.139633	0.028216
O27	O	0.827994	-0.360670	-0.362357
O28	O	1.327994	0.139330	0.137643
O29	O	1.027988	-0.269935	-0.464097
O30	O	1.527988	0.230065	0.035903
O31	O	1.027334	-0.462432	-0.271741
O32	O	1.527334	0.037568	0.228259
O33	O	0.937129	-0.469884	-0.362347
O34	O	1.437129	0.030116	0.137653
C35	C	0.806174	-0.316704	-0.318195
C36	C	1.306174	0.183296	0.181805
C37	C	0.727820	-0.320198	-0.321695
C38	C	1.227820	0.179802	0.178305
C39	C	0.694901	-0.274811	-0.276240
C40	C	1.194901	0.225189	0.223760
C41	C	0.621278	-0.278100	-0.279528
C42	C	1.121278	0.221900	0.220472
C43	C	0.580575	-0.326773	-0.328275
C44	C	1.080575	0.173227	0.171725
C45	C	0.613499	-0.372165	-0.373731
C46	C	1.113499	0.127835	0.126269
C47	C	0.687121	-0.368879	-0.370439
C48	C	1.187121	0.131121	0.129561
C49	C	0.358092	-0.339051	-0.340568
C50	C	0.858092	0.160949	0.159432
C51	C	0.284465	-0.342333	-0.343858
C52	C	0.784465	0.157667	0.156142
C53	C	0.292249	-0.248268	-0.249654
C54	C	0.792249	0.251732	0.250346
C55	C	0.365871	-0.244983	-0.246369
C56	C	0.865871	0.255017	0.253631
C57	C	0.398789	-0.290378	-0.291823
C58	C	0.898789	0.209622	0.208177
C59	C	0.505321	-0.330135	-0.331639
C60	C	1.005321	0.169865	0.168361
C61	C	0.474042	-0.287019	-0.288455
C62	C	0.974042	0.212981	0.211545
C63	C	0.981098	-0.491737	-0.318193
C64	C	1.481098	0.008263	0.181807
C65	C	0.977642	-0.570090	-0.321694
C66	C	1.477642	-0.070090	0.178306
C67	C	0.955756	-1.013441	-0.343918
C68	C	1.455756	-0.513441	0.156082
C69	C	0.959004	-0.939819	-0.340620
C70	C	1.459004	-0.439819	0.159380
C71	C	1.007625	-0.899107	-0.291828
C72	C	1.507625	-0.399107	0.208172
C73	C	1.053007	-0.932020	-0.246336
C74	C	1.553007	-0.432020	0.253664
C75	C	1.049761	-1.005641	-0.249638
C76	C	1.549761	-0.505641	0.250362
C77	C	1.019778	-0.676624	-0.279504
C78	C	1.519778	-0.176624	0.220496
C79	C	1.023018	-0.602999	-0.276204
C80	C	1.523018	-0.102999	0.223796
C81	C	0.929016	-0.610803	-0.370489
C82	C	1.429016	-0.110803	0.129511
C83	C	0.925773	-0.684425	-0.373784
C84	C	1.425773	-0.184425	0.126216
C85	C	0.971156	-0.717332	-0.328294
C86	C	1.471156	-0.217332	0.171706
C87	C	1.010945	-0.823853	-0.288455
C88	C	1.510945	-0.323853	0.211545
C89	C	0.967839	-0.792584	-0.331672
C90	C	1.467839	-0.292584	0.168328
C91	C	1.173193	-0.300422	-0.301886
C92	C	1.673193	0.199578	0.198114
C93	C	1.251546	-0.296946	-0.298404
C94	C	1.751546	0.203054	0.201596
C95	C	0.981646	-0.316247	-0.494285
C96	C	1.481646	0.183753	0.005715
C97	C	0.978374	-0.319515	-0.572792
C98	C	1.478374	0.180485	-0.072792
C99	C	0.997605	-0.124705	-0.301903
C100	C	1.497605	0.375295	0.198097
C101	C	1.001133	-0.046349	-0.298428
C102	C	1.501133	0.453651	0.201572
C103	C	1.023945	-0.273970	-0.605674
C104	C	1.523945	0.226030	-0.105674
C105	C	1.020862	-0.277038	-0.679440
C106	C	1.520862	0.222962	-0.179440
C107	C	0.972209	-0.325656	-0.720324
C108	C	1.472209	0.174344	-0.220324
C109	C	0.926633	-0.371204	-0.687437
C110	C	1.426633	0.128796	-0.187437
C111	C	0.929714	-0.368132	-0.613672
C112	C	1.429714	0.131868	-0.113672
C113	C	0.957941	-0.339890	-0.941367
C114	C	1.457941	0.160110	-0.441367
C115	C	0.954865	-0.342960	-1.015136
C116	C	1.454865	0.157040	-0.515136
C117	C	1.049094	-0.248793	-1.007135
C118	C	1.549094	0.251207	-0.507135
C119	C	1.052173	-0.245728	-0.933369
C120	C	1.552173	0.254272	-0.433369
C121	C	1.006594	-0.291273	-0.900488
C122	C	1.506594	0.208727	-0.400488
N123	N	0.969058	-0.328795	-0.795725
N124	N	1.469058	0.171205	-0.295725
N125	N	1.009742	-0.288130	-0.825089
N126	N	1.509742	0.211870	-0.325089
C127	C	0.997019	-0.300887	-0.126540
C128	C	1.497019	0.199113	0.373460
C129	C	1.000437	-0.297414	-0.048018
C130	C	1.500437	0.202586	0.451982
H131	H	0.580354	-0.411799	-0.413419
H132	H	1.080354	0.088201	0.086581
H133	H	0.399007	-0.205353	-0.206670
H134	H	0.899007	0.294647	0.293330
N135	N	0.722625	-0.417834	-0.419467
N136	N	1.222625	0.082166	0.080533
H137	H	0.753096	-0.389241	-0.449609
H138	H	1.253096	0.110759	0.050391
H139	H	0.752860	-0.447888	-0.390740
H140	H	1.252860	0.052112	0.109260
N141	N	1.104622	-0.193262	-0.889277
N142	N	1.604622	0.306738	-0.389277
H143	H	1.099652	-0.198222	-0.837558
H144	H	1.599652	0.301778	-0.337558
H145	H	1.153945	-0.202515	-0.900409
H146	H	1.653945	0.297485	-0.400409
N147	N	0.585761	-0.229138	-0.230522
N148	N	1.085761	0.270862	0.269478
H149	H	0.555290	-0.257726	-0.200376
H150	H	1.055290	0.242274	0.299624
H151	H	0.622751	-0.197804	-0.199190
H152	H	1.122751	0.302196	0.300810
H153	H	0.265439	-0.211311	-0.212648
H154	H	0.765439	0.288689	0.287352
N155	N	0.873325	-0.728335	-0.426403
N156	N	1.373325	-0.228335	0.073597
H157	H	0.845069	-0.696316	-0.454720
H158	H	1.345069	-0.196316	0.045280
H159	H	0.899280	-0.758929	-0.459207
H160	H	1.399280	-0.258929	0.040793
N161	N	0.240562	-0.394826	-0.396443
N162	N	0.740562	0.105174	0.103557
H163	H	0.272586	-0.423084	-0.424740
H164	H	0.772586	0.076916	0.075260
H165	H	0.209744	-0.427567	-0.370455
H166	H	0.709744	0.072433	0.129545
N167	N	0.880079	-0.575309	-0.419558
N168	N	1.380079	-0.075309	0.080442
H169	H	0.848787	-0.612272	-0.450969
H170	H	1.348787	-0.112272	0.049031
H171	H	0.850020	-0.545058	-0.390866
H172	H	1.350020	-0.045058	0.109134
H173	H	1.086713	-1.032433	-0.212597
H174	H	1.586713	-0.532433	0.287403
N175	N	0.908792	-0.389023	-0.905911
N176	N	1.408792	0.110977	-0.405911
H177	H	0.918121	-0.379702	-0.852977
H178	H	1.418121	0.120298	-0.352977
H179	H	0.858402	-0.380824	-0.920554
H180	H	1.358402	0.119176	-0.420554
N181	N	0.874142	-0.423628	-0.731528
N182	N	1.374142	0.076372	-0.231528
H183	H	0.879102	-0.418662	-0.783248
H184	H	1.379102	0.081338	-0.283248
H185	H	0.883371	-0.472956	-0.720386
H186	H	1.383371	0.027044	-0.220386
H187	H	1.086201	-0.211712	-1.033914
H188	H	1.586201	0.288288	-0.533914
H189	H	0.507185	-0.247392	-0.248764
H190	H	1.007185	0.252608	0.251236
N191	N	0.738799	-0.222307	-0.223670
N192	N	1.238799	0.277693	0.276330
H193	H	0.706770	-0.194054	-0.195374
H194	H	1.206770	0.305946	0.304626
H195	H	0.769421	-0.248222	-0.190841
H196	H	1.269421	0.251778	0.309159
N197	N	0.393590	-0.388011	-0.389590
N198	N	0.893590	0.111989	0.110410
H199	H	0.356632	-0.419340	-0.420970
H200	H	0.856632	0.080660	0.079030
H201	H	0.424065	-0.359369	-0.419687
H202	H	0.924065	0.140631	0.080313
H203	H	0.472173	-0.369764	-0.371329
H204	H	0.972173	0.130236	0.128671
N205	N	0.880554	-0.417255	-0.578210
N206	N	1.380554	0.082745	-0.078210
H207	H	0.888695	-0.467674	-0.592793
H208	H	1.388695	0.032326	-0.092793
H209	H	0.889906	-0.407872	-0.525286
H210	H	1.389906	0.092128	-0.025286
N211	N	0.903309	-1.057350	-0.396539
N212	N	1.403309	-0.557350	0.103461
H213	H	0.875058	-1.025328	-0.424856
H214	H	1.375058	-0.525328	0.075144
H215	H	0.929269	-1.087941	-0.429342
H216	H	1.429269	-0.587941	0.070658
H217	H	0.915244	-0.382553	-1.048422
H218	H	1.415244	0.117447	-0.548422
N219	N	0.910060	-0.904324	-0.389681
N220	N	1.410060	-0.404324	0.110319
H221	H	0.878763	-0.941287	-0.421087
H222	H	1.378763	-0.441287	0.078913
H223	H	0.880007	-0.874074	-0.360981
H224	H	1.380007	-0.374074	0.139019
H225	H	1.092599	-0.898867	-0.206611
H226	H	1.592599	-0.398867	0.293389
H227	H	1.062613	-0.569853	-0.236469
H228	H	1.562613	-0.069853	0.263531
H229	H	1.056730	-0.703408	-0.242461
H230	H	1.556730	-0.203408	0.257539
H231	H	0.928255	-0.825735	-0.371401
H232	H	1.428255	-0.325735	0.128599
N233	N	1.063376	-0.779933	-0.235826
N234	N	1.563376	-0.279933	0.264174
H235	H	1.054000	-0.791162	-0.186412
H236	H	1.554000	-0.291162	0.313588
H237	H	1.112695	-0.790927	-0.245223
H238	H	1.612695	-0.290927	0.254777
N239	N	1.076425	-0.221535	-0.561581
N240	N	1.576425	0.278465	-0.061581
H241	H	1.104825	-0.193148	-0.593608
H242	H	1.604825	0.306852	-0.093608
H243	H	1.050479	-0.188910	-0.530801
H244	H	1.550479	0.311090	-0.030801
N245	N	1.070000	-0.227901	-0.714907
N246	N	1.570000	0.272099	-0.214907
H247	H	1.101287	-0.196634	-0.677814
H248	H	1.601287	0.303366	-0.177814
H249	H	1.100055	-0.256412	-0.745346
H250	H	1.600055	0.243588	-0.245346
