data_functionalizedCrystal
_audit_creation_method	'MofGen! by Chris Wilmer'
_symmetry_space_group_name_H-M	'P1'
_symmetry_Int_Tables_number	1
_symmetry_cell_setting	triclinic
loop_
_symmetry_equiv_pos_as_xyz
  x,y,z
_cell_length_a	15.944493
_cell_length_b	15.944499
_cell_length_c	10.868271
_cell_angle_alpha	90.006933
_cell_angle_beta	89.995542
_cell_angle_gamma	83.476327
loop_
_atom_site_label
_atom_site_type_symbol
_atom_site_fract_x
_atom_site_fract_y
_atom_site_fract_z
O1	O	0.108124	1.114529	0.102380
O2	O	0.608124	1.614529	0.602380
O3	O	0.121526	0.869971	0.102364
O4	O	0.621526	1.369971	0.602364
O5	O	-0.007454	0.998954	0.102383
O6	O	0.492546	1.498954	0.602383
O7	O	0.237104	0.985546	0.102361
O8	O	0.737104	1.485546	0.602361
O9	O	-0.007450	0.998942	-0.102262
O10	O	0.492550	1.498942	0.397738
O11	O	0.121530	0.869959	-0.102281
O12	O	0.621530	1.369959	0.397719
O13	O	0.108128	1.114517	-0.102265
O14	O	0.608128	1.614517	0.397735
Zn15	Zn	0.114830	0.992236	-0.134765
Zn16	Zn	0.614830	1.492236	0.365235
Zn17	Zn	0.114824	0.992252	0.134864
Zn18	Zn	0.614824	1.492252	0.634864
O19	O	0.237109	0.985534	-0.102283
O20	O	0.737109	1.485534	0.397717
C21	C	-0.038747	0.998400	0.000065
C22	C	0.461253	1.498400	0.500065
C23	C	-0.131995	0.996757	0.000081
C24	C	0.368005	1.496757	0.500081
C25	C	0.120979	0.838670	0.000040
C26	C	0.620979	1.338670	0.500040
C27	C	0.119334	0.745422	0.000035
C28	C	0.619334	1.245422	0.500035
C29	C	-0.367769	1.072679	0.000063
C30	C	0.132231	1.572679	0.500063
C31	C	-0.418332	1.031743	0.100960
C32	C	0.081668	1.531743	0.600960
C33	C	-0.302716	0.993713	0.000066
C34	C	0.197284	1.493713	0.500066
C35	C	-0.418304	1.031713	-0.100804
C36	C	0.081696	1.531713	0.399196
C37	C	-0.467625	0.990778	0.000046
C38	C	0.032375	1.490778	0.500046
C39	C	-0.352050	0.952798	0.101046
C40	C	0.147950	1.452798	0.601046
C41	C	-0.352019	0.952779	-0.100808
C42	C	0.147981	1.452779	0.399192
C43	C	-0.402548	0.911785	0.000114
C44	C	0.097452	1.411785	0.500114
C45	C	-0.207716	0.995405	0.000078
C46	C	0.292284	1.495405	0.500078
C47	C	-0.562622	0.989079	0.000042
C48	C	-0.062622	1.489079	0.500042
C49	C	0.194269	0.453871	0.000047
C50	C	0.694269	0.953871	0.500047
C51	C	0.155314	0.514914	0.100953
C52	C	0.655314	1.014914	0.600953
C53	C	0.113358	0.409787	0.000064
C54	C	0.613358	0.909787	0.500064
C55	C	0.155296	0.514888	-0.100811
C56	C	0.655296	1.014888	0.399189
C57	C	0.116299	0.574695	0.000047
C58	C	0.616299	1.074695	0.500047
C59	C	0.074381	0.469602	0.101053
C60	C	0.574381	0.969602	0.601053
C61	C	0.074375	0.469570	-0.100801
C62	C	0.574375	0.969570	0.399199
C63	C	0.035361	0.530595	0.000130
C64	C	0.535361	1.030595	0.500130
C65	C	0.111666	0.314787	0.000074
C66	C	0.611666	0.814787	0.500074
C67	C	0.117984	0.669694	0.000046
C68	C	0.617984	1.169694	0.500046
C69	C	0.268401	0.986088	0.000036
C70	C	0.768401	1.486088	0.500036
C71	C	0.361650	0.987731	0.000029
C72	C	0.861650	1.487731	0.500029
C73	C	0.108675	1.145818	0.000062
C74	C	0.608675	1.645818	0.500062
C75	C	0.110320	1.239066	0.000075
C76	C	0.610320	1.739066	0.500075
N77	N	0.114833	0.992232	-0.318779
N78	N	0.614833	1.492232	0.181221
C79	C	0.114833	0.992238	-0.430116
C80	C	0.614833	1.492238	0.069884
C81	C	0.114826	0.992249	-0.569794
C82	C	0.614826	1.492249	-0.069794
N83	N	0.114814	0.992263	0.318878
N84	N	0.614814	1.492263	0.818878
H85	H	-0.447285	1.065096	0.186266
H86	H	0.052715	1.565096	0.686266
H87	H	0.261416	0.420527	0.000138
H88	H	0.761416	0.920527	0.500138
H89	H	-0.323050	0.919455	-0.186118
H90	H	0.176950	1.419455	0.313882
O91	O	0.200636	0.541538	0.213943
O92	O	0.700636	1.041538	0.713943
H93	H	0.266579	0.510515	0.213730
H94	H	0.766579	1.010515	0.713730
H95	H	-0.323226	0.919473	0.186438
H96	H	0.176774	1.419473	0.686438
O97	O	-0.423003	0.821611	0.000147
O98	O	0.076997	1.321611	0.500147
H99	H	-0.396210	0.789038	0.083973
H100	H	0.103790	1.289038	0.583973
O101	O	0.029071	0.442927	-0.213789
O102	O	0.529071	0.942927	0.286211
H103	H	0.027712	0.373489	-0.212262
H104	H	0.527712	0.873489	0.287738
H105	H	-0.447239	1.065073	-0.186099
H106	H	0.052761	1.565073	0.313901
O107	O	0.200646	0.541468	-0.213805
O108	O	0.700646	1.041468	0.286195
H109	H	0.156885	0.585503	-0.269266
H110	H	0.656885	1.085503	0.230734
O111	O	0.029091	0.443166	0.214188
O112	O	0.529091	0.943166	0.714188
H113	H	0.028234	0.373657	0.213332
H114	H	0.528234	0.873657	0.713332
H115	H	-0.031847	0.563787	0.000189
H116	H	0.468153	1.063787	0.500189
O117	O	-0.347079	1.162776	0.000200
O118	O	0.152921	1.662776	0.500200
H119	H	-0.310273	1.174232	-0.083621
H120	H	0.189727	1.674232	0.416379
