data_functionalizedCrystal
_audit_creation_method	'MofGen! by Chris Wilmer'
_symmetry_space_group_name_H-M	'P1'
_symmetry_Int_Tables_number	1
_symmetry_cell_setting	triclinic
loop_
_symmetry_equiv_pos_as_xyz
  x,y,z
_cell_length_a	14.971491
_cell_length_b	13.448316
_cell_length_c	14.971506
_cell_angle_alpha	90.007960
_cell_angle_beta	96.380688
_cell_angle_gamma	90.000269
loop_
_atom_site_label
_atom_site_type_symbol
_atom_site_fract_x
_atom_site_fract_y
_atom_site_fract_z
O1	O	-1.186941	0.082733	0.116590
O2	O	-0.686941	0.582733	0.616590
O3	O	-0.926543	0.082725	0.130544
O4	O	-0.426543	0.582725	0.630544
O5	O	-1.063712	0.082725	-0.006632
O6	O	-0.563712	0.582725	0.493368
O7	O	-1.049772	0.082733	0.253765
O8	O	-0.549772	0.582733	0.753765
O9	O	-1.063718	-0.082659	-0.006649
O10	O	-0.563718	0.417341	0.493351
O11	O	-0.926549	-0.082659	0.130527
O12	O	-0.426549	0.417341	0.630527
O13	O	-1.186948	-0.082651	0.116573
O14	O	-0.686948	0.417349	0.616573
Cu15	Cu	-1.056749	-0.097756	0.123548
Cu16	Cu	-0.556749	0.402244	0.623548
Cu17	Cu	-1.056741	0.097830	0.123568
Cu18	Cu	-0.556741	0.597830	0.623568
O19	O	-1.049779	-0.082651	0.253749
O20	O	-0.549779	0.417349	0.753749
C21	C	-0.893221	0.000032	0.129910
C22	C	-0.393221	0.500032	0.629910
C23	C	-0.793924	0.000029	0.128038
C24	C	-0.293924	0.500029	0.628038
C25	C	-1.063088	0.000034	-0.039965
C26	C	-0.563088	0.500034	0.460035
C27	C	-1.061210	0.000036	-0.139261
C28	C	-0.561210	0.500036	0.360739
C29	C	-1.220269	0.000044	0.117206
C30	C	-0.720269	0.500044	0.617206
C31	C	-1.319566	0.000053	0.119079
C32	C	-0.819566	0.500053	0.619079
C33	C	-0.366214	0.090203	0.119967
C34	C	0.133786	0.590203	0.619967
C35	C	-0.459515	0.090199	0.121724
C36	C	0.040485	0.590199	0.621724
C37	C	-0.506164	0.000045	0.122599
C38	C	-0.006164	0.500045	0.622599
C39	C	-0.459510	-0.090112	0.121708
C40	C	0.040490	0.409888	0.621708
C41	C	-0.366212	-0.090107	0.119945
C42	C	0.133788	0.409893	0.619945
C43	C	-0.653972	-0.090115	0.125385
C44	C	-0.153972	0.409885	0.625385
C45	C	-0.747276	-0.090120	0.127150
C46	C	-0.247276	0.409880	0.627150
C47	C	-0.747275	0.090191	0.127164
C48	C	-0.247275	0.590191	0.627164
C49	C	-0.653977	0.090195	0.125401
C50	C	-0.153977	0.590195	0.625401
C51	C	-0.607328	0.000039	0.124512
C52	C	-0.107328	0.500039	0.624512
N53	N	-1.056761	-0.235320	0.123534
N54	N	-0.556761	0.264680	0.623534
N55	N	-1.056736	0.235394	0.123576
N56	N	-0.556736	0.735394	0.623576
C57	C	-1.110951	0.712643	0.177991
C58	C	-0.610951	1.212643	0.677991
C59	C	-1.110950	0.608540	0.177995
C60	C	-0.610950	1.108540	0.677995
C61	C	-1.056755	0.556475	0.123548
C62	C	-0.556755	1.056475	0.623548
C63	C	-1.002564	0.608519	0.069085
C64	C	-0.502564	1.108519	0.569085
C65	C	-1.002569	0.712620	0.069076
C66	C	-0.502569	1.212620	0.569076
C67	C	-1.002554	0.391539	0.069109
C68	C	-0.502554	0.891539	0.569109
C69	C	-1.002547	0.287430	0.069119
C70	C	-0.502547	0.787430	0.569119
C71	C	-1.110935	0.287459	0.178029
C72	C	-0.610935	0.787459	0.678029
C73	C	-1.110941	0.391560	0.178020
C74	C	-0.610941	0.891560	0.678020
C75	C	-1.056748	0.443597	0.123558
C76	C	-0.556748	0.943597	0.623558
C77	C	-1.050402	0.000042	0.287081
C78	C	-0.550402	0.500042	0.787081
C79	C	-1.052280	0.000046	0.386378
C80	C	-0.552280	0.500046	0.886378
C81	C	-0.978862	0.000033	0.824659
C82	C	-0.478862	0.500033	1.324659
C83	C	-0.977104	0.000029	0.731359
C84	C	-0.477104	0.500029	1.231359
C85	C	-1.057696	0.000035	0.674140
C86	C	-0.557696	0.500035	1.174140
C87	C	-1.140052	0.000036	0.710226
C88	C	-0.640052	0.500036	1.210226
C89	C	-1.141808	0.000033	0.803525
C90	C	-0.641808	0.500033	1.303525
C91	C	-1.136385	0.000045	0.515763
C92	C	-0.636385	0.500045	1.015763
C93	C	-1.134628	0.000050	0.422458
C94	C	-0.634628	0.500050	0.922458
C95	C	-0.971681	0.000040	0.443597
C96	C	-0.471681	0.500040	0.943597
C97	C	-0.973437	0.000037	0.536895
C98	C	-0.473437	0.500037	1.036895
C99	C	-1.055793	0.000040	0.572975
C100	C	-0.555793	0.500040	1.072975
H101	H	-0.328238	0.163617	0.119261
H102	H	0.171762	0.663617	0.619261
F103	F	-1.168603	0.446969	0.235986
F104	F	-0.668603	0.946969	0.735986
F105	F	-0.509158	0.186148	0.122665
F106	F	-0.009158	0.686148	0.622665
H107	H	-0.958425	0.433904	0.024759
H108	H	-0.458425	0.933904	0.524759
F109	F	-1.220403	0.000059	0.361563
F110	F	-0.720403	0.500059	0.861563
F111	F	-0.893083	0.000032	0.885547
F112	F	-0.393083	0.500032	1.385547
H113	H	-0.907812	0.000040	0.583481
H114	H	-0.407812	0.500040	1.083481
H115	H	-0.910048	0.000033	0.701987
H116	H	-0.410048	0.500033	1.201987
H117	H	-0.958441	0.566120	0.024748
H118	H	-0.458441	1.066120	0.524748
H119	H	-0.958442	0.754987	0.024732
H120	H	-0.458442	1.254987	0.524732
F121	F	-0.884032	0.000033	0.405198
F122	F	-0.384032	0.500033	0.905198
H123	H	-1.155078	0.566176	0.222338
H124	H	-0.655078	1.066176	0.722338
F125	F	-0.604330	0.186147	0.124477
F126	F	-0.104330	0.686147	0.624477
H127	H	-1.203447	0.000042	0.545135
H128	H	-0.703447	0.500042	1.045135
F129	F	-1.225824	0.000032	0.649328
F130	F	-0.725824	0.500032	1.149328
H131	H	-0.785260	0.163600	0.127889
H132	H	-0.285260	0.663600	0.627889
F133	F	-1.229455	0.000029	0.841923
F134	F	-0.729455	0.500029	1.341923
F135	F	-0.604328	-0.186071	0.124429
F136	F	-0.104328	0.313929	0.624429
F137	F	-0.796923	-0.186072	0.128076
F138	F	-0.296923	0.313928	0.628076
F139	F	-0.944870	0.232021	0.011166
F140	F	-0.444870	0.732021	0.511166
H141	H	-0.497500	-0.163517	0.122415
H142	H	0.002500	0.336483	0.622415
H143	H	-0.328231	-0.163516	0.119231
H144	H	0.171769	0.336484	0.619231
F145	F	-1.168632	0.768045	0.235944
F146	F	-0.668632	1.268045	0.735944
H147	H	-1.155057	0.245085	0.222377
H148	H	-0.655057	0.745085	0.722377
