data_functionalizedCrystal
_audit_creation_method	'MofGen! by Chris Wilmer'
_symmetry_space_group_name_H-M	'P1'
_symmetry_Int_Tables_number	1
_symmetry_cell_setting	triclinic
loop_
_symmetry_equiv_pos_as_xyz
  x,y,z
_cell_length_a	13.897449
_cell_length_b	16.625539
_cell_length_c	13.897448
_cell_angle_alpha	89.972451
_cell_angle_beta	90.018972
_cell_angle_gamma	89.980569
loop_
_atom_site_label
_atom_site_type_symbol
_atom_site_fract_x
_atom_site_fract_y
_atom_site_fract_z
Zn1	Zn	1.474690	-0.455889	-0.383980
Zn2	Zn	1.974690	0.044111	0.116020
Zn3	Zn	1.474588	-0.321058	-0.545293
Zn4	Zn	1.974588	0.178942	-0.045293
Zn5	Zn	1.313383	-0.321072	-0.384018
Zn6	Zn	1.813383	0.178928	0.115982
Zn7	Zn	1.313361	-0.455851	-0.545239
Zn8	Zn	1.813361	0.044149	-0.045239
O9	O	1.394006	-0.388468	-0.464632
O10	O	1.894006	0.111532	0.035368
O11	O	1.609658	-0.438014	-0.405386
O12	O	2.109658	0.061986	0.094614
O13	O	1.453170	-0.208228	-0.523938
O14	O	1.953170	0.291772	-0.023938
O15	O	1.334833	-0.338978	-0.249031
O16	O	1.834833	0.161022	0.250969
O17	O	1.609583	-0.338954	-0.523902
O18	O	2.109583	0.161046	-0.023902
O19	O	1.453344	-0.438027	-0.249004
O20	O	1.953344	0.061973	0.250996
O21	O	1.334734	-0.208238	-0.405450
O22	O	1.834734	0.291762	0.094550
O23	O	1.178398	-0.338941	-0.405397
O24	O	1.678398	0.161059	0.094603
O25	O	1.334795	-0.568688	-0.523809
O26	O	1.834795	-0.068688	-0.023809
O27	O	1.178382	-0.437962	-0.523845
O28	O	1.678382	0.062038	-0.023845
O29	O	1.453323	-0.568716	-0.405333
O30	O	1.953323	-0.068716	0.094667
O31	O	1.453149	-0.338917	-0.680268
O32	O	1.953149	0.161083	-0.180268
O33	O	1.334696	-0.437948	-0.680227
O34	O	1.834696	0.062052	-0.180227
C35	C	1.143391	-0.388449	-0.464620
C36	C	1.643391	0.111551	0.035380
C37	C	1.036177	-0.388460	-0.464637
C38	C	1.536177	0.111540	0.035363
C39	C	0.839882	-0.388482	-0.464641
C40	C	1.339882	0.111518	0.035359
C41	C	0.949115	-0.388468	-0.464636
C42	C	1.449115	0.111532	0.035364
C43	C	1.394068	-0.598777	-0.464561
C44	C	1.894068	-0.098777	0.035439
C45	C	1.394095	-0.688398	-0.464530
C46	C	1.894095	-0.188398	0.035470
C47	C	1.394139	-1.016574	-0.464422
C48	C	1.894139	-0.516574	0.035578
C49	C	1.394124	-0.925265	-0.464455
C50	C	1.894124	-0.425265	0.035545
C51	C	1.394118	-0.852489	-0.464477
C52	C	1.894118	-0.352489	0.035523
C53	C	1.394102	-0.761174	-0.464508
C54	C	1.894102	-0.261174	0.035492
C55	C	1.645598	-0.388486	-0.464646
C56	C	2.145598	0.111514	0.035354
C57	C	1.752812	-0.388495	-0.464652
C58	C	2.252812	0.111505	0.035348
C59	C	1.393935	-0.388444	-0.715247
C60	C	1.893935	0.111556	-0.215247
C61	C	1.393993	-0.388461	-0.822461
C62	C	1.893993	0.111539	-0.322461
C63	C	1.393999	-0.178977	-0.464634
C64	C	1.893999	0.321023	0.035366
C65	C	1.394159	-0.089356	-0.464393
C66	C	1.894159	0.410644	0.035607
C67	C	1.394095	-0.388512	-1.018756
C68	C	1.894095	0.111488	-0.518756
C69	C	1.394036	-0.388486	-0.909523
C70	C	1.894036	0.111514	-0.409523
C71	C	1.394102	-0.388509	-0.213039
C72	C	1.894102	0.111491	0.286961
C73	C	1.394144	-0.388526	-0.105825
C74	C	1.894144	0.111474	0.394175
