data_functionalizedCrystal
_audit_creation_method	'MofGen! by Chris Wilmer'
_symmetry_space_group_name_H-M	'P1'
_symmetry_Int_Tables_number	1
_symmetry_cell_setting	triclinic
loop_
_symmetry_equiv_pos_as_xyz
  x,y,z
_cell_length_a	12.759395
_cell_length_b	18.050589
_cell_length_c	12.759387
_cell_angle_alpha	89.970341
_cell_angle_beta	89.980929
_cell_angle_gamma	90.029758
loop_
_atom_site_label
_atom_site_type_symbol
_atom_site_fract_x
_atom_site_fract_y
_atom_site_fract_z
Zn1	Zn	1.606155	-0.295592	-0.594011
Zn2	Zn	1.606009	-0.419800	-0.418334
Zn3	Zn	1.430458	-0.295632	-0.418348
Zn4	Zn	1.430404	-0.419748	-0.593973
O5	O	1.518256	-0.357693	-0.506166
O6	O	1.753157	-0.312074	-0.570717
O7	O	1.582683	-0.403368	-0.271315
O8	O	1.453848	-0.191702	-0.441672
O9	O	1.753049	-0.403329	-0.441648
O10	O	1.582932	-0.191673	-0.570731
O11	O	1.453706	-0.312142	-0.271325
O12	O	1.283430	-0.312091	-0.441635
O13	O	1.453757	-0.403240	-0.740999
O14	O	1.283390	-0.403279	-0.570666
O15	O	1.582880	-0.312023	-0.741027
O16	O	1.582631	-0.523718	-0.441611
O17	O	1.453615	-0.523680	-0.570652
C18	C	1.245289	-0.357684	-0.506148
C19	C	1.128512	-0.357698	-0.506166
C20	C	1.128510	-0.452806	-0.640308
C21	C	1.073648	-0.500365	-0.707383
C22	C	0.963926	-0.500374	-0.707395
C23	C	0.909064	-0.452817	-0.640329
C24	C	0.963926	-0.405257	-0.573255
C25	C	1.073650	-0.405255	-0.573247
C26	C	0.963928	-0.310147	-0.439119
C27	C	1.073650	-0.310141	-0.439099
C28	C	0.909066	-0.262590	-0.372052
C29	C	0.963928	-0.215033	-0.304971
C30	C	1.073657	-0.215027	-0.304960
C31	C	1.128512	-0.262582	-0.372025
C32	C	1.518130	-0.550645	-0.506149
C33	C	1.518171	-0.633191	-0.506177
C34	C	1.448082	-0.832648	-0.576325
C35	C	1.422468	-0.882096	-0.480456
C36	C	1.518275	-0.784321	-0.506190
C37	C	1.543940	-0.881955	-0.602070
C38	C	1.518372	-0.930307	-0.506212
C39	C	1.492610	-0.832682	-0.410271
C40	C	1.614127	-0.832537	-0.531950
C41	C	1.588550	-0.881963	-0.436015
C42	C	1.518216	-0.700223	-0.506179
C43	C	1.518432	-1.014403	-0.506212
C44	C	1.792290	-0.357703	-0.506185
C45	C	1.909066	-0.357707	-0.506193
C46	C	1.518329	-0.357622	-0.780200
C47	C	1.518360	-0.357591	-0.896977
C48	C	1.518412	-0.163988	-0.506207
C49	C	1.518479	-0.081442	-0.506224
C50	C	1.652883	-0.262555	-1.116449
C51	C	1.720097	-0.215077	-1.061602
C52	C	1.720068	-0.215101	-0.951880
C53	C	1.652818	-0.262611	-0.897003
C54	C	1.585604	-0.310088	-0.951851
C55	C	1.585639	-0.310057	-1.061575
C56	C	1.451145	-0.405069	-0.951824
C57	C	1.451168	-0.405042	-1.061546
C58	C	1.383896	-0.452578	-0.896948
C59	C	1.316675	-0.500053	-0.951795
C60	C	1.316707	-0.500026	-1.061524
C61	C	1.383954	-0.452520	-1.116394
C62	C	1.518245	-0.357711	-0.233199
C63	C	1.518417	-0.357532	-0.116423
H64	H	0.919258	-0.539097	-0.762019
F65	F	1.245288	-0.262582	-0.372014
F66	F	1.316572	-0.910547	-0.451980
F67	F	1.383871	-0.452607	-0.780172
H68	H	1.565609	-0.903599	-0.683146
H69	H	1.261931	-0.538735	-0.907106
F70	F	1.791609	-0.164574	-0.893506
H71	H	0.819723	-0.452822	-0.640355
F72	F	1.464168	-0.804512	-0.304268
F73	F	1.245286	-0.452809	-0.640287
F74	F	0.792291	-0.262597	-0.372074
F75	F	0.905535	-0.164421	-0.233609
F76	F	1.132043	-0.550980	-0.778751
F77	F	1.652904	-0.262513	-1.233225
H78	H	1.261976	-0.538691	-1.106174
F79	F	1.652802	-0.262643	-0.780228
H80	H	1.383979	-0.452488	-1.205735
H81	H	1.118319	-0.176293	-0.250347
H82	H	1.647952	-0.903480	-0.376645
H83	H	1.695123	-0.810754	-0.553763
H84	H	1.388634	-0.810994	-0.635551
F85	F	1.791669	-0.164519	-1.120012
