data_functionalizedCrystal
_audit_creation_method	'MofGen! by Chris Wilmer'
_symmetry_space_group_name_H-M	'P1'
_symmetry_Int_Tables_number	1
_symmetry_cell_setting	triclinic
loop_
_symmetry_equiv_pos_as_xyz
  x,y,z
_cell_length_a	19.077105
_cell_length_b	12.645330
_cell_length_c	19.076919
_cell_angle_alpha	92.276250
_cell_angle_beta	90.076224
_cell_angle_gamma	87.714233
loop_
_atom_site_label
_atom_site_type_symbol
_atom_site_fract_x
_atom_site_fract_y
_atom_site_fract_z
Zn1	Zn	1.058309	-0.512860	-0.440444
Zn2	Zn	1.062962	-0.683311	-0.322946
Zn3	Zn	0.945526	-0.498659	-0.318237
Zn4	Zn	0.940784	-0.682672	-0.435699
O5	O	1.001896	-0.594376	-0.379332
O6	O	1.157259	-0.541682	-0.428815
O7	O	1.051316	-0.653141	-0.223990
O8	O	0.960524	-0.352199	-0.334463
O9	O	1.160677	-0.666911	-0.342490
O10	O	1.043386	-0.362632	-0.424248
O11	O	0.965036	-0.517478	-0.220530
O12	O	0.846565	-0.516858	-0.329862
O13	O	0.952442	-0.665822	-0.534660
O14	O	0.843081	-0.652051	-0.416161
O15	O	1.038788	-0.541062	-0.538146
O16	O	1.046718	-0.831570	-0.337888
O17	O	0.956954	-0.831101	-0.420727
C18	C	0.819326	-0.582845	-0.371986
C19	C	0.741222	-0.577939	-0.368860
C20	C	0.702735	-0.646120	-0.412251
C21	C	0.629348	-0.641496	-0.409318
C22	C	0.594448	-0.568695	-0.362988
C23	C	0.632940	-0.500507	-0.319594
C24	C	0.706326	-0.505126	-0.322532
C25	C	0.375159	-0.547316	-0.349394
C26	C	0.301768	-0.542704	-0.346458
C27	C	0.298181	-0.683692	-0.436183
C28	C	0.371569	-0.688309	-0.439113
C29	C	0.410054	-0.620117	-0.395722
N30	N	0.519434	-0.563970	-0.359986
N31	N	0.485066	-0.624839	-0.398728
C32	C	1.001845	-0.869801	-0.379320
C33	C	1.001886	-0.987635	-0.379341
C34	C	0.945633	-1.154972	-0.431631
C35	C	0.945363	-1.032385	-0.431445
C36	C	0.984820	-1.026659	-0.304483
C37	C	0.984477	-1.149256	-0.304800
C38	C	1.075561	-1.160522	-0.401321
C39	C	1.075039	-1.037980	-0.402922
C40	C	1.185178	-0.605952	-0.386707
C41	C	1.263281	-0.610885	-0.389850
C42	C	0.994567	-0.604955	-0.562612
C43	C	0.991444	-0.609463	-0.640716
C44	C	1.001965	-0.317876	-0.379360
C45	C	1.001995	-0.200049	-0.379372
C46	C	1.034930	-0.546628	-0.679225
C47	C	1.031987	-0.550859	-0.752611
C48	C	0.985561	-0.617932	-0.787487
C49	C	0.942070	-0.680769	-0.748972
C50	C	0.945010	-0.676531	-0.675587
C51	C	0.971944	-0.637565	-1.006769
C52	C	0.969009	-0.641800	-1.080159
C53	C	1.058925	-0.511889	-1.083793
C54	C	1.061864	-0.507662	-1.010407
C55	C	1.018371	-0.570495	-0.971898
N56	N	0.982553	-0.622261	-0.862499
N57	N	1.021376	-0.566159	-0.896887
C58	C	1.009236	-0.583764	-0.196766
C59	C	1.012495	-0.578966	-0.118668
H60	H	0.399979	-0.747594	-0.476839
N61	N	0.894635	-0.749256	-0.784600
N62	N	0.848233	-0.711478	-0.823748
H63	H	0.814731	-0.759845	-0.848913
N64	N	0.917125	-1.179771	-0.281903
N65	N	0.870700	-1.110551	-0.265802
H66	H	0.823131	-1.132096	-0.249630
N67	N	0.258858	-0.753338	-0.480497
N68	N	0.193336	-0.749209	-0.477869
H69	H	0.165563	-0.798398	-0.509169
N70	N	0.266128	-0.468330	-0.299126
N71	N	0.300497	-0.407450	-0.260389
H72	H	0.275327	-0.354925	-0.226962
H73	H	1.117515	-1.189748	-0.363295
H74	H	0.406485	-0.491797	-0.314057
H75	H	1.094334	-0.460732	-1.115154
H76	H	0.604518	-0.441227	-0.281874
N77	N	1.095817	-1.204544	-0.468831
N78	N	1.056275	-1.265594	-0.501589
H79	H	1.070574	-1.296688	-0.549269
H80	H	0.737661	-0.449601	-0.287201
H81	H	1.067399	-0.499695	-0.783962
N82	N	1.082344	-0.478110	-0.643593
N83	N	1.084963	-0.474330	-0.578071
H84	H	1.118448	-0.425935	-0.552906
N85	N	1.034856	-0.990064	-0.254142
N86	N	1.083767	-0.934679	-0.272920
H87	H	1.119107	-0.908832	-0.237369
N88	N	0.738371	-0.720500	-0.459575
N89	N	0.703995	-0.781370	-0.498313
H90	H	0.729160	-0.833903	-0.531738
N91	N	0.590046	-0.711143	-0.453651
N92	N	0.621214	-0.776140	-0.495012
H93	H	0.593458	-0.825330	-0.526326
N94	N	0.958326	-0.999563	-0.500963
N95	N	0.967635	-1.067247	-0.549957
H96	H	0.976788	-1.044073	-0.599058
N97	N	0.958485	-1.196859	-0.501363
N98	N	0.958184	-1.294569	-0.514098
H99	H	0.967280	-1.324149	-0.563347
H100	H	1.023908	-1.178854	-0.264375
H101	H	0.891372	-1.181699	-0.417028
N102	N	0.900602	-0.740719	-0.636238
N103	N	0.903233	-0.736928	-0.570717
H104	H	0.871867	-0.782259	-0.542925
N105	N	1.130196	-1.000204	-0.358952
N106	N	1.141333	-0.903432	-0.354383
H107	H	1.180286	-0.876753	-0.323322
N108	N	0.876867	-0.990443	-0.412909
N109	N	0.829114	-1.051725	-0.400065
H110	H	0.780736	-1.022105	-0.386972
H111	H	1.099671	-0.453047	-0.982016
N112	N	0.918194	-0.982806	-0.281259
N113	N	0.883169	-0.922812	-0.319707
H114	H	0.836113	-0.891840	-0.303309
H115	H	1.087964	-1.012952	-0.458029
N116	N	0.921558	-0.710274	-1.115786
N117	N	0.857050	-0.698625	-1.104981
H118	H	0.823534	-0.746969	-1.130147
N119	N	0.927514	-0.701753	-0.967450
N120	N	0.886069	-0.761635	-0.998601
H121	H	0.854688	-0.806972	-0.970830
