data_functionalizedCrystal
_audit_creation_method	'MofGen! by Chris Wilmer'
_symmetry_space_group_name_H-M	'P1'
_symmetry_Int_Tables_number	1
_symmetry_cell_setting	triclinic
loop_
_symmetry_equiv_pos_as_xyz
  x,y,z
_cell_length_a	16.992694
_cell_length_b	19.288865
_cell_length_c	17.766277
_cell_angle_alpha	89.989546
_cell_angle_beta	89.996292
_cell_angle_gamma	86.902236
loop_
_atom_site_label
_atom_site_type_symbol
_atom_site_fract_x
_atom_site_fract_y
_atom_site_fract_z
O1	O	-1.039877	-0.147252	0.062515
O2	O	-0.811597	-0.145637	0.062537
O3	O	-0.932333	-0.045698	0.062510
O4	O	-0.919141	-0.247190	0.062541
O5	O	-0.932312	-0.045694	-0.062678
O6	O	-0.811576	-0.145632	-0.062652
O7	O	-1.039855	-0.147248	-0.062674
Cu8	Cu	-0.925713	-0.146440	-0.074094
Cu9	Cu	-0.925739	-0.146445	0.073956
O10	O	-0.919119	-0.247186	-0.062647
C11	C	-0.782381	-0.143556	-0.000055
C12	C	-0.695359	-0.137355	-0.000047
C13	C	-0.931898	-0.019795	-0.000086
C14	C	-0.930624	0.057383	-0.000093
C15	C	-1.069071	-0.149328	-0.000080
C16	C	-1.156093	-0.155529	-0.000083
C17	C	-0.644907	-0.197184	-0.000039
C18	C	-0.563141	-0.191353	-0.000050
C19	C	-0.531829	-0.125694	-0.000064
C20	C	-0.582287	-0.065862	-0.000075
C21	C	-0.664051	-0.071693	-0.000069
C22	C	-0.288316	-0.101527	-0.000088
C23	C	-0.206545	-0.095701	-0.000092
C24	C	-0.187405	-0.221193	-0.000068
C25	C	-0.269172	-0.227018	-0.000057
C26	C	-0.319623	-0.167186	-0.000072
N27	N	-0.448251	-0.119733	-0.000074
N28	N	-0.403199	-0.173147	-0.000069
C29	C	-0.919555	-0.273089	-0.000049
C30	C	-0.920829	-0.350267	-0.000038
N31	N	-0.925701	-0.146436	-0.178224
C32	C	-1.001466	0.097950	-0.000103
C33	C	-1.000269	0.170467	-0.000091
C34	C	-0.928225	0.202413	-0.000084
C35	C	-0.857374	0.161837	-0.000069
C36	C	-0.858573	0.089321	-0.000074
C37	C	-0.871583	0.314003	-0.043929
C38	C	-0.870387	0.386517	-0.043929
C39	C	-0.924524	0.426075	-0.000067
C40	C	-0.979870	0.393110	0.043787
C41	C	-0.981069	0.320595	0.043782
C42	C	-0.926917	0.281044	-0.000079
C43	C	-0.994073	0.545274	-0.000063
C44	C	-0.992873	0.617792	-0.000046
C45	C	-0.849976	0.609160	-0.000032
C46	C	-0.851178	0.536643	-0.000041
C47	C	-0.923229	0.504705	-0.000060
C48	C	-0.973090	-0.191222	-0.217602
C49	C	-0.973102	-0.191220	-0.296404
C50	C	-0.925711	-0.146441	-0.335824
C51	C	-0.878320	-0.101646	-0.296436
C52	C	-0.878315	-0.101644	-0.217636
C53	C	-0.855045	-0.140565	-0.460678
C54	C	-0.855048	-0.140572	-0.539476
C55	C	-0.925728	-0.146444	-0.578871
C56	C	-0.996405	-0.152322	-0.539457
C57	C	-0.996400	-0.152320	-0.460656
C58	C	-0.925712	-0.146438	-0.421270
C59	C	-0.973134	-0.191230	-0.703695
C60	C	-0.973148	-0.191224	-0.782499
C61	C	-0.878358	-0.101654	-0.782529
C62	C	-0.878351	-0.101656	-0.703727
C63	C	-0.925738	-0.146448	-0.664315
N64	N	-0.925757	-0.146443	0.178087
H65	H	-0.670395	-0.250650	-0.000026
C66	C	-0.812032	0.270493	-0.092182
H67	H	-0.820667	0.222585	-0.085900
H68	H	-0.818718	0.282805	-0.143648
H69	H	-0.759968	0.279241	-0.076753
C70	C	-1.074136	-0.158782	-0.417300
H71	H	-1.064006	-0.157944	-0.364728
H72	H	-1.109898	-0.121103	-0.430216
H73	H	-1.096457	-0.201294	-0.430199
C74	C	-0.777312	-0.134077	-0.582825
H75	H	-0.735221	-0.130558	-0.548079
H76	H	-0.767632	-0.173916	-0.613568
H77	H	-0.781124	-0.093729	-0.613562
C78	C	-1.074159	-0.158781	-0.582776
H79	H	-1.116247	-0.162287	-0.548017
H80	H	-1.083821	-0.118933	-0.613522
H81	H	-1.070379	-0.199123	-0.613507
C82	C	-0.809510	0.422772	-0.092165
H83	H	-0.777431	0.388828	-0.118278
H84	H	-0.836135	0.452704	-0.127437
H85	H	-0.777396	0.449142	-0.060533
C86	C	-0.778128	0.196974	-0.000064
H87	H	-0.787559	0.245973	-0.000070
H88	H	-0.748975	0.183310	0.043595
H89	H	-0.748963	0.183325	-0.043723
C90	C	-0.507647	-0.257165	-0.000038
H91	H	-0.538007	-0.297103	-0.000019
H92	H	-0.475354	-0.257501	-0.043696
H93	H	-0.475353	-0.257497	0.043621
H94	H	-0.181054	-0.042230	-0.000103
C95	C	-1.070804	0.662417	-0.000059
H96	H	-1.113883	0.633006	-0.000079
H97	H	-1.073321	0.690875	0.043598
H98	H	-1.073291	0.690893	-0.043719
C99	C	-1.039429	0.436610	0.092036
H100	H	-1.072564	0.406593	0.118146
H101	H	-1.011869	0.463255	0.127311
H102	H	-1.070609	0.466816	0.060408
C103	C	-0.777291	-0.134110	-0.417351
H104	H	-0.735199	-0.130621	-0.452109
H105	H	-0.781064	-0.093774	-0.386618
H106	H	-0.767637	-0.173966	-0.386606
C107	C	-0.547845	0.006362	-0.000090
H108	H	-0.491923	0.001267	-0.000084
H109	H	-0.565176	0.031190	-0.043749
H110	H	-0.565180	0.031184	0.043569
H111	H	-1.011719	-0.227702	-0.671604
C112	C	-0.343802	-0.035714	-0.000099
H113	H	-0.313440	0.004224	-0.000101
H114	H	-0.376095	-0.035376	-0.043754
H115	H	-0.376097	-0.035379	0.043563
C116	C	-0.826188	-0.052392	-0.339795
H117	H	-0.832972	-0.058813	-0.392366
H118	H	-0.840922	-0.005691	-0.326893
H119	H	-0.772503	-0.062295	-0.326883
H120	H	-0.791316	0.635169	-0.000022
H121	H	-0.146320	-0.269905	-0.000057
H122	H	-0.705129	-0.022974	-0.000076
H123	H	-1.060135	0.071951	-0.000116
C124	C	-1.078198	0.215100	-0.000108
H125	H	-1.121280	0.185693	-0.000125
H126	H	-1.080713	0.243562	0.043547
H127	H	-1.080683	0.243573	-0.043771
H128	H	-1.011743	-0.227692	-0.814559
C129	C	-1.041940	0.284332	0.092018
H130	H	-1.034901	0.235480	0.085727
H131	H	-1.034865	0.295787	0.143487
H132	H	-1.093610	0.299350	0.076588
H133	H	-0.294660	-0.280485	-0.000037
C134	C	-1.073322	0.510135	-0.000075
H135	H	-1.063890	0.461137	-0.000086
H136	H	-1.102489	0.523780	0.043580
H137	H	-1.102473	0.523804	-0.043738
H138	H	-0.793490	0.503612	-0.000037
C139	C	-0.780643	0.044695	-0.000069
H140	H	-0.737563	0.074104	-0.000066
H141	H	-0.778148	0.016214	0.043582
H142	H	-0.778135	0.016241	-0.043735
C143	C	-1.025220	-0.240485	-0.174253
H144	H	-1.053450	-0.267154	-0.208997
H145	H	-0.992981	-0.270644	-0.143508
H146	H	-1.061403	-0.214043	-0.143518
C147	C	-0.826179	-0.052383	-0.174318
H148	H	-0.797952	-0.025714	-0.209078
H149	H	-0.858412	-0.022223	-0.143576
H150	H	-0.789993	-0.078826	-0.143581
H151	H	-1.011692	-0.227692	-0.328473
H152	H	-0.839772	-0.065192	-0.814624
H153	H	-0.839759	-0.065190	-0.671665
