data_functionalizedCrystal
_audit_creation_method	'MofGen! by Chris Wilmer'
_symmetry_space_group_name_H-M	'P1'
_symmetry_Int_Tables_number	1
_symmetry_cell_setting	triclinic
loop_
_symmetry_equiv_pos_as_xyz
  x,y,z
_cell_length_a	14.044191
_cell_length_b	14.044220
_cell_length_c	9.130313
_cell_angle_alpha	89.994483
_cell_angle_beta	89.998938
_cell_angle_gamma	93.190327
loop_
_atom_site_label
_atom_site_type_symbol
_atom_site_fract_x
_atom_site_fract_y
_atom_site_fract_z
O1	O	1.277171	0.230200	-0.121735
O2	O	1.610504	0.563533	0.211598
O3	O	1.943838	0.896866	0.544932
O4	O	1.000499	0.221887	-0.121753
O5	O	1.333832	0.555220	0.211580
O6	O	1.667165	0.888554	0.544913
O7	O	1.134682	0.087707	-0.121730
O8	O	1.468015	0.421041	0.211603
O9	O	1.801349	0.754374	0.544937
O10	O	1.142988	0.364379	-0.121758
O11	O	1.476321	0.697712	0.211575
O12	O	1.809654	1.031046	0.544908
O13	O	1.134672	0.087702	0.121869
O14	O	1.468005	0.421036	0.455202
O15	O	1.801338	0.754369	0.788536
O16	O	1.000488	0.221882	0.121845
O17	O	1.333822	0.555215	0.455179
O18	O	1.667155	0.888549	0.788512
O19	O	1.277161	0.230195	0.121864
O20	O	1.610494	0.563528	0.455197
O21	O	1.943827	0.896861	0.788530
Cu22	Cu	1.138824	0.226038	0.144097
Cu23	Cu	1.472157	0.559371	0.477430
Cu24	Cu	1.805490	0.892704	0.810764
Cu25	Cu	1.138836	0.226044	-0.143987
Cu26	Cu	1.472169	0.559377	0.189347
Cu27	Cu	1.805503	0.892710	0.522680
O28	O	1.142977	0.364374	0.121840
O29	O	1.476311	0.697707	0.455174
O30	O	1.809644	1.031041	0.788507
C31	C	0.964872	0.218248	0.000044
C32	C	1.298205	0.551581	0.333377
C33	C	1.631538	0.884914	0.666711
C34	C	0.858728	0.207401	0.000037
C35	C	1.192062	0.540734	0.333371
C36	C	1.525395	0.874067	0.666704
C37	C	0.613270	0.264501	0.000046
C38	C	0.946603	0.597834	0.333379
C39	C	1.279937	0.931168	0.666713
C40	C	0.664395	0.187585	0.000051
C41	C	0.997729	0.520918	0.333385
C42	C	1.331062	0.854251	0.666718
C43	C	0.772532	0.198613	0.000044
C44	C	1.105866	0.531946	0.333377
C45	C	1.439199	0.865280	0.666710
C46	C	0.505123	0.253474	0.000054
C47	C	0.838457	0.586808	0.333387
C48	C	1.171790	0.920141	0.666721
C49	C	1.131041	0.052083	0.000070
C50	C	1.464375	0.385416	0.333403
C51	C	1.797708	0.718750	0.666736
C52	C	1.120197	-0.054060	0.000071
C53	C	1.453530	0.279273	0.333404
C54	C	1.786863	0.612607	0.666738
C55	C	1.100370	-0.248398	0.000048
C56	C	1.433704	0.084935	0.333382
C57	C	1.767037	0.418268	0.666715
C58	C	1.177285	-0.299526	0.000049
C59	C	1.510618	0.033807	0.333382
C60	C	1.843952	0.367140	0.666716
C61	C	1.166253	-0.407663	0.000037
C62	C	1.499587	-0.074329	0.333370
C63	C	1.832920	0.259004	0.666703
C64	C	1.111400	-0.140252	0.000061
C65	C	1.444734	0.193081	0.333394
C66	C	1.778067	0.526415	0.666728
C67	C	1.312788	0.233834	0.000063
C68	C	1.646121	0.567167	0.333397
C69	C	1.979455	0.900500	0.666730
C70	C	1.418931	0.244681	0.000060
C71	C	1.752264	0.578014	0.333394
C72	C	2.085598	0.911348	0.666727
C73	C	1.146618	0.399998	0.000037
C74	C	1.479952	0.733332	0.333371
C75	C	1.813285	1.066665	0.666704
C76	C	1.157463	0.506142	0.000027
C77	C	1.490796	0.839475	0.333360
C78	C	1.824130	1.172808	0.666693
N79	N	1.138822	0.226034	0.346720
N80	N	1.472155	0.559367	0.680053
N81	N	1.805489	0.892700	1.013386
N82	N	1.138844	0.226041	-0.346609
N83	N	1.472178	0.559374	-0.013276
N84	N	1.805511	0.892708	0.320057
C85	C	1.198262	0.166648	0.423382
C86	C	1.531596	0.499981	0.756715
C87	C	1.864929	0.833314	1.090049
C88	C	1.198271	0.166649	0.576719
C89	C	1.531605	0.499982	0.910052
C90	C	1.864938	0.833315	1.243385
C91	C	1.079397	0.285429	0.576718
C92	C	1.412731	0.618763	0.910051
C93	C	1.746064	0.952096	1.243384
C94	C	1.079384	0.285423	0.423384
C95	C	1.412717	0.618756	0.756717
C96	C	1.746051	0.952089	1.090050
H97	H	0.626952	0.113452	-0.000044
H98	H	0.960285	0.446786	0.333289
H99	H	1.293619	0.780119	0.666623
H100	H	0.650711	0.338628	0.000034
H101	H	0.984045	0.671961	0.333367
H102	H	1.317378	1.005294	0.666701
H103	H	1.031006	0.333784	0.639153
H104	H	1.364339	0.667117	0.972486
H105	H	1.697672	1.000451	1.305819
H106	H	1.251419	-0.262085	-0.000044
H107	H	1.584752	0.071248	0.333289
H108	H	1.918085	0.404582	0.666622
H109	H	1.246672	0.118290	0.639133
H110	H	1.580005	0.451624	0.972466
H111	H	1.913339	0.784957	1.305800
H112	H	1.026242	-0.285837	0.000040
H113	H	1.359576	0.047496	0.333373
H114	H	1.692909	0.380830	0.666707
H115	H	1.246659	0.118288	0.360966
H116	H	1.579992	0.451621	0.694299
H117	H	1.913326	0.784955	1.027632
H118	H	1.030976	0.333782	0.360961
H119	H	1.364309	0.667115	0.694294
H120	H	1.697643	1.000448	1.027628
