data_functionalizedCrystal
_audit_creation_method	'MofGen! by Chris Wilmer'
_symmetry_space_group_name_H-M	'P1'
_symmetry_Int_Tables_number	1
_symmetry_cell_setting	triclinic
loop_
_symmetry_equiv_pos_as_xyz
  x,y,z
_cell_length_a	19.805407
_cell_length_b	19.805405
_cell_length_c	19.805399
_cell_angle_alpha	90.028022
_cell_angle_beta	90.015116
_cell_angle_gamma	90.024042
loop_
_atom_site_label
_atom_site_type_symbol
_atom_site_fract_x
_atom_site_fract_y
_atom_site_fract_z
Zn1	Zn	1.034716	-0.269518	0.382692
Zn2	Zn	1.534716	0.230482	0.882692
Zn3	Zn	1.034636	-0.382709	0.269506
Zn4	Zn	1.534636	0.117291	0.769506
Zn5	Zn	0.921536	-0.269534	0.269520
Zn6	Zn	1.421536	0.230466	0.769520
Zn7	Zn	0.921494	-0.382665	0.382656
Zn8	Zn	1.421494	0.117335	0.882656
O9	O	0.978095	-0.326107	0.326094
O10	O	1.478095	0.173893	0.826094
O11	O	1.129422	-0.284545	0.367687
O12	O	1.629422	0.215455	0.867687
O13	O	1.019617	-0.367721	0.174791
O14	O	1.519617	0.132279	0.674791
O15	O	0.936601	-0.174815	0.284554
O16	O	1.436601	0.325185	0.784554
O17	O	1.129363	-0.367706	0.284529
O18	O	1.629363	0.132294	0.784529
O19	O	1.019754	-0.174803	0.367701
O20	O	1.519754	0.325197	0.867701
O21	O	0.936523	-0.284572	0.174802
O22	O	1.436523	0.215428	0.674802
O23	O	0.826814	-0.284529	0.284519
O24	O	1.326814	0.215471	0.784519
O25	O	0.936529	-0.367631	0.477378
O26	O	1.436529	0.132369	0.977378
O27	O	0.826783	-0.367646	0.367639
O28	O	1.326783	0.132354	0.867639
O29	O	1.019713	-0.284502	0.477404
O30	O	1.519713	0.215498	0.977404
O31	O	1.019576	-0.477420	0.284494
O32	O	1.519576	0.022580	0.784494
O33	O	0.936451	-0.477387	0.367625
O34	O	1.436451	0.022613	0.867625
C35	C	0.802239	-0.326085	0.326077
C36	C	1.302239	0.173915	0.826077
C37	C	0.727007	-0.326093	0.326086
C38	C	1.227007	0.173907	0.826086
C39	C	0.691695	-0.282867	0.369452
C40	C	1.191695	0.217133	0.869452
C41	C	0.621006	-0.282871	0.369455
C42	C	1.121006	0.217129	0.869455
C43	C	0.585632	-0.326104	0.326094
C44	C	1.085632	0.173896	0.826094
C45	C	0.620950	-0.369331	0.282724
C46	C	1.120950	0.130669	0.782724
C47	C	0.691637	-0.369323	0.282718
C48	C	1.191637	0.130677	0.782718
C49	C	0.335876	-0.369361	0.282744
C50	C	0.835876	0.130639	0.782744
C51	C	0.265184	-0.369367	0.282755
C52	C	0.765184	0.130633	0.782755
C53	C	0.265246	-0.282909	0.369481
C54	C	0.765246	0.217091	0.869481
C55	C	0.335933	-0.282901	0.369476
C56	C	0.835933	0.217099	0.869476
C57	C	0.371245	-0.326126	0.326103
C58	C	0.871245	0.173874	0.826103
C59	C	0.447893	-0.326120	0.326099
C60	C	0.947893	0.173880	0.826099
C61	C	0.508985	-0.326113	0.326100
C62	C	1.008985	0.173887	0.826100
C63	C	0.978018	-0.501963	0.326069
C64	C	1.478018	-0.001963	0.826069
C65	C	0.978047	-0.577195	0.326081
C66	C	1.478047	-0.077195	0.826081
C67	C	1.021319	-0.612474	0.369410
C68	C	1.521319	-0.112474	0.869410
C69	C	1.021344	-0.683163	0.369422
C70	C	1.521344	-0.183163	0.869422
C71	C	0.978099	-0.718570	0.326103
C72	C	1.478099	-0.218570	0.826103
C73	C	0.934822	-0.683285	0.282772
C74	C	1.434822	-0.183285	0.782772
C75	C	0.934795	-0.612598	0.282763
C76	C	1.434795	-0.112598	0.782763
C77	C	0.934931	-0.968359	0.282807
C78	C	1.434931	-0.468359	0.782807
C79	C	0.934963	-1.039051	0.282817
C80	C	1.434963	-0.539051	0.782817
C81	C	1.021480	-1.038923	0.369466
C82	C	1.521480	-0.538923	0.869466
C83	C	1.021453	-0.968236	0.369457
C84	C	1.521453	-0.468236	0.869457
C85	C	0.978173	-0.932957	0.326129
C86	C	1.478173	-0.432957	0.826129
C87	C	0.978147	-0.856309	0.326117
C88	C	1.478147	-0.356309	0.826117
C89	C	0.978129	-0.795217	0.326111
C90	C	1.478129	-0.295217	0.826111
C91	C	1.154638	-0.326128	0.326111
C92	C	1.654638	0.173872	0.826111
C93	C	1.229870	-0.326138	0.326118
C94	C	1.729870	0.173862	0.826118
C95	C	0.978125	-0.326060	0.502636
C96	C	1.478125	0.173940	1.002636
C97	C	0.978138	-0.326040	0.577868
C98	C	1.478138	0.173960	1.077868
C99	C	0.978191	-0.149564	0.326133
C100	C	1.478191	0.350436	0.826133
C101	C	0.978232	-0.074332	0.326150
C102	C	1.478232	0.425668	0.826150
C103	C	0.978105	-0.326104	0.150238
C104	C	1.478105	0.173896	0.650238
C105	C	0.978223	-0.325934	0.075006
C106	C	1.478223	0.174066	0.575006
C107	C	0.934883	-0.282740	0.613218
C108	C	1.434883	0.217260	1.113218
C109	C	0.934893	-0.282727	0.683906
C110	C	1.434893	0.217273	1.183906
C111	C	0.978160	-0.326010	0.719244
C112	C	1.478160	0.173990	1.219244
C113	C	1.021417	-0.369315	0.683890
C114	C	1.521417	0.130685	1.183890
C115	C	1.021404	-0.369331	0.613203
C116	C	1.521404	0.130669	1.113203
C117	C	1.021471	-0.369252	0.968963
C118	C	1.521471	0.130748	1.468963
C119	C	1.021482	-0.369231	1.039656
C120	C	1.521482	0.130769	1.539656
C121	C	0.934959	-0.282647	1.039667
C122	C	1.434959	0.217353	1.539667
C123	C	0.934946	-0.282663	0.968980
C124	C	1.434946	0.217337	1.468980
C125	C	0.978200	-0.325970	0.933632
C126	C	1.478200	0.174030	1.433632
C127	C	0.978188	-0.325985	0.856983
C128	C	1.478188	0.174015	1.356983
C129	C	0.978176	-0.325993	0.795891
C130	C	1.478176	0.174007	1.295891
H131	H	0.720387	-0.404522	0.247405
H132	H	1.220387	0.095478	0.747405
H133	H	0.592258	-0.247674	0.404769
H134	H	1.092258	0.252326	0.904769
N135	N	1.068141	-0.415925	1.077776
N136	N	1.568141	0.084075	1.577776
H137	H	1.099531	-0.388418	1.107113
H138	H	1.599531	0.111582	1.607113
H139	H	1.095494	-0.443357	1.044618
H140	H	1.595494	0.056643	1.544618
H141	H	0.592142	-0.404529	0.247416
H142	H	1.092142	0.095471	0.747416
H143	H	0.899557	-0.583874	0.247482
H144	H	1.399557	-0.083874	0.747482
N145	N	0.729846	-0.236241	0.416224
N146	N	1.229846	0.263759	0.916224
H147	H	0.696747	-0.208858	0.443696
H148	H	1.196747	0.291142	0.943696
H149	H	0.759176	-0.204880	0.388727
H150	H	1.259176	0.295120	0.888727
N151	N	1.068024	-0.721213	0.416149
N152	N	1.568024	-0.221213	0.916149
H153	H	1.061479	-0.771365	0.409584
H154	H	1.561479	-0.271365	0.909584
H155	H	1.057459	-0.708834	0.464479
H156	H	1.557459	-0.208834	0.964479
H157	H	0.899609	-0.712120	0.247503
H158	H	1.399609	-0.212120	0.747503
N159	N	0.227153	-0.236280	0.416252
N160	N	0.727153	0.263720	0.916252
H161	H	0.239470	-0.187905	0.405825
H162	H	0.739470	0.312095	0.905825
H163	H	0.239479	-0.246911	0.464575
H164	H	0.739479	0.253089	0.964575
H165	H	1.056631	-0.404585	0.584422
H166	H	1.556631	0.095415	1.084422
N167	N	1.068096	-0.930046	0.416179
N168	N	1.568096	-0.430046	0.916179
H169	H	1.095512	-0.963123	0.443631
H170	H	1.595512	-0.463123	0.943631
H171	H	1.040510	-0.900722	0.447471
H172	H	1.540510	-0.400722	0.947471
N173	N	0.227028	-0.415998	0.235985
N174	N	0.727028	0.084002	0.735985
H175	H	0.260123	-0.443378	0.208505
H176	H	0.760123	0.056622	0.708505
H177	H	0.197695	-0.388404	0.204718
H178	H	0.697695	0.111596	0.704718
H179	H	1.056537	-0.583650	0.404683
H180	H	1.556537	-0.083650	0.904683
N181	N	0.888237	-0.236027	0.722034
N182	N	1.388237	0.263973	1.222034
H183	H	0.860828	-0.208607	0.688921
H184	H	1.360828	0.291393	1.188921
H185	H	0.915811	-0.204703	0.751375
H186	H	1.415811	0.295297	1.251375
H187	H	1.056718	-1.067655	0.404747
H188	H	1.556718	-0.567655	0.904747
N189	N	0.888319	-1.077243	0.236091
N190	N	1.388319	-0.577243	0.736091
H191	H	0.860897	-1.044168	0.208642
H192	H	1.360897	-0.544168	0.708642
H193	H	0.856995	-1.106583	0.263621
H194	H	1.356995	-0.606583	0.763621
N195	N	0.374087	-0.236276	0.416246
N196	N	0.874087	0.263724	0.916246
H197	H	0.340990	-0.208891	0.443719
H198	H	0.840990	0.291109	0.943719
H199	H	0.403416	-0.204915	0.388747
H200	H	0.903416	0.295085	0.888747
N201	N	1.068120	-0.415957	0.930841
N202	N	1.568120	0.084043	1.430841
H203	H	1.095534	-0.443372	0.963954
H204	H	1.595534	0.056628	1.463954
H205	H	1.099453	-0.388417	0.901521
H206	H	1.599453	0.111583	1.401521
H207	H	0.899693	-0.939640	0.247527
H208	H	1.399693	-0.439640	0.747527
N209	N	0.888222	-0.236048	0.575105
N210	N	1.388222	0.263952	1.075105
H211	H	0.860822	-0.208616	0.608228
H212	H	1.360822	0.291384	1.108228
H213	H	0.856877	-0.263599	0.545765
H214	H	1.356877	0.236401	1.045765
H215	H	0.899715	-0.247415	0.940211
H216	H	1.399715	0.252585	1.440211
N217	N	0.888293	-0.235949	1.077793
N218	N	1.388293	0.264051	1.577793
H219	H	0.915816	-0.204580	1.107139
H220	H	1.415816	0.295420	1.607139
H221	H	0.856927	-0.263501	1.107067
H222	H	1.356927	0.236499	1.607067
N223	N	0.373957	-0.415978	0.235964
N224	N	0.873957	0.084022	0.735964
H225	H	0.340819	-0.443366	0.208499
H226	H	0.840819	0.056634	0.708499
H227	H	0.403288	-0.447335	0.263453
H228	H	0.903288	0.052665	0.763453
N229	N	1.068078	-0.416009	0.722001
N230	N	1.568078	0.083991	1.222001
H231	H	1.061524	-0.409429	0.772145
H232	H	1.561524	0.090571	1.272145
H233	H	1.116422	-0.405488	0.709652
H234	H	1.616422	0.094512	1.209652
