data_functionalizedCrystal
_audit_creation_method	'MofGen! by Chris Wilmer'
_symmetry_space_group_name_H-M	'P1'
_symmetry_Int_Tables_number	1
_symmetry_cell_setting	triclinic
loop_
_symmetry_equiv_pos_as_xyz
  x,y,z
_cell_length_a	14.519709
_cell_length_b	10.489763
_cell_length_c	12.996460
_cell_angle_alpha	90.010880
_cell_angle_beta	90.000034
_cell_angle_gamma	95.885747
loop_
_atom_site_label
_atom_site_type_symbol
_atom_site_fract_x
_atom_site_fract_y
_atom_site_fract_z
O1	O	1.224790	-0.167202	-0.085444
O2	O	1.724790	0.332798	0.414556
O3	O	0.956421	-0.186892	-0.085477
O4	O	1.456421	0.313108	0.414523
O5	O	1.096701	0.008613	-0.085440
O6	O	1.596701	0.508613	0.414560
O7	O	1.084509	-0.362707	-0.085480
O8	O	1.584509	0.137293	0.414520
O9	O	1.096686	0.008624	0.085693
O10	O	1.596686	0.508624	0.585693
O11	O	0.956406	-0.186881	0.085657
O12	O	1.456406	0.313119	0.585657
O13	O	1.224775	-0.167191	0.085690
O14	O	1.724775	0.332809	0.585690
Cu15	Cu	1.090589	-0.177035	0.101299
Cu16	Cu	1.590589	0.322965	0.601299
Cu17	Cu	1.090607	-0.177048	-0.101086
Cu18	Cu	1.590607	0.322952	0.398914
O19	O	1.084495	-0.362696	0.085653
O20	O	1.584495	0.137304	0.585653
C21	C	0.922049	-0.185969	0.000086
C22	C	1.422049	0.314031	0.500086
C23	C	0.819652	-0.183219	0.000075
C24	C	1.319652	0.316781	0.500075
C25	C	1.095769	0.056140	0.000129
C26	C	1.595769	0.556140	0.500129
C27	C	1.093001	0.197739	0.000137
C28	C	1.593001	0.697739	0.500137
N29	N	1.090584	-0.177025	0.243646
N30	N	1.590584	0.322975	0.743646
C31	C	0.444701	-0.173096	0.000122
C32	C	0.944701	0.326904	0.500122
C33	C	0.549024	-0.175907	0.000109
C34	C	1.049024	0.324093	0.500109
C35	C	0.632173	-0.178157	0.000098
C36	C	1.132173	0.321843	0.500098
C37	C	0.736503	-0.180969	0.000086
C38	C	1.236503	0.319031	0.500086
C39	C	1.259147	-0.168114	0.000125
C40	C	1.759147	0.331886	0.500125
C41	C	1.361543	-0.170864	0.000129
C42	C	1.861543	0.329136	0.500129
C43	C	1.003733	0.264948	0.000124
C44	C	1.503733	0.764948	0.500124
C45	C	1.045888	0.357514	0.084513
C46	C	1.545888	0.857514	0.584513
C47	C	1.045923	0.357478	-0.084211
C48	C	1.545923	0.857478	0.415789
C49	C	1.135192	0.288440	0.084596
C50	C	1.635192	0.788440	0.584596
C51	C	1.135215	0.288395	-0.084204
C52	C	1.635215	0.788395	0.415796
C53	C	1.177434	0.380934	0.000205
C54	C	1.677434	0.880934	0.500205
C55	C	1.085413	0.589775	0.000099
C56	C	1.585413	1.089775	0.500099
C57	C	1.088137	0.448168	0.000138
C58	C	1.588137	0.948168	0.500138
N59	N	1.090620	-0.177048	-0.243433
N60	N	1.590620	0.322952	0.256567
C61	C	1.090605	-0.177049	0.663461
C62	C	1.590605	0.322951	1.163461
C63	C	1.090597	-0.177047	0.546656
C64	C	1.590597	0.322953	1.046656
C65	C	1.090595	-0.177038	0.453557
C66	C	1.590595	0.322962	0.953557
C67	C	1.090585	-0.177034	0.336745
C68	C	1.590585	0.322966	0.836745
H69	H	0.930344	0.214532	0.000197
H70	H	1.430344	0.714532	0.500197
O71	O	1.000735	0.394194	0.169504
O72	O	1.500735	0.894194	0.669504
C73	C	0.923420	0.456186	0.139210
C74	C	1.423420	0.956186	0.639210
H75	H	0.934763	0.495471	0.057912
H76	H	1.434763	0.995471	0.557912
H77	H	0.914268	0.538420	0.194405
H78	H	1.414268	1.038420	0.694405
H79	H	0.858710	0.384797	0.140817
H80	H	1.358710	0.884797	0.640817
O81	O	1.180294	0.252008	0.169692
O82	O	1.680294	0.752008	0.669692
C83	C	1.258143	0.191039	0.139590
C84	C	1.758143	0.691039	0.639590
H85	H	1.247317	0.151947	0.058157
H86	H	1.747317	0.651947	0.558157
H87	H	1.267580	0.108784	0.194640
H88	H	1.767580	0.608784	0.694640
H89	H	1.322481	0.263082	0.141633
H90	H	1.822481	0.763082	0.641633
O91	O	1.265078	0.440765	0.000453
O92	O	1.765078	0.940765	0.500453
C93	C	1.311781	0.405543	0.089523
C94	C	1.811781	0.905543	0.589523
H95	H	1.259051	0.372400	0.151414
H96	H	1.759051	0.872400	0.651414
H97	H	1.358793	0.491526	0.118983
H98	H	1.858793	0.991526	0.618983
H99	H	1.355265	0.324226	0.070198
H100	H	1.855265	0.824226	0.570198
H101	H	1.172960	0.257739	-0.155541
H102	H	1.672960	0.757739	0.344459
H103	H	1.008147	0.388044	-0.155555
H104	H	1.508147	0.888044	0.344445
