data_functionalizedCrystal
_audit_creation_method	'MofGen! by Chris Wilmer'
_symmetry_space_group_name_H-M	'P1'
_symmetry_Int_Tables_number	1
_symmetry_cell_setting	triclinic
loop_
_symmetry_equiv_pos_as_xyz
  x,y,z
_cell_length_a	19.288864
_cell_length_b	19.288865
_cell_length_c	18.366186
_cell_angle_alpha	89.988521
_cell_angle_beta	89.977106
_cell_angle_gamma	83.136245
loop_
_atom_site_label
_atom_site_type_symbol
_atom_site_fract_x
_atom_site_fract_y
_atom_site_fract_z
O1	O	-0.921353	-0.086649	0.060791
O2	O	-0.421353	0.413351	0.560791
O3	O	-0.719092	-0.098337	0.060743
O4	O	-0.219092	0.401663	0.560743
O5	O	-0.826067	0.008637	0.060754
O6	O	-0.326067	0.508637	0.560754
O7	O	-0.814378	-0.193623	0.060780
O8	O	-0.314378	0.306377	0.560780
O9	O	-0.826049	0.008643	-0.060345
O10	O	-0.326049	0.508643	0.439655
O11	O	-0.719074	-0.098332	-0.060357
O12	O	-0.219074	0.401668	0.439643
O13	O	-0.921335	-0.086643	-0.060308
O14	O	-0.421335	0.413357	0.439692
Zn15	Zn	-0.820201	-0.092487	-0.079559
Zn16	Zn	-0.320201	0.407513	0.420441
Zn17	Zn	-0.820225	-0.092494	0.079994
Zn18	Zn	-0.320225	0.407506	0.579994
O19	O	-0.814360	-0.193618	-0.060319
O20	O	-0.314360	0.306382	0.439681
C21	C	-0.693207	-0.097959	0.000187
C22	C	-0.193207	0.402041	0.500187
C23	C	-0.616103	-0.096830	0.000167
C24	C	-0.116103	0.403170	0.500167
C25	C	-0.947220	-0.087022	0.000250
C26	C	-0.447220	0.412978	0.500250
C27	C	-1.024324	-0.088151	0.000274
C28	C	-0.524324	0.411849	0.500274
C29	C	-0.825682	0.034516	0.000202
C30	C	-0.325682	0.534516	0.500202
C31	C	-0.824553	0.111620	0.000195
C32	C	-0.324553	0.611620	0.500195
C33	C	-0.814745	-0.219497	0.000234
C34	C	-0.314745	0.280503	0.500234
C35	C	-0.815874	-0.296601	0.000246
C36	C	-0.315874	0.203399	0.500246
C37	C	-0.571407	-0.159598	0.000187
C38	C	-0.071407	0.340402	0.500187
C39	C	-0.498960	-0.158537	0.000195
C40	C	0.001040	0.341463	0.500195
C41	C	-0.471212	-0.094705	0.000198
C42	C	0.028788	0.405295	0.500198
C43	C	-0.515918	-0.031929	0.000174
C44	C	-0.015918	0.468071	0.500174
C45	C	-0.588364	-0.032991	0.000159
C46	C	-0.088364	0.467009	0.500159
C47	C	-0.362956	-0.044527	0.042642
C48	C	0.137044	0.455473	0.542642
C49	C	-0.290512	-0.043468	0.042662
C50	C	0.209488	0.456532	0.542662
C51	C	-0.247767	-0.091425	0.000241
C52	C	0.252233	0.408575	0.500241
C53	C	-0.277473	-0.140454	-0.042189
C54	C	0.222527	0.359546	0.457811
C55	C	-0.349918	-0.141517	-0.042205
C56	C	0.150082	0.358483	0.457795
C57	C	-0.392658	-0.093546	0.000214
C58	C	0.107342	0.406454	0.500214
C59	C	-0.124514	-0.153047	0.000269
C60	C	0.375486	0.346953	0.500269
C61	C	-0.052066	-0.151984	0.000272
C62	C	0.447934	0.348016	0.500272
C63	C	-0.069026	-0.025374	0.000259
C64	C	0.430974	0.474626	0.500259
C65	C	-0.141473	-0.026439	0.000248
C66	C	0.358527	0.473561	0.500248
C67	C	-0.169212	-0.090278	0.000256
C68	C	0.330788	0.409722	0.500256
N69	N	-0.820190	-0.092482	-0.188451
N70	N	-0.320190	0.407518	0.311549
C71	C	-0.887321	0.156316	0.000207
C72	C	-0.387321	0.656316	0.500207
C73	C	-0.886260	0.228763	0.000218
C74	C	-0.386260	0.728763	0.500218
C75	C	-0.822428	0.256511	0.000203
C76	C	-0.322428	0.756511	0.500203
C77	C	-0.759652	0.211805	0.000196
C78	C	-0.259652	0.711805	0.500196
C79	C	-0.760714	0.139359	0.000192
C80	C	-0.260714	0.639359	0.500192
C81	C	-0.772242	0.364800	-0.042227
C82	C	-0.272242	0.864800	0.457773
C83	C	-0.771182	0.437245	-0.042228
C84	C	-0.271182	0.937245	0.457772
C85	C	-0.819148	0.479956	0.000219
C86	C	-0.319148	0.979956	0.500219
C87	C	-0.868186	0.450216	0.042657
C88	C	-0.368186	0.950216	0.542657
C89	C	-0.869248	0.377771	0.042653
C90	C	-0.369248	0.877771	0.542653
C91	C	-0.821269	0.335065	0.000208
C92	C	-0.321269	0.835065	0.500208
C93	C	-0.880770	0.603209	0.000244
C94	C	-0.380770	1.103209	0.500244
C95	C	-0.879707	0.675657	0.000259
C96	C	-0.379707	1.175657	0.500259
C97	C	-0.753097	0.658697	0.000230
C98	C	-0.253097	1.158697	0.500230
C99	C	-0.754162	0.586250	0.000221
C100	C	-0.254162	1.086250	0.500221
C101	C	-0.818001	0.558511	0.000225
C102	C	-0.318001	1.058511	0.500225
C103	C	-0.867574	-0.045137	-0.226546
C104	C	-0.367574	0.454863	0.273454
C105	C	-0.867578	-0.045134	-0.302774
C106	C	-0.367578	0.454866	0.197226
C107	C	-0.820206	-0.092488	-0.340903
C108	C	-0.320206	0.407512	0.159097
C109	C	-0.772813	-0.139836	-0.302799
C110	C	-0.272813	0.360164	0.197201
C111	C	-0.772805	-0.139834	-0.226572
C112	C	-0.272805	0.360166	0.273428
C113	C	-0.810907	-0.155775	-0.461657
C114	C	-0.310907	0.344225	0.038343
C115	C	-0.810920	-0.155779	-0.537882
C116	C	-0.310920	0.344221	-0.037882
C117	C	-0.820225	-0.092496	-0.576011
C118	C	-0.320225	0.407504	-0.076011
C119	C	-0.829533	-0.029207	-0.537905
C120	C	-0.329533	0.470793	-0.037905
C121	C	-0.829525	-0.029204	-0.461679
C122	C	-0.329525	0.470796	0.038321
C123	C	-0.820208	-0.092496	-0.423558
C124	C	-0.320208	0.407504	0.076442
C125	C	-0.867617	-0.045144	-0.696761
C126	C	-0.367617	0.454856	-0.196761
C127	C	-0.867616	-0.045140	-0.772990
C128	C	-0.367616	0.454860	-0.272990
C129	C	-0.772854	-0.139849	-0.773014
C130	C	-0.272854	0.360151	-0.273014
C131	C	-0.772851	-0.139847	-0.696786
C132	C	-0.272851	0.360153	-0.196786
C133	C	-0.820236	-0.092495	-0.658664
C134	C	-0.320236	0.407505	-0.158664
N135	N	-0.820242	-0.092493	0.188885
N136	N	-0.320242	0.407507	0.688885
H137	H	-0.593987	-0.211580	0.000195
H138	H	-0.093987	0.288420	0.500195
C139	C	-0.800676	-0.225391	-0.419722
C140	C	-0.300676	0.274609	0.080278
H141	H	-0.795146	-0.263083	-0.453331
H142	H	-0.295146	0.236917	0.046669
H143	H	-0.760227	-0.226904	-0.390005
H144	H	-0.260227	0.273096	0.109995
H145	H	-0.840355	-0.229138	-0.389967
H146	H	-0.340355	0.270862	0.110033
C147	C	-0.691666	0.090191	0.000172
C148	C	-0.191666	0.590191	0.500172
H149	H	-0.653497	0.117090	0.000162
H150	H	-0.153497	0.617090	0.500162
H151	H	-0.689455	0.061564	0.042397
H152	H	-0.189455	0.561564	0.542397
H153	H	-0.689445	0.061592	-0.042068
H154	H	-0.189445	0.561592	0.457932
C155	C	-0.002897	-0.221030	0.000294
C156	C	0.497103	0.278970	0.500294
H157	H	0.044223	-0.211256	0.000294
H158	H	0.544223	0.288744	0.500294
H159	H	-0.011308	-0.247213	0.042528
H160	H	0.488692	0.252787	0.542528
H161	H	-0.011263	-0.247216	-0.041938
H162	H	0.488737	0.252784	0.458062
H163	H	-0.939303	0.133736	0.000212
H164	H	-0.439303	0.633736	0.500212
C165	C	-0.720744	-0.191937	-0.814947
C166	C	-0.220744	0.308063	-0.314947
H167	H	-0.727537	-0.185161	-0.865802
H168	H	-0.227537	0.314839	-0.365802
H169	H	-0.674413	-0.184513	-0.802480
H170	H	-0.174413	0.315487	-0.302480
H171	H	-0.728144	-0.238278	-0.802439
H172	H	-0.228144	0.261722	-0.302439
H173	H	-0.906198	-0.006585	-0.665721
H174	H	-0.406198	0.493415	-0.165721
H175	H	-0.266331	-0.003548	0.077215
H176	H	0.233669	0.496452	0.577215
H177	H	-0.374102	-0.181436	-0.076756
H178	H	0.125898	0.318564	0.423244
H179	H	-0.734240	-0.178392	-0.333848
H180	H	-0.234240	0.321608	0.166152
C181	C	-0.800687	-0.225393	-0.579791
C182	C	-0.300687	0.274607	-0.079791
H183	H	-0.795133	-0.263082	-0.546167
H184	H	-0.295133	0.236918	-0.046167
H185	H	-0.840365	-0.229150	-0.609502
H186	H	-0.340365	0.270850	-0.109502
H187	H	-0.760240	-0.226900	-0.609550
H188	H	-0.260240	0.273100	-0.109550
H189	H	-0.046435	0.026600	0.000306
H190	H	0.453565	0.526600	0.500306
C191	C	-0.720742	-0.191938	-0.654876
C192	C	-0.220742	0.308062	-0.154876
H193	H	-0.727521	-0.185154	-0.604018
H194	H	-0.227521	0.314846	-0.104018
H195	H	-0.728145	-0.238275	-0.667356
H196	H	-0.228145	0.261725	-0.167356
H197	H	-0.674408	-0.184515	-0.667390
H198	H	-0.174408	0.315485	-0.167390
H199	H	-0.932751	0.580622	0.000250
H200	H	-0.432751	1.080622	0.500250
C201	C	-0.920956	0.497187	0.089349
C202	C	-0.420956	0.997187	0.589349
H203	H	-0.950314	0.469100	0.114615
H204	H	-0.450314	0.969100	0.614615
H205	H	-0.896537	0.522225	0.123463
H206	H	-0.396537	1.022225	0.623463
H207	H	-0.948582	0.529211	0.058763
H208	H	-0.448582	1.029211	0.558763
C209	C	-0.409969	0.008224	0.089315
C210	C	0.090031	0.508224	0.589315
H211	H	-0.381902	0.037566	0.114596
H212	H	0.118098	0.537566	0.614596
H213	H	-0.441974	0.035860	0.058726
H214	H	0.058026	0.535860	0.558726
H215	H	-0.435027	-0.016217	0.123428
H216	H	0.064973	0.483783	0.623428
H217	H	-0.493322	0.020044	0.000187
H218	H	0.006678	0.520044	0.500187
H219	H	-0.734219	-0.178388	-0.195554
H220	H	-0.234219	0.321612	0.304446
H221	H	-0.733180	0.330029	-0.076796
H222	H	-0.233180	0.830029	0.423204
C223	C	-0.955307	0.277938	0.000226
C224	C	-0.455307	0.777938	0.500226
H225	H	-0.993478	0.251041	0.000223
H226	H	-0.493478	0.751041	0.500223
H227	H	-0.957535	0.306546	0.042455
H228	H	-0.457535	0.806546	0.542455
H229	H	-0.957509	0.306557	-0.042010
H230	H	-0.457509	0.806557	0.457990
H231	H	-0.930822	0.712049	0.000273
H232	H	-0.430822	1.212049	0.500273
H233	H	-0.909175	0.353560	0.077208
H234	H	-0.409175	0.853560	0.577208
H235	H	-0.624756	0.018124	0.000144
H236	H	-0.124756	0.518124	0.500144
C237	C	-0.919688	0.006955	-0.184616
C238	C	-0.419688	0.506955	0.315384
H239	H	-0.947905	0.035157	-0.218226
H240	H	-0.447905	0.535157	0.281774
H241	H	-0.948518	-0.017953	-0.154855
H242	H	-0.448518	0.482047	0.345145
H243	H	-0.894786	0.035811	-0.154905
H244	H	-0.394786	0.535811	0.345095
C245	C	-0.682883	0.689210	0.000216
C246	C	-0.182883	1.189210	0.500216
H247	H	-0.691238	0.738758	0.000217
H248	H	-0.191238	1.238758	0.500217
H249	H	-0.657053	0.673842	0.042439
H250	H	-0.157053	1.173842	0.542439
H251	H	-0.657041	0.673865	-0.042027
H252	H	-0.157041	1.173865	0.457973
C253	C	-0.685116	0.537082	0.000196
C254	C	-0.185116	1.037082	0.500196
H255	H	-0.646947	0.563981	0.000183
H256	H	-0.146947	1.063981	0.500183
H257	H	-0.682903	0.508456	0.042422
H258	H	-0.182903	1.008456	0.542422
H259	H	-0.682896	0.508481	-0.042043
H260	H	-0.182896	1.008481	0.457957
H261	H	-0.707679	0.234401	0.000185
H262	H	-0.207679	0.734401	0.500185
C263	C	-0.449785	-0.227584	0.000227
C264	C	0.050215	0.272416	0.500227
H265	H	-0.476682	-0.265755	0.000236
H266	H	0.023318	0.234245	0.500236
H267	H	-0.421141	-0.229807	-0.041992
H268	H	0.078859	0.270193	0.458008
H269	H	-0.421202	-0.229791	0.042473
H270	H	0.078798	0.270209	0.542473
C271	C	-0.919742	0.006941	-0.814896
C272	C	-0.419742	0.506941	-0.314896
H273	H	-0.947964	0.035136	-0.781271
H274	H	-0.447964	0.535136	-0.281271
H275	H	-0.894858	0.035796	-0.844652
H276	H	-0.394858	0.535796	-0.344652
H277	H	-0.948576	-0.017982	-0.844609
H278	H	-0.448576	0.482018	-0.344609
H279	H	-0.837110	0.022324	-0.568948
H280	H	-0.337110	0.522324	-0.068948
H281	H	-0.177866	0.024674	0.000236
H282	H	0.322134	0.524674	0.500236
H283	H	-0.906165	-0.006578	-0.333797
H284	H	-0.406165	0.493422	0.166203
C285	C	-0.230462	-0.193214	-0.088850
C286	C	0.269538	0.306786	0.411150
H287	H	-0.183062	-0.185558	-0.082771
H288	H	0.316938	0.314442	0.417229
H289	H	-0.236189	-0.239342	-0.073926
H290	H	0.263811	0.260658	0.426074
H291	H	-0.243125	-0.187282	-0.138642
H292	H	0.256875	0.312718	0.361358
C293	C	-0.839752	0.040407	-0.419764
C294	C	-0.339752	0.540407	0.080236
H295	H	-0.845391	0.078097	-0.453382
H296	H	-0.345391	0.578097	0.046618
H297	H	-0.880138	0.041875	-0.389924
H298	H	-0.380138	0.541875	0.110076
H299	H	-0.800023	0.044198	-0.390132
H300	H	-0.300023	0.544198	0.109868
H301	H	-0.147101	-0.205028	0.000265
H302	H	0.352899	0.294972	0.500265
C303	C	-0.717243	0.469956	-0.088903
C304	C	-0.217243	0.969956	0.411097
H305	H	-0.723484	0.519219	-0.082828
H306	H	-0.223484	1.019219	0.417172
H307	H	-0.671467	0.451925	-0.073990
H308	H	-0.171467	0.951925	0.426010
H309	H	-0.723511	0.458911	-0.138691
H310	H	-0.223511	0.958911	0.361309
