data_functionalizedCrystal
_audit_creation_method	'MofGen! by Chris Wilmer'
_symmetry_space_group_name_H-M	'P1'
_symmetry_Int_Tables_number	1
_symmetry_cell_setting	triclinic
loop_
_symmetry_equiv_pos_as_xyz
  x,y,z
_cell_length_a	14.853558
_cell_length_b	13.330367
_cell_length_c	10.654541
_cell_angle_alpha	90.004383
_cell_angle_beta	84.057531
_cell_angle_gamma	90.007028
loop_
_atom_site_label
_atom_site_type_symbol
_atom_site_fract_x
_atom_site_fract_y
_atom_site_fract_z
O1	O	1.197250	0.083411	0.163905
O2	O	0.934894	0.083415	0.183449
O3	O	1.072106	0.083407	-0.009126
O4	O	1.060039	0.083419	0.356479
O5	O	1.072085	-0.083440	-0.009130
O6	O	0.934874	-0.083432	0.183444
O7	O	1.197230	-0.083436	0.163900
Cu8	Cu	1.066050	-0.098669	0.173672
Cu9	Cu	1.066074	0.098648	0.173677
O10	O	1.060019	-0.083428	0.356475
C11	C	0.901291	-0.000008	0.182563
C12	C	0.801192	-0.000006	0.179916
C13	C	0.754177	0.090946	0.178676
C14	C	0.754153	-0.090957	0.178657
C15	C	0.660106	-0.090959	0.176163
C16	C	0.613090	-0.000007	0.174924
C17	C	0.660121	0.090947	0.176178
C18	C	0.613069	-0.181911	0.174895
C19	C	0.519016	-0.181916	0.172399
C20	C	0.471998	-0.090963	0.171169
C21	C	0.519035	-0.000006	0.172426
C22	C	0.472019	0.090947	0.171186
C23	C	0.519053	0.181905	0.172452
C24	C	0.613103	0.181901	0.174948
C25	C	0.377948	-0.090958	0.168673
C26	C	0.377963	0.090948	0.168688
N27	N	1.066040	-0.237450	0.173668
C28	C	1.005314	-0.710069	0.258915
C29	C	1.126858	-0.710045	0.088429
C30	C	1.126848	-0.605026	0.088425
C31	C	1.066071	-0.552525	0.173669
C32	C	1.005304	-0.605041	0.258917
C33	C	1.187620	-0.552502	0.003187
C34	C	1.187613	-0.447477	0.003181
C35	C	1.126831	-0.394973	0.088420
C36	C	1.066061	-0.447496	0.173670
C37	C	1.005284	-0.394995	0.258914
C38	C	0.944508	-0.447516	0.344160
C39	C	0.944522	-0.552537	0.344156
C40	C	1.126818	-0.289952	0.088424
C41	C	1.005273	-0.289966	0.258915
C42	C	1.230834	-0.000011	0.164786
C43	C	1.330932	-0.000006	0.167433
C44	C	1.071210	-0.000016	-0.055917
C45	C	1.068561	-0.000014	-0.195333
N46	N	1.066091	0.237429	0.173672
C47	C	1.232634	-0.000030	-0.225016
C48	C	1.313422	-0.000040	-0.305353
C49	C	1.310927	-0.000037	-0.436345
C50	C	1.227635	-0.000021	-0.487001
C51	C	1.146847	-0.000011	-0.406664
C52	C	1.149351	-0.000017	-0.275670
C53	C	0.982776	0.000012	-0.376981
C54	C	0.985269	0.000002	-0.245989
C55	C	0.899484	0.000028	-0.427637
C56	C	0.818693	0.000031	-0.347299
C57	C	0.821192	0.000026	-0.216300
C58	C	0.904480	0.000011	-0.165651
C59	C	1.060915	-0.000003	0.403266
C60	C	1.063564	0.000002	0.542682
H61	H	0.651407	0.255954	0.175976
H62	H	1.234674	-0.000046	-0.118357
H63	H	0.895041	-0.595306	0.413561
O64	O	0.473317	0.270227	0.171470
C65	C	0.409356	0.275645	0.278681
H66	H	0.431030	0.224034	0.355389
H67	H	0.405082	0.356085	0.315143
H68	H	0.340236	0.251200	0.252205
H69	H	0.750884	0.000050	-0.388555
H70	H	0.955778	-0.247226	0.328327
H71	H	1.381237	-0.000062	-0.264094
O72	O	0.946243	-0.761194	0.341546
C73	C	0.890197	-0.821937	0.274145
H74	H	0.925495	-0.837667	0.175963
H75	H	0.876264	-0.895790	0.326524
H76	H	0.823515	-0.781475	0.265445
O77	O	1.225328	0.000125	-0.614267
C78	C	1.269488	0.086551	-0.666146
H79	H	1.318834	0.115348	-0.599315
H80	H	1.308146	0.067122	-0.761080
H81	H	1.217197	0.147066	-0.679994
H82	H	0.792476	0.165002	0.179712
O83	O	0.885596	-0.396400	0.427018
C84	C	0.934358	-0.335660	0.504638
H85	H	1.004593	-0.319925	0.454798
H86	H	0.896856	-0.261809	0.524406
H87	H	0.941055	-0.376127	0.597472
O88	O	0.658621	-0.270321	0.176257
C89	C	0.626110	-0.325651	0.284328
H90	H	0.554646	-0.299792	0.318750
H91	H	0.625029	-0.408853	0.259781
H92	H	0.672365	-0.313050	0.361839
O93	O	1.389487	-0.000088	-0.514211
C94	C	1.463538	-0.000072	-0.441421
H95	H	1.441269	-0.031660	-0.343696
H96	H	1.520181	-0.048517	-0.489660
H97	H	1.489044	0.079970	-0.432048
O98	O	0.906792	0.000139	-0.038386
C99	C	0.862670	0.086570	0.013525
H100	H	0.813333	0.115390	-0.053291
H101	H	0.824008	0.067140	0.108456
H102	H	0.914988	0.147068	0.027389
H103	H	0.792440	-0.165006	0.179656
O104	O	0.896895	0.000079	-0.554852
C105	C	0.806060	0.000071	-0.582331
H106	H	0.761054	0.031663	-0.498434
H107	H	0.799415	0.048516	-0.669058
H108	H	0.784261	-0.079970	-0.601723
H109	H	1.176346	-0.752795	0.019032
H110	H	0.480729	-0.255980	0.171368
H111	H	0.339656	-0.165015	0.167654
O112	O	1.246525	-0.603554	-0.079735
C113	C	1.197757	-0.664332	-0.157304
H114	H	1.126651	-0.632684	-0.159605
H115	H	1.233916	-0.665537	-0.257033
H116	H	1.193268	-0.743922	-0.118002
H117	H	1.237098	-0.404721	-0.066231
O118	O	1.185757	-0.238966	0.005469
C119	C	1.170369	-0.264646	-0.118900
H120	H	1.098196	-0.293546	-0.119722
H121	H	1.180341	-0.195571	-0.181884
H122	H	1.220127	-0.325585	-0.155662
O123	O	0.742627	-0.000006	-0.138443
C124	C	0.668585	0.000039	-0.211250
H125	H	0.690850	-0.031550	-0.308979
H126	H	0.611916	-0.048391	-0.163033
H127	H	0.643118	0.080090	-0.220610
H128	H	0.339689	0.165013	0.167687
