data_functionalizedCrystal
_audit_creation_method	'MofGen! by Chris Wilmer'
_symmetry_space_group_name_H-M	'P1'
_symmetry_Int_Tables_number	1
_symmetry_cell_setting	triclinic
loop_
_symmetry_equiv_pos_as_xyz
  x,y,z
_cell_length_a	17.038272
_cell_length_b	15.072220
_cell_length_c	15.995350
_cell_angle_alpha	89.991130
_cell_angle_beta	87.301965
_cell_angle_gamma	90.012145
loop_
_atom_site_label
_atom_site_type_symbol
_atom_site_fract_x
_atom_site_fract_y
_atom_site_fract_z
O1	O	-1.037399	0.073664	-0.181832
O2	O	-0.787399	0.323664	0.068168
O3	O	-0.537399	0.573664	0.318168
O4	O	-0.287399	0.823664	0.568168
O5	O	-0.809767	0.073691	-0.178945
O6	O	-0.559767	0.323691	0.071055
O7	O	-0.309767	0.573691	0.321055
O8	O	-0.059767	0.823691	0.571055
O9	O	-0.929805	0.073676	-0.058944
O10	O	-0.679805	0.323676	0.191056
O11	O	-0.429805	0.573676	0.441056
O12	O	-0.179805	0.823676	0.691056
O13	O	-0.917360	0.073679	-0.301833
O14	O	-0.667360	0.323679	-0.051833
O15	O	-0.417360	0.573679	0.198167
O16	O	-0.167360	0.823679	0.448167
O17	O	-0.929821	-0.073889	-0.058922
O18	O	-0.679821	0.176111	0.191078
O19	O	-0.429821	0.426111	0.441078
O20	O	-0.179821	0.676111	0.691078
O21	O	-0.809782	-0.073875	-0.178923
O22	O	-0.559782	0.176125	0.071077
O23	O	-0.309782	0.426125	0.321077
O24	O	-0.059782	0.676125	0.571077
O25	O	-1.037414	-0.073901	-0.181810
O26	O	-0.787414	0.176099	0.068190
O27	O	-0.537414	0.426099	0.318190
O28	O	-0.287414	0.676099	0.568190
Zn29	Zn	-0.923601	-0.097317	-0.180363
Zn30	Zn	-0.673601	0.152683	0.069637
Zn31	Zn	-0.423601	0.402683	0.319637
Zn32	Zn	-0.173601	0.652683	0.569637
Zn33	Zn	-0.923580	0.097107	-0.180392
Zn34	Zn	-0.673580	0.347107	0.069608
Zn35	Zn	-0.423580	0.597107	0.319608
Zn36	Zn	-0.173580	0.847107	0.569608
O37	O	-0.917376	-0.073886	-0.301811
O38	O	-0.667376	0.176114	-0.051811
O39	O	-0.417376	0.426114	0.198189
O40	O	-0.167376	0.676114	0.448189
C41	C	-0.780646	-0.000089	-0.176308
C42	C	-0.530646	0.249911	0.073692
C43	C	-0.280646	0.499911	0.323692
C44	C	-0.030646	0.749911	0.573692
C45	C	-0.693851	-0.000079	-0.168474
C46	C	-0.443851	0.249921	0.081526
C47	C	-0.193851	0.499921	0.331526
C48	C	0.056149	0.749921	0.581526
C49	C	-0.929298	-0.000105	-0.027702
C50	C	-0.679298	0.249895	0.222298
C51	C	-0.429298	0.499895	0.472298
C52	C	-0.179298	0.749895	0.722298
C53	C	-0.927756	-0.000100	0.065359
C54	C	-0.677756	0.249900	0.315359
C55	C	-0.427756	0.499900	0.565359
C56	C	-0.177756	0.749900	0.815359
C57	C	-1.066535	-0.000120	-0.184447
C58	C	-0.816535	0.249880	0.065553
C59	C	-0.566535	0.499880	0.315553
C60	C	-0.316535	0.749880	0.565553
C61	C	-1.153330	-0.000124	-0.192281
C62	C	-0.903330	0.249876	0.057719
C63	C	-0.653330	0.499876	0.307719
C64	C	-0.403330	0.749876	0.557719
C65	C	-0.643755	-0.000078	-0.240402
C66	C	-0.393755	0.249922	0.009598
C67	C	-0.143755	0.499922	0.259598
C68	C	0.106245	0.749922	0.509598
C69	C	-0.562202	-0.000091	-0.233036
C70	C	-0.312202	0.249909	0.016964
C71	C	-0.062202	0.499909	0.266964
C72	C	0.187798	0.749909	0.516964
C73	C	-0.530748	-0.000097	-0.153741
C74	C	-0.280748	0.249903	0.096259
C75	C	-0.030748	0.499903	0.346259
C76	C	0.219252	0.749903	0.596259
C77	C	-0.580851	-0.000100	-0.081807
C78	C	-0.330851	0.249900	0.168193
C79	C	-0.080851	0.499900	0.418193
C80	C	0.169149	0.749900	0.668193
C81	C	-0.662402	-0.000094	-0.089174
C82	C	-0.412402	0.249906	0.160826
C83	C	-0.162402	0.499906	0.410826
C84	C	0.087598	0.749906	0.660826
C85	C	-0.284984	-0.000121	-0.127714
C86	C	-0.034984	0.249879	0.122286
C87	C	0.215016	0.499879	0.372286
C88	C	0.465016	0.749879	0.622286
C89	C	-0.203426	-0.000124	-0.120353
C90	C	0.046574	0.249876	0.129647
C91	C	0.296574	0.499876	0.379647
C92	C	0.546574	0.749876	0.629647
C93	C	-0.184783	-0.000117	-0.271583
C94	C	0.065217	0.249883	-0.021583
C95	C	0.315217	0.499883	0.228417
C96	C	0.565217	0.749883	0.478417
C97	C	-0.266336	-0.000105	-0.278943
C98	C	-0.016336	0.249895	-0.028943
C99	C	0.233664	0.499895	0.221057
C100	C	0.483664	0.749895	0.471057
C101	C	-0.316432	-0.000113	-0.207009
C102	C	-0.066432	0.249887	0.042991
C103	C	0.183568	0.499887	0.292991
C104	C	0.433568	0.749887	0.542991
C105	C	-0.447389	-0.000107	-0.146209
C106	C	-0.197389	0.249893	0.103791
C107	C	0.052611	0.499893	0.353791
C108	C	0.302611	0.749893	0.603791
C109	C	-0.399790	-0.000110	-0.214541
C110	C	-0.149790	0.249890	0.035459
C111	C	0.100210	0.499890	0.285459
C112	C	0.350210	0.749890	0.535459
N113	N	-0.923620	-0.230006	-0.180344
N114	N	-0.673620	0.019994	0.069656
N115	N	-0.423620	0.269994	0.319656
N116	N	-0.173620	0.519994	0.569656
N117	N	-0.923567	0.229795	-0.180405
N118	N	-0.673567	0.479795	0.069595
N119	N	-0.423567	0.729795	0.319595
N120	N	-0.173567	0.979795	0.569595
C121	C	-0.923602	0.588997	-0.180364
C122	C	-0.673602	0.838997	0.069636
C123	C	-0.423602	1.088997	0.319636
C124	C	-0.173602	1.338997	0.569636
C125	C	-0.859441	0.551398	-0.244653
C126	C	-0.609441	0.801398	0.005347
C127	C	-0.359441	1.051398	0.255347
C128	C	-0.109441	1.301398	0.505347
C129	C	-0.859203	0.448572	-0.244472
C130	C	-0.609203	0.698572	0.005528
C131	C	-0.359203	0.948572	0.255528
C132	C	-0.109203	1.198572	0.505528
C133	C	-0.923585	0.410793	-0.180385
C134	C	-0.673585	0.660793	0.069615
C135	C	-0.423585	0.910793	0.319615
C136	C	-0.173585	1.160793	0.569615
C137	C	-0.905981	0.448101	-0.091695
C138	C	-0.655981	0.698101	0.158305
C139	C	-0.405981	0.948101	0.408305
C140	C	-0.155981	1.198101	0.658305
C141	C	-0.905530	0.550959	-0.092054
C142	C	-0.655530	0.800959	0.157946
C143	C	-0.405530	1.050959	0.407946
C144	C	-0.155530	1.300959	0.657946
C145	C	-1.005557	0.551073	-0.203997
C146	C	-0.755557	0.801073	0.046003
C147	C	-0.505557	1.051073	0.296003
C148	C	-0.255557	1.301073	0.546003
C149	C	-1.005001	0.448209	-0.205956
C150	C	-0.755001	0.698209	0.044044
C151	C	-0.505001	0.948209	0.294044
C152	C	-0.255001	1.198209	0.544044
C153	C	-0.923577	0.310079	-0.180391
C154	C	-0.673577	0.560079	0.069609
C155	C	-0.423577	0.810079	0.319609
C156	C	-0.173577	1.060079	0.569609
C157	C	-0.923609	0.689710	-0.180351
C158	C	-0.673609	0.939710	0.069649
C159	C	-0.423609	1.189710	0.319649
C160	C	-0.173609	1.439710	0.569649
C161	C	-0.917883	-0.000103	-0.333053
C162	C	-0.667883	0.249897	-0.083053
C163	C	-0.417883	0.499897	0.166947
C164	C	-0.167883	0.749897	0.416947
C165	C	-0.919425	-0.000103	-0.426114
C166	C	-0.669425	0.249897	-0.176114
C167	C	-0.419425	0.499897	0.073886
C168	C	-0.169425	0.749897	0.323886
C169	C	-0.922217	-0.000102	0.403501
C170	C	-0.672217	0.249898	0.653501
C171	C	-0.422217	0.499898	0.903501
C172	C	-0.172217	0.749898	1.153501
C173	C	-0.836728	0.000239	0.362156
C174	C	-0.586728	0.250239	0.612156
C175	C	-0.336728	0.500239	0.862156
C176	C	-0.086728	0.750239	1.112156
C177	C	-0.838270	-0.000094	0.265356
C178	C	-0.588270	0.249906	0.515356
C179	C	-0.338270	0.499906	0.765356
C180	C	-0.088270	0.749906	1.015356
C181	C	-0.924964	-0.000100	0.235744
C182	C	-0.674964	0.249900	0.485744
C183	C	-0.424964	0.499900	0.735744
C184	C	-0.174964	0.749900	0.985744
C185	C	-0.967139	-0.084371	0.273831
C186	C	-0.717139	0.165629	0.523831
C187	C	-0.467139	0.415629	0.773831
C188	C	-0.217139	0.665629	1.023831
C189	C	-0.964992	-0.084441	0.370619
C190	C	-0.714992	0.165559	0.620619
C191	C	-0.464992	0.415559	0.870619
C192	C	-0.214992	0.665559	1.120619
C193	C	-0.966740	0.083368	0.370827
C194	C	-0.716740	0.333368	0.620827
C195	C	-0.466740	0.583368	0.870827
C196	C	-0.216740	0.833368	1.120827
C197	C	-0.966720	0.084482	0.273883
C198	C	-0.716720	0.334482	0.523883
C199	C	-0.466720	0.584482	0.773883
C200	C	-0.216720	0.834482	1.023883
C201	C	-0.926522	-0.000102	0.140936
C202	C	-0.676522	0.249898	0.390936
C203	C	-0.426522	0.499898	0.640936
C204	C	-0.176522	0.749898	0.890936
C205	C	-0.920662	-0.000106	0.498309
C206	C	-0.670662	0.249894	0.748309
C207	C	-0.420662	0.499894	0.998309
C208	C	-0.170662	0.749894	1.248309
H209	H	-0.669358	-0.000073	-0.304973
H210	H	-0.419358	0.249927	-0.054973
H211	H	-0.169358	0.499927	0.195027
H212	H	0.080642	0.749927	0.445027
H213	H	-0.521416	-0.000089	-0.291608
H214	H	-0.271416	0.249911	-0.041608
H215	H	-0.021416	0.499911	0.208392
H216	H	0.228584	0.749911	0.458392
H217	H	-0.934251	-0.147430	0.391120
H218	H	-0.684251	0.102570	0.641120
H219	H	-0.434251	0.352570	0.891120
H220	H	-0.184251	0.602570	1.141120
H221	H	-0.703190	-0.000093	-0.030601
H222	H	-0.453190	0.249907	0.219399
H223	H	-0.203190	0.499907	0.469399
H224	H	0.046810	0.749907	0.719399
H225	H	-0.846902	0.422343	-0.071464
H226	H	-0.596902	0.672343	0.178536
H227	H	-0.346902	0.922343	0.428536
H228	H	-0.096902	1.172343	0.678536
H229	H	-0.935884	0.146822	0.248821
H230	H	-0.685884	0.396822	0.498821
H231	H	-0.435884	0.646822	0.748821
H232	H	-0.185884	0.896822	0.998821
H233	H	-0.143987	-0.000112	-0.330147
H234	H	0.106013	0.249888	-0.080147
H235	H	0.356013	0.499888	0.169853
H236	H	0.606013	0.749888	0.419853
H237	H	-0.555235	-0.000117	-0.017242
H238	H	-0.305235	0.249883	0.232758
H239	H	-0.055235	0.499883	0.482758
H240	H	0.194765	0.749883	0.732758
H241	H	-1.029771	0.083930	0.398098
H242	H	-0.779771	0.333930	0.648098
H243	H	-0.529771	0.583930	0.898098
H244	H	-0.279771	0.833930	1.148098
H245	H	-0.425404	-0.000109	-0.279103
H246	H	-0.175404	0.249891	-0.029103
H247	H	0.074596	0.499891	0.220897
H248	H	0.324596	0.749891	0.470897
H249	H	-0.421769	-0.000137	-0.081646
H250	H	-0.171769	0.249863	0.168354
H251	H	0.078231	0.499863	0.418354
H252	H	0.328231	0.749863	0.668354
H253	H	-1.030831	-0.087509	0.255168
H254	H	-0.780831	0.162491	0.505168
H255	H	-0.530831	0.412491	0.755168
H256	H	-0.280831	0.662491	1.005168
H257	H	-0.869657	0.423349	-0.310204
H258	H	-0.619657	0.673349	-0.060204
H259	H	-0.369657	0.923349	0.189796
H260	H	-0.119657	1.173349	0.439796
H261	H	-0.937859	-0.147077	0.247544
H262	H	-0.687859	0.102923	0.497544
H263	H	-0.437859	0.352923	0.747544
H264	H	-0.187859	0.602923	0.997544
H265	H	-0.869725	0.576149	-0.310584
H266	H	-0.619725	0.826149	-0.060584
H267	H	-0.369725	1.076149	0.189416
H268	H	-0.119725	1.326149	0.439416
H269	H	-1.054965	0.422490	-0.162636
H270	H	-0.804965	0.672490	0.087364
H271	H	-0.554965	0.922490	0.337364
H272	H	-0.304965	1.172490	0.587364
H273	H	-0.798378	0.423976	-0.228752
H274	H	-0.548378	0.673976	0.021248
H275	H	-0.298378	0.923976	0.271248
H276	H	-0.048378	1.173976	0.521248
H277	H	-0.291940	-0.000090	-0.343514
H278	H	-0.041940	0.249910	-0.093514
H279	H	0.208060	0.499910	0.156486
H280	H	0.458060	0.749910	0.406486
H281	H	-0.177820	-0.000128	-0.055778
H282	H	0.072180	0.249872	0.194222
H283	H	0.322180	0.499872	0.444222
H284	H	0.572180	0.749872	0.694222
H285	H	-0.845767	0.574959	-0.072149
H286	H	-0.595767	0.824959	0.177851
H287	H	-0.345767	1.074959	0.427851
H288	H	-0.095767	1.324959	0.677851
H289	H	-0.938783	0.147239	0.393349
H290	H	-0.688783	0.397239	0.643349
H291	H	-0.438783	0.647239	0.893349
H292	H	-0.188783	0.897239	1.143349
H293	H	-0.950496	0.575829	-0.042466
H294	H	-0.700496	0.825829	0.207534
H295	H	-0.450496	1.075829	0.457534
H296	H	-0.200496	1.325829	0.707534
H297	H	-0.325762	-0.000128	-0.069140
H298	H	-0.075762	0.249872	0.180860
H299	H	0.174238	0.499872	0.430860
H300	H	0.424238	0.749872	0.680860
H301	H	-0.798961	0.577255	-0.229115
H302	H	-0.548961	0.827255	0.020885
H303	H	-0.298961	1.077255	0.270885
H304	H	-0.048961	1.327255	0.520885
H305	H	-0.804909	-0.060598	0.239877
H306	H	-0.554909	0.189402	0.489877
H307	H	-0.304909	0.439402	0.739877
H308	H	-0.054909	0.689402	0.989877
H309	H	-0.951476	0.423627	-0.042459
H310	H	-0.701476	0.673627	0.207541
H311	H	-0.451476	0.923627	0.457541
H312	H	-0.201476	1.173627	0.707541
H313	H	-1.022528	0.577028	-0.267607
H314	H	-0.772528	0.827028	-0.017607
H315	H	-0.522528	1.077028	0.232393
H316	H	-0.272528	1.327028	0.482393
H317	H	-1.018357	0.423841	-0.271236
H318	H	-0.768357	0.673841	-0.021236
H319	H	-0.518357	0.923841	0.228764
H320	H	-0.268357	1.173841	0.478764
H321	H	-1.053302	0.575389	-0.157187
H322	H	-0.803302	0.825389	0.092813
H323	H	-0.553302	1.075389	0.342813
H324	H	-0.303302	1.325389	0.592813
H325	H	-1.029940	0.089565	0.254017
H326	H	-0.779940	0.339565	0.504017
H327	H	-0.529940	0.589565	0.754017
H328	H	-0.279940	0.839565	1.004017
H329	H	-0.805119	0.060314	0.239286
H330	H	-0.555119	0.310314	0.489286
H331	H	-0.305119	0.560314	0.739286
H332	H	-0.055119	0.810314	0.989286
H333	H	-0.802552	0.060671	0.383113
H334	H	-0.552552	0.310671	0.633113
H335	H	-0.302552	0.560671	0.883113
H336	H	-0.052552	0.810671	1.133113
H337	H	-0.802716	-0.059849	0.384182
H338	H	-0.552716	0.190151	0.634182
H339	H	-0.302716	0.440151	0.884182
H340	H	-0.052716	0.690151	1.134182
H341	H	-1.027757	-0.088269	0.398397
H342	H	-0.777757	0.161731	0.648397
H343	H	-0.527757	0.411731	0.898397
H344	H	-0.277757	0.661731	1.148397
