data_functionalizedCrystal
_audit_creation_method	'MofGen! by Chris Wilmer'
_symmetry_space_group_name_H-M	'P1'
_symmetry_Int_Tables_number	1
_symmetry_cell_setting	triclinic
loop_
_symmetry_equiv_pos_as_xyz
  x,y,z
_cell_length_a	16.109301
_cell_length_b	10.654550
_cell_length_c	14.586319
_cell_angle_alpha	90.004822
_cell_angle_beta	89.997824
_cell_angle_gamma	83.973192
loop_
_atom_site_label
_atom_site_type_symbol
_atom_site_fract_x
_atom_site_fract_y
_atom_site_fract_z
O1	O	1.104087	0.161424	0.076180
O2	O	1.604087	0.661424	0.576180
O3	O	0.862144	0.181512	0.076194
O4	O	1.362144	0.681512	0.576194
O5	O	0.988678	-0.011347	0.076183
O6	O	1.488678	0.488653	0.576183
O7	O	0.977553	0.354282	0.076191
O8	O	1.477553	0.854282	0.576191
O9	O	0.988677	-0.011359	-0.076297
O10	O	1.488677	0.488641	0.423703
O11	O	0.862143	0.181500	-0.076287
O12	O	1.362143	0.681500	0.423713
O13	O	1.104086	0.161411	-0.076301
O14	O	1.604086	0.661411	0.423699
Cu15	Cu	0.983114	0.171455	-0.090216
Cu16	Cu	1.483114	0.671455	0.409784
Cu17	Cu	0.983115	0.171469	0.090110
Cu18	Cu	1.483115	0.671469	0.590110
O19	O	0.977552	0.354270	-0.076290
O20	O	1.477552	0.854270	0.423710
C21	C	0.831164	0.180692	-0.000044
C22	C	1.331164	0.680692	0.499956
C23	C	0.738854	0.178253	-0.000039
C24	C	1.238854	0.678253	0.499961
C25	C	0.987861	-0.058140	-0.000056
C26	C	1.487861	0.441860	0.499944
C27	C	0.985417	-0.197550	-0.000053
C28	C	1.485417	0.302450	0.499947
C29	C	0.517228	0.287019	-0.000047
C30	C	1.017228	0.787019	0.499953
C31	C	0.430494	0.284717	-0.000053
C32	C	0.930494	0.784717	0.499947
C33	C	0.449008	0.055896	-0.000054
C34	C	0.949008	0.555896	0.499946
C35	C	0.535741	0.058199	-0.000055
C36	C	1.035741	0.558199	0.499945
C37	C	0.569848	0.173764	-0.000047
C38	C	1.069848	0.673764	0.499953
C39	C	0.396382	0.169159	-0.000052
C40	C	0.896382	0.669159	0.499948
C41	C	0.302341	0.166662	-0.000058
C42	C	0.802341	0.666662	0.499942
C43	C	0.663895	0.176262	-0.000042
C44	C	1.163895	0.676262	0.499958
C45	C	1.059918	-0.278046	-0.000060
C46	C	1.559918	0.221954	0.499940
C47	C	1.057616	-0.409036	-0.000053
C48	C	1.557616	0.090964	0.499947
C49	C	0.906306	-0.379020	-0.000036
C50	C	1.406306	0.120980	0.499964
C51	C	0.908608	-0.248033	-0.000036
C52	C	1.408608	0.251967	0.499964
C53	C	1.136726	-0.227564	-0.000076
C54	C	1.636726	0.272436	0.499924
C55	C	1.211233	-0.308061	-0.000084
C56	C	1.711233	0.191939	0.499916
C57	C	1.208932	-0.439051	-0.000078
C58	C	1.708932	0.060949	0.499922
C59	C	1.132123	-0.489543	-0.000063
C60	C	1.632123	0.010457	0.499937
C61	C	1.135066	0.162231	-0.000060
C62	C	1.635066	0.662231	0.499940
C63	C	1.227376	0.164671	-0.000060
C64	C	1.727376	0.664671	0.499940
C65	C	0.978369	0.401063	-0.000049
C66	C	1.478369	0.901063	0.499951
C67	C	0.980813	0.540473	-0.000046
C68	C	1.480813	1.040473	0.499954
N69	N	0.983117	0.171470	0.216942
N70	N	1.483117	0.671470	0.716942
N71	N	0.983119	0.171444	-0.217048
N72	N	1.483119	0.671444	0.282952
C73	C	1.039256	0.086237	0.451943
C74	C	1.539256	0.586237	0.951943
C75	C	1.039259	0.086234	0.547924
C76	C	1.539259	0.586234	1.047924
C77	C	0.926977	0.256685	0.547943
C78	C	1.426977	0.756685	1.047943
C79	C	0.926980	0.256693	0.451964
C80	C	1.426980	0.756693	0.951964
C81	C	0.983118	0.171462	0.403966
C82	C	1.483118	0.671462	0.903966
C83	C	0.983118	0.171451	0.595927
C84	C	1.483118	0.671451	1.095927
C85	C	0.983120	0.171449	0.699994
C86	C	1.483120	0.671449	1.199994
C87	C	0.983117	0.171466	0.299893
C88	C	1.483117	0.671466	0.799893
H89	H	0.544995	0.381119	-0.000048
H90	H	1.044995	0.881119	0.499952
Br91	Br	0.850793	0.372373	0.386845
Br92	Br	1.350793	0.872373	0.886845
Br93	Br	0.359084	0.438426	-0.000059
Br94	Br	0.859084	0.938426	0.499941
Br95	Br	0.402714	-0.100935	-0.000061
Br96	Br	0.902714	0.399065	0.499939
Br97	Br	0.607160	-0.095514	-0.000065
Br98	Br	1.107160	0.404486	0.499935
Br99	Br	1.139854	-0.049793	-0.000092
Br100	Br	1.639854	0.450207	0.499908
Br101	Br	0.850790	0.372349	0.613086
Br102	Br	1.350790	0.872349	1.113086
H103	H	1.273768	-0.266942	-0.000073
H104	H	1.773768	0.233058	0.499927
H105	H	1.269599	-0.504589	-0.000075
H106	H	1.769599	-0.004589	0.499925
H107	H	1.130255	-0.596205	-0.000048
H108	H	1.630255	-0.096205	0.499952
H109	H	0.843772	-0.420141	-0.000026
H110	H	1.343772	0.079859	0.499974
H111	H	0.847943	-0.182490	-0.000031
H112	H	1.347943	0.317510	0.499969
Br113	Br	1.115445	-0.029430	0.386807
Br114	Br	1.615445	0.470570	0.886807
H115	H	1.084972	0.016838	0.586985
H116	H	1.584972	0.516838	1.086985
