data_functionalizedCrystal
_audit_creation_method	'MofGen! by Chris Wilmer'
_symmetry_space_group_name_H-M	'P1'
_symmetry_Int_Tables_number	1
_symmetry_cell_setting	triclinic
loop_
_symmetry_equiv_pos_as_xyz
  x,y,z
_cell_length_a	18.878441
_cell_length_b	14.560438
_cell_length_c	14.560438
_cell_angle_alpha	120.000493
_cell_angle_beta	90.000859
_cell_angle_gamma	60.000434
loop_
_atom_site_label
_atom_site_type_symbol
_atom_site_fract_x
_atom_site_fract_y
_atom_site_fract_z
Zr1	Zr	0.682379	1.005312	0.120539
O2	O	0.569274	1.196913	0.267181
O3	O	0.717052	0.813710	0.075588
O4	O	0.717049	1.005319	0.267191
O5	O	0.569279	1.005298	-0.075565
O6	O	0.833617	1.005325	0.267196
O7	O	0.569277	1.005304	0.075577
O8	O	0.833622	0.662571	-0.075547
O9	O	0.569274	1.348051	0.267178
O10	O	0.818833	0.892522	0.056417
O11	O	0.731842	0.892514	-0.056383
O12	O	0.731838	1.118108	0.169205
O13	O	0.644847	1.118100	0.056405
Zr14	Zr	0.868296	1.005310	-0.120508
Zr15	Zr	0.868291	1.005320	0.120547
Zr16	Zr	0.682383	1.005301	-0.120517
Zr17	Zr	0.682380	1.246359	0.120534
Zr18	Zr	0.868295	0.764262	-0.120504
O19	O	0.833623	1.196911	-0.075557
O20	O	0.833617	1.196926	0.267192
O21	O	0.569280	1.196899	-0.075569
O22	O	0.981401	0.813708	-0.267150
O23	O	0.981395	0.813723	0.075599
O24	O	0.717058	0.813696	-0.267162
O25	O	0.981395	1.005323	0.075596
O26	O	0.833626	1.005302	-0.267160
O27	O	0.717058	1.005296	-0.267166
O28	O	0.981398	1.005317	-0.075547
O29	O	0.717049	1.348058	0.267184
O30	O	0.833625	0.662563	-0.267154
O31	O	0.981401	0.662570	-0.267148
O32	O	0.981397	0.662578	-0.075541
O33	O	0.569277	1.348043	0.075571
O34	O	0.717053	1.348050	0.075578
O35	O	0.818837	0.892513	-0.169175
O36	O	0.905828	0.892522	-0.056375
O37	O	0.818833	1.118108	0.056413
O38	O	0.731842	1.118099	-0.056387
C39	C	0.775337	0.703797	0.000021
C40	C	0.775337	0.601466	0.000023
C41	C	0.820744	0.553394	0.058903
C42	C	0.820747	0.457235	0.058893
C43	C	0.729930	0.457231	-0.058880
C44	C	0.729932	0.553382	-0.058876
C45	C	0.542790	1.005300	0.000005
C46	C	0.463865	1.005296	0.000001
C47	C	0.472194	0.887544	-0.058869
C48	C	0.398033	0.887548	-0.058869
C49	C	0.315544	1.005306	0.000007
C50	C	0.307216	1.123068	0.058879
C51	C	0.381376	1.123062	0.058873
C52	C	0.152646	1.123071	0.058891
C53	C	0.078481	1.123077	0.058899
C54	C	0.169303	0.887557	-0.058852
C55	C	0.243463	0.887552	-0.058858
C56	C	0.235130	1.005314	0.000016
C57	C	1.007885	1.005321	0.000025
C58	C	1.086810	1.005325	0.000029
C59	C	0.775332	1.005324	0.301539
C60	C	0.775330	1.005328	0.403873
C61	C	0.775338	1.306824	0.000009
C62	C	0.775338	1.409155	0.000008
C63	C	0.729926	1.123075	0.606979
C64	C	0.729919	1.123081	0.510830
C65	C	0.820744	0.887562	0.393066
C66	C	0.820746	0.887557	0.489214
C67	C	0.775341	1.005304	0.698495
C68	C	0.775339	1.005318	0.596170
C69	C	1.007885	0.703808	0.000031
C70	C	1.086809	0.601480	0.000036
C71	C	0.775342	0.703784	-0.301503
C72	C	0.775344	0.601448	-0.403835
C73	C	1.007890	0.703795	-0.301492
C74	C	1.086816	0.601463	-0.403821
C75	C	0.542785	1.306827	0.301523
C76	C	0.463859	1.409158	0.403852
C77	C	0.542790	1.306814	-0.000001
C78	C	0.463866	1.409141	-0.000006
C79	C	0.775333	1.306837	0.301533
C80	C	0.775331	1.409173	0.403865
C81	C	1.078462	0.553427	0.058925
C82	C	1.152613	0.457292	0.058953
C83	C	1.235110	0.409207	0.000084
C84	C	1.243455	0.457270	-0.058807
C85	C	1.169305	0.553409	-0.058827
C86	C	1.169297	0.553411	-0.392996
C87	C	1.243464	0.457273	-0.489135
C88	C	1.235148	0.409182	-0.596100
C89	C	1.152658	0.457242	-0.606923
C90	C	1.078493	0.553385	-0.510784
C91	C	0.381378	1.457222	0.393026
C92	C	0.307211	1.553390	0.489166
C93	C	0.315527	1.601486	0.596130
C94	C	0.398017	1.553419	0.606953
C95	C	0.472181	1.457259	0.510815
C96	C	0.472212	1.457205	-0.058885
C97	C	0.398062	1.553365	-0.058886
C98	C	0.315565	1.601454	-0.000014
C99	C	0.307220	1.553386	0.058872
C100	C	0.381370	1.457234	0.058879
C101	C	0.820754	0.553369	-0.510787
C102	C	0.820746	0.457223	-0.606936
C103	C	0.729915	0.457241	-0.489165
C104	C	0.729919	0.553392	-0.393020
H105	H	0.857722	0.418096	0.106837
H106	H	0.692956	0.592521	-0.106828
C107	C	0.562952	1.404331	-0.123648
N108	N	0.631296	1.364520	-0.172424
C109	C	0.679966	1.252624	0.522730
N110	N	0.642339	1.350201	0.531696
C111	C	0.562930	0.757999	-0.123639
N112	N	0.631272	0.660421	-0.172430
C113	C	0.234005	1.707219	-0.000039
N114	N	0.172578	1.786878	-0.000065
H115	H	1.145801	0.418171	0.106909
C116	C	0.407261	1.606212	-0.123678
N117	N	0.414192	1.646010	-0.172483
C118	C	-0.012259	1.252617	0.123652
N119	N	-0.080604	1.350188	0.172422
C120	C	0.372173	1.404360	0.123640
N121	N	0.365240	1.364538	0.172419
C122	C	0.178468	0.758018	-0.123620
N123	N	0.185367	0.660452	-0.172400
H124	H	0.692962	0.418071	-0.106832
C125	C	0.870715	0.606237	-0.522689
N126	N	0.908345	0.646058	-0.531659
H127	H	1.011296	0.592577	0.106877
H128	H	0.857715	0.791685	0.305972
H129	H	1.295481	0.330923	0.000109
H130	H	1.176085	0.592553	-0.305909
C131	C	1.334210	0.404353	-0.123567
N132	N	1.402569	0.364485	-0.172352
H133	H	1.176113	0.592522	-0.106788
H134	H	0.404823	0.791662	-0.106809
H135	H	1.310624	0.418152	-0.480303
C136	C	1.316740	0.303411	-0.701845
N137	N	1.378199	0.223740	-0.781488
C138	C	1.143525	0.404317	-0.724595
N139	N	1.136648	0.364443	-0.813228
C140	C	0.216481	1.606243	0.477234
N141	N	0.148145	1.646050	0.468245
C142	C	0.870698	0.606273	0.123682
N143	N	0.908329	0.646094	0.172472
H144	H	0.145854	1.218965	0.106810
H145	H	0.240041	1.592555	0.106804
H146	H	0.310628	0.791663	-0.106789
C147	C	0.233934	1.707255	0.701875
N148	N	0.172476	1.786915	0.781518
H149	H	1.011336	0.592497	-0.519615
H150	H	0.240047	1.218948	0.106811
H151	H	0.374589	1.218948	0.106797
H152	H	0.692951	1.218964	0.694064
H153	H	0.857726	0.791659	0.480403
H154	H	0.857723	0.418082	-0.694018
H155	H	0.692934	0.418100	-0.480373
H156	H	0.374590	1.418067	0.305939
H157	H	0.692936	0.592542	-0.305928
H158	H	0.404778	1.592592	0.694055
H159	H	0.539339	1.418127	0.519643
