data_functionalizedCrystal
_audit_creation_method	'MofGen! by Chris Wilmer'
_symmetry_space_group_name_H-M	'P1'
_symmetry_Int_Tables_number	1
_symmetry_cell_setting	triclinic
loop_
_symmetry_equiv_pos_as_xyz
  x,y,z
_cell_length_a	16.625546
_cell_length_b	16.959455
_cell_length_c	16.959447
_cell_angle_alpha	90.014322
_cell_angle_beta	89.967784
_cell_angle_gamma	89.980585
loop_
_atom_site_label
_atom_site_type_symbol
_atom_site_fract_x
_atom_site_fract_y
_atom_site_fract_z
Zn1	Zn	-0.321051	-1.208371	-0.446898
Zn2	Zn	0.178949	-0.708371	0.053102
Zn3	Zn	-0.455899	-1.208288	-0.314715
Zn4	Zn	0.044101	-0.708288	0.185285
Zn5	Zn	-0.321077	-1.076199	-0.314736
Zn6	Zn	0.178923	-0.576199	0.185264
Zn7	Zn	-0.455839	-1.076158	-0.446854
Zn8	Zn	0.044161	-0.576158	0.053146
O9	O	-0.388466	-1.142254	-0.380801
O10	O	0.111534	-0.642254	0.119199
O11	O	-0.338954	-1.318970	-0.429374
O12	O	0.161046	-0.818970	0.070626
O13	O	-0.438050	-1.190748	-0.204107
O14	O	0.061950	-0.690748	0.295893
O15	O	-0.208241	-1.093784	-0.332295
O16	O	0.291759	-0.593784	0.167705
O17	O	-0.438026	-1.318909	-0.332260
O18	O	0.061974	-0.818909	0.167740
O19	O	-0.208222	-1.190890	-0.429394
O20	O	0.291778	-0.690890	0.070606
O21	O	-0.338997	-1.093703	-0.204122
O22	O	0.161003	-0.593703	0.295878
O23	O	-0.338939	-0.965583	-0.332252
O24	O	0.161061	-0.465583	0.167748
O25	O	-0.437923	-1.093714	-0.557471
O26	O	0.062077	-0.593714	-0.057471
O27	O	-0.437947	-0.965553	-0.429318
O28	O	0.062053	-0.465553	0.070682
O29	O	-0.338895	-1.190850	-0.557503
O30	O	0.161105	-0.690850	-0.057503
O31	O	-0.568723	-1.190709	-0.332217
O32	O	-0.068723	-0.690709	0.167783
O33	O	-0.568679	-1.093634	-0.429298
O34	O	-0.068679	-0.593634	0.070702
C35	C	-0.388440	-0.936888	-0.380783
C36	C	0.111560	-0.436888	0.119217
C37	C	-0.388448	-0.849031	-0.380794
C38	C	0.111552	-0.349031	0.119206
C39	C	-0.597957	-1.142179	-0.380768
C40	C	-0.097957	-0.642179	0.119232
C41	C	-0.687578	-1.142219	-0.380780
C42	C	-0.187578	-0.642219	0.119220
C43	C	-0.388400	-1.142287	-0.586969
C44	C	0.111600	-0.642287	-0.086969
C45	C	-0.388371	-1.142301	-0.674826
C46	C	0.111629	-0.642301	-0.174826
C47	C	-1.015754	-1.142357	-0.380862
C48	C	-0.515754	-0.642357	0.119138
C49	C	-0.924445	-1.142316	-0.380842
C50	C	-0.424445	-0.642316	0.119158
C51	C	-0.851669	-1.142288	-0.380821
C52	C	-0.351669	-0.642288	0.119179
C53	C	-0.760355	-1.142248	-0.380801
C54	C	-0.260355	-0.642248	0.119199
C55	C	-0.178157	-1.142351	-0.380851
C56	C	0.321843	-0.642351	0.119149
C57	C	-0.088536	-1.142392	-0.380873
C58	C	0.411464	-0.642392	0.119127
C59	C	-0.388494	-1.348422	-0.380819
C60	C	0.111506	-0.848422	0.119181
C61	C	-0.388505	-1.436279	-0.380827
C62	C	0.111495	-0.936279	0.119173
C63	C	-0.336870	-0.477547	-0.330364
C64	C	0.163130	0.022453	0.169636
C65	C	-0.440129	-0.477564	-0.431283
C66	C	0.059871	0.022436	0.068717
C67	C	-0.440117	-0.560110	-0.431278
C68	C	0.059883	-0.060110	0.068722
C69	C	-0.388482	-0.601378	-0.380815
C70	C	0.111518	-0.101378	0.119185
C71	C	-0.336859	-0.560100	-0.330356
C72	C	0.163141	-0.060100	0.169644
C73	C	-0.491746	-0.601394	-0.481731
C74	C	0.008254	-0.101394	0.018269
C75	C	-0.491737	-0.683945	-0.481727
C76	C	0.008263	-0.183945	0.018273
C77	C	-0.440097	-0.725215	-0.431267
C78	C	0.059903	-0.225215	0.068733
C79	C	-0.388471	-0.683932	-0.380807
C80	C	0.111529	-0.183932	0.119193
C81	C	-0.336836	-0.725200	-0.330343
C82	C	0.163164	-0.225200	0.169657
C83	C	-0.285205	-0.683918	-0.279886
C84	C	0.214795	-0.183918	0.220114
C85	C	-0.285219	-0.601370	-0.279895
C86	C	0.214781	-0.101370	0.220105
C87	C	-0.440083	-0.807763	-0.431257
C88	C	0.059917	-0.307763	0.068743
C89	C	-0.336824	-0.807753	-0.330335
C90	C	0.163176	-0.307753	0.169665
C91	C	-0.439845	-1.091821	-1.046287
C92	C	0.060155	-0.591821	-0.546287
C93	C	-0.336727	-1.192969	-1.046316
C94	C	0.163273	-0.692969	-0.546316
C95	C	-0.336744	-1.192948	-0.963770
C96	C	0.163256	-0.692948	-0.463770
C97	C	-0.388313	-1.142364	-0.922479
C98	C	0.111687	-0.642364	-0.422479
C99	C	-0.439866	-1.091800	-0.963734
C100	C	0.060134	-0.591800	-0.463734
C101	C	-0.285199	-1.243517	-0.922509
C102	C	0.214801	-0.743517	-0.422509
C103	C	-0.285214	-1.243498	-0.839958
C104	C	0.214786	-0.743498	-0.339958
C105	C	-0.336780	-1.192909	-0.798666
C106	C	0.163220	-0.692909	-0.298666
C107	C	-0.388334	-1.142343	-0.839925
C108	C	0.111666	-0.642343	-0.339925
C109	C	-0.439903	-1.091758	-0.798634
C110	C	0.060097	-0.591758	-0.298634
C111	C	-0.491453	-1.041187	-0.839892
C112	C	0.008547	-0.541187	-0.339892
C113	C	-0.491431	-1.041211	-0.922441
C114	C	0.008569	-0.541211	-0.422441
C115	C	-0.336802	-1.192886	-0.716117
C116	C	0.163198	-0.692886	-0.216117
C117	C	-0.439923	-1.091737	-0.716080
C118	C	0.060077	-0.591737	-0.216080
C119	C	-0.388475	-1.142267	-0.175435
C120	C	0.111525	-0.642267	0.324565
C121	C	-0.388276	-1.142406	-0.087578
C122	C	0.111724	-0.642406	0.412422
H123	H	-0.294771	-0.841348	-0.289245
H124	H	0.205229	-0.341348	0.210755
N125	N	-0.281225	-1.247440	-0.671619
N126	N	0.218775	-0.747440	-0.171619
H127	H	-0.289067	-1.239756	-0.613059
H128	H	0.210933	-0.739756	-0.113059
H129	H	-0.293804	-1.303881	-0.686054
H130	H	0.206196	-0.803881	-0.186054
N131	N	-0.495817	-0.433063	-0.485715
N132	N	0.004183	0.066937	0.014285
H133	H	-0.553410	-0.447415	-0.473339
H134	H	-0.053410	0.052585	0.026661
H135	H	-0.487926	-0.374519	-0.478041
H136	H	0.012074	0.125481	0.021959
H137	H	-0.243167	-0.717529	-0.238795
H138	H	0.256833	-0.217529	0.261205
N139	N	-0.229609	-1.298028	-0.795458
N140	N	0.270391	-0.798028	-0.295458
H141	H	-0.262386	-1.334634	-0.761193
H142	H	0.237614	-0.834634	-0.261193
H143	H	-0.196947	-1.330023	-0.834189
H144	H	0.303053	-0.830023	-0.334189
N145	N	-0.495450	-1.037276	-1.090770
N146	N	0.004550	-0.537276	-0.590770
H147	H	-0.482918	-0.980806	-1.076399
H148	H	0.017082	-0.480806	-0.576399
H149	H	-0.487594	-1.045021	-1.149318
H150	H	0.012406	-0.545021	-0.649318
N151	N	-0.229586	-1.298077	-0.967042
N152	N	0.270414	-0.798077	-0.467042
H153	H	-0.237393	-1.290413	-1.025596
H154	H	0.262607	-0.790413	-0.525596
H155	H	-0.172001	-1.285801	-0.952630
H156	H	0.327999	-0.785801	-0.452630
H157	H	-0.243185	-0.567751	-0.238815
H158	H	0.256815	-0.067751	0.261185
N159	N	-0.547422	-0.728460	-0.536149
N160	N	-0.047422	-0.228460	-0.036149
H161	H	-0.534971	-0.714112	-0.592647
H162	H	-0.034971	-0.214112	-0.092647
H163	H	-0.539557	-0.787003	-0.528425
H164	H	-0.039557	-0.287003	-0.028425
H165	H	-0.294831	-0.443932	-0.289285
H166	H	0.205169	0.056068	0.210715
H167	H	-0.533790	-0.567788	-0.522810
H168	H	-0.033790	-0.067788	-0.022810
N169	N	-0.281114	-1.247531	-1.090847
N170	N	0.218886	-0.747531	-0.590847
H171	H	-0.288925	-1.239873	-1.149402
H172	H	0.211075	-0.739873	-0.649402
H173	H	-0.223529	-1.235250	-1.076439
H174	H	0.276471	-0.735250	-0.576439
H175	H	-0.482122	-0.841371	-0.472336
H176	H	0.017878	-0.341371	0.027664
H177	H	-0.533444	-1.000005	-0.806262
H178	H	-0.033444	-0.500005	-0.306262
N179	N	-0.495532	-1.037164	-0.671547
N180	N	0.004468	-0.537164	-0.171547
H181	H	-0.528179	-1.005131	-0.710211
H182	H	-0.028179	-0.505131	-0.210211
H183	H	-0.532865	-1.069304	-0.637282
H184	H	-0.032865	-0.569304	-0.137282
H185	H	-0.533403	-1.000041	-0.956041
H186	H	-0.033403	-0.500041	-0.456041
