data_functionalizedCrystal
_audit_creation_method	'MofGen! by Chris Wilmer'
_symmetry_space_group_name_H-M	'P1'
_symmetry_Int_Tables_number	1
_symmetry_cell_setting	triclinic
loop_
_symmetry_equiv_pos_as_xyz
  x,y,z
_cell_length_a	21.395364
_cell_length_b	11.169416
_cell_length_c	21.395356
_cell_angle_alpha	89.979412
_cell_angle_beta	89.976411
_cell_angle_gamma	90.025100
loop_
_atom_site_label
_atom_site_type_symbol
_atom_site_fract_x
_atom_site_fract_y
_atom_site_fract_z
Zn1	Zn	0.957943	-0.477359	-0.354292
Zn2	Zn	0.957885	-0.678062	-0.249528
Zn3	Zn	0.853159	-0.477443	-0.249529
Zn4	Zn	0.853164	-0.678051	-0.354268
O5	O	0.905538	-0.577729	-0.301904
O6	O	1.045613	-0.503951	-0.340405
O7	O	0.943966	-0.651489	-0.161850
O8	O	0.867081	-0.309482	-0.263437
O9	O	1.045570	-0.651407	-0.263435
O10	O	0.944065	-0.309420	-0.340406
O11	O	0.867025	-0.504096	-0.161851
O12	O	0.765482	-0.504085	-0.263413
O13	O	0.867090	-0.651389	-0.441949
O14	O	0.765486	-0.651471	-0.340365
O15	O	0.944070	-0.503941	-0.441967
O16	O	0.943971	-0.846010	-0.263411
O17	O	0.867034	-0.846002	-0.340363
C18	C	0.742750	-0.577787	-0.301887
C19	C	0.673109	-0.577841	-0.301894
C20	C	0.640440	-0.501186	-0.342034
C21	C	0.575005	-0.501155	-0.342037
C22	C	0.542241	-0.577799	-0.301906
C23	C	0.574917	-0.654458	-0.261757
C24	C	0.640351	-0.654479	-0.261752
C25	C	0.438537	-0.685883	-0.296875
C26	C	0.373104	-0.685864	-0.296885
C27	C	0.340420	-0.577732	-0.301919
C28	C	0.373177	-0.469617	-0.306957
C29	C	0.438611	-0.469638	-0.306951
C30	C	0.471288	-0.577784	-0.301907
C31	C	0.236799	-0.501037	-0.342064
C32	C	0.171362	-0.501003	-0.342062
C33	C	0.171275	-0.654317	-0.261786
C34	C	0.236711	-0.654341	-0.261785
C35	C	0.269469	-0.577702	-0.301928
C36	C	0.905514	-0.889553	-0.301898
C37	C	0.905560	-1.022953	-0.301917
C38	C	1.068961	-0.577671	-0.301922
C39	C	1.138602	-0.577646	-0.301930
C40	C	0.905587	-0.577654	-0.465328
C41	C	0.905608	-0.577622	-0.534969
C42	C	0.905579	-0.264686	-0.301924
C43	C	0.905597	-0.131286	-0.301933
C44	C	0.865556	-0.500866	-0.567673
C45	C	0.865553	-0.500844	-0.633108
C46	C	0.905615	-0.577565	-0.665837
C47	C	0.945670	-0.654337	-0.633126
C48	C	0.945667	-0.654365	-0.567692
C49	C	0.962069	-0.586973	-0.769524
C50	C	0.962073	-0.586936	-0.834957
C51	C	0.905625	-0.577484	-0.867658
C52	C	0.849171	-0.568044	-0.834918
C53	C	0.849168	-0.568073	-0.769484
C54	C	0.905623	-0.577544	-0.736790
C55	C	0.865567	-0.500700	-0.971315
C56	C	0.865564	-0.500686	-1.036751
C57	C	0.945686	-0.654172	-1.036768
C58	C	0.945684	-0.654193	-0.971332
C59	C	0.905625	-0.577450	-0.938610
C60	C	0.905525	-0.577716	-0.139117
C61	C	0.905625	-0.577410	-0.069476
H62	H	0.548401	-0.438727	-0.374723
N63	N	0.473784	-0.802519	-0.291441
H64	H	0.462400	-0.856316	-0.327625
H65	H	0.520195	-0.786024	-0.292180
N66	N	0.136132	-0.418299	-0.385354
H67	H	0.147533	-0.437057	-0.430104
H68	H	0.089719	-0.429934	-0.379214
N69	N	0.473946	-0.353040	-0.312371
H70	H	0.501116	-0.354758	-0.350975
H71	H	0.443280	-0.284592	-0.315533
H72	H	0.667108	-0.438780	-0.374721
N73	N	0.272130	-0.418385	-0.385364
H74	H	0.299268	-0.467258	-0.414356
H75	H	0.241457	-0.369840	-0.410748
N76	N	0.271944	-0.737037	-0.218495
H77	H	0.299088	-0.792728	-0.243907
H78	H	0.299058	-0.688118	-0.189506
N79	N	0.337928	-0.352985	-0.312380
H80	H	0.349318	-0.299191	-0.276197
H81	H	0.349356	-0.312344	-0.352985
H82	H	0.144599	-0.716722	-0.229111
N83	N	0.337774	-0.802465	-0.291450
H84	H	0.349164	-0.856282	-0.327626
H85	H	0.349143	-0.843092	-0.250839
N86	N	0.788279	-0.557914	-0.870177
H87	H	0.796843	-0.559357	-0.916597
H88	H	0.760283	-0.627359	-0.858707
H89	H	0.548236	-0.716861	-0.229082
N90	N	0.675591	-0.737157	-0.218454
H91	H	0.644909	-0.785704	-0.193028
H92	H	0.702734	-0.792774	-0.243907
H93	H	0.832934	-0.438381	-0.541034
H94	H	0.832948	-0.438212	-0.944670
N95	N	0.788287	-0.557911	-0.734164
H96	H	0.789142	-0.483966	-0.707020
H97	H	0.752554	-0.551968	-0.764839
H98	H	0.832939	-0.438334	-0.659741
H99	H	1.008039	-0.594659	-0.742905
N100	N	0.822357	-0.417904	-1.072028
H101	H	0.796982	-0.369295	-1.041367
H102	H	0.847871	-0.362348	-1.099193
H103	H	0.978307	-0.716638	-1.063415
N104	N	0.988886	-0.736976	-0.936054
H105	H	1.014265	-0.785577	-0.966715
H106	H	1.017886	-0.688124	-0.908918
H107	H	1.008042	-0.594617	-0.861609
H108	H	0.978289	-0.716804	-0.659778
H109	H	0.978285	-0.716868	-0.541065
