data_functionalizedCrystal
_audit_creation_method	'MofGen! by Chris Wilmer'
_symmetry_space_group_name_H-M	'P1'
_symmetry_Int_Tables_number	1
_symmetry_cell_setting	triclinic
loop_
_symmetry_equiv_pos_as_xyz
  x,y,z
_cell_length_a	16.992694
_cell_length_b	10.540539
_cell_length_c	16.053802
_cell_angle_alpha	92.593658
_cell_angle_beta	87.249047
_cell_angle_gamma	87.596857
loop_
_atom_site_label
_atom_site_type_symbol
_atom_site_fract_x
_atom_site_fract_y
_atom_site_fract_z
O1	O	1.045174	0.264306	-0.069318
O2	O	0.816873	0.261349	-0.069343
O3	O	0.936232	0.078573	-0.069329
O4	O	0.925815	0.447082	-0.069332
O5	O	0.929662	0.088589	0.069529
O6	O	0.810303	0.271366	0.069516
O7	O	1.038604	0.274322	0.069540
Zn8	Zn	0.923410	0.274434	0.091575
Zn9	Zn	0.932067	0.261237	-0.091377
O10	O	0.919245	0.457098	0.069526
C11	C	0.784355	0.262556	0.000083
C12	C	0.697247	0.251215	0.000074
C13	C	0.647620	0.360635	0.000073
C14	C	0.565773	0.349973	0.000085
C15	C	0.533555	0.229889	0.000091
C16	C	0.583189	0.120461	0.000094
C17	C	0.665034	0.131125	0.000088
C18	C	0.289709	0.185691	0.000114
C19	C	0.207858	0.175036	0.000117
C20	C	0.190447	0.404549	0.000110
C21	C	0.272294	0.415202	0.000099
C22	C	0.321921	0.305774	0.000106
N23	N	0.449895	0.218988	0.000100
N24	N	0.405579	0.316677	0.000103
C25	C	0.932166	0.036210	0.000099
C26	C	0.929829	-0.104941	0.000094
C27	C	0.840283	-0.296162	-0.000227
C28	C	0.842638	-0.149316	0.000086
C29	C	0.968037	-0.157237	0.079393
C30	C	0.965058	-0.304035	0.079460
C31	C	0.974303	-0.315790	-0.078448
C32	C	0.975156	-0.168814	-0.079496
C33	C	1.071123	0.273115	0.000112
C34	C	1.158230	0.284456	0.000117
C35	C	0.923311	0.499461	0.000097
C36	C	0.925649	0.640612	0.000096
N37	N	0.917508	0.283440	0.216434
N38	N	0.937975	0.252222	-0.216237
C39	C	0.968315	0.205700	0.260134
C40	C	0.964193	0.212013	0.347540
C41	C	0.909269	0.296073	0.391245
C42	C	0.858458	0.373817	0.347539
C43	C	0.862576	0.367497	0.260134
C44	C	0.891281	0.323645	0.652653
C45	C	0.887169	0.329962	0.740063
C46	C	0.992904	0.168156	0.740059
C47	C	0.997020	0.161848	0.652652
C48	C	0.946206	0.239587	0.608954
N49	N	0.905057	0.302531	0.480588
N50	N	0.950415	0.233122	0.519612
H51	H	0.705441	0.042023	0.000088
N52	N	1.016094	0.132589	0.392165
N53	N	1.065131	0.057544	0.353134
H54	H	1.101788	0.001445	0.384649
N55	N	0.550282	-0.002201	0.000117
N56	N	0.503794	-0.029531	0.058654
H57	H	0.480555	-0.116164	0.058670
H58	H	0.947229	-0.134851	-0.138159
H59	H	0.150032	0.493638	0.000105
H60	H	0.181630	0.077244	0.000121
H61	H	0.812311	-0.113678	-0.056760
H62	H	0.330106	0.096587	0.000120
H63	H	1.034274	0.104863	0.775646
N64	N	0.800459	-0.340932	-0.071574
N65	N	0.834522	-0.419964	-0.123017
H66	H	0.806397	-0.451588	-0.173410
H67	H	0.931243	-0.330650	0.138731
N68	N	0.810680	0.446928	0.215506
N69	N	0.811948	0.565140	0.225259
H70	H	0.775294	0.621240	0.193742
N71	N	1.024409	0.119830	0.215482
N72	N	1.028079	0.114192	0.137443
H73	H	1.067694	0.053541	0.105907
H74	H	0.936097	-0.112911	0.138399
N75	N	1.053127	0.076092	0.607920
N76	N	1.104280	0.118020	0.559136
H77	H	1.143910	0.057495	0.527512
H78	H	0.842440	0.398419	0.775644
H79	H	0.673844	0.458420	0.000068
H80	H	0.849907	0.386945	0.617080
H81	H	0.813733	0.442256	0.383129
H82	H	0.803306	-0.325268	0.056314
H83	H	0.525369	0.439075	0.000084
H84	H	0.298520	0.512986	0.000084
H85	H	0.806696	-0.106338	0.057018
N86	N	1.043509	-0.357048	0.083993
N87	N	1.100284	-0.285606	0.087102
H88	H	1.155689	-0.323039	0.090310
N89	N	1.053346	-0.368193	-0.079108
N90	N	1.095855	-0.342435	-0.019757
H91	H	1.151679	-0.379442	-0.020217
H92	H	1.031928	-0.129114	0.082349
H93	H	0.948927	-0.354127	-0.138551
H94	H	1.038951	-0.139421	-0.084277
