data_functionalizedCrystal
_audit_creation_method	'MofGen! by Chris Wilmer'
_symmetry_space_group_name_H-M	'P1'
_symmetry_Int_Tables_number	1
_symmetry_cell_setting	triclinic
loop_
_symmetry_equiv_pos_as_xyz
  x,y,z
_cell_length_a	12.594517
_cell_length_b	12.594516
_cell_length_c	12.594509
_cell_angle_alpha	90.027068
_cell_angle_beta	90.011478
_cell_angle_gamma	90.014059
loop_
_atom_site_label
_atom_site_type_symbol
_atom_site_fract_x
_atom_site_fract_y
_atom_site_fract_z
Zn1	Zn	1.627251	-0.423827	0.601589
Zn2	Zn	1.627135	-0.601837	0.423614
Zn3	Zn	1.449255	-0.423860	0.423648
Zn4	Zn	1.449231	-0.601751	0.601575
O5	O	1.538218	-0.512819	0.512606
O6	O	1.776182	-0.447463	0.577972
O7	O	1.603501	-0.578278	0.274673
O8	O	1.472925	-0.274910	0.447273
O9	O	1.776097	-0.578246	0.447214
O10	O	1.603698	-0.274886	0.578005
O11	O	1.472813	-0.447519	0.274698
O12	O	1.300306	-0.447436	0.447259
O13	O	1.472884	-0.578099	0.750522
O14	O	1.300288	-0.578131	0.577981
O15	O	1.603675	-0.447379	0.750533
O16	O	1.603477	-0.750772	0.447200
O17	O	1.472772	-0.750708	0.577947
C18	C	1.261677	-0.512779	0.512623
C19	C	1.143372	-0.512787	0.512655
C20	C	1.074140	-0.584012	0.583617
C21	C	1.003335	-0.486966	0.609793
C22	C	1.003378	-0.609913	0.486455
C23	C	1.074125	-0.415689	0.538882
C24	C	1.074174	-0.538702	0.415499
C25	C	1.003401	-0.441590	0.441638
C26	C	1.538138	-0.789360	0.512592
C27	C	1.538201	-0.907665	0.512621
C28	C	1.467168	-1.047686	0.583698
C29	C	1.564203	-0.976782	0.609796
C30	C	1.441176	-0.976998	0.486571
C31	C	1.635461	-1.047546	0.538809
C32	C	1.512369	-1.047769	0.415538
C33	C	1.609471	-0.976896	0.441599
C34	C	1.815839	-0.512860	0.512591
C35	C	1.934144	-0.512878	0.512584
C36	C	1.538289	-0.512726	0.790227
C37	C	1.538320	-0.512686	0.908533
C38	C	1.538327	-0.235198	0.512644
C39	C	1.538374	-0.116893	0.512661
C40	C	1.538208	-0.512835	0.236065
C41	C	1.538384	-0.512575	0.117761
C42	C	1.467205	-0.583744	0.977780
C43	C	1.564325	-0.609757	1.048555
C44	C	1.441276	-0.486609	1.048558
C45	C	1.635490	-0.538750	0.977749
C46	C	1.512376	-0.415556	0.977746
C47	C	1.609563	-0.441532	1.048488
H48	H	0.972219	-0.465078	0.691926
F49	F	1.688169	-0.936522	0.363055
H50	H	1.717612	-1.078409	0.560954
H51	H	1.359049	-0.946003	0.464521
F52	F	1.114570	-0.308346	0.567930
F53	F	1.388655	-1.088315	0.662299
H54	H	1.490412	-1.078971	0.333445
F55	F	1.333972	-0.457838	1.089213
H56	H	1.586132	-0.945604	0.691914
H57	H	1.407112	-0.643929	0.946734
F58	F	1.593054	-0.717057	1.089210
F59	F	0.962756	-0.717223	0.457527
H60	H	1.717610	-0.560853	0.946776
F61	F	1.688293	-0.362927	1.088818
H62	H	1.490369	-0.333487	0.946620
F63	F	1.114847	-0.567333	0.308159
F64	F	0.963056	-0.362825	0.363160
F65	F	1.114740	-0.662591	0.662151
