data_functionalizedCrystal
_audit_creation_method	'MofGen! by Chris Wilmer'
_symmetry_space_group_name_H-M	'P1'
_symmetry_Int_Tables_number	1
_symmetry_cell_setting	triclinic
loop_
_symmetry_equiv_pos_as_xyz
  x,y,z
_cell_length_a	16.992697
_cell_length_b	13.596369
_cell_length_c	16.974755
_cell_angle_alpha	86.337125
_cell_angle_beta	87.020742
_cell_angle_gamma	90.001277
loop_
_atom_site_label
_atom_site_type_symbol
_atom_site_fract_x
_atom_site_fract_y
_atom_site_fract_z
O1	O	-1.040200	0.095000	-0.167655
O2	O	-0.811916	0.094886	-0.165815
O3	O	-0.932430	0.085802	-0.052032
O4	O	-0.919686	0.104084	-0.281437
O5	O	-0.932418	-0.077782	-0.052025
O6	O	-0.811904	-0.068697	-0.165808
O7	O	-1.040188	-0.068584	-0.167647
Zn8	Zn	-0.926044	-0.094613	-0.166726
Zn9	Zn	-0.926060	0.120915	-0.166736
O10	O	-0.919674	-0.059499	-0.281430
C11	C	-0.782701	0.012910	-0.163445
C12	C	-0.695665	0.012361	-0.156385
N13	N	-0.926039	-0.241705	-0.166720
C14	C	-0.645346	0.017789	-0.224502
C15	C	-0.563567	0.017248	-0.217863
C16	C	-0.532108	0.011285	-0.143108
C17	C	-0.582433	0.005854	-0.074987
C18	C	-0.664211	0.006388	-0.081626
C19	C	-0.288542	0.009071	-0.115593
C20	C	-0.206758	0.008540	-0.108959
C21	C	-0.187898	0.019933	-0.251836
C22	C	-0.269677	0.020472	-0.258469
C23	C	-0.319995	0.015035	-0.190347
N24	N	-0.448517	0.010735	-0.136321
N25	N	-0.403585	0.015578	-0.197135
C26	C	-0.926059	-0.642995	-0.166737
C27	C	-0.926051	-0.531344	-0.166735
C28	C	-0.926049	-0.442354	-0.166729
C29	C	-0.926041	-0.330695	-0.166726
C30	C	-0.069403	0.013399	-0.170017
C31	C	-0.156440	0.013969	-0.177075
C32	C	-0.931942	0.001662	-0.022539
C33	C	-0.930496	-0.005333	0.065330
N34	N	-0.926071	0.268007	-0.166737
C35	C	-0.920162	0.024642	-0.310923
C36	C	-0.921608	0.031644	-0.398793
C37	C	-0.922284	-0.054242	0.559940
C38	C	-0.923651	-0.047674	0.477378
C39	C	-0.924346	0.044782	0.436084
C40	C	-0.923668	0.130675	0.477357
C41	C	-0.922296	0.124105	0.559918
C42	C	-0.928445	0.073991	0.189164
C43	C	-0.929820	0.080553	0.106597
C44	C	-0.929801	-0.097796	0.106624
C45	C	-0.928434	-0.104357	0.189186
C46	C	-0.927751	-0.018464	0.230451
N47	N	-0.925745	0.051498	0.351693
N48	N	-0.926346	-0.025181	0.314841
H49	H	-0.670953	0.022645	-0.285375
H50	H	-0.927871	-0.179644	0.222802
C51	C	-0.304275	0.027016	-0.340705
N52	N	-0.330334	0.031943	-0.402647
C53	C	-0.930540	-0.192272	0.061225
N54	N	-0.931092	-0.263435	0.027029
H55	H	-0.930385	0.155846	0.072979
C56	C	-0.508219	0.023202	-0.292798
N57	N	-0.466532	0.027680	-0.349241
H58	H	-0.924213	-0.117612	0.443783
H59	H	-0.927896	0.143931	0.222752
H60	H	-0.146920	0.024357	-0.307297
C61	C	-0.172156	0.001981	-0.026719
N62	N	-0.146094	-0.002956	0.035221
H63	H	-0.924230	0.205954	0.443729
H64	H	-0.921741	0.194044	0.593516
H65	H	-0.556813	0.000985	-0.014119
H66	H	-0.705180	0.001968	-0.026158
C67	C	-0.921518	-0.155952	0.605355
N68	N	-0.920938	-0.232562	0.639559
H69	H	-0.329502	0.004643	-0.060123
