data_functionalizedCrystal
_audit_creation_method	'MofGen! by Chris Wilmer'
_symmetry_space_group_name_H-M	'P1'
_symmetry_Int_Tables_number	1
_symmetry_cell_setting	triclinic
loop_
_symmetry_equiv_pos_as_xyz
  x,y,z
_cell_length_a	15.995350
_cell_length_b	15.944551
_cell_length_c	15.072220
_cell_angle_alpha	89.997918
_cell_angle_beta	89.991149
_cell_angle_gamma	83.495557
loop_
_atom_site_label
_atom_site_type_symbol
_atom_site_fract_x
_atom_site_fract_y
_atom_site_fract_z
O1	O	1.111002	0.108264	-0.073709
O2	O	0.867227	0.121634	-0.073728
O3	O	0.995772	-0.007326	-0.073710
O4	O	0.982458	0.237224	-0.073727
O5	O	0.995740	-0.007319	0.073855
O6	O	0.867196	0.121641	0.073837
O7	O	1.110970	0.108271	0.073856
Zn8	Zn	0.989078	0.114957	0.097276
Zn9	Zn	0.989120	0.114948	-0.097148
O10	O	0.982426	0.237232	0.073838
C11	C	0.836017	0.121085	0.000053
C12	C	0.743066	0.119428	0.000046
C13	C	0.405318	0.113477	0.000065
C14	C	0.452747	0.021634	0.000400
C15	C	0.549438	0.023291	0.000061
C16	C	0.572879	0.116429	0.000056
C17	C	0.531813	0.161725	-0.084211
C18	C	0.435177	0.159417	-0.084275
C19	C	0.434802	0.161323	0.083534
C20	C	0.531747	0.161301	0.084642
C21	C	0.667577	0.118102	0.000048
C22	C	0.310620	0.111806	0.000067
C23	C	0.995203	-0.038616	0.000073
C24	C	0.993546	-0.131862	0.000073
C25	C	0.909908	-0.346714	0.000054
C26	C	0.948731	-0.407730	0.072816
C27	C	0.990548	-0.302588	0.000066
C28	C	0.948781	-0.407721	-0.072672
C29	C	0.987647	-0.467501	0.000055
C30	C	1.029394	-0.362376	0.072888
C31	C	1.029433	-0.362360	-0.072665
C32	C	1.068315	-0.423358	0.000114
C33	C	0.992217	-0.207586	0.000073
C34	C	0.985984	-0.562502	0.000055
C35	C	1.142181	0.108821	0.000074
C36	C	1.235131	0.110478	0.000075
C37	C	0.982995	0.268522	0.000053
C38	C	0.984652	0.361768	0.000047
N39	N	0.989055	0.114963	0.229965
N40	N	0.989149	0.114935	-0.229836
C41	C	0.989118	0.114945	0.589166
C42	C	0.920105	0.183717	0.551550
C43	C	0.920264	0.183968	0.448724
C44	C	0.989086	0.114954	0.410962
C45	C	1.076452	0.134096	0.448258
C46	C	1.076065	0.134585	0.551116
C47	C	0.971544	0.026826	0.551271
C48	C	0.969539	0.027414	0.448407
C49	C	0.989074	0.114958	0.310249
C50	C	0.989136	0.114943	0.689879
H51	H	0.433164	-0.014912	-0.059693
H52	H	0.914676	-0.427799	-0.134190
C53	C	1.075406	-0.335375	0.156084
H54	H	1.076148	-0.275882	0.155596
H55	H	1.131508	-0.362307	0.156302
H56	H	1.046933	-0.351265	0.207683
C57	C	1.158812	-0.468167	0.000175
H58	H	1.187307	-0.452654	0.051908
H59	H	1.187681	-0.451947	-0.051017
H60	H	1.157274	-0.527553	-0.000308
C61	C	1.075485	-0.335162	-0.155760
H62	H	1.046762	-0.350506	-0.207411
H63	H	1.131442	-0.362460	-0.156279
H64	H	1.076642	-0.275729	-0.154864
C65	C	0.391610	0.250502	-0.089455
H66	H	0.332310	0.249710	-0.089523
H67	H	0.408213	0.276381	-0.142401
H68	H	0.407423	0.281603	-0.039623
H69	H	0.855323	0.172563	0.423509
H70	H	1.021871	-0.024352	0.575596
H71	H	0.931174	0.248741	0.577385
C72	C	0.587091	-0.025131	-0.081681
H73	H	0.543284	-0.045886	-0.114816
H74	H	0.626057	-0.071097	-0.062893
H75	H	0.615150	0.011727	-0.117780
H76	H	0.416880	0.126380	-0.147262
H77	H	0.434210	-0.015075	0.060831
H78	H	0.854955	0.172500	0.576307
H79	H	0.931487	0.249360	0.424107
C80	C	0.550904	0.254159	-0.088460
H81	H	0.584172	0.265974	-0.038763
H82	H	0.499619	0.290580	-0.087678
H83	H	0.580716	0.262942	-0.141558
C84	C	0.902644	-0.434897	0.155907
H85	H	0.939960	-0.472570	0.190167
H86	H	0.855589	-0.462354	0.138417
H87	H	0.883958	-0.386519	0.190409
C88	C	0.570149	0.119215	-0.168927
H89	H	0.611170	0.073870	-0.153124
H90	H	0.595893	0.159331	-0.203024
H91	H	0.527029	0.098200	-0.202891
C92	C	1.147492	0.068238	0.415214
H93	H	1.199752	0.081004	0.438553
H94	H	1.149492	0.069425	0.352241
H95	H	1.137063	0.013652	0.434478
C96	C	0.587827	-0.024808	0.081662
H97	H	0.544334	-0.045543	0.115315
H98	H	0.616112	0.012214	0.117307
H99	H	0.626709	-0.070783	0.062702
H100	H	1.091551	0.198850	0.575095
H101	H	0.842972	-0.313403	0.000122
H102	H	0.414251	0.131301	0.147406
C103	C	1.147519	0.069492	0.584735
H104	H	1.176659	0.042872	0.535527
H105	H	1.124495	0.028216	0.619766
H106	H	1.185496	0.097239	0.619639
C107	C	1.097873	0.219923	0.413452
H108	H	1.053694	0.244201	0.376202
H109	H	1.148832	0.212008	0.380581
H110	H	1.104291	0.256521	0.462109
C111	C	0.887331	0.001977	0.586338
H112	H	0.862100	0.045117	0.624422
H113	H	0.897109	-0.049506	0.618377
H114	H	0.850819	-0.004989	0.537843
H115	H	0.905272	0.012886	0.424031
C116	C	0.568620	0.116633	0.168860
H117	H	0.608918	0.070830	0.152551
H118	H	0.524718	0.096002	0.201955
H119	H	0.594995	0.155512	0.204024
H120	H	0.547115	0.229220	0.089727
C121	C	1.033036	-0.044964	0.413700
H122	H	1.072478	-0.022641	0.375754
H123	H	1.003980	-0.083959	0.381590
H124	H	1.061842	-0.072934	0.462355
H125	H	0.403044	0.229038	0.084100
