data_functionalizedCrystal
_audit_creation_method	'MofGen! by Chris Wilmer'
_symmetry_space_group_name_H-M	'P1'
_symmetry_Int_Tables_number	1
_symmetry_cell_setting	triclinic
loop_
_symmetry_equiv_pos_as_xyz
  x,y,z
_cell_length_a	16.959455
_cell_length_b	16.120297
_cell_length_c	16.959454
_cell_angle_alpha	92.875976
_cell_angle_beta	90.017022
_cell_angle_gamma	92.879541
loop_
_atom_site_label
_atom_site_type_symbol
_atom_site_fract_x
_atom_site_fract_y
_atom_site_fract_z
Zn1	Zn	1.185756	-0.471383	-0.337427
Zn2	Zn	1.519090	-0.138050	-0.004093
Zn3	Zn	1.852423	0.195283	0.329240
Zn4	Zn	1.192371	-0.331981	-0.462907
Zn5	Zn	1.525704	0.001352	-0.129574
Zn6	Zn	1.859037	0.334686	0.203760
Zn7	Zn	1.060276	-0.331989	-0.330740
Zn8	Zn	1.393609	0.001344	0.002594
Zn9	Zn	1.726943	0.334677	0.335927
Zn10	Zn	1.053551	-0.471350	-0.469558
Zn11	Zn	1.386885	-0.138017	-0.136225
Zn12	Zn	1.720218	0.195317	0.197108
O13	O	1.122989	-0.401676	-0.400158
O14	O	1.456322	-0.068343	-0.066825
O15	O	1.789655	0.264991	0.266509
O16	O	1.297244	-0.452902	-0.354087
O17	O	1.630578	-0.119569	-0.020753
O18	O	1.963911	0.213765	0.312580
O19	O	1.180430	-0.215319	-0.439793
O20	O	1.513764	0.118015	-0.106459
O21	O	1.847097	0.451348	0.226874
O22	O	1.076968	-0.350498	-0.221017
O23	O	1.410301	-0.017164	0.112317
O24	O	1.743634	0.316169	0.445650
O25	O	1.302104	-0.350484	-0.446277
O26	O	1.635437	-0.017150	-0.112943
O27	O	1.968770	0.316183	0.220390
O28	O	1.169158	-0.452910	-0.225930
O29	O	1.502491	-0.119577	0.107404
O30	O	1.835824	0.213757	0.440737
O31	O	1.083381	-0.215325	-0.342690
O32	O	1.416714	0.118009	-0.009357
O33	O	1.750048	0.451342	0.323977
O34	O	0.948774	-0.350465	-0.349140
O35	O	1.282107	-0.017132	-0.015806
O36	O	1.615440	0.316202	0.317527
O37	O	1.065506	-0.588018	-0.457613
O38	O	1.398839	-0.254684	-0.124279
O39	O	1.732173	0.078649	0.209054
O40	O	0.943833	-0.452853	-0.451129
O41	O	1.277166	-0.119520	-0.117796
O42	O	1.610500	0.213814	0.215538
O43	O	1.162637	-0.588042	-0.360536
O44	O	1.495970	-0.254709	-0.027203
O45	O	1.829303	0.078624	0.306130
O46	O	1.173909	-0.350451	-0.574399
O47	O	1.507243	-0.017118	-0.241066
O48	O	1.840576	0.316216	0.092267
O49	O	1.071919	-0.452845	-0.579286
O50	O	1.405253	-0.119512	-0.245953
O51	O	1.738586	0.213822	0.087381
C52	C	0.917623	-0.401657	-0.400131
C53	C	1.250957	-0.068323	-0.066798
C54	C	1.584290	0.265010	0.266536
C55	C	0.829766	-0.401668	-0.400139
C56	C	1.163099	-0.068335	-0.066806
C57	C	1.496433	0.264998	0.266527
C58	C	0.460833	-0.348474	-0.347016
C59	C	0.794166	-0.015141	-0.013683
C60	C	1.127500	0.318193	0.319651
C61	C	0.455745	-0.454926	-0.453367
C62	C	0.789078	-0.121592	-0.120034
C63	C	1.122412	0.211741	0.213299
C64	C	0.538291	-0.454920	-0.453356
C65	C	0.871624	-0.121587	-0.120022
C66	C	1.204958	0.211746	0.213311
C67	C	0.582112	-0.401690	-0.400174
C68	C	0.915445	-0.068357	-0.066841
C69	C	1.248779	0.264976	0.266492
C70	C	0.543387	-0.348465	-0.347004
C71	C	0.876720	-0.015132	-0.013671
C72	C	1.210054	0.318201	0.319662
C73	C	0.577023	-0.508138	-0.506530
C74	C	0.910356	-0.174805	-0.173197
C75	C	1.243689	0.158528	0.160137
C76	C	0.659574	-0.508135	-0.506521
C77	C	0.992907	-0.174802	-0.173188
C78	C	1.326240	0.158532	0.160146
C79	C	0.703396	-0.454908	-0.453335
C80	C	1.036729	-0.121575	-0.120002
C81	C	1.370063	0.211758	0.213331
C82	C	0.664666	-0.401682	-0.400163
C83	C	0.997999	-0.068349	-0.066829
C84	C	1.331333	0.264985	0.266504
C85	C	0.708487	-0.348452	-0.346981
C86	C	1.041820	-0.015119	-0.013648
C87	C	1.375154	0.318215	0.319685
C88	C	0.669758	-0.295229	-0.293804
C89	C	1.003092	0.038104	0.039529
C90	C	1.336425	0.371438	0.372862
C91	C	0.587209	-0.295239	-0.293819
C92	C	0.920543	0.038094	0.039515
C93	C	1.253876	0.371428	0.372848
C94	C	0.785945	-0.454898	-0.453321
C95	C	1.119278	-0.121565	-0.119987
C96	C	1.452612	0.211768	0.213346
C97	C	0.791041	-0.348443	-0.346970
C98	C	1.124374	-0.015110	-0.013636
C99	C	1.457708	0.318223	0.319697
C100	C	1.112583	-0.619125	-0.410562
C101	C	1.445917	-0.285792	-0.077229
C102	C	1.779250	0.047541	0.256104
C103	C	1.108149	-0.711789	-0.414996
C104	C	1.441483	-0.378456	-0.081663
C105	C	1.774816	-0.045123	0.251671
C106	C	1.100025	-0.881447	-0.423073
C107	C	1.433358	-0.548114	-0.089740
C108	C	1.766692	-0.214781	0.243593
C109	C	1.146108	-0.922756	-0.377006
C110	C	1.479441	-0.589423	-0.043672
C111	C	1.812775	-0.256089	0.289661
C112	C	1.141587	-1.017160	-0.381500
C113	C	1.474921	-0.683826	-0.048167
C114	C	1.808254	-0.350493	0.285167
C115	C	1.104544	-0.787035	-0.418580
C116	C	1.437878	-0.453702	-0.085247
C117	C	1.771211	-0.120369	0.248087
C118	C	1.329156	-0.401696	-0.400186
C119	C	1.662489	-0.068362	-0.066852
C120	C	1.995822	0.264971	0.266481
C121	C	1.417012	-0.401704	-0.400197
C122	C	1.750345	-0.068371	-0.066864
C123	C	2.083679	0.264963	0.266469
C124	C	1.122923	-0.401662	-0.605524
C125	C	1.456256	-0.068328	-0.272190
C126	C	1.789590	0.265005	0.061143
C127	C	1.122966	-0.401684	-0.693381
C128	C	1.456299	-0.068350	-0.360048
C129	C	1.789633	0.264983	-0.026715
C130	C	1.133399	-0.185072	-0.389737
C131	C	1.466732	0.148261	-0.056404
C132	C	1.800065	0.481594	0.276930
C133	C	1.137986	-0.092409	-0.385081
C134	C	1.471319	0.240924	-0.051747
C135	C	1.804652	0.574258	0.281586
C136	C	1.069956	-0.454987	-1.067431
C137	C	1.403289	-0.121653	-0.734097
C138	C	1.736623	0.211680	-0.400764
C139	C	1.176237	-0.348450	-1.062286
C140	C	1.509571	-0.015117	-0.728953
C141	C	1.842904	0.318217	-0.395620
C142	C	1.176210	-0.348442	-0.979740
C143	C	1.509543	-0.015109	-0.646407
C144	C	1.842877	0.318224	-0.313073
C145	C	1.123054	-0.401707	-0.941035
C146	C	1.456387	-0.068373	-0.607702
C147	C	1.789721	0.264960	-0.274369
C148	C	1.069926	-0.454979	-0.984877
C149	C	1.403259	-0.121645	-0.651543
C150	C	1.736592	0.211688	-0.318210
C151	C	1.229332	-0.295165	-0.935892
C152	C	1.562666	0.038168	-0.602559
C153	C	1.895999	0.371501	-0.269226
C154	C	1.229307	-0.295155	-0.853341
C155	C	1.562640	0.038178	-0.520007
C156	C	1.895973	0.371512	-0.186674
C157	C	1.176154	-0.348424	-0.814635
C158	C	1.509487	-0.015091	-0.481301
C159	C	1.842820	0.318243	-0.147968
C160	C	1.123024	-0.401699	-0.858481
C161	C	1.456357	-0.068366	-0.525148
C162	C	1.789690	0.264968	-0.191815
C163	C	1.069868	-0.454963	-0.819777
C164	C	1.403201	-0.121630	-0.486443
C165	C	1.736535	0.211703	-0.153110
C166	C	1.016741	-0.508243	-0.863622
C167	C	1.350074	-0.174910	-0.530289
C168	C	1.683407	0.158424	-0.196955
C169	C	1.016773	-0.508248	-0.946171
C170	C	1.350106	-0.174915	-0.612837
C171	C	1.683439	0.158419	-0.279504
C172	C	1.176122	-0.348419	-0.732086
C173	C	1.509455	-0.015086	-0.398753
C174	C	1.842788	0.318248	-0.065419
C175	C	1.069837	-0.454956	-0.737223
C176	C	1.403171	-0.121622	-0.403889
C177	C	1.736504	0.211711	-0.070556
C178	C	1.123075	-0.401708	-0.193991
C179	C	1.456408	-0.068375	0.139342
C180	C	1.789742	0.264958	0.472675
C181	C	1.123112	-0.401722	-0.106135
C182	C	1.456445	-0.068389	0.227198
C183	C	1.789779	0.264944	0.560531
H184	H	0.691100	-0.551473	-0.549820
H185	H	1.024433	-0.218139	-0.216487
H186	H	1.357766	0.115194	0.116846
H187	H	1.188955	-0.887222	-0.334190
H188	H	1.522288	-0.553889	-0.000857
H189	H	1.855622	-0.220555	0.332477
H190	H	1.219373	-0.305036	-0.696391
H191	H	1.552707	0.028298	-0.363057
H192	H	1.886040	0.361631	-0.029724
H193	H	1.057181	-0.916979	-0.465886
H194	H	1.390515	-0.583646	-0.132552
H195	H	1.723848	-0.250313	0.200781
H196	H	1.026554	-0.498333	-0.705715
H197	H	1.359887	-0.165000	-0.372381
H198	H	1.693221	0.168333	-0.039048
H199	H	1.026703	-0.498368	-1.103133
H200	H	1.360037	-0.165035	-0.769800
H201	H	1.693370	0.168299	-0.436466
H202	H	1.272603	-0.251794	-0.967412
H203	H	1.605937	0.081539	-0.634078
H204	H	1.939270	0.414872	-0.300745
H205	H	0.973457	-0.551608	-0.832099
H206	H	1.306791	-0.218274	-0.498765
H207	H	1.640124	0.115059	-0.165432
H208	H	0.973519	-0.551625	-0.981877
H209	H	1.306852	-0.218291	-0.648543
H210	H	1.640186	0.115042	-0.315210
H211	H	0.429296	-0.305143	-0.303719
H212	H	0.762630	0.028190	0.029615
H213	H	1.095963	0.361523	0.362948
H214	H	1.219510	-0.305080	-1.093805
H215	H	1.552843	0.028254	-0.760471
H216	H	1.886176	0.361587	-0.427138
H217	H	0.826714	-0.305101	-0.303658
H218	H	1.160048	0.028232	0.029676
H219	H	1.493381	0.361565	0.363009
H220	H	0.705448	-0.251885	-0.250507
H221	H	1.038782	0.081448	0.082826
H222	H	1.372115	0.414781	0.416159
H223	H	0.420061	-0.498258	-0.496669
H224	H	0.753395	-0.164925	-0.163336
H225	H	1.086728	0.168409	0.169997
H226	H	0.555669	-0.251907	-0.250526
H227	H	0.889002	0.081427	0.082808
H228	H	1.222336	0.414760	0.416141
H229	H	0.541338	-0.551470	-0.549833
H230	H	0.874671	-0.218136	-0.216499
H231	H	1.208005	0.115197	0.116834
H232	H	0.817475	-0.498229	-0.496619
H233	H	1.150808	-0.164896	-0.163286
H234	H	1.484141	0.168438	0.170048
H235	H	1.272566	-0.251773	-0.817647
H236	H	1.605899	0.081560	-0.484314
H237	H	1.939232	0.414894	-0.150980
