data_functionalizedCrystal
_audit_creation_method	'MofGen! by Chris Wilmer'
_symmetry_space_group_name_H-M	'P1'
_symmetry_Int_Tables_number	1
_symmetry_cell_setting	triclinic
loop_
_symmetry_equiv_pos_as_xyz
  x,y,z
_cell_length_a	14.908520
_cell_length_b	13.033385
_cell_length_c	14.908858
_cell_angle_alpha	79.988722
_cell_angle_beta	89.778004
_cell_angle_gamma	94.277840
loop_
_atom_site_label
_atom_site_type_symbol
_atom_site_fract_x
_atom_site_fract_y
_atom_site_fract_z
Zn1	Zn	-0.506342	-1.538853	-0.370274
Zn2	Zn	-0.006342	-1.038853	0.129726
Zn3	Zn	-0.665247	-1.537568	-0.228720
Zn4	Zn	-0.165247	-1.037568	0.271280
Zn5	Zn	-0.495982	-1.373717	-0.236971
Zn6	Zn	0.004018	-0.873717	0.263029
Zn7	Zn	-0.635265	-1.353607	-0.398009
Zn8	Zn	-0.135265	-0.853607	0.101991
O9	O	-0.575709	-1.450936	-0.308493
O10	O	-0.075709	-0.950936	0.191507
O11	O	-0.544304	-1.684781	-0.336437
O12	O	-0.044304	-1.184781	0.163563
O13	O	-0.651005	-1.523711	-0.103179
O14	O	-0.151005	-1.023711	0.396821
O15	O	-0.372563	-1.404576	-0.246499
O16	O	0.127437	-0.904576	0.253501
O17	O	-0.661051	-1.683837	-0.232438
O18	O	-0.161051	-1.183837	0.267562
O19	O	-0.380174	-1.525901	-0.344437
O20	O	0.119826	-1.025901	0.155563
O21	O	-0.526647	-1.403330	-0.109240
O22	O	-0.026647	-0.903330	0.390760
O23	O	-0.497575	-1.224950	-0.273393
O24	O	0.002425	-0.724950	0.226607
O25	O	-0.609952	-1.370302	-0.520966
O26	O	-0.109952	-0.870302	-0.020966
O27	O	-0.599906	-1.210176	-0.391707
O28	O	-0.099906	-0.710176	0.108293
O29	O	-0.515232	-1.506401	-0.500589
O30	O	-0.015232	-1.006401	-0.000589
O31	O	-0.786063	-1.504211	-0.259331
O32	O	-0.286063	-1.004211	0.240669
O33	O	-0.764036	-1.369055	-0.383707
O34	O	-0.264036	-0.869055	0.116293
C35	C	-0.544364	-1.179681	-0.336455
C36	C	-0.044364	-0.679681	0.163545
C37	C	-0.530974	-1.063634	-0.348440
C38	C	-0.030974	-0.563634	0.151560
C39	C	-0.568853	-0.891497	-0.314624
C40	C	-0.068853	-0.391497	0.185376
C41	C	-0.582695	-1.011438	-0.302233
C42	C	-0.082695	-0.511438	0.197767
C43	C	-0.807409	-1.434339	-0.323650
C44	C	-0.307409	-0.934339	0.176350
C45	C	-0.906540	-1.427332	-0.330154
C46	C	-0.406540	-0.927332	0.169846
C47	C	-1.115704	-1.555034	-0.212943
C48	C	-0.615704	-1.055034	0.287057
C49	C	-1.208847	-1.548454	-0.219052
C50	C	-0.708847	-1.048454	0.280948
C51	C	-1.185972	-1.407598	-0.348482
C52	C	-0.685972	-0.907598	0.151518
C53	C	-1.092829	-1.414178	-0.342374
C54	C	-0.592829	-0.914178	0.157626
C55	C	-1.057698	-1.487897	-0.274602
C56	C	-0.557698	-0.987897	0.225398
C57	C	-0.964553	-1.494471	-0.268490
C58	C	-0.464553	-0.994471	0.231510
C59	C	-0.941680	-1.353621	-0.397924
C60	C	-0.441680	-0.853621	0.102076
C61	C	-1.034823	-1.347041	-0.404032
C62	C	-0.534823	-0.847041	0.095968
C63	C	-0.343106	-1.467626	-0.293295
C64	C	0.156894	-0.967626	0.206705
C65	C	-0.243985	-1.474738	-0.286818
C66	C	0.256015	-0.974738	0.213182
C67	C	-0.560403	-1.436252	-0.544531
C68	C	-0.060403	-0.936252	-0.044531
C69	C	-0.553880	-1.429994	-0.645116
C70	C	-0.053880	-0.929994	-0.145116
C71	C	-0.607172	-0.723251	-0.280414
C72	C	-0.107172	-0.223251	0.219586
C73	C	-0.620566	-0.839298	-0.268423
C74	C	-0.120566	-0.339298	0.231577
C75	C	-0.479944	-1.358506	-0.790041
C76	C	0.020056	-0.858506	-0.290041
C77	C	-0.486070	-1.364381	-0.695533
C78	C	0.013930	-0.864381	-0.195533
C79	C	-0.615567	-1.489738	-0.689214
C80	C	-0.115567	-0.989738	-0.189214
C81	C	-0.609441	-1.483862	-0.783723
C82	C	-0.109441	-0.983862	-0.283723
C83	C	-0.541628	-1.418243	-0.834133
C84	C	-0.041628	-0.918243	-0.334133
C85	C	-0.535506	-1.412362	-0.928644
C86	C	-0.035506	-0.912362	-0.428644
C87	C	-0.664999	-1.537723	-0.922323
C88	C	-0.164999	-1.037723	-0.422323
C89	C	-0.671125	-1.543599	-0.827815
C90	C	-0.171125	-1.043599	-0.327815
C91	C	-0.590898	-1.465628	-0.073364
C92	C	-0.090898	-0.965628	0.426636
C93	C	-0.597193	-1.472106	0.027258
C94	C	-0.097193	-0.972106	0.527258
H95	H	-0.935951	-1.554495	-0.213304
H96	H	-0.435951	-1.054495	0.286696
H97	H	-0.726335	-1.597027	-0.786757
H98	H	-0.226335	-1.097027	-0.286757
H99	H	-0.670772	-1.543169	-0.648153
H100	H	-0.170772	-1.043169	-0.148153
Br101	Br	-0.862951	-1.262483	-0.481594
Br102	Br	-0.362951	-0.762483	0.018406
Br103	Br	-0.711450	-0.912798	-0.187211
Br104	Br	-0.211450	-0.412798	0.312789
H105	H	-0.715223	-1.586371	-0.958232
H106	H	-0.215223	-1.086371	-0.458232
H107	H	-0.435839	-1.315740	-0.659636
H108	H	0.064161	-0.815740	-0.159636
Br109	Br	-0.443474	-1.323310	-0.997058
Br110	Br	0.056526	-0.823310	-0.497058
Br111	Br	-0.387912	-1.269459	-0.858459
Br112	Br	0.112088	-0.769459	-0.358459
H113	H	-0.514334	-0.847391	-0.363356
H114	H	-0.014334	-0.347391	0.136644
Br115	Br	-1.082509	-1.247004	-0.496009
Br116	Br	-0.582509	-0.747004	0.003991
Br117	Br	-1.287568	-1.639577	-0.135373
Br118	Br	-0.787568	-1.139577	0.364627
Br119	Br	-0.673582	-1.084934	-0.221017
Br120	Br	-0.173582	-0.584934	0.278983
H121	H	-1.214592	-1.347586	-0.403664
H122	H	-0.714592	-0.847586	0.096336
H123	H	-0.476451	-1.019534	-0.397175
H124	H	0.023549	-0.519534	0.102825
H125	H	-1.087100	-1.615053	-0.157755
H126	H	-0.587100	-1.115053	0.342245
