data_functionalizedCrystal
_audit_creation_method	'MofGen! by Chris Wilmer'
_symmetry_space_group_name_H-M	'P1'
_symmetry_Int_Tables_number	1
_symmetry_cell_setting	triclinic
loop_
_symmetry_equiv_pos_as_xyz
  x,y,z
_cell_length_a	18.627468
_cell_length_b	18.627054
_cell_length_c	18.627244
_cell_angle_alpha	120.002949
_cell_angle_beta	90.002837
_cell_angle_gamma	60.000256
loop_
_atom_site_label
_atom_site_type_symbol
_atom_site_fract_x
_atom_site_fract_y
_atom_site_fract_z
O1	O	-0.492537	-0.633186	-0.021341
O2	O	-0.388129	-0.486190	0.021268
O3	O	-0.388136	-0.633191	-0.125738
O4	O	-0.492530	-0.486185	0.125665
O5	O	-0.507533	-0.513784	-0.125737
O6	O	-0.507526	-0.366783	0.021269
O7	O	-0.611934	-0.513779	-0.021340
Cu8	Cu	-0.570632	-0.429378	-0.000036
Cu9	Cu	-0.429431	-0.570591	-0.000037
O10	O	-0.611927	-0.366778	0.125666
C11	C	-0.387030	-0.355986	0.030958
C12	C	-0.431327	-0.406385	0.024865
C13	C	-0.300631	-0.398780	0.031563
C14	C	-0.387035	-0.225984	0.030952
C15	C	-0.431338	-0.137385	0.024853
C16	C	-0.300637	-0.268976	0.031557
C17	C	-0.257032	-0.355982	0.030952
C18	C	-0.162336	-0.406376	0.024854
C19	C	-0.430436	-0.268980	0.031563
C20	C	-0.257042	-0.773992	-0.387041
C21	C	-0.162349	-0.862597	-0.431344
C22	C	-0.300642	-0.730997	-0.300642
C23	C	-0.387038	-0.643985	-0.387038
C24	C	-0.431337	-0.593585	-0.431337
C25	C	-0.430440	-0.601186	-0.300639
C26	C	-0.387037	-0.643986	-0.257038
C27	C	-0.431334	-0.593588	-0.162340
C28	C	-0.300643	-0.730995	-0.430445
C29	C	-0.613047	-0.773980	-0.031046
C30	C	-0.568751	-0.862583	-0.024952
C31	C	-0.699445	-0.730983	-0.031655
C32	C	-0.613041	-0.643978	-0.031041
C33	C	-0.568738	-0.593583	-0.024941
C34	C	-0.699439	-0.601178	-0.031649
C35	C	-0.743043	-0.643974	-0.031045
C36	C	-0.837738	-0.593574	-0.024950
C37	C	-0.569641	-0.730987	-0.031650
O38	O	0.125659	-0.513771	-0.021354
O39	O	-0.125737	-0.366774	0.021251
O40	O	0.021254	-0.513781	-0.125753
O41	O	-0.021332	-0.366764	0.125650
O42	O	0.021258	-0.633184	-0.125747
O43	O	-0.125733	-0.486177	0.021257
O44	O	0.125663	-0.633173	-0.021348
Cu45	Cu	-0.000035	-0.570578	-0.000045
Cu46	Cu	-0.000040	-0.429370	-0.000052
O47	O	-0.021328	-0.486166	0.125656
O48	O	-0.611950	0.104411	-0.021351
O49	O	-0.507540	-0.104384	0.021256
O50	O	-0.507552	-0.104395	-0.125749
O51	O	-0.611939	0.104421	0.125654
O52	O	-0.388153	-0.104390	-0.125755
O53	O	-0.388142	-0.104380	0.021250
O54	O	-0.492552	0.104415	-0.021356
Cu55	Cu	-0.429445	0.000018	-0.000054
Cu56	Cu	-0.570647	0.000013	-0.000047
O57	O	-0.492540	0.104426	0.125649
O58	O	-0.492541	-0.486174	-0.611931
O59	O	-0.388141	-0.633186	-0.507541
O60	O	-0.388136	-0.486182	-0.507531
O61	O	-0.492545	-0.633178	-0.611940
O62	O	-0.507531	-0.366777	-0.388126
O63	O	-0.507536	-0.513781	-0.388135
O64	O	-0.611936	-0.366769	-0.492525
Cu65	Cu	-0.570637	-0.429372	-0.429427
Cu66	Cu	-0.429439	-0.570583	-0.570638
O67	O	-0.611940	-0.513773	-0.492534
C68	C	0.030944	-0.643991	-0.257051
C69	C	0.024853	-0.593586	-0.162353
C70	C	0.031551	-0.731000	-0.300649
C71	C	0.030935	-0.644002	-0.387058
C72	C	0.024834	-0.593610	-0.431363
C73	C	0.031542	-0.731012	-0.430459
C74	C	0.030939	-0.774002	-0.387049
C75	C	0.024843	-0.862607	-0.431346
C76	C	0.031547	-0.601198	-0.300658
C77	C	-0.743028	-0.225970	0.386966
C78	C	-0.837721	-0.137365	0.431265
C79	C	-0.699430	-0.268965	0.430372
C80	C	-0.613031	-0.355979	0.256966
C81	C	-0.568730	-0.406380	0.162267
C82	C	-0.569630	-0.398776	0.300569
C83	C	-0.613034	-0.355975	0.386968
C84	C	-0.568738	-0.406372	0.431270
C85	C	-0.699426	-0.268969	0.300567
O86	O	0.125642	-1.104413	-0.492543
O87	O	-0.125749	-0.895602	-0.388144
O88	O	0.021252	-0.895608	-0.388139
O89	O	-0.021359	-1.104407	-0.492549
O90	O	0.021254	-0.895609	-0.507542
O91	O	-0.125747	-0.895603	-0.507547
O92	O	0.125644	-1.104415	-0.611946
Cu93	Cu	-0.000052	-1.000009	-0.570649
Cu94	Cu	-0.000054	-1.000007	-0.429441
O95	O	-0.021357	-1.104409	-0.611952
C96	C	-0.030982	-0.355967	0.386951
C97	C	-0.024878	-0.406363	0.431254
C98	C	-0.031582	-0.268962	0.430351
C99	C	-0.031004	-0.355968	0.256950
C100	C	-0.024923	-0.406365	0.162255
C101	C	-0.031604	-0.268963	0.300547
C102	C	-0.030982	-0.225969	0.386944
C103	C	-0.024878	-0.137370	0.431238
C104	C	-0.031604	-0.398764	0.300555
C105	C	-0.257061	-0.356010	-0.387057
C106	C	-0.162368	-0.406406	-0.431359
C107	C	-0.300662	-0.398813	-0.430460
C108	C	-0.387055	-0.226005	-0.257053
C109	C	-0.431352	-0.137398	-0.162355
C110	C	-0.430459	-0.269005	-0.300653
C111	C	-0.387057	-0.356017	-0.387053
C112	C	-0.431356	-0.406420	-0.431352
C113	C	-0.300660	-0.268998	-0.300657
O114	O	-0.021403	-0.366800	-0.492567
O115	O	0.021235	-0.513805	-0.388167
O116	O	-0.125777	-0.366810	-0.388158
O117	O	0.125609	-0.513795	-0.492576
O118	O	-0.125781	-0.486222	-0.507557
O119	O	0.021231	-0.633217	-0.507566
O120	O	-0.021407	-0.486213	-0.611967
Cu121	Cu	-0.000088	-0.570618	-0.570669
Cu122	Cu	-0.000084	-0.429399	-0.429465
O123	O	0.125605	-0.633208	-0.611976
C124	C	-0.613037	0.356049	0.386953
C125	C	-0.568739	0.406453	0.431252
C126	C	-0.699432	0.398844	0.430359
C127	C	-0.613038	0.226036	0.256952
C128	C	-0.568740	0.137429	0.162254
C129	C	-0.699432	0.269029	0.300555
C130	C	-0.743032	0.356041	0.386955
C131	C	-0.837725	0.406436	0.431257
C132	C	-0.569635	0.269037	0.300553
H133	H	-0.501418	-0.531153	-0.265626
O134	O	-0.745784	-0.221332	0.254176
H135	H	-0.708788	-0.198418	0.234970
H136	H	-0.265651	-0.468838	-0.501446
H137	H	-0.265651	-0.233015	-0.265655
O138	O	-0.745806	0.491587	0.524392
H139	H	-0.700957	0.514278	0.547379
O140	O	-0.254281	-0.778653	-0.254266
H141	H	-0.186748	-0.846495	-0.299118
O142	O	-0.745824	-0.778636	-0.032951
H143	H	-0.700976	-0.846477	-0.033255
H144	H	-0.032584	-0.232986	0.265535
H145	H	-0.265632	-0.766976	-0.501431
H146	H	-0.734434	0.233037	0.265547
O147	O	-0.032853	-0.221297	0.524378
H148	H	-0.033149	-0.265846	0.547368
H149	H	-0.498655	-0.766972	-0.032621
H150	H	-0.032565	-0.468790	0.265549
O151	O	0.032839	-0.778696	-0.524494
H152	H	0.033152	-0.734159	-0.547491
H153	H	-0.501425	-0.233003	0.032540
H154	H	-0.498671	0.233104	0.265526
O155	O	0.032847	-0.778664	-0.254282
H156	H	0.033151	-0.734110	-0.186745
H157	H	-0.501449	-0.233011	-0.265647
H158	H	-0.265639	-0.232983	0.032538
H159	H	-0.498644	-0.468792	0.265560
H160	H	-0.734440	-0.531161	-0.032620
H161	H	-0.265629	-0.468786	0.032550
H162	H	0.032517	-0.531178	-0.265649
H163	H	-0.734434	-0.232964	0.501367
