data_functionalizedCrystal
_audit_creation_method	'MofGen! by Chris Wilmer'
_symmetry_space_group_name_H-M	'P1'
_symmetry_Int_Tables_number	1
_symmetry_cell_setting	triclinic
loop_
_symmetry_equiv_pos_as_xyz
  x,y,z
_cell_length_a	16.959454
_cell_length_b	14.908780
_cell_length_c	16.959434
_cell_angle_alpha	93.358688
_cell_angle_beta	89.913905
_cell_angle_gamma	86.690567
loop_
_atom_site_label
_atom_site_type_symbol
_atom_site_fract_x
_atom_site_fract_y
_atom_site_fract_z
Zn1	Zn	-0.244505	-1.379677	-0.516836
Zn2	Zn	0.255495	-0.879677	-0.016836
Zn3	Zn	-0.376845	-1.379469	-0.384654
Zn4	Zn	0.123155	-0.879469	0.115346
Zn5	Zn	-0.252301	-1.228694	-0.377023
Zn6	Zn	0.247699	-0.728694	0.122977
Zn7	Zn	-0.384269	-1.228773	-0.509158
Zn8	Zn	0.115731	-0.728773	-0.009158
O9	O	-0.314480	-1.304153	-0.446918
O10	O	0.185520	-0.804153	0.053082
O11	O	-0.255691	-1.505903	-0.505708
O12	O	0.244309	-1.005903	-0.005708
O13	O	-0.360480	-1.359349	-0.273025
O14	O	0.139520	-0.859349	0.226975
O15	O	-0.140654	-1.248776	-0.395588
O16	O	0.359346	-0.748776	0.104412
O17	O	-0.352920	-1.505750	-0.408596
O18	O	0.147080	-1.005750	0.091404
O19	O	-0.134926	-1.359703	-0.498308
O20	O	0.365074	-0.859703	0.001692
O21	O	-0.268978	-1.248575	-0.267418
O22	O	0.231022	-0.748575	0.232582
O23	O	-0.276177	-1.102451	-0.388144
O24	O	0.223823	-0.602451	0.111856
O25	O	-0.365573	-1.248911	-0.620793
O26	O	0.134427	-0.748911	-0.120793
O27	O	-0.373133	-1.102509	-0.485223
O28	O	0.126867	-0.602509	0.014777
O29	O	-0.262889	-1.359779	-0.626434
O30	O	0.237111	-0.859779	-0.126434
O31	O	-0.488444	-1.359425	-0.401151
O32	O	0.011556	-0.859425	0.098849
O33	O	-0.493898	-1.248709	-0.492623
O34	O	0.006102	-0.748709	0.007377
C35	C	-0.326307	-1.069744	-0.435022
C36	C	0.173693	-0.569744	0.064978
C37	C	-0.331385	-0.969463	-0.429952
C38	C	0.168615	-0.469463	0.070048
C39	C	-0.239821	-0.781180	-0.521703
C40	C	0.260179	-0.281180	-0.021703
C41	C	-0.244590	-0.686957	-0.516942
C42	C	0.255410	-0.186957	-0.016942
C43	C	-0.345688	-0.686791	-0.415665
C44	C	0.154312	-0.186791	0.084335
C45	C	-0.340919	-0.781015	-0.420426
C46	C	0.159081	-0.281015	0.079574
C47	C	-0.287985	-0.828206	-0.473448
C48	C	0.212015	-0.328206	0.026552
C49	C	-0.283220	-0.922431	-0.478213
C50	C	0.216780	-0.422431	0.021787
C51	C	-0.384313	-0.922263	-0.376932
C52	C	0.115687	-0.422263	0.123068
C53	C	-0.389082	-0.828040	-0.372171
C54	C	0.110918	-0.328040	0.127829
C55	C	-0.519850	-1.304078	-0.446900
C56	C	-0.019850	-0.804078	0.053100
C57	C	-0.607704	-1.304128	-0.446924
C58	C	-0.107704	-0.804128	0.053076
C59	C	-0.982044	-1.246587	-0.494546
C60	C	-0.482044	-0.746587	0.005454
C61	C	-0.976300	-1.361971	-0.399382
C62	C	-0.476300	-0.861971	0.100618
C63	C	-0.893756	-1.361939	-0.399374
C64	C	-0.393756	-0.861939	0.100626
C65	C	-0.855352	-1.304230	-0.446951
C66	C	-0.355352	-0.804230	0.053049
C67	C	-0.899493	-1.246552	-0.494537
C68	C	-0.399493	-0.746552	0.005463
C69	C	-0.849609	-1.419610	-0.351783
C70	C	-0.349609	-0.919610	0.148217
C71	C	-0.767060	-1.419580	-0.351771
C72	C	-0.267060	-0.919580	0.148229
C73	C	-0.728655	-1.361874	-0.399353
C74	C	-0.228655	-0.861874	0.100647
C75	C	-0.772800	-1.304195	-0.446942
C76	C	-0.272800	-0.804195	0.053058
C77	C	-0.734397	-1.246485	-0.494519
C78	C	-0.234397	-0.746485	0.005481
C79	C	-0.778541	-1.188810	-0.542112
C80	C	-0.278541	-0.688810	-0.042112
C81	C	-0.861087	-1.188847	-0.542119
C82	C	-0.361087	-0.688847	-0.042119
C83	C	-0.646108	-1.361837	-0.399346
C84	C	-0.146108	-0.861837	0.100654
C85	C	-0.651845	-1.246450	-0.494510
C86	C	-0.151845	-0.746450	0.005490
C87	C	-0.108307	-1.304254	-0.446953
C88	C	0.391693	-0.804254	0.053047
C89	C	-0.020448	-1.304297	-0.446969
C90	C	0.479552	-0.804297	0.053031
C91	C	-0.314190	-1.304377	-0.653098
C92	C	0.185810	-0.804377	-0.153098
C93	C	-0.314066	-1.304472	-0.740959
C94	C	0.185934	-0.804472	-0.240959
C95	C	-0.302601	-0.539478	-0.458854
C96	C	0.197399	-0.039478	0.041146
C97	C	-0.297522	-0.639759	-0.463926
C98	C	0.202478	-0.139759	0.036074
C99	C	-0.314710	-1.303983	-0.241542
C100	C	0.185290	-0.803983	0.258458
C101	C	-0.314602	-1.304063	-0.153690
C102	C	0.185398	-0.804063	0.346310
C103	C	-0.367927	-1.247126	0.220908
C104	C	0.132073	-0.747126	0.720908
C105	C	-0.260312	-1.361734	0.214625
C106	C	0.239688	-0.861734	0.714625
C107	C	-0.260420	-1.361654	0.132083
C108	C	0.239580	-0.861654	0.632083
C109	C	-0.314280	-1.304309	0.093950
C110	C	0.185720	-0.804309	0.593950
C111	C	-0.368034	-1.247043	0.138359
C112	C	0.131966	-0.747043	0.638359
C113	C	-0.206662	-1.418912	0.087668
C114	C	0.293338	-0.918912	0.587668
C115	C	-0.206766	-1.418834	0.005122
C116	C	0.293234	-0.918834	0.505122
C117	C	-0.260631	-1.361493	-0.033013
C118	C	0.239369	-0.861493	0.466987
C119	C	-0.314388	-1.304226	0.011401
C120	C	0.185612	-0.804226	0.511401
C121	C	-0.368249	-1.246880	-0.026732
C122	C	0.131751	-0.746880	0.473268
C123	C	-0.422009	-1.189617	0.017680
C124	C	0.077991	-0.689617	0.517680
C125	C	-0.421900	-1.189702	0.100224
C126	C	0.078100	-0.689702	0.600224
C127	C	-0.260741	-1.361408	-0.115557
C128	C	0.239259	-0.861408	0.384443
C129	C	-0.368356	-1.246797	-0.109281
C130	C	0.131644	-0.746797	0.390719
H131	H	-0.388775	-0.648352	-0.372489
H132	H	0.111225	-0.148352	0.127511
H133	H	-0.432177	-0.789604	-0.329000
H134	H	0.067823	-0.289604	0.171000
Br135	Br	-0.441463	-1.168974	-0.161027
Br136	Br	0.058537	-0.668974	0.338973
Br137	Br	-0.187189	-1.439519	0.266379
Br138	Br	0.312811	-0.939519	0.766379
H139	H	-0.465859	-1.142921	-0.013378
H140	H	0.034141	-0.642921	0.486622
Br141	Br	-0.133522	-1.496675	0.139426
Br142	Br	0.366478	-0.996675	0.639426
Br143	Br	-0.449690	-0.986088	-0.311447
Br144	Br	0.050310	-0.486088	0.188553
H145	H	-0.620582	-1.199459	-0.533256
H146	H	-0.120582	-0.699459	-0.033256
H147	H	-0.747263	-1.141818	-0.580846
H148	H	-0.247263	-0.641818	-0.080846
Br149	Br	-0.167995	-0.845230	-0.593668
Br150	Br	0.332005	-0.345230	-0.093668
H151	H	-0.162992	-1.465463	-0.031032
H152	H	0.337008	-0.965463	0.468968
Br153	Br	-0.187766	-1.439091	-0.175826
Br154	Br	0.312234	-0.939091	0.324174
H155	H	-0.465668	-1.143080	0.136391
H156	H	0.034332	-0.643080	0.636391
H157	H	-0.897037	-1.141889	-0.580866
H158	H	-0.397037	-0.641889	-0.080866
H159	H	-0.205369	-0.648673	-0.556234
H160	H	0.294631	-0.148673	-0.056234
H161	H	-0.240119	-0.960853	-0.521386
H162	H	0.259881	-0.460853	-0.021386
H163	H	-1.007574	-1.408950	-0.360642
H164	H	-0.507574	-0.908950	0.139358
Br165	Br	-1.041949	-1.168324	-0.559140
Br166	Br	-0.541949	-0.668324	-0.059140
Br167	Br	-0.901731	-1.497929	-0.287221
Br168	Br	-0.401731	-0.997929	0.212779
H169	H	-0.731123	-1.466543	-0.313019
H170	H	-0.231123	-0.966543	0.186981
Br171	Br	-0.586202	-1.440092	-0.334749
Br172	Br	-0.086202	-0.940092	0.165251
Br173	Br	-0.440888	-1.169419	0.281177
Br174	Br	0.059112	-0.669419	0.781177
