data_functionalizedCrystal
_audit_creation_method	'MofGen! by Chris Wilmer'
_symmetry_space_group_name_H-M	'P1'
_symmetry_Int_Tables_number	1
_symmetry_cell_setting	triclinic
loop_
_symmetry_equiv_pos_as_xyz
  x,y,z
_cell_length_a	21.295418
_cell_length_b	25.639239
_cell_length_c	21.295411
_cell_angle_alpha	90.019526
_cell_angle_beta	90.043738
_cell_angle_gamma	90.054499
loop_
_atom_site_label
_atom_site_type_symbol
_atom_site_fract_x
_atom_site_fract_y
_atom_site_fract_z
Zn1	Zn	0.962320	-0.207990	0.356243
Zn2	Zn	1.462320	0.292010	0.856243
Zn3	Zn	0.962207	-0.295410	0.250972
Zn4	Zn	1.462207	0.204590	0.750972
Zn5	Zn	0.857043	-0.208014	0.250953
Zn6	Zn	1.357043	0.291986	0.750953
Zn7	Zn	0.856998	-0.295420	0.356169
Zn8	Zn	1.356998	0.204580	0.856169
O9	O	0.909642	-0.251708	0.303584
O10	O	1.409642	0.248292	0.803584
O11	O	1.050395	-0.219572	0.342318
O12	O	1.550395	0.280428	0.842318
O13	O	0.948229	-0.283822	0.162880
O14	O	1.448229	0.216178	0.662880
O15	O	0.871075	-0.134846	0.264943
O16	O	1.371075	0.365154	0.764943
O17	O	1.050312	-0.283799	0.264976
O18	O	1.550312	0.216201	0.764976
O19	O	0.948421	-0.134828	0.342299
O20	O	1.448421	0.365172	0.842299
O21	O	0.870965	-0.219613	0.162866
O22	O	1.370965	0.280387	0.662866
O23	O	0.768948	-0.219623	0.264871
O24	O	1.268948	0.280377	0.764871
O25	O	0.870997	-0.283816	0.444268
O26	O	1.370997	0.216184	0.944268
O27	O	0.768914	-0.283840	0.342172
O28	O	1.268914	0.216160	0.842172
O29	O	0.948377	-0.219582	0.444322
O30	O	1.448377	0.280418	0.944322
O31	O	0.948185	-0.368576	0.264904
O32	O	1.448185	0.131424	0.764904
O33	O	0.870888	-0.368584	0.342191
O34	O	1.370888	0.131416	0.842191
C35	C	0.746090	-0.251736	0.303512
C36	C	1.246090	0.248264	0.803512
C37	C	0.676122	-0.251760	0.303496
C38	C	1.176122	0.248240	0.803496
C39	C	0.643255	-0.285242	0.343686
C40	C	1.143255	0.214758	0.843686
C41	C	0.577512	-0.285229	0.343715
C42	C	1.077512	0.214771	0.843715
C43	C	0.544640	-0.251740	0.303541
C44	C	1.044640	0.248260	0.803541
C45	C	0.577515	-0.218252	0.263347
C46	C	1.077515	0.281748	0.763347
C47	C	0.643257	-0.218262	0.263325
C48	C	1.143257	0.281738	0.763325
N49	N	0.441365	-0.247648	0.248483
N50	N	0.941365	0.252352	0.748483
N51	N	0.378913	-0.247641	0.248506
N52	N	0.878913	0.252359	0.748506
C53	C	0.346565	-0.251707	0.303608
C54	C	0.846565	0.248293	0.803608
N55	N	0.379028	-0.255789	0.358686
N56	N	0.879028	0.244211	0.858686
N57	N	0.441485	-0.255799	0.358662
N58	N	0.941485	0.244201	0.858662
C59	C	0.473354	-0.251725	0.303561
C60	C	0.973354	0.248275	0.803561
C61	C	0.242412	-0.285176	0.343832
C62	C	0.742412	0.214824	0.843832
C63	C	0.176668	-0.285160	0.343862
C64	C	0.676668	0.214840	0.843862
C65	C	0.176673	-0.218185	0.263489
C66	C	0.676673	0.281815	0.763489
C67	C	0.242415	-0.218199	0.263465
C68	C	0.742415	0.281801	0.763465
C69	C	0.275281	-0.251697	0.303636
C70	C	0.775281	0.248303	0.803636
C71	C	0.909536	-0.387551	0.303555
C72	C	1.409536	0.112449	0.803555
C73	C	0.909548	-0.445665	0.303564
C74	C	1.409548	0.054335	0.803564
C75	C	0.949996	-0.806011	0.263409
C76	C	1.449996	-0.306011	0.763409
C77	C	0.950020	-0.860616	0.263418
C78	C	1.450020	-0.360616	0.763418
O79	O	0.984300	-0.888838	0.229245
O80	O	1.484300	-0.388838	0.729245
N81	N	0.909753	-0.887947	0.303626
N82	N	1.409753	-0.387947	0.803626
C83	C	0.869463	-0.860672	0.343833
C84	C	1.369463	-0.360672	0.843833
O85	O	0.835215	-0.888934	0.378034
O86	O	1.335215	-0.388934	0.878034
C87	C	0.869442	-0.806069	0.343827
C88	C	1.369442	-0.306069	0.843827
C89	C	0.909708	-0.778740	0.303612
C90	C	1.409708	-0.278740	0.803612
C91	C	0.990259	-0.778683	0.223198
C92	C	1.490259	-0.278683	0.723198
C93	C	0.990233	-0.724082	0.223188
C94	C	1.490233	-0.224082	0.723188
C95	C	0.949945	-0.696810	0.263391
C96	C	1.449945	-0.196810	0.763391
C97	C	0.909682	-0.724139	0.303603
C98	C	1.409682	-0.224139	0.803603
C99	C	0.829156	-0.778794	0.384037
C100	C	1.329156	-0.278794	0.884037
C101	C	0.829139	-0.724187	0.384028
C102	C	1.329139	-0.224187	0.884028
C103	C	0.869404	-0.696858	0.343812
C104	C	1.369404	-0.196858	0.843812
C105	C	0.869369	-0.642267	0.343796
C106	C	1.369369	-0.142267	0.843796
N107	N	0.909636	-0.614935	0.303588
N108	N	1.409636	-0.114935	0.803588
C109	C	0.949924	-0.642207	0.263385
C110	C	1.449924	-0.142207	0.763385
C111	C	0.869510	-0.975343	0.343842
C112	C	1.369510	-0.475343	0.843842
C113	C	0.869527	-1.029945	0.343845
C114	C	1.369527	-0.529945	0.843845
C115	C	0.950086	-1.029885	0.263431
C116	C	1.450086	-0.529885	0.763431
C117	C	0.950065	-0.975282	0.263425
C118	C	1.450065	-0.475282	0.763425
C119	C	0.909778	-0.948011	0.303634
C120	C	1.409778	-0.448011	0.803634
C121	C	0.949868	-0.527542	0.263369
C122	C	1.449868	-0.027542	0.763369
C123	C	0.949837	-0.472937	0.263361
C124	C	1.449837	0.027063	0.763361
C125	C	0.869281	-0.473001	0.343778
C126	C	1.369281	0.026999	0.843778
C127	C	0.869309	-0.527602	0.343783
C128	C	1.369309	-0.027602	0.843783
C129	C	0.909607	-0.554871	0.303577
C130	C	1.409607	-0.054871	0.803577
O131	O	0.835108	-0.614010	0.377953
O132	O	1.335108	-0.114010	0.877953
O133	O	0.984172	-0.613939	0.229195
O134	O	1.484172	-0.113939	0.729195
C135	C	1.073832	-0.251681	0.303657
C136	C	1.573832	0.248319	0.803657
C137	C	1.143801	-0.251670	0.303688
C138	C	1.643801	0.248330	0.803688
C139	C	0.909694	-0.251697	0.467774
C140	C	1.409694	0.248303	0.967774
C141	C	0.909717	-0.251693	0.537743
C142	C	1.409717	0.248307	1.037743
C143	C	0.909766	-0.115335	0.303627
C144	C	1.409766	0.384665	0.803627
C145	C	0.909818	-0.057221	0.303645
C146	C	1.409818	0.442779	0.803645
C147	C	0.909626	-0.251682	0.140032
C148	C	1.409626	0.248318	0.640032
C149	C	0.909726	-0.251539	0.070065
C150	C	1.409726	0.248461	0.570065
C151	C	0.950007	-0.218244	0.570639
C152	C	1.450007	0.281756	1.070639
C153	C	0.950006	-0.218221	0.636381
C154	C	1.450006	0.281779	1.136381
C155	C	0.909721	-0.251657	0.669225
C156	C	1.409721	0.248343	1.169225
C157	C	0.869424	-0.285108	0.636321
C158	C	1.369424	0.214892	1.136321
C159	C	0.869421	-0.285126	0.570580
C160	C	1.369421	0.214874	1.070580
N161	N	0.904857	-0.297396	0.772441
N162	N	1.404857	0.202604	1.272441
N163	N	0.904863	-0.297377	0.834892
N164	N	1.404863	0.202623	1.334892
C165	C	0.909725	-0.251604	0.867300
C166	C	1.409725	0.248396	1.367300
N167	N	0.914594	-0.205848	0.834897
N168	N	1.414594	0.294152	1.334897
N169	N	0.914591	-0.205867	0.772440
N170	N	1.414591	0.294133	1.272440
C171	C	0.909719	-0.251641	0.740511
C172	C	1.409719	0.248359	1.240511
C173	C	0.950017	-0.218128	0.971482
C174	C	1.450017	0.281872	1.471482
C175	C	0.950011	-0.218104	1.037225
C176	C	1.450011	0.281896	1.537225
C177	C	0.869433	-0.284995	1.037164
C178	C	1.369433	0.215005	1.537164
C179	C	0.869435	-0.285014	0.971422
C180	C	1.369435	0.214986	1.471422
C181	C	0.909730	-0.251581	0.938584
C182	C	1.409730	0.248419	1.438584
H183	H	0.982684	-0.549738	0.230630
H184	H	1.482684	-0.049738	0.730630
H185	H	0.670010	-0.312519	0.376398
H186	H	1.170010	0.187481	0.876398
H187	H	0.982853	-0.953034	0.230679
H188	H	1.482853	-0.453034	0.730679
H189	H	0.550746	-0.312494	0.376445
H190	H	1.050746	0.187506	0.876445
H191	H	0.836698	-0.953141	0.376584
H192	H	1.336698	-0.453141	0.876584
H193	H	0.982893	-1.052099	0.230698
H194	H	1.482893	-0.552099	0.730698
H195	H	1.023023	-0.701834	0.190444
H196	H	1.523023	-0.201834	0.690444
C197	C	1.034124	-0.808293	0.179671
C198	C	1.534124	-0.308293	0.679671
C199	C	1.074483	-0.839553	0.215390
C200	C	1.574483	-0.339553	0.715390
C201	C	1.114924	-0.866819	0.175320
C202	C	1.614924	-0.366819	0.675320
H203	H	1.010183	-0.829684	0.152178
H204	H	1.510183	-0.329684	0.652178
H205	H	1.058132	-0.784189	0.155760
H206	H	1.558132	-0.284189	0.655760
H207	H	1.050478	-0.863654	0.239291
H208	H	1.550478	-0.363654	0.739291
H209	H	1.098437	-0.818175	0.242882
H210	H	1.598437	-0.318175	0.742882
H211	H	1.138932	-0.842715	0.151409
H212	H	1.638932	-0.342715	0.651409
H213	H	1.090979	-0.888206	0.147829
H214	H	1.590979	-0.388206	0.647829
H215	H	1.142316	-0.888028	0.199550
H216	H	1.642316	-0.388028	0.699550
H217	H	0.670017	-0.190995	0.230596
H218	H	1.170017	0.309005	0.730596
C219	C	0.825781	-1.059518	0.387572
C220	C	1.325781	-0.559518	0.887572
C221	C	0.790507	-1.023941	0.422785
C222	C	1.290507	-0.523941	0.922785
C223	C	0.750209	-1.051162	0.463083
C224	C	1.250209	-0.551162	0.963083
H225	H	0.798317	-1.080861	0.363534
H226	H	1.298317	-0.580861	0.863534
H227	H	0.849841	-1.080770	0.415070
H228	H	1.349841	-0.580770	0.915070
H229	H	0.766448	-1.002698	0.395291
H230	H	1.266448	-0.502698	0.895291
H231	H	0.817954	-1.002597	0.446837
H232	H	1.317954	-0.502597	0.946837
H233	H	0.774269	-1.072414	0.490581
H234	H	1.274269	-0.572414	0.990581
H235	H	0.722749	-1.072504	0.439040
H236	H	1.222749	-0.572504	0.939040
H237	H	0.726274	-1.027028	0.486984
H238	H	1.226274	-0.527028	0.986984
H239	H	0.796364	-0.801036	0.416781
H240	H	1.296364	-0.301036	0.916781
C241	C	0.825802	-0.321366	1.072844
C242	C	1.325802	0.178634	1.572844
C243	C	0.861419	-0.354870	1.110597
C244	C	1.361419	0.145130	1.610597
C245	C	0.821247	-0.388389	1.143470
C246	C	1.321247	0.111611	1.643470
H247	H	0.798377	-0.301429	1.098523
H248	H	1.298377	0.198571	1.598523
H249	H	0.801821	-0.341322	1.043851
H250	H	1.301821	0.158678	1.543851
H251	H	0.885389	-0.334916	1.139588
H252	H	1.385389	0.165084	1.639588
H253	H	0.888842	-0.374819	1.084934
H254	H	1.388842	0.125181	1.584934
H255	H	0.797266	-0.408345	1.114476
H256	H	1.297266	0.091655	1.614476
H257	H	0.793823	-0.368447	1.169145
H258	H	1.293823	0.131553	1.669145
H259	H	0.845407	-0.411128	1.169085
H260	H	1.345407	0.088872	1.669085
C261	C	0.825771	-0.321422	0.935736
C262	C	1.325771	0.178578	1.435736
C263	C	0.839442	-0.373147	0.951725
C264	C	1.339442	0.126853	1.451725
C265	C	0.799233	-0.406700	0.918859
C266	C	1.299233	0.093300	1.418859
H267	H	0.783461	-0.313842	0.946453
H268	H	1.283461	0.186158	1.446453
H269	H	0.831543	-0.316680	0.891873
H270	H	1.331543	0.183320	1.391873
H271	H	0.833665	-0.377886	0.995578
H272	H	1.333665	0.122114	1.495578
H273	H	0.881744	-0.380742	0.941006
H274	H	1.381744	0.119258	1.441006
H275	H	0.805005	-0.401958	0.874996
H276	H	1.305005	0.098042	1.374996
H277	H	0.756926	-0.399116	0.929578
H278	H	1.256926	0.100884	1.429578
H279	H	0.808507	-0.441799	0.929698
H280	H	1.308507	0.058201	1.429698
C281	C	0.277986	-0.321558	0.387521
C282	C	0.777986	0.178442	0.887521
C283	C	0.235127	-0.350864	0.422743
C284	C	0.735127	0.149136	0.922743
C285	C	0.267873	-0.384379	0.463002
C286	C	0.767873	0.115621	0.963002
H287	H	0.303576	-0.344362	0.363454
H288	H	0.803576	0.155638	0.863454
H289	H	0.303677	-0.301605	0.415015
H290	H	0.803677	0.198395	0.915015
H291	H	0.209447	-0.370816	0.395253
H292	H	0.709447	0.129184	0.895253
H293	H	0.209537	-0.328074	0.446822
H294	H	0.709537	0.171926	0.946822
H295	H	0.293564	-0.364426	0.490496
H296	H	0.793564	0.135574	0.990496
H297	H	0.293461	-0.407179	0.438930
H298	H	0.793461	0.092821	0.938930
H299	H	0.238799	-0.404264	0.486909
H300	H	0.738799	0.095736	0.986909
H301	H	0.550747	-0.190983	0.230639
H302	H	1.050747	0.309017	0.730639
H303	H	0.149909	-0.312424	0.376594
H304	H	0.649909	0.187576	0.876594
H305	H	0.149909	-0.190915	0.230781
H306	H	0.649909	0.309085	0.730781
H307	H	0.269176	-0.190937	0.230734
H308	H	0.769176	0.309063	0.730734
H309	H	0.982626	-0.450687	0.230611
H310	H	1.482626	0.049313	0.730611
C311	C	0.785329	-0.694674	0.427711
C312	C	1.285329	-0.194674	0.927711
C313	C	0.750066	-0.730299	0.462917
C314	C	1.250066	-0.230299	0.962917
C315	C	0.709697	-0.703132	0.503158
C316	C	1.209697	-0.203132	1.003158
H317	H	0.809319	-0.673336	0.455220
H318	H	1.309319	-0.173336	0.955220
H319	H	0.757866	-0.673423	0.403612
H320	H	1.257866	-0.173423	0.903612
H321	H	0.777525	-0.751541	0.487014
H322	H	1.277525	-0.251541	0.987014
H323	H	0.726063	-0.751639	0.435424
H324	H	1.226063	-0.251639	0.935424
H325	H	0.682234	-0.681882	0.479059
H326	H	1.182234	-0.181882	0.979059
H327	H	0.733692	-0.681795	0.530663
H328	H	1.233692	-0.181795	1.030663
H329	H	0.685762	-0.727300	0.527046
H330	H	1.185762	-0.227300	1.027046
C331	C	0.825568	-0.557182	0.387512
C332	C	1.325568	-0.057182	0.887512
C333	C	0.790290	-0.521609	0.422727
C334	C	1.290290	-0.021609	0.922727
C335	C	0.750000	-0.548835	0.463029
C336	C	1.250000	-0.048835	0.963029
H337	H	0.798106	-0.578529	0.363477
H338	H	1.298106	-0.078529	0.863477
H339	H	0.849634	-0.578430	0.415009
H340	H	1.349634	-0.078430	0.915009
H341	H	0.766225	-0.500370	0.395234
H342	H	1.266225	-0.000370	0.895234
H343	H	0.817735	-0.500261	0.446776
H344	H	1.317735	-0.000261	0.946776
H345	H	0.774066	-0.570082	0.490525
H346	H	1.274066	-0.070082	0.990525
H347	H	0.722542	-0.570180	0.438988
H348	H	1.222542	-0.070180	0.938988
H349	H	0.726063	-0.524702	0.486931
H350	H	1.226063	-0.024702	0.986931
C351	C	0.825611	-0.443291	0.387403
C352	C	1.325611	0.056709	0.887403
C353	C	0.834227	-0.389624	0.378797
C354	C	1.334227	0.110376	0.878797
C355	C	0.794019	-0.362237	0.418982
C356	C	1.294019	0.137763	0.918982
H357	H	0.783296	-0.452222	0.378184
H358	H	1.283296	0.047778	0.878184
H359	H	0.834817	-0.452182	0.429724
H360	H	1.334817	0.047818	0.929724
H361	H	0.825016	-0.380737	0.336485
H362	H	1.325016	0.119263	0.836485
H363	H	0.876533	-0.380677	0.388020
H364	H	1.376533	0.119323	0.888020
H365	H	0.803225	-0.371128	0.461304
H366	H	1.303225	0.128872	0.961304
H367	H	0.751706	-0.371173	0.409761
H368	H	1.251706	0.128827	0.909761
H369	H	0.799863	-0.325822	0.413153
H370	H	1.299863	0.174178	0.913153
C371	C	0.993650	-0.181843	0.672141
C372	C	1.493650	0.318157	1.172141
C373	C	0.958045	-0.148317	0.709849
C374	C	1.458045	0.351683	1.209849
C375	C	0.998229	-0.114795	0.742792
C376	C	1.498229	0.385205	1.242792
H377	H	1.021069	-0.201777	0.697856
H378	H	1.521069	0.298223	1.197856
H379	H	1.017637	-0.161904	0.643189
H380	H	1.517637	0.338096	1.143189
H381	H	0.934069	-0.168254	0.738798
H382	H	1.434069	0.331746	1.238798
H383	H	0.930628	-0.128371	0.684150
H384	H	1.430628	0.371629	1.184150
H385	H	1.022216	-0.094855	0.713840
H386	H	1.522216	0.405145	1.213840
H387	H	1.025646	-0.134733	0.768503
H388	H	1.525646	0.365267	1.268503
H389	H	0.974076	-0.092040	0.768376
H390	H	1.474076	0.407960	1.268376
C391	C	0.993650	-0.181716	1.072974
C392	C	1.493650	0.318284	1.572974
C393	C	0.958037	-0.148187	1.110671
C394	C	1.458037	0.351813	1.610671
C395	C	0.998214	-0.114653	1.143604
C396	C	1.498214	0.385347	1.643604
H397	H	1.021072	-0.201641	1.098695
H398	H	1.521072	0.298359	1.598695
H399	H	1.017633	-0.161779	1.044016
H400	H	1.517633	0.338221	1.544016
H401	H	0.934064	-0.168122	1.139626
H402	H	1.434064	0.331878	1.639626
H403	H	0.930616	-0.128251	1.084966
H404	H	1.430616	0.371749	1.584966
H405	H	1.022197	-0.094716	1.114647
H406	H	1.522197	0.405284	1.614647
H407	H	1.025634	-0.134582	1.169322
H408	H	1.525634	0.365418	1.669322
H409	H	0.974056	-0.091896	1.169182
H410	H	1.474056	0.408104	1.669182
C411	C	0.993773	-0.181885	0.535101
C412	C	1.493773	0.318115	1.035101
C413	C	1.029046	-0.152577	0.577987
C414	C	1.529046	0.347423	1.077987
C415	C	1.069363	-0.119072	0.545272
C416	C	1.569363	0.380928	1.045272
H417	H	1.021238	-0.201828	0.509471
H418	H	1.521238	0.298172	1.009471
H419	H	0.969726	-0.159086	0.509453
H420	H	1.469726	0.340914	1.009453
H421	H	1.053091	-0.175373	0.603624
H422	H	1.553091	0.324627	1.103624
H423	H	1.001598	-0.132623	0.603618
H424	H	1.501598	0.367377	1.103618
H425	H	1.045316	-0.096272	0.519624
H426	H	1.545316	0.403728	1.019624
H427	H	1.096823	-0.139019	0.519643
H428	H	1.596823	0.360981	1.019643
H429	H	1.093296	-0.099179	0.574364
H430	H	1.593296	0.400821	1.074364
H431	H	0.836622	-0.312329	0.663067
H432	H	1.336622	0.187671	1.163067
H433	H	0.836609	-0.312363	0.543796
H434	H	1.336609	0.187637	1.043796
H435	H	0.982824	-0.190902	0.944744
H436	H	1.482824	0.309098	1.444744
