data_functionalizedCrystal
_audit_creation_method	'MofGen! by Chris Wilmer'
_symmetry_space_group_name_H-M	'P1'
_symmetry_Int_Tables_number	1
_symmetry_cell_setting	triclinic
loop_
_symmetry_equiv_pos_as_xyz
  x,y,z
_cell_length_a	19.805407
_cell_length_b	14.908520
_cell_length_c	19.805399
_cell_angle_alpha	93.269050
_cell_angle_beta	89.983114
_cell_angle_gamma	93.320773
loop_
_atom_site_label
_atom_site_type_symbol
_atom_site_fract_x
_atom_site_fract_y
_atom_site_fract_z
Zn1	Zn	1.019185	-0.359168	-0.398269
Zn2	Zn	1.519185	0.140832	0.101731
Zn3	Zn	1.012581	-0.510037	-0.291612
Zn4	Zn	1.512581	-0.010037	0.208388
Zn5	Zn	0.906004	-0.359197	-0.285095
Zn6	Zn	1.406004	0.140803	0.214905
Zn7	Zn	0.899441	-0.509986	-0.404757
Zn8	Zn	1.399441	-0.009986	0.095243
O9	O	0.959303	-0.434597	-0.344933
O10	O	1.459303	0.065403	0.155067
O11	O	1.113026	-0.379191	-0.384133
O12	O	1.613026	0.120809	0.115867
O13	O	0.998426	-0.490062	-0.196032
O14	O	1.498426	0.009938	0.303968
O15	O	0.926528	-0.232948	-0.294665
O16	O	1.426528	0.267052	0.205335
O17	O	1.108173	-0.490034	-0.305773
O18	O	1.608173	0.009966	0.194227
O19	O	1.009682	-0.232927	-0.377813
O20	O	1.509682	0.267073	0.122187
O21	O	0.920124	-0.379240	-0.191244
O22	O	1.420124	0.120760	0.308756
O23	O	0.810417	-0.379190	-0.300956
O24	O	1.310417	0.120810	0.199044
O25	O	0.915343	-0.489946	-0.498611
O26	O	1.415343	0.010054	0.001389
O27	O	0.805596	-0.489974	-0.388871
O28	O	1.305596	0.010026	0.111129
O29	O	1.003319	-0.379141	-0.493845
O30	O	1.503319	0.120859	0.006155
O31	O	0.992063	-0.636275	-0.312064
O32	O	1.492063	-0.136275	0.187936
O33	O	0.908939	-0.636238	-0.395190
O34	O	1.408939	-0.136238	0.104810
C35	C	0.783448	-0.434580	-0.344910
C36	C	1.283448	0.065420	0.155090
C37	C	0.708215	-0.434594	-0.344918
C38	C	1.208215	0.065406	0.155082
C39	C	0.670374	-0.492366	-0.390629
C40	C	1.170374	0.007634	0.109371
C41	C	0.599686	-0.492368	-0.390638
C42	C	1.099686	0.007632	0.109362
C43	C	0.566839	-0.434601	-0.344933
C44	C	1.066839	0.065399	0.155067
C45	C	0.604685	-0.376823	-0.299220
C46	C	1.104685	0.123177	0.200780
C47	C	0.675373	-0.376817	-0.299214
C48	C	1.175373	0.123183	0.200786
C49	C	0.319611	-0.376843	-0.299243
C50	C	0.819611	0.123157	0.200757
C51	C	0.248919	-0.376854	-0.299251
C52	C	0.748919	0.123146	0.200749
C53	C	0.243924	-0.492393	-0.390667
C54	C	0.743924	0.007607	0.109333
C55	C	0.314612	-0.492388	-0.390662
C56	C	0.814612	0.007612	0.109338
C57	C	0.352452	-0.434606	-0.344951
C58	C	0.852452	0.065394	0.155049
C59	C	0.429100	-0.434604	-0.344942
C60	C	0.929100	0.065396	0.155058
C61	C	0.490192	-0.434607	-0.344938
C62	C	0.990192	0.065393	0.155062
C63	C	0.949091	-0.668990	-0.355053
C64	C	1.449091	-0.168990	0.144947
C65	C	0.944783	-0.769265	-0.359405
C66	C	1.444783	-0.269265	0.140595
C67	C	1.023335	-0.957670	-0.281093
C68	C	1.523335	-0.457670	0.218907
C69	C	1.019291	-1.051887	-0.285180
C70	C	1.519291	-0.551887	0.214820
C71	C	0.932654	-1.051917	-0.371669
C72	C	1.432654	-0.551917	0.128331
C73	C	0.936698	-0.957700	-0.367582
C74	C	1.436698	-0.457700	0.132418
C75	C	0.982040	-0.910580	-0.322292
C76	C	1.482040	-0.410580	0.177708
C77	C	0.986081	-0.816361	-0.318202
C78	C	1.486081	-0.316361	0.181798
C79	C	0.899447	-0.816394	-0.404694
C80	C	1.399447	-0.316394	0.095306
C81	C	0.895403	-0.910610	-0.408781
C82	C	1.395403	-0.410610	0.091219
C83	C	1.135845	-0.434615	-0.344956
C84	C	1.635845	0.065385	0.155044
C85	C	1.211077	-0.434623	-0.344966
C86	C	1.711077	0.065377	0.155034
C87	C	0.959335	-0.434534	-0.521473
C88	C	1.459335	0.065466	-0.021473
C89	C	0.959349	-0.434508	-0.596704
C90	C	1.459349	0.065492	-0.096704
C91	C	0.969574	-0.199288	-0.334788
C92	C	1.469574	0.300712	0.165212
C93	C	0.973951	-0.099014	-0.330465
C94	C	1.473951	0.400986	0.169535
C95	C	0.918590	-0.376797	-0.629554
C96	C	1.418590	0.123203	-0.129554
C97	C	0.918600	-0.376780	-0.700242
C98	C	1.418600	0.123220	-0.200242
C99	C	0.959374	-0.434469	-0.738078
C100	C	1.459374	0.065531	-0.238078
C101	C	1.000134	-0.492185	-0.705223
C102	C	1.500134	0.007815	-0.205223
C103	C	1.000120	-0.492207	-0.634537
C104	C	1.500120	0.007793	-0.134537
C105	C	1.000192	-0.492101	-0.990293
C106	C	1.500192	0.007899	-0.490293
C107	C	1.000204	-0.492073	-1.060984
C108	C	1.500204	0.007927	-0.560984
C109	C	0.918672	-0.376674	-1.055998
C110	C	1.418672	0.123326	-0.555998
C111	C	0.918658	-0.376695	-0.985312
C112	C	1.418658	0.123305	-0.485312
C113	C	0.959415	-0.434415	-0.952463
C114	C	1.459415	0.065585	-0.452463
C115	C	0.959403	-0.434435	-0.875816
C116	C	1.459403	0.065565	-0.375816
C117	C	0.959390	-0.434445	-0.814724
C118	C	1.459390	0.065555	-0.314724
C119	C	0.959313	-0.434594	-0.169077
C120	C	1.459313	0.065406	0.330923
C121	C	0.959441	-0.434367	-0.093835
C122	C	1.459441	0.065633	0.406165
H123	H	0.222177	-0.329808	-0.262032
H124	H	0.722177	0.170192	0.237968
H125	H	1.060250	-0.919304	-0.244211
H126	H	1.560250	-0.419304	0.255789
H127	H	1.033329	-0.539161	-0.736035
H128	H	1.533329	-0.039161	-0.236035
H129	H	1.033371	-0.539110	-0.963557
H130	H	1.533371	-0.039110	-0.463557
Br131	Br	1.047610	-0.752412	-0.256733
Br132	Br	1.547610	-0.252412	0.243267
H133	H	0.895743	-1.090299	-0.408546
H134	H	1.395743	-0.590299	0.091454
Br135	Br	0.192566	-0.570814	-0.452703
Br136	Br	0.692566	-0.070814	0.047297
H137	H	0.885483	-0.329678	-1.082752
H138	H	1.385483	0.170322	-0.582752
Br139	Br	1.055544	-0.570370	-1.112333
Br140	Br	1.555544	-0.070370	-0.612333
H141	H	1.033316	-0.539194	-0.607791
H142	H	1.533316	-0.039194	-0.107791
H143	H	0.341352	-0.539430	-0.427877
H144	H	0.841352	-0.039430	0.072123
H145	H	0.350412	-0.329800	-0.262018
H146	H	0.850412	0.170200	0.237982
H147	H	0.858489	-0.948989	-0.445656
H148	H	1.358489	-0.448989	0.054344
Br149	Br	0.843388	-0.752481	-0.460598
Br150	Br	1.343388	-0.252481	0.039402
H151	H	0.697113	-0.539409	-0.427845
H152	H	1.197113	-0.039409	0.072155
Br153	Br	0.548333	-0.570774	-0.452679
Br154	Br	1.048333	-0.070774	0.047321
H155	H	0.577936	-0.329784	-0.262009
H156	H	1.077936	0.170216	0.237991
H157	H	0.706182	-0.329768	-0.261995
H158	H	1.206182	0.170232	0.238005
Br159	Br	1.075340	-1.115793	-0.229268
Br160	Br	1.575340	-0.615793	0.270732
H161	H	0.885392	-0.329815	-0.598753
H162	H	1.385392	0.170185	-0.098753
Br163	Br	0.863325	-0.298395	-0.933966
Br164	Br	1.363325	0.201605	-0.433966
Br165	Br	0.863243	-0.298504	-0.744824
Br166	Br	1.363243	0.201496	-0.244824
