data_functionalizedCrystal
_audit_creation_method	'MofGen! by Chris Wilmer'
_symmetry_space_group_name_H-M	'P1'
_symmetry_Int_Tables_number	1
_symmetry_cell_setting	triclinic
loop_
_symmetry_equiv_pos_as_xyz
  x,y,z
_cell_length_a	15.297327
_cell_length_b	19.805407
_cell_length_c	19.805399
_cell_angle_alpha	89.975799
_cell_angle_beta	99.649417
_cell_angle_gamma	99.707138
loop_
_atom_site_label
_atom_site_type_symbol
_atom_site_fract_x
_atom_site_fract_y
_atom_site_fract_z
Zn1	Zn	-0.359207	0.988096	-0.429418
Zn2	Zn	-0.510075	0.968421	-0.335809
Zn3	Zn	-0.359229	0.874907	-0.316237
Zn4	Zn	-0.510025	0.855291	-0.448940
O5	O	-0.434634	0.921679	-0.382601
O6	O	-0.379231	1.080201	-0.417022
O7	O	-0.490096	0.955992	-0.238500
O8	O	-0.232979	0.906365	-0.314890
O9	O	-0.490074	1.065746	-0.348247
O10	O	-0.232962	0.989524	-0.398044
O11	O	-0.379270	0.887288	-0.224120
O12	O	-0.379222	0.777590	-0.333819
O13	O	-0.489988	0.872932	-0.541063
O14	O	-0.490011	0.763178	-0.431315
O15	O	-0.379182	0.970503	-0.526720
O16	O	-0.636316	0.936971	-0.367176
O17	O	-0.636280	0.853855	-0.450293
C18	C	-0.434614	0.745825	-0.382562
C19	C	-0.434627	0.670592	-0.382564
C20	C	-0.492431	0.201299	-0.433357
C21	C	-0.492429	0.271988	-0.433342
C22	C	-0.434656	0.314826	-0.382630
C23	C	-0.376887	0.286972	-0.331925
C24	C	-0.376894	0.216284	-0.331938
C25	C	-0.376860	0.572049	-0.331874
C26	C	-0.376855	0.642742	-0.331867
C27	C	-0.492395	0.627753	-0.433279
C28	C	-0.492401	0.557065	-0.433291
C29	C	-0.434636	0.529216	-0.382584
C30	C	-0.434640	0.452567	-0.382600
C31	C	-0.434647	0.391474	-0.382617
C32	C	-0.669033	0.891168	-0.412992
C33	C	-0.769309	0.878177	-0.426016
C34	C	-1.051924	1.014805	-0.289747
C35	C	-0.957709	1.027010	-0.277507
C36	C	-0.910604	0.989803	-0.314633
C37	C	-0.957724	0.940388	-0.364001
C38	C	-1.051948	0.928178	-0.376239
C39	C	-0.910629	0.903176	-0.401125
C40	C	-0.957749	0.853762	-0.450494
C41	C	-1.051963	0.841554	-0.462729
C42	C	-1.099068	0.878761	-0.425603
C43	C	-0.816405	0.915387	-0.388888
C44	C	-0.816429	0.828760	-0.475380
C45	C	-0.910644	0.816555	-0.487620
C46	C	-0.199320	0.952327	-0.352106
C47	C	-0.099044	0.965388	-0.339111
C48	C	-0.434577	0.921724	-0.559136
C49	C	-0.434553	0.921743	-0.634365
C50	C	-0.434655	1.098219	-0.382640
C51	C	-0.434664	1.173450	-0.382657
C52	C	-0.376854	0.972550	-0.662242
C53	C	-0.376827	0.972560	-0.732927
C54	C	-0.434506	0.921766	-0.775735
C55	C	-0.492208	0.870955	-0.747853
C56	C	-0.492229	0.870942	-0.677169
C57	C	-0.492124	0.871004	-1.032916
C58	C	-0.492101	0.871022	-1.103605
C59	C	-0.376722	0.972622	-1.088674
C60	C	-0.376743	0.972609	-1.017990
C61	C	-0.434442	0.921796	-0.990114
C62	C	-0.434468	0.921785	-0.913469
C63	C	-0.434485	0.921780	-0.852379
C64	C	-0.434626	0.921681	-0.206744
C65	C	-0.434396	0.921826	-0.131482
H66	H	-0.329827	0.549383	-0.290584
O67	O	-0.548545	0.654696	-0.482600
C68	C	-0.599549	0.601725	-0.527353
H69	H	-0.562601	0.556148	-0.524957
H70	H	-0.609261	0.620915	-0.581927
H71	H	-0.668027	0.585280	-0.511366
H72	H	-0.539471	0.166425	-0.474655
O73	O	-1.097876	0.793557	-0.510638
C74	C	-1.191136	0.790772	-0.513491
H75	H	-1.204024	0.811295	-0.462950
H76	H	-1.226996	0.735425	-0.522693
H77	H	-1.217799	0.823342	-0.557135
H78	H	-0.329851	0.321856	-0.290632
H79	H	-0.329888	1.013914	-0.627392
O80	O	-0.770738	0.963340	-0.340856
C81	C	-0.793818	0.945583	-0.276379
H82	H	-0.862254	0.910695	-0.283841
H83	H	-0.797018	0.994034	-0.246493
H84	H	-0.740845	0.917663	-0.246667
H85	H	-0.329852	0.193611	-0.290654
H86	H	-0.949022	0.776321	-0.527816
H87	H	-0.833890	0.999743	-0.304664
H88	H	-1.090285	1.045089	-0.259520
O89	O	-0.912079	1.075057	-0.229555
C90	C	-0.973855	1.105269	-0.199401
H91	H	-1.040992	1.098896	-0.235846
H92	H	-0.946582	1.162137	-0.188695
H93	H	-0.983943	1.079208	-0.149280
H94	H	-1.175786	0.868828	-0.435568
H95	H	-0.329845	1.013933	-0.755621
H96	H	-0.778077	0.798461	-0.505610
H97	H	-0.329779	1.013973	-0.983139
O98	O	-0.320693	1.021911	-1.115861
C99	C	-0.333050	1.011043	-1.187429
H100	H	-0.362585	0.954962	-1.200898
H101	H	-0.265463	1.024442	-1.205534
H102	H	-0.381091	1.044935	-1.213728
O103	O	-0.548157	0.821607	-1.145088
C104	C	-0.599103	0.776763	-1.105330
H105	H	-0.562167	0.779222	-1.050154
H106	H	-0.608706	0.722188	-1.126988
H107	H	-0.667630	0.792617	-1.106699
O108	O	-0.548220	0.821732	-1.005782
C109	C	-0.606532	0.852657	-0.972470
H110	H	-0.574727	0.908090	-0.957759
H111	H	-0.618641	0.823491	-0.924332
H112	H	-0.673377	0.851395	-1.008382
H113	H	-0.539168	0.829595	-0.782713
H114	H	-0.539443	0.522189	-0.474588
O115	O	-0.320709	0.684255	-0.282531
C116	C	-0.269711	0.644520	-0.237786
H117	H	-0.306661	0.589321	-0.240196
H118	H	-0.260004	0.666180	-0.183208
H119	H	-0.201231	0.645928	-0.253771
H120	H	-0.539205	0.829565	-0.654472
H121	H	-0.539470	0.294659	-0.474626
