data_functionalizedCrystal
_audit_creation_method	'MofGen! by Chris Wilmer'
_symmetry_space_group_name_H-M	'P1'
_symmetry_Int_Tables_number	1
_symmetry_cell_setting	triclinic
loop_
_symmetry_equiv_pos_as_xyz
  x,y,z
_cell_length_a	13.635800
_cell_length_b	17.982959
_cell_length_c	11.102300
_cell_angle_alpha	85.766362
_cell_angle_beta	108.605850
_cell_angle_gamma	77.548143
loop_
_atom_site_label
_atom_site_type_symbol
_atom_site_fract_x
_atom_site_fract_y
_atom_site_fract_z
V1	V	2.040200	-0.105412	0.396787
O2	O	2.036029	0.005066	0.388688
O3	O	2.013290	-0.209015	0.394599
O4	O	2.028830	-0.103791	0.569600
O5	O	2.020382	-0.100887	0.212475
V6	V	2.280702	-0.092198	0.374678
O7	O	2.173590	-0.134399	0.445285
O8	O	2.372410	-0.063211	0.326180
O9	O	2.196009	0.011405	0.376867
O10	O	2.343571	-0.202676	0.382777
O11	O	2.359218	-0.096723	0.558990
O12	O	2.180469	-0.093819	0.201865
V13	V	2.540200	-0.105412	0.396787
O14	O	2.536029	0.005066	0.388688
O15	O	2.513290	-0.209015	0.394599
O16	O	2.528830	-0.103791	0.569600
O17	O	2.520382	-0.100887	0.212475
V18	V	2.780702	-0.092198	0.374678
O19	O	2.673590	-0.134399	0.445285
O20	O	2.872410	-0.063211	0.326180
O21	O	2.696009	0.011405	0.376867
O22	O	2.843571	-0.202676	0.382777
O23	O	2.859218	-0.096723	0.558990
O24	O	2.680469	-0.093819	0.201865
C25	C	1.934716	-0.234271	0.388475
C26	C	1.953443	-0.318968	0.387837
C27	C	2.053672	-0.362639	0.393896
C28	C	2.071264	-0.442221	0.393305
C29	C	1.988624	-0.478129	0.386645
C30	C	1.888388	-0.434453	0.380589
C31	C	1.870799	-0.354873	0.381190
C32	C	1.959318	-0.755388	0.378168
C33	C	1.976914	-0.834974	0.377564
C34	C	2.159782	-0.842736	0.390284
C35	C	2.142194	-0.763157	0.390884
C36	C	2.041962	-0.719488	0.384835
C37	C	2.022888	-0.633196	0.385479
C38	C	2.007693	-0.564419	0.385992
C39	C	1.954538	-0.100046	0.611705
C40	C	1.985865	-0.099406	0.752984
C41	C	2.106253	0.036657	0.382987
C42	C	2.077146	0.121353	0.383633
C43	C	2.086431	-0.097567	0.159754
C44	C	2.044723	-0.098203	0.018474
C45	C	2.434716	-0.234271	0.388475
C46	C	2.453443	-0.318968	0.387837
C47	C	2.454538	-0.100046	0.611705
C48	C	2.485865	-0.099406	0.752984
C49	C	2.092027	-0.102910	0.825850
C50	C	2.121456	-0.102306	0.958596
C51	C	1.938552	-0.094696	0.945597
C52	C	1.909123	-0.095295	0.812852
C53	C	2.606253	0.036657	0.382987
C54	C	2.577146	0.121353	0.383633
C55	C	2.586431	-0.097567	0.159754
C56	C	2.544723	-0.098203	0.018474
C57	C	2.553681	-0.362627	0.393907
C58	C	2.571296	-0.442211	0.393328
C59	C	2.488669	-0.478133	0.386669
C60	C	2.388424	-0.434468	0.380602
C61	C	2.370813	-0.354887	0.381191
C62	C	2.649402	0.165012	0.377566
C63	C	2.622059	0.244595	0.378152
C64	C	2.522463	0.280517	0.384813
C65	C	2.450201	0.236853	0.390877
C66	C	2.477541	0.157272	0.390282
C67	C	2.592027	-0.102910	0.825850
C68	C	2.621456	-0.102306	0.958596
C69	C	2.438552	-0.094696	0.945597
C70	C	2.409123	-0.095295	0.812852
H71	H	2.120966	-0.333407	0.399307
H72	H	2.620971	-0.333390	0.399322
O73	O	2.700019	0.291678	0.371657
H74	H	2.773875	0.253321	0.366963
O75	O	1.799255	-0.473181	0.373423
H76	H	1.781588	-0.501112	0.285776
H77	H	2.321155	-0.463729	0.375181
H78	H	2.654517	-0.106257	0.777109
H79	H	1.789185	-0.319317	0.376261
O80	O	2.756818	0.126277	0.370356
H81	H	2.821351	0.135279	0.454468
O82	O	2.679418	-0.489294	0.399857
H83	H	2.670513	-0.517608	0.312831
H84	H	2.152879	-0.477775	0.398241
O85	O	2.735957	-0.106077	1.037184
H86	H	2.788956	-0.160188	1.028670
H87	H	2.322669	-0.092435	0.753520
H88	H	2.500214	0.345318	0.385296
O89	O	1.794607	-0.091502	0.734252
H90	H	1.787035	-0.092596	0.631886
H91	H	2.289185	-0.319345	0.376241
O92	O	2.342790	0.275598	0.398088
H93	H	2.335938	0.338267	0.397504
O94	O	2.399612	0.110182	0.396853
H95	H	2.325775	0.148535	0.401602
O96	O	2.355785	-0.090274	1.010171
H97	H	2.394084	-0.090457	1.114721
O98	O	2.507678	-0.563965	0.385984
H99	H	2.573100	-0.594763	0.475620
O100	O	2.231334	-0.724428	0.398103
H101	H	2.303993	-0.768168	0.402241
H102	H	2.241398	-0.878302	0.395211
H103	H	1.909614	-0.864208	0.372149
H104	H	1.877704	-0.719842	0.373235
O105	O	2.174787	-0.107328	0.761266
H106	H	2.253549	-0.109653	0.834239
H107	H	2.207900	-0.105159	1.017918
H108	H	1.876076	-0.091351	0.994359
