data_functionalizedCrystal
_audit_creation_method	'MofGen! by Chris Wilmer'
_symmetry_space_group_name_H-M	'P1'
_symmetry_Int_Tables_number	1
_symmetry_cell_setting	triclinic
loop_
_symmetry_equiv_pos_as_xyz
  x,y,z
_cell_length_a	16.992694
_cell_length_b	16.956984
_cell_length_c	15.455313
_cell_angle_alpha	87.526226
_cell_angle_beta	92.865953
_cell_angle_gamma	83.360821
loop_
_atom_site_label
_atom_site_type_symbol
_atom_site_fract_x
_atom_site_fract_y
_atom_site_fract_z
O1	O	-1.025828	-0.171636	0.072025
O2	O	-0.525828	0.328364	0.572025
O3	O	-0.797661	-0.169790	0.072050
O4	O	-0.297661	0.330210	0.572050
O5	O	-0.925452	-0.055507	0.072030
O6	O	-0.425452	0.444493	0.572030
O7	O	-0.898036	-0.285919	0.072045
O8	O	-0.398036	0.214081	0.572045
O9	O	-0.932751	-0.048993	-0.072233
O10	O	-0.432751	0.451007	0.427767
O11	O	-0.804960	-0.163275	-0.072213
O12	O	-0.304960	0.336725	0.427787
O13	O	-1.033126	-0.165122	-0.072238
O14	O	-0.533126	0.334878	0.427762
Cu15	Cu	-0.919709	-0.163604	-0.085398
Cu16	Cu	-0.419709	0.336396	0.414602
Cu17	Cu	-0.911078	-0.171308	0.085210
Cu18	Cu	-0.411078	0.328692	0.585210
O19	O	-0.905335	-0.279404	-0.072218
O20	O	-0.405335	0.220596	0.427782
C21	C	-0.772251	-0.164156	-0.000078
C22	C	-0.272251	0.335844	0.499922
C23	C	-0.685666	-0.157066	-0.000068
C24	C	-0.185666	0.342934	0.499932
C25	C	-0.930506	-0.022632	-0.000101
C26	C	-0.430506	0.477368	0.499899
C27	C	-0.934679	0.065623	-0.000101
C28	C	-0.434679	0.565623	0.499899
C29	C	-1.058536	-0.170755	-0.000108
C30	C	-0.558536	0.329245	0.499892
C31	C	-1.145120	-0.177846	-0.000112
C32	C	-0.645120	0.322154	0.499888
C33	C	-0.900281	-0.312280	-0.000085
C34	C	-0.400281	0.187720	0.499915
C35	C	-0.896107	-0.400535	-0.000079
C36	C	-0.396107	0.099465	0.499921
C37	C	-0.630991	-0.225481	-0.000065
C38	C	-0.130991	0.274519	0.499935
C39	C	-0.549637	-0.218814	-0.000077
C40	C	-0.049637	0.281186	0.499923
C41	C	-0.522960	-0.143730	-0.000087
C42	C	-0.022960	0.356270	0.499913
C43	C	-0.577642	-0.075310	-0.000094
C44	C	-0.077642	0.424690	0.499906
C45	C	-0.658995	-0.081978	-0.000087
C46	C	-0.158995	0.418022	0.499913
C47	C	-0.281155	-0.116094	-0.000112
C48	C	0.218845	0.383906	0.499888
C49	C	-0.199796	-0.109431	-0.000116
C50	C	0.300204	0.390569	0.499884
C51	C	-0.171796	-0.252935	-0.000101
C52	C	0.328204	0.247065	0.499899
C53	C	-0.253151	-0.259597	-0.000089
C54	C	0.246849	0.240403	0.499911
C55	C	-0.307827	-0.191176	-0.000100
C56	C	0.192173	0.308824	0.499900
N57	N	-0.439804	-0.136913	-0.000097
N58	N	0.060196	0.363087	0.499903
N59	N	-0.390982	-0.197994	-0.000097
N60	N	0.109018	0.302006	0.499903
C61	C	-0.864893	0.102154	-0.000089
C62	C	-0.364893	0.602154	0.499911
C63	C	-0.868820	0.185079	-0.000092
C64	C	-0.368820	0.685079	0.499908
C65	C	-0.942533	0.231472	-0.000100
C66	C	-0.442533	0.731472	0.499900
C67	C	-1.012324	0.194936	-0.000115
C68	C	-0.512324	0.694936	0.499885
C69	C	-1.008397	0.112012	-0.000118
C70	C	-0.508397	0.612012	0.499882
C71	C	-0.961972	0.480005	-0.000097
C72	C	-0.461972	0.980005	0.499903
C73	C	-0.965893	0.562934	-0.000091
C74	C	-0.465893	1.062934	0.499909
C75	C	-0.822388	0.553072	-0.000070
C76	C	-0.322388	1.053072	0.499930
C77	C	-0.818468	0.470147	-0.000068
C78	C	-0.318468	0.970147	0.499932
C79	C	-0.888259	0.433618	-0.000087
C80	C	-0.388259	0.933618	0.499913
N81	N	-0.946548	0.316234	-0.000100
N82	N	-0.446548	0.816234	0.499900
N83	N	-0.884244	0.348857	-0.000093
N84	N	-0.384244	0.848857	0.499907
N85	N	-0.905008	-0.176721	0.205207
N86	N	-0.405008	0.323279	0.705207
N87	N	-0.925786	-0.158185	-0.205394
N88	N	-0.425786	0.341815	0.294606
C89	C	-0.959389	-0.128276	0.250592
C90	C	-0.459389	0.371724	0.750592
C91	C	-0.954796	-0.132368	0.341401
C92	C	-0.454796	0.367632	0.841401
C93	C	-0.895819	-0.184901	0.386822
C94	C	-0.395819	0.315099	0.886822
C95	C	-0.841436	-0.233352	0.341430
C96	C	-0.341436	0.266648	0.841430
C97	C	-0.846032	-0.229263	0.250623
C98	C	-0.346032	0.270737	0.750623
C99	C	-0.875999	-0.202547	0.658407
C100	C	-0.375999	0.297453	1.158407
C101	C	-0.871405	-0.206630	0.749220
C102	C	-0.371405	0.293370	1.249220
C103	C	-0.984767	-0.105646	0.749184
C104	C	-0.484767	0.394354	1.249184
C105	C	-0.989355	-0.101559	0.658375
C106	C	-0.489355	0.398441	1.158375
C107	C	-0.934974	-0.150013	0.612992
C108	C	-0.434974	0.349987	1.112992
N109	N	-0.891123	-0.189084	0.479643
N110	N	-0.391123	0.310916	0.979643
N111	N	-0.939675	-0.145834	0.520172
N112	N	-0.439675	0.354166	1.020172
H113	H	-0.652704	-0.286622	-0.000056
H114	H	-0.152704	0.213378	0.499944
H115	H	-0.758443	0.432379	-0.000059
H116	H	-0.258443	0.932379	0.499941
H117	H	-0.505123	-0.274525	-0.000073
H118	H	-0.005123	0.225475	0.499927
H119	H	-0.178080	-0.048286	-0.000123
H120	H	0.321920	0.451714	0.499877
H121	H	-0.555916	-0.014175	-0.000114
H122	H	-0.055916	0.485825	0.499886
O123	O	-0.814187	-0.257779	0.793308
O124	O	-0.314187	0.242221	1.293308
C125	C	-0.822743	-0.336241	0.771131
C126	C	-0.322743	0.163759	1.271131
H127	H	-0.886471	-0.339644	0.746161
H128	H	-0.386471	0.160356	1.246161
H129	H	-0.808088	-0.378187	0.830865
H130	H	-0.308088	0.121813	1.330865
H131	H	-0.780587	-0.354340	0.718435
H132	H	-0.280587	0.145660	1.218435
O133	O	-0.823148	-0.249493	0.614236
O134	O	-0.323148	0.250507	1.114236
C135	C	-0.780475	-0.201407	0.561719
C136	C	-0.280475	0.298593	1.061719
H137	H	-0.816401	-0.140709	0.548089
H138	H	-0.316401	0.359291	1.048089
H139	H	-0.769139	-0.230871	0.497877
H140	H	-0.269139	0.269129	0.997877
H141	H	-0.721381	-0.193759	0.596723
H142	H	-0.221381	0.306241	1.096723
H143	H	-0.804868	0.064386	-0.000079
H144	H	-0.304868	0.564386	0.499921
H145	H	-1.025922	0.600705	-0.000092
H146	H	-0.525922	1.100705	0.499908
O147	O	-1.046552	-0.050443	0.614223
O148	O	-0.546552	0.449557	1.114223
C149	C	-1.010687	0.003681	0.561671
C150	C	-0.510687	0.503681	1.061671
H151	H	-0.947834	0.007870	0.589034
H152	H	-0.447834	0.507870	1.089034
H153	H	-1.046800	0.064743	0.560631
H154	H	-0.546800	0.564743	1.060631
H155	H	-1.008425	-0.017802	0.492854
H156	H	-0.508425	0.482198	0.992854
H157	H	-0.801750	-0.268714	0.213671
H158	H	-0.301750	0.231286	0.713671
H159	H	-0.703512	-0.026267	-0.000090
H160	H	-0.203512	0.473733	0.499910
H161	H	-1.018801	0.450274	-0.000110
H162	H	-0.518801	0.950274	0.499890
H163	H	-1.072343	0.232715	-0.000127
H164	H	-0.572343	0.732715	0.499873
O165	O	-1.076201	0.076552	0.000029
O166	O	-0.576201	0.576552	0.500029
C167	C	-1.117040	0.096447	0.074730
C168	C	-0.617040	0.596447	0.574730
H169	H	-1.073496	0.113998	0.126957
H170	H	-0.573496	0.613998	0.626957
H171	H	-1.145733	0.043013	0.099802
H172	H	-0.645733	0.543013	0.599802
H173	H	-1.164914	0.148416	0.057835
H174	H	-0.664914	0.648416	0.557835
O175	O	-0.800998	0.220518	0.000075
O176	O	-0.300998	0.720518	0.500075
C177	C	-0.752605	0.193861	0.074788
C178	C	-0.252605	0.693861	0.574788
H179	H	-0.790870	0.171593	0.127002
H180	H	-0.290870	0.671593	0.627002
H181	H	-0.721368	0.245023	0.099872
H182	H	-0.221368	0.745023	0.599872
H183	H	-0.706444	0.143414	0.057904
H184	H	-0.206444	0.643414	0.557904
O185	O	-0.278931	-0.332592	-0.000123
O186	O	0.221069	0.167408	0.499877
C187	C	-0.213226	-0.391550	-0.000101
C188	C	0.286774	0.108450	0.499899
H189	H	-0.160724	-0.364531	-0.027419
H190	H	0.339276	0.135469	0.472581
H191	H	-0.229065	-0.441767	-0.041979
H192	H	0.270935	0.058233	0.458021
H193	H	-0.196757	-0.416028	0.069110
H194	H	0.303243	0.083972	0.569110
O195	O	-1.016709	-0.077348	0.206380
O196	O	-0.516709	0.422652	0.706380
C197	C	-1.064697	-0.120706	0.153876
C198	C	-0.564697	0.379294	0.653876
H199	H	-1.030151	-0.180181	0.140282
H200	H	-0.530151	0.319819	0.640282
H201	H	-1.082492	-0.085495	0.090015
H202	H	-0.582492	0.414505	0.590015
H203	H	-1.120251	-0.131501	0.188872
H204	H	-0.620251	0.368499	0.688872
H205	H	-0.999078	-0.092921	0.378353
H206	H	-0.499078	0.407079	0.878353
O207	O	-1.037527	-0.058464	0.793224
O208	O	-0.537527	0.441536	1.293224
C209	C	-1.031218	0.021992	0.770990
C210	C	-0.531218	0.521992	1.270990
H211	H	-0.970012	0.027639	0.746038
H212	H	-0.470012	0.527639	1.246038
H213	H	-1.039841	0.058577	0.830691
H214	H	-0.539841	0.558577	1.330691
H215	H	-1.078700	0.044820	0.718264
H216	H	-0.578700	0.544820	1.218264
O217	O	-0.118581	-0.319312	-0.000136
O218	O	0.381419	0.180688	0.499864
C219	C	-0.041055	-0.297332	-0.000121
C220	C	0.458945	0.202668	0.499879
H221	H	-0.043360	-0.233524	-0.027437
H222	H	0.456640	0.266476	0.472563
H223	H	-0.003321	-0.338730	-0.042005
H224	H	0.496679	0.161270	0.457995
H225	H	-0.013792	-0.301968	0.069087
H226	H	0.486208	0.198032	0.569087
O227	O	-0.334150	-0.049554	-0.000081
O228	O	0.165850	0.450446	0.499919
C229	C	-0.293157	0.018144	-0.000110
C230	C	0.206843	0.518144	0.499890
H231	H	-0.229677	0.000626	0.027204
H232	H	0.270323	0.500626	0.527204
H233	H	-0.324329	0.064512	0.041767
H234	H	0.175671	0.564512	0.541767
H235	H	-0.292316	0.044037	-0.069323
H236	H	0.207684	0.544037	0.430677
O237	O	-0.754676	0.588686	-0.000097
O238	O	-0.254676	1.088686	0.499903
C239	C	-0.773943	0.671823	-0.000074
C240	C	-0.273943	1.171823	0.499926
H241	H	-0.837525	0.688622	-0.027391
H242	H	-0.337525	1.188622	0.472609
H243	H	-0.731731	0.702084	-0.041953
H244	H	-0.231731	1.202084	0.458047
H245	H	-0.768152	0.691991	0.069137
H246	H	-0.268152	1.191991	0.569137
H247	H	-0.793418	-0.276130	0.378418
H248	H	-0.293418	0.223870	0.878418
