data_functionalizedCrystal
_audit_creation_method	'MofGen! by Chris Wilmer'
_symmetry_space_group_name_H-M	'P1'
_symmetry_Int_Tables_number	1
_symmetry_cell_setting	triclinic
loop_
_symmetry_equiv_pos_as_xyz
  x,y,z
_cell_length_a	19.288859
_cell_length_b	19.288857
_cell_length_c	18.366186
_cell_angle_alpha	89.991598
_cell_angle_beta	89.990083
_cell_angle_gamma	83.133417
loop_
_atom_site_label
_atom_site_type_symbol
_atom_site_fract_x
_atom_site_fract_y
_atom_site_fract_z
O1	O	0.921353	0.086629	-0.060567
O2	O	0.719091	0.098322	-0.060566
O3	O	0.826069	-0.008656	-0.060558
O4	O	0.814375	0.193606	-0.060575
O5	O	0.826051	-0.008661	0.060541
O6	O	0.719073	0.098317	0.060533
O7	O	0.921335	0.086623	0.060532
Zn8	Zn	0.820201	0.092469	0.079760
Zn9	Zn	0.820225	0.092476	-0.079794
O10	O	0.814357	0.193601	0.060524
C11	C	0.693206	0.097944	-0.000016
C12	C	0.616102	0.096816	-0.000015
C13	C	0.052060	0.151960	-0.000021
C14	C	0.124506	0.153025	-0.000025
C15	C	0.169215	0.090256	-0.000018
C16	C	0.141472	0.026416	-0.000026
C17	C	0.069026	0.025353	-0.000030
C18	C	0.290480	0.043441	0.042415
C19	C	0.362924	0.044507	0.042423
C20	C	0.392661	0.093533	-0.000011
C21	C	0.349943	0.141505	-0.042444
C22	C	0.277498	0.140442	-0.042447
C23	C	0.247771	0.091402	-0.000015
C24	C	0.498950	0.158524	-0.000013
C25	C	0.571399	0.159587	-0.000021
C26	C	0.588363	0.032976	-0.000015
C27	C	0.515916	0.031915	-0.000014
C28	C	0.471214	0.094691	-0.000009
C29	C	0.825685	-0.034535	-0.000008
C30	C	0.824558	-0.111639	-0.000006
C31	C	0.824042	-0.147846	-0.066017
C32	C	0.822973	-0.220292	-0.066022
C33	C	0.822435	-0.256530	-0.000013
C34	C	0.822947	-0.220313	0.066007
C35	C	0.824009	-0.147867	0.066011
C36	C	0.861429	-0.376764	0.050555
C37	C	0.860371	-0.449209	0.050548
C38	C	0.819157	-0.479975	-0.000021
C39	C	0.779009	-0.438289	-0.050596
C40	C	0.780071	-0.365844	-0.050592
C41	C	0.821283	-0.335085	-0.000009
C42	C	0.817481	-0.594737	-0.066043
C43	C	0.816408	-0.667184	-0.066045
C44	C	0.816389	-0.667204	0.065986
C45	C	0.817455	-0.594758	0.065987
C46	C	0.818004	-0.558529	-0.000029
C47	C	0.947220	0.087001	-0.000020
C48	C	1.024324	0.088129	-0.000025
C49	C	0.814741	0.219480	-0.000028
C50	C	0.815868	0.296584	-0.000035
N51	N	0.820190	0.092464	0.188651
N52	N	0.820242	0.092476	-0.188685
C53	C	0.867575	0.045118	0.226755
C54	C	0.867580	0.045114	0.302983
C55	C	0.820205	0.092470	0.341104
C56	C	0.772811	0.139820	0.302990
C57	C	0.772804	0.139817	0.226764
C58	C	0.810905	0.155758	0.461859
C59	C	0.810918	0.155762	0.538083
C60	C	0.820225	0.092478	0.576211
C61	C	0.829535	0.029188	0.538104
C62	C	0.829527	0.029186	0.461878
C63	C	0.820208	0.092478	0.423758
C64	C	0.867618	0.045125	0.696970
C65	C	0.867617	0.045121	0.773199
C66	C	0.772852	0.139832	0.773206
C67	C	0.772849	0.139830	0.696978
C68	C	0.820236	0.092477	0.658865
H69	H	0.266276	0.003514	0.076971
H70	H	0.894990	-0.351721	0.091740
O71	O	0.815836	-0.702285	0.130174
C72	C	0.816542	-0.654790	0.188441
H73	H	0.795318	-0.600199	0.169090
H74	H	0.872364	-0.654554	0.208739
C75	C	0.796643	-0.744020	0.274575
C76	C	0.770570	-0.676971	0.250809
H77	H	0.768288	-0.757703	0.313048
H78	H	0.796170	-0.776019	0.235320
H79	H	0.843161	-0.743815	0.291485
H80	H	0.724056	-0.677179	0.233891
H81	H	0.771034	-0.644972	0.290063
O82	O	0.822329	-0.255573	0.130084
C83	C	0.761563	-0.289408	0.134037
H84	H	0.741365	-0.297567	0.076721
H85	H	0.719850	-0.255850	0.166612
C86	C	0.803625	-0.350655	0.242176
C87	C	0.778820	-0.360681	0.171778
H88	H	0.814268	-0.394618	0.265459
H89	H	0.844563	-0.327858	0.239514
H90	H	0.768860	-0.322688	0.269312
H91	H	0.813588	-0.388640	0.144641
H92	H	0.737888	-0.383485	0.174436
H93	H	0.147093	0.205006	-0.000015
O94	O	0.817842	-0.559536	0.130093
C95	C	0.758323	-0.509561	0.134041
H96	H	0.715970	-0.525752	0.096581
H97	H	0.772729	-0.456474	0.116310
C98	C	0.783078	-0.484921	0.258920
C99	C	0.731057	-0.504811	0.212914
H100	H	0.766260	-0.481989	0.307573
H101	H	0.823179	-0.518589	0.256260
H102	H	0.795078	-0.440685	0.244135
H103	H	0.719064	-0.549051	0.227694
H104	H	0.690953	-0.471151	0.215579
O105	O	0.899477	-0.489630	0.099647
C106	C	0.970563	-0.481415	0.090088
H107	H	0.975120	-0.429319	0.062266
H108	H	0.996602	-0.525749	0.054852
C109	C	1.001289	-0.546914	0.198999
C110	C	1.006885	-0.482925	0.164833
H111	H	1.023695	-0.547848	0.245105
H112	H	0.953397	-0.552451	0.205439
H113	H	1.022987	-0.583852	0.169628
H114	H	0.985180	-0.445990	0.194200
H115	H	1.054775	-0.477382	0.158401
H116	H	0.734237	0.178376	0.334032
O117	O	0.818147	-0.559535	-0.130153
C118	C	0.878907	-0.525688	-0.134086
H119	H	0.920603	-0.553159	-0.096610
H120	H	0.866120	-0.468959	-0.116364
C121	C	0.855014	-0.494501	-0.258975
C122	C	0.906228	-0.528245	-0.212951
H123	H	0.871866	-0.496074	-0.307623
H124	H	0.814077	-0.517301	-0.256325
H125	H	0.844362	-0.447229	-0.244198
H126	H	0.916873	-0.575517	-0.227723
H127	H	0.947168	-0.505452	-0.215605
O128	O	0.824541	-0.112803	0.130203
C129	C	0.823814	-0.160315	0.188466
H130	H	0.845044	-0.214900	0.169114
H131	H	0.767984	-0.160556	0.208760
C132	C	0.843681	-0.071109	0.274607
C133	C	0.869763	-0.138151	0.250840
H134	H	0.872022	-0.057437	0.313083
H135	H	0.844169	-0.039099	0.235354
H136	H	0.797157	-0.071319	0.291513
H137	H	0.916283	-0.137939	0.233925
H138	H	0.869284	-0.170161	0.290091
H139	H	0.242721	0.179501	-0.076998
H140	H	0.374153	0.181429	-0.076995
H141	H	0.593978	0.211568	-0.000024
H142	H	0.747379	-0.331906	-0.091771
O143	O	0.913410	-0.001098	0.189764
C144	C	0.876173	-0.043850	0.145866
H145	H	0.821826	-0.015877	0.134349
H146	H	0.871397	-0.095026	0.175450
C147	C	0.982112	-0.093561	0.087655
C148	C	0.915365	-0.059202	0.073504
H149	H	1.006288	-0.103034	0.043020
H150	H	1.007200	-0.064761	0.117231
H151	H	0.978123	-0.136204	0.112310
H152	H	0.919355	-0.016557	0.048858
H153	H	0.890278	-0.087996	0.043922
O154	O	0.913676	-0.000909	0.339895
C155	C	0.955482	-0.042720	0.289909
H156	H	0.956175	-0.014247	0.235566
H157	H	0.933093	-0.094262	0.281818
C158	C	1.029604	-0.092201	0.386391
C159	C	1.030460	-0.057227	0.319648
H160	H	1.075853	-0.101152	0.404736
H161	H	1.001437	-0.064034	0.420068
H162	H	1.010944	-0.135148	0.379640
H163	H	1.049111	-0.014277	0.326401
H164	H	1.058631	-0.085386	0.285972
H165	H	0.815984	-0.696663	-0.119802
O166	O	0.726736	0.185765	0.810194
C167	C	0.658016	0.174660	0.791573
H168	H	0.657854	0.119048	0.770630
H169	H	0.637490	0.213211	0.747324
C170	C	0.611097	0.253881	0.885020
C171	C	0.610897	0.185575	0.859302
H172	H	0.582030	0.260616	0.926797
H173	H	0.657394	0.261365	0.897563
H174	H	0.593993	0.285999	0.848139
H175	H	0.628009	0.153458	0.896179
H176	H	0.564601	0.178085	0.846767
O177	O	0.838541	-0.032352	0.424974
C178	C	0.846776	-0.088211	0.474964
H179	H	0.822308	-0.070268	0.529307
H180	H	0.904751	-0.106130	0.483053
C181	C	0.840563	-0.171297	0.378489
C182	C	0.810505	-0.149261	0.445233
H183	H	0.818192	-0.208957	0.360149
H184	H	0.835017	-0.133664	0.344809
H185	H	0.888874	-0.186225	0.385240
H186	H	0.762197	-0.134325	0.438480
H187	H	0.816042	-0.186892	0.478911
H188	H	0.837113	-0.022343	0.569146
H189	H	0.906202	0.006562	0.804224
H190	H	0.462552	0.209640	-0.000010
O191	O	0.726708	0.185720	0.189713
C192	C	0.683988	0.148632	0.145621
H193	H	0.682989	0.093857	0.168602
H194	H	0.705737	0.144934	0.087847
C195	C	0.610520	0.254383	0.116231
C196	C	0.609288	0.187109	0.144461
H197	H	0.564442	0.278118	0.115512
H198	H	0.639302	0.279371	0.145934
H199	H	0.628647	0.251292	0.068089
H200	H	0.591169	0.190201	0.192605
H201	H	0.580501	0.162122	0.114765
O202	O	0.042048	-0.036639	-0.000159
C203	C	0.000645	-0.041027	-0.062868
H204	H	0.017670	-0.004780	-0.106705
H205	H	-0.056541	-0.024827	-0.048687
C206	C	-0.011241	-0.161190	-0.037463
C207	C	0.009674	-0.116674	-0.091307
H208	H	-0.005675	-0.207853	-0.055005
H209	H	0.016651	-0.158233	0.004787
H210	H	-0.058895	-0.147681	-0.025651
H211	H	0.057328	-0.130178	-0.103112
H212	H	-0.018210	-0.119635	-0.133560
H213	H	0.015667	0.203077	-0.000021
H214	H	0.803314	0.207294	0.430821
H215	H	0.734267	0.178387	0.665951
O216	O	0.824618	-0.112593	-0.130102
C217	C	0.885326	-0.078670	-0.134092
H218	H	0.927109	-0.106146	-0.096717
H219	H	0.872507	-0.021970	-0.116281
C220	C	0.861200	-0.047344	-0.258905
C221	C	0.912520	-0.081094	-0.213004
H222	H	0.877973	-0.048836	-0.307581
H223	H	0.820298	-0.070196	-0.256216
H224	H	0.850522	-0.000097	-0.244053
H225	H	0.923191	-0.128342	-0.227850
H226	H	0.953424	-0.058250	-0.215696
H227	H	0.906201	0.006565	0.665937
O228	O	0.631883	-0.027936	0.000021
C229	C	0.701773	-0.013311	0.000001
H230	H	0.704375	0.041235	0.022929
H231	H	0.722742	-0.016002	-0.058097
C232	C	0.743083	-0.134377	0.019331
C233	C	0.746280	-0.067385	0.047497
H234	H	0.770538	-0.167734	0.048625
H235	H	0.695997	-0.144231	0.019341
H236	H	0.760556	-0.136610	-0.029083
H237	H	0.728800	-0.065151	0.095906
H238	H	0.793365	-0.057533	0.047495
O239	O	0.801750	0.217254	0.575061
C240	C	0.736593	0.254087	0.556430
H241	H	0.700457	0.215886	0.535499
H242	H	0.744231	0.293920	0.512170
C243	C	0.748299	0.339034	0.649852
C244	C	0.703914	0.292114	0.624149
H245	H	0.728141	0.362494	0.691622
H246	H	0.792197	0.314222	0.662402
H247	H	0.754660	0.372222	0.612961
H248	H	0.697560	0.258922	0.661036
H249	H	0.660013	0.316922	0.611607
O250	O	0.489085	-0.030153	0.000024
C251	C	0.544078	-0.085328	0.000011
H252	H	0.593229	-0.066014	0.022938
H253	H	0.554401	-0.104676	-0.058085
C254	C	0.463441	-0.169275	0.019346
C255	C	0.523808	-0.145555	0.047511
H256	H	0.450938	-0.206428	0.048643
H257	H	0.426391	-0.132103	0.019352
H258	H	0.472052	-0.185394	-0.029067
H259	H	0.515194	-0.129429	0.095919
H260	H	0.560857	-0.182726	0.047514
O261	O	0.738948	-0.468055	-0.099788
C262	C	0.703725	-0.415726	-0.144407
H263	H	0.733259	-0.367944	-0.144324
H264	H	0.648649	-0.400623	-0.122606
C265	C	0.663479	-0.502201	-0.222811
C266	C	0.699757	-0.443516	-0.222714
H267	H	0.661027	-0.519344	-0.271114
H268	H	0.687207	-0.537457	-0.192749
H269	H	0.617585	-0.489607	-0.204640
H270	H	0.745651	-0.456113	-0.240876
H271	H	0.676036	-0.408264	-0.252781
O272	O	0.404317	-0.002158	0.083659
C273	C	0.362538	-0.045653	0.121117
H274	H	0.310892	-0.046324	0.091110
H275	H	0.352018	-0.024875	0.178670
C276	C	0.464307	-0.119502	0.161682
C277	C	0.400877	-0.120331	0.124823
H278	H	0.487957	-0.165566	0.163971
H279	H	0.492455	-0.090198	0.136448
H280	H	0.455532	-0.102184	0.209639
H281	H	0.409654	-0.137640	0.076864
H282	H	0.372731	-0.149640	0.150049
O283	O	0.822363	-0.255394	-0.130189
C284	C	0.762470	-0.229640	-0.170330
H285	H	0.743201	-0.174349	-0.151571
H286	H	0.719751	-0.264761	-0.161155
C287	C	0.804448	-0.296664	-0.274954
C288	C	0.780784	-0.228752	-0.251917
H289	H	0.815743	-0.296119	-0.325281
H290	H	0.844798	-0.314017	-0.247909
H291	H	0.768845	-0.325924	-0.267301
H292	H	0.816390	-0.199495	-0.259561
H293	H	0.740440	-0.211393	-0.278965
O294	O	0.184969	-0.034512	-0.000116
C295	C	0.227384	-0.037686	-0.062840
H296	H	0.230876	0.017438	-0.083749
H297	H	0.203661	-0.069330	-0.106759
C298	C	0.296757	-0.140572	-0.018100
C299	C	0.301050	-0.072868	-0.043778
H300	H	0.342197	-0.162277	-0.006344
H301	H	0.268180	-0.138436	0.024157
H302	H	0.276985	-0.166934	-0.054704
H303	H	0.320814	-0.046505	-0.007171
H304	H	0.329633	-0.075000	-0.086029
