data_functionalizedCrystal
_audit_creation_method	'MofGen! by Chris Wilmer'
_symmetry_space_group_name_H-M	'P1'
_symmetry_Int_Tables_number	1
_symmetry_cell_setting	triclinic
loop_
_symmetry_equiv_pos_as_xyz
  x,y,z
_cell_length_a	10.489716
_cell_length_b	17.038272
_cell_length_c	9.565339
_cell_angle_alpha	89.999972
_cell_angle_beta	89.996780
_cell_angle_gamma	87.820346
loop_
_atom_site_label
_atom_site_type_symbol
_atom_site_fract_x
_atom_site_fract_y
_atom_site_fract_z
O1	O	1.704386	0.110278	-0.116250
O2	O	1.334157	0.120658	-0.116256
O3	O	1.517071	0.001640	-0.116242
O4	O	1.521472	0.229296	-0.116264
O5	O	1.517056	0.001647	0.116278
O6	O	1.334142	0.120665	0.116264
O7	O	1.704371	0.110285	0.116270
Zn8	Zn	1.519254	0.115476	0.153185
Zn9	Zn	1.519274	0.115467	-0.153171
O10	O	1.521457	0.229303	0.116256
C11	C	1.286545	0.119882	0.000004
C12	C	1.144695	0.117548	0.000002
C13	C	1.053848	0.190534	-0.000009
C14	C	0.972888	0.151971	0.114646
C15	C	0.972907	0.151946	-0.114601
C16	C	1.065603	0.079016	0.114751
C17	C	1.065629	0.079002	-0.114599
C18	C	0.984712	0.040385	0.000084
C19	C	1.513061	-0.027508	0.000018
C20	C	1.501119	-0.114369	0.000017
C21	C	1.610758	-0.163854	0.000020
C22	C	1.599530	-0.245469	0.000007
C23	C	1.478662	-0.277597	0.000000
C24	C	1.369015	-0.228106	-0.000007
C25	C	1.380244	-0.146492	-0.000004
C26	C	1.438991	-0.523583	-0.000019
C27	C	1.427770	-0.605203	-0.000019
C28	C	1.658286	-0.622560	-0.000008
C29	C	1.669505	-0.540945	0.000004
C30	C	1.559858	-0.491460	-0.000010
C31	C	1.467182	-0.361021	-0.000009
C32	C	1.571339	-0.408038	-0.000011
C33	C	1.751984	0.111061	0.000007
C34	C	1.893833	0.113395	-0.000000
C35	C	1.525467	0.258451	-0.000007
C36	C	1.537409	0.345312	-0.000016
N37	N	1.519251	0.115483	0.362264
N38	N	1.519287	0.115454	-0.362250
C39	C	1.434630	0.170506	0.453461
C40	C	1.551608	0.186329	0.546640
C41	C	1.402323	0.099666	0.546640
C42	C	1.636291	0.131342	0.453391
C43	C	1.486927	0.044647	0.453384
C44	C	1.603985	0.060440	0.546520
H45	H	1.106251	0.048212	-0.211528
C46	C	1.451468	-0.035487	0.251653
C47	C	1.449944	-0.036178	0.398024
H48	H	1.428632	-0.085386	0.217477
H49	H	1.392193	0.003712	0.218417
H50	H	1.534622	-0.024329	0.219799
H51	H	1.366787	-0.047331	0.429878
H52	H	1.509221	-0.075389	0.431273
C53	C	1.228576	0.277564	-0.001114
C54	C	1.095194	0.276232	0.000124
H55	H	1.254100	0.330469	-0.001036
H56	H	1.261678	0.251399	0.079500
H57	H	1.260406	0.251736	-0.082664
H58	H	1.063365	0.302055	0.081679
H59	H	1.062079	0.302408	-0.080498
H60	H	1.578973	0.246222	0.587601
H61	H	1.675645	0.013894	0.587124
C62	C	1.815873	-0.459235	-0.119523
C63	C	1.802369	-0.505634	0.000002
H64	H	1.897897	-0.437435	-0.119513
H65	H	1.806710	-0.490713	-0.200593
H66	H	1.752179	-0.418083	-0.119506
H67	H	1.866057	-0.546790	-0.000019
H68	H	1.811545	-0.474155	0.081094
H69	H	1.349708	-0.483302	-0.000031
H70	H	1.735219	0.144779	0.412603
C71	C	1.720608	-0.347334	0.119525
C72	C	1.720042	-0.299869	0.000007
H73	H	1.795007	-0.380922	0.119514
H74	H	1.720201	-0.315140	0.200600
H75	H	1.647007	-0.378141	0.119501
H76	H	1.793639	-0.269058	0.000036
H77	H	1.720462	-0.332068	-0.081089
H78	H	0.932281	0.182784	0.211570
C79	C	1.180351	0.139324	0.554939
C80	C	1.268814	0.081611	0.601925
H81	H	1.097927	0.128178	0.589059
H82	H	1.203903	0.189250	0.588250
H83	H	1.179216	0.139675	0.455637
H84	H	1.269955	0.081264	0.701228
H85	H	1.245255	0.031672	0.568621
C86	C	0.810342	-0.046915	-0.001001
C87	C	0.943707	-0.045382	0.000145
H88	H	0.785032	-0.099863	-0.000975
H89	H	0.777181	-0.020833	0.079672
H90	H	0.778370	-0.021097	-0.082493
H91	H	0.975678	-0.071194	0.081643
H92	H	0.976881	-0.071475	-0.080535
H93	H	0.932313	0.182768	-0.211518
C94	C	1.887265	-0.631518	-0.000000
C95	C	1.778806	-0.676954	-0.000006
H96	H	1.961671	-0.665100	0.000005
H97	H	1.886851	-0.599325	-0.081078
H98	H	1.886836	-0.599324	0.081093
H99	H	1.779230	-0.709144	-0.081105
H100	H	1.779220	-0.709161	0.081080
H101	H	1.709182	-0.137702	0.000034
C102	C	1.249447	-0.345504	-0.000001
C103	C	1.236153	-0.263419	-0.000009
H104	H	1.167420	-0.367302	0.000011
H105	H	1.294958	-0.362443	-0.081080
H106	H	1.294962	-0.362437	0.081090
H107	H	1.190646	-0.246486	-0.081106
H108	H	1.190623	-0.246474	0.081079
H109	H	1.363142	0.217081	0.412600
C110	C	1.253422	0.040080	0.244590
C111	C	1.120169	0.037458	0.245746
H112	H	1.287107	0.014430	0.325465
H113	H	1.285954	0.014339	0.163289
H114	H	1.277574	0.093251	0.244254
H115	H	1.096017	-0.015713	0.246072
H116	H	1.087626	0.063197	0.327069
H117	H	1.329340	-0.631358	-0.000001
C118	C	1.187234	-0.106569	-0.119536
C119	C	1.259726	-0.092095	-0.000005
H120	H	1.112826	-0.072989	-0.119536
H121	H	1.236440	-0.096758	-0.200603
H122	H	1.163258	-0.159774	-0.119521
H123	H	1.283710	-0.038891	-0.000026
H124	H	1.210511	-0.101901	0.081082
H125	H	1.669749	-0.381876	-0.000037
H126	H	1.368771	-0.387189	-0.000011
