data_functionalizedCrystal
_audit_creation_method	'MofGen! by Chris Wilmer'
_symmetry_space_group_name_H-M	'P1'
_symmetry_Int_Tables_number	1
_symmetry_cell_setting	triclinic
loop_
_symmetry_equiv_pos_as_xyz
  x,y,z
_cell_length_a	38.067024
_cell_length_b	38.077542
_cell_length_c	38.067005
_cell_angle_alpha	59.997864
_cell_angle_beta	89.998563
_cell_angle_gamma	60.000226
loop_
_atom_site_label
_atom_site_type_symbol
_atom_site_fract_x
_atom_site_fract_y
_atom_site_fract_z
O1	O	-0.240987	0.251366	-0.550848
O2	O	-0.189903	0.179450	-0.427829
O3	O	-0.189903	0.251365	-0.499762
O4	O	-0.240987	0.179451	-0.478916
O5	O	-0.248330	0.309775	-0.499761
O6	O	-0.248330	0.237860	-0.427829
O7	O	-0.299414	0.309775	-0.550848
Zn8	Zn	-0.283149	0.283092	-0.489339
Zn9	Zn	-0.206168	0.206134	-0.489339
O10	O	-0.299414	0.237861	-0.478916
C11	C	-0.128235	0.449881	-0.514624
C12	C	-0.085958	0.428848	-0.514921
C13	C	-0.128235	0.386285	-0.514624
C14	C	-0.085958	0.365349	-0.514921
C15	C	-0.064622	0.386286	-0.514624
C16	C	-0.149474	0.428848	-0.514921
C17	C	-0.191991	0.513453	-0.509462
C18	C	-0.212153	0.553628	-0.506204
C19	C	-0.190416	0.573777	-0.504569
C20	C	-0.212273	0.617335	-0.501034
C21	C	-0.148518	0.553758	-0.506196
C22	C	-0.128358	0.513587	-0.509456
C23	C	-0.150094	0.493435	-0.511087
C24	C	0.004130	0.381290	-0.509462
C25	C	0.047574	0.358015	-0.506204
C26	C	0.069363	0.314501	-0.504569
C27	C	0.116468	0.289261	-0.501034
C28	C	0.047712	0.294260	-0.506196
C29	C	0.004270	0.317535	-0.509456
C30	C	-0.017519	0.361049	-0.511087
C31	C	-0.191991	0.381289	-0.509462
C32	C	-0.212151	0.358009	-0.506198
C33	C	-0.190414	0.314496	-0.504563
C34	C	-0.212271	0.289255	-0.501028
C35	C	-0.148517	0.294255	-0.506189
C36	C	-0.128356	0.317531	-0.509451
C37	C	-0.150094	0.361048	-0.511087
C38	C	-0.400361	0.431922	-0.895743
C39	C	-0.442639	0.474485	-0.916982
C40	C	-0.400363	0.431920	-0.832128
C41	C	-0.442640	0.474483	-0.853465
C42	C	-0.463975	0.495517	-0.895743
C43	C	-0.379123	0.410985	-0.853464
C44	C	-0.297319	0.317399	-0.934588
C45	C	-0.277154	0.293986	-0.954610
C46	C	-0.298891	0.314084	-0.996506
C47	C	-0.277032	0.288696	-1.018215
C48	C	-0.340791	0.357598	-1.018379
C49	C	-0.360949	0.381010	-0.998358
C50	C	-0.339211	0.360909	-0.956461
C51	C	-0.617376	0.637365	-0.998786
C52	C	-0.660818	0.677540	-1.018950
C53	C	-0.682613	0.697691	-0.997215
C54	C	-0.729716	0.741246	-1.019071
C55	C	-0.660961	0.677668	-0.955314
C56	C	-0.617519	0.637500	-0.935153
C57	C	-0.595729	0.617349	-0.956894
C58	C	-0.297324	0.317390	-0.678723
C59	C	-0.277163	0.293972	-0.635278
C60	C	-0.298900	0.314067	-0.613485
C61	C	-0.277044	0.288677	-0.566379
C62	C	-0.340799	0.357578	-0.635137
C63	C	-0.360958	0.380992	-0.678580
C64	C	-0.339215	0.360896	-0.700371
C65	C	-0.361075	0.386297	-0.934753
C66	C	-0.378501	0.406534	-0.917450
C67	C	-0.378504	0.406530	-0.785024
C68	C	-0.361079	0.386291	-0.747477
C69	C	-0.511078	0.539072	-0.917603
C70	C	-0.548624	0.573791	-0.935029
C71	C	-0.463707	0.057315	-0.457699
C72	C	-0.442372	0.014753	-0.457402
C73	C	-0.400094	0.057315	-0.457699
C74	C	-0.378855	0.014752	-0.457402
C75	C	-0.400095	-0.006280	-0.457699
C76	C	-0.442371	0.078251	-0.457402
C77	C	-0.617109	0.171842	-0.469216
C78	C	-0.660551	0.195256	-0.472472
C79	C	-0.682343	0.175159	-0.474107
C80	C	-0.729448	0.200548	-0.477645
C81	C	-0.660691	0.131645	-0.472481
C82	C	-0.617251	0.108232	-0.469220
C83	C	-0.595460	0.128332	-0.467587
C84	C	-0.361251	-0.148126	-0.469216
C85	C	-0.341229	-0.188300	-0.472472
C86	C	-0.299336	-0.208453	-0.474108
C87	C	-0.277626	-0.252007	-0.477645
C88	C	-0.277463	-0.188431	-0.472483
C89	C	-0.297482	-0.148263	-0.469219
C90	C	-0.339380	-0.128111	-0.467588
C91	C	-0.361248	0.171841	-0.469216
C92	C	-0.341227	0.195258	-0.472478
C93	C	-0.299333	0.175161	-0.474112
C94	C	-0.277623	0.200550	-0.477651
C95	C	-0.277462	0.131651	-0.472489
C96	C	-0.297485	0.108238	-0.469229
C97	C	-0.339378	0.128335	-0.467588
C98	C	-0.548356	0.102943	-0.464054
C99	C	-0.510810	0.082705	-0.461236
C100	C	-0.378387	0.082704	-0.461236
C101	C	-0.361083	0.102942	-0.464054
C102	C	-0.378388	-0.049834	-0.461236
C103	C	-0.361085	-0.084553	-0.464053
O104	O	0.255018	0.179453	-0.478916
O105	O	0.132002	0.251367	-0.499762
O106	O	0.203932	0.179452	-0.427829
O107	O	0.183088	0.251368	-0.550849
O108	O	0.203933	0.237862	-0.427829
O109	O	0.132003	0.309777	-0.499762
O110	O	0.255020	0.237863	-0.478916
Zn111	Zn	0.193512	0.283094	-0.489339
Zn112	Zn	0.193510	0.206136	-0.489339
O113	O	0.183089	0.309778	-0.550848
O114	O	-0.240992	0.733736	-0.478916
O115	O	-0.189904	0.631593	-0.499761
O116	O	-0.189905	0.631591	-0.427829
O117	O	-0.240990	0.733739	-0.550848
O118	O	-0.248331	0.631589	-0.427829
O119	O	-0.248330	0.631592	-0.499762
O120	O	-0.299418	0.733734	-0.478916
Zn121	Zn	-0.283150	0.682663	-0.489339
Zn122	Zn	-0.206171	0.682665	-0.489339
O123	O	-0.299416	0.733737	-0.550848
O124	O	-0.868268	0.857636	-1.047780
O125	O	-0.745250	0.755503	-0.996699
O126	O	-0.817174	0.755491	-0.996694
O127	O	-0.796343	0.857648	-1.047785
O128	O	-0.817173	0.755493	-1.055122
O129	O	-0.745248	0.755505	-1.055127
O130	O	-0.868267	0.857638	-1.106208
Zn131	Zn	-0.806757	0.806572	-1.089944
Zn132	Zn	-0.806759	0.806569	-1.012963
O133	O	-0.796342	0.857650	-1.106213
O134	O	-0.248322	0.237872	-1.105928
O135	O	-0.299406	0.309789	-1.054848
O136	O	-0.299403	0.237870	-1.054835
O137	O	-0.248325	0.309791	-1.105941
O138	O	-0.240973	0.179464	-0.996411
O139	O	-0.240976	0.251383	-0.996424
O140	O	-0.189893	0.179466	-1.047504
Zn141	Zn	-0.206157	0.206151	-1.012688
Zn142	Zn	-0.283141	0.283104	-1.089664
O143	O	-0.189896	0.251385	-1.047516
C144	C	-0.064614	0.039355	-0.167594
C145	C	-0.085949	0.060389	-0.146355
C146	C	-0.128229	0.102948	-0.231206
C147	C	-0.149467	0.123884	-0.209871
C148	C	-0.128227	0.102950	-0.167594
C149	C	-0.085951	0.060386	-0.209871
C150	C	0.004139	-0.024217	-0.167760
C151	C	0.047583	-0.064390	-0.147737
C152	C	0.069373	-0.084537	-0.105847
C153	C	0.116478	-0.128093	-0.084135
C154	C	0.047722	-0.064517	-0.083972
C155	C	0.004279	-0.024348	-0.103994
C156	C	-0.017510	-0.004197	-0.145888
C157	C	-0.128061	0.107949	-0.103840
C158	C	-0.148085	0.131225	-0.083679
C159	C	-0.189976	0.174738	-0.105416
C160	C	-0.211689	0.199979	-0.083559
C161	C	-0.211852	0.194977	-0.147313
C162	C	-0.191830	0.171701	-0.167472
C163	C	-0.149934	0.128188	-0.145735
C164	C	-0.128066	0.107941	-0.299958
C165	C	-0.148089	0.131219	-0.343403
C166	C	-0.189981	0.174732	-0.365192
C167	C	-0.211695	0.199970	-0.412297
C168	C	-0.211853	0.194974	-0.343543
C169	C	-0.191831	0.171699	-0.300099
C170	C	-0.149937	0.128183	-0.278309
C171	C	0.218794	0.102930	-0.167585
C172	C	0.219090	0.060367	-0.146347
C173	C	0.218793	0.102934	-0.231200
C174	C	0.219089	0.060371	-0.209865
C175	C	0.218792	0.039336	-0.167587
C176	C	0.219091	0.123868	-0.209864
C177	C	0.213633	0.171828	-0.167749
C178	C	0.210376	0.195239	-0.147724
C179	C	0.208741	0.175141	-0.105832
C180	C	0.205207	0.200525	-0.084119
C181	C	0.210367	0.131627	-0.083958
C182	C	0.213626	0.108215	-0.103982
C183	C	0.215258	0.128318	-0.145877
C184	C	0.213628	-0.024239	-0.103830
C185	C	0.210369	-0.064414	-0.083669
C186	C	0.208734	-0.084561	-0.105406
C187	C	0.205198	-0.128119	-0.083549
C188	C	0.210361	-0.064540	-0.147306
C189	C	0.213622	-0.024369	-0.167465
C190	C	0.215254	-0.004218	-0.145727
C191	C	0.213633	0.171835	-0.299954
C192	C	0.210369	0.195254	-0.343400
C193	C	0.208734	0.175159	-0.365190
C194	C	0.205199	0.200547	-0.412296
C195	C	0.210358	0.131649	-0.343541
C196	C	0.213620	0.108230	-0.300096
C197	C	0.215257	0.128325	-0.278304
C198	C	-0.128243	0.386272	-0.167587
C199	C	-0.085966	0.365336	-0.146346
C200	C	-0.128242	0.449870	-0.231200
C201	C	-0.085965	0.428837	-0.209863
C202	C	-0.064630	0.386273	-0.167585
C203	C	-0.149481	0.428837	-0.209865
C204	C	-0.191999	0.381276	-0.167754
C205	C	-0.212161	0.358000	-0.147730
C206	C	-0.190425	0.314485	-0.105839
C207	C	-0.212283	0.289243	-0.084126
C208	C	-0.148527	0.294242	-0.083963
C209	C	-0.128367	0.317519	-0.103985
C210	C	-0.150103	0.361034	-0.145880
C211	C	0.004121	0.317371	-0.103827
C212	C	0.047564	0.293958	-0.083664
C213	C	0.069354	0.314055	-0.105400
C214	C	0.116458	0.288669	-0.083541
C215	C	0.047703	0.357570	-0.147299
C216	C	0.004262	0.380984	-0.167460
C217	C	-0.017528	0.360883	-0.145724
C218	C	-0.191996	0.513445	-0.299955
C219	C	-0.212155	0.553618	-0.343402
C220	C	-0.190417	0.573768	-0.365190
C221	C	-0.212274	0.617327	-0.412296
C222	C	-0.148521	0.553748	-0.343539
C223	C	-0.128361	0.513576	-0.300094
C224	C	-0.150100	0.493426	-0.278304
C225	C	0.161876	0.495240	-0.895744
C226	C	0.161578	0.474208	-0.916982
C227	C	0.161874	0.431644	-0.832129
C228	C	0.161577	0.410708	-0.853464
C229	C	0.161874	0.431644	-0.895742
C230	C	0.161578	0.474207	-0.853465
C231	C	0.173396	0.637087	-0.934592
C232	C	0.176653	0.677262	-0.954616
C233	C	0.178288	0.697415	-0.996511
C234	C	0.181827	0.740969	-1.018221
C235	C	0.176662	0.677393	-1.018383
C236	C	0.173399	0.637225	-0.998362
C237	C	0.171766	0.617072	-0.956464
C238	C	0.173389	0.381298	-0.998783
C239	C	0.176645	0.358026	-1.018946
C240	C	0.178281	0.314508	-0.997210
C241	C	0.181817	0.289268	-1.019065
C242	C	0.176655	0.294266	-0.955309
C243	C	0.173392	0.317542	-0.935149
C244	C	0.171762	0.361060	-0.956891
C245	C	0.173390	0.381294	-0.678724
C246	C	0.176652	0.358017	-0.635279
C247	C	0.178286	0.314500	-0.613486
C248	C	0.181824	0.289258	-0.566380
C249	C	0.176662	0.294258	-0.635137
C250	C	0.173402	0.317535	-0.678580
C251	C	0.171763	0.361056	-0.700371
C252	C	0.168232	0.573514	-0.934756
C253	C	0.165413	0.538795	-0.917452
C254	C	0.165411	0.406406	-0.785024
C255	C	0.168228	0.386290	-0.747477
C256	C	0.165410	0.406408	-0.917601
C257	C	0.168228	0.386293	-0.935026
O258	O	0.183077	0.251346	0.003597
O259	O	0.203934	0.179431	-0.047486
O260	O	0.131998	0.251342	-0.047491
O261	O	0.255013	0.179435	0.003602
O262	O	0.132000	0.309755	-0.105918
O263	O	0.203935	0.237844	-0.105913
O264	O	0.183079	0.309758	-0.054830
Zn265	Zn	0.193507	0.283075	-0.089648
Zn266	Zn	0.193505	0.206114	-0.012668
O267	O	0.255014	0.237847	-0.054825
C268	C	-0.463718	1.057349	-0.895735
C269	C	-0.442389	1.078298	-0.916971
C270	C	-0.400106	0.993757	-0.832120
C271	C	-0.378873	1.014802	-0.853452
C272	C	-0.400115	1.057369	-0.895729
C273	C	-0.442380	1.014782	-0.853458
C274	C	-0.617105	1.107660	-0.934590
C275	C	-0.660544	1.130924	-0.954614
C276	C	-0.682339	1.174445	-0.996508
C277	C	-0.729441	1.199677	-1.018219
C278	C	-0.660692	1.194700	-1.018377
C279	C	-0.617255	1.171432	-0.998354
C280	C	-0.595461	1.127910	-0.956459
C281	C	-0.361294	1.171936	-0.998758
C282	C	-0.341279	1.195362	-1.018917
C283	C	-0.299390	1.175276	-0.997179
C284	C	-0.277687	1.200675	-1.019031
C285	C	-0.277515	1.131758	-0.955280
C286	C	-0.297527	1.108329	-0.935124
C287	C	-0.339421	1.128426	-0.956867
C288	C	-0.361250	0.851882	-0.678722
C289	C	-0.341228	0.811706	-0.635279
C290	C	-0.299337	0.791561	-0.613484
C291	C	-0.277626	0.748001	-0.566379
C292	C	-0.277473	0.811596	-0.635132
C293	C	-0.297497	0.851772	-0.678573
C294	C	-0.339386	0.871910	-0.700367
C295	C	-0.548362	1.102686	-0.934749
C296	C	-0.510818	1.082577	-0.917444
C297	C	-0.378397	0.950197	-0.785017
C298	C	-0.361093	0.915474	-0.747471
C299	C	-0.378416	1.082772	-0.917584
C300	C	-0.361119	1.103020	-0.935007
H301	H	-0.068830	0.446454	-0.515401
Br302	Br	-0.471186	0.503833	-0.974882
H303	H	-0.395361	0.868282	-0.696463
H304	H	-0.599892	0.621201	-0.901039
H305	H	-0.243041	0.258557	-0.936798
Br306	Br	-0.071498	0.486417	-0.511661
Br307	Br	-0.267839	1.049271	-0.878267
Br308	Br	0.171182	0.290074	-0.878289
Br309	Br	-0.267798	-0.121097	-0.467010
Br310	Br	-0.689933	0.254306	-0.474680
H311	H	-0.245965	0.230408	-0.361287
H312	H	-0.093949	0.072516	-0.086137
H313	H	-0.678437	0.115285	-0.473809
H314	H	-0.246273	0.374484	-0.165544
H315	H	0.172065	0.620683	-0.900478
Br316	Br	0.160784	0.503543	-0.974879
Br317	Br	0.208150	0.104349	-0.027100
H318	H	-0.243049	0.258543	-0.617651
H319	H	-0.246265	0.569923	-0.504879
H320	H	0.209019	-0.080943	-0.165007
H321	H	-0.068843	0.331091	-0.111606
H322	H	-0.279690	0.868080	-0.696198
H323	H	-0.243350	-0.204844	-0.473809
Br324	Br	0.215848	0.199110	-0.224608
Br325	Br	-0.587538	0.199121	-0.466997
Br326	Br	-0.690270	1.253759	-1.075232
Br327	Br	-0.119018	0.581108	-0.503979
H328	H	-0.279674	0.072810	-0.467905
H329	H	-0.013358	0.301054	-0.510782
Br330	Br	-0.267818	0.290116	-0.708296
H331	H	-0.209695	0.416725	-0.510797
Br332	Br	-0.207371	0.458187	-0.515722
Br333	Br	0.219883	0.031026	-0.088450
H334	H	-0.459769	0.492082	-0.836333
Br335	Br	-0.587531	1.048594	-0.877734
Br336	Br	-0.689919	1.103437	-0.924934
H337	H	-0.209643	0.188181	-0.282472
Br338	Br	-0.470924	-0.014580	-0.456616
Br339	Br	0.178865	0.235213	-0.925810
H340	H	0.172072	0.301056	-0.696207
H341	H	-0.459520	1.112548	-0.951709
H342	H	-0.094241	0.301046	-0.510771
H343	H	-0.130816	0.258818	-0.504853
H344	H	-0.599633	1.187924	-1.016163
Br345	Br	-0.025439	0.440346	-0.511676
Br346	Br	-0.418143	1.199201	-1.028268
Br347	Br	0.076953	0.385488	-0.503999
Br348	Br	-0.370304	0.384852	-0.605563
Br349	Br	-0.207375	0.458175	-0.238419
Br350	Br	-0.220604	0.104374	-0.474707
Br351	Br	-0.470921	0.135339	-0.456611
H352	H	-0.395073	0.416419	-0.696207
H353	H	-0.344387	0.376734	-0.836335
Br354	Br	-0.118404	0.103748	-0.372783
H355	H	0.065470	-0.080928	-0.049860
Br356	Br	-0.071501	0.486404	-0.270711
Br357	Br	-0.057401	0.031051	-0.088459
H358	H	-0.459507	0.997174	-0.836332
H359	H	-0.279614	0.301028	-0.900474
Br360	Br	-0.370285	0.384874	-1.075236
H361	H	-0.678444	0.693838	-1.053064
H362	H	-0.184205	0.158133	-0.227002
Br363	Br	0.178879	0.235197	-0.605561
H364	H	-0.395063	0.416439	-1.016170
H365	H	0.177977	0.374500	-0.617653
H366	H	-0.130832	0.258808	-0.049849
H367	H	0.214941	0.072803	-0.282470
Br368	Br	0.208133	0.104378	-0.373116
Br369	Br	-0.221514	0.199164	-0.224330
H370	H	0.219565	0.042772	-0.226997
Br371	Br	-0.071511	0.290056	-0.074298
H372	H	0.209053	0.230666	-0.165536
H373	H	0.161093	0.376461	-0.836333
Br374	Br	-0.269012	0.580783	-0.372783
Br375	Br	-0.690534	0.705019	-0.925816
Br376	Br	-0.025105	0.002819	-0.074310
H377	H	-0.359035	0.795399	-0.617655
H378	H	-0.344150	0.997226	-0.836308
Br379	Br	0.077285	0.235203	-0.503981
Br380	Br	0.219885	0.180955	-0.238416
Br381	Br	0.215864	0.199102	-0.270378
H382	H	-0.209694	0.497049	-0.510792
Br383	Br	-0.370912	0.254308	-0.474686
Br384	Br	-0.370967	1.254418	-1.075775
H385	H	0.214958	-0.007835	-0.086127
Br386	Br	-0.221500	0.486100	-0.270384
H387	H	-0.599637	0.620963	-1.016492
H388	H	-0.068821	0.042780	-0.226997
Br389	Br	0.215833	0.049164	-0.074299
H390	H	0.209045	-0.080711	-0.049554
Br391	Br	0.178861	0.704429	-0.924932
H392	H	-0.068828	0.331096	-0.515393
H393	H	0.177970	0.374509	-1.053060
Br394	Br	0.215837	0.002798	-0.224323
Br395	Br	0.208163	0.254303	-0.372780
H396	H	-0.344119	-0.002848	-0.456924
H397	H	-0.013365	0.416414	-0.201575
Br398	Br	-0.587867	0.049181	-0.467011
H399	H	-0.093955	0.072507	-0.282217
H400	H	-0.209701	0.416710	-0.201867
H401	H	-0.395357	0.188203	-0.467874
Br402	Br	-0.025449	0.290090	-0.074325
Br403	Br	-0.220622	0.784262	-0.605553
Br404	Br	-0.025433	0.003128	-0.224616
H405	H	-0.068836	0.446440	-0.226995
H406	H	0.065186	0.258530	-0.049548
Br407	Br	0.077278	0.384848	-0.176798
Br408	Br	-0.418108	-0.120780	-0.466999
H409	H	-0.130820	0.570155	-0.361284
H410	H	0.161102	0.491810	-0.836337
Br411	Br	0.171169	0.440356	-0.708298
Br412	Br	0.178874	0.704748	-1.075241
H413	H	-0.359040	-0.204599	-0.473795
H414	H	0.172073	0.620928	-1.016173
Br415	Br	0.076961	-0.091560	-0.177420
Br416	Br	-0.220662	1.104489	-0.925779
Br417	Br	-0.118398	0.103754	-0.026820
Br418	Br	0.171159	0.440366	-1.028294
H419	H	-0.245966	0.230410	-0.165009
H420	H	-0.246265	0.374496	-0.504878
