data_functionalizedCrystal
_audit_creation_method	'MofGen! by Chris Wilmer'
_symmetry_space_group_name_H-M	'P1'
_symmetry_Int_Tables_number	1
_symmetry_cell_setting	triclinic
loop_
_symmetry_equiv_pos_as_xyz
  x,y,z
_cell_length_a	17.019282
_cell_length_b	19.288859
_cell_length_c	18.366186
_cell_angle_alpha	89.994011
_cell_angle_beta	93.872176
_cell_angle_gamma	83.261635
loop_
_atom_site_label
_atom_site_type_symbol
_atom_site_fract_x
_atom_site_fract_y
_atom_site_fract_z
O1	O	1.046364	0.088442	0.005083
O2	O	0.816659	0.099737	-0.009326
O3	O	0.938151	-0.007029	-0.001700
O4	O	0.924872	0.195209	-0.002542
O5	O	0.938131	-0.007035	0.119398
O6	O	0.816639	0.099732	0.111772
O7	O	1.046343	0.088437	0.126182
Zn8	Zn	0.931488	0.094084	0.138204
Zn9	Zn	0.931515	0.094091	-0.021348
O10	O	0.924851	0.195204	0.118556
C11	C	0.937715	-0.032909	0.058821
C12	C	0.936434	-0.110015	0.058740
C13	C	0.787262	0.099308	0.049380
C14	C	0.699696	0.098029	0.043887
C15	C	0.999060	-0.673949	0.062649
C16	C	1.000270	-0.601500	0.062731
C17	C	0.928984	-0.556916	0.058259
C18	C	0.856482	-0.584785	0.053723
C19	C	0.855274	-0.657232	0.053648
C20	C	0.875826	-0.435731	0.012500
C21	C	0.877037	-0.363285	0.012570
C22	C	0.932706	-0.333463	0.058494
C23	C	0.987177	-0.376097	0.104338
C24	C	0.985970	-0.448545	0.104263
C25	C	0.930285	-0.478358	0.058341
C26	C	1.006514	-0.227045	0.063124
C27	C	1.007721	-0.154595	0.063211
C28	C	0.863932	-0.137881	0.054195
C29	C	0.862727	-0.210330	0.054116
C30	C	0.934021	-0.254908	0.058577
C31	C	0.658551	0.097424	0.107318
C32	C	0.576276	0.096211	0.102159
C33	C	0.535146	0.095608	0.033568
C34	C	0.576297	0.096212	-0.029869
C35	C	0.658572	0.097420	-0.024709
C36	C	0.286732	0.091957	0.014686
C37	C	0.204451	0.090751	0.009531
C38	C	0.204436	0.090748	0.141559
C39	C	0.286711	0.091961	0.146713
C40	C	0.327856	0.092560	0.083277
C41	C	0.451048	0.094371	0.028293
C42	C	0.411954	0.093793	0.088553
C43	C	1.075741	0.088866	0.067474
C44	C	1.163306	0.090145	0.072963
C45	C	0.925288	0.221084	0.058033
C46	C	0.926568	0.298190	0.058109
N47	N	0.931475	0.094079	0.247094
N48	N	0.931534	0.094090	-0.130238
C49	C	0.985289	0.046825	0.288572
C50	C	0.985294	0.046822	0.364800
C51	C	0.931492	0.094084	0.399548
C52	C	0.877668	0.141341	0.358060
C53	C	0.877659	0.141338	0.281833
C54	C	0.920931	0.157354	0.519643
C55	C	0.920945	0.157358	0.595869
C56	C	0.931515	0.094093	0.634657
C57	C	0.942087	0.030822	0.597211
C58	C	0.942078	0.030819	0.520984
C59	C	0.931496	0.094092	0.482203
C60	C	0.985338	0.046833	0.758790
C61	C	0.985337	0.046829	0.835020
C62	C	0.877715	0.141353	0.828278
C63	C	0.877711	0.141351	0.752050
C64	C	0.931527	0.094092	0.717311
H65	H	1.057113	-0.710240	0.066286
H66	H	0.832687	-0.328578	-0.024762
Br67	Br	0.804619	0.205471	0.225536
H68	H	0.830483	-0.460004	-0.024892
H69	H	0.320194	0.092448	0.202568
H70	H	1.059303	-0.578811	0.066428
Br71	Br	0.804689	0.205488	0.875429
Br72	Br	1.058369	-0.017312	0.891316
H73	H	1.032504	-0.351818	0.141738
Br74	Br	0.520484	0.095364	-0.122958
H75	H	1.064566	-0.263343	0.066757
H76	H	0.692071	0.097914	-0.076362
H77	H	1.029107	0.008342	0.260290
Br78	Br	0.767184	-0.077381	0.048139
H79	H	0.542782	0.095706	0.153812
H80	H	1.066755	-0.131913	0.066912
Br81	Br	0.764340	-0.248145	0.047950
Br82	Br	0.759736	-0.524279	0.047661
H83	H	0.796241	-0.679916	0.049953
H84	H	0.170928	0.090259	0.193206
H85	H	0.912310	0.208876	0.488067
H86	H	1.030321	-0.483255	0.141592
Br87	Br	1.058333	-0.017313	0.421102
H88	H	0.833861	0.179821	0.386355
H89	H	0.950684	-0.020699	0.490498
Br90	Br	0.467774	0.094606	0.181638
H91	H	0.833894	0.179832	0.718276
Br92	Br	0.714361	0.098248	0.200411
Br93	Br	0.148631	0.089938	-0.083564
Br94	Br	0.395228	0.093516	-0.064793
H95	H	0.950693	-0.020695	0.628790
Br96	Br	1.058369	-0.017307	0.711642
H97	H	0.320222	0.092443	-0.036969
H98	H	0.912342	0.208877	0.626352
