data_functionalizedCrystal
_audit_creation_method	'MofGen! by Chris Wilmer'
_symmetry_space_group_name_H-M	'P1'
_symmetry_Int_Tables_number	1
_symmetry_cell_setting	triclinic
loop_
_symmetry_equiv_pos_as_xyz
  x,y,z
_cell_length_a	13.897448
_cell_length_b	10.686220
_cell_length_c	13.897449
_cell_angle_alpha	85.635580
_cell_angle_beta	90.009266
_cell_angle_gamma	94.399460
loop_
_atom_site_label
_atom_site_type_symbol
_atom_site_fract_x
_atom_site_fract_y
_atom_site_fract_z
Zn1	Zn	-0.270883	1.928937	0.432426
Zn2	Zn	0.062450	2.262270	0.765760
Zn3	Zn	0.395783	2.595603	1.099093
Zn4	Zn	-0.432149	1.928860	0.271132
Zn5	Zn	-0.098816	2.262193	0.604466
Zn6	Zn	0.234517	2.595527	0.937799
Zn7	Zn	-0.283257	1.717978	0.283498
Zn8	Zn	0.050076	2.051312	0.616831
Zn9	Zn	0.383410	2.384645	0.950165
Zn10	Zn	-0.444534	1.717892	0.444738
Zn11	Zn	-0.111201	2.051226	0.778072
Zn12	Zn	0.222132	2.384559	1.111405
O13	O	-0.357706	1.823417	0.357949
O14	O	-0.024373	2.156750	0.691282
O15	O	0.308961	2.490083	1.024615
O16	O	-0.281914	2.105504	0.400702
O17	O	0.051420	2.438837	0.734036
O18	O	0.384753	2.772171	1.067369
O19	O	-0.412394	1.900890	0.137791
O20	O	-0.079060	2.234223	0.471124
O21	O	0.254273	2.567557	0.804457
O22	O	-0.146630	1.746030	0.303276
O23	O	0.186703	2.079364	0.636609
O24	O	0.520037	2.412697	0.969943
O25	O	-0.400395	2.105448	0.282200
O26	O	-0.067062	2.438781	0.615534
O27	O	0.266271	2.772114	0.948867
O28	O	-0.137539	1.901021	0.412693
O29	O	0.195794	2.234354	0.746026
O30	O	0.529128	2.567687	1.079360
O31	O	-0.303003	1.745956	0.146876
O32	O	0.030330	2.079289	0.480209
O33	O	0.363664	2.412623	0.813542
O34	O	-0.315012	1.541389	0.315215
O35	O	0.018321	1.874723	0.648548
O36	O	0.351654	2.208056	0.981881
O37	O	-0.421504	1.745884	0.578087
O38	O	-0.088171	2.079217	0.911420
O39	O	0.245163	2.412550	1.244754
O40	O	-0.433502	1.541326	0.433677
O41	O	-0.100169	1.874660	0.767011
O42	O	0.233164	2.207993	1.100344
O43	O	-0.293923	1.900937	0.569041
O44	O	0.039410	2.234270	0.902375
O45	O	0.372743	2.567604	1.235708
O46	O	-0.568778	1.900807	0.294139
O47	O	-0.235445	2.234140	0.627472
O48	O	0.097889	2.567473	0.960806
O49	O	-0.577877	1.745810	0.421687
O50	O	-0.244544	2.079143	0.755020
O51	O	0.088790	2.412476	1.088354
C52	C	-0.376945	1.495573	0.377125
C53	C	-0.043611	1.828907	0.710458
C54	C	0.289722	2.162240	1.043791
C55	C	-0.385198	1.355320	0.385351
C56	C	-0.051865	1.688654	0.718684
C57	C	0.281468	2.021987	1.052018
C58	C	-0.608326	1.823325	0.357926
C59	C	-0.274992	2.156658	0.691260
C60	C	0.058341	2.489991	1.024593
C61	C	-0.715535	1.823401	0.357942
C62	C	-0.382202	2.156734	0.691275
C63	C	-0.048869	2.490067	1.024609
C64	C	-0.911822	1.823533	0.357995
C65	C	-0.578489	2.156867	0.691328
C66	C	-0.245156	2.490200	1.024661
C67	C	-0.802595	1.823456	0.357969
C68	C	-0.469261	2.156789	0.691302
C69	C	-0.135928	2.490123	1.024635
C70	C	-0.106106	1.823544	0.357990
C71	C	0.227228	2.156877	0.691324
C72	C	0.560561	2.490210	1.024657
C73	C	0.001112	1.823598	0.358008
C74	C	0.334445	2.156931	0.691342
C75	C	0.667778	2.490264	1.024675
C76	C	-0.357715	1.823409	0.609542
C77	C	-0.024382	2.156743	0.942875
C78	C	0.308952	2.490076	1.276209
C79	C	-0.357719	1.823406	0.716756
C80	C	-0.024385	2.156740	1.050089
C81	C	0.308948	2.490073	1.383423
C82	C	-0.338393	2.152541	0.338699
C83	C	-0.005059	2.485874	0.672032
C84	C	0.328274	2.819207	1.005365
C85	C	-0.330163	2.292793	0.330495
C86	C	0.003171	2.626127	0.663829
C87	C	0.336504	2.959460	0.997162
C88	C	-0.357722	1.823403	0.803826
C89	C	-0.024389	2.156736	1.137159
C90	C	0.308944	2.490070	1.470493
C91	C	-0.357718	1.823402	0.913059
C92	C	-0.024385	2.156736	1.246392
C93	C	0.308949	2.490069	1.579725
C94	C	-0.357718	1.823412	1.107335
C95	C	-0.024384	2.156746	1.440668
C96	C	0.308949	2.490079	1.774001
C97	C	-0.357709	1.823408	1.000121
C98	C	-0.024375	2.156741	1.333454
C99	C	0.308958	2.490075	1.666788
H100	H	-0.438640	1.301548	0.438607
H101	H	-0.105307	1.634881	0.771940
H102	H	0.228027	1.968215	1.105274
H103	H	-0.276731	1.346559	0.277237
H104	H	0.056603	1.679893	0.610570
H105	H	0.389936	2.013226	0.943903
