data_functionalizedCrystal
_audit_creation_method	'MofGen! by Chris Wilmer'
_symmetry_space_group_name_H-M	'P1'
_symmetry_Int_Tables_number	1
_symmetry_cell_setting	triclinic
loop_
_symmetry_equiv_pos_as_xyz
  x,y,z
_cell_length_a	19.077105
_cell_length_b	16.625545
_cell_length_c	19.076919
_cell_angle_alpha	87.727985
_cell_angle_beta	90.076224
_cell_angle_gamma	92.279587
loop_
_atom_site_label
_atom_site_type_symbol
_atom_site_fract_x
_atom_site_fract_y
_atom_site_fract_z
Zn1	Zn	1.058273	0.390077	-0.440419
Zn2	Zn	1.062913	0.519720	-0.322913
Zn3	Zn	0.945491	0.379276	-0.318213
Zn4	Zn	0.940735	0.519234	-0.435665
O5	O	1.001853	0.452077	-0.379303
O6	O	1.157220	0.411998	-0.428788
O7	O	1.051269	0.496773	-0.223958
O8	O	0.960499	0.267879	-0.334446
O9	O	1.160630	0.507247	-0.342457
O10	O	1.043360	0.275815	-0.424231
O11	O	0.964999	0.393589	-0.220505
O12	O	0.846528	0.393117	-0.329836
O13	O	0.952395	0.506418	-0.534627
O14	O	0.843034	0.495944	-0.416129
O15	O	1.038749	0.411527	-0.538120
O16	O	1.046658	0.632485	-0.337847
O17	O	0.956894	0.632127	-0.420686
C18	C	0.819285	0.443307	-0.371957
C19	C	0.741180	0.439575	-0.368831
C20	C	0.702689	0.491433	-0.412220
C21	C	0.629302	0.487916	-0.409286
C22	C	0.594407	0.432544	-0.362960
C23	C	0.632904	0.380681	-0.319570
C24	C	0.706290	0.384195	-0.322507
C25	C	0.375120	0.416284	-0.349367
C26	C	0.301729	0.412776	-0.346431
C27	C	0.298132	0.520010	-0.436149
C28	C	0.371520	0.523522	-0.439080
C29	C	0.410010	0.471656	-0.395692
N30	N	0.519394	0.428950	-0.359959
N31	N	0.485022	0.475247	-0.398697
C32	C	1.001782	0.661563	-0.379277
C33	C	1.001816	0.751186	-0.379292
C34	C	1.001927	1.079371	-0.379381
C35	C	1.001894	0.988060	-0.379358
C36	C	1.001871	0.915282	-0.379336
C37	C	1.001838	0.823965	-0.379314
C38	C	1.185134	0.460882	-0.386677
C39	C	1.263238	0.464634	-0.389820
C40	C	0.994524	0.460123	-0.562583
C41	C	0.991400	0.463552	-0.640686
C42	C	1.001936	1.241774	-0.379352
C43	C	1.001955	1.152155	-0.379394
C44	C	1.034891	0.415760	-0.679198
C45	C	1.031947	0.418979	-0.752584
C46	C	0.985517	0.469993	-0.787456
C47	C	0.942022	0.517786	-0.748938
C48	C	0.944962	0.514563	-0.675554
C49	C	0.971899	0.484926	-1.006737
C50	C	0.968963	0.488147	-1.080127
C51	C	1.058889	0.389338	-1.083768
C52	C	1.061828	0.386123	-1.010382
C53	C	1.018330	0.433913	-0.971870
N54	N	0.982509	0.473286	-0.862468
N55	N	1.021335	0.430616	-0.896859
C56	C	1.009194	0.444005	-0.196737
C57	C	1.012454	0.440356	-0.118640
H58	H	0.273320	0.367677	-0.308711
H59	H	0.909540	0.553472	-0.644198
O60	O	0.409151	0.583255	-0.489040
H61	H	0.466648	0.576995	-0.483784
H62	H	1.094301	0.350429	-1.115132
H63	H	0.731095	0.536525	-0.449941
H64	H	0.597965	0.530145	-0.444617
H65	H	0.266786	0.562235	-0.471474
H66	H	0.931152	0.529692	-1.108518
H67	H	0.406450	0.374056	-0.314032
O68	O	0.595274	0.320976	-0.269584
H69	H	0.537777	0.327257	-0.274817
O70	O	0.747811	0.328272	-0.275702
H71	H	0.711220	0.289186	-0.242988
O72	O	1.084970	0.360737	-0.641587
H73	H	1.114712	0.328040	-0.680699
H74	H	1.067364	0.380064	-0.783938
O75	O	1.111909	0.331104	-0.972769
H76	H	1.141656	0.298409	-1.011879
O77	O	0.924950	0.536426	-0.965202
H78	H	0.892163	0.572428	-1.001782
H79	H	0.904214	0.559321	-0.777337
