data_functionalizedCrystal
_audit_creation_method	'MofGen! by Chris Wilmer'
_symmetry_space_group_name_H-M	'P1'
_symmetry_Int_Tables_number	1
_symmetry_cell_setting	triclinic
loop_
_symmetry_equiv_pos_as_xyz
  x,y,z
_cell_length_a	16.959455
_cell_length_b	25.639239
_cell_length_c	16.959447
_cell_angle_alpha	89.966842
_cell_angle_beta	89.983056
_cell_angle_gamma	90.035633
loop_
_atom_site_label
_atom_site_type_symbol
_atom_site_fract_x
_atom_site_fract_y
_atom_site_fract_z
Zn1	Zn	1.208302	-0.208183	-0.446894
Zn2	Zn	1.208175	-0.295623	-0.314709
Zn3	Zn	1.076124	-0.208199	-0.314731
Zn4	Zn	1.076052	-0.295584	-0.446847
O5	O	1.142164	-0.251897	-0.380795
O6	O	1.318896	-0.219791	-0.429369
O7	O	1.190636	-0.284050	-0.204101
O8	O	1.093741	-0.135032	-0.332291
O9	O	1.318803	-0.284034	-0.332253
O10	O	1.190851	-0.135020	-0.429391
O11	O	1.093619	-0.219820	-0.204117
O12	O	0.965504	-0.219781	-0.332247
O13	O	1.093618	-0.283967	-0.557464
O14	O	0.965451	-0.283983	-0.429312
O15	O	1.190781	-0.219753	-0.557498
O16	O	1.190566	-0.368783	-0.332208
O17	O	1.093495	-0.368755	-0.429290
C18	C	0.936797	-0.251880	-0.380777
C19	C	0.848941	-0.251885	-0.380788
C20	C	0.477468	-0.218440	-0.330359
C21	C	0.477462	-0.285397	-0.431277
C22	C	0.560008	-0.285390	-0.431272
C23	C	0.601288	-0.251908	-0.380809
C24	C	0.560022	-0.218433	-0.330351
C25	C	0.601280	-0.318868	-0.481723
C26	C	0.683831	-0.318862	-0.481720
C27	C	0.725112	-0.285377	-0.431260
C28	C	0.683841	-0.251900	-0.380801
C29	C	0.725121	-0.218418	-0.330338
C30	C	0.683852	-0.184938	-0.279882
C31	C	0.601303	-0.184948	-0.279891
C32	C	0.807661	-0.285368	-0.431251
C33	C	0.807675	-0.218411	-0.330330
C34	C	1.142031	-0.387740	-0.380759
C35	C	1.142046	-0.445854	-0.380770
C36	C	1.192840	-0.806219	-0.330331
C37	C	1.192871	-0.860824	-0.330341
O38	O	1.235920	-0.889063	-0.287417
N39	N	1.142302	-0.888136	-0.380847
C40	C	1.091706	-0.860842	-0.431352
O41	O	1.048697	-0.889087	-0.474313
C42	C	1.091680	-0.806239	-0.431345
C43	C	1.142246	-0.778929	-0.380830
C44	C	1.243402	-0.778910	-0.279820
C45	C	1.243370	-0.724309	-0.279809
C46	C	1.192776	-0.697018	-0.330308
C47	C	1.142214	-0.724328	-0.380818
C48	C	1.041088	-0.778945	-0.481853
C49	C	1.041067	-0.724338	-0.481842
C50	C	1.091633	-0.697028	-0.431326
C51	C	1.091588	-0.642437	-0.431306
N52	N	1.142156	-0.615124	-0.380800
C53	C	1.192750	-0.642415	-0.330301
C54	C	1.091766	-0.975513	-0.431364
C55	C	1.091787	-1.030115	-0.431368
C56	C	1.192953	-1.030093	-0.330358
C57	C	1.192927	-0.975490	-0.330351
C58	C	1.142334	-0.948200	-0.380858
C59	C	1.192679	-0.527750	-0.330280
C60	C	1.192640	-0.473145	-0.330271
C61	C	1.091478	-0.473171	-0.431283
C62	C	1.091513	-0.527772	-0.431290
C63	C	1.142120	-0.555060	-0.380786
O64	O	1.048563	-0.614164	-0.474211
O65	O	1.235759	-0.614163	-0.287355
C66	C	1.348332	-0.251915	-0.380814
C67	C	1.436188	-0.251923	-0.380822
C68	C	1.142206	-0.251854	-0.586963
C69	C	1.142224	-0.251835	-0.674820
C70	C	1.142318	-0.115524	-0.380849
C71	C	1.142385	-0.057410	-0.380872
C72	C	1.091781	-0.218339	-1.046311
C73	C	1.192806	-0.285222	-1.046281
C74	C	1.192792	-0.285234	-0.963735
C75	C	1.142271	-0.251799	-0.922473
C76	C	1.091764	-0.218351	-0.963757
C77	C	1.243293	-0.318685	-0.922445
C78	C	1.243281	-0.318699	-0.839894
C79	C	1.192763	-0.285260	-0.798631
C80	C	1.142254	-0.251811	-0.839920
C81	C	1.091734	-0.218375	-0.798658
C82	C	1.041228	-0.184923	-0.839945
C83	C	1.041247	-0.184912	-0.922494
C84	C	1.192745	-0.285271	-0.716082
C85	C	1.091717	-0.218388	-0.716104
C86	C	1.142167	-0.251903	-0.175429
C87	C	1.142302	-0.251774	-0.087573
H88	H	0.567694	-0.157691	-0.238812
H89	H	0.717473	-0.157679	-0.238791
H90	H	0.841279	-0.191142	-0.289241
H91	H	0.443863	-0.191181	-0.289281
H92	H	1.050282	-0.450943	-0.472397
O93	O	1.241936	-0.948939	-0.281201
C94	C	1.252617	-0.887311	-0.174512
C95	C	1.197020	-0.917352	-0.230113
H96	H	1.216324	-0.861757	-0.133205
H97	H	1.288764	-0.916178	-0.138364
H98	H	1.293933	-0.861730	-0.210851
H99	H	1.155656	-0.942934	-0.193836
H100	H	1.160928	-0.888457	-0.266265
O101	O	1.042534	-0.949086	-0.480448
C102	C	0.942227	-0.954882	-0.580667
C103	C	0.997925	-0.984871	-0.525107
H104	H	0.906158	-0.983801	-0.616800
H105	H	0.900850	-0.929375	-0.544377
H106	H	0.978486	-0.929263	-0.621998
H107	H	0.961730	-1.010518	-0.483765
H108	H	1.039305	-1.010345	-0.561446
H109	H	1.284415	-0.345913	-0.956046
O110	O	0.992055	-0.805440	-0.531042
C111	C	0.953598	-0.822063	-0.665473
C112	C	1.009191	-0.792036	-0.609851
H113	H	0.967421	-0.811228	-0.729201
H114	H	0.962299	-0.865786	-0.656888
H115	H	0.889870	-0.811376	-0.651499
H116	H	1.072940	-0.802680	-0.623791
H117	H	1.000421	-0.748321	-0.618446
O118	O	0.723879	-0.351324	-0.530849
C119	C	0.749122	-0.376828	-0.665233
C120	C	0.703732	-0.340026	-0.609682
H121	H	0.732838	-0.367714	-0.728980
H122	H	0.815223	-0.371069	-0.656634
H123	H	0.732867	-0.418974	-0.651199
H124	H	0.719922	-0.297866	-0.623681
H125	H	0.637643	-0.345830	-0.618291
H126	H	1.233890	-0.549961	-0.289157
O127	O	1.042564	-0.185891	-0.676147
C128	C	0.942397	-0.119526	-0.684889
C129	C	0.998009	-0.156309	-0.730237
H130	H	0.906371	-0.095592	-0.728601
H131	H	0.900975	-0.143508	-0.646250
H132	H	0.978721	-0.092220	-0.646234
H133	H	0.961748	-0.183622	-0.768935
H134	H	1.039432	-0.132295	-0.768826
O135	O	0.992032	-0.697805	-0.530989
C136	C	0.981301	-0.636092	-0.637656
C137	C	1.036922	-0.666116	-0.582062
H138	H	1.017572	-0.610455	-0.678952
H139	H	0.945182	-0.664969	-0.673817
H140	H	0.939959	-0.610595	-0.601310
H141	H	1.078311	-0.691613	-0.618347
H142	H	1.072986	-0.637210	-0.545899
O143	O	1.042612	-0.185871	-1.086325
C144	C	0.908190	-0.160495	-1.111619
C145	C	0.963785	-0.197289	-1.066239
H146	H	0.844447	-0.169721	-1.095409
H147	H	0.922050	-0.118332	-1.095392
H148	H	0.916920	-0.166217	-1.177703
H149	H	0.955086	-0.191613	-1.000145
H150	H	0.949911	-0.239439	-1.082531
O151	O	0.992039	-0.152501	-0.799894
C152	C	0.857611	-0.127096	-0.774662
C153	C	0.913227	-0.163851	-0.820059
H154	H	0.793881	-0.136251	-0.790962
H155	H	0.866208	-0.132859	-0.708563
H156	H	0.871583	-0.084937	-0.790897
H157	H	0.899289	-0.206024	-0.803891
H158	H	0.904620	-0.158042	-0.886148
O159	O	0.992269	-0.152347	-0.962563
C160	C	0.953966	-0.063407	-0.987835
C161	C	1.009497	-0.100225	-0.942420
H162	H	0.967864	-0.021259	-0.971553
H163	H	0.962655	-0.069098	-1.053931
H164	H	0.890223	-0.072614	-0.971599
H165	H	1.073261	-0.091041	-0.958589
H166	H	1.000739	-0.094527	-0.876334
H167	H	0.841259	-0.312628	-0.472329
O168	O	1.241849	-0.317654	-1.086482
C169	C	1.286599	-0.347306	-1.213643
C170	C	1.231031	-0.310540	-1.168211
H171	H	1.277861	-0.341576	-1.279729
H172	H	1.350363	-0.338134	-1.197489
H173	H	1.272673	-0.389460	-1.197336
H174	H	1.244885	-0.268374	-1.184493
H175	H	1.167284	-0.319757	-1.184369
O176	O	1.042367	-0.554223	-0.480431
C177	C	0.941996	-0.548475	-0.580591
C178	C	0.997618	-0.518460	-0.524984
H179	H	0.905790	-0.519574	-0.616615
H180	H	0.978242	-0.573977	-0.622015
H181	H	0.900736	-0.574103	-0.544264
H182	H	1.038889	-0.492804	-0.561247
H183	H	0.961322	-0.492992	-0.483558
O184	O	1.292419	-0.351206	-0.799913
C185	C	1.392597	-0.417564	-0.808603
C186	C	1.336998	-0.380770	-0.853980
H187	H	1.428642	-0.441483	-0.852296
H188	H	1.434001	-0.393591	-0.769999
H189	H	1.356261	-0.444882	-0.769911
H190	H	1.373271	-0.353444	-0.892715
H191	H	1.295592	-0.404775	-0.892534
O192	O	1.292468	-0.805489	-0.230767
C193	C	1.303283	-0.867194	-0.124097
C194	C	1.247613	-0.837129	-0.179591
H195	H	1.267039	-0.892773	-0.082696
H196	H	1.344565	-0.892736	-0.160438
H197	H	1.339462	-0.838296	-0.088035
H198	H	1.211382	-0.865989	-0.215665
H199	H	1.206382	-0.811579	-0.143205
H200	H	0.443847	-0.312660	-0.472356
O201	O	1.241868	-0.317782	-0.676098
C202	C	1.342023	-0.384156	-0.684784
C203	C	1.286442	-0.347351	-0.730163
H204	H	1.378063	-0.408079	-0.728476
H205	H	1.383432	-0.360191	-0.646174
H206	H	1.305673	-0.411470	-0.646098
H207	H	1.322728	-0.320029	-0.768892
H208	H	1.245031	-0.371348	-0.768723
H209	H	1.233817	-0.450911	-0.289133
O210	O	0.561060	-0.351342	-0.530712
C211	C	0.433881	-0.381046	-0.575413
C212	C	0.479335	-0.344233	-0.519904
H213	H	0.367798	-0.375319	-0.566682
H214	H	0.450084	-0.371917	-0.639191
H215	H	0.450117	-0.423187	-0.561421
H216	H	0.463123	-0.302080	-0.533825
H217	H	0.463128	-0.353407	-0.456142
O218	O	1.292573	-0.697865	-0.230722
C219	C	1.392896	-0.703627	-0.130514
C220	C	1.337219	-0.733634	-0.186077
H221	H	1.428995	-0.732533	-0.094393
H222	H	1.434246	-0.678037	-0.166802
H223	H	1.356617	-0.678088	-0.089173
H224	H	1.373434	-0.759201	-0.227429
H225	H	1.295867	-0.759191	-0.149740
H226	H	1.234152	-1.052323	-0.289242
H227	H	1.050604	-1.052346	-0.472495
