data_functionalizedCrystal
_audit_creation_method	'MofGen! by Chris Wilmer'
_symmetry_space_group_name_H-M	'P1'
_symmetry_Int_Tables_number	1
_symmetry_cell_setting	triclinic
loop_
_symmetry_equiv_pos_as_xyz
  x,y,z
_cell_length_a	19.288859
_cell_length_b	19.288857
_cell_length_c	17.766277
_cell_angle_alpha	89.991474
_cell_angle_beta	89.989768
_cell_angle_gamma	83.133417
loop_
_atom_site_label
_atom_site_type_symbol
_atom_site_fract_x
_atom_site_fract_y
_atom_site_fract_z
O1	O	0.921353	0.086629	-0.062613
O2	O	0.719092	0.098322	-0.062611
O3	O	0.826070	-0.008656	-0.062603
O4	O	0.814375	0.193606	-0.062621
O5	O	0.826051	-0.008661	0.062586
O6	O	0.719073	0.098316	0.062577
O7	O	0.921335	0.086623	0.062576
Cu8	Cu	0.820202	0.092469	0.074007
Cu9	Cu	0.820224	0.092476	-0.074043
O10	O	0.814357	0.193601	0.062568
C11	C	0.693206	0.097944	-0.000017
C12	C	0.616102	0.096816	-0.000016
C13	C	0.052060	0.151960	-0.000022
C14	C	0.124506	0.153025	-0.000026
C15	C	0.169215	0.090256	-0.000019
C16	C	0.141472	0.026416	-0.000027
C17	C	0.069026	0.025353	-0.000031
C18	C	0.290480	0.043441	0.043847
C19	C	0.362923	0.044507	0.043855
C20	C	0.392661	0.093533	-0.000012
C21	C	0.349944	0.141505	-0.043877
C22	C	0.277498	0.140442	-0.043880
C23	C	0.247771	0.091402	-0.000016
C24	C	0.498950	0.158524	-0.000013
C25	C	0.571399	0.159587	-0.000022
C26	C	0.588363	0.032976	-0.000015
C27	C	0.515916	0.031915	-0.000014
C28	C	0.471214	0.094691	-0.000009
C29	C	0.825685	-0.034535	-0.000008
C30	C	0.824558	-0.111639	-0.000006
C31	C	0.824042	-0.147846	-0.068246
C32	C	0.822974	-0.220292	-0.068252
C33	C	0.822435	-0.256530	-0.000013
C34	C	0.822947	-0.220313	0.068236
C35	C	0.824008	-0.147867	0.068240
C36	C	0.861429	-0.376764	0.052262
C37	C	0.860371	-0.449209	0.052255
C38	C	0.819157	-0.479975	-0.000022
C39	C	0.779009	-0.438289	-0.052304
C40	C	0.780071	-0.365844	-0.052301
C41	C	0.821283	-0.335085	-0.000009
C42	C	0.817481	-0.594737	-0.068273
C43	C	0.816408	-0.667184	-0.068275
C44	C	0.816388	-0.667204	0.068215
C45	C	0.817454	-0.594758	0.068215
C46	C	0.818004	-0.558529	-0.000030
C47	C	0.947220	0.087001	-0.000020
C48	C	1.024324	0.088129	-0.000026
C49	C	0.814741	0.219480	-0.000029
C50	C	0.815868	0.296584	-0.000036
N51	N	0.820192	0.092464	0.178138
N52	N	0.820240	0.092475	-0.178173
C53	C	0.867577	0.045118	0.217528
C54	C	0.867581	0.045115	0.296330
C55	C	0.820206	0.092470	0.335738
C56	C	0.772812	0.139820	0.296338
C57	C	0.772805	0.139817	0.217538
C58	C	0.810906	0.155758	0.460571
C59	C	0.810918	0.155762	0.539369
C60	C	0.820225	0.092478	0.578785
C61	C	0.829534	0.029188	0.539391
C62	C	0.829527	0.029186	0.460591
C63	C	0.820209	0.092478	0.421184
C64	C	0.867617	0.045124	0.703621
C65	C	0.867616	0.045120	0.782424
C66	C	0.772851	0.139832	0.782431
C67	C	0.772848	0.139830	0.703629
C68	C	0.820235	0.092477	0.664229
H69	H	0.046446	-0.026628	-0.000034
H70	H	0.906200	0.006565	0.671540
N71	N	0.817994	-0.555686	-0.141901
H72	H	0.775365	-0.519885	-0.144912
H73	H	0.861490	-0.531413	-0.144979
N74	N	0.839583	-0.039077	0.581884
H75	H	0.797417	-0.043102	0.614591
H76	H	0.845500	-0.079121	0.544917
H77	H	0.803315	0.207294	0.428485
H78	H	0.177878	-0.024691	-0.000024
H79	H	0.734266	0.178386	0.671555
H80	H	0.824425	-0.118387	0.123811
N81	N	0.231429	0.192171	-0.091199
H82	H	0.204800	0.166217	-0.128701
H83	H	0.197407	0.221547	-0.057557
H84	H	0.734275	0.178386	0.814516
N85	N	0.258410	-0.009445	0.091159
H86	H	0.296461	-0.039668	0.118951
H87	H	0.224919	0.015670	0.128618
H88	H	0.824488	-0.118353	-0.123817
H89	H	0.822549	-0.249778	-0.123823
N90	N	0.918738	-0.005937	0.824914
H91	H	0.948760	-0.035927	0.787994
H92	H	0.949350	0.020597	0.857587
N93	N	0.903674	-0.494164	0.108642
H94	H	0.872064	-0.520055	0.140796
H95	H	0.938029	-0.528835	0.081089
H96	H	0.747380	-0.331906	-0.094870
N97	N	0.382009	0.194378	-0.091206
H98	H	0.343956	0.224602	-0.118996
H99	H	0.408075	0.224602	-0.057574
H100	H	0.734238	0.178376	0.328428
N101	N	0.636568	-0.034731	-0.000010
H102	H	0.667012	-0.037109	-0.046417
H103	H	0.666951	-0.037079	0.046428
N104	N	0.734556	-0.471461	-0.108697
H105	H	0.739971	-0.523679	-0.100766
H106	H	0.683994	-0.451996	-0.101697
N107	N	0.815804	-0.706273	0.141820
H108	H	0.772314	-0.730562	0.144861
H109	H	0.858440	-0.742064	0.144819
H110	H	0.906169	0.006558	0.328408
H111	H	0.803342	0.207296	0.571438
N112	N	0.408999	-0.007231	0.091158
H113	H	0.435630	0.018713	0.128668
H114	H	0.379129	-0.038446	0.118892
N115	N	0.815910	-0.706248	-0.141881
H116	H	0.816442	-0.672305	-0.185110
H117	H	0.858540	-0.742053	-0.144802
N118	N	0.486002	-0.036936	-0.000006
H119	H	0.456313	-0.040200	0.046401
H120	H	0.456365	-0.040156	-0.046444
N121	N	0.154433	0.221874	-0.000023
H122	H	0.115121	0.261480	-0.000021
H123	H	0.184112	0.225062	0.046389
N124	N	0.822374	-0.259396	0.141836
H125	H	0.822862	-0.225462	0.185069
H126	H	0.778885	-0.283690	0.144808
N127	N	0.818021	-0.555698	0.141816
H128	H	0.774785	-0.562542	0.171653
H129	H	0.860910	-0.574098	0.171588
H130	H	0.894989	-0.351721	0.094837
H131	H	0.734217	0.178373	0.185465
H132	H	0.462552	0.209640	-0.000011
N133	N	0.601317	0.228436	-0.000031
H134	H	0.562003	0.268040	-0.000030
H135	H	0.631002	0.231632	0.046375
H136	H	0.837105	-0.022347	0.428520
N137	N	0.003846	0.219665	0.000049
H138	H	0.032414	0.260264	0.000073
H139	H	-0.026603	0.222032	-0.046340
N140	N	0.918682	-0.005955	0.175032
H141	H	0.948700	-0.035951	0.211949
H142	H	0.892188	-0.036598	0.142354
