data_functionalizedCrystal
_audit_creation_method	'MofGen! by Chris Wilmer'
_symmetry_space_group_name_H-M	'P1'
_symmetry_Int_Tables_number	1
_symmetry_cell_setting	triclinic
loop_
_symmetry_equiv_pos_as_xyz
  x,y,z
_cell_length_a	21.395364
_cell_length_b	18.215399
_cell_length_c	21.395361
_cell_angle_alpha	90.034621
_cell_angle_beta	89.973528
_cell_angle_gamma	89.983349
loop_
_atom_site_label
_atom_site_type_symbol
_atom_site_fract_x
_atom_site_fract_y
_atom_site_fract_z
Zn1	Zn	0.957810	-0.416091	0.249501
Zn2	Zn	0.957727	-0.293015	0.354285
Zn3	Zn	0.853040	-0.293038	0.249517
Zn4	Zn	0.852995	-0.416040	0.354237
O5	O	0.905393	-0.354546	0.301885
O6	O	1.045477	-0.399776	0.263414
O7	O	0.943824	-0.190034	0.340414
O8	O	0.866992	-0.309392	0.161837
O9	O	1.045416	-0.309353	0.340398
O10	O	0.943966	-0.399798	0.161825
O11	O	0.866911	-0.190051	0.263442
O12	O	0.765356	-0.309344	0.263395
O13	O	0.866915	-0.519031	0.340317
O14	O	0.765323	-0.399713	0.340332
O15	O	0.943922	-0.519068	0.263367
O16	O	0.943781	-0.309304	0.441956
O17	O	0.866834	-0.399690	0.441921
C18	C	0.742605	-0.354526	0.301861
C19	C	0.672964	-0.354534	0.301866
C20	C	0.171199	-0.401716	0.261894
C21	C	0.236635	-0.401716	0.261889
C22	C	0.269326	-0.354563	0.301904
C23	C	0.236576	-0.307419	0.341938
C24	C	0.171142	-0.307426	0.341946
C25	C	0.372970	-0.288237	0.306769
C26	C	0.438403	-0.288229	0.306756
C27	C	0.471147	-0.354542	0.301883
C28	C	0.438449	-0.420865	0.297009
C29	C	0.373015	-0.420872	0.297017
C30	C	0.340278	-0.354550	0.301900
C31	C	0.574841	-0.401686	0.261850
C32	C	0.640277	-0.401688	0.261850
C33	C	0.640218	-0.307384	0.341895
C34	C	0.574783	-0.307389	0.341899
C35	C	0.542098	-0.354540	0.301873
C36	C	0.905423	-0.546499	0.301835
C37	C	0.905435	-0.628298	0.301814
C38	C	0.865420	-0.816502	0.261707
C39	C	0.865431	-0.893361	0.261694
C40	C	0.945525	-0.893332	0.341845
C41	C	0.945511	-0.816475	0.341861
C42	C	0.905459	-0.778062	0.301788
C43	C	0.905484	-0.931778	0.301760
C44	C	0.905497	-1.015112	0.301747
C45	C	0.905446	-0.694723	0.301802
C46	C	1.068816	-0.354567	0.301909
C47	C	1.138457	-0.354576	0.301920
C48	C	0.905310	-0.354505	0.464673
C49	C	0.905332	-0.354512	0.534314
C50	C	0.905400	-0.163340	0.301890
C51	C	0.905508	-0.081541	0.301734
C52	C	0.905493	-0.354603	0.138462
C53	C	0.905536	-0.354628	0.068820
C54	C	0.945434	-0.307496	0.567024
C55	C	0.945463	-0.307513	0.632460
C56	C	0.905379	-0.354538	0.665182
C57	C	0.865275	-0.401563	0.632464
C58	C	0.865251	-0.401550	0.567029
C59	C	0.848964	-0.360305	0.768892
C60	C	0.848986	-0.360312	0.834325
C61	C	0.905452	-0.354581	0.867003
C62	C	0.961897	-0.348826	0.834240
C63	C	0.961874	-0.348814	0.768806
C64	C	0.905401	-0.354557	0.736134
C65	C	0.945589	-0.307580	0.970666
C66	C	0.945619	-0.307602	1.036103
C67	C	0.865425	-0.401648	1.036105
C68	C	0.865401	-0.401630	0.970670
C69	C	0.905482	-0.354592	0.937954
H70	H	0.144484	-0.269037	0.374541
C71	C	0.821134	-0.453266	0.531046
H72	H	0.797263	-0.481273	0.559904
H73	H	0.845074	-0.485349	0.505477
H74	H	0.793837	-0.425073	0.505565
H75	H	0.832808	-0.785228	0.229077
C76	C	0.989528	-0.255765	0.531041
H77	H	1.013420	-0.227772	0.559898
H78	H	0.965572	-0.223669	0.505553
H79	H	1.016807	-0.283948	0.505477
C80	C	0.474455	-0.493815	0.291648
H81	H	0.445611	-0.533312	0.288742
H82	H	0.499969	-0.500208	0.327560
H83	H	0.499993	-0.492932	0.255322
H84	H	0.832827	-0.924655	0.229057
C85	C	0.989588	-0.935586	0.385914
H86	H	1.013429	-0.901682	0.409790
H87	H	1.016905	-0.965577	0.361939
H88	H	0.965611	-0.965556	0.413209
C89	C	0.821184	-0.453291	0.668452
H90	H	0.797300	-0.481295	0.639597
H91	H	0.793907	-0.425117	0.694019
H92	H	0.845149	-0.485388	0.693937
C93	C	0.474364	-0.215286	0.312191
H94	H	0.445493	-0.175797	0.315128
H95	H	0.499927	-0.208832	0.276300
H96	H	0.499850	-0.216226	0.348529
C97	C	0.135249	-0.453586	0.217872
H98	H	0.164125	-0.481666	0.194037
H99	H	0.109722	-0.425497	0.190548
H100	H	0.109728	-0.485608	0.241880
C101	C	0.272658	-0.453570	0.217856
H102	H	0.243820	-0.481648	0.194018
H103	H	0.298188	-0.485582	0.241850
H104	H	0.298182	-0.425462	0.190526
H105	H	0.978117	-0.785176	0.374502
C106	C	0.538882	-0.453553	0.217830
H107	H	0.495222	-0.446798	0.223561
H108	H	0.549616	-0.502979	0.227049
H109	H	0.549619	-0.442866	0.175718
H110	H	0.803025	-0.364990	0.860996
C111	C	0.676293	-0.453544	0.217818
H112	H	0.647454	-0.481618	0.193978
H113	H	0.701821	-0.485560	0.241811
H114	H	0.701820	-0.425439	0.190487
C115	C	0.989733	-0.255881	1.072084
H116	H	1.013594	-0.227863	1.043226
H117	H	1.017030	-0.284063	1.097569
H118	H	0.965785	-0.223796	1.097651
C119	C	0.989571	-0.255788	0.668449
H120	H	1.013435	-0.227769	0.639593
H121	H	1.016866	-0.283967	0.693938
H122	H	0.965619	-0.223703	0.694012
C123	C	0.676170	-0.255516	0.385912
H124	H	0.719830	-0.262261	0.380173
H125	H	0.665434	-0.266197	0.428021
H126	H	0.665435	-0.206087	0.376689
H127	H	0.548124	-0.268999	0.374490
C128	C	0.337047	-0.493819	0.291664
H129	H	0.293388	-0.484322	0.292363
H130	H	0.347768	-0.524702	0.325778
H131	H	0.347788	-0.517432	0.253539
H132	H	0.346316	-0.234234	0.310740
C133	C	1.023956	-0.342496	0.732765
H134	H	1.015852	-0.343307	0.689116
H135	H	1.050292	-0.382562	0.743441
H136	H	1.044022	-0.297714	0.743498
H137	H	1.007877	-0.344160	0.860845
H138	H	0.263198	-0.269028	0.374520
C139	C	0.786849	-0.366608	0.732950
H140	H	0.794919	-0.365783	0.689288
H141	H	0.760520	-0.326548	0.743721
H142	H	0.766794	-0.411395	0.743660
C143	C	0.989682	-0.255850	0.934676
H144	H	1.013577	-0.227859	0.963532
H145	H	0.965724	-0.223752	0.909192
H146	H	1.016957	-0.284032	0.909109
H147	H	0.832791	-0.439939	1.062747
C148	C	0.821281	-0.453339	0.934686
H149	H	0.797408	-0.481343	0.963544
H150	H	0.845218	-0.485425	0.909117
H151	H	0.793985	-0.425144	0.909204
