data_functionalizedCrystal
_audit_creation_method	'MofGen! by Chris Wilmer'
_symmetry_space_group_name_H-M	'P1'
_symmetry_Int_Tables_number	1
_symmetry_cell_setting	triclinic
loop_
_symmetry_equiv_pos_as_xyz
  x,y,z
_cell_length_a	17.038272
_cell_length_b	13.262390
_cell_length_c	12.376897
_cell_angle_alpha	92.995385
_cell_angle_beta	78.123148
_cell_angle_gamma	87.643524
loop_
_atom_site_label
_atom_site_type_symbol
_atom_site_fract_x
_atom_site_fract_y
_atom_site_fract_z
O1	O	0.034662	1.301450	0.494114
O2	O	0.058720	1.014833	0.406000
O3	O	-0.067054	1.156440	0.449525
O4	O	0.160437	1.159843	0.450589
O5	O	-0.041750	1.192467	0.272604
O6	O	0.084024	1.050860	0.229079
O7	O	0.059966	1.337477	0.317194
Zn8	Zn	0.076013	1.199889	0.245046
Zn9	Zn	0.042673	1.152421	0.478147
O10	O	0.185741	1.195870	0.273669
C11	C	0.072351	0.995992	0.306209
C12	C	0.075258	0.886178	0.272449
C13	C	0.028266	0.498080	0.563058
C14	C	0.025531	0.601256	0.594779
C15	C	0.037962	0.672491	0.514199
C16	C	0.053130	0.640541	0.401893
C17	C	0.055859	0.537356	0.370168
C18	C	0.065555	0.711767	0.321310
C19	C	0.080723	0.679816	0.209003
C20	C	0.083452	0.576640	0.177285
C21	C	0.071020	0.505405	0.257864
C22	C	0.062826	0.814952	0.353034
C23	C	0.090419	0.854228	0.160145
C24	C	0.093154	0.751052	0.128424
C25	C	-0.083406	1.171354	0.360112
C26	C	-0.169826	1.162110	0.357270
C27	C	-0.223361	1.246988	0.383363
C28	C	-0.304563	1.238294	0.380701
C29	C	-0.332226	1.144721	0.351938
C30	C	-0.278685	1.059836	0.325846
C31	C	-0.197486	1.068530	0.328516
C32	C	-0.576748	1.114007	0.342511
C33	C	-0.657954	1.105320	0.339840
C34	C	-0.683827	1.283778	0.394697
C35	C	-0.602624	1.292465	0.397358
C36	C	-0.549090	1.207578	0.371272
C37	C	-0.415227	1.135833	0.349213
C38	C	-0.466093	1.216466	0.374005
C39	C	0.202092	1.180955	0.363084
C40	C	0.288511	1.190198	0.365932
C41	C	0.046335	1.356317	0.416986
C42	C	0.043427	1.466130	0.450754
N43	N	0.098765	1.232291	0.085964
C44	C	-0.032906	1.044773	-0.326752
C45	C	-0.048832	1.022079	-0.215399
C46	C	-0.011934	1.074630	-0.140053
C47	C	0.040892	1.149879	-0.176071
C48	C	0.056815	1.172581	-0.287433
C49	C	0.077787	1.202438	-0.100734
C50	C	0.130614	1.277687	-0.136751
C51	C	0.146534	1.300385	-0.248103
C52	C	0.109636	1.247834	-0.323449
C53	C	0.061865	1.179736	0.010628
C54	C	0.151586	1.307544	0.049948
C55	C	0.167512	1.330238	-0.061405
N56	N	0.019914	1.120026	0.637232
H57	H	-0.200844	1.323186	0.406779
H58	H	-0.348149	1.307411	0.401946
H59	H	0.095788	0.550632	0.085838
N60	N	-0.105790	0.940907	-0.176561
H61	H	-0.110278	0.934499	-0.094586
H62	H	-0.160462	0.959613	-0.191487
H63	H	-0.580107	1.368661	0.420779
N64	N	-0.072708	0.988109	-0.408009
H65	H	-0.054607	1.013914	-0.484015
H66	H	-0.057220	0.913582	-0.410263
H67	H	0.018854	1.118466	0.039942
N68	N	-0.436256	1.317389	0.405014
H69	H	-0.482488	1.369848	0.421136
H70	H	-0.412506	1.311531	0.472904
N71	N	0.035005	0.783775	0.548407
H72	H	0.023509	0.793207	0.631779
H73	H	0.088369	0.812337	0.516911
H74	H	-0.680470	1.029122	0.316399
N75	N	-0.139730	0.976994	0.300353
H76	H	-0.114837	0.963267	0.365820
H77	H	-0.169618	0.916452	0.281693
N78	N	0.103825	0.931048	0.073223
H79	H	0.099797	1.001259	0.110360
H80	H	0.158922	0.917649	0.024355
N81	N	0.126861	1.272738	-0.443422
H82	H	0.110408	1.346008	-0.448975
H83	H	0.186192	1.260726	-0.475533
H84	H	0.210524	1.391508	-0.090747
N85	N	-0.741565	1.375330	0.422829
H86	H	-0.797202	1.355629	0.416774
H87	H	-0.742398	1.402459	0.500861
H88	H	0.189541	1.361667	-0.277421
N89	N	0.191382	1.364232	0.131207
H90	H	0.224640	1.315013	0.165162
H91	H	0.227215	1.415352	0.091426
N92	N	0.046474	0.849397	0.474159
H93	H	0.093321	0.887390	0.490418
H94	H	-0.003892	0.895228	0.492751
H95	H	0.013177	0.627263	0.686219
N96	N	-0.519014	1.022455	0.314372
H97	H	-0.548862	0.961863	0.295741
H98	H	-0.475383	1.035529	0.248699
H99	H	-0.024904	1.056147	-0.049386
H100	H	-0.437759	1.059646	0.325791
N101	N	0.014845	0.421254	0.649960
H102	H	0.018872	0.351044	0.612819
H103	H	0.056937	0.426763	0.696421
H104	H	0.073249	0.421389	0.232042
H105	H	0.105503	0.725023	0.036982
H106	H	-0.301216	0.983646	0.302433
