data_functionalizedCrystal
_audit_creation_method	'MofGen! by Chris Wilmer'
_symmetry_space_group_name_H-M	'P1'
_symmetry_Int_Tables_number	1
_symmetry_cell_setting	triclinic
loop_
_symmetry_equiv_pos_as_xyz
  x,y,z
_cell_length_a	19.805407
_cell_length_b	21.295417
_cell_length_c	21.295411
_cell_angle_alpha	90.021644
_cell_angle_beta	90.025486
_cell_angle_gamma	90.030507
loop_
_atom_site_label
_atom_site_type_symbol
_atom_site_fract_x
_atom_site_fract_y
_atom_site_fract_z
Zn1	Zn	1.034756	-0.250681	0.355927
Zn2	Zn	1.368089	0.082652	0.689260
Zn3	Zn	1.701423	0.415986	1.022594
Zn4	Zn	1.034651	-0.355933	0.250652
Zn5	Zn	1.367984	-0.022599	0.583986
Zn6	Zn	1.701318	0.310734	0.917319
Zn7	Zn	0.921559	-0.250681	0.250670
Zn8	Zn	1.254892	0.082652	0.584004
Zn9	Zn	1.588226	0.415985	0.917337
Zn10	Zn	0.921526	-0.355916	0.355882
Zn11	Zn	1.254859	-0.022583	0.689216
Zn12	Zn	1.588193	0.310750	1.022549
O13	O	0.978123	-0.303303	0.303283
O14	O	1.311456	0.030031	0.636616
O15	O	1.644790	0.363364	0.969950
O16	O	1.129459	-0.264650	0.341973
O17	O	1.462792	0.068684	0.675307
O18	O	1.796125	0.402017	1.008640
O19	O	1.019619	-0.341978	0.162565
O20	O	1.352952	-0.008645	0.495899
O21	O	1.686286	0.324689	0.829232
O22	O	0.936632	-0.162592	0.264659
O23	O	1.269966	0.170741	0.597992
O24	O	1.603299	0.504075	0.931326
O25	O	1.129381	-0.341978	0.264628
O26	O	1.462715	-0.008644	0.597962
O27	O	1.796048	0.324689	0.931295
O28	O	1.019798	-0.162592	0.341991
O29	O	1.353131	0.170742	0.675324
O30	O	1.686464	0.504075	1.008657
O31	O	0.936531	-0.264650	0.162578
O32	O	1.269864	0.068683	0.495912
O33	O	1.603197	0.402016	0.829245
O34	O	0.826838	-0.264634	0.264616
O35	O	1.160171	0.068699	0.597949
O36	O	1.493505	0.402032	0.931282
O37	O	0.936576	-0.341949	0.443978
O38	O	1.269910	-0.008616	0.777311
O39	O	1.603243	0.324717	1.110644
O40	O	0.826814	-0.341950	0.341915
O41	O	1.160147	-0.008617	0.675248
O42	O	1.493480	0.324717	1.008581
O43	O	1.019766	-0.264633	0.444010
O44	O	1.353099	0.068700	0.777344
O45	O	1.686432	0.402033	1.110677
O46	O	1.019587	-0.444020	0.264585
O47	O	1.352920	-0.110687	0.597919
O48	O	1.686254	0.222647	0.931252
O49	O	0.936475	-0.444008	0.341897
O50	O	1.269808	-0.110674	0.675231
O51	O	1.603141	0.222659	1.008564
C52	C	0.802267	-0.303291	0.303263
C53	C	1.135600	0.030043	0.636596
C54	C	1.468934	0.363376	0.969929
C55	C	0.727035	-0.303301	0.303269
C56	C	1.060368	0.030033	0.636602
C57	C	1.393702	0.363366	0.969936
C58	C	0.691696	-0.343620	0.343453
C59	C	1.025029	-0.010286	0.676787
C60	C	1.358363	0.323047	1.010120
C61	C	0.621007	-0.343621	0.343462
C62	C	0.954341	-0.010287	0.676795
C63	C	1.287674	0.323046	1.010129
C64	C	0.585659	-0.303306	0.303283
C65	C	0.918993	0.030028	0.636616
C66	C	1.252326	0.363361	0.969950
C67	C	0.621003	-0.262982	0.263097
C68	C	0.954337	0.070351	0.596430
C69	C	1.287670	0.403684	0.929764
C70	C	0.691690	-0.262979	0.263092
C71	C	1.025024	0.070355	0.596425
C72	C	1.358357	0.403688	0.929758
C73	C	0.335930	-0.262996	0.263118
C74	C	0.669263	0.070337	0.596451
C75	C	1.002597	0.403670	0.929784
C76	C	0.265238	-0.263005	0.263125
C77	C	0.598571	0.070329	0.596458
C78	C	0.931905	0.403662	0.929791
C79	C	0.265247	-0.343638	0.343488
C80	C	0.598580	-0.010305	0.676821
C81	C	0.931914	0.323028	1.010155
C82	C	0.335934	-0.343635	0.343483
C83	C	0.669267	-0.010301	0.676816
C84	C	1.002601	0.323032	1.010150
C85	C	0.371272	-0.303309	0.303299
C86	C	0.704605	0.030024	0.636633
C87	C	1.037939	0.363357	0.969966
C88	C	0.447920	-0.303308	0.303291
C89	C	0.781254	0.030026	0.636624
C90	C	1.114587	0.363359	0.969958
C91	C	0.509012	-0.303310	0.303288
C92	C	0.842346	0.030023	0.636621
C93	C	1.175679	0.363357	0.969954
C94	C	0.978034	-0.466854	0.303248
C95	C	1.311367	-0.133521	0.636581
C96	C	1.644701	0.199812	0.969915
C97	C	0.978058	-0.536823	0.303254
C98	C	1.311391	-0.203489	0.636588
C99	C	1.644725	0.129844	0.969921
C100	C	1.021373	-0.569675	0.263039
C101	C	1.354707	-0.236341	0.596372
C102	C	1.688040	0.096992	0.929706
C103	C	1.021405	-0.635417	0.263053
C104	C	1.354738	-0.302084	0.596387
C105	C	1.688072	0.031250	0.929720
C106	C	0.978109	-0.668305	0.303276
C107	C	1.311443	-0.334972	0.636609
C108	C	1.644776	-0.001638	0.969943
C109	C	0.934791	-0.635445	0.343499
C110	C	1.268125	-0.302112	0.676832
C111	C	1.601458	0.031222	1.010166
C112	C	0.934766	-0.569704	0.343488
C113	C	1.268099	-0.236370	0.676821
C114	C	1.601432	0.096963	1.010155
N115	N	0.918900	-0.771572	0.308068
N116	N	1.252233	-0.438238	0.641401
N117	N	1.585566	-0.104905	0.974735
N118	N	0.918926	-0.834023	0.308075
N119	N	1.252259	-0.500690	0.641408
N120	N	1.585593	-0.167356	0.974741
C121	C	0.978185	-0.866380	0.303312
C122	C	1.311519	-0.533046	0.636645
C123	C	1.644852	-0.199713	0.969979
N124	N	1.037419	-0.833926	0.298530
N125	N	1.370752	-0.500592	0.631864
N126	N	1.704085	-0.167259	0.965197
N127	N	1.037392	-0.771468	0.298520
N128	N	1.370725	-0.438135	0.631854
N129	N	1.704058	-0.104802	0.965187
C130	C	0.978133	-0.739590	0.303293
C131	C	1.311466	-0.406257	0.636626
C132	C	1.644799	-0.072924	0.969959
C133	C	1.021538	-0.970517	0.263110
C134	C	1.354872	-0.637184	0.596443
C135	C	1.688205	-0.303851	0.929777
C136	C	1.021571	-1.036261	0.263129
C137	C	1.354905	-0.702928	0.596462
C138	C	1.688238	-0.369594	0.929795
C139	C	0.934952	-1.036288	0.343571
C140	C	1.268285	-0.702954	0.676904
C141	C	1.601618	-0.369621	1.010238
C142	C	0.934925	-0.970545	0.343556
C143	C	1.268258	-0.637212	0.676889
C144	C	1.601592	-0.303879	1.010222
C145	C	0.978217	-0.937664	0.303322
C146	C	1.311551	-0.604331	0.636655
C147	C	1.644884	-0.270997	0.969989
C148	C	1.154666	-0.303315	0.303304
C149	C	1.487999	0.030018	0.636637
C150	C	1.821332	0.363351	0.969970
C151	C	1.229898	-0.303321	0.303313
C152	C	1.563231	0.030013	0.636646
C153	C	1.896564	0.363346	0.969979
C154	C	0.978179	-0.303290	0.467473
C155	C	1.311512	0.030044	0.800807
C156	C	1.644846	0.363377	1.134140
C157	C	0.978203	-0.303284	0.537441
C158	C	1.311536	0.030049	0.870775
C159	C	1.644870	0.363383	1.204108
C160	C	0.978230	-0.139113	0.303332
C161	C	1.311564	0.194221	0.636665
C162	C	1.644897	0.527554	0.969998
C163	C	0.978276	-0.069144	0.303353
C164	C	1.311610	0.264189	0.636686
C165	C	1.644943	0.597522	0.970019
C166	C	0.978106	-0.303271	0.139731
C167	C	1.311439	0.030063	0.473065
C168	C	1.644773	0.363396	0.806398
C169	C	0.978213	-0.303099	0.069764
C170	C	1.311546	0.030234	0.403097
C171	C	1.644880	0.363568	0.736430
C172	C	1.021518	-0.263024	0.570326
C173	C	1.354851	0.070310	0.903660
C174	C	1.688185	0.403643	1.236993
C175	C	1.021517	-0.262996	0.636069
C176	C	1.354850	0.070337	0.969402
C177	C	1.688184	0.403670	1.302735
C178	C	0.978208	-0.303241	0.668924
C179	C	1.311542	0.030093	1.002257
C180	C	1.644875	0.363426	1.335591
C181	C	0.934885	-0.343504	0.636031
C182	C	1.268218	-0.010170	0.969365
C183	C	1.601552	0.323163	1.302698
C184	C	0.934882	-0.343525	0.570290
C185	C	1.268216	-0.010192	0.903623
C186	C	1.601549	0.323141	1.236957
N187	N	0.972986	-0.358308	0.772139
N188	N	1.306320	-0.024975	1.105473
N189	N	1.639653	0.308358	1.438806
N190	N	0.972993	-0.358286	0.834591
N191	N	1.306326	-0.024953	1.167924
N192	N	1.639659	0.308381	1.501257
C193	C	0.978213	-0.303177	0.866999
C194	C	1.311546	0.030157	1.200332
C195	C	1.644879	0.363490	1.533666
N196	N	0.983439	-0.248089	0.834596
N197	N	1.316772	0.085244	1.167930
N198	N	1.650106	0.418577	1.501263
N199	N	0.983436	-0.248113	0.772139
N200	N	1.316769	0.085221	1.105472
N201	N	1.650103	0.418554	1.438806
C202	C	0.978206	-0.303221	0.740209
C203	C	1.311539	0.030112	1.073543
C204	C	1.644873	0.363445	1.406876
C205	C	1.021529	-0.262884	0.971169
C206	C	1.354862	0.070450	1.304503
C207	C	1.688195	0.403783	1.637836
C208	C	1.021523	-0.262855	1.036913
C209	C	1.354856	0.070478	1.370246
C210	C	1.688190	0.403812	1.703580
C211	C	0.934895	-0.343368	1.036874
C212	C	1.268228	-0.010035	1.370208
C213	C	1.601561	0.323299	1.703541
C214	C	0.934897	-0.343391	0.971132
C215	C	1.268230	-0.010057	1.304465
C216	C	1.601563	0.323276	1.637798
C217	C	0.978217	-0.303149	0.938283
C218	C	1.311551	0.030184	1.271617
C219	C	1.644884	0.363517	1.604950
H220	H	0.592237	-0.376453	0.376184
H221	H	0.925571	-0.043120	0.709517
H222	H	1.258904	0.290214	1.042850
H223	H	1.056794	-0.230067	1.063687
H224	H	1.390128	0.103267	1.397020
H225	H	1.723461	0.436600	1.730353
H226	H	1.056792	-0.230255	0.543585
H227	H	1.390126	0.103078	0.876918
H228	H	1.723459	0.436411	1.210252
H229	H	1.056848	-1.063008	0.230382
H230	H	1.390181	-0.729675	0.563715
H231	H	1.723515	-0.396341	0.897049
Cl232	Cl	1.075961	-0.212367	0.677418
Cl233	Cl	1.409294	0.120966	1.010752
Cl234	Cl	1.742627	0.454300	1.344085
Cl235	Cl	0.880442	-0.393956	1.078172
Cl236	Cl	1.213776	-0.060622	1.411505
Cl237	Cl	1.547109	0.272711	1.744839
H238	H	0.899621	-0.376269	0.662786
H239	H	1.232954	-0.042935	0.996120
H240	H	1.566287	0.290398	1.329453
Cl241	Cl	0.736126	-0.394307	0.393964
Cl242	Cl	1.069460	-0.060974	0.727298
Cl243	Cl	1.402793	0.272359	1.060631
H244	H	0.592217	-0.230155	0.230385
H245	H	0.925551	0.103179	0.563718
H246	H	1.258884	0.436512	0.897052
H247	H	0.899607	-0.376309	0.543516
H248	H	1.232940	-0.042976	0.876849
H249	H	1.566274	0.290358	1.210182
Cl250	Cl	1.075962	-0.929178	0.212531
Cl251	Cl	1.409295	-0.595845	0.545865
Cl252	Cl	1.742628	-0.262511	0.879198
Cl253	Cl	0.880443	-0.394009	0.929789
Cl254	Cl	1.213776	-0.060676	1.263122
Cl255	Cl	1.547110	0.272657	1.596455
H256	H	0.899703	-1.063064	0.376324
H257	H	1.233036	-0.729731	0.709657
H258	H	1.566369	-0.396398	1.042991
H259	H	0.364711	-0.376465	0.376199
H260	H	0.698044	-0.043132	0.709532
H261	H	1.031378	0.290201	1.042865
Cl262	Cl	0.220818	-0.394334	0.394006
Cl263	Cl	0.554151	-0.061000	0.727339
Cl264	Cl	0.887485	0.272333	1.060673
H265	H	0.236459	-0.230171	0.230406
H266	H	0.569793	0.103162	0.563739
H267	H	0.903126	0.436495	0.897073
Cl268	Cl	0.880465	-0.929243	0.394112
Cl269	Cl	1.213798	-0.595910	0.727445
Cl270	Cl	1.547132	-0.262576	1.060779
Cl271	Cl	1.075984	-0.212292	0.929871
Cl272	Cl	1.409318	0.121041	1.263204
Cl273	Cl	1.742651	0.454374	1.596537
H274	H	0.364694	-0.230166	0.230393
H275	H	0.698027	0.103168	0.563726
H276	H	1.031360	0.436501	0.897060
Cl277	Cl	0.736117	-0.212288	0.212574
Cl278	Cl	1.069450	0.121045	0.545907
Cl279	Cl	1.402784	0.454378	0.879240
H280	H	1.056626	-0.542905	0.230280
H281	H	1.389959	-0.209571	0.563613
H282	H	1.723293	0.123762	0.896947
H283	H	0.899541	-0.662227	0.376250
H284	H	1.232874	-0.328893	0.709583
H285	H	1.566208	0.004440	1.042916
Cl286	Cl	1.075861	-0.676726	0.212492
Cl287	Cl	1.409195	-0.343392	0.545825
Cl288	Cl	1.742528	-0.010059	0.879159
Cl289	Cl	0.880307	-0.528402	0.394048
Cl290	Cl	1.213640	-0.195068	0.727381
Cl291	Cl	1.546974	0.138265	1.060715
