data_functionalizedCrystal
_audit_creation_method	'MofGen! by Chris Wilmer'
_symmetry_space_group_name_H-M	'P1'
_symmetry_Int_Tables_number	1
_symmetry_cell_setting	triclinic
loop_
_symmetry_equiv_pos_as_xyz
  x,y,z
_cell_length_a	14.853567
_cell_length_b	15.944493
_cell_length_c	13.330367
_cell_angle_alpha	90.001230
_cell_angle_beta	89.995418
_cell_angle_gamma	83.554987
loop_
_atom_site_label
_atom_site_type_symbol
_atom_site_fract_x
_atom_site_fract_y
_atom_site_fract_z
O1	O	1.196204	0.109667	-0.083341
O2	O	0.933724	0.122732	-0.083357
O3	O	1.072159	-0.006071	-0.083357
O4	O	1.057769	0.238470	-0.083341
O5	O	1.072139	-0.006074	0.083491
O6	O	0.933704	0.122729	0.083491
O7	O	1.196183	0.109665	0.083506
Cu8	Cu	1.064942	0.116196	0.098733
Cu9	Cu	1.064966	0.116200	-0.098583
O10	O	1.057749	0.238467	0.083506
C11	C	0.900126	0.122138	0.000065
C12	C	0.800045	0.120364	0.000058
C13	C	1.071561	-0.037368	0.000063
C14	C	1.069797	-0.130618	0.000050
C15	C	0.387638	0.036355	0.000075
C16	C	0.366127	0.189375	0.000084
C17	C	0.460158	0.191042	0.000081
C18	C	0.517934	0.115365	0.000074
C19	C	0.481678	0.038020	0.000069
C20	C	0.496420	0.268386	0.000075
C21	C	0.590457	0.270057	0.000071
C22	C	0.648235	0.194379	0.000071
C23	C	0.611974	0.117031	0.000067
C24	C	0.669750	0.041354	0.000060
C25	C	0.633491	-0.035995	0.000064
C26	C	0.539456	-0.037658	0.000069
C27	C	0.742270	0.196041	0.000066
C28	C	0.763790	0.043019	0.000054
C29	C	1.151283	-0.366287	0.000074
C30	C	1.107351	-0.416903	-0.082193
C31	C	1.066530	-0.301343	0.000062
C32	C	1.107311	-0.416882	0.082305
C33	C	1.063381	-0.466256	0.000078
C34	C	1.022621	-0.350730	-0.082272
C35	C	1.022594	-0.350706	0.082300
C36	C	0.978599	-0.401288	0.000013
C37	C	1.068347	-0.206341	0.000052
C38	C	1.061557	-0.561255	0.000081
C39	C	1.229781	0.110258	0.000083
C40	C	1.329862	0.112032	0.000083
C41	C	1.058347	0.269764	0.000085
C42	C	1.060110	0.363014	0.000091
N43	N	1.064932	0.116193	0.237514
N44	N	1.064983	0.116196	-0.237365
C45	C	1.003664	0.173211	0.710137
C46	C	1.126291	0.059182	0.710105
C47	C	1.126281	0.059179	0.605087
C48	C	1.064963	0.116194	0.552589
C49	C	1.003654	0.173212	0.605109
C50	C	1.187595	0.002169	0.552559
C51	C	1.187588	0.002164	0.447534
C52	C	1.126264	0.059176	0.395034
C53	C	1.064952	0.116195	0.447561
C54	C	1.003634	0.173210	0.395063
C55	C	0.942317	0.230226	0.447588
C56	C	0.942330	0.230223	0.552609
C57	C	1.126251	0.059179	0.290012
C58	C	1.003623	0.173211	0.290035
H59	H	0.810826	-0.018607	0.000052
N60	N	0.940999	0.231465	0.236414
N61	N	0.969587	0.283660	0.177814
H62	H	0.925360	0.324804	0.139945
N63	N	0.941020	0.231446	0.763770
N64	N	0.857696	0.230146	0.752047
H65	H	0.813450	0.271273	0.789925
H66	H	0.449373	0.329998	0.000071
H67	H	1.224287	-0.350577	-0.000005
N68	N	1.152203	-0.453133	0.169557
N69	N	1.157425	-0.531000	0.183904
H70	H	1.189133	-0.556602	0.245523
N71	N	0.879697	0.288466	0.393942
N72	N	0.879711	0.288458	0.300173
H73	H	0.835488	0.329589	0.262280
N74	N	1.188911	0.000941	0.763735
N75	N	1.187692	-0.076705	0.752021
H76	H	1.231918	-0.117840	0.789904
H77	H	1.237523	-0.044247	0.595306
N78	N	1.152265	-0.453185	-0.169425
N79	N	1.157486	-0.531057	-0.183741
H80	H	1.189212	-0.556681	-0.245345
H81	H	0.619970	0.333039	0.000068
N82	N	1.250253	-0.056051	0.393902
N83	N	1.305017	-0.106932	0.440788
H84	H	1.349285	-0.148038	0.402910
H85	H	0.358112	-0.026621	0.000082
N86	N	0.879707	0.288452	0.606277
N87	N	0.879730	0.288443	0.700046
H88	H	0.835505	0.329568	0.737954
H89	H	0.771787	0.259018	0.000064
H90	H	0.319080	0.250987	0.000082
N91	N	1.188799	0.000864	0.236376
N92	N	1.243489	-0.050088	0.283261
H93	H	1.287634	-0.091308	0.245381
N94	N	0.977761	-0.314619	-0.169614
N95	N	0.971925	-0.236696	-0.183734
H96	H	0.940245	-0.211190	-0.245418
N97	N	0.977710	-0.314411	0.169535
N98	N	0.909596	-0.261331	0.160427
H99	H	0.877899	-0.235698	0.222043
H100	H	0.509925	-0.100631	0.000096
H101	H	0.680545	-0.097611	0.000051
H102	H	0.905538	-0.416836	-0.000036
