data_functionalizedCrystal
_audit_creation_method	'MofGen! by Chris Wilmer'
_symmetry_space_group_name_H-M	'P1'
_symmetry_Int_Tables_number	1
_symmetry_cell_setting	triclinic
loop_
_symmetry_equiv_pos_as_xyz
  x,y,z
_cell_length_a	18.050591
_cell_length_b	18.050590
_cell_length_c	11.169409
_cell_angle_alpha	90.037983
_cell_angle_beta	90.028021
_cell_angle_gamma	90.015000
loop_
_atom_site_label
_atom_site_type_symbol
_atom_site_fract_x
_atom_site_fract_y
_atom_site_fract_z
Zn1	Zn	1.135403	-0.295670	0.678758
Zn2	Zn	1.135317	-0.419885	0.478055
Zn3	Zn	1.011204	-0.295705	0.478064
Zn4	Zn	1.011191	-0.419815	0.678671
O5	O	1.073279	-0.357769	0.578387
O6	O	1.239316	-0.312161	0.652167
O7	O	1.118822	-0.403456	0.310106
O8	O	1.027721	-0.191776	0.504726
O9	O	1.239253	-0.403422	0.504712
O10	O	1.118969	-0.191750	0.652175
O11	O	1.027637	-0.312222	0.310113
O12	O	0.907278	-0.312154	0.504642
O13	O	1.027699	-0.403302	0.846633
O14	O	0.907268	-0.403337	0.652028
O15	O	1.118957	-0.312093	0.846696
O16	O	1.118810	-0.523800	0.504627
O17	O	1.027615	-0.523748	0.652019
C18	C	0.880327	-0.357742	0.578327
C19	C	0.797781	-0.357749	0.578330
C20	C	1.073222	-0.550721	0.578339
C21	C	1.073265	-0.633266	0.578359
C22	C	0.548939	-0.308113	0.498371
C23	C	0.598378	-0.290014	0.607903
C24	C	0.500661	-0.357787	0.578428
C25	C	0.598303	-0.375832	0.468854
C26	C	0.646646	-0.357767	0.578374
C27	C	0.549012	-0.339654	0.688018
C28	C	0.548933	-0.425503	0.548896
C29	C	0.598350	-0.407430	0.658503
C30	C	0.416562	-0.357797	0.578458
C31	C	0.730742	-0.357757	0.578357
C32	C	1.122960	-0.832718	0.498319
C33	C	1.141105	-0.882040	0.607859
C34	C	1.073307	-0.784397	0.578407
C35	C	1.055238	-0.882156	0.468916
C36	C	1.073350	-0.930382	0.578443
C37	C	1.091487	-0.832632	0.688005
C38	C	1.005588	-0.832743	0.548987
C39	C	1.023708	-0.882043	0.658603
C40	C	1.073285	-0.700298	0.578384
C41	C	1.073372	-1.014478	0.578478
C42	C	1.266984	-0.357795	0.578448
C43	C	1.349530	-0.357807	0.578474
C44	C	1.073336	-0.357686	0.891430
C45	C	1.073360	-0.357651	1.024830
C46	C	1.073356	-0.164063	0.578461
C47	C	1.073389	-0.081517	0.578493
C48	C	1.073265	-0.357797	0.266562
C49	C	1.073384	-0.357623	0.133163
H50	H	0.527246	-0.266082	0.430776
H51	H	1.198392	-0.903697	0.632766
H52	H	1.106731	-0.810971	0.780694
H53	H	1.039937	-0.903909	0.376306
H54	H	0.620083	-0.232737	0.632881
Cl55	Cl	1.187807	-0.799275	0.393860
Cl56	Cl	0.515726	-0.315971	0.831093
Cl57	Cl	0.631635	-0.472276	0.763108
Cl58	Cl	0.958907	-0.915276	0.763309
Cl59	Cl	0.631736	-0.399410	0.325824
Cl60	Cl	0.515371	-0.513904	0.510302
Cl61	Cl	0.917164	-0.799285	0.510487
