data_functionalizedCrystal
_audit_creation_method	'MofGen! by Chris Wilmer'
_symmetry_space_group_name_H-M	'P1'
_symmetry_Int_Tables_number	1
_symmetry_cell_setting	triclinic
loop_
_symmetry_equiv_pos_as_xyz
  x,y,z
_cell_length_a	13.635800
_cell_length_b	27.923496
_cell_length_c	12.908943
_cell_angle_alpha	83.234064
_cell_angle_beta	100.860631
_cell_angle_gamma	81.036054
loop_
_atom_site_label
_atom_site_type_symbol
_atom_site_fract_x
_atom_site_fract_y
_atom_site_fract_z
V1	V	1.987120	-0.066519	0.329342
O2	O	1.992786	0.003820	0.322387
O3	O	1.952086	-0.132495	0.327749
O4	O	1.956473	-0.065222	0.472679
O5	O	1.988368	-0.063919	0.176454
V6	V	2.231174	-0.058138	0.310976
O7	O	2.112722	-0.084903	0.369631
O8	O	2.330670	-0.039753	0.270687
O9	O	2.154605	0.007838	0.312569
O10	O	2.284207	-0.128476	0.317931
O11	O	2.288624	-0.060738	0.463864
O12	O	2.150218	-0.059434	0.167639
V13	V	2.487120	-0.066519	0.329342
O14	O	2.492786	0.003820	0.322387
O15	O	2.452086	-0.132495	0.327749
O16	O	2.456473	-0.065222	0.472679
O17	O	2.488368	-0.063919	0.176454
V18	V	2.731174	-0.058138	0.310976
O19	O	2.612722	-0.084903	0.369631
O20	O	2.830670	-0.039753	0.270687
O21	O	2.654605	0.007838	0.312569
O22	O	2.784207	-0.128476	0.317931
O23	O	2.788624	-0.060738	0.463864
O24	O	2.650218	-0.059434	0.167639
C25	C	1.872159	-0.148587	0.322724
C26	C	1.884115	-0.202521	0.322377
C27	C	2.048783	-0.539443	0.325625
C28	C	2.093779	-0.742154	0.324370
O29	O	2.176488	-0.770462	0.328748
N30	N	2.008997	-0.765039	0.318924
C31	C	1.912961	-0.737243	0.313798
O32	O	1.841883	-0.761360	0.309148
C33	C	1.867968	-0.534534	0.315061
C34	C	1.952754	-0.511651	0.320496
C35	C	2.133562	-0.516560	0.331061
C36	C	2.122312	-0.465885	0.331369
C37	C	2.026283	-0.438092	0.326240
C38	C	1.941504	-0.460975	0.320804
C39	C	1.771934	-0.506739	0.309942
C40	C	1.760694	-0.456059	0.310261
C41	C	1.845480	-0.433176	0.315697
C42	C	1.834225	-0.382508	0.315983
N43	N	1.919007	-0.359623	0.321429
C44	C	2.015036	-0.387415	0.326558
C45	C	1.936589	-0.843669	0.313134
C46	C	1.947836	-0.894346	0.312816
C47	C	2.128654	-0.899254	0.323390
C48	C	2.117404	-0.848575	0.323700
C49	C	2.021370	-0.820784	0.318580
C50	C	1.991403	-0.280993	0.327203
C51	C	1.980144	-0.230313	0.327506
C52	C	1.799329	-0.225411	0.316937
C53	C	1.810586	-0.276086	0.316629
C54	C	1.906631	-0.303877	0.321766
O55	O	1.751551	-0.354171	0.311619
O56	O	2.086104	-0.363291	0.331231
C57	C	2.060033	-0.590118	0.325317
C58	C	1.975254	-0.613001	0.319881
C59	C	1.879225	-0.585209	0.314752
C60	C	1.986502	-0.663678	0.319563
C61	C	2.082531	-0.691470	0.324692
C62	C	2.167312	-0.668586	0.330138
C63	C	2.156062	-0.617910	0.330445
C64	C	1.794444	-0.608094	0.309306
C65	C	1.805701	-0.658769	0.308997
C66	C	1.901730	-0.686561	0.314126
C67	C	1.877755	-0.062773	0.507595
C68	C	1.893267	-0.062150	0.624778
C69	C	2.066202	0.023928	0.317591
C70	C	2.043865	0.077862	0.317945
C71	C	2.060607	-0.061885	0.132718
C72	C	2.034714	-0.062506	0.015534
C73	C	2.372159	-0.148587	0.322724
C74	C	2.384115	-0.202521	0.322377
C75	C	2.377755	-0.062773	0.507595
C76	C	2.393267	-0.062150	0.624778
C77	C	2.103252	-0.065792	0.855760
C78	C	2.117832	-0.065207	0.965864
C79	C	1.937008	-0.060389	0.955090
C80	C	1.922428	-0.060975	0.844986
C81	C	2.005554	-0.063677	0.795326
C82	C	1.990974	-0.064266	0.685221
C83	C	1.810150	-0.059445	0.674448
C84	C	1.824730	-0.058860	0.784552
C85	C	2.566202	0.023928	0.317591
C86	C	2.543865	0.077862	0.317945
C87	C	2.560607	-0.061885	0.132718
C88	C	2.534714	-0.062506	0.015534
C89	C	2.480144	-0.230313	0.327506
C90	C	2.491394	-0.280992	0.327196
C91	C	2.406612	-0.303877	0.321750
C92	C	2.310576	-0.276081	0.316624
C93	C	2.299328	-0.225404	0.316941
C94	C	2.603252	-0.065792	0.855760
C95	C	2.617832	-0.065207	0.965864
C96	C	2.437008	-0.060389	0.955090
C97	C	2.422428	-0.060975	0.844986
C98	C	2.505554	-0.063677	0.795326
C99	C	2.490974	-0.064266	0.685221
C100	C	2.310150	-0.059445	0.674448
C101	C	2.324730	-0.058860	0.784552
C102	C	2.620330	0.105654	0.312819
C103	C	2.599352	0.156332	0.313134
C104	C	2.501910	0.179217	0.318583
C105	C	2.425439	0.151421	0.323705
C106	C	2.446416	0.100744	0.323383
H107	H	2.049191	-0.211684	0.331928
H108	H	2.346101	0.170062	0.328140
N109	N	2.208858	-0.823900	0.329578
H110	H	2.218099	-0.807574	0.395645
H111	H	2.198295	-0.798418	0.264204
N112	N	1.695756	-0.195432	0.311411
H113	H	1.677180	-0.169708	0.245611
H114	H	1.697019	-0.178918	0.377054
H115	H	2.257054	-0.056658	0.825000
N116	N	2.363939	0.070771	0.328915
H117	H	2.299032	0.092962	0.332418
H118	H	2.385344	0.045049	0.394714
H119	H	2.069611	-0.303615	0.331387
H120	H	1.757054	-0.056658	0.825000
N121	N	2.195742	-0.195434	0.311393
H122	H	2.177168	-0.169712	0.245589
H123	H	2.196974	-0.178918	0.377029
N124	N	1.714248	-0.683449	0.303138
H125	H	1.704999	-0.699780	0.237078
H126	H	1.651767	-0.658123	0.299982
N127	N	1.704769	-0.057169	0.609267
H128	H	1.708143	-0.057952	0.531981
H129	H	1.659621	-0.025819	0.615616
H130	H	2.697385	-0.066929	1.015067
N131	N	2.219137	-0.300767	0.310722
H132	H	2.229639	-0.326278	0.376039
H133	H	2.209975	-0.317060	0.244607
H134	H	2.661630	0.178956	0.308964
N135	N	2.247516	-0.593236	0.336324
H136	H	2.256755	-0.576908	0.402389
H137	H	2.236957	-0.567755	0.270948
N138	N	2.580624	-0.067183	0.631654
H139	H	2.644728	-0.068433	0.686650
H140	H	2.570302	-0.037335	0.575665
H141	H	2.670938	-0.067998	0.815328
H142	H	2.191357	-0.447259	0.335802
H143	H	2.206845	-0.921890	0.327555
N144	N	2.347358	-0.057467	1.008660
H145	H	2.371423	-0.057415	1.087579
H146	H	2.313535	-0.086714	0.997611
H147	H	2.245503	-0.691222	0.334304
H148	H	2.230596	-0.057725	0.625230
H149	H	2.484842	0.220481	0.318844
N150	N	2.237133	-0.546539	0.336579
H151	H	2.284588	-0.543385	0.404637
H152	H	2.264723	-0.534186	0.273192
H153	H	2.699678	0.087028	0.308384
H154	H	2.569598	-0.303616	0.331367
H155	H	1.858384	-0.821046	0.308962
N156	N	1.856385	-0.919023	0.306931
H157	H	1.793849	-0.893722	0.303732
H158	H	1.866984	-0.944530	0.372268
H159	H	2.170938	-0.067998	0.815328
H160	H	1.682492	-0.433434	0.306097
N161	N	1.680483	-0.531412	0.304079
H162	H	1.617951	-0.506109	0.300885
H163	H	1.691085	-0.556917	0.369420
H164	H	2.197385	-0.066929	1.015067
N165	N	1.847366	-0.057465	1.008671
H166	H	1.841197	-0.026916	1.043566
H167	H	1.857653	-0.087328	1.064612
N168	N	1.719140	-0.300769	0.310748
H169	H	1.656598	-0.275471	0.307541
H170	H	1.729742	-0.326273	0.376093
N171	N	2.571595	-0.205637	0.333381
H172	H	2.634130	-0.230940	0.336588
H173	H	2.580741	-0.189308	0.399445
N174	N	2.418751	-0.358536	0.321407
H175	H	2.492454	-0.372666	0.325479
H176	H	2.376038	-0.365150	0.253550
H177	H	2.058661	-0.066469	0.644790
N178	N	1.690867	-0.578122	0.303783
H179	H	1.638874	-0.600314	0.300289
H180	H	1.672378	-0.552402	0.237981
