data_functionalizedCrystal
_audit_creation_method	'MofGen! by Chris Wilmer'
_symmetry_space_group_name_H-M	'P1'
_symmetry_Int_Tables_number	1
_symmetry_cell_setting	triclinic
loop_
_symmetry_equiv_pos_as_xyz
  x,y,z
_cell_length_a	13.185407
_cell_length_b	10.489716
_cell_length_c	11.804365
_cell_angle_alpha	101.956103
_cell_angle_beta	82.231191
_cell_angle_gamma	68.251310
loop_
_atom_site_label
_atom_site_type_symbol
_atom_site_fract_x
_atom_site_fract_y
_atom_site_fract_z
O1	O	1.466160	-0.364628	-0.099013
O2	O	1.149666	-0.235684	-0.099015
O3	O	1.315129	-0.488312	-0.099018
O4	O	1.300696	-0.112000	-0.099010
O5	O	1.271569	-0.421856	0.099039
O6	O	1.106105	-0.169228	0.099042
O7	O	1.422599	-0.298173	0.099044
Cu8	Cu	1.260375	-0.227632	0.117127
Cu9	Cu	1.311890	-0.306224	-0.117098
O10	O	1.257136	-0.045544	0.099047
C11	C	1.087359	-0.189384	0.000013
C12	C	0.966602	-0.150448	0.000012
C13	C	0.674457	-0.522044	0.000008
C14	C	0.787913	-0.558627	0.000017
C15	C	0.832591	-0.456586	0.000015
C16	C	0.763801	-0.317954	0.000006
C17	C	0.650332	-0.281363	0.000006
C18	C	0.808466	-0.215906	0.000013
C19	C	0.739676	-0.077274	0.000003
C20	C	0.626219	-0.040690	0.000003
C21	C	0.581541	-0.142732	0.000005
C22	C	0.921935	-0.252496	0.000013
C23	C	0.897810	-0.011816	0.000010
C24	C	0.784354	0.024767	0.000001
C25	C	1.292266	-0.502233	0.000007
C26	C	1.289024	-0.642720	-0.000004
C27	C	1.390488	-0.776313	0.000007
C28	C	1.358348	-0.867456	-0.097642
C29	C	1.315377	-0.801892	0.097626
C30	C	1.256944	-0.732039	-0.097734
C31	C	1.213968	-0.666445	0.097622
C32	C	1.181759	-0.757521	-0.000052
C33	C	1.484907	-0.344473	0.000013
C34	C	1.605666	-0.383412	0.000007
C35	C	1.280000	-0.031624	0.000020
C36	C	1.283243	0.108860	0.000023
N37	N	1.224150	-0.172359	0.281868
N38	N	1.348124	-0.361510	-0.281839
C39	C	1.435114	-0.494266	0.655813
C40	C	1.462517	-0.536086	0.531151
C41	C	1.402927	-0.445158	0.468824
C42	C	1.315930	-0.312403	0.531172
C43	C	1.288530	-0.270575	0.655846
C44	C	1.256343	-0.221466	0.468857
C45	C	1.169346	-0.088712	0.531205
C46	C	1.141950	-0.046891	0.655867
C47	C	1.201540	-0.137819	0.718194
C48	C	1.283743	-0.263294	0.344183
C49	C	1.137160	-0.039603	0.344216
C50	C	1.109757	0.002216	0.468878
H51	H	0.728329	0.137644	-0.000006
O52	O	1.495717	-0.783882	-0.000037
C53	C	1.497144	-0.649915	0.000986
H54	H	1.408598	-0.562554	0.039099
H55	H	1.555282	-0.629044	0.058477
H56	H	1.528704	-0.649818	-0.093789
H57	H	0.934185	0.071276	0.000013
H58	H	0.843913	-0.671500	0.000030
O59	O	1.431261	-0.970491	-0.196042
C60	C	1.541138	-0.981736	-0.195715
H61	H	1.546355	-0.938959	-0.100688
H62	H	1.602973	-1.098620	-0.232597
H63	H	1.562938	-0.916726	-0.253596
H64	H	1.340075	-0.832837	0.180179
O65	O	0.631217	-0.621327	-0.000147
C66	C	0.688811	-0.737883	-0.102737
H67	H	0.775289	-0.741721	-0.136939
H68	H	0.698642	-0.841477	-0.079665
H69	H	0.639076	-0.724703	-0.174562
H70	H	1.232311	-0.701310	-0.180381
O71	O	1.368110	-0.392391	0.283721
C72	C	1.342719	-0.501977	0.314276
H73	H	1.248098	-0.461218	0.348535
H74	H	1.372759	-0.597663	0.232328
H75	H	1.386769	-0.535663	0.386670
H76	H	1.071121	0.061212	0.706631
O77	O	1.076433	-0.749394	-0.000319
C78	C	1.046012	-0.714016	-0.103399
H79	H	1.125034	-0.745781	-0.175038
H80	H	0.994506	-0.773701	-0.137476
H81	H	0.993896	-0.593964	-0.081037
H82	H	1.533350	-0.644172	0.480392
H83	H	1.483630	-0.568284	0.706568
H84	H	1.179226	-0.103773	0.819704
H85	H	0.489158	-0.112954	-0.000009
O86	O	1.141382	-0.563491	0.196234
C87	C	1.172568	-0.599005	0.298997
H88	H	1.265372	-0.674314	0.275602
H89	H	1.157282	-0.497544	0.369857
H90	H	1.120268	-0.653871	0.334629
O91	O	0.942750	-0.491982	0.000224
C92	C	0.951492	-0.403750	0.102776
H93	H	0.870555	-0.360723	0.174477
H94	H	1.025027	-0.468522	0.137202
H95	H	0.965965	-0.310661	0.079575
H96	H	0.570209	0.072197	0.000007
O97	O	1.429651	-0.486028	0.347728
C98	C	1.519230	-0.622682	0.306063
H99	H	1.521833	-0.680859	0.377905
H100	H	1.506564	-0.686522	0.222669
H101	H	1.601728	-0.611169	0.283922
H102	H	1.038922	0.110309	0.519657
O103	O	0.988898	-0.387163	-0.000145
C104	C	1.077793	-0.449965	-0.102737
H105	H	1.091845	-0.362442	-0.136934
H106	H	1.157610	-0.518888	-0.079670
H107	H	1.055810	-0.519346	-0.174564
O108	O	1.079444	0.048696	0.283556
C109	C	1.154143	0.083055	0.211455
H110	H	1.242961	-0.003040	0.192763
H111	H	1.128170	0.089323	0.123797
H112	H	1.151701	0.190662	0.259499
