data_functionalizedCrystal
_audit_creation_method	'MofGen! by Chris Wilmer'
_symmetry_space_group_name_H-M	'P1'
_symmetry_Int_Tables_number	1
_symmetry_cell_setting	triclinic
loop_
_symmetry_equiv_pos_as_xyz
  x,y,z
_cell_length_a	19.121102
_cell_length_b	12.594516
_cell_length_c	12.594510
_cell_angle_alpha	90.031906
_cell_angle_beta	87.538401
_cell_angle_gamma	92.429392
loop_
_atom_site_label
_atom_site_type_symbol
_atom_site_fract_x
_atom_site_fract_y
_atom_site_fract_z
Zn1	Zn	1.073800	0.493171	-0.671208
Zn2	Zn	1.073724	0.671194	-0.493231
Zn3	Zn	0.956342	0.485630	-0.485653
Zn4	Zn	0.956333	0.663503	-0.663581
O5	O	1.015050	0.578374	-0.578418
O6	O	1.172075	0.523161	-0.653962
O7	O	1.058126	0.646642	-0.343278
O8	O	0.971958	0.337687	-0.510288
O9	O	1.172020	0.653953	-0.523203
O10	O	1.058254	0.343227	-0.646614
O11	O	0.971885	0.510309	-0.337711
O12	O	0.858055	0.502851	-0.502892
O13	O	0.971943	0.640845	-0.813541
O14	O	0.858049	0.633533	-0.633616
O15	O	1.058245	0.515703	-0.819144
O16	O	1.058117	0.819117	-0.515808
O17	O	0.971870	0.813466	-0.640964
C18	C	0.832568	0.566540	-0.566605
C19	C	0.754501	0.561502	-0.561576
C20	C	1.015004	0.854912	-0.578405
C21	C	1.015048	0.973221	-0.578439
C22	C	1.015101	0.578257	-0.856043
C23	C	1.015123	0.578207	-0.974350
C24	C	0.717840	0.627278	-0.627167
C25	C	0.644489	0.622531	-0.622447
C26	C	0.607799	0.552013	-0.552130
C27	C	0.644465	0.486230	-0.486536
C28	C	0.717815	0.490973	-0.491262
C29	C	0.386327	0.534279	-0.534466
C30	C	0.312971	0.529544	-0.529742
C31	C	0.313000	0.665844	-0.665655
C32	C	0.386352	0.670584	-0.670370
C33	C	0.423012	0.604798	-0.604781
C34	C	0.532822	0.547161	-0.547301
C35	C	0.497988	0.609645	-0.609615
C36	C	1.198244	0.590256	-0.590279
C37	C	1.276311	0.595319	-0.595333
C38	C	1.015115	0.300758	-0.578456
C39	C	1.015143	0.182454	-0.578473
C40	C	0.968134	1.039439	-0.646461
C41	C	0.951019	1.109206	-0.548233
C42	C	1.032227	1.114257	-0.676688
C43	C	0.997900	1.041427	-0.480157
C44	C	1.079137	1.046474	-0.608680
C45	C	1.062047	1.116211	-0.510386
C46	C	1.062080	0.510122	-1.117415
C47	C	1.079228	0.608353	-1.047705
C48	C	0.998006	0.479989	-1.042490
C49	C	1.032334	0.676461	-1.115429
C50	C	0.951082	0.548029	-1.110219
C51	C	0.968207	0.646326	-1.040539
C52	C	1.015039	0.578417	-0.301877
C53	C	1.015153	0.578176	-0.183579
H54	H	0.747708	0.684704	-0.684423
C55	C	1.003139	0.859950	-1.118731
C56	C	1.051988	0.788607	-1.158461
H57	H	1.015273	0.929179	-1.145308
H58	H	1.003234	0.860652	-1.043325
H59	H	0.957781	0.838409	-1.140633
H60	H	1.097345	0.810144	-1.136552
H61	H	1.051899	0.787908	-1.233884
C62	C	1.115675	1.272507	-0.433944
C63	C	1.115658	1.161336	-0.432664
H64	H	1.148772	1.300365	-0.385963
H65	H	1.070323	1.294955	-0.413069
H66	H	1.127951	1.297595	-0.503669
H67	H	1.103376	1.136247	-0.362940
H68	H	1.161020	1.138878	-0.453533
H69	H	0.614643	0.676093	-0.675857
C70	C	0.847752	0.693404	-1.028368
C71	C	0.914617	0.724124	-0.995361
H72	H	0.814672	0.741441	-1.000480
H73	H	0.835479	0.623717	-1.003222
H74	H	0.847756	0.694240	-1.103788
H75	H	0.914614	0.723281	-0.919940
H76	H	0.926892	0.793830	-1.020501
H77	H	0.747664	0.437406	-0.437856
H78	H	1.133398	0.633869	-1.020106
H79	H	0.896928	0.522483	-1.137841
H80	H	0.983517	0.396941	-1.010485
H81	H	0.416220	0.728010	-0.727628
C82	C	0.200572	0.719089	-0.718769
C83	C	0.272702	0.738142	-0.737759
H84	H	0.175696	0.763720	-0.763293
H85	H	0.188528	0.733815	-0.646463
H86	H	0.188574	0.646812	-0.733692
H87	H	0.284701	0.810418	-0.722829
H88	H	0.284751	0.723425	-0.810082
H89	H	1.133279	1.018761	-0.634278
C90	C	0.881010	1.077637	-0.771122
C91	C	0.914483	0.994052	-0.723991
H92	H	0.847885	1.049613	-0.818975
H93	H	0.914815	1.122281	-0.808787
H94	H	0.857618	1.117692	-0.717563
H95	H	0.937879	0.954001	-0.777549
H96	H	0.880672	0.949390	-0.686324
C97	C	0.882678	1.208120	-0.421462
C98	C	0.877912	1.146596	-0.513711
H99	H	0.837542	1.231194	-0.400154
H100	H	0.913435	1.268184	-0.435306
H101	H	0.900278	1.166697	-0.366360
H102	H	0.860317	1.188021	-0.568816
H103	H	0.847144	1.086522	-0.499872
C104	C	0.320307	0.395273	-0.395880
C105	C	0.272640	0.452019	-0.452449
H106	H	0.295406	0.347414	-0.348169
H107	H	0.348897	0.443443	-0.356927
H108	H	0.348937	0.356465	-0.444181
H109	H	0.244014	0.490835	-0.404148
H110	H	0.244039	0.403844	-0.491404
C111	C	0.532012	0.418439	-0.418944
C112	C	0.604137	0.408711	-0.409245
H113	H	0.507119	0.370584	-0.371221
H114	H	0.520021	0.402169	-0.489704
H115	H	0.519983	0.489160	-0.402464
H116	H	0.616167	0.337991	-0.425732
H117	H	0.616133	0.424973	-0.338469
C118	C	0.978343	0.887300	-0.368983
C119	C	0.978246	0.998468	-0.367973
H120	H	0.966203	0.860780	-0.299728
H121	H	1.023690	0.865332	-0.390548
H122	H	0.945192	0.860396	-0.417348
H123	H	1.011401	1.025373	-0.319614
H124	H	0.932893	1.020446	-0.346394
C125	C	1.052250	1.268593	-0.787457
C126	C	1.051792	1.157396	-0.788833
H127	H	1.064320	1.295219	-0.856694
H128	H	1.085659	1.294951	-0.739243
H129	H	1.007074	1.291020	-0.765518
H130	H	1.096970	1.134969	-0.810765
H131	H	1.018381	1.131027	-0.837064
H132	H	0.527864	0.667056	-0.666872
C133	C	1.182753	0.464367	-1.131459
C134	C	1.115706	0.432518	-1.162866
H135	H	1.215859	0.416464	-1.159526
H136	H	1.183403	0.464307	-1.056092
H137	H	1.194469	0.533925	-1.157475
H138	H	1.103988	0.362963	-1.136842
H139	H	1.115054	0.432567	-1.238248
H140	H	0.502941	0.489747	-0.490047
H141	H	0.416166	0.480719	-0.481050
