data_functionalizedCrystal
_audit_creation_method	'MofGen! by Chris Wilmer'
_symmetry_space_group_name_H-M	'P1'
_symmetry_Int_Tables_number	1
_symmetry_cell_setting	triclinic
loop_
_symmetry_equiv_pos_as_xyz
  x,y,z
_cell_length_a	16.109302
_cell_length_b	26.809956
_cell_length_c	16.109304
_cell_angle_alpha	90.001744
_cell_angle_beta	83.462209
_cell_angle_gamma	90.018004
loop_
_atom_site_label
_atom_site_type_symbol
_atom_site_fract_x
_atom_site_fract_y
_atom_site_fract_z
O1	O	1.103147	0.041499	0.106868
O2	O	1.603147	0.541499	0.606868
O3	O	0.861085	0.041495	0.120167
O4	O	1.361085	0.541495	0.620167
O5	O	0.988764	0.041497	-0.007513
O6	O	1.488764	0.541497	0.492487
O7	O	0.975467	0.041496	0.234548
O8	O	1.475467	0.541496	0.734548
O9	O	0.988725	-0.041462	-0.007514
O10	O	1.488725	0.458538	0.492486
O11	O	0.861046	-0.041465	0.120166
O12	O	1.361046	0.458535	0.620166
O13	O	1.103107	-0.041460	0.106868
O14	O	1.603107	0.458540	0.606868
Zn15	Zn	0.982070	-0.054634	0.113517
Zn16	Zn	1.482070	0.445366	0.613517
Zn17	Zn	0.982122	0.054668	0.113517
Zn18	Zn	1.482122	0.554668	0.613517
O19	O	0.975428	-0.041463	0.234548
O20	O	1.475428	0.458537	0.734548
C21	C	0.830090	0.000014	0.119628
C22	C	1.330090	0.500014	0.619628
C23	C	0.737795	0.000013	0.118012
C24	C	1.237795	0.500013	0.618012
N25	N	0.982041	-0.129230	0.113516
N26	N	1.482041	0.370770	0.613516
C27	C	0.525433	-0.045203	0.114277
C28	C	1.025433	0.454797	0.614277
C29	C	0.438713	-0.045202	0.112750
C30	C	0.938713	0.454798	0.612750
C31	C	0.438766	0.045245	0.112755
C32	C	0.938766	0.545245	0.612755
C33	C	0.525485	0.045243	0.114276
C34	C	1.025485	0.545243	0.614276
C35	C	0.568816	0.000017	0.115041
C36	C	1.068816	0.500017	0.615041
C37	C	0.395377	0.000021	0.111994
C38	C	0.895377	0.500021	0.611994
C39	C	0.301351	0.000023	0.110338
C40	C	0.801351	0.500023	0.610338
C41	C	0.662848	0.000015	0.116695
C42	C	1.162848	0.500015	0.616695
C43	C	1.032520	-0.473855	0.163949
C44	C	1.532520	0.026145	0.663949
C45	C	1.032547	-0.682733	0.163949
C46	C	1.532547	-0.182733	0.663949
O47	O	1.075444	-0.709736	0.206819
O48	O	1.575444	-0.209736	0.706819
N49	N	0.982142	-0.708857	0.113509
N50	N	1.482142	-0.208857	0.613509
C51	C	0.931731	-0.682759	0.063062
C52	C	1.431731	-0.182759	0.563062
O53	O	0.888866	-0.709772	0.020153
O54	O	1.388866	-0.209772	0.520153
C55	C	0.931709	-0.473882	0.063058
C56	C	1.431709	0.026118	0.563058
C57	C	0.982111	-0.447761	0.113508
C58	C	1.482111	0.052239	0.613508
C59	C	1.082918	-0.447734	0.214394
C60	C	1.582918	0.052266	0.714394
C61	C	1.082908	-0.395518	0.214397
C62	C	1.582908	0.104482	0.714397
C63	C	1.032499	-0.369423	0.163955
C64	C	1.532499	0.130577	0.663955
C65	C	0.982100	-0.395544	0.113511
C66	C	1.482100	0.104456	0.613511
C67	C	0.881303	-0.447784	0.012607
C68	C	1.381303	0.052216	0.512607
C69	C	0.881304	-0.395562	0.012609
C70	C	1.381304	0.104438	0.512609
C71	C	0.931705	-0.369440	0.063059
C72	C	1.431705	0.130560	0.563059
C73	C	0.931681	-0.317233	0.063072
C74	C	1.431681	0.182767	0.563072
N75	N	0.982085	-0.291109	0.113512
N76	N	1.482085	0.208891	0.613512
C77	C	1.032494	-0.317204	0.163954
C78	C	1.532494	0.182796	0.663954
C79	C	0.931745	-0.792422	0.063068
C80	C	1.431745	-0.292422	0.563068
C81	C	0.931749	-0.844641	0.063070
C82	C	1.431749	-0.344641	0.563070
C83	C	1.032566	-0.844612	0.163956
C84	C	1.532566	-0.344612	0.663956
C85	C	1.032557	-0.792392	0.163958
C86	C	1.532557	-0.292392	0.663958
C87	C	0.982150	-0.766298	0.113508
C88	C	1.482150	-0.266298	0.613508
C89	C	1.032468	-0.207546	0.163957
C90	C	1.532468	0.292454	0.663957
C91	C	1.032450	-0.155325	0.163958
C92	C	1.532450	0.344675	0.663958
C93	C	0.931636	-0.155359	0.063069
C94	C	1.431636	0.344641	0.563069
C95	C	0.931650	-0.207575	0.063071
C96	C	1.431650	0.292425	0.563071
C97	C	0.982073	-0.233667	0.113517
C98	C	1.482073	0.266333	0.613517
O99	O	0.888813	-0.290198	0.020217
O100	O	1.388813	0.209802	0.520217
O101	O	1.075367	-0.290182	0.206842
O102	O	1.575367	0.209818	0.706842
C103	C	1.032531	-0.526072	0.163946
C104	C	1.532531	-0.026072	0.663946
C105	C	0.982132	-0.552193	0.113502
C106	C	1.482132	-0.052193	0.613502
C107	C	0.931723	-0.526098	0.063060
C108	C	1.431723	-0.026098	0.563060
C109	C	0.982136	-0.604412	0.113504
C110	C	1.482136	-0.104412	0.613504
C111	C	1.032545	-0.630507	0.163945
C112	C	1.532545	-0.130507	0.663945
C113	C	1.082950	-0.604383	0.214385
C114	C	1.582950	-0.104383	0.714385
C115	C	1.082940	-0.552167	0.214388
C116	C	1.582940	-0.052167	0.714388
C117	C	0.881318	-0.552222	0.012620
C118	C	1.381318	-0.052222	0.512620
C119	C	0.881332	-0.604439	0.012622
C120	C	1.381332	-0.104439	0.512622
C121	C	0.931741	-0.630534	0.063064
C122	C	1.431741	-0.130534	0.563064
C123	C	1.134102	0.000021	0.107407
C124	C	1.634102	0.500021	0.607407
C125	C	1.226397	0.000026	0.109022
C126	C	1.726397	0.500026	0.609022
C127	C	0.988206	0.000019	-0.038488
C128	C	1.488206	0.500019	0.461512
C129	C	0.986590	0.000022	-0.130784
C130	C	1.486590	0.500022	0.369216
N131	N	0.982158	0.129264	0.113512
N132	N	1.482158	0.629264	0.613512
C133	C	0.982877	0.045241	-0.343121
C134	C	1.482877	0.545241	0.156879
C135	C	0.981351	0.045241	-0.429841
C136	C	1.481351	0.545241	0.070159
C137	C	0.981313	-0.045206	-0.429838
C138	C	1.481313	0.454794	0.070162
C139	C	0.982833	-0.045205	-0.343119
C140	C	1.482833	0.454795	0.156881
C141	C	0.983619	0.000020	-0.299763
C142	C	1.483619	0.500020	0.200237
C143	C	0.980573	0.000018	-0.473202
C144	C	1.480573	0.500018	0.026798
C145	C	0.978918	0.000018	-0.567228
C146	C	1.478918	0.500018	-0.067228
C147	C	0.985273	0.000021	-0.205731
C148	C	1.485273	0.500021	0.294269
C149	C	0.975987	0.000017	0.265523
C150	C	1.475987	0.500017	0.765523
C151	C	0.977603	0.000017	0.357818
C152	C	1.477603	0.500017	0.857818
H153	H	0.403394	-0.082025	0.112129
H154	H	0.903394	0.417975	0.612129
H155	H	0.890697	-0.865904	0.021999
H156	H	1.390697	-0.365904	0.521999
N157	N	0.980505	-0.091404	-0.474115
N158	N	1.480505	0.408596	0.025885
N159	N	0.922090	-0.121684	-0.456748
N160	N	1.422090	0.378316	0.043252
H161	H	0.921519	-0.154313	-0.488017
H162	H	1.421519	0.345687	0.011983
H163	H	0.983432	-0.082032	-0.307815
H164	H	1.483432	0.417968	0.192185
N165	N	0.983683	0.091440	-0.298846
N166	N	1.483683	0.591440	0.201154
N167	N	0.983021	0.131812	-0.337573
N168	N	1.483021	0.631812	0.162427
H169	H	0.983589	0.164442	-0.306307
H170	H	1.483589	0.664442	0.193693
N171	N	0.829812	-0.474450	-0.038931
N172	N	1.329812	0.025550	0.461069
N173	N	0.784818	-0.451135	-0.083964
N174	N	1.284818	0.048865	0.416036
H175	H	0.748450	-0.469966	-0.120368
H176	H	1.248450	0.030034	0.379632
H177	H	0.890695	-0.771181	0.021983
H178	H	1.390695	-0.271181	0.521983
H179	H	0.980745	0.082064	-0.465139
H180	H	1.480745	0.582064	0.034861
N181	N	0.394504	0.091439	0.111963
N182	N	0.894504	0.591439	0.611963
N183	N	0.353801	0.101532	0.052544
N184	N	0.853801	0.601532	0.552544
H185	H	0.322541	0.134158	0.051985
H186	H	0.822541	0.634158	0.551985
N187	N	0.569794	0.091442	0.115047
N188	N	1.069794	0.591442	0.615047
N189	N	0.531098	0.131818	0.114368
N190	N	1.031098	0.631818	0.614368
H191	H	0.562391	0.164445	0.114910
H192	H	1.062391	0.664445	0.614910
H193	H	1.073527	-0.228784	0.205034
H194	H	1.573527	0.271216	0.705034
N195	N	0.569680	-0.091403	0.115069
N196	N	1.069680	0.408597	0.615069
N197	N	0.530930	-0.131774	0.114394
N198	N	1.030930	0.368226	0.614394
H199	H	0.562176	-0.164405	0.114956
H200	H	1.062176	0.335595	0.614956
N201	N	1.083939	-0.128651	0.215501
N202	N	1.583939	0.371349	0.715501
N203	N	1.128944	-0.151961	0.260531
N204	N	1.628944	0.348039	0.760531
H205	H	1.165309	-0.133124	0.296931
H206	H	1.665309	0.366876	0.796931
N207	N	1.134387	-0.368847	0.265945
N208	N	1.634387	0.131153	0.765945
N209	N	1.179382	-0.392161	0.310981
N210	N	1.679382	0.107839	0.810981
H211	H	1.215740	-0.373329	0.347393
H212	H	1.715740	0.126671	0.847393
H213	H	0.890599	-0.228844	0.022001
H214	H	1.390599	0.271156	0.522001
H215	H	1.123972	-0.468975	0.255470
H216	H	1.623972	0.031025	0.755470
H217	H	1.073598	-0.771127	0.205039
H218	H	1.573598	-0.271127	0.705039
H219	H	1.073608	-0.865867	0.205031
H220	H	1.573608	-0.365867	0.705031
H221	H	0.840255	-0.374319	-0.028475
H222	H	1.340255	0.125681	0.471525
H223	H	0.890592	-0.134103	0.022003
H224	H	1.390592	0.365897	0.522003
H225	H	1.123982	-0.530903	0.255469
H226	H	1.623982	-0.030903	0.755469
N227	N	0.829855	-0.631118	-0.038925
N228	N	1.329855	-0.131118	0.461075
N229	N	0.862347	-0.660244	-0.093890
N230	N	1.362347	-0.160244	0.406110
H231	H	0.825997	-0.679086	-0.130300
H232	H	1.325997	-0.179086	0.369700
H233	H	1.123991	-0.625639	0.255460
H234	H	1.623991	-0.125639	0.755460
H235	H	0.840270	-0.530981	-0.028457
H236	H	1.340270	-0.030981	0.471543
