data_functionalizedCrystal
_audit_creation_method	'MofGen! by Chris Wilmer'
_symmetry_space_group_name_H-M	'P1'
_symmetry_Int_Tables_number	1
_symmetry_cell_setting	triclinic
loop_
_symmetry_equiv_pos_as_xyz
  x,y,z
_cell_length_a	15.944551
_cell_length_b	15.944493
_cell_length_c	14.185569
_cell_angle_alpha	76.852849
_cell_angle_beta	103.159808
_cell_angle_gamma	83.486891
loop_
_atom_site_label
_atom_site_type_symbol
_atom_site_fract_x
_atom_site_fract_y
_atom_site_fract_z
O1	O	1.095472	0.127352	-0.083300
O2	O	0.850914	0.140713	-0.083323
O3	O	0.979895	0.011756	-0.083319
O4	O	0.966491	0.256309	-0.083304
O5	O	1.017997	-0.026335	0.083516
O6	O	0.889016	0.102622	0.083512
O7	O	1.133574	0.089261	0.083536
Cu8	Cu	1.014774	0.092464	0.098758
Cu9	Cu	0.969714	0.137511	-0.098545
O10	O	1.004593	0.218218	0.083532
C11	C	0.838671	0.121114	0.000091
C12	C	0.745423	0.119454	0.000082
C13	C	0.998397	-0.038583	0.000094
C14	C	0.996751	-0.131829	0.000081
C15	C	1.072678	-0.367595	0.000108
C16	C	1.012949	-0.399381	-0.082155
C17	C	0.993710	-0.302553	0.000093
C18	C	1.050497	-0.436912	0.082332
C19	C	0.990779	-0.467466	0.000109
C20	C	0.933988	-0.333095	-0.082237
C21	C	0.971563	-0.370640	0.082324
C22	C	0.911772	-0.402389	0.000042
C23	C	0.995400	-0.207550	0.000083
C24	C	0.989081	-0.562464	0.000112
C25	C	0.530587	0.035544	0.000096
C26	C	0.450773	0.093288	-0.082160
C27	C	0.574700	0.116444	0.000093
C28	C	0.488361	0.055752	0.082327
C29	C	0.409792	0.113530	0.000109
C30	C	0.496099	0.174226	-0.082231
C31	C	0.533710	0.136662	0.082330
C32	C	0.453909	0.194469	0.000054
C33	C	0.669700	0.118121	0.000084
C34	C	0.314792	0.111861	0.000112
C35	C	1.145817	0.108860	0.000119
C36	C	1.239063	0.110522	0.000122
C37	C	0.986091	0.268558	0.000116
C38	C	0.987735	0.361805	0.000122
N39	N	1.046473	0.060779	0.237530
N40	N	0.938022	0.169188	-0.237317
C41	C	0.844890	0.262240	0.605173
C42	C	0.868908	0.238245	0.710196
C43	C	0.983143	0.124096	0.710160
C44	C	0.959133	0.148078	0.605136
C45	C	0.890006	0.217151	0.552651
C46	C	1.004249	0.102990	0.552613
C47	C	0.980243	0.126973	0.447598
C48	C	0.911121	0.196046	0.395105
C49	C	0.866000	0.241135	0.447635
C50	C	1.073379	0.033921	0.605100
C51	C	1.118495	-0.011168	0.552577
C52	C	1.094485	0.012812	0.447560
C53	C	1.025363	0.081884	0.395068
C54	C	1.139605	-0.032278	0.395030
C55	C	1.115599	-0.008294	0.290015
C56	C	1.001357	0.105868	0.290052
H57	H	1.140678	-0.351949	0.000031
N58	N	0.930747	0.176431	0.236444
N59	N	0.934562	0.251394	0.248181
H60	H	0.884697	0.301228	0.210320
N61	N	0.412248	0.278787	-0.000022
N62	N	0.333569	0.291035	0.000624
H63	H	0.304137	0.350585	0.000559
H64	H	1.099743	-0.481720	0.151874
N65	N	0.822826	0.284301	0.763858
N66	N	0.862858	0.323077	0.822460
H67	H	0.830315	0.355605	0.860359
H68	H	1.030415	-0.412450	-0.151696
H69	H	0.500180	0.224312	-0.151848
H70	H	0.884759	-0.288380	-0.151857
H71	H	0.843690	-0.417843	-0.000010
N72	N	0.949696	-0.354236	0.169573
N73	N	0.996129	-0.395128	0.254926
H74	H	0.980693	-0.383545	0.316555
H75	H	0.563909	-0.031571	-0.000010
N76	N	0.578906	0.159622	0.169575
N77	N	0.658110	0.165197	0.183119
H78	H	0.690036	0.181405	0.244743
H79	H	0.484163	0.005644	0.151865
N80	N	0.405641	0.070280	-0.169408
N81	N	0.430076	-0.001866	-0.184074
H82	H	0.398208	-0.018120	-0.245692
N83	N	0.886577	0.220552	0.287834
N84	N	0.824855	0.282222	0.240986
H85	H	0.807518	0.299531	0.165225
H86	H	0.809705	0.297375	0.404900
H87	H	0.788595	0.318480	0.562438
H88	H	1.039429	0.067857	0.752906
H89	H	1.092924	0.014399	0.690610
N90	N	1.189110	-0.081709	0.606209
N91	N	1.210543	-0.103110	0.699972
H92	H	1.260418	-0.152931	0.737849
N93	N	1.210224	-0.102816	0.448664
N94	N	1.231658	-0.124212	0.542426
H95	H	1.281536	-0.174028	0.580306
N96	N	1.161586	-0.054461	0.236373
N97	N	1.223230	-0.116203	0.283245
H98	H	1.255672	-0.148849	0.245361
