data_functionalizedCrystal
_audit_creation_method	'MofGen! by Chris Wilmer'
_symmetry_space_group_name_H-M	'P1'
_symmetry_Int_Tables_number	1
_symmetry_cell_setting	triclinic
loop_
_symmetry_equiv_pos_as_xyz
  x,y,z
_cell_length_a	18.215407
_cell_length_b	17.640280
_cell_length_c	18.215399
_cell_angle_alpha	78.773632
_cell_angle_beta	89.985195
_cell_angle_gamma	78.795292
loop_
_atom_site_label
_atom_site_type_symbol
_atom_site_fract_x
_atom_site_fract_y
_atom_site_fract_z
Zn1	Zn	1.184369	-0.314776	-0.356899
Zn2	Zn	1.684369	0.185224	0.143101
Zn3	Zn	1.209194	-0.446963	-0.208982
Zn4	Zn	1.709194	0.053037	0.291018
Zn5	Zn	1.061311	-0.314794	-0.233848
Zn6	Zn	1.561311	0.185206	0.266152
Zn7	Zn	1.086165	-0.446900	-0.332023
Zn8	Zn	1.586165	0.053100	0.167977
O9	O	1.135260	-0.380858	-0.282938
O10	O	1.635260	0.119142	0.217062
O11	O	1.290649	-0.332330	-0.337282
O12	O	1.790649	0.167670	0.162718
O13	O	1.189564	-0.429465	-0.109290
O14	O	1.689564	0.070535	0.390710
O15	O	1.056844	-0.204185	-0.270987
O16	O	1.556844	0.295815	0.229013
O17	O	1.308888	-0.429447	-0.228608
O18	O	1.808888	0.070553	0.271392
O19	O	1.147254	-0.204172	-0.361393
O20	O	1.647254	0.295828	0.138607
O21	O	1.080916	-0.332361	-0.127558
O22	O	1.580916	0.167639	0.372442
O23	O	0.961620	-0.332299	-0.246866
O24	O	1.461620	0.167701	0.253134
O25	O	1.099204	-0.429340	-0.438314
O26	O	1.599204	0.070660	0.061686
O27	O	0.979880	-0.429357	-0.318996
O28	O	1.479880	0.070643	0.181004
O29	O	1.171354	-0.332269	-0.456590
O30	O	1.671354	0.167731	0.043410
O31	O	1.213664	-0.557562	-0.204487
O32	O	1.713664	-0.057562	0.295513
O33	O	1.123276	-0.557516	-0.294885
O34	O	1.623276	-0.057516	0.205115
C35	C	0.944047	-0.380824	-0.282930
C36	C	1.444047	0.119176	0.217070
C37	C	0.862249	-0.380828	-0.282941
C38	C	1.362249	0.119172	0.217059
C39	C	0.587713	-0.330387	-0.339581
C40	C	1.087713	0.169613	0.160419
C41	C	0.664569	-0.330374	-0.339581
C42	C	1.164569	0.169626	0.160419
C43	C	0.683553	-0.431356	-0.226306
C44	C	1.183553	0.068644	0.273694
C45	C	0.606698	-0.431372	-0.226310
C46	C	1.106698	0.068628	0.273690
C47	C	0.558779	-0.380883	-0.282947
C48	C	1.058779	0.119117	0.217053
C49	C	0.712490	-0.380854	-0.282944
C50	C	1.212490	0.119146	0.217056
C51	C	0.795821	-0.380841	-0.282943
C52	C	1.295821	0.119159	0.217057
C53	C	0.475443	-0.380897	-0.282948
C54	C	0.975443	0.119103	0.217052
C55	C	1.173881	-0.586218	-0.244304
C56	C	1.673881	-0.086218	0.255696
C57	C	1.190471	-0.674072	-0.227801
C58	C	1.690471	-0.174072	0.272199
C59	C	1.009531	-0.963028	-0.408578
C60	C	1.509531	-0.463028	0.091422
C61	C	1.025121	-1.045580	-0.393047
C62	C	1.525121	-0.545580	0.106953
C63	C	1.119300	-1.045563	-0.299011
C64	C	1.619300	-0.545563	0.200989
C65	C	1.103721	-0.963010	-0.314536
C66	C	1.603721	-0.463010	0.185464
C67	C	1.048834	-0.921749	-0.369320
C68	C	1.548834	-0.421749	0.130680
C69	C	1.143025	-0.921730	-0.275278
C70	C	1.643025	-0.421730	0.224722
C71	C	1.127443	-0.839184	-0.290800
C72	C	1.627443	-0.339184	0.209200
C73	C	1.072558	-0.797917	-0.345579
C74	C	1.572558	-0.297917	0.154421
C75	C	1.033253	-0.839202	-0.384841
C76	C	1.533253	-0.339202	0.115159
C77	C	1.197907	-0.962992	-0.220491
C78	C	1.697907	-0.462992	0.279509
C79	C	1.237211	-0.921713	-0.181233
C80	C	1.737211	-0.421713	0.318767
C81	C	1.221634	-0.839165	-0.196758
C82	C	1.721634	-0.339165	0.303242
C83	C	1.166748	-0.797898	-0.251538
C84	C	1.666748	-0.297898	0.248462
C85	C	1.260939	-0.797879	-0.157496
C86	C	1.760939	-0.297879	0.342504
C87	C	1.245357	-0.715333	-0.173018
C88	C	1.745357	-0.215333	0.326982
C89	C	1.151167	-0.715352	-0.267059
C90	C	1.651167	-0.215352	0.232941
C91	C	1.327219	-0.380894	-0.282946
C92	C	1.827219	0.119106	0.217054
C93	C	1.409021	-0.380909	-0.282950
C94	C	1.909021	0.119091	0.217050
C95	C	1.135282	-0.380795	-0.474903
C96	C	1.635282	0.119205	0.025097
C97	C	1.135292	-0.380768	-0.556707
C98	C	1.635292	0.119232	-0.056707
C99	C	1.096507	-0.174697	-0.321739
C100	C	1.596507	0.325303	0.178261
C101	C	1.079993	-0.086843	-0.338273
C102	C	1.579993	0.413157	0.161727
C103	C	1.078752	-0.330172	-0.754421
C104	C	1.578752	0.169828	-0.254421
C105	C	1.078762	-0.330156	-0.831282
C106	C	1.578762	0.169844	-0.331282
C107	C	1.191902	-0.431270	-0.812249
C108	C	1.691902	0.068730	-0.312249
C109	C	1.191889	-0.431290	-0.735388
C110	C	1.691889	0.068710	-0.235388
C111	C	1.135314	-0.380736	-0.706477
C112	C	1.635314	0.119264	-0.206477
C113	C	1.135337	-0.380701	-0.860199
C114	C	1.635337	0.119299	-0.360199
C115	C	1.135348	-0.380684	-0.943536
C116	C	1.635348	0.119316	-0.443536
C117	C	1.135302	-0.380754	-0.623134
C118	C	1.635302	0.119246	-0.123134
C119	C	1.135268	-0.380864	-0.091731
C120	C	1.635268	0.119136	0.408269
C121	C	1.135359	-0.380669	-0.009969
C122	C	1.635359	0.119331	0.490031
H123	H	0.583142	-0.472496	-0.180190
H124	H	1.083142	0.027504	0.319810
Br125	Br	0.935050	-0.907023	-0.482937
Br126	Br	1.435050	-0.407023	0.017063
H127	H	1.281897	-0.955319	-0.136627
H128	H	1.781897	-0.455319	0.363373
H129	H	1.237964	-0.472429	-0.835798
H130	H	1.737964	0.027571	-0.335798
H131	H	1.106478	-0.681755	-0.311675
H132	H	1.606478	-0.181755	0.188325
H133	H	1.237951	-0.472468	-0.696349
H134	H	1.737951	0.027532	-0.196349
H135	H	0.548699	-0.289276	-0.385699
H136	H	1.048699	0.210724	0.114301
H137	H	0.722577	-0.472460	-0.180193
H138	H	1.222577	0.027540	0.319807
Br139	Br	0.703833	-0.261846	-0.416449
Br140	Br	1.203833	0.238154	0.083551
H141	H	1.059868	-0.730702	-0.358210
H142	H	1.559868	-0.230702	0.141790
H143	H	0.988564	-0.805606	-0.429457
H144	H	1.488564	-0.305606	0.070543
Br145	Br	0.971762	-1.101601	-0.446321
Br146	Br	1.471762	-0.601601	0.053679
H147	H	1.163987	-1.079169	-0.254404
H148	H	1.663987	-0.579169	0.245596
H149	H	1.210593	-1.030207	-0.207858
H150	H	1.710593	-0.530207	0.292142
H151	H	1.305622	-0.831486	-0.112887
H152	H	1.805622	-0.331486	0.387113
H153	H	1.032685	-0.289008	-0.730884
H154	H	1.532685	0.210992	-0.230884
Br155	Br	1.298689	-0.659305	-0.119729
Br156	Br	1.798689	-0.159305	0.380271
Br157	Br	1.001986	-0.261545	-0.896345
Br158	Br	1.501986	0.238455	-0.396345
