data_functionalizedCrystal
_audit_creation_method	'MofGen! by Chris Wilmer'
_symmetry_space_group_name_H-M	'P1'
_symmetry_Int_Tables_number	1
_symmetry_cell_setting	triclinic
loop_
_symmetry_equiv_pos_as_xyz
  x,y,z
_cell_length_a	18.050591
_cell_length_b	14.908520
_cell_length_c	14.908694
_cell_angle_alpha	83.255478
_cell_angle_beta	86.678552
_cell_angle_gamma	86.682549
loop_
_atom_site_label
_atom_site_type_symbol
_atom_site_fract_x
_atom_site_fract_y
_atom_site_fract_z
Zn1	Zn	1.142128	0.389966	-0.532703
Zn2	Zn	1.128492	0.532611	-0.390070
Zn3	Zn	1.011163	0.381259	-0.381344
Zn4	Zn	1.011132	0.541274	-0.541368
O5	O	1.073229	0.461278	-0.461371
O6	O	1.244244	0.408908	-0.513808
O7	O	1.107234	0.505265	-0.262250
O8	O	1.034256	0.255750	-0.394144
O9	O	1.234226	0.513708	-0.409016
O10	O	1.130475	0.262147	-0.505347
O11	O	1.021034	0.394067	-0.255839
O12	O	0.907234	0.402466	-0.402546
O13	O	1.034202	0.528472	-0.666881
O14	O	0.907211	0.520028	-0.520115
O15	O	1.130445	0.417307	-0.660515
O16	O	1.107204	0.660425	-0.417418
O17	O	1.020980	0.666789	-0.528576
C18	C	1.062630	0.696450	-0.474904
C19	C	1.058165	0.797060	-0.480723
C20	C	0.880276	0.461243	-0.461324
C21	C	0.797730	0.461251	-0.461327
C22	C	1.083841	0.474827	-0.697459
C23	C	1.088363	0.480601	-0.798065
C24	C	0.548905	0.397267	-0.397532
C25	C	0.603024	0.379984	-0.478867
C26	C	0.500611	0.461302	-0.461404
C27	C	0.593575	0.478517	-0.380033
C28	C	0.646595	0.461275	-0.461361
C29	C	0.553646	0.443979	-0.542780
C30	C	0.544189	0.542548	-0.443892
C31	C	0.598287	0.525300	-0.525286
C32	C	0.416513	0.461315	-0.461427
C33	C	0.730692	0.461262	-0.461348
C34	C	1.266935	0.461313	-0.461419
C35	C	1.349481	0.461328	-0.461440
C36	C	1.083890	0.225187	-0.447806
C37	C	1.088434	0.124580	-0.442025
C38	C	1.139661	0.979434	-0.376004
C39	C	1.135468	1.073965	-0.381469
C40	C	1.045590	1.080657	-0.497122
C41	C	1.049783	0.986125	-0.491657
C42	C	1.096819	0.935517	-0.431095
C43	C	1.101008	0.840983	-0.425626
C44	C	1.011134	0.847677	-0.541284
C45	C	1.006941	0.942208	-0.546749
C46	C	1.007083	0.375663	-0.980441
C47	C	1.011329	0.381085	-1.074969
C48	C	1.101099	0.496872	-1.081652
C49	C	1.096852	0.491449	-0.987124
C50	C	1.049843	0.430842	-0.936521
C51	C	1.045601	0.425416	-0.841991
C52	C	1.135366	0.541206	-0.848676
C53	C	1.139613	0.546629	-0.943204
C54	C	1.062703	0.447715	-0.226199
C55	C	1.058337	0.441686	-0.125578
H56	H	0.527230	0.343091	-0.343597
H57	H	0.536045	0.429326	-0.611591
H58	H	0.628699	0.311262	-0.493678
H59	H	0.976509	0.336152	-1.110725
F60	F	1.151064	0.787123	-0.361168
F61	F	0.956887	0.996079	-0.611203
F62	F	1.180879	0.599935	-0.801927
H63	H	0.611273	0.493090	-0.311237
F64	F	0.510588	0.632340	-0.424514
F65	F	0.965527	0.800930	-0.599910
F66	F	1.189710	0.925570	-0.311538
F67	F	0.626451	0.596072	-0.595936
F68	F	1.151115	0.561380	-1.135522
H69	H	1.007301	1.121879	-0.546435
F70	F	1.181068	1.120702	-0.322835
F71	F	0.995573	0.360911	-0.788137
H72	H	0.968813	0.326306	-0.939239
H73	H	1.177883	0.595976	-0.984418
