data_functionalizedCrystal
_audit_creation_method	'MofGen! by Chris Wilmer'
_symmetry_space_group_name_H-M	'P1'
_symmetry_Int_Tables_number	1
_symmetry_cell_setting	triclinic
loop_
_symmetry_equiv_pos_as_xyz
  x,y,z
_cell_length_a	16.109302
_cell_length_b	12.503567
_cell_length_c	16.109301
_cell_angle_alpha	86.482070
_cell_angle_beta	96.538369
_cell_angle_gamma	86.475616
loop_
_atom_site_label
_atom_site_type_symbol
_atom_site_fract_x
_atom_site_fract_y
_atom_site_fract_z
O1	O	1.107936	-0.089373	-0.102059
O2	O	0.865874	-0.089365	-0.115358
O3	O	0.993554	-0.089358	0.012322
O4	O	0.980256	-0.089379	-0.229739
O5	O	0.983940	0.089284	0.002709
O6	O	0.856259	0.089277	-0.124971
O7	O	1.098322	0.089269	-0.111672
Cu8	Cu	0.976413	0.105585	-0.119199
Cu9	Cu	0.987783	-0.105680	-0.107831
O10	O	0.970641	0.089263	-0.239351
C11	C	0.830092	-0.000042	-0.119626
C12	C	0.737796	-0.000039	-0.118010
N13	N	0.968422	0.254177	-0.127194
C14	C	0.520215	0.097328	-0.119515
C15	C	0.433495	0.097325	-0.117988
C16	C	0.443988	-0.097441	-0.107512
C17	C	0.530707	-0.097436	-0.109033
C18	C	0.568817	-0.000048	-0.115039
C19	C	0.395378	-0.000056	-0.111991
C20	C	0.301353	-0.000061	-0.110335
C21	C	0.662849	-0.000043	-0.116693
C22	C	1.007526	0.526612	-0.088076
C23	C	0.956674	0.473286	-0.138955
C24	C	0.963212	0.351362	-0.132409
C25	C	1.000989	0.648547	-0.094620
C26	C	1.134104	-0.000055	-0.107404
C27	C	1.226400	-0.000066	-0.109019
C28	C	0.988208	-0.000036	0.038490
C29	C	0.986593	-0.000035	0.130786
N30	N	0.995775	0.745728	-0.099839
C31	C	0.975987	-0.000061	-0.265520
C32	C	0.977603	-0.000070	-0.357815
C33	C	1.058601	-0.000054	0.353059
C34	C	1.057078	-0.000063	0.439780
C35	C	0.905589	-0.000054	0.419905
C36	C	0.907114	-0.000053	0.333187
C37	C	0.983622	-0.000047	0.299766
C38	C	0.980574	-0.000057	0.473205
C39	C	0.978921	-0.000067	0.567232
C40	C	0.985275	-0.000040	0.205733
H41	H	0.551242	0.176628	-0.124405
O42	O	0.380985	0.202291	-0.122877
H43	H	0.402459	0.249089	-0.069079
O44	O	0.402882	-0.202478	-0.101047
H45	H	0.334414	-0.186124	-0.100751
H46	H	0.843298	-0.000056	0.447127
H47	H	0.570281	-0.176736	-0.105385
H48	H	0.908228	0.519199	-0.187430
O49	O	1.071681	0.465810	-0.023850
H50	H	1.066807	0.378201	-0.028720
H51	H	1.120900	-0.000052	0.325851
H52	H	0.846053	-0.000050	0.289793
O53	O	1.137947	-0.000057	0.497263
H54	H	1.191400	-0.000042	0.459450
