data_functionalizedCrystal
_audit_creation_method	'MofGen! by Chris Wilmer'
_symmetry_space_group_name_H-M	'P1'
_symmetry_Int_Tables_number	1
_symmetry_cell_setting	triclinic
loop_
_symmetry_equiv_pos_as_xyz
  x,y,z
_cell_length_a	15.297327
_cell_length_b	11.169417
_cell_length_c	11.169409
_cell_angle_alpha	89.980176
_cell_angle_beta	80.360209
_cell_angle_gamma	80.292774
loop_
_atom_site_label
_atom_site_type_symbol
_atom_site_fract_x
_atom_site_fract_y
_atom_site_fract_z
Zn1	Zn	-0.359064	-1.752166	0.761131
Zn2	Zn	-0.509956	-1.717262	0.595155
Zn3	Zn	-0.359119	-1.551440	0.560478
Zn4	Zn	-0.509883	-1.516683	0.795783
O5	O	-0.434505	-1.634387	0.678137
O6	O	-0.379088	-1.915484	0.739125
O7	O	-0.490001	-1.695203	0.422618
O8	O	-0.232867	-1.607220	0.558081
O9	O	-0.489948	-1.889840	0.617183
O10	O	-0.232827	-1.754693	0.705500
O11	O	-0.379181	-1.573374	0.397141
O12	O	-0.379110	-1.378881	0.591682
O13	O	-0.489823	-1.547982	0.959124
O14	O	-0.489876	-1.353345	0.764559
O15	O	-0.379016	-1.720991	0.933665
O16	O	-0.636191	-1.661501	0.650783
O17	O	-0.636137	-1.514136	0.798184
C18	C	-0.434492	-1.322566	0.678118
C19	C	-0.434508	-1.189162	0.678144
C20	C	-0.668898	-1.580292	0.732033
C21	C	-0.769172	-1.557259	0.755130
C22	C	-0.434405	-1.634503	0.991157
C23	C	-0.434362	-1.634552	1.124547
C24	C	-1.051814	-1.799500	0.513469
C25	C	-0.957602	-1.821139	0.491762
C26	C	-0.910490	-1.755172	0.557602
C27	C	-0.957599	-1.667560	0.645153
C28	C	-1.051821	-1.645911	0.666855
C29	C	-0.910496	-1.601583	0.710988
C30	C	-0.957606	-1.513971	0.798539
C31	C	-1.051818	-1.492327	0.820238
C32	C	-1.098930	-1.558295	0.754397
C33	C	-0.816275	-1.623232	0.689286
C34	C	-0.816281	-1.469643	0.842672
C35	C	-0.910493	-1.448003	0.864379
C36	C	-0.199198	-1.688727	0.624057
C37	C	-0.098924	-1.711884	0.601011
C38	C	-0.434520	-1.947426	0.678156
C39	C	-0.434526	-2.080825	0.678165
C40	C	-0.434540	-1.634357	0.366320
C41	C	-0.434329	-1.634599	0.232872
H42	H	-0.777926	-1.694565	0.618002
O43	O	-0.818972	-1.776384	0.536411
C44	C	-0.787494	-1.867837	0.445001
H45	H	-0.841758	-1.925495	0.440743
H46	H	-0.770856	-1.824109	0.353619
C47	C	-0.635637	-1.878101	0.479572
C48	C	-0.702282	-1.948924	0.474350
H49	H	-0.583072	-1.928117	0.497671
H50	H	-0.656844	-1.816484	0.541154
H51	H	-0.621783	-1.841666	0.403417
H52	H	-0.716143	-1.985346	0.550508
H53	H	-0.681076	-2.010550	0.412781
O54	O	-0.770666	-1.405413	0.906710
C55	C	-0.832448	-1.323458	0.988650
H56	H	-0.899641	-1.303884	0.954965
H57	H	-0.842387	-1.365081	1.082127
C58	C	-0.713214	-1.228191	1.038761
C59	C	-0.795739	-1.204142	0.997382
H60	H	-0.690569	-1.154593	1.044153
H61	H	-0.671589	-1.283409	0.983560
H62	H	-0.721507	-1.262879	1.116654
H63	H	-0.787442	-1.169470	0.919484
H64	H	-0.837361	-1.148916	1.052571
H65	H	-1.090172	-1.420974	0.891513
H66	H	-0.919249	-1.892471	0.420479
O67	O	-1.097717	-1.863464	0.449628
C68	C	-1.190976	-1.825522	0.487514
H69	H	-1.203817	-1.783269	0.583081
H70	H	-1.217769	-1.755434	0.422474
C71	C	-1.223535	-1.987726	0.370288
C72	C	-1.239307	-1.935840	0.487668
H73	H	-1.253349	-2.055773	0.370378
H74	H	-1.160705	-2.013287	0.344759
H75	H	-1.245862	-1.929309	0.316100
H76	H	-1.216970	-1.994252	0.541851
H77	H	-1.302134	-1.910292	0.513207
O78	O	-1.190451	-1.537389	0.775679
C79	C	-1.221830	-1.560917	0.897970
H80	H	-1.167463	-1.625690	0.935107
H81	H	-1.238579	-1.472076	0.953748
C82	C	-1.373698	-1.539576	0.860429
C83	C	-1.306926	-1.619140	0.906038
H84	H	-1.426191	-1.575485	0.865408
H85	H	-1.352558	-1.523720	0.778040
H86	H	-1.387644	-1.465547	0.906917
H87	H	-1.292973	-1.693161	0.859541
H88	H	-1.328065	-1.635010	0.988420
H89	H	-0.948863	-1.376668	0.935663
