data_functionalizedCrystal
_audit_creation_method	'MofGen! by Chris Wilmer'
_symmetry_space_group_name_H-M	'P1'
_symmetry_Int_Tables_number	1
_symmetry_cell_setting	triclinic
loop_
_symmetry_equiv_pos_as_xyz
  x,y,z
_cell_length_a	15.944551
_cell_length_b	14.421503
_cell_length_c	15.944493
_cell_angle_alpha	89.989835
_cell_angle_beta	83.486891
_cell_angle_gamma	90.003141
loop_
_atom_site_label
_atom_site_type_symbol
_atom_site_fract_x
_atom_site_fract_y
_atom_site_fract_z
O1	O	1.114507	0.077003	0.108323
O2	O	1.614507	0.577003	0.608323
O3	O	0.869954	0.077024	0.121680
O4	O	1.369954	0.577024	0.621680
O5	O	0.998934	0.077021	-0.007276
O6	O	1.498934	0.577021	0.492724
O7	O	0.985527	0.077006	0.237280
O8	O	1.485527	0.577006	0.737280
O9	O	0.998913	-0.077203	-0.007257
O10	O	1.498913	0.422797	0.492743
O11	O	0.869933	-0.077199	0.121699
O12	O	1.369933	0.422801	0.621699
O13	O	1.114485	-0.077221	0.108343
O14	O	1.614485	0.422779	0.608343
Cu15	Cu	0.992207	-0.091292	0.115023
Cu16	Cu	1.492207	0.408708	0.615023
Cu17	Cu	0.992232	0.091095	0.115000
Cu18	Cu	1.492232	0.591095	0.615000
O19	O	0.985506	-0.077217	0.237299
O20	O	1.485506	0.422783	0.737299
C21	C	0.838650	-0.000084	0.121135
C22	C	1.338650	0.499916	0.621135
C23	C	0.745404	-0.000076	0.119473
C24	C	1.245404	0.499924	0.619473
N25	N	0.992196	-0.219573	0.115038
N26	N	1.492196	0.280427	0.615038
C27	C	0.530565	-0.000089	0.035566
C28	C	1.030565	0.499911	0.535566
C29	C	0.469547	0.075949	0.074520
C30	C	0.969547	0.575949	0.574520
C31	C	0.574679	-0.000086	0.116465
C32	C	1.074679	0.499914	0.616465
C33	C	0.469548	-0.076103	0.074558
C34	C	0.969548	0.423897	0.574558
C35	C	0.409767	-0.000101	0.113555
C36	C	0.909767	0.499899	0.613555
C37	C	0.514889	0.076014	0.155442
C38	C	1.014889	0.576014	0.655442
C39	C	0.514897	-0.076106	0.155468
C40	C	1.014897	0.423894	0.655468
C41	C	0.453897	-0.000050	0.194481
C42	C	0.953897	0.499950	0.694481
C43	C	0.669681	-0.000077	0.118140
C44	C	1.169681	0.499923	0.618140
C45	C	0.314766	-0.000103	0.111886
C46	C	0.814766	0.499897	0.611886
C47	C	0.932545	-0.469225	0.174641
C48	C	1.432545	0.030775	0.674641
C49	C	1.008441	-0.531036	0.190949
C50	C	1.508441	-0.031036	0.690949
C51	C	0.992216	-0.408734	0.115018
C52	C	1.492216	0.091266	0.615018
C53	C	0.916339	-0.531018	0.098730
C54	C	1.416339	-0.031018	0.598730
C55	C	0.992229	-0.591456	0.115001
C56	C	1.492229	-0.091456	0.615001
C57	C	1.068151	-0.469184	0.131364
C58	C	1.568151	0.030816	0.631364
C59	C	0.975998	-0.469161	0.039112
C60	C	1.475998	0.030839	0.539112
C61	C	1.051950	-0.530944	0.055388
C62	C	1.551950	-0.030944	0.555388
C63	C	0.992207	-0.303473	0.115030
C64	C	1.492207	0.196527	0.615030
C65	C	0.992246	-0.696715	0.114988
C66	C	1.492246	-0.196715	0.614988
C67	C	1.145790	-0.000110	0.108888
C68	C	1.645790	0.499890	0.608888
C69	C	1.239036	-0.000113	0.110550
C70	C	1.739036	0.499887	0.610550
C71	C	0.998375	-0.000087	-0.038562
C72	C	1.498375	0.499913	0.461438
C73	C	0.996733	-0.000075	-0.131810
C74	C	1.496733	0.499925	0.368190
N75	N	0.992251	0.219377	0.114978
N76	N	1.492251	0.719377	0.614978
C77	C	1.072653	-0.000099	-0.367570
C78	C	1.572653	0.499901	0.132430
C79	C	1.031722	0.075944	-0.418148
C80	C	1.531722	0.575944	0.081852
C81	C	0.993688	-0.000086	-0.302531
C82	C	1.493688	0.499914	0.197469
C83	C	1.031683	-0.076108	-0.418105
C84	C	1.531683	0.423892	0.081895
C85	C	0.990754	-0.000101	-0.467441
C86	C	1.490754	0.499899	0.032559
C87	C	0.952779	0.076020	-0.351881
C88	C	1.452779	0.576020	0.148119
C89	C	0.952751	-0.076101	-0.351834
C90	C	1.452751	0.423899	0.148166
C91	C	0.911763	-0.000039	-0.402379
C92	C	1.411763	0.499961	0.097621
C93	C	0.995381	-0.000077	-0.207531
C94	C	1.495381	0.499923	0.292469
C95	C	0.989055	-0.000104	-0.562438
C96	C	1.489055	0.499896	-0.062438
C97	C	0.986064	-0.000107	0.268584
C98	C	1.486064	0.499893	0.768584
C99	C	0.987707	-0.000113	0.361833
C100	C	1.487707	0.499887	0.861833
H101	H	0.563912	0.000009	-0.031574
H102	H	1.063912	0.500009	0.468426
H103	H	0.534879	0.140369	0.189625
H104	H	1.034879	0.640369	0.689625
H105	H	0.919423	-0.140387	-0.322866
H106	H	1.419423	0.359613	0.177134
H107	H	0.449453	0.140238	0.040295
H108	H	0.949453	0.640238	0.540295
H109	H	0.420724	-0.000011	0.261690
H110	H	0.920724	0.499989	0.761690
H111	H	1.065038	-0.140393	-0.447028
H112	H	1.565038	0.359607	0.052972
H113	H	1.140671	-0.000029	-0.351942
H114	H	1.640671	0.499971	0.148058
H115	H	0.449460	-0.140385	0.040334
H116	H	0.949460	0.359615	0.540334
H117	H	0.535012	-0.140398	0.189665
H118	H	1.035012	0.359602	0.689665
H119	H	0.962246	-0.441962	-0.025052
H120	H	1.462246	0.058038	0.474948
H121	H	0.919459	0.140377	-0.323069
H122	H	1.419459	0.640377	0.176931
H123	H	0.882134	-0.442126	0.225102
H124	H	1.382134	0.057874	0.725102
H125	H	0.852166	-0.558181	0.084961
H126	H	1.352166	-0.058181	0.584961
H127	H	0.843692	0.000009	-0.417845
H128	H	1.343692	0.500009	0.082155
H129	H	1.022171	-0.558213	0.255133
H130	H	1.522171	-0.058213	0.755133
H131	H	1.132338	-0.442138	0.145209
H132	H	1.632338	0.057862	0.645209
H133	H	1.102473	-0.557873	0.004956
H134	H	1.602473	-0.057873	0.504956
H135	H	1.065079	0.140228	-0.447101
H136	H	1.565079	0.640228	0.052899
