data_functionalizedCrystal
_audit_creation_method	'MofGen! by Chris Wilmer'
_symmetry_space_group_name_H-M	'P1'
_symmetry_Int_Tables_number	1
_symmetry_cell_setting	triclinic
loop_
_symmetry_equiv_pos_as_xyz
  x,y,z
_cell_length_a	19.188930
_cell_length_b	19.188930
_cell_length_c	7.540329
_cell_angle_alpha	89.991297
_cell_angle_beta	89.983165
_cell_angle_gamma	83.144779
loop_
_atom_site_label
_atom_site_type_symbol
_atom_site_fract_x
_atom_site_fract_y
_atom_site_fract_z
O1	O	0.926143	0.087167	-0.148072
O2	O	0.722832	0.098901	-0.147953
O3	O	0.830355	-0.008622	-0.147982
O4	O	0.818621	0.194689	-0.148044
O5	O	0.830348	-0.008623	0.146983
O6	O	0.722826	0.098900	0.147012
O7	O	0.926137	0.087165	0.146893
Cu8	Cu	0.824481	0.093032	0.173885
Cu9	Cu	0.824488	0.093034	-0.174946
O10	O	0.818614	0.194688	0.146921
C11	C	0.829972	-0.034634	-0.000494
C12	C	0.828831	-0.112138	-0.000478
C13	C	0.696818	0.098520	-0.000455
C14	C	0.619313	0.097380	-0.000408
C15	C	0.891922	-0.157062	-0.000506
C16	C	0.890850	-0.229886	-0.000534
C17	C	0.826684	-0.257782	-0.000498
C18	C	0.763585	-0.212849	-0.000479
C19	C	0.764658	-0.140026	-0.000469
N20	N	0.777635	-0.365788	0.099913
N21	N	0.776619	-0.434966	0.099907
C22	C	0.823446	-0.477191	-0.000532
N23	N	0.871337	-0.447625	-0.100943
N24	N	0.872355	-0.378440	-0.100929
C25	C	0.825513	-0.336745	-0.000510
C26	C	0.885379	-0.601079	-0.000593
C27	C	0.884305	-0.673904	-0.000632
C28	C	0.757038	-0.656865	-0.000559
C29	C	0.758114	-0.584042	-0.000538
C30	C	0.822286	-0.556154	-0.000547
C31	C	0.574389	0.160470	-0.000455
C32	C	0.501566	0.159399	-0.000475
C33	C	0.473669	0.095233	-0.000482
C34	C	0.518603	0.032133	-0.000425
C35	C	0.591425	0.033207	-0.000388
N36	N	0.365691	0.046186	-0.100928
N37	N	0.296512	0.045171	-0.100967
C38	C	0.254260	0.091994	-0.000590
N39	N	0.283799	0.139883	0.099806
N40	N	0.352984	0.140900	0.099837
C41	C	0.394707	0.094062	-0.000521
C42	C	0.130372	0.153928	-0.000655
C43	C	0.057547	0.152853	-0.000663
C44	C	0.074586	0.025586	-0.000632
C45	C	0.147409	0.026662	-0.000605
C46	C	0.175298	0.090835	-0.000626
C47	C	0.952151	0.087546	-0.000609
C48	C	1.029656	0.088687	-0.000668
C49	C	0.818997	0.220700	-0.000571
C50	C	0.820138	0.298204	-0.000598
N51	N	0.824481	0.093031	0.419233
N52	N	0.824494	0.093030	-0.420294
H53	H	0.944176	-0.134360	-0.000519
H54	H	0.153080	0.206181	-0.000646
H55	H	0.713281	-0.103449	-0.000446
H56	H	0.464982	0.210776	-0.000508
H57	H	0.937632	-0.578372	-0.000608
H58	H	0.935683	-0.710481	-0.000665
H59	H	0.704792	-0.679578	-0.000538
H60	H	0.051874	-0.026659	-0.000748
H61	H	0.942228	-0.266470	-0.000564
H62	H	0.711340	-0.235567	-0.000454
H63	H	0.706738	-0.547464	-0.000505
H64	H	0.495885	-0.020111	-0.000455
H65	H	0.597091	0.212725	-0.000475
H66	H	0.628003	-0.018171	-0.000351
H67	H	0.020970	0.204232	-0.000692
H68	H	0.183988	-0.024713	-0.000577
