data_functionalizedCrystal
_audit_creation_method	'MofGen! by Chris Wilmer'
_symmetry_space_group_name_H-M	'P1'
_symmetry_Int_Tables_number	1
_symmetry_cell_setting	triclinic
loop_
_symmetry_equiv_pos_as_xyz
  x,y,z
_cell_length_a	10.654541
_cell_length_b	19.188930
_cell_length_c	9.130307
_cell_angle_alpha	89.991600
_cell_angle_beta	89.999822
_cell_angle_gamma	83.814355
loop_
_atom_site_label
_atom_site_type_symbol
_atom_site_fract_x
_atom_site_fract_y
_atom_site_fract_z
O1	O	1.665764	0.098053	-0.121773
O2	O	1.300087	0.107397	-0.121788
O3	O	1.493478	0.001138	-0.121751
O4	O	1.472373	0.204312	-0.121809
O5	O	1.493472	0.001137	0.121848
O6	O	1.300081	0.107396	0.121811
O7	O	1.665758	0.098052	0.121826
Cu8	Cu	1.482919	0.102724	0.144061
Cu9	Cu	1.482926	0.102725	-0.144023
O10	O	1.472367	0.204311	0.121790
C11	C	1.253300	0.106711	0.000011
C12	C	1.113900	0.104659	0.000006
C13	C	1.083241	0.231721	-0.000048
C14	C	1.002423	0.294284	-0.000081
C15	C	0.871446	0.292352	-0.000082
C16	C	0.821285	0.227849	-0.000046
C17	C	0.902103	0.165286	-0.000013
C18	C	1.033082	0.167225	-0.000016
C19	C	0.932762	0.038226	0.000052
C20	C	1.063740	0.040156	0.000043
C21	C	0.882602	-0.026277	0.000089
C22	C	0.963421	-0.088842	0.000111
C23	C	1.094405	-0.086908	0.000111
C24	C	1.144558	-0.022408	0.000076
C25	C	1.492792	-0.024878	0.000052
C26	C	1.490740	-0.102396	0.000065
C27	C	1.604215	-0.146578	0.000076
C28	C	1.602288	-0.219414	0.000053
C29	C	1.486878	-0.248065	0.000047
C30	C	1.373388	-0.203873	0.000028
C31	C	1.375319	-0.131038	0.000036
N32	N	1.398659	-0.356647	0.082945
N33	N	1.396833	-0.425838	0.082940
C34	C	1.481054	-0.467512	0.000017
N35	N	1.567190	-0.437383	-0.082881
N36	N	1.569020	-0.368186	-0.082869
C37	C	1.484772	-0.327041	0.000037
C38	C	1.592448	-0.590672	0.000001
C39	C	1.590515	-0.663510	-0.000031
C40	C	1.361612	-0.647967	-0.000042
C41	C	1.363548	-0.575131	-0.000024
C42	C	1.478969	-0.546488	0.000005
C43	C	1.712544	0.098738	0.000025
C44	C	1.851944	0.100790	0.000019
C45	C	1.473053	0.230327	-0.000017
C46	C	1.475105	0.307845	-0.000039
N47	N	1.482923	0.102723	0.346684
N48	N	1.482932	0.102721	-0.346646
C49	C	1.654240	0.008658	0.346706
C50	C	1.739906	-0.038372	0.423384
C51	C	1.739919	-0.038373	0.576717
C52	C	1.654253	0.008661	0.653377
C53	C	1.568586	0.055691	0.576699
C54	C	1.568585	0.055688	0.423362
C55	C	1.397265	0.149751	0.576677
C56	C	1.397257	0.149756	0.423343
C57	C	1.311599	0.196785	0.653336
C58	C	1.225937	0.243819	0.576658
C59	C	1.225929	0.243818	0.423315
C60	C	1.311590	0.196786	0.346665
H61	H	0.922569	-0.141356	0.000140
N62	N	0.680016	0.225774	-0.000033
H63	H	0.654473	0.200364	-0.090320
H64	H	0.654583	0.200385	0.090344
N65	N	1.712910	-0.711170	-0.000018
H66	H	1.763295	-0.701882	-0.090306
H67	H	1.763167	-0.701880	0.090358
H68	H	1.282910	-0.095064	0.000027
N69	N	1.716929	-0.559772	0.000026
H70	H	1.788526	-0.598817	0.000018
H71	H	1.722717	-0.529879	-0.090271
H72	H	1.160201	-0.137855	0.000143
N73	N	1.832269	-0.089106	0.340678
H74	H	1.887711	-0.062142	0.277033
H75	H	1.886455	-0.118896	0.412595
H76	H	1.267643	-0.671293	-0.000054
H77	H	1.271143	-0.539157	-0.000025
H78	H	1.251205	-0.020826	0.000058
N79	N	1.654223	0.008669	0.181326
H80	H	1.739476	0.019275	0.144382
H81	H	1.636177	-0.038871	0.144515
N82	N	1.248906	-0.234766	0.000038
H83	H	1.199209	-0.218688	-0.090266
H84	H	1.265000	-0.287606	0.000097
H85	H	1.698200	-0.123262	0.000095
H86	H	1.156164	0.282114	0.360892
N87	N	1.724683	-0.267081	0.000062
H88	H	1.798093	-0.237883	0.000079
H89	H	1.728853	-0.297645	0.090366
N90	N	1.311587	0.196789	0.181286
H91	H	1.378852	0.159858	0.144364
H92	H	1.226283	0.186207	0.144476
N93	N	1.832311	-0.089097	0.659431
H94	H	1.886578	-0.118893	0.587608
H95	H	1.887669	-0.062072	0.723032
H96	H	0.775953	-0.027846	0.000096
H97	H	1.654258	0.008652	0.778229
N98	N	1.311603	0.196785	0.818716
H99	H	1.378873	0.159858	0.855662
H100	H	1.329554	0.244345	0.855508
N101	N	1.056522	0.363853	-0.000116
H102	H	1.151758	0.355587	-0.000114
H103	H	1.026933	0.391252	-0.090436
H104	H	1.156188	0.282108	0.639083
H105	H	0.805642	0.343297	-0.000099
H106	H	1.189888	0.233300	-0.000080
