data_functionalizedCrystal
_audit_creation_method	'MofGen! by Chris Wilmer'
_symmetry_space_group_name_H-M	'P1'
_symmetry_Int_Tables_number	1
_symmetry_cell_setting	triclinic
loop_
_symmetry_equiv_pos_as_xyz
  x,y,z
_cell_length_a	6.817900
_cell_length_b	14.858565
_cell_length_c	23.753023
_cell_angle_alpha	96.077987
_cell_angle_beta	100.067528
_cell_angle_gamma	104.523916
loop_
_atom_site_label
_atom_site_type_symbol
_atom_site_fract_x
_atom_site_fract_y
_atom_site_fract_z
V1	V	-3.994004	-0.129845	-0.178549
V2	V	-3.494004	0.370155	0.321451
O3	O	-3.976816	0.005031	-0.174986
O4	O	-3.476816	0.505031	0.325014
O5	O	-3.950866	-0.256299	-0.177486
O6	O	-3.450866	0.243701	0.322514
O7	O	-3.928980	-0.128378	-0.256349
O8	O	-3.428980	0.371622	0.243651
O9	O	-3.998854	-0.123775	-0.095578
O10	O	-3.498854	0.376225	0.404422
V11	V	-4.479104	-0.113650	-0.168606
V12	V	-3.979104	0.386350	0.331394
O13	O	-4.251803	-0.165371	-0.200361
O14	O	-3.751803	0.334629	0.299639
O15	O	-4.671503	-0.078124	-0.146795
O16	O	-4.171503	0.421876	0.353205
O17	O	-4.299036	0.012804	-0.169669
O18	O	-3.799036	0.512804	0.330331
O19	O	-4.613689	-0.248526	-0.172169
O20	O	-4.113689	0.251474	0.327831
O21	O	-4.591651	-0.119720	-0.251578
O22	O	-4.091651	0.380280	0.248422
O23	O	-4.320921	-0.115117	-0.090806
O24	O	-3.820921	0.384883	0.409194
C25	C	-3.797685	-0.287109	-0.174710
C26	C	-3.297685	0.212891	0.325290
C27	C	-3.843590	-0.390491	-0.174359
C28	C	-3.343590	0.109509	0.325641
C29	C	-4.011609	-0.769053	-0.173083
C30	C	-3.511609	-0.269053	0.326917
C31	C	-3.964852	-0.663725	-0.173438
C32	C	-3.464852	-0.163725	0.326562
C33	C	-3.927600	-0.579775	-0.173720
C34	C	-3.427600	-0.079775	0.326280
C35	C	-3.880842	-0.474441	-0.174076
C36	C	-3.380842	0.025559	0.325924
C37	C	-3.769766	-0.123932	-0.275306
C38	C	-3.269766	0.376068	0.224694
C39	C	-3.797921	-0.123570	-0.338909
C40	C	-3.297921	0.376430	0.161091
C41	C	-4.014649	-0.206651	-0.741602
C42	C	-3.514649	0.293349	-0.241602
C43	C	-4.041138	-0.206325	-0.801365
C44	C	-3.541138	0.293675	-0.301365
O45	O	-4.090530	-0.278631	-0.839315
O46	O	-3.590530	0.221369	-0.339315
N47	N	-4.012485	-0.120940	-0.822977
N48	N	-3.512485	0.379060	-0.322977
C49	C	-3.957360	-0.035877	-0.784823
C50	C	-3.457360	0.464123	-0.284823
O51	O	-3.935423	0.036779	-0.808694
O52	O	-3.435423	0.536779	-0.308694
C53	C	-3.930886	-0.036204	-0.725062
C54	C	-3.430886	0.463796	-0.225062
C55	C	-3.959522	-0.121594	-0.703453
C56	C	-3.459522	0.378406	-0.203453
C57	C	-4.043284	-0.292034	-0.719993
C58	C	-3.543284	0.207966	-0.219993
C59	C	-4.016792	-0.292360	-0.660234
C60	C	-3.516792	0.207640	-0.160234
C61	C	-3.961666	-0.207303	-0.622084
C62	C	-3.461666	0.292697	-0.122084
C63	C	-3.933031	-0.121920	-0.643694
C64	C	-3.433031	0.378080	-0.143694
C65	C	-3.875776	0.048858	-0.686909
C66	C	-3.375776	0.548858	-0.186909
C67	C	-3.849305	0.048522	-0.627144
C68	C	-3.349305	0.548522	-0.127144
C69	C	-3.877941	-0.036867	-0.605535
C70	C	-3.377941	0.463133	-0.105535
C71	C	-3.851413	-0.037189	-0.545785
C72	C	-3.351413	0.462811	-0.045785
N73	N	-3.880065	-0.122574	-0.524173
N74	N	-3.380065	0.377426	-0.024173
C75	C	-3.935192	-0.207631	-0.562323
C76	C	-3.435192	0.292369	-0.062323
C77	C	-4.012964	-0.035195	-0.910327
C78	C	-3.512964	0.464805	-0.410327
C79	C	-4.039422	-0.034866	-0.970088
C80	C	-3.539422	0.465134	-0.470088
C81	C	-4.123203	-0.205315	-0.986626
C82	C	-3.623203	0.294685	-0.486626
C83	C	-4.096729	-0.205642	-0.926864
C84	C	-3.596729	0.294358	-0.426864
C85	C	-4.041616	-0.120580	-0.888715
C86	C	-3.541616	0.379420	-0.388715
C87	C	-3.879553	-0.208308	-0.436824
C88	C	-3.379553	0.291692	0.063176
C89	C	-3.853047	-0.208626	-0.377058
C90	C	-3.353047	0.291374	0.122942
C91	C	-3.769280	-0.038179	-0.360526
C92	C	-3.269280	0.461821	0.139474
C93	C	-3.795773	-0.037860	-0.420285
C94	C	-3.295773	0.462140	0.079715
C95	C	-3.850919	-0.122932	-0.458434
C96	C	-3.350919	0.377068	0.041566
O97	O	-3.802031	0.035080	-0.507801
O98	O	-3.302031	0.535080	-0.007801
O99	O	-3.957146	-0.280275	-0.538444
O100	O	-3.457146	0.219725	-0.038444
C101	C	-4.115559	0.043609	-0.172444
C102	C	-3.615559	0.543609	0.327556
C103	C	-4.048891	0.146990	-0.172798
C104	C	-3.548891	0.646990	0.327202
C105	C	-4.143478	-0.119566	-0.071846
C106	C	-3.643478	0.380434	0.428154
C107	C	-4.094562	-0.119924	-0.008243
C108	C	-3.594562	0.380076	0.491757
H109	H	-3.924453	-0.277583	-0.467878
H110	H	-3.424453	0.222417	0.032122
H111	H	-3.772465	0.031671	-0.437880
H112	H	-3.272465	0.531671	0.062120
O113	O	-3.883933	-0.300732	-0.353756
O114	O	-3.383933	0.199268	0.146244
H115	H	-3.856231	-0.286676	-0.305790
H116	H	-3.356231	0.213324	0.194210
H117	H	-4.040126	-0.361893	-0.642646
H118	H	-3.540126	0.138107	-0.142646
H119	H	-4.088178	-0.361302	-0.751049
H120	H	-3.588178	0.138698	-0.251049
O121	O	-4.127629	-0.297739	-0.903558
O122	O	-3.627629	0.202261	-0.403558
H123	H	-4.170418	-0.356825	-0.940132
H124	H	-3.670418	0.143175	-0.440132
O125	O	-4.182693	-0.297061	-1.027779
O126	O	-3.682693	0.202939	-0.527779
H127	H	-4.196313	-0.282481	-1.072964
H128	H	-3.696313	0.217519	-0.572964
H129	H	-3.804432	0.117792	-0.596085
H130	H	-3.304432	0.617792	-0.096085
O131	O	-3.709784	0.053556	-0.319369
O132	O	-3.209784	0.553556	0.180631
H133	H	-3.831556	0.053999	-0.293923
H134	H	-3.331556	0.553999	0.206077
H135	H	-4.016074	0.034667	-0.987675
H136	H	-3.516074	0.534667	-0.487675
H137	H	-3.968069	0.034078	-0.879269
H138	H	-3.468069	0.534078	-0.379269
O139	O	-3.844768	0.140960	-0.710205
O140	O	-3.344768	0.640960	-0.210205
H141	H	-3.801968	0.200041	-0.673629
H142	H	-3.301968	0.700041	-0.173629
