data_functionalizedCrystal
_audit_creation_method	'MofGen! by Chris Wilmer'
_symmetry_space_group_name_H-M	'P1'
_symmetry_Int_Tables_number	1
_symmetry_cell_setting	triclinic
loop_
_symmetry_equiv_pos_as_xyz
  x,y,z
_cell_length_a	16.974885
_cell_length_b	15.455425
_cell_length_c	16.974813
_cell_angle_alpha	83.359617
_cell_angle_beta	83.628230
_cell_angle_gamma	90.646018
loop_
_atom_site_label
_atom_site_type_symbol
_atom_site_fract_x
_atom_site_fract_y
_atom_site_fract_z
O1	O	1.049266	-0.005631	0.100989
O2	O	0.819778	-0.022679	0.114557
O3	O	0.940575	-0.005621	-0.007701
O4	O	0.928469	-0.022689	0.223247
O5	O	0.934391	0.138636	-0.013846
O6	O	0.813594	0.121578	0.108412
O7	O	1.043082	0.138626	0.094844
Cu8	Cu	0.927774	0.143274	0.101067
Cu9	Cu	0.935087	-0.027327	0.108334
O10	O	0.922286	0.121568	0.217102
C11	C	0.787315	0.047418	0.111084
C12	C	0.699800	0.041364	0.109879
C13	C	0.207552	-0.001210	0.103437
C14	C	0.289781	0.004490	0.104568
C15	C	0.327516	0.085975	0.101790
C16	C	0.283019	0.161766	0.097872
C17	C	0.200792	0.156066	0.096735
C18	C	0.573076	0.111455	0.104825
C19	C	0.655309	0.117149	0.105965
C20	C	0.662066	-0.040127	0.112659
C21	C	0.579836	-0.045821	0.111526
C22	C	0.535346	0.029971	0.107605
N23	N	0.411567	0.091803	0.102948
N24	N	0.451298	0.024142	0.106441
C25	C	0.936907	0.068540	-0.040318
C26	C	0.935184	0.074596	-0.128351
C27	C	1.075545	0.068528	0.098317
C28	C	1.163060	0.074575	0.099522
N29	N	0.922636	0.263266	0.095956
N30	N	0.940230	-0.147318	0.113439
C31	C	0.894274	0.807276	0.067456
C32	C	0.898154	0.716468	0.071352
C33	C	0.947988	0.671067	0.121236
C34	C	0.993950	0.716479	0.167221
C35	C	0.990073	0.807286	0.163320
C36	C	0.964721	0.399485	0.138040
C37	C	0.968593	0.308672	0.141939
C38	C	0.872798	0.308668	0.046068
C39	C	0.868922	0.399476	0.042175
C40	C	0.914887	0.444880	0.088157
N41	N	0.951953	0.578246	0.125222
N42	N	0.910925	0.537700	0.084166
C43	C	0.937746	-0.001193	-0.166355
C44	C	0.936122	0.004500	-0.249071
C45	C	0.931940	0.085983	-0.293782
C46	C	0.929375	0.161777	-0.255772
C47	C	0.930994	0.156083	-0.173057
C48	C	0.926731	0.111444	-0.541523
C49	C	0.925114	0.117132	-0.624243
C50	C	0.931860	-0.040146	-0.617537
C51	C	0.933483	-0.045832	-0.534821
C52	C	0.930914	0.029962	-0.496818
N53	N	0.930281	0.091804	-0.378331
N54	N	0.932567	0.024139	-0.412269
C55	C	0.925953	0.047405	0.249719
C56	C	0.927677	0.041343	0.337752
H57	H	0.164566	0.217778	0.093556
H58	H	0.549118	-0.112174	0.113788
H59	H	0.536864	0.173171	0.101620
O60	O	0.938854	-0.077257	-0.290043
H61	H	0.994458	-0.111796	-0.279859
H62	H	0.936890	-0.112184	-0.498423
O63	O	1.014290	0.448447	0.187642
H64	H	1.054830	0.495436	0.147700
H65	H	0.686029	0.183507	0.103708
O66	O	0.323719	0.249653	0.094880
H67	H	0.278964	0.301394	0.091961
H68	H	0.326004	-0.057222	0.107751
O69	O	0.840540	0.856246	0.013636
H70	H	0.809247	0.809415	-0.017695
H71	H	0.698298	-0.101832	0.115850
H72	H	0.860733	0.679503	0.033905
O73	O	1.022349	0.259709	0.195747
H74	H	0.986398	0.212724	0.240286
H75	H	0.928896	0.217798	-0.142113
H76	H	0.828343	0.436435	0.001553
O77	O	0.166850	-0.089096	0.106434
H78	H	0.136469	-0.091161	0.052030
H79	H	0.835376	0.271689	0.008632
O80	O	1.047695	0.667516	0.221033
H81	H	1.042663	0.596742	0.216030
O82	O	0.920616	0.205019	-0.672478
H83	H	0.866045	0.207095	-0.703051
O84	O	1.039636	0.856265	0.212919
H85	H	1.074935	0.809440	0.248269
O86	O	0.942250	-0.089079	-0.118131
H87	H	0.943749	-0.140823	-0.158456
O88	O	0.934618	-0.121894	-0.658522
H89	H	0.932781	-0.104251	-0.723549
H90	H	0.924654	0.173162	-0.510592
O91	O	0.924879	0.249667	-0.303992
H92	H	0.924198	0.240897	-0.367896
