data_functionalizedCrystal
_audit_creation_method	'MofGen! by Chris Wilmer'
_symmetry_space_group_name_H-M	'P1'
_symmetry_Int_Tables_number	1
_symmetry_cell_setting	triclinic
loop_
_symmetry_equiv_pos_as_xyz
  x,y,z
_cell_length_a	15.297475
_cell_length_b	12.645330
_cell_length_c	15.296720
_cell_angle_alpha	80.350659
_cell_angle_beta	88.382886
_cell_angle_gamma	80.321044
loop_
_atom_site_label
_atom_site_type_symbol
_atom_site_fract_x
_atom_site_fract_y
_atom_site_fract_z
Zn1	Zn	1.253448	-0.825067	0.726648
Zn2	Zn	1.278720	-0.977718	0.580172
Zn3	Zn	1.132323	-0.765511	0.554885
Zn4	Zn	1.106946	-0.967297	0.701300
O5	O	1.192859	-0.883898	0.640751
O6	O	1.379380	-0.874601	0.728408
O7	O	1.280497	-0.929005	0.454242
O8	O	1.148435	-0.625078	0.577695
O9	O	1.397947	-0.986754	0.620794
O10	O	1.237425	-0.668833	0.703888
O11	O	1.172939	-0.773098	0.435663
O12	O	1.006377	-0.762993	0.553116
O13	O	1.105183	-0.968993	0.827238
O14	O	0.987732	-0.911244	0.660687
O15	O	1.212818	-0.864497	0.845861
O16	O	1.255889	-1.124669	0.596215
O17	O	1.129687	-1.117013	0.685207
C18	C	0.965271	-0.829526	0.601408
C19	C	0.867904	-0.806295	0.584597
C20	C	0.554772	-1.049945	0.760902
C21	C	0.646253	-1.071780	0.776693
C22	C	0.701670	-1.005410	0.728671
C23	C	0.665597	-0.917203	0.664853
C24	C	0.574108	-0.895371	0.649055
C25	C	0.721006	-0.850836	0.616824
C26	C	0.684933	-0.762629	0.553007
C27	C	0.593452	-0.740801	0.537212
C28	C	0.538035	-0.807170	0.585234
C29	C	0.812496	-0.872668	0.632623
C30	C	0.831831	-0.718094	0.520776
C31	C	0.740350	-0.696259	0.504984
C32	C	1.192797	-1.159311	0.640728
C33	C	1.192846	-1.277157	0.640761
C34	C	1.113695	-1.440051	0.697003
C35	C	1.113388	-1.317372	0.696725
C36	C	1.183843	-1.300270	0.544135
C37	C	1.183360	-1.422840	0.544476
C38	C	1.281541	-1.470384	0.680468
C39	C	1.280623	-1.347981	0.682388
C40	C	1.421336	-0.938483	0.680249
C41	C	1.518699	-0.961744	0.697081
C42	C	1.153351	-0.922226	0.869221
C43	C	1.136514	-0.938559	0.966581
C44	C	1.192942	-0.607419	0.640798
C45	C	1.192977	-0.489600	0.640818
C46	C	1.232264	-0.845655	0.413179
C47	C	1.249270	-0.829064	0.315849
C48	C	1.313223	-0.766986	1.279808
C49	C	1.329047	-0.751644	1.188334
C50	C	1.280915	-0.798371	1.132891
C51	C	1.216957	-0.860444	1.168931
C52	C	1.201136	-0.875795	1.260415
C53	C	1.168828	-0.907179	1.113499
C54	C	1.104870	-0.969252	1.149538
C55	C	1.089052	-0.984600	1.241013
C56	C	1.137183	-0.937873	1.296456
C57	C	1.184649	-0.891828	1.022015
C58	C	1.072562	-1.000637	1.002622
C59	C	1.056738	-1.015979	1.094096
H60	H	0.776158	-1.023193	0.741533
H61	H	1.048109	-1.452052	0.669746
C62	C	0.700658	-0.599236	0.434783
N63	N	0.670760	-0.526159	0.381907
H64	H	1.293803	-0.785875	1.058410
H65	H	1.292878	-1.517792	0.750574
H66	H	1.124303	-0.950362	1.370942
C67	C	0.685927	-1.168807	0.846889
N68	N	0.715810	-1.241893	0.899764
C69	C	0.493809	-1.122944	0.813715
N70	N	0.447890	-1.177931	0.853498
H71	H	1.036980	-1.035154	1.270355
C72	C	0.892786	-0.645080	0.467950
N73	N	0.938703	-0.590091	0.428164
C74	C	1.118492	-1.297217	0.792843
N75	N	1.122333	-1.282041	0.865243
H76	H	1.004662	-1.066519	1.123453
H77	H	1.287703	-1.334748	0.753579
C78	C	0.553775	-0.643771	0.467009
N79	N	0.523891	-0.570686	0.414133
C80	C	1.399391	-0.683355	1.148696
N81	N	1.452375	-0.631911	1.118839
H82	H	0.463542	-0.789395	0.572381
C83	C	1.118549	-1.500381	0.793390
N84	N	1.122204	-1.545831	0.865991
H85	H	1.120346	-1.250226	0.512165
C86	C	1.362897	-1.313261	0.632846
N87	N	1.424865	-1.287109	0.595522
H88	H	0.841857	-0.944487	0.684584
C89	C	1.361074	-1.514563	0.625452
N90	N	1.420971	-1.547844	0.584011
H91	H	1.047408	-1.269102	0.669194
H92	H	1.352410	-0.728955	1.324958
H93	H	1.236723	-0.841287	0.992680
H94	H	1.033370	-1.038688	0.957480
H95	H	1.240465	-1.273756	0.500427
H96	H	1.239467	-1.454946	0.500326
C97	C	1.096538	-1.435205	0.501615
N98	N	1.031139	-1.444513	0.469335
