data_functionalizedCrystal
_audit_creation_method	'MofGen! by Chris Wilmer'
_symmetry_space_group_name_H-M	'P1'
_symmetry_Int_Tables_number	1
_symmetry_cell_setting	triclinic
loop_
_symmetry_equiv_pos_as_xyz
  x,y,z
_cell_length_a	12.759401
_cell_length_b	19.076808
_cell_length_c	12.759393
_cell_angle_alpha	87.664746
_cell_angle_beta	89.978838
_cell_angle_gamma	92.325175
loop_
_atom_site_label
_atom_site_type_symbol
_atom_site_fract_x
_atom_site_fract_y
_atom_site_fract_z
Zn1	Zn	1.589376	-0.280144	-0.577214
Zn2	Zn	1.582177	-0.397868	-0.394456
Zn3	Zn	1.413676	-0.280184	-0.401542
Zn4	Zn	1.406577	-0.397817	-0.570092
O5	O	1.497951	-0.339003	-0.485826
O6	O	1.735442	-0.295765	-0.552985
O7	O	1.559783	-0.382295	-0.248373
O8	O	1.442966	-0.181682	-0.430791
O9	O	1.730153	-0.382256	-0.418714
O10	O	1.572053	-0.181653	-0.559856
O11	O	1.435986	-0.295833	-0.253579
O12	O	1.265713	-0.295784	-0.423886
O13	O	1.430867	-0.382169	-0.718060
O14	O	1.260498	-0.382208	-0.547719
O15	O	1.565169	-0.295716	-0.723292
O16	O	1.552900	-0.496358	-0.411809
O17	O	1.423887	-0.496321	-0.540848
C18	C	1.224985	-0.338995	-0.485800
C19	C	1.108207	-0.339009	-0.485812
C20	C	0.940928	-0.384078	-0.550218
C21	C	1.050652	-0.384077	-0.550189
C22	C	1.056032	-0.293945	-0.421452
C23	C	0.946310	-0.293950	-0.421476
C24	C	0.937823	-0.436113	-0.624547
C25	C	1.047547	-0.436112	-0.624518
C26	C	1.486870	-0.521878	-0.474810
C27	C	1.482226	-0.600113	-0.470132
C28	C	1.547202	-0.636792	-0.535186
C29	C	1.542834	-0.710302	-0.530792
C30	C	1.473494	-0.747132	-0.461339
C31	C	1.408511	-0.710447	-0.396282
C32	C	1.412875	-0.636939	-0.400682
C33	C	1.453237	-0.966987	-0.440974
C34	C	1.448881	-1.040500	-0.436578
C35	C	1.583203	-1.040350	-0.571089
C36	C	1.587565	-0.966840	-0.575478
C37	C	1.522578	-0.930162	-0.510426
N38	N	1.469030	-0.822270	-0.456844
N39	N	1.527038	-0.855025	-0.514926
C40	C	1.771984	-0.339012	-0.485853
C41	C	1.888761	-0.339015	-0.485865
C42	C	1.498029	-0.338932	-0.759864
C43	C	1.498062	-0.338902	-0.876642
C44	C	1.509104	-0.155414	-0.496909
C45	C	1.513857	-0.077179	-0.501631
C46	C	1.568003	-0.293881	-0.934231
C47	C	1.568029	-0.293856	-1.043956
C48	C	1.428172	-0.383878	-1.038495
C49	C	1.428141	-0.383899	-0.928772
C50	C	1.648752	-0.241910	-0.937384
C51	C	1.648779	-0.241885	-1.047110
C52	C	1.497937	-0.339023	-0.212858
C53	C	1.498120	-0.338855	-0.096092
H54	H	0.904733	-0.490612	-0.599349
H55	H	1.078423	-0.487874	-0.592122
O56	O	1.352654	-0.432420	-0.866656
H57	H	1.304032	-0.463697	-0.921342
H58	H	1.371242	-0.420511	-1.080953
H59	H	1.400324	-0.937129	-0.388004
O60	O	0.894355	-0.410331	-0.728553
H61	H	0.848263	-0.363154	-0.716852
O62	O	1.749552	-0.267779	-0.890740
H63	H	1.760837	-0.322327	-0.914348
O64	O	1.088238	-0.416841	-0.733490
H65	H	1.056880	-0.455755	-0.789010
O66	O	1.622000	-0.597069	-0.610087
H67	H	1.666443	-0.634927	-0.654588
O68	O	1.612915	-0.749866	-0.600955
H69	H	1.661874	-0.711906	-0.649980
H70	H	1.630268	-0.187400	-0.910904
H71	H	1.622785	-0.190092	-1.084270
H72	H	1.729270	-0.256483	-1.076014
H73	H	1.102902	-0.257254	-0.369028
H74	H	0.903839	-0.257264	-0.369061
H75	H	1.392411	-1.070485	-0.380019
O76	O	1.653284	-1.079913	-0.641254
H77	H	1.702237	-1.041953	-0.690283
O78	O	1.662386	-0.927116	-0.650354
H79	H	1.706844	-0.964971	-0.694846
H80	H	1.352049	-0.740440	-0.339736
O81	O	1.342803	-0.597372	-0.330509
H82	H	1.293862	-0.635330	-0.281465
