data_functionalizedCrystal
_audit_creation_method	'MofGen! by Chris Wilmer'
_symmetry_space_group_name_H-M	'P1'
_symmetry_Int_Tables_number	1
_symmetry_cell_setting	triclinic
loop_
_symmetry_equiv_pos_as_xyz
  x,y,z
_cell_length_a	12.759401
_cell_length_b	19.805404
_cell_length_c	12.759393
_cell_angle_alpha	90.034362
_cell_angle_beta	90.020938
_cell_angle_gamma	90.031118
loop_
_atom_site_label
_atom_site_type_symbol
_atom_site_fract_x
_atom_site_fract_y
_atom_site_fract_z
Zn1	Zn	1.606158	-0.269403	0.593992
Zn2	Zn	1.606003	-0.382606	0.418300
Zn3	Zn	1.430456	-0.269439	0.418327
Zn4	Zn	1.430403	-0.382558	0.593937
O5	O	1.518255	-0.326001	0.506139
O6	O	1.753158	-0.284424	0.570698
O7	O	1.582674	-0.367629	0.271283
O8	O	1.453851	-0.174718	0.441663
O9	O	1.753045	-0.367594	0.441618
O10	O	1.582938	-0.174691	0.570724
O11	O	1.453701	-0.284486	0.271302
O12	O	1.283428	-0.284440	0.441611
O13	O	1.453759	-0.367513	0.740966
O14	O	1.283389	-0.367548	0.570631
O15	O	1.582886	-0.284378	0.741006
O16	O	1.582622	-0.477316	0.441565
O17	O	1.453609	-0.477281	0.570605
C18	C	1.245288	-0.325993	0.506118
C19	C	1.128511	-0.326006	0.506134
C20	C	1.518122	-0.501858	0.506099
C21	C	1.518161	-0.577089	0.506117
C22	C	1.073656	-0.369346	0.573209
C23	C	0.963932	-0.369349	0.573230
C24	C	0.963928	-0.282669	0.439092
C25	C	1.073650	-0.282663	0.439077
C26	C	1.585690	-1.038876	0.439095
C27	C	1.585641	-0.968188	0.439075
C28	C	1.518393	-0.932851	0.506195
C29	C	1.451182	-0.968207	0.573332
C30	C	1.451227	-1.038894	0.573347
C31	C	1.450999	-0.683134	0.573275
C32	C	1.450962	-0.612441	0.573257
C33	C	1.585413	-0.612427	0.439002
C34	C	1.585458	-0.683114	0.439017
C35	C	1.518244	-0.718464	0.506150
C36	C	1.518297	-0.795112	0.506170
C37	C	1.518344	-0.856204	0.506181
C38	C	1.792288	-0.326010	0.506161
C39	C	1.909065	-0.326014	0.506170
C40	C	1.518334	-0.325936	0.780173
C41	C	1.518367	-0.325909	0.896949
C42	C	1.518417	-0.149459	0.506203
C43	C	1.518487	-0.074227	0.506230
C44	C	1.518237	-0.326017	0.233172
C45	C	1.518407	-0.325854	0.116396
C46	C	1.585608	-0.282614	0.951834
C47	C	1.585626	-0.282584	1.061558
C48	C	1.451159	-0.369151	1.061503
C49	C	1.451136	-0.369177	0.951781
H50	H	1.118321	-0.404637	0.627814
H51	H	1.396196	-0.583672	0.627916
Cl52	Cl	1.142616	-0.228169	0.354754
H53	H	1.640349	-0.247380	0.907193
Cl54	Cl	1.366591	-0.423606	0.882778
H55	H	1.640379	-0.247328	1.106240
H56	H	0.919274	-0.404640	0.627851
Cl57	Cl	1.366519	-0.727564	0.657689
H58	H	1.396422	-0.939432	0.627979
Cl59	Cl	1.366650	-0.423546	1.130442
Cl60	Cl	1.366732	-1.083335	0.657742
H61	H	0.919246	-0.247382	0.384495
H62	H	1.640362	-0.939405	0.384408
Cl63	Cl	1.670241	-1.083292	0.354715
H64	H	1.640222	-0.711882	0.384364
H65	H	1.640140	-0.583638	0.384335
