data_functionalizedCrystal
_audit_creation_method	'MofGen! by Chris Wilmer'
_symmetry_space_group_name_H-M	'P1'
_symmetry_Int_Tables_number	1
_symmetry_cell_setting	triclinic
loop_
_symmetry_equiv_pos_as_xyz
  x,y,z
_cell_length_a	10.908878
_cell_length_b	10.967829
_cell_length_c	10.065875
_cell_angle_alpha	86.921207
_cell_angle_beta	83.443480
_cell_angle_gamma	72.684712
loop_
_atom_site_label
_atom_site_type_symbol
_atom_site_fract_x
_atom_site_fract_y
_atom_site_fract_z
O1	O	1.712842	-0.205138	-0.065224
O2	O	1.343420	-0.112150	-0.087100
O3	O	1.529974	-0.334011	-0.034913
O4	O	1.526287	0.016723	-0.117412
O5	O	1.494408	-0.291565	0.182092
O6	O	1.307853	-0.069705	0.129904
O7	O	1.677275	-0.162692	0.151780
Zn8	Zn	1.486917	-0.109459	0.175296
Zn9	Zn	1.533778	-0.165383	-0.110616
O10	O	1.490720	0.059168	0.099593
C11	C	1.278210	-0.082237	0.019357
C12	C	1.136894	-0.056358	0.013268
C13	C	1.083375	-0.150788	0.035479
C14	C	0.937317	-0.124043	0.029186
C15	C	1.509235	-0.356985	0.083982
C16	C	1.500414	-0.488675	0.114950
C17	C	1.514906	-0.569368	0.016340
C18	C	1.505788	-0.705477	0.048343
C19	C	1.742485	-0.192606	0.045320
C20	C	1.883803	-0.218487	0.051400
C21	C	1.511460	0.082142	-0.019305
C22	C	1.520283	0.213830	-0.050281
N23	N	1.454945	-0.071295	0.370425
N24	N	1.565759	-0.203559	-0.305742
C25	C	1.522645	-0.152111	0.457213
C26	C	1.498049	-0.122732	0.607470
H27	H	0.946110	-0.319142	0.075067
Br28	Br	1.693037	-0.354924	0.632671
H29	H	1.378770	0.019641	0.407360
Br30	Br	1.649269	-0.303922	0.395722
Br31	Br	1.371073	0.028845	0.669012
Br32	Br	1.552155	-0.733373	-0.230503
H33	H	1.074583	0.044287	-0.010412
Br34	Br	1.546865	-0.516590	-0.163867
Br35	Br	1.468468	-0.541458	0.295157
Br36	Br	0.833481	0.043718	-0.010292
Br37	Br	1.473842	-0.758254	0.228558
Br38	Br	1.187219	-0.318547	0.074931
