data_functionalizedCrystal
_audit_creation_method	'MofGen! by Chris Wilmer'
_symmetry_space_group_name_H-M	'P1'
_symmetry_Int_Tables_number	1
_symmetry_cell_setting	triclinic
loop_
_symmetry_equiv_pos_as_xyz
  x,y,z
_cell_length_a	18.215407
_cell_length_b	18.101397
_cell_length_c	18.215399
_cell_angle_alpha	90.031052
_cell_angle_beta	90.017331
_cell_angle_gamma	90.014979
loop_
_atom_site_label
_atom_site_type_symbol
_atom_site_fract_x
_atom_site_fract_y
_atom_site_fract_z
Zn1	Zn	1.125091	-0.294943	0.416062
Zn2	Zn	1.625091	0.205057	0.916062
Zn3	Zn	1.125010	-0.418790	0.292990
Zn4	Zn	1.625010	0.081210	0.792990
Zn5	Zn	1.002025	-0.294955	0.293014
Zn6	Zn	1.502025	0.205045	0.793014
Zn7	Zn	1.001999	-0.418735	0.416020
Zn8	Zn	1.501999	0.081265	0.916020
O9	O	1.063531	-0.356856	0.354522
O10	O	1.563531	0.143144	0.854522
O11	O	1.228064	-0.311389	0.399745
O12	O	1.728064	0.188611	0.899745
O13	O	1.108672	-0.402391	0.190009
O14	O	1.608672	0.097609	0.690009
O15	O	1.018394	-0.191320	0.309365
O16	O	1.518394	0.308680	0.809365
O17	O	1.228005	-0.402379	0.309324
O18	O	1.728005	0.097621	0.809324
O19	O	1.108811	-0.191311	0.399768
O20	O	1.608811	0.308689	0.899768
O21	O	1.018316	-0.311410	0.190027
O22	O	1.518316	0.188590	0.690027
O23	O	0.899037	-0.311357	0.309323
O24	O	1.399037	0.188643	0.809323
O25	O	1.018351	-0.402285	0.519010
O26	O	1.518351	0.097715	1.019010
O27	O	0.899018	-0.402297	0.399695
O28	O	1.399018	0.097703	0.899695
O29	O	1.108786	-0.311336	0.519041
O30	O	1.608786	0.188664	1.019041
O31	O	1.108648	-0.522415	0.309283
O32	O	1.608648	-0.022415	0.809283
O33	O	1.018272	-0.522375	0.399672
O34	O	1.518272	-0.022375	0.899672
C35	C	0.872325	-0.356823	0.354507
C36	C	1.372325	0.143177	0.854507
C37	C	0.790526	-0.356827	0.354519
C38	C	1.290526	0.143173	0.854519
C39	C	0.525494	-0.309568	0.401679
C40	C	1.025494	0.190432	0.901679
C41	C	0.602353	-0.309556	0.401676
C42	C	1.102353	0.190444	0.901676
C43	C	0.602310	-0.404167	0.307381
C44	C	1.102310	0.095833	0.807381
C45	C	0.525452	-0.404182	0.307387
C46	C	1.025452	0.095818	0.807387
C47	C	0.487046	-0.356878	0.354535
C48	C	0.987046	0.143122	0.854535
C49	C	0.640762	-0.356851	0.354526
C50	C	1.140762	0.143149	0.854526
C51	C	0.724096	-0.356839	0.354523
C52	C	1.224096	0.143161	0.854523
C53	C	0.403707	-0.356892	0.354539
C54	C	0.903707	0.143108	0.854539
C55	C	1.063468	-0.549266	0.354486
C56	C	1.563468	-0.049266	0.854486
C57	C	1.063509	-0.631580	0.354495
C58	C	1.563509	-0.131580	0.854495
C59	C	1.063602	-0.930671	0.354562
C60	C	1.563602	-0.430671	0.854562
C61	C	1.120306	-0.899340	0.297540
C62	C	1.620306	-0.399340	0.797540
C63	C	1.120502	-0.813722	0.297688
C64	C	1.620502	-0.313722	0.797688
C65	C	1.063556	-0.782289	0.354529
C66	C	1.563556	-0.282289	0.854529
C67	C	1.084580	-0.813297	0.432100
C68	C	1.584580	-0.313297	0.932100
C69	C	1.085018	-0.898942	0.431789
C70	C	1.585018	-0.398942	0.931789
C71	C	0.985724	-0.899173	0.334685
C72	C	1.485724	-0.399173	0.834685
C73	C	0.986109	-0.813523	0.332954
C74	C	1.486109	-0.313523	0.832954
C75	C	1.063528	-0.698429	0.354514
C76	C	1.563528	-0.198429	0.854514
C77	C	1.063632	-1.014531	0.354582
C78	C	1.563632	-0.514531	0.854582
C79	C	1.255484	-0.356889	0.354537
C80	C	1.755484	0.143111	0.854537
C81	C	1.337283	-0.356903	0.354543
C82	C	1.837283	0.143097	0.854543
C83	C	1.063574	-0.356803	0.546475
C84	C	1.563574	0.143197	1.046475
C85	C	1.063593	-0.356781	0.628274
C86	C	1.563593	0.143219	1.128274
C87	C	1.063614	-0.163694	0.354574
C88	C	1.563614	0.336306	0.854574
C89	C	1.063650	-0.081380	0.354596
C90	C	1.563650	0.418620	0.854596
C91	C	1.063530	-0.356854	0.163315
C92	C	1.563530	0.143146	0.663315
C93	C	1.063655	-0.356668	0.081517
C94	C	1.563655	0.143332	0.581517
C95	C	1.110710	-0.309359	0.893349
C96	C	1.610710	0.190641	1.393349
C97	C	1.110701	-0.309379	0.816490
C98	C	1.610701	0.190621	1.316490
C99	C	1.016536	-0.404095	0.816447
C100	C	1.516536	0.095905	1.316447
C101	C	1.016549	-0.404078	0.893304
C102	C	1.516549	0.095922	1.393304
C103	C	1.063634	-0.356706	0.931753
C104	C	1.563634	0.143294	1.431753
C105	C	1.063613	-0.356743	0.778037
C106	C	1.563613	0.143257	1.278037
C107	C	1.063603	-0.356765	0.694703
C108	C	1.563603	0.143235	1.194703
C109	C	1.063645	-0.356685	1.015092
C110	C	1.563645	0.143315	1.515092
H111	H	0.494148	-0.442712	0.268997
H112	H	0.994148	0.057288	0.768997
O113	O	0.929807	-0.926092	0.389705
O114	O	1.429807	-0.426092	0.889705
H115	H	0.904357	-0.877992	0.417649
H116	H	1.404357	-0.377992	0.917649
H117	H	0.978199	-0.442662	0.785133
H118	H	1.478199	0.057338	1.285133
H119	H	0.494226	-0.271050	0.440069
H120	H	0.994226	0.228950	0.940069
H121	H	0.633653	-0.271032	0.440066
H122	H	1.133653	0.228968	0.940066
O123	O	1.161490	-0.258273	0.934830
O124	O	1.661490	0.241727	1.434830
H125	H	1.219245	-0.270986	0.920094
H126	H	1.719245	0.229014	1.420094
H127	H	0.978214	-0.442637	0.924574
H128	H	1.478214	0.057363	1.424574
H129	H	0.633589	-0.442678	0.268993
H130	H	1.133589	0.057322	0.768993
O131	O	1.161475	-0.258310	0.775071
O132	O	1.661475	0.241690	1.275071
H133	H	1.198906	-0.291469	0.740058
H134	H	1.698906	0.208531	1.240058
H135	H	1.044542	-0.792934	0.475729
H136	H	1.544542	-0.292934	0.975729
H137	H	0.970256	-0.793264	0.275867
H138	H	1.470256	-0.293264	0.775867
H139	H	1.107349	-0.792760	0.240169
H140	H	1.607349	-0.292760	0.740169
H141	H	1.107312	-0.919983	0.239849
H142	H	1.607312	-0.419983	0.739849
O143	O	1.196309	-0.927767	0.314760
O144	O	1.696309	-0.427767	0.814760
H145	H	1.193874	-0.964112	0.363756
H146	H	1.693874	-0.464112	0.863756
O147	O	1.159278	-0.785201	0.454800
O148	O	1.659278	-0.285201	0.954800
H149	H	1.154284	-0.753272	0.506596
H150	H	1.654284	-0.253272	1.006596
H151	H	1.178190	-0.793184	0.310839
H152	H	1.678190	-0.293184	0.810839
H153	H	1.141944	-0.918867	0.448627
H154	H	1.641944	-0.418867	0.948627
O155	O	1.032698	-0.926402	0.489992
O156	O	1.532698	-0.426402	0.989992
H157	H	1.007200	-0.878507	0.518239
H158	H	1.507200	-0.378507	1.018239
O159	O	0.960391	-0.927846	0.261051
O160	O	1.460391	-0.427846	0.761051
H161	H	0.957228	-0.989056	0.262824
H162	H	1.457228	-0.489056	0.762824
O163	O	0.927128	-0.785192	0.383932
O164	O	1.427128	-0.285192	0.883932
H165	H	0.952205	-0.748247	0.425633
H166	H	1.452205	-0.248247	0.925633
