data_functionalizedCrystal
_audit_creation_method	'MofGen! by Chris Wilmer'
_symmetry_space_group_name_H-M	'P1'
_symmetry_Int_Tables_number	1
_symmetry_cell_setting	triclinic
loop_
_symmetry_equiv_pos_as_xyz
  x,y,z
_cell_length_a	15.995350
_cell_length_b	15.995350
_cell_length_c	13.596369
_cell_angle_alpha	89.996243
_cell_angle_beta	89.998321
_cell_angle_gamma	83.492375
loop_
_atom_site_label
_atom_site_type_symbol
_atom_site_fract_x
_atom_site_fract_y
_atom_site_fract_z
O1	O	1.110986	0.107928	-0.081703
O2	O	0.867211	0.121256	-0.081723
O3	O	0.995763	-0.007296	-0.081712
O4	O	0.982435	0.236479	-0.081714
O5	O	0.995750	-0.007303	0.081871
O6	O	0.867198	0.121249	0.081860
O7	O	1.110974	0.107921	0.081880
Zn8	Zn	0.989084	0.114584	0.107842
Zn9	Zn	0.989101	0.114593	-0.107685
O10	O	0.982422	0.236473	0.081869
C11	C	0.836010	0.120701	0.000066
C12	C	0.743060	0.119049	0.000058
C13	C	0.405312	0.113117	0.000079
C14	C	0.452746	0.021565	0.000445
C15	C	0.549436	0.023217	0.000069
C16	C	0.572873	0.116060	0.000069
C17	C	0.531793	0.161220	-0.093341
C18	C	0.435157	0.158920	-0.093412
C19	C	0.434804	0.160804	0.092612
C20	C	0.531749	0.160782	0.093840
C21	C	0.667570	0.117727	0.000061
C22	C	0.310614	0.111452	0.000081
C23	C	0.995205	-0.038494	0.000078
C24	C	0.993553	-0.131444	0.000072
C25	C	0.987621	-0.469192	0.000075
C26	C	0.896069	-0.421758	-0.000299
C27	C	0.897721	-0.325068	0.000070
C28	C	0.990564	-0.301631	0.000073
C29	C	1.035713	-0.342713	0.093489
C30	C	1.033413	-0.439349	0.093567
C31	C	1.035319	-0.439699	-0.092457
C32	C	1.035297	-0.342753	-0.093692
C33	C	0.992231	-0.206934	0.000075
C34	C	0.985956	-0.563890	0.000080
C35	C	1.142175	0.108476	0.000089
C36	C	1.235125	0.110127	0.000090
C37	C	0.982980	0.267671	0.000077
C38	C	0.984631	0.360621	0.000076
N39	N	0.989079	0.114577	0.254934
N40	N	0.989113	0.114593	-0.254777
C41	C	0.989100	0.114594	0.656225
C42	C	0.989091	0.114592	0.544574
C43	C	0.989090	0.114586	0.455583
C44	C	0.989080	0.114583	0.343925
H45	H	0.559060	0.127815	0.162944
H46	H	0.402909	0.226136	-0.097652
H47	H	1.100629	-0.471597	0.097808
C48	C	0.407076	0.120357	0.188266
C49	C	0.429142	0.156749	0.288608
C50	C	0.401421	0.116287	0.384256
C51	C	0.351633	0.039433	0.379562
C52	C	0.329564	0.003037	0.279217
C53	C	0.357285	0.043499	0.183569
H54	H	0.466001	0.213644	0.292086
H55	H	0.417758	0.143230	0.458538
H56	H	0.331112	0.009481	0.450367
H57	H	0.292705	-0.053859	0.275739
H58	H	0.340948	0.016555	0.109287
C59	C	0.552489	0.252251	0.101460
C60	C	0.607374	0.288097	0.022315
C61	C	0.628110	0.379572	0.029925
C62	C	0.593961	0.435201	0.116680
C63	C	0.539073	0.399356	0.195831
C64	C	0.518337	0.307881	0.188222
H65	H	0.632656	0.246917	-0.041912
H66	H	0.668742	0.406106	-0.028669
H67	H	0.609311	0.502916	0.122313
H68	H	0.513791	0.440536	0.260058
H69	H	0.477705	0.281347	0.246815
H70	H	0.577299	-0.012515	-0.067007
H71	H	0.403042	0.228304	0.093244
C72	C	0.849759	-0.286658	-0.090380
C73	C	0.809685	-0.343958	-0.163454
C74	C	0.761711	-0.305552	-0.253901
C75	C	0.753812	-0.209846	-0.271274
C76	C	0.793888	-0.152540	-0.198197
C77	C	0.841862	-0.190946	-0.107751
H78	H	0.815531	-0.414811	-0.150596
H79	H	0.732045	-0.347975	-0.307997
H80	H	0.718300	-0.181416	-0.338228
H81	H	0.788042	-0.081687	-0.211056
H82	H	0.871528	-0.148524	-0.053655
H83	H	0.433158	-0.014859	-0.066173
C84	C	1.126509	-0.482599	-0.093312
C85	C	1.185976	-0.468903	-0.007184
C86	C	1.277163	-0.511804	-0.008030
C87	C	1.308884	-0.568402	-0.095004
C88	C	1.249417	-0.582102	-0.181138
C89	C	1.158230	-0.539200	-0.180292
H90	H	1.162495	-0.427003	0.057205
H91	H	1.321184	-0.501662	0.055733
H92	H	1.376387	-0.600160	-0.095630
H93	H	1.272898	-0.624001	-0.245527
H94	H	1.114208	-0.549342	-0.244055
H95	H	0.560173	0.129859	-0.162859
C96	C	0.846641	-0.446793	-0.090798
C97	C	0.764975	-0.488025	-0.077076
C98	C	0.715549	-0.513068	-0.167581
C99	C	0.747790	-0.496879	-0.271808
C100	C	0.829460	-0.455644	-0.285535
C101	C	0.878885	-0.430601	-0.195030
H102	H	0.741105	-0.500011	0.000083
H103	H	0.655092	-0.543593	-0.157419
H104	H	0.711202	-0.515417	-0.338805
H105	H	0.853330	-0.443658	-0.362694
H106	H	0.939343	-0.400077	-0.205192
H107	H	1.002287	-0.315502	-0.162798
C108	C	0.846844	-0.448218	0.089693
C109	C	0.755054	-0.410245	0.105965
C110	C	0.705833	-0.436705	0.195960
C111	C	0.748401	-0.501139	0.269682
C112	C	0.840196	-0.539116	0.253412
C113	C	0.889418	-0.512656	0.163417
H114	H	0.723538	-0.362544	0.051390
H115	H	0.637880	-0.408591	0.208004
H116	H	0.711965	-0.520726	0.336301
H117	H	0.871713	-0.586817	0.307987
H118	H	0.957371	-0.540769	0.151373
H119	H	0.861981	-0.297206	0.067143
H120	H	1.000479	-0.457653	0.163394
C121	C	0.993335	-0.304386	0.187403
C122	C	0.990350	-0.209280	0.207042
C123	C	0.947966	-0.170955	0.300953
C124	C	0.908567	-0.227736	0.375225
C125	C	0.911551	-0.322848	0.355589
C126	C	0.953935	-0.361173	0.261678
H127	H	1.019516	-0.167242	0.152059
H128	H	0.945757	-0.100546	0.315489
H129	H	0.877192	-0.199366	0.444744
H130	H	0.882385	-0.364886	0.410572
H131	H	0.956144	-0.431581	0.247142
H132	H	0.416854	0.125993	-0.163239
C133	C	1.127858	-0.323630	0.098198
C134	C	1.163263	-0.270395	0.017078
C135	C	1.255407	-0.251311	0.021786
C136	C	1.312146	-0.285461	0.107612
C137	C	1.276742	-0.338699	0.188738
C138	C	1.184598	-0.357783	0.184031
H139	H	1.121261	-0.245112	-0.046461
H140	H	1.281616	-0.211900	-0.038270
H141	H	1.380357	-0.271333	0.111097
H142	H	1.318744	-0.363982	0.252278
H143	H	1.158389	-0.397194	0.244086
C144	C	0.994892	-0.467438	-0.188112
C145	C	0.918044	-0.517235	-0.183419
C146	C	0.877607	-0.544974	-0.279066
C147	C	0.914017	-0.522915	-0.379407
C148	C	0.990869	-0.473115	-0.384104
C149	C	1.031306	-0.445376	-0.288457
H150	H	0.891087	-0.533566	-0.109137
H151	H	0.820716	-0.581839	-0.275589
H152	H	0.884083	-0.543449	-0.450212
H153	H	1.017826	-0.456784	-0.458386
H154	H	1.088197	-0.408511	-0.291934
H155	H	0.434219	-0.015033	0.067433
C156	C	0.587844	-0.024754	0.090515
C157	C	0.530543	-0.064836	0.163592
C158	C	0.568947	-0.112818	0.254035
C159	C	0.664653	-0.120718	0.271401
C160	C	0.721960	-0.080634	0.198322
C161	C	0.683556	-0.032652	0.107879
H162	H	0.459690	-0.058989	0.150738
H163	H	0.526523	-0.142490	0.308133
H164	H	0.693082	-0.156237	0.338353
H165	H	0.792812	-0.086481	0.211176
H166	H	0.725979	-0.002980	0.053782
C167	C	0.550876	0.253365	-0.098044
C168	C	0.598946	0.284275	-0.186601
C169	C	0.618031	0.376420	-0.191301
C170	C	0.589047	0.437655	-0.107446
C171	C	0.540975	0.406746	-0.018883
C172	C	0.521890	0.314601	-0.014182
H173	H	0.620404	0.238944	-0.248682
H174	H	0.653617	0.399300	-0.256862
H175	H	0.603175	0.505866	-0.110925
H176	H	0.519517	0.452077	0.043198
H177	H	0.486303	0.291721	0.051378
H178	H	1.103002	-0.327391	-0.099329
