data_functionalizedCrystal
_audit_creation_method	'MofGen! by Chris Wilmer'
_symmetry_space_group_name_H-M	'P1'
_symmetry_Int_Tables_number	1
_symmetry_cell_setting	triclinic
loop_
_symmetry_equiv_pos_as_xyz
  x,y,z
_cell_length_a	17.699097
_cell_length_b	17.699083
_cell_length_c	9.730223
_cell_angle_alpha	90.005287
_cell_angle_beta	90.006884
_cell_angle_gamma	83.285722
loop_
_atom_site_label
_atom_site_type_symbol
_atom_site_fract_x
_atom_site_fract_y
_atom_site_fract_z
O1	O	1.004068	0.095759	0.114407
O2	O	0.783691	0.108201	0.114385
O3	O	0.900106	-0.008209	0.114384
O4	O	0.887653	0.212169	0.114407
O5	O	0.900098	-0.008212	-0.114196
O6	O	0.783684	0.108198	-0.114195
O7	O	1.004061	0.095756	-0.114173
Zn8	Zn	0.893871	0.101976	-0.150476
Zn9	Zn	0.893881	0.101980	0.150688
O10	O	0.887646	0.212166	-0.114173
C11	C	0.755491	0.107752	0.000092
C12	C	0.671473	0.106409	0.000083
C13	C	0.155759	0.098181	0.124737
C14	C	0.234703	0.099438	0.124730
C15	C	0.274165	0.100065	0.000126
C16	C	0.234680	0.099429	-0.124480
C17	C	0.155738	0.098167	-0.124472
C18	C	0.553044	0.104516	-0.124516
C19	C	0.631991	0.105780	-0.124515
C20	C	0.632009	0.105787	0.124686
C21	C	0.553067	0.104525	0.124694
C22	C	0.513589	0.103885	0.000089
C23	C	0.427989	0.102521	0.000098
C24	C	0.359763	0.101434	0.000115
C25	C	0.899656	-0.036408	0.000094
C26	C	0.898317	-0.120426	0.000093
C27	C	0.966650	-0.169044	0.000098
C28	C	0.965388	-0.247987	0.000110
C29	C	0.895792	-0.278311	0.000108
C30	C	0.827454	-0.229687	0.000107
C31	C	0.828717	-0.150745	0.000105
C32	C	0.822359	-0.548050	0.000117
C33	C	0.821101	-0.626998	0.000116
C34	C	0.959030	-0.645292	0.000123
C35	C	0.960293	-0.566350	0.000121
C36	C	0.891955	-0.517733	0.000127
C37	C	0.893325	-0.432134	0.000117
C38	C	0.894422	-0.363909	0.000108
C39	C	1.032261	0.096205	0.000123
C40	C	1.116279	0.097547	0.000140
C41	C	0.888096	0.240364	0.000121
C42	C	0.889435	0.324382	0.000130
N43	N	0.893870	0.101973	-0.356013
C44	C	0.945436	0.050448	-0.427939
C45	C	0.945443	0.050448	-0.571822
C46	C	0.842317	0.153505	-0.571840
C47	C	0.842306	0.153500	-0.427959
N48	N	0.893888	0.101978	0.356224
H49	H	0.266816	0.099935	-0.225936
H50	H	0.987432	0.008491	-0.630380
H51	H	0.800312	0.195458	-0.369393
H52	H	0.664119	0.106291	-0.225989
N53	N	0.113198	0.097509	0.259133
H54	H	0.150191	0.098100	0.338062
H55	H	0.086667	0.050085	0.264560
N56	N	0.510467	0.103827	-0.258902
H57	H	0.547513	0.103884	-0.337836
H58	H	0.471854	0.150476	-0.264744
N59	N	1.032742	-0.697726	0.000139
H60	H	1.063106	-0.687991	-0.084598
H61	H	1.021326	-0.752316	0.000198
N62	N	1.001037	-0.005127	-0.350319
H63	H	1.054738	0.003521	-0.375324
H64	H	0.992356	-0.058810	-0.375403
H65	H	0.770787	-0.254383	0.000113
H66	H	0.800336	0.195458	-0.630433
N67	N	0.277281	0.100135	0.259118
H68	H	0.333279	0.101027	0.240211
H69	H	0.269708	0.053019	0.313539
N70	N	1.039090	-0.300426	0.000108
H71	H	1.083370	-0.269237	0.000097
H72	H	1.041560	-0.333581	-0.084630
N73	N	0.510504	0.103849	0.259088
H74	H	0.547495	0.104439	0.338021
H75	H	0.483975	0.056423	0.264506
N76	N	0.674589	0.106473	0.259088
H77	H	0.730587	0.107364	0.240183
H78	H	0.667013	0.059354	0.313499
N79	N	1.035360	-0.533651	0.000127
H80	H	1.038960	-0.501300	0.084861
H81	H	1.038912	-0.501348	-0.084664
H82	H	0.123593	0.097659	-0.225931
H83	H	1.023323	-0.144360	0.000092
H84	H	0.766714	-0.508475	0.000122
N85	N	0.746029	-0.659700	0.000110
H86	H	0.716103	-0.641962	0.084847
H87	H	0.755661	-0.717082	0.000050
N88	N	0.755016	-0.098304	0.000108
H89	H	0.710734	-0.129491	0.000105
H90	H	0.752530	-0.065154	-0.084628
