data_functionalizedCrystal
_audit_creation_method	'MofGen! by Chris Wilmer'
_symmetry_space_group_name_H-M	'P1'
_symmetry_Int_Tables_number	1
_symmetry_cell_setting	triclinic
loop_
_symmetry_equiv_pos_as_xyz
  x,y,z
_cell_length_a	12.827893
_cell_length_b	25.639240
_cell_length_c	25.639234
_cell_angle_alpha	89.973027
_cell_angle_beta	90.018601
_cell_angle_gamma	89.956867
loop_
_atom_site_label
_atom_site_type_symbol
_atom_site_fract_x
_atom_site_fract_y
_atom_site_fract_z
Zn1	Zn	1.597461	0.208183	0.295585
Zn2	Zn	1.597272	0.295611	0.208146
Zn3	Zn	1.422704	0.208192	0.208165
Zn4	Zn	1.422603	0.295589	0.295552
O5	O	1.510010	0.251894	0.251862
O6	O	1.743672	0.219786	0.283991
O7	O	1.574079	0.284028	0.134983
O8	O	1.446008	0.135025	0.219783
O9	O	1.743533	0.284019	0.219750
O10	O	1.574400	0.135019	0.284010
O11	O	1.445825	0.219801	0.134997
O12	O	1.276455	0.219779	0.219752
O13	O	1.445835	0.283982	0.368722
O14	O	1.276380	0.283990	0.283955
O15	O	1.574302	0.219765	0.368746
O16	O	1.573981	0.368774	0.219719
O17	O	1.445652	0.368757	0.283936
C18	C	1.238500	0.251884	0.251852
C19	C	1.122347	0.251892	0.251860
C20	C	1.509813	0.387736	0.251833
C21	C	1.509825	0.445850	0.251838
C22	C	1.070553	0.283715	0.283581
C23	C	0.950503	0.283724	0.283590
C24	C	1.576919	0.806209	0.218461
C25	C	1.576951	0.860814	0.218466
O26	O	1.633858	0.889047	0.190072
N27	N	1.510094	0.888133	0.251874
C28	C	1.443209	0.860845	0.285282
O29	O	1.386346	0.889096	0.313699
C30	C	1.443183	0.806242	0.285279
C31	C	1.510037	0.778925	0.251866
C32	C	1.643767	0.778893	0.185051
C33	C	1.643734	0.724292	0.185045
C34	C	1.576852	0.697008	0.218450
C35	C	1.510003	0.724325	0.251860
C36	C	1.376304	0.778955	0.318690
C37	C	1.376285	0.724348	0.318685
C38	C	1.443138	0.697031	0.285271
C39	C	1.443087	0.642440	0.285260
N40	N	1.509943	0.615121	0.251852
C41	C	1.576826	0.642405	0.218447
C42	C	1.443270	0.975516	0.285286
C43	C	1.443290	1.030118	0.285287
C44	C	1.577033	1.030083	0.218471
C45	C	1.577007	0.975479	0.218468
C46	C	1.510126	0.948196	0.251879
C47	C	1.576749	0.527740	0.218438
C48	C	1.576707	0.473134	0.218434
C49	C	1.442968	0.473174	0.285251
C50	C	1.443006	0.527775	0.285253
C51	C	1.509905	0.555056	0.251845
O52	O	1.386212	0.614172	0.313641
O53	O	1.633689	0.614147	0.190040
C54	C	1.782580	0.251904	0.251872
C55	C	1.898733	0.251909	0.251877
C56	C	1.510078	0.251870	0.388235
C57	C	1.510107	0.251860	0.446349
C58	C	1.510197	1.115521	0.251893
C59	C	1.510177	1.057407	0.251884
C60	C	1.510003	0.251880	0.116020
C61	C	1.510176	0.251743	0.057906
C62	C	1.443354	0.218355	0.806725
C63	C	1.443360	0.218345	0.861330
O64	O	1.386552	0.189915	0.889577
N65	N	1.510142	0.251778	0.888632
C66	C	1.576915	0.285226	0.861327
O67	O	1.633718	0.313662	0.889564
C68	C	1.576903	0.285238	0.806724
C69	C	1.510124	0.251799	0.779424
C70	C	1.376580	0.184919	0.779426
C71	C	1.376576	0.184928	0.724825
C72	C	1.443346	0.218372	0.697524
C73	C	1.510120	0.251808	0.724824
C74	C	1.643670	0.318688	0.779420
C75	C	1.643652	0.318697	0.724813
C76	C	1.576873	0.285258	0.697513
C77	C	1.576887	0.285261	0.642922
N78	N	1.510105	0.251828	0.615620
C79	C	1.443335	0.218384	0.642921
C80	C	1.576933	0.285199	0.975998
C81	C	1.576951	0.285185	1.030600
C82	C	1.443394	0.218305	1.030599
C83	C	1.443383	0.218317	0.975996
C84	C	1.510151	0.251767	0.948695
C85	C	1.443332	0.218405	0.528256
C86	C	1.443337	0.218415	0.473650
C87	C	1.576889	0.285297	0.473656
C88	C	1.576888	0.285285	0.528257
C89	C	1.510101	0.251837	0.555555
O90	O	1.633663	0.313678	0.614640
O91	O	1.386532	0.189957	0.614677
H92	H	1.115087	0.310951	0.310733
C93	C	1.369736	1.060160	0.322039
N94	N	1.314337	1.082785	0.349724
H95	H	1.388958	0.191183	0.451426
H96	H	1.077813	0.224652	0.224712
C97	C	0.958897	0.215098	0.215187
N98	N	1.004220	0.187370	0.187554
C99	C	1.650248	0.443090	0.181672
N100	N	1.705638	0.420462	0.153984
C101	C	1.369870	0.181607	0.558276
N102	N	1.314544	0.153888	0.580887
H103	H	0.905961	0.310971	0.310746
H104	H	1.631227	0.549946	0.191235
H105	H	1.322194	0.157701	0.702603
C106	C	1.650354	0.322066	0.558287
N107	N	1.705682	0.349774	0.580902
H108	H	1.698174	0.702054	0.157839
H109	H	1.698237	0.801102	0.157849
H110	H	1.321823	0.702136	0.345893
C111	C	1.717111	0.355492	0.694786
N112	N	1.772445	0.383204	0.672171
H113	H	1.631255	0.312525	0.451418
H114	H	1.631445	0.953242	0.191261
C115	C	1.369695	0.945509	0.322044
N116	N	1.314285	0.922911	0.349734
H117	H	1.631496	1.052307	0.191273
H118	H	1.388572	0.550017	0.312463
C119	C	1.369405	0.443151	0.321996
N120	N	1.314004	0.420537	0.349676
H121	H	1.321860	0.801186	0.345896
C122	C	1.650421	0.321966	1.060623
N123	N	1.705756	0.349674	1.083235
H124	H	1.322203	0.157684	0.801649
H125	H	1.389006	0.191088	0.953772
C126	C	1.369938	0.181519	1.060641
N127	N	1.314612	0.153815	1.083270
C128	C	1.650416	0.321986	0.945972
N129	N	1.705769	0.349690	0.923360
H130	H	1.698048	0.345918	0.801638
