data_functionalizedCrystal
_audit_creation_method	'MofGen! by Chris Wilmer'
_symmetry_space_group_name_H-M	'P1'
_symmetry_Int_Tables_number	1
_symmetry_cell_setting	triclinic
loop_
_symmetry_equiv_pos_as_xyz
  x,y,z
_cell_length_a	27.732048
_cell_length_b	14.044220
_cell_length_c	13.101039
_cell_angle_alpha	93.659868
_cell_angle_beta	93.329410
_cell_angle_gamma	92.084233
loop_
_atom_site_label
_atom_site_type_symbol
_atom_site_fract_x
_atom_site_fract_y
_atom_site_fract_z
O1	O	0.114020	-1.261246	-0.085126
O2	O	0.109817	-0.985339	-0.085151
O3	O	0.041925	-1.131860	-0.085119
O4	O	0.181913	-1.114725	-0.085159
O5	O	0.046805	-1.121348	0.085309
O6	O	0.114697	-0.974827	0.085276
O7	O	0.118900	-1.250733	0.085301
Zn8	Zn	0.117574	-1.111111	0.112348
Zn9	Zn	0.111144	-1.124962	-0.112198
O10	O	0.186793	-1.104212	0.085268
C11	C	0.110418	-0.944796	0.000059
C12	C	0.104930	-0.839651	0.000051
C13	C	0.026341	-1.126244	0.000098
C14	C	-0.027364	-1.125160	0.000106
C15	C	0.118300	-1.291277	0.000088
C16	C	0.123787	-1.396422	0.000090
C17	C	-0.362438	-1.204929	0.000061
C18	C	-0.564286	-1.200910	0.000046
O19	O	-0.592120	-1.273853	0.000008
N20	N	-0.587487	-1.114029	0.000039
C21	C	-0.560223	-1.028146	0.000029
O22	O	-0.584589	-0.954156	0.000012
C23	C	-0.358376	-1.032166	0.000037
C24	C	-0.335177	-1.119052	0.000054
C25	C	-0.339239	-1.291808	0.000077
C26	C	-0.288779	-1.292812	0.000086
C27	C	-0.261519	-1.206935	0.000079
C28	C	-0.284718	-1.120056	0.000063
C29	C	-0.331113	-0.946285	0.000019
C30	C	-0.280648	-0.947297	0.000018
C31	C	-0.257449	-1.034184	0.000036
C32	C	-0.206998	-1.035183	0.000066
N33	N	-0.183797	-1.122064	0.000072
C34	C	-0.211057	-1.207941	0.000079
C35	C	-0.666196	-1.026042	0.000027
C36	C	-0.716658	-1.025036	0.000027
C37	C	-0.720717	-1.197801	0.000043
C38	C	-0.670255	-1.198805	0.000050
C39	C	-0.642995	-1.112923	0.000034
C40	C	-0.105089	-1.210041	0.000100
C41	C	-0.054625	-1.211037	0.000113
C42	C	-0.050570	-1.038273	0.000093
C43	C	-0.101030	-1.037276	0.000085
C44	C	-0.128288	-1.123168	0.000085
O45	O	-0.179134	-0.962280	0.000092
O46	O	-0.186683	-1.281921	0.000073
C47	C	-0.412897	-1.203925	0.000052
C48	C	-0.436096	-1.117046	0.000035
C49	C	-0.408835	-1.031169	0.000029
C50	C	-0.486557	-1.116040	0.000035
C51	C	-0.513818	-1.201917	0.000042
C52	C	-0.490617	-1.288798	0.000049
C53	C	-0.440157	-1.289802	0.000059
C54	C	-0.432037	-0.944288	0.000022
C55	C	-0.482496	-0.943292	0.000013
C56	C	-0.509756	-1.029168	0.000020
C57	C	0.202376	-1.109828	0.000050
C58	C	0.256082	-1.110913	0.000034
N59	N	0.121962	-1.101664	0.265594
C60	C	0.094899	-0.647135	0.000074
C61	C	0.133816	-0.588932	0.000067
C62	C	0.128235	-0.481810	0.000080
C63	C	0.100480	-0.754268	0.000061
N64	N	0.106752	-1.134415	-0.265444
C65	C	0.127936	-1.088813	0.474634
C66	C	0.100779	-1.147264	0.525523
C67	C	0.104104	-1.140113	0.641839
C68	C	0.124612	-1.095962	0.358306
H69	H	-0.035739	-1.281793	0.000130
Br70	Br	0.032384	-0.596098	0.000097
Br71	Br	0.058088	-1.240020	0.452544
H72	H	0.153681	-1.033404	0.518418
Br73	Br	-0.243656	-0.830737	-0.000007
H74	H	-0.269896	-1.363564	0.000096
Br75	Br	-0.376226	-1.408371	0.000086
Br76	Br	-0.638776	-1.316726	0.000075
Br77	Br	-0.142075	-1.326610	0.000099
H78	H	-0.742921	-1.267725	0.000049
Br79	Br	0.196335	-0.639966	0.000045
H80	H	-0.644006	-0.956102	0.000015
Br81	Br	-0.748135	-0.907113	0.000028
Br82	Br	-0.513973	-0.825362	-0.000002
Br83	Br	-0.362584	-0.828360	-0.000008
H84	H	-0.512821	-1.358722	0.000060
H85	H	-0.119918	-0.966524	0.000099
H86	H	-0.028365	-0.968354	0.000091
H87	H	-0.409846	-0.874355	0.000014
H88	H	-0.421273	-1.360554	0.000072
