data_functionalizedCrystal
_audit_creation_method	'MofGen! by Chris Wilmer'
_symmetry_space_group_name_H-M	'P1'
_symmetry_Int_Tables_number	1
_symmetry_cell_setting	triclinic
loop_
_symmetry_equiv_pos_as_xyz
  x,y,z
_cell_length_a	14.044191
_cell_length_b	14.044220
_cell_length_c	13.101039
_cell_angle_alpha	86.332523
_cell_angle_beta	86.337551
_cell_angle_gamma	86.809673
loop_
_atom_site_label
_atom_site_type_symbol
_atom_site_fract_x
_atom_site_fract_y
_atom_site_fract_z
O1	O	1.281976	-0.225377	-0.085169
O2	O	1.781976	0.274623	0.414831
O3	O	1.005305	-0.217064	-0.085182
O4	O	1.505305	0.282936	0.414818
O5	O	1.139487	-0.082885	-0.085166
O6	O	1.639487	0.417115	0.414834
O7	O	1.147794	-0.359556	-0.085186
O8	O	1.647794	0.140444	0.414814
O9	O	1.129861	-0.092530	0.085263
O10	O	1.629861	0.407470	0.585263
O11	O	0.995679	-0.226708	0.085247
O12	O	1.495679	0.273292	0.585247
O13	O	1.272350	-0.235022	0.085259
O14	O	1.772350	0.264978	0.585259
Zn15	Zn	1.132486	-0.232396	0.112312
Zn16	Zn	1.632486	0.267604	0.612312
Zn17	Zn	1.145169	-0.219689	-0.112235
Zn18	Zn	1.645169	0.280311	0.387765
O19	O	1.138168	-0.369200	0.085243
O20	O	1.638168	0.130800	0.585243
C21	C	0.964870	-0.218250	0.000031
C22	C	1.464870	0.281750	0.500031
C23	C	0.858727	-0.207402	0.000026
C24	C	1.358727	0.292598	0.500026
C25	C	0.613268	-0.264503	0.000032
C26	C	1.113268	0.235497	0.500032
C27	C	0.664393	-0.187587	0.000036
C28	C	1.164393	0.312413	0.500036
C29	C	0.772531	-0.198615	0.000031
C30	C	1.272531	0.301385	0.500031
C31	C	0.505121	-0.253476	0.000038
C32	C	1.005121	0.246524	0.500038
C33	C	1.131038	-0.052086	0.000049
C34	C	1.631038	0.447914	0.500049
C35	C	1.120194	0.054057	0.000050
C36	C	1.620194	0.554057	0.500050
C37	C	1.312785	-0.233836	0.000044
C38	C	1.812785	0.266164	0.500044
C39	C	1.418929	-0.244683	0.000042
C40	C	1.918929	0.255317	0.500042
C41	C	1.146617	-0.400000	0.000026
C42	C	1.646617	0.100000	0.500026
C43	C	1.157462	-0.506143	0.000019
C44	C	1.657462	-0.006143	0.500019
N45	N	1.123838	-0.241069	0.265560
N46	N	1.623838	0.258931	0.765560
C47	C	1.100368	0.248396	0.000034
C48	C	1.600368	0.748396	0.500034
C49	C	1.177283	0.299524	0.000034
C50	C	1.677283	0.799524	0.500034
C51	C	1.166252	0.407661	0.000026
C52	C	1.666252	0.907661	0.500026
C53	C	1.111398	0.140250	0.000043
C54	C	1.611398	0.640250	0.500043
N55	N	1.153824	-0.211010	-0.265482
N56	N	1.653824	0.288990	0.234518
C57	C	1.112072	-0.252876	0.474601
C58	C	1.612072	0.247124	0.974601
C59	C	1.165588	-0.199205	0.525483
C60	C	1.665588	0.300795	1.025483
C61	C	1.159041	-0.205775	0.641801
C62	C	1.659041	0.294225	1.141801
C63	C	1.118617	-0.246308	0.358273
C64	C	1.618617	0.253692	0.858273
H65	H	0.650710	-0.338629	0.000024
H66	H	1.150710	0.161371	0.500024
O67	O	1.226167	-0.138548	0.473250
O68	O	1.726167	0.361452	0.973250
C69	C	1.320636	-0.163313	0.499200
C70	C	1.820636	0.336687	0.999200
H71	H	1.319521	-0.204367	0.577163
H72	H	1.819521	0.295633	1.077163
H73	H	1.357548	-0.209969	0.438832
H74	H	1.857548	0.290031	0.938832
C75	C	1.376843	-0.021458	0.408022
C76	C	1.876843	0.478542	0.908022
C77	C	1.375473	-0.071875	0.503782
C78	C	1.875473	0.428125	1.003782
H79	H	1.410672	0.034944	0.410845
H80	H	1.910672	0.534944	0.910845
H81	H	1.313198	-0.004774	0.390536
H82	H	1.813198	0.495226	0.890536
H83	H	1.407601	-0.060348	0.357726
H84	H	1.907601	0.439652	0.857726
H85	H	1.344705	-0.032989	0.554074
H86	H	1.844705	0.467011	1.054074
H87	H	1.439114	-0.088550	0.521277
H88	H	1.939114	0.411450	1.021277
O89	O	1.051416	-0.313472	0.526795
O90	O	1.551416	0.186528	1.026795
C91	C	0.957011	-0.288639	0.500667
C92	C	1.457011	0.211361	1.000667
H93	H	0.951584	-0.210524	0.471090
H94	H	1.451584	0.289476	0.971090
H95	H	0.936971	-0.335765	0.438494
H96	H	1.436971	0.164235	0.938494
C97	C	0.894953	-0.399313	0.632392
C98	C	1.394953	0.100687	1.132392
C99	C	0.888286	-0.303369	0.596073
C100	C	1.388286	0.196631	1.096073
H101	H	0.852559	-0.408404	0.691240
H102	H	1.352559	0.091596	1.191240
H103	H	0.958556	-0.416047	0.649993
H104	H	1.458556	0.083953	1.149993
H105	H	0.878256	-0.438574	0.580572
H106	H	1.378256	0.061426	1.080572
H107	H	0.904995	-0.264112	0.647888
H108	H	1.404995	0.235888	1.147888
H109	H	0.824684	-0.286629	0.578483
H110	H	1.324684	0.213371	1.078483
H111	H	1.251420	0.262087	-0.000031
H112	H	1.751420	0.762087	0.499969
H113	H	1.026241	0.285836	0.000028
H114	H	1.526241	0.785836	0.500028
H115	H	0.626954	-0.113451	-0.000031
H116	H	1.126954	0.386549	0.499969
