data_functionalizedCrystal
_audit_creation_method	'MofGen! by Chris Wilmer'
_symmetry_space_group_name_H-M	'P1'
_symmetry_Int_Tables_number	1
_symmetry_cell_setting	triclinic
loop_
_symmetry_equiv_pos_as_xyz
  x,y,z
_cell_length_a	6.817900
_cell_length_b	19.453103
_cell_length_c	19.453114
_cell_angle_alpha	96.316406
_cell_angle_beta	101.709288
_cell_angle_gamma	101.709178
loop_
_atom_site_label
_atom_site_type_symbol
_atom_site_fract_x
_atom_site_fract_y
_atom_site_fract_z
V1	V	-3.997997	-0.097914	-0.219328
V2	V	-3.497997	0.402086	0.280672
O3	O	-3.995098	0.003953	-0.214817
O4	O	-3.495098	0.503953	0.285183
O5	O	-3.941017	-0.193423	-0.218151
O6	O	-3.441017	0.306577	0.281849
O7	O	-3.941018	-0.096738	-0.314837
O8	O	-3.441018	0.403262	0.185163
O9	O	-3.995097	-0.093402	-0.117462
O10	O	-3.495097	0.406598	0.382538
V11	V	-4.483849	-0.085690	-0.207105
V12	V	-3.983849	0.414310	0.292895
O13	O	-4.254148	-0.124727	-0.246141
O14	O	-3.754148	0.375273	0.253859
O15	O	-4.677895	-0.058877	-0.180292
O16	O	-4.177895	0.441123	0.319708
O17	O	-4.317623	0.009819	-0.208282
O18	O	-3.817623	0.509819	0.291718
O19	O	-4.604145	-0.187557	-0.211616
O20	O	-4.104145	0.312443	0.288384
O21	O	-4.604146	-0.090202	-0.308971
O22	O	-4.104146	0.409798	0.191029
O23	O	-4.317621	-0.086866	-0.111596
O24	O	-3.817621	0.413134	0.388404
C25	C	-3.784208	-0.216695	-0.214774
C26	C	-3.284208	0.283305	0.285226
C27	C	-3.818849	-0.294777	-0.214449
C28	C	-3.318849	0.205223	0.285551
C29	C	-4.016582	-0.335044	-0.217808
C30	C	-3.516582	0.164956	0.282192
C31	C	-4.049135	-0.408411	-0.217509
C32	C	-3.549135	0.091589	0.282491
C33	C	-3.883937	-0.441507	-0.213837
C34	C	-3.383937	0.058493	0.286163
C35	C	-3.686178	-0.401231	-0.210481
C36	C	-3.186178	0.098769	0.289519
C37	C	-3.653634	-0.327867	-0.210787
C38	C	-3.153634	0.172133	0.289213
N39	N	-3.779057	-0.547627	-0.170551
N40	N	-3.279057	-0.047627	0.329449
N41	N	-3.809984	-0.617320	-0.170259
N42	N	-3.309984	-0.117320	0.329741
C43	C	-3.981979	-0.662551	-0.212916
C44	C	-3.481979	-0.162551	0.287084
N45	N	-4.121905	-0.635454	-0.255867
N46	N	-3.621905	-0.135454	0.244133
N47	N	-4.090980	-0.565754	-0.256156
N48	N	-3.590980	-0.065754	0.243844
C49	C	-3.919205	-0.521058	-0.213505
C50	C	-3.419205	-0.021058	0.286495
C51	C	-4.215023	-0.782371	-0.215953
C52	C	-3.715023	-0.282371	0.284047
C53	C	-4.247572	-0.855741	-0.215658
C54	C	-3.747572	-0.355741	0.284342
C55	C	-3.884605	-0.848558	-0.208622
C56	C	-3.384605	-0.348558	0.291378
C57	C	-3.852066	-0.775191	-0.208924
C58	C	-3.352066	-0.275191	0.291076
C59	C	-4.017281	-0.742102	-0.212586
C60	C	-3.517281	-0.242102	0.287414
C61	C	-3.784208	-0.093363	-0.338106
C62	C	-3.284208	0.406637	0.161894
C63	C	-3.818848	-0.093034	-0.416187
C64	C	-3.318848	0.406966	0.083813
C65	C	-4.016587	-0.096405	-0.456456
C66	C	-3.516587	0.403595	0.043544
C67	C	-4.049136	-0.096095	-0.529822
C68	C	-3.549136	0.403905	-0.029822
C69	C	-3.883941	-0.092429	-0.562918
C70	C	-3.383941	0.407571	-0.062918
C71	C	-3.686172	-0.089054	-0.522640
C72	C	-3.186172	0.410946	-0.022640
C73	C	-3.653625	-0.089356	-0.449274
C74	C	-3.153625	0.410644	0.050726
N75	N	-3.820865	-0.129523	-0.681832
N76	N	-3.320865	0.370477	-0.181832
N77	N	-3.851796	-0.129237	-0.751526
N78	N	-3.351796	0.370763	-0.251526
C79	C	-3.981989	-0.091516	-0.783963
C80	C	-3.481989	0.408484	-0.283963
N81	N	-4.080118	-0.054100	-0.744075
N82	N	-3.580118	0.445900	-0.244075
N83	N	-4.049192	-0.054389	-0.674375
N84	N	-3.549192	0.445611	-0.174375
C85	C	-3.919211	-0.092100	-0.642470
C86	C	-3.419211	0.407900	-0.142470
C87	C	-4.215033	-0.094550	-0.903783
C88	C	-3.715033	0.405450	-0.403783
C89	C	-4.247572	-0.094236	-0.977150
C90	C	-3.747572	0.405764	-0.477150
C91	C	-3.884605	-0.087202	-0.969967
C92	C	-3.384605	0.412798	-0.469967
C93	C	-3.852068	-0.087509	-0.896601
C94	C	-3.352068	0.412491	-0.396601
C95	C	-4.017291	-0.091187	-0.863515
C96	C	-3.517291	0.408813	-0.363515
C97	C	-4.137773	0.033088	-0.211656
C98	C	-3.637773	0.533088	0.288344
C99	C	-4.082370	0.111169	-0.211986
C100	C	-3.582370	0.611169	0.288014
C101	C	-4.137773	-0.090243	-0.088323
C102	C	-3.637773	0.409757	0.411677
C103	C	-4.082372	-0.090569	-0.010241
C104	C	-3.582372	0.409431	0.489759
H105	H	-4.151127	-0.099397	-0.429521
H106	H	-3.651127	0.400603	0.070479
O107	O	-4.262426	-0.099736	-0.573269
O108	O	-3.762426	0.400264	-0.073269
H109	H	-4.371847	-0.102348	-0.537936
H110	H	-3.871847	0.397652	-0.037936
H111	H	-3.492614	-0.295081	-0.208052
H112	H	-2.992614	0.204919	0.291948
O113	O	-4.262409	-0.451854	-0.221119
O114	O	-3.762409	0.048146	0.278881
H115	H	-4.368251	-0.447159	-0.270978
H116	H	-3.868251	0.052841	0.229022
O117	O	-4.393209	-0.746676	-0.219918
O118	O	-3.893209	-0.246676	0.280082
H119	H	-4.536189	-0.787007	-0.222219
H120	H	-4.036189	-0.287007	0.277781
O121	O	-3.507989	-0.085104	-0.558331
O122	O	-3.007989	0.414896	-0.058331
H123	H	-3.563844	-0.085469	-0.616114
H124	H	-3.063844	0.414531	-0.116114
O125	O	-3.440344	-0.085728	-0.405836
O126	O	-2.940344	0.414272	0.094164
H127	H	-3.330935	-0.083130	-0.441172
H128	H	-2.830935	0.416870	0.058828
O129	O	-4.460863	-0.097868	-1.020582
O130	O	-3.960863	0.402132	-0.520582
H131	H	-4.455738	-0.097029	-1.077155
H132	H	-3.955738	0.402971	-0.577155
O133	O	-3.507995	-0.436923	-0.206526
O134	O	-3.007995	0.063077	0.293474
H135	H	-3.489088	-0.462511	-0.158094
H136	H	-2.989088	0.037489	0.341906
H137	H	-3.750096	-0.084210	-0.996913
H138	H	-3.250096	0.415790	-0.496913
O139	O	-4.194782	-0.299359	-0.221763
O140	O	-3.694782	0.200641	0.278237
H141	H	-4.138937	-0.241577	-0.221406
H142	H	-3.638937	0.258423	0.278594
H143	H	-4.349566	-0.097542	-0.876842
H144	H	-3.849566	0.402458	-0.376842
H145	H	-3.750099	-0.875504	-0.205636
H146	H	-3.250099	-0.375504	0.294364
H147	H	-3.691053	-0.084771	-0.863815
H148	H	-3.191053	0.415229	-0.363815
O149	O	-3.638787	-0.731756	-0.205298
O150	O	-3.138787	-0.231756	0.294702
H151	H	-3.590252	-0.690494	-0.157151
H152	H	-3.090252	-0.190494	0.342849
O153	O	-4.460850	-0.899176	-0.219276
O154	O	-3.960850	-0.399176	0.280724
H155	H	-4.570250	-0.863837	-0.221865
H156	H	-4.070250	-0.363837	0.278135
