data_functionalizedCrystal
_audit_creation_method	'MofGen! by Chris Wilmer'
_symmetry_space_group_name_H-M	'P1'
_symmetry_Int_Tables_number	1
_symmetry_cell_setting	triclinic
loop_
_symmetry_equiv_pos_as_xyz
  x,y,z
_cell_length_a	14.971486
_cell_length_b	9.198806
_cell_length_c	14.971486
_cell_angle_alpha	89.997194
_cell_angle_beta	83.614129
_cell_angle_gamma	90.000425
loop_
_atom_site_label
_atom_site_type_symbol
_atom_site_fract_x
_atom_site_fract_y
_atom_site_fract_z
O1	O	1.186945	-0.120726	0.116560
O2	O	0.926545	-0.120766	0.130519
O3	O	1.063724	-0.120734	-0.006661
O4	O	1.049766	-0.120757	0.253739
O5	O	1.063712	0.121051	-0.006659
O6	O	0.926532	0.121019	0.130520
O7	O	1.186932	0.121059	0.116561
Cu8	Cu	1.056731	0.143116	0.123541
Cu9	Cu	1.056746	-0.142823	0.123539
O10	O	1.049753	0.121028	0.253741
C11	C	0.893214	0.000122	0.129895
C12	C	0.793917	0.000107	0.128024
N13	N	1.056727	0.344230	0.123541
C14	C	0.736692	0.000102	0.208614
C15	C	0.643392	0.000124	0.206850
C16	C	0.607320	0.000140	0.124497
C17	C	0.664552	0.000150	0.043902
C18	C	0.757850	0.000138	0.045666
C19	C	0.470090	0.000170	0.040231
C20	C	0.376786	0.000179	0.038466
C21	C	0.355632	0.000156	0.201415
C22	C	0.448930	0.000144	0.203179
C23	C	0.506156	0.000151	0.122584
C24	C	1.114326	0.416440	0.065692
C25	C	1.114339	0.583853	0.065690
C26	C	1.220263	0.000168	0.117185
C27	C	1.319561	0.000174	0.119056
C28	C	1.063094	0.000158	-0.039985
C29	C	1.061223	0.000156	-0.139282
N30	N	1.056750	0.656063	0.123539
C31	C	1.141812	0.000169	-0.196507
C32	C	1.140049	0.000154	-0.289807
C33	C	1.057696	0.000137	-0.325879
C34	C	0.977101	0.000119	-0.268646
C35	C	0.978865	0.000123	-0.175349
C36	C	0.973430	0.000113	-0.463109
C37	C	0.971665	0.000111	-0.556413
C38	C	1.134614	0.000144	-0.577567
C39	C	1.136378	0.000149	-0.484269
C40	C	1.055782	0.000134	-0.427043
C41	C	1.050384	0.000133	0.287065
C42	C	1.052254	0.000125	0.386362
H43	H	0.596802	0.000118	0.272474
H44	H	0.913240	0.000112	-0.128756
C45	C	1.179968	0.333667	-0.000472
C46	C	1.165156	0.370523	-0.088360
C47	C	1.225602	0.294275	-0.149327
H48	H	1.239772	0.358452	0.009041
H49	H	1.171202	0.232147	0.008267
H50	H	1.173930	0.472021	-0.097096
H51	H	1.105364	0.345735	-0.097902
H52	H	1.216836	0.192755	-0.140587
H53	H	1.285402	0.319065	-0.139805
H54	H	1.215555	0.319260	-0.208965
H55	H	1.007438	0.593975	0.173072
H56	H	1.163655	0.645950	0.016166
C57	C	0.990938	0.427229	0.189439
C58	C	0.936061	0.514651	0.141815
C59	C	0.875451	0.591141	0.202491
H60	H	0.954712	0.360385	0.225759
H61	H	1.023281	0.486685	0.226575
H62	H	0.903721	0.455201	0.104695
H63	H	0.972262	0.581523	0.105497
H64	H	0.907794	0.650597	0.239627
H65	H	0.839231	0.524287	0.238808
H66	H	0.838215	0.650476	0.170187
H67	H	1.208874	0.000193	-0.167145
C68	C	0.487923	0.000198	0.292681
C69	C	0.417840	0.000235	0.362887
C70	C	0.453727	0.000308	0.445348
H71	H	0.523863	-0.084099	0.296881
H72	H	0.523857	0.084543	0.296802
H73	H	0.381921	-0.084102	0.358768
H74	H	0.381895	0.084526	0.358717
H75	H	0.489661	0.084654	0.449469
H76	H	0.489666	-0.083990	0.449538
H77	H	0.406182	0.000347	0.492992
C78	C	0.337792	0.000274	-0.051036
C79	C	0.407875	0.000326	-0.121241
C80	C	0.371989	0.000430	-0.203703
H81	H	0.301849	-0.084017	-0.055240
H82	H	0.301862	0.084625	-0.055152
H83	H	0.443790	-0.084017	-0.117127
H84	H	0.443824	0.084611	-0.117067
H85	H	0.336058	0.084781	-0.207819
H86	H	0.336045	-0.083863	-0.207897
H87	H	0.419533	0.000479	-0.251347
H88	H	0.766054	0.000088	0.275675
H89	H	0.309033	0.000157	0.267039
C90	C	1.227644	0.000254	-0.351788
C91	C	1.300143	0.000322	-0.300229
C92	C	1.380852	0.000435	-0.357295
H93	H	1.230483	-0.084039	-0.388640
H94	H	1.230382	0.084603	-0.388614
H95	H	1.297406	-0.084018	-0.263419
H96	H	1.297334	0.084610	-0.263379
H97	H	1.383590	0.084783	-0.394121
H98	H	1.383681	-0.083861	-0.394144
H99	H	1.430052	0.000494	-0.322321
H100	H	1.203437	0.000174	-0.454903
H101	H	0.516682	0.000178	-0.025399
H102	H	1.200238	0.000152	-0.624165
C103	C	0.885829	0.000168	-0.401124
C104	C	0.813329	0.000193	-0.452681
C105	C	0.732621	0.000269	-0.395613
H106	H	0.883007	-0.084124	-0.364266
H107	H	0.883077	0.084519	-0.364305
H108	H	0.816079	-0.084149	-0.489485
H109	H	0.816121	0.084479	-0.489538
H110	H	0.729869	0.084619	-0.358794
H111	H	0.729808	-0.084025	-0.358757
H112	H	0.683420	0.000299	-0.430585
H113	H	0.635175	0.000184	-0.023152
H114	H	0.804443	0.000141	-0.019958
H115	H	0.904606	0.000120	-0.585780
H116	H	0.910047	0.000095	-0.298024
