data_functionalizedCrystal
_audit_creation_method	'MofGen! by Chris Wilmer'
_symmetry_space_group_name_H-M	'P1'
_symmetry_Int_Tables_number	1
_symmetry_cell_setting	triclinic
loop_
_symmetry_equiv_pos_as_xyz
  x,y,z
_cell_length_a	14.971482
_cell_length_b	10.967829
_cell_length_c	13.448316
_cell_angle_alpha	77.865540
_cell_angle_beta	89.993798
_cell_angle_gamma	84.173805
loop_
_atom_site_label
_atom_site_type_symbol
_atom_site_fract_x
_atom_site_fract_y
_atom_site_fract_z
O1	O	1.187825	0.162598	-0.110539
O2	O	1.687825	0.662598	0.389461
O3	O	0.927529	0.182077	-0.113882
O4	O	1.427529	0.682077	0.386118
O5	O	1.063678	-0.009305	-0.081080
O6	O	1.563678	0.490695	0.418920
O7	O	1.051676	0.353980	-0.143340
O8	O	1.551676	0.853980	0.356660
O9	O	1.063661	-0.009317	0.084306
O10	O	1.563661	0.490683	0.584306
O11	O	0.927512	0.182065	0.051504
O12	O	1.427512	0.682065	0.551504
O13	O	1.187808	0.162586	0.054847
O14	O	1.687808	0.662586	0.554847
Cu15	Cu	1.057658	0.172324	0.068277
Cu16	Cu	1.557658	0.672324	0.568277
Cu17	Cu	1.057679	0.172338	-0.127311
Cu18	Cu	1.557679	0.672338	0.372689
O19	O	1.051659	0.353968	0.022046
O20	O	1.551659	0.853968	0.522046
C21	C	0.894191	0.181201	-0.031040
C22	C	1.394191	0.681201	0.468960
C23	C	0.794880	0.178593	-0.030595
C24	C	1.294880	0.678593	0.469405
C25	C	0.748219	0.177358	0.059769
C26	C	1.248219	0.677358	0.559769
C27	C	0.654908	0.174887	0.060193
C28	C	1.154908	0.674887	0.560193
C29	C	0.608257	0.173661	-0.029749
C30	C	1.108257	0.673661	0.470251
C31	C	0.654925	0.174892	-0.120118
C32	C	1.154925	0.674892	0.379882
C33	C	0.748236	0.177353	-0.120540
C34	C	1.248236	0.677353	0.379460
C35	C	0.460435	0.169764	-0.119233
C36	C	0.960435	0.669764	0.380767
C37	C	0.367118	0.167305	-0.118812
C38	C	0.867118	0.667305	0.381188
C39	C	0.367107	0.167298	0.061500
C40	C	0.867107	0.667298	0.561500
C41	C	0.460418	0.169760	0.061078
C42	C	0.960418	0.669760	0.561078
C43	C	0.507079	0.170993	-0.029292
C44	C	1.007079	0.670993	0.470708
C45	C	1.062795	-0.055803	0.009578
C46	C	1.562795	0.444197	0.509578
C47	C	1.060178	-0.194333	0.033313
C48	C	1.560178	0.305667	0.533313
C49	C	1.059021	-0.256081	-0.041781
C50	C	1.559021	0.243919	0.458219
C51	C	1.056316	-0.399259	-0.017252
C52	C	1.556316	0.100741	0.482748
C53	C	1.221146	0.163462	-0.027997
C54	C	1.721146	0.663462	0.472003
C55	C	1.320457	0.166070	-0.028449
C56	C	1.820457	0.666070	0.471551
C57	C	1.052542	0.400466	-0.068615
C58	C	1.552542	0.900466	0.431385
C59	C	1.055159	0.538996	-0.092357
C60	C	1.555159	1.038996	0.407643
N61	N	1.057650	0.172314	0.205843
N62	N	1.557650	0.672314	0.705843
N63	N	1.057694	0.172339	-0.264876
N64	N	1.557694	0.672339	0.235124
C65	C	1.117956	0.087605	0.272401
C66	C	1.617956	0.587605	0.772401
C67	C	1.117962	0.087604	0.376505
C68	C	1.617962	0.587604	0.876505
C69	C	1.057665	0.172319	0.414046
C70	C	1.557665	0.672319	0.914046
C71	C	0.997353	0.257032	0.347480
C72	C	1.497353	0.757032	0.847480
C73	C	0.997344	0.257026	0.243379
C74	C	1.497344	0.757026	0.743379
C75	C	0.997378	0.257040	0.564458
C76	C	1.497378	0.757040	1.064458
C77	C	0.997388	0.257048	0.668565
C78	C	1.497388	0.757048	1.168565
C79	C	1.117996	0.087618	0.697584
C80	C	1.617996	0.587618	1.197584
C81	C	1.117987	0.087612	0.593483
C82	C	1.617987	0.587612	1.093483
C83	C	1.057675	0.172327	0.526924
C84	C	1.557675	0.672327	1.026924
H85	H	0.498397	0.170766	0.134315
H86	H	0.998397	0.670766	0.634315
H87	H	0.786225	0.178361	-0.194124
H88	H	1.286225	0.678361	0.305876
H89	H	0.948254	0.326005	0.378052
H90	H	1.448254	0.826005	0.878052
H91	H	1.056159	-0.407876	-0.174813
H92	H	1.556159	0.092124	0.325187
H93	H	0.948235	0.326003	0.189187
H94	H	1.448235	0.826003	0.689187
Cl95	Cl	1.193775	-0.018891	0.460181
Cl96	Cl	1.693775	0.481109	0.960181
H97	H	1.059162	-0.247465	0.115763
H98	H	1.559162	0.252535	0.615763
H99	H	1.167060	0.018625	0.241843
H100	H	1.667060	0.518625	0.741843
H101	H	1.167089	0.018637	0.562917
H102	H	1.667089	0.518637	1.062917
H103	H	1.167103	0.018640	0.751783
H104	H	1.667103	0.518640	1.251783
Cl105	Cl	0.921581	0.363550	0.715752
Cl106	Cl	1.421581	0.863550	1.215752
Cl107	Cl	0.921553	0.363540	0.480787
Cl108	Cl	1.421553	0.863540	0.980787
H109	H	1.060028	-0.202947	-0.124231
H110	H	1.560028	0.297053	0.375769
H111	H	0.329138	0.166307	-0.192051
H112	H	0.829138	0.666307	0.307949
Cl113	Cl	0.806855	0.178908	0.172844
Cl114	Cl	1.306855	0.678908	0.672844
H115	H	0.616922	0.173861	0.133780
H116	H	1.116922	0.673861	0.633780
H117	H	0.329111	0.166294	0.135083
H118	H	0.829111	0.666294	0.635083
Cl119	Cl	0.596283	0.173304	-0.233181
Cl120	Cl	1.096283	0.673304	0.266819
Cl121	Cl	1.054748	-0.481276	0.110055
Cl122	Cl	1.554748	0.018724	0.610055
Cl123	Cl	0.519094	0.171312	-0.232843
Cl124	Cl	1.019094	0.671312	0.267157
