data_functionalizedCrystal
_audit_creation_method	'MofGen! by Chris Wilmer'
_symmetry_space_group_name_H-M	'P1'
_symmetry_Int_Tables_number	1
_symmetry_cell_setting	triclinic
loop_
_symmetry_equiv_pos_as_xyz
  x,y,z
_cell_length_a	10.654550
_cell_length_b	10.654550
_cell_length_c	9.130313
_cell_angle_alpha	89.995631
_cell_angle_beta	89.999724
_cell_angle_gamma	84.484931
loop_
_atom_site_label
_atom_site_type_symbol
_atom_site_fract_x
_atom_site_fract_y
_atom_site_fract_z
O1	O	1.667839	0.176399	-0.121690
O2	O	1.302361	0.193205	-0.121716
O3	O	1.493503	0.002063	-0.121693
O4	O	1.476697	0.367541	-0.121713
O5	O	1.493490	0.002057	0.121906
O6	O	1.302348	0.193199	0.121882
O7	O	1.667826	0.176393	0.121909
Cu8	Cu	1.485086	0.184796	0.144138
Cu9	Cu	1.485101	0.184802	-0.143946
O10	O	1.476684	0.367535	0.121886
C11	C	1.255556	0.191968	0.000080
C12	C	1.116113	0.188276	0.000070
C13	C	1.492263	-0.044738	0.000105
C14	C	1.488571	-0.184181	0.000103
C15	C	1.036628	0.300818	0.000068
C16	C	0.905607	0.297341	0.000093
C17	C	0.933570	0.068772	0.000117
C18	C	1.064588	0.072250	0.000101
C19	C	1.601112	-0.263667	0.000111
C20	C	1.597636	-0.394688	0.000092
C21	C	1.369066	-0.366725	0.000065
C22	C	1.372544	-0.235706	0.000073
C23	C	1.714631	0.177630	0.000110
C24	C	1.854074	0.181322	0.000110
C25	C	1.477925	0.414336	0.000084
C26	C	1.481616	0.553779	0.000077
N27	N	1.485084	0.184790	0.346761
N28	N	1.485113	0.184798	-0.346568
C29	C	1.569751	0.100188	0.423423
C30	C	1.569763	0.100189	0.576760
C31	C	1.400437	0.269404	0.576759
C32	C	1.400420	0.269396	0.423425
H33	H	0.840894	0.388984	0.000095
H34	H	1.078574	0.395294	0.000053
C35	C	1.183668	0.341117	0.624009
C36	C	1.307383	0.362400	0.661040
H37	H	1.126223	0.398527	0.676048
H38	H	1.171546	0.353228	0.521731
H39	H	1.169331	0.257164	0.649160
H40	H	1.321724	0.446351	0.635879
H41	H	1.319511	0.350300	0.763341
C42	C	0.745143	-0.038050	0.000135
C43	C	0.876928	-0.058760	0.000132
H44	H	0.710180	-0.116787	0.000132
H45	H	0.717939	0.008325	0.085077
H46	H	0.717936	0.008340	-0.084820
H47	H	0.904137	-0.105143	0.085094
H48	H	0.904143	-0.105156	-0.084818
C49	C	1.328545	0.486139	0.376175
C50	C	1.307351	0.362402	0.339146
H51	H	1.271093	0.543550	0.324136
H52	H	1.316434	0.498248	0.478453
H53	H	1.412480	0.500542	0.351023
H54	H	1.223419	0.347997	0.364308
H55	H	1.319452	0.350289	0.236844
C56	C	1.128769	-0.121504	-0.125120
C57	C	1.151972	-0.051465	0.000097
H58	H	1.182723	-0.197872	-0.125120
H59	H	1.043377	-0.140183	-0.125099
H60	H	1.144493	-0.073963	-0.210064
H61	H	1.136239	-0.099003	0.085042
H62	H	1.237384	-0.032790	0.000089
C63	C	1.791402	-0.458828	-0.125101
C64	C	1.721348	-0.482055	0.000106
H65	H	1.867783	-0.512760	-0.125086
H66	H	1.743887	-0.474554	-0.210043
H67	H	1.810062	-0.373419	-0.125072
H68	H	1.702680	-0.567462	0.000072
H69	H	1.768872	-0.466339	0.085070
C70	C	1.262244	-0.555151	0.000060
C71	C	1.241534	-0.423366	0.000053
H72	H	1.183508	-0.590114	0.000066
H73	H	1.308625	-0.582354	-0.084881
H74	H	1.308630	-0.582360	0.085016
H75	H	1.195157	-0.396157	-0.084909
H76	H	1.195134	-0.396152	0.085003
C77	C	1.243863	-0.072136	-0.125168
C78	C	1.248827	-0.148327	0.000060
H79	H	1.167485	-0.018199	-0.125182
H80	H	1.313451	-0.022704	-0.125145
H81	H	1.247266	-0.123838	-0.210105
H82	H	1.245434	-0.096625	0.084998
H83	H	1.179220	-0.197763	0.000050
C84	C	1.737141	-0.067059	0.561349
C85	C	1.662837	0.007197	0.661027
H86	H	1.794607	-0.124465	0.613375
H87	H	1.684472	-0.112725	0.501560
H88	H	1.782753	-0.014342	0.501527
H89	H	1.617217	-0.045520	0.720842
H90	H	1.715512	0.052866	0.720840
H91	H	1.638687	0.031295	0.361007
H92	H	1.695588	-0.221720	0.000132
