data_functionalizedCrystal
_audit_creation_method	'MofGen! by Chris Wilmer'
_symmetry_space_group_name_H-M	'P1'
_symmetry_Int_Tables_number	1
_symmetry_cell_setting	triclinic
loop_
_symmetry_equiv_pos_as_xyz
  x,y,z
_cell_length_a	12.837943
_cell_length_b	14.853567
_cell_length_c	11.295483
_cell_angle_alpha	94.104625
_cell_angle_beta	85.461227
_cell_angle_gamma	89.231935
loop_
_atom_site_label
_atom_site_type_symbol
_atom_site_fract_x
_atom_site_fract_y
_atom_site_fract_z
O1	O	1.382763	0.228927	-0.098984
O2	O	1.080941	0.217348	-0.098992
O3	O	1.239915	0.092592	-0.098991
O4	O	1.223790	0.353684	-0.098985
O5	O	1.225952	0.103530	0.099059
O6	O	1.066978	0.228287	0.099059
O7	O	1.368800	0.239866	0.099067
Cu8	Cu	1.216614	0.235075	0.117146
Cu9	Cu	1.233127	0.222139	-0.117072
O10	O	1.209827	0.364623	0.099066
C11	C	1.035334	0.218906	0.000032
C12	C	0.920240	0.207240	0.000029
C13	C	0.679482	0.347487	0.000049
C14	C	0.571341	0.336530	0.000047
C15	C	0.595813	0.174369	0.000030
C16	C	0.703954	0.185327	0.000032
C17	C	0.745785	0.271888	0.000040
C18	C	0.853929	0.282844	0.000034
C19	C	0.878399	0.120685	0.000026
C20	C	0.770257	0.109728	0.000023
C21	C	1.232203	0.064410	0.000030
C22	C	1.230014	-0.035860	0.000020
C23	C	1.126324	-0.457187	0.000040
C24	C	1.315188	-0.462449	0.000045
C25	C	1.317247	-0.368241	0.000038
C26	C	1.223843	-0.318502	0.000034
C27	C	1.128380	-0.362970	0.000037
C28	C	1.412707	-0.323764	0.000047
C29	C	1.414770	-0.229551	0.000042
C30	C	1.321366	-0.179810	0.000029
C31	C	1.225899	-0.224285	0.000030
C32	C	1.132495	-0.174546	0.000026
C33	C	1.037028	-0.219019	0.000019
C34	C	1.034976	-0.313230	0.000024
C35	C	1.323418	-0.085599	0.000024
C36	C	1.134551	-0.080329	0.000023
C37	C	1.414408	0.238308	0.000040
C38	C	1.529502	0.249974	0.000036
C39	C	1.217539	0.392804	0.000042
C40	C	1.219728	0.493073	0.000044
N41	N	1.205008	0.244174	0.281883
N42	N	1.244742	0.213033	-0.281808
C43	C	1.328293	0.147484	0.531173
C44	C	1.319529	0.154367	0.655836
C45	C	1.178712	0.264819	0.655876
C46	C	1.187475	0.257935	0.531212
C47	C	1.262270	0.199267	0.468865
C48	C	1.271038	0.192389	0.344199
C49	C	1.130216	0.302836	0.344241
C50	C	1.121452	0.309719	0.468904
H51	H	0.887985	0.353327	0.000043
C52	C	0.724238	0.014518	0.000009
H53	H	0.650337	0.018817	0.000001
H54	H	0.742121	-0.013195	0.069065
H55	H	0.751856	-0.020806	-0.069073
C56	C	1.096382	0.329287	0.724466
H57	H	1.058290	0.359123	0.669505
H58	H	1.130244	0.372741	0.773136
H59	H	1.049787	0.295745	0.773059
C60	C	1.039155	0.374222	0.537487
H61	H	1.001077	0.404065	0.482521
H62	H	1.073052	0.417668	0.586134
H63	H	0.992541	0.340714	0.586103
C64	C	0.549785	0.079163	0.000034
H65	H	0.475884	0.083469	0.000032
H66	H	0.567670	0.051458	0.069096
H67	H	0.577395	0.043828	-0.069042
C68	C	1.428414	-0.036678	0.000036
H69	H	1.416262	0.026555	0.000039
H70	H	1.471754	-0.057017	-0.069021
H71	H	1.461999	-0.049379	0.069117
H72	H	0.960979	-0.178508	0.000024
C73	C	0.929974	-0.362151	0.000033
H74	H	0.942128	-0.425382	0.000052
H75	H	0.896371	-0.349453	-0.069030
H76	H	0.886647	-0.341808	0.069108
H77	H	0.932395	0.059126	0.000010
C78	C	1.515440	-0.378476	0.000060
H79	H	1.500542	-0.440954	0.000049
H80	H	1.549705	-0.360304	0.069129
H81	H	1.559451	-0.367936	-0.069009
C82	C	1.519774	-0.180634	0.000045
H83	H	1.507624	-0.117401	0.000049
H84	H	1.563110	-0.200975	-0.069014
H85	H	1.553363	-0.193337	0.069124
C86	C	0.725500	0.442697	0.000048
H87	H	0.670523	0.486154	0.000055
H88	H	0.772047	0.446525	-0.069016
H89	H	0.762307	0.454158	0.069122
C90	C	1.353303	0.127854	0.275618
H91	H	1.391361	0.097993	0.330586
H92	H	1.399928	0.161326	0.226977
H93	H	1.319364	0.084413	0.226997
C94	C	1.031805	-0.025622	0.000019
H95	H	0.974659	-0.065603	0.000024
H96	H	1.033550	0.007427	-0.069043
H97	H	1.023810	0.015052	0.069095
C98	C	1.021318	-0.506102	0.000037
H99	H	1.033465	-0.569335	0.000046
H100	H	0.987722	-0.493393	-0.069026
H101	H	0.977990	-0.485763	0.069112
C102	C	1.392153	0.097408	0.724377
H103	H	1.376218	0.109903	0.807552
H104	H	1.462795	0.112043	0.703931
H105	H	1.382234	0.035128	0.703944
H106	H	0.517360	0.398091	0.000058
H107	H	1.391232	-0.502951	0.000058
H108	H	1.389201	0.099720	0.480409
H109	H	1.076458	0.345004	0.293496
