data_functionalizedCrystal
_audit_creation_method	'MofGen! by Chris Wilmer'
_symmetry_space_group_name_H-M	'P1'
_symmetry_Int_Tables_number	1
_symmetry_cell_setting	triclinic
loop_
_symmetry_equiv_pos_as_xyz
  x,y,z
_cell_length_a	19.805407
_cell_length_b	29.839125
_cell_length_c	19.805405
_cell_angle_alpha	90.017444
_cell_angle_beta	89.976273
_cell_angle_gamma	89.988572
loop_
_atom_site_label
_atom_site_type_symbol
_atom_site_fract_x
_atom_site_fract_y
_atom_site_fract_z
Zn1	Zn	1.034693	-0.253999	0.269607
Zn2	Zn	1.534693	0.246001	0.769607
Zn3	Zn	1.034620	-0.178870	0.382771
Zn4	Zn	1.534620	0.321130	0.882771
Zn5	Zn	0.921520	-0.178883	0.269596
Zn6	Zn	1.421520	0.321117	0.769596
Zn7	Zn	0.921471	-0.253972	0.382754
Zn8	Zn	1.421471	0.246028	0.882754
O9	O	0.978076	-0.216431	0.326182
O10	O	1.478076	0.283569	0.826182
O11	O	1.129400	-0.244039	0.284630
O12	O	1.629400	0.255961	0.784630
O13	O	1.019608	-0.116004	0.367762
O14	O	1.519608	0.383996	0.867762
O15	O	0.936584	-0.188864	0.174881
O16	O	1.436584	0.311136	0.674881
O17	O	1.129347	-0.188842	0.367772
O18	O	1.629347	0.311158	0.867772
O19	O	1.019731	-0.244052	0.174889
O20	O	1.519731	0.255948	0.674889
O21	O	0.936513	-0.116014	0.284613
O22	O	1.436513	0.383986	0.784613
O23	O	0.826797	-0.188838	0.284595
O24	O	1.326797	0.311162	0.784595
O25	O	0.936500	-0.316843	0.367741
O26	O	1.436500	0.183157	0.867741
O27	O	0.826761	-0.244005	0.367731
O28	O	1.326761	0.255995	0.867731
O29	O	1.019684	-0.316863	0.284612
O30	O	1.519684	0.183137	0.784612
O31	O	1.019560	-0.188815	0.477486
O32	O	1.519560	0.311185	0.977486
O33	O	0.936430	-0.243992	0.477473
O34	O	1.436430	0.256008	0.977473
C35	C	0.802220	-0.216420	0.326161
C36	C	1.302220	0.283580	0.826161
C37	C	0.726988	-0.216426	0.326168
C38	C	1.226988	0.283574	0.826168
C39	C	0.691672	-0.245211	0.282953
C40	C	1.191672	0.254789	0.782953
C41	C	0.620984	-0.245213	0.282956
C42	C	1.120984	0.254787	0.782956
C43	C	0.585613	-0.216431	0.326179
C44	C	1.085613	0.283569	0.826179
C45	C	0.620933	-0.187643	0.369396
C46	C	1.120933	0.312357	0.869396
C47	C	0.691621	-0.187640	0.369389
C48	C	1.191621	0.312360	0.869389
C49	C	0.335860	-0.187657	0.369427
C50	C	0.835860	0.312343	0.869427
C51	C	0.265168	-0.187664	0.369432
C52	C	0.765168	0.312336	0.869432
C53	C	0.265224	-0.245230	0.282994
C54	C	0.765224	0.254770	0.782994
C55	C	0.335911	-0.245227	0.282987
C56	C	0.835911	0.254773	0.782987
C57	C	0.371225	-0.216437	0.326201
C58	C	0.871225	0.283563	0.826201
C59	C	0.447874	-0.216435	0.326196
C60	C	0.947874	0.283565	0.826196
C61	C	0.508966	-0.216436	0.326188
C62	C	1.008966	0.283564	0.826188
C63	C	0.978095	-0.333609	0.326176
C64	C	1.478095	0.166391	0.826176
C65	C	0.978102	-0.383544	0.326173
C66	C	1.478102	0.116456	0.826173
C67	C	1.021462	-0.693201	0.282775
C68	C	1.521462	-0.193201	0.782775
C69	C	1.021495	-0.880874	0.282717
C70	C	1.521495	-0.380874	0.782717
O71	O	1.058310	-0.905150	0.245882
O72	O	1.558310	-0.405150	0.745882
N73	N	0.978192	-0.904329	0.325992
N74	N	1.478192	-0.404329	0.825992
C75	C	0.934874	-0.880863	0.369281
C76	C	1.434874	-0.380863	0.869281
O77	O	0.898038	-0.905119	0.406083
O78	O	1.398038	-0.405119	0.906083
C79	C	0.934838	-0.693191	0.369335
C80	C	1.434838	-0.193191	0.869335
C81	C	0.978149	-0.669738	0.326062
C82	C	1.478149	-0.169738	0.826062
C83	C	1.064768	-0.669748	0.239505
C84	C	1.564768	-0.169748	0.739505
C85	C	1.064762	-0.622833	0.239522
C86	C	1.564762	-0.122833	0.739522
C87	C	1.021449	-0.599370	0.282810
C88	C	1.521449	-0.099370	0.782810
C89	C	0.978142	-0.622823	0.326080
C90	C	1.478142	-0.122823	0.826080
C91	C	0.891517	-0.669726	0.412621
C92	C	1.391517	-0.169726	0.912621
C93	C	0.891511	-0.622805	0.412629
C94	C	1.391511	-0.122805	0.912629
C95	C	0.934822	-0.599352	0.369356
C96	C	1.434822	-0.099352	0.869356
C97	C	0.934823	-0.552444	0.369385
C98	C	1.434823	-0.052444	0.869385
N99	N	0.978126	-0.528989	0.326110
N100	N	1.478126	-0.028989	0.826110
C101	C	1.021439	-0.552452	0.282822
C102	C	1.521439	-0.052452	0.782822
C103	C	0.934898	-0.979394	0.369251
C104	C	1.434898	-0.479394	0.869251
C105	C	0.934907	-1.026312	0.369239
C106	C	1.434907	-0.526312	0.869239
C107	C	1.021527	-1.026319	0.282673
C108	C	1.521527	-0.526319	0.782673
C109	C	1.021521	-0.979400	0.282690
C110	C	1.521521	-0.479400	0.782690
C111	C	0.978201	-0.955939	0.325976
C112	C	1.478201	-0.455939	0.825976
C113	C	1.021423	-0.453926	0.282863
C114	C	1.521423	0.046074	0.782863
C115	C	1.021415	-0.407006	0.282886
C116	C	1.521415	0.092994	0.782886
C117	C	0.934793	-0.407003	0.369448
C118	C	1.434793	0.092997	0.869448
C119	C	0.934803	-0.453918	0.369428
C120	C	1.434803	0.046082	0.869428
C121	C	0.978121	-0.477379	0.326130
C122	C	1.478121	0.022621	0.826130
O123	O	0.898022	-0.528139	0.406195
O124	O	1.398022	-0.028139	0.906195
O125	O	1.058259	-0.528188	0.246016
O126	O	1.558259	-0.028188	0.746016
C127	C	1.021468	-0.740116	0.282757
C128	C	1.521468	-0.240116	0.782757
C129	C	0.978161	-0.763569	0.326027
C130	C	1.478161	-0.263569	0.826027
C131	C	0.934848	-0.740106	0.369315
C132	C	1.434848	-0.240106	0.869315
C133	C	0.978171	-0.810487	0.326015
C134	C	1.478171	-0.310487	0.826015
C135	C	1.021484	-0.833950	0.282728
C136	C	1.521484	-0.333950	0.782728
C137	C	1.064787	-0.810494	0.239453
C138	C	1.564787	-0.310494	0.739453
C139	C	1.064781	-0.763579	0.239470
C140	C	1.564781	-0.263579	0.739470
C141	C	0.891545	-0.763561	0.412590
C142	C	1.391545	-0.263561	0.912590
C143	C	0.891555	-0.810477	0.412569
C144	C	1.391555	-0.310477	0.912569
C145	C	0.934868	-0.833940	0.369282
C146	C	1.434868	-0.333940	0.869282
C147	C	1.154619	-0.216442	0.326204
C148	C	1.654619	0.283558	0.826204
C149	C	1.229851	-0.216447	0.326213
C150	C	1.729851	0.283553	0.826213
C151	C	0.978000	-0.216409	0.502038
C152	C	1.478000	0.283591	1.002038
C153	C	0.978029	-0.216415	0.577270
C154	C	1.478029	0.283585	1.077270
C155	C	0.978097	-0.099708	0.326139
C156	C	1.478097	0.400292	0.826139
C157	C	0.978220	-0.049774	0.325951
C158	C	1.478220	0.450226	0.825951
C159	C	0.978171	-0.216463	0.149639
C160	C	1.478171	0.283537	0.649639
C161	C	0.978212	-0.216476	0.074407
C162	C	1.478212	0.283524	0.574407
C163	C	1.021357	-0.187714	0.612599
C164	C	1.521357	0.312286	1.112599
C165	C	1.021386	-0.187724	0.683287
C166	C	1.521386	0.312276	1.183287
C167	C	0.978083	-0.216433	0.718646
C168	C	1.478083	0.283567	1.218646
C169	C	0.934753	-0.245137	0.683312
C170	C	1.434753	0.254863	1.183312
C171	C	0.934728	-0.245129	0.612625
C172	C	1.434728	0.254871	1.112625
C173	C	0.934853	-0.245170	0.968385
C174	C	1.434853	0.254830	1.468385
C175	C	0.934880	-0.245175	1.039077
C176	C	1.434880	0.254825	1.539077
C177	C	1.021511	-0.187765	1.039047
C178	C	1.521511	0.312235	1.539047
C179	C	1.021486	-0.187757	0.968360
C180	C	1.521486	0.312243	1.468360
C181	C	0.978159	-0.216463	0.933033
C182	C	1.478159	0.283537	1.433033
C183	C	0.978129	-0.216452	0.856385
C184	C	1.478129	0.283548	1.356385
C185	C	0.978109	-0.216441	0.795293
C186	C	1.478109	0.283559	1.295293
H187	H	0.236371	-0.164225	0.404631
H188	H	0.736371	0.335775	0.904631
H189	H	1.056668	-0.164353	0.712048
H190	H	1.556668	0.335647	1.212048
H191	H	0.592233	-0.268653	0.247767
H192	H	1.092233	0.231347	0.747767
H193	H	1.056792	-0.164394	1.067819
H194	H	1.556792	0.335606	1.567819
H195	H	0.899447	-0.268500	0.583861
H196	H	1.399447	0.231500	1.083861
H197	H	0.856226	-0.603704	0.447872
H198	H	1.356226	-0.103704	0.947872
H199	H	1.100049	-0.744488	0.204232
H200	H	1.600049	-0.244488	0.704232
H201	H	1.056694	-0.473022	0.247603
H202	H	1.556694	0.026978	0.747603
H203	H	0.364605	-0.164215	0.404615
H204	H	0.864605	0.335785	0.904615
H205	H	0.720467	-0.268649	0.247757
H206	H	1.220467	0.231351	0.747757
H207	H	0.899618	-0.268556	1.067865
H208	H	1.399618	0.231444	1.567865
H209	H	1.100056	-0.829606	0.204209
H210	H	1.600056	-0.329606	0.704209
H211	H	0.899573	-0.268542	0.939627
H212	H	1.399573	0.231458	1.439627
H213	H	1.056617	-0.164334	0.583814
H214	H	1.556617	0.335666	1.083814
H215	H	0.364707	-0.268665	0.247793
H216	H	0.864707	0.231335	0.747793
H217	H	0.236462	-0.268671	0.247805
H218	H	0.736462	0.231329	0.747805
H219	H	0.899498	-0.268514	0.712107
H220	H	1.399498	0.231486	1.212107
H221	H	0.592128	-0.164207	0.404586
H222	H	1.092128	0.335793	0.904586
H223	H	1.056795	-1.045431	0.247427
H224	H	1.556795	-0.545431	0.747427
H225	H	0.899647	-1.045403	0.404483
H226	H	1.399647	-0.545403	0.904483
H227	H	0.899543	-0.473015	0.404671
H228	H	1.399543	0.026985	0.904671
H229	H	1.056745	-0.164379	0.939573
H230	H	1.556745	0.335621	1.439573
H231	H	0.720374	-0.164200	0.404579
H232	H	1.220374	0.335800	0.904579
H233	H	1.056687	-0.387913	0.247647
H234	H	1.556687	0.112087	0.747647
H235	H	0.899531	-0.387891	0.404694
H236	H	1.399531	0.112109	0.904694
H237	H	1.100029	-0.603742	0.204284
H238	H	1.600029	-0.103742	0.704284
H239	H	1.100039	-0.688846	0.204251
H240	H	1.600039	-0.188846	0.704251
H241	H	1.056787	-0.960308	0.247452
H242	H	1.556787	-0.460308	0.747452
H243	H	0.899622	-0.960295	0.404504
H244	H	1.399622	-0.460295	0.904504
H245	H	0.856249	-0.688813	0.447858
H246	H	1.356249	-0.188813	0.947858
H247	H	0.856288	-0.829568	0.447814
H248	H	1.356288	-0.329568	0.947814
H249	H	0.856275	-0.744463	0.447841
H250	H	1.356275	-0.244463	0.947841
