data_functionalizedCrystal
_audit_creation_method	'MofGen! by Chris Wilmer'
_symmetry_space_group_name_H-M	'P1'
_symmetry_Int_Tables_number	1
_symmetry_cell_setting	triclinic
loop_
_symmetry_equiv_pos_as_xyz
  x,y,z
_cell_length_a	16.992694
_cell_length_b	10.967961
_cell_length_c	16.053802
_cell_angle_alpha	80.478881
_cell_angle_beta	87.249047
_cell_angle_gamma	87.623844
loop_
_atom_site_label
_atom_site_type_symbol
_atom_site_fract_x
_atom_site_fract_y
_atom_site_fract_z
O1	O	1.046844	0.257187	-0.106320
O2	O	0.818524	0.254311	-0.105931
O3	O	0.936729	0.076457	-0.080329
O4	O	0.928640	0.435041	-0.131922
O5	O	0.930222	0.086203	0.057127
O6	O	0.812018	0.264057	0.031525
O7	O	1.040337	0.266934	0.031136
Zn8	Zn	0.925144	0.267043	0.053154
Zn9	Zn	0.933717	0.254201	-0.127950
O10	O	0.922133	0.444787	0.005533
C11	C	0.786013	0.255485	-0.036674
C12	C	0.698834	0.244449	-0.035096
C13	C	0.932395	0.035235	-0.004971
C14	C	0.929166	-0.102114	0.014786
C15	C	0.649898	0.350922	-0.050415
C16	C	0.567984	0.340547	-0.048910
C17	C	0.535008	0.223698	-0.032093
C18	C	0.583951	0.117217	-0.016771
C19	C	0.665863	0.127594	-0.018269
C20	C	0.290882	0.180690	-0.025883
C21	C	0.208964	0.170321	-0.024388
C22	C	0.193002	0.393653	-0.056526
C23	C	0.274917	0.404019	-0.058028
C24	C	0.323853	0.297539	-0.042702
N25	N	0.451279	0.213090	-0.030558
N26	N	0.407580	0.308148	-0.044231
C27	C	0.927764	-0.310356	-0.027193
C28	C	0.931098	-0.168398	-0.047618
C29	C	1.072848	0.265759	-0.038123
C30	C	1.160027	0.276794	-0.039707
C31	C	0.926467	0.486009	-0.069827
C32	C	0.929696	0.623358	-0.089588
N33	N	0.919299	0.275807	0.176753
N34	N	0.939568	0.245429	-0.251547
C35	C	0.969614	0.200160	0.231336
C36	C	0.965533	0.206303	0.317859
C37	C	0.911140	0.288099	0.349795
C38	C	0.860819	0.363749	0.295206
C39	C	0.864897	0.357599	0.208686
C40	C	0.893326	0.314928	0.607343
C41	C	0.889253	0.321075	0.693870
C42	C	0.993966	0.163627	0.716517
C43	C	0.998043	0.157489	0.629994
C44	C	0.947720	0.233134	0.575412
N45	N	0.906968	0.294383	0.438235
N46	N	0.951888	0.226843	0.486976
H47	H	0.676740	0.446074	-0.064110
H48	H	0.923637	-0.358701	0.041346
O49	O	0.923711	-0.166128	0.105584
H50	H	0.921957	-0.267582	0.107381
O51	O	0.936552	-0.104378	-0.138415
H52	H	0.991007	-0.137369	-0.169987
O53	O	0.830575	0.409286	0.728323
H54	H	0.796259	0.460843	0.675836
O55	O	0.810634	0.439194	0.149806
H56	H	0.772131	0.497115	0.186546
H57	H	0.330716	0.093986	-0.013402
O58	O	0.548389	-0.008818	0.001376
H59	H	0.514101	-0.022872	-0.053199
H60	H	0.933812	-0.328295	-0.158128
H61	H	1.013910	0.133559	0.205340
H62	H	0.705707	0.040891	-0.005795
O63	O	1.019815	0.124738	0.376731
H64	H	1.058334	0.066846	0.339985
O65	O	1.056719	0.069265	0.595563
H66	H	1.097370	0.122299	0.548113
O67	O	0.515199	0.455385	-0.065432
H68	H	0.551891	0.538379	-0.077388
H69	H	1.034936	0.102039	0.760965
O70	O	0.839059	0.396524	0.548476
H71	H	0.800560	0.454444	0.585220
H72	H	0.153151	0.480343	-0.069003
O73	O	0.802153	0.451981	0.329644
H74	H	0.807776	0.443562	0.398975
O75	O	0.310474	0.530058	-0.076149
H76	H	0.293562	0.577652	-0.139585
O77	O	0.173392	0.044286	-0.006240
H78	H	0.221180	-0.028014	0.004174
