data_functionalizedCrystal
_audit_creation_method	'MofGen! by Chris Wilmer'
_symmetry_space_group_name_H-M	'P1'
_symmetry_Int_Tables_number	1
_symmetry_cell_setting	triclinic
loop_
_symmetry_equiv_pos_as_xyz
  x,y,z
_cell_length_a	17.699097
_cell_length_b	14.044220
_cell_length_c	16.176319
_cell_angle_alpha	89.992517
_cell_angle_beta	89.988988
_cell_angle_gamma	88.238654
loop_
_atom_site_label
_atom_site_type_symbol
_atom_site_fract_x
_atom_site_fract_y
_atom_site_fract_z
O1	O	1.012344	0.119911	-0.068818
O2	O	1.262344	0.369911	0.181182
O3	O	1.512344	0.619911	0.431182
O4	O	1.762344	0.869911	0.681182
O5	O	0.793042	0.135490	-0.068805
O6	O	1.043042	0.385490	0.181195
O7	O	1.293042	0.635490	0.431195
O8	O	1.543042	0.885490	0.681195
O9	O	0.899401	-0.010277	-0.068803
O10	O	1.149401	0.239723	0.181197
O11	O	1.399401	0.489723	0.431197
O12	O	1.649401	0.739723	0.681197
O13	O	0.905985	0.265678	-0.068820
O14	O	1.155985	0.515678	0.181180
O15	O	1.405985	0.765678	0.431180
O16	O	1.655985	1.015678	0.681180
O17	O	0.899385	-0.010286	0.068690
O18	O	1.149385	0.239714	0.318690
O19	O	1.399385	0.489714	0.568690
O20	O	1.649385	0.739714	0.818690
O21	O	0.793025	0.135481	0.068688
O22	O	1.043025	0.385481	0.318688
O23	O	1.293025	0.635481	0.568688
O24	O	1.543025	0.885481	0.818688
O25	O	1.012327	0.119901	0.068675
O26	O	1.262327	0.369901	0.318675
O27	O	1.512327	0.619901	0.568675
O28	O	1.762327	0.869901	0.818675
Cu29	Cu	0.902675	0.127690	0.081236
Cu30	Cu	1.152675	0.377690	0.331236
Cu31	Cu	1.402675	0.627690	0.581236
Cu32	Cu	1.652675	0.877690	0.831236
Cu33	Cu	0.902694	0.127701	-0.081366
Cu34	Cu	1.152694	0.377701	0.168634
Cu35	Cu	1.402694	0.627701	0.418634
Cu36	Cu	1.652694	0.877701	0.668634
O37	O	0.905968	0.265668	0.068673
O38	O	1.155968	0.515668	0.318673
O39	O	1.405968	0.765668	0.568673
O40	O	1.655968	1.015668	0.818673
C41	C	0.764798	0.134925	-0.000057
C42	C	1.014798	0.384925	0.249943
C43	C	1.264798	0.634925	0.499943
C44	C	1.514798	0.884925	0.749943
C45	C	0.680664	0.133244	-0.000051
C46	C	0.930664	0.383244	0.249949
C47	C	1.180664	0.633244	0.499949
C48	C	1.430664	0.883244	0.749949
C49	C	0.164244	0.122944	-0.075032
C50	C	0.414244	0.372944	0.174968
C51	C	0.664244	0.622944	0.424968
C52	C	0.914244	0.872944	0.674968
C53	C	0.243297	0.124518	-0.075028
C54	C	0.493297	0.374518	0.174972
C55	C	0.743297	0.624518	0.424972
C56	C	0.993297	0.874518	0.674972
C57	C	0.282808	0.125301	-0.000077
C58	C	0.532808	0.375301	0.249923
C59	C	0.782808	0.625301	0.499923
C60	C	1.032808	0.875301	0.749923
C61	C	0.243263	0.124501	0.074875
C62	C	0.493263	0.374501	0.324875
C63	C	0.743263	0.624501	0.574875
C64	C	0.993263	0.874501	0.824875
C65	C	0.164212	0.122921	0.074870
C66	C	0.414212	0.372921	0.324870
C67	C	0.664212	0.622921	0.574870
C68	C	0.914212	0.872921	0.824870
C69	C	0.562067	0.130871	0.074896
C70	C	0.812067	0.380871	0.324896
C71	C	1.062067	0.630871	0.574896
C72	C	1.312067	0.880871	0.824896
C73	C	0.641123	0.132454	0.074895
C74	C	0.891123	0.382454	0.324895
C75	C	1.141123	0.632454	0.574895
C76	C	1.391123	0.882454	0.824895
C77	C	0.641152	0.132468	-0.075001
C78	C	0.891152	0.382468	0.174999
C79	C	1.141152	0.632468	0.424999
C80	C	1.391152	0.882468	0.674999
C81	C	0.562101	0.130888	-0.075006
C82	C	0.812101	0.380888	0.174994
C83	C	1.062101	0.630888	0.424994
C84	C	1.312101	0.880888	0.674994
C85	C	0.522563	0.130083	-0.000055
C86	C	0.772563	0.380083	0.249945
C87	C	1.022563	0.630083	0.499945
C88	C	1.272563	0.880083	0.749945
C89	C	0.436845	0.128376	-0.000060
C90	C	0.686845	0.378376	0.249940
C91	C	0.936845	0.628376	0.499940
C92	C	1.186845	0.878376	0.749940
C93	C	0.368524	0.127015	-0.000071
C94	C	0.618524	0.377015	0.249929
C95	C	0.868524	0.627015	0.499929
C96	C	1.118524	0.877015	0.749929
C97	C	0.896511	-0.045589	-0.000056
C98	C	1.146511	0.204411	0.249944
C99	C	1.396511	0.454411	0.499944
C100	C	1.646511	0.704411	0.749944
C101	C	0.887915	-0.150796	-0.000055
C102	C	1.137915	0.099204	0.249945
C103	C	1.387915	0.349204	0.499945
C104	C	1.637915	0.599204	0.749945
C105	C	0.872200	-0.343422	-0.000066
C106	C	1.122200	-0.093422	0.249934
C107	C	1.372200	0.156578	0.499934
C108	C	1.622200	0.406578	0.749934
C109	C	0.933166	-0.401192	-0.000072
C110	C	1.183166	-0.151192	0.249928
C111	C	1.433166	0.098808	0.499928
C112	C	1.683166	0.348808	0.749928
C113	C	0.924422	-0.508376	-0.000078
C114	C	1.174422	-0.258376	0.249922
C115	C	1.424422	-0.008376	0.499922
C116	C	1.674422	0.241624	0.749922
C117	C	0.880943	-0.236228	-0.000059
C118	C	1.130943	0.013772	0.249941
C119	C	1.380943	0.263772	0.499941
C120	C	1.630943	0.513772	0.749941
C121	C	1.040571	0.120466	-0.000075
C122	C	1.290571	0.370466	0.249925
C123	C	1.540571	0.620466	0.499925
C124	C	1.790571	0.870466	0.749925
C125	C	1.124705	0.122148	-0.000086
C126	C	1.374705	0.372148	0.249914
C127	C	1.624705	0.622148	0.499914
C128	C	1.874705	0.872148	0.749914
C129	C	0.908858	0.300981	-0.000076
C130	C	1.158858	0.550981	0.249924
C131	C	1.408858	0.800981	0.499924
C132	C	1.658858	1.050981	0.749924
C133	C	0.917454	0.406188	-0.000083
C134	C	1.167454	0.656188	0.249917
C135	C	1.417454	0.906188	0.499917
C136	C	1.667454	1.156188	0.749917
N137	N	0.902666	0.127682	0.195601
N138	N	1.152666	0.377682	0.445601
N139	N	1.402666	0.627682	0.695601
N140	N	1.652666	0.877682	0.945601
N141	N	0.902708	0.127702	-0.195731
N142	N	1.152708	0.377702	0.054269
N143	N	1.402708	0.627702	0.304269
N144	N	1.652708	0.877702	0.554269
C145	C	0.949780	0.063163	0.238866
C146	C	1.199780	0.313163	0.488866
C147	C	1.449780	0.563163	0.738866
C148	C	1.699780	0.813163	0.988866
C149	C	0.949783	0.063162	0.325413
C150	C	1.199783	0.313162	0.575413
C151	C	1.449783	0.563162	0.825413
C152	C	1.699783	0.813162	1.075413
C153	C	0.902677	0.127685	0.368694
C154	C	1.152677	0.377685	0.618694
C155	C	1.402677	0.627685	0.868694
C156	C	1.652677	0.877685	1.118694
C157	C	0.855559	0.192208	0.325423
C158	C	1.105559	0.442208	0.575423
C159	C	1.355559	0.692208	0.825423
C160	C	1.605559	0.942208	1.075423
C161	C	0.855552	0.192204	0.238877
C162	C	1.105552	0.442204	0.488877
C163	C	1.355552	0.692204	0.738877
C164	C	1.605552	0.942204	0.988877
C165	C	0.855586	0.192226	0.674451
C166	C	1.105586	0.442226	0.924451
C167	C	1.355586	0.692226	1.174451
C168	C	1.605586	0.942226	1.424451
C169	C	0.855598	0.192227	0.761002
C170	C	1.105598	0.442227	1.011002
C171	C	1.355598	0.692227	1.261002
C172	C	1.605598	0.942227	1.511002
C173	C	0.949818	0.063184	0.760987
C174	C	1.199818	0.313184	1.010987
C175	C	1.449818	0.563184	1.260987
C176	C	1.699818	0.813184	1.510987
C177	C	0.949811	0.063180	0.674441
C178	C	1.199811	0.313180	0.924441
C179	C	1.449811	0.563180	1.174441
C180	C	1.699811	0.813180	1.424441
C181	C	0.902690	0.127698	0.631178
C182	C	1.152690	0.377698	0.881178
C183	C	1.402690	0.627698	1.131178
C184	C	1.652690	0.877698	1.381178
C185	C	0.902685	0.127697	0.537334
C186	C	1.152685	0.377697	0.787334
C187	C	1.402685	0.627697	1.037334
C188	C	1.652685	0.877697	1.287334
C189	C	0.902685	0.127692	0.462536
C190	C	1.152685	0.377692	0.712536
C191	C	1.402685	0.627692	0.962536
C192	C	1.652685	0.877692	1.212536
H193	H	0.275487	0.125161	-0.136056
H194	H	0.525487	0.375161	0.113944
H195	H	0.775487	0.625161	0.363944
H196	H	1.025487	0.875161	0.613944
H197	H	0.817200	0.244741	0.360667
H198	H	1.067200	0.494741	0.610667
H199	H	1.317200	0.744741	0.860667
H200	H	1.567200	0.994741	1.110667
H201	H	0.991927	-0.370153	-0.000131
H202	H	1.241927	-0.120153	0.249869
H203	H	1.491927	0.129847	0.499869
H204	H	1.741927	0.379847	0.749869
H205	H	0.988146	0.010625	0.360639
H206	H	1.238146	0.260625	0.610639
H207	H	1.488146	0.510625	0.860639
H208	H	1.738146	0.760625	1.110639
H209	H	0.988171	0.010642	0.639205
H210	H	1.238171	0.260642	0.889205
H211	H	1.488171	0.510642	1.139205
H212	H	1.738171	0.760642	1.389205
H213	H	0.988184	0.010646	0.796221
H214	H	1.238184	0.260646	1.046221
H215	H	1.488184	0.510646	1.296221
H216	H	1.738184	0.760646	1.546221
H217	H	0.817236	0.244771	0.796240
H218	H	1.067236	0.494771	1.046240
H219	H	1.317236	0.744771	1.296240
H220	H	1.567236	0.994771	1.546240
H221	H	0.529934	0.130255	-0.136039
H222	H	0.779934	0.380255	0.113961
H223	H	1.029934	0.630255	0.363961
H224	H	1.279934	0.880255	0.613961
H225	H	0.132020	0.122282	0.135899
H226	H	0.382020	0.372282	0.385899
H227	H	0.632020	0.622282	0.635899
H228	H	0.882020	0.872282	0.885899
H229	H	0.813443	-0.374459	-0.000064
H230	H	1.063443	-0.124459	0.249936
H231	H	1.313443	0.125541	0.499936
H232	H	1.563443	0.375541	0.749936
H233	H	0.817220	0.244760	0.639232
H234	H	1.067220	0.494760	0.889232
H235	H	1.317220	0.744760	1.139232
H236	H	1.567220	0.994760	1.389232
H237	H	0.132080	0.122314	-0.136066
H238	H	0.382080	0.372314	0.113934
H239	H	0.632080	0.622314	0.363934
H240	H	0.882080	0.872314	0.613934
H241	H	0.673353	0.133119	-0.136030
H242	H	0.923353	0.383119	0.113970
H243	H	1.173353	0.633119	0.363970
H244	H	1.423353	0.883119	0.613970
H245	H	0.673291	0.133092	0.135933
H246	H	0.923291	0.383092	0.385933
H247	H	1.173291	0.633092	0.635933
H248	H	1.423291	0.883092	0.885933
H249	H	0.817186	0.244740	0.203651
H250	H	1.067186	0.494740	0.453651
H251	H	1.317186	0.744740	0.703651
H252	H	1.567186	0.994740	0.953651
H253	H	0.529885	0.130202	0.135926
H254	H	0.779885	0.380202	0.385926
H255	H	1.029885	0.630202	0.635926
H256	H	1.279885	0.880202	0.885926
H257	H	0.275440	0.125132	0.135901
H258	H	0.525440	0.375132	0.385901
H259	H	0.775440	0.625132	0.635901
H260	H	1.025440	0.875132	0.885901
H261	H	0.988142	0.010624	0.203633
H262	H	1.238142	0.260624	0.453633
H263	H	1.488142	0.510624	0.703633
H264	H	1.738142	0.760624	0.953633
