data_functionalizedCrystal
_audit_creation_method	'MofGen! by Chris Wilmer'
_symmetry_space_group_name_H-M	'P1'
_symmetry_Int_Tables_number	1
_symmetry_cell_setting	triclinic
loop_
_symmetry_equiv_pos_as_xyz
  x,y,z
_cell_length_a	14.044220
_cell_length_b	14.853567
_cell_length_c	12.503572
_cell_angle_alpha	86.479713
_cell_angle_beta	86.156832
_cell_angle_gamma	91.588096
loop_
_atom_site_label
_atom_site_type_symbol
_atom_site_fract_x
_atom_site_fract_y
_atom_site_fract_z
O1	O	0.118295	-1.210925	0.089249
O2	O	0.618295	-0.710925	0.589249
O3	O	0.133037	-0.949635	0.089267
O4	O	0.633037	-0.449635	0.589267
O5	O	-0.012323	-1.076357	0.089248
O6	O	0.487677	-0.576357	0.589248
O7	O	0.263655	-1.084202	0.089268
O8	O	0.763655	-0.584202	0.589268
O9	O	-0.001373	-1.066828	-0.089393
O10	O	0.498627	-0.566828	0.410607
O11	O	0.143987	-0.940106	-0.089373
O12	O	0.643987	-0.440106	0.410627
O13	O	0.129245	-1.201396	-0.089392
O14	O	0.629245	-0.701396	0.410608
Cu15	Cu	0.137616	-1.069881	-0.105694
Cu16	Cu	0.637616	-0.569881	0.394306
Cu17	Cu	0.124666	-1.081150	0.105569
Cu18	Cu	0.624666	-0.581150	0.605569
O19	O	0.274605	-1.074674	-0.089372
O20	O	0.774605	-0.574674	0.410628
C21	C	0.137844	-0.911229	-0.000051
C22	C	0.637844	-0.411229	0.499949
C23	C	0.135842	-0.810987	-0.000044
C24	C	0.635842	-0.310987	0.499956
C25	C	-0.042167	-1.068159	-0.000073
C26	C	0.457833	-0.568159	0.499927
C27	C	-0.147406	-1.057918	-0.000073
C28	C	0.352594	-0.557918	0.499927
C29	C	0.124438	-1.239802	-0.000072
C30	C	0.624438	-0.739802	0.499928
C31	C	0.126440	-1.340045	-0.000071
C32	C	0.626440	-0.840045	0.499929
C33	C	-0.340094	-1.039194	-0.000057
C34	C	0.159906	-0.539194	0.499943
C35	C	-0.397631	-1.111833	-0.000059
C36	C	0.102369	-0.611833	0.499941
C37	C	-0.504849	-1.101415	-0.000049
C38	C	-0.004849	-0.601415	0.499951
C39	C	-0.232866	-1.049611	-0.000066
C40	C	0.267134	-0.549611	0.499934
C41	C	0.304449	-1.082872	-0.000049
C42	C	0.804449	-0.582872	0.499951
C43	C	0.409688	-1.093114	-0.000042
C44	C	0.909688	-0.593114	0.499958
N45	N	0.146723	-1.061961	-0.254285
N46	N	0.646723	-0.561961	0.245715
C47	C	0.041033	-0.390940	-0.000075
C48	C	0.541033	0.109060	0.499925
C49	C	0.213725	-0.383342	-0.000061
C50	C	0.713725	0.116658	0.499939
C51	C	0.215607	-0.477525	-0.000057
C52	C	0.715607	0.022475	0.499943
C53	C	0.130201	-0.528420	-0.000061
C54	C	0.630201	-0.028420	0.499939
C55	C	0.042912	-0.485132	-0.000068
C56	C	0.542912	0.014868	0.499932
C57	C	0.302894	-0.520820	-0.000039
C58	C	0.802894	-0.020820	0.499961
C59	C	0.304779	-0.615009	-0.000035
C60	C	0.804779	-0.115009	0.499965
C61	C	0.219372	-0.665905	-0.000046
C62	C	0.719372	-0.165905	0.499954
C63	C	0.132080	-0.622612	-0.000054
C64	C	0.632080	-0.122612	0.499946
C65	C	0.046674	-0.673507	-0.000058
C66	C	0.546674	-0.173507	0.499942
C67	C	-0.040619	-0.630214	-0.000074
C68	C	0.459381	-0.130214	0.499926
C69	C	-0.042494	-0.536028	-0.000079
C70	C	0.457506	-0.036028	0.499921
C71	C	0.221248	-0.760092	-0.000040
C72	C	0.721248	-0.260092	0.499960
C73	C	0.048553	-0.767699	-0.000051
C74	C	0.548553	-0.267699	0.499949
C75	C	0.160129	-1.050312	-0.473398
C76	C	0.660129	-0.550312	0.026602
C77	C	0.102148	-1.100722	-0.526733
C78	C	0.602148	-0.600722	-0.026733
C79	C	0.109607	-1.094241	-0.648655
C80	C	0.609607	-0.594241	-0.148655
C81	C	0.152671	-1.056793	-0.351465
C82	C	0.652671	-0.556793	0.148535
N83	N	0.115551	-1.089076	0.254160
N84	N	0.615551	-0.589076	0.754160
H85	H	-0.366372	-1.181849	0.000009
H86	H	0.133628	-0.681849	0.500009
Br87	Br	0.010477	-1.181182	-0.450229
Br88	Br	0.510477	-0.681182	0.049771
Br89	Br	-0.392199	-0.922509	-0.000039
Br90	Br	0.107801	-0.422509	0.499961
H91	H	0.372426	-0.479375	-0.000025
H92	H	0.872426	0.020625	0.499975
H93	H	-0.020996	-0.809131	-0.000058
H94	H	0.479004	-0.309131	0.499942
H95	H	-0.110157	-0.671666	-0.000069
H96	H	0.389843	-0.171666	0.499931
Br97	Br	-0.160952	-0.477269	-0.000098
Br98	Br	0.339048	0.022731	0.499902
H99	H	-0.030038	-0.355687	-0.000092
H100	H	0.469962	0.144313	0.499908
H101	H	0.215366	-1.002291	-0.519298
H102	H	0.715366	-0.502291	-0.019298
H103	H	0.283258	-0.341898	-0.000049
H104	H	0.783258	0.158102	0.499951
H105	H	0.375858	-0.650249	-0.000021
H106	H	0.875858	-0.150249	0.499979
H107	H	0.292320	-0.795336	-0.000029
H108	H	0.792320	-0.295336	0.499971
