data_functionalizedCrystal
_audit_creation_method	'MofGen! by Chris Wilmer'
_symmetry_space_group_name_H-M	'P1'
_symmetry_Int_Tables_number	1
_symmetry_cell_setting	triclinic
loop_
_symmetry_equiv_pos_as_xyz
  x,y,z
_cell_length_a	14.628931
_cell_length_b	12.970454
_cell_length_c	12.970454
_cell_angle_alpha	59.999776
_cell_angle_beta	89.999635
_cell_angle_gamma	60.000026
loop_
_atom_site_label
_atom_site_type_symbol
_atom_site_fract_x
_atom_site_fract_y
_atom_site_fract_z
Zr1	Zr	0.880619	1.128520	-0.135307
O2	O	0.734659	1.343610	-0.299932
O3	O	0.925363	0.913430	-0.084840
O4	O	0.925365	1.128519	-0.299931
O5	O	0.734657	1.128521	0.084826
O6	O	1.075796	1.128519	-0.299931
O7	O	0.734658	1.128520	-0.084841
O8	O	1.075794	0.743763	0.084827
O9	O	0.734659	1.513278	-0.299932
O10	O	1.056712	1.001900	-0.063318
O11	O	0.944445	1.001900	0.063303
O12	O	0.944447	1.255141	-0.189939
O13	O	0.832181	1.255141	-0.063318
Zr14	Zr	1.120539	1.128522	0.135291
Zr15	Zr	1.120540	1.128520	-0.135308
Zr16	Zr	0.880617	1.128522	0.135291
Zr17	Zr	0.880619	1.399120	-0.135308
Zr18	Zr	1.120539	0.857922	0.135292
O19	O	1.075794	1.343612	0.084824
O20	O	1.075797	1.343610	-0.299932
O21	O	0.734657	1.343612	0.084825
O22	O	1.266498	0.913432	0.299915
O23	O	1.266501	0.913430	-0.084841
O24	O	0.925361	0.913432	0.299916
O25	O	1.266501	1.128520	-0.084842
O26	O	1.075793	1.128523	0.299915
O27	O	0.925361	1.128523	0.299915
O28	O	1.266500	1.128521	0.084825
O29	O	0.925365	1.513278	-0.299933
O30	O	1.075793	0.743764	0.299917
O31	O	1.266498	0.743764	0.299916
O32	O	1.266500	0.743763	0.084827
O33	O	0.734658	1.513279	-0.084843
O34	O	0.925363	1.513279	-0.084843
O35	O	1.056710	1.001901	0.189923
O36	O	1.168977	1.001900	0.063302
O37	O	1.056712	1.255141	-0.063319
O38	O	0.944445	1.255142	0.063302
C39	C	1.000579	0.790042	-0.000006
C40	C	1.000579	0.675165	-0.000006
C41	C	0.700473	1.128521	-0.000007
C42	C	0.598620	1.128521	-0.000007
C43	C	0.553212	1.128520	-0.088837
C44	C	0.447941	1.128520	-0.088839
C45	C	1.300684	1.128521	-0.000009
C46	C	1.402537	1.128521	-0.000009
C47	C	1.000581	1.128519	-0.338486
C48	C	1.000581	1.128519	-0.453362
C49	C	1.000579	1.467000	-0.000010
C50	C	1.000579	1.581877	-0.000010
C51	C	1.000577	1.128523	0.338469
C52	C	1.000576	1.128523	0.453346
C53	C	1.300684	0.790042	-0.000007
C54	C	1.402537	0.675165	-0.000007
C55	C	1.000577	0.790043	0.338471
C56	C	1.000576	0.675167	0.453348
C57	C	1.300682	0.790043	0.338470
C58	C	1.402534	0.675167	0.453347
C59	C	0.700476	1.466998	-0.338487
C60	C	0.598623	1.581875	-0.453363
C61	C	0.700473	1.467000	-0.000009
C62	C	0.598621	1.581877	-0.000009
C63	C	1.000581	1.466998	-0.338487
C64	C	1.000582	1.581875	-0.453364
C65	C	1.450368	0.527732	0.093470
C66	C	1.546060	0.419778	0.093474
C67	C	1.593924	0.459260	0.000006
C68	C	1.546083	0.606707	-0.093479
C69	C	1.450389	0.714658	-0.093488
C70	C	1.450373	0.527735	0.507294
C71	C	1.546084	0.419780	0.615220
C72	C	1.593951	0.459260	0.669203
C73	C	1.546108	0.606707	0.615247
C74	C	1.450402	0.714659	0.507317
C75	C	0.550793	1.729307	-0.507320
C76	C	0.455102	1.837261	-0.615270
C77	C	0.407240	1.797781	-0.669257
C78	C	0.455079	1.650334	-0.615295
C79	C	0.550772	1.542382	-0.507352
C80	C	0.550788	1.542350	0.093475
C81	C	0.455095	1.650274	0.093500
C82	C	0.407233	1.797724	0.000035
C83	C	0.455075	1.837251	-0.093454
C84	C	0.550770	1.729328	-0.093473
H85	H	0.592272	1.128512	-0.164883
H86	H	0.589704	1.422337	-0.463423
H87	H	0.408888	1.128528	-0.164894
C88	C	0.435607	1.253192	0.045956
C89	C	0.545902	1.128527	0.102662
H90	H	0.403067	1.253198	0.109345
H91	H	0.393487	1.253177	-0.009759
H92	H	0.435470	1.337748	-0.000157
H93	H	0.546038	1.043970	0.148768
H94	H	0.588033	1.128529	0.158400
H95	H	0.441577	1.128529	0.076042
H96	H	0.589741	1.422295	0.169585
C97	C	1.459988	0.332102	0.518133
C98	C	1.397768	0.484312	0.447974
H99	H	1.427519	0.305290	0.481509
H100	H	1.459834	0.293887	0.602514
H101	H	1.534805	0.293906	0.517936
H102	H	1.322953	0.522508	0.448179
H103	H	1.397910	0.522543	0.363571
C104	C	0.603091	1.716446	-0.264294
C105	C	0.603341	1.772784	-0.196244
H106	H	0.635551	1.743275	-0.327737
H107	H	0.528273	1.754665	-0.302671
H108	H	0.645299	1.613184	-0.208624
H109	H	0.561126	1.876046	-0.251914
H110	H	0.678172	1.734571	-0.157866
H111	H	1.411411	0.495558	0.169586
C112	C	1.365700	0.907181	0.536488
C113	C	1.397811	0.876720	0.448036
H114	H	1.333230	1.007233	0.499890
H115	H	1.429549	0.848534	0.608477
H116	H	1.312526	0.886455	0.561069
H117	H	1.450992	0.897435	0.423462
H118	H	1.333953	0.935386	0.376025
C119	C	0.480824	2.029885	-0.190477
C120	C	0.402450	1.999336	-0.196188
H121	H	0.448326	2.129954	-0.253898
H122	H	0.544649	1.971293	-0.203885
H123	H	0.502635	2.009147	-0.109777
H124	H	0.380645	2.020064	-0.276885
H125	H	0.338605	2.057947	-0.182789
C126	C	1.675785	0.355488	0.886166
C127	C	1.699146	0.340588	0.787850
H128	H	1.740728	0.282224	0.959412
H129	H	1.616645	0.345394	0.904013
H130	H	1.654154	0.448946	0.861754
H131	H	1.720769	0.247133	0.812259
H132	H	1.758304	0.350669	0.770003
H133	H	1.585000	0.299728	0.169605
C134	C	0.697490	1.646858	-0.341849
C135	C	0.603394	1.772728	-0.447995
H136	H	0.729956	1.673676	-0.305230
H137	H	0.750657	1.590763	-0.366438
H138	H	0.675666	1.590781	-0.281882
H139	H	0.625220	1.828799	-0.507966
H140	H	0.550218	1.828846	-0.423408
H141	H	0.329312	1.885587	0.000064
H142	H	0.416154	1.618062	0.169631
C143	C	1.303724	0.963155	-0.176522
C144	C	1.397826	0.876719	-0.196235
H145	H	1.271276	1.063203	-0.239963
H146	H	1.325529	0.942437	-0.095840
H147	H	1.250538	0.942458	-0.180415
H148	H	1.451016	0.897409	-0.192333
H149	H	1.376023	0.897446	-0.276938
C150	C	0.464734	2.011167	-0.604354
C151	C	0.402521	1.999327	-0.674558
H152	H	0.432268	2.111217	-0.640949
H153	H	0.539547	1.965179	-0.604533
H154	H	0.464563	1.965152	-0.519970
H155	H	0.402699	2.045333	-0.758940
H156	H	0.327688	2.045334	-0.674392
H157	H	1.671842	0.371345	0.000025
C158	C	0.325409	1.901565	-0.886228
C159	C	0.302049	1.916459	-0.787909
H160	H	0.260469	1.974843	-0.959479
H161	H	0.347028	1.808125	-0.861829
H162	H	0.384562	1.911650	-0.904068
H163	H	0.242902	1.906363	-0.770063
H164	H	0.280415	2.009921	-0.812312
C165	C	1.708935	0.189921	0.674239
C166	C	1.598652	0.257714	0.674525
H167	H	1.741380	0.089874	0.710845
H168	H	1.751142	0.197972	0.721833
H169	H	1.709072	0.235929	0.589840
H170	H	1.598516	0.211713	0.758925
H171	H	1.556434	0.249654	0.626932
H172	H	1.585068	0.638834	-0.169578
H173	H	1.585096	0.638833	0.659216
H174	H	0.416094	1.618208	-0.659267
