data_functionalizedCrystal
_audit_creation_method	'MofGen! by Chris Wilmer'
_symmetry_space_group_name_H-M	'P1'
_symmetry_Int_Tables_number	1
_symmetry_cell_setting	triclinic
loop_
_symmetry_equiv_pos_as_xyz
  x,y,z
_cell_length_a	10.723024
_cell_length_b	6.394989
_cell_length_c	9.798715
_cell_angle_alpha	90.000171
_cell_angle_beta	89.996609
_cell_angle_gamma	94.517210
loop_
_atom_site_label
_atom_site_type_symbol
_atom_site_fract_x
_atom_site_fract_y
_atom_site_fract_z
O1	O	1.660297	-0.293022	-0.113473
O2	O	1.297442	-0.321070	-0.113476
O3	O	1.484020	-0.003055	-0.113475
O4	O	1.473719	-0.611036	-0.113474
O5	O	1.484006	-0.003054	0.113507
O6	O	1.297428	-0.321069	0.113506
O7	O	1.660283	-0.293021	0.113510
Zn8	Zn	1.478853	-0.307045	0.149546
Zn9	Zn	1.478872	-0.307046	-0.149513
O10	O	1.473705	-0.611035	0.113509
C11	C	1.250914	-0.319028	0.000014
C12	C	1.112295	-0.312921	0.000012
C13	C	0.918524	-0.123225	0.000009
C14	C	1.061795	-0.129533	0.000011
C15	C	1.706811	-0.295062	0.000016
C16	C	1.845430	-0.301169	0.000009
C17	C	1.481977	0.074796	0.000011
C18	C	1.475752	0.311120	0.000009
N19	N	1.478850	-0.307043	0.353646
N20	N	1.478885	-0.307031	-0.353612
C21	C	1.557182	-0.172929	0.421423
C22	C	1.557202	-0.172922	0.578586
H23	H	1.124611	0.022801	0.000003
H24	H	0.875036	0.033789	0.000029
O25	O	1.637153	-0.035644	0.647962
C26	C	1.613267	0.171377	0.613176
H27	H	1.565229	0.171775	0.509403
H28	H	1.705316	0.273256	0.608415
H29	H	1.549943	0.236504	0.693577
O30	O	1.637372	-0.036037	0.352034
C31	C	1.761556	-0.071339	0.386838
H32	H	1.762860	-0.151728	0.490610
H33	H	1.820329	0.084994	0.391608
H34	H	1.801899	-0.175824	0.306441
H35	H	1.049487	-0.465264	0.000007
O36	O	1.399045	-0.444116	0.576723
C37	C	1.468201	-0.573602	0.494086
H38	H	1.564456	-0.491422	0.472798
H39	H	1.416743	-0.605955	0.393560
H40	H	1.479324	-0.728132	0.549074
H41	H	0.888919	-0.458183	0.000018
O42	O	1.398799	-0.443735	0.423366
C43	C	1.319901	-0.330932	0.506006
H44	H	1.366802	-0.167989	0.527258
H45	H	1.301765	-0.417745	0.606549
H46	H	1.227338	-0.315848	0.451040
