data_functionalizedCrystal
_audit_creation_method	'MofGen! by Chris Wilmer'
_symmetry_space_group_name_H-M	'P1'
_symmetry_Int_Tables_number	1
_symmetry_cell_setting	triclinic
loop_
_symmetry_equiv_pos_as_xyz
  x,y,z
_cell_length_a	14.044220
_cell_length_b	14.044190
_cell_length_c	13.596369
_cell_angle_alpha	89.989293
_cell_angle_beta	89.999747
_cell_angle_gamma	93.190328
loop_
_atom_site_label
_atom_site_type_symbol
_atom_site_fract_x
_atom_site_fract_y
_atom_site_fract_z
O1	O	1.277175	0.230170	-0.081707
O2	O	1.777175	0.730170	0.418293
O3	O	1.000503	0.221864	-0.081731
O4	O	1.500503	0.721864	0.418269
O5	O	1.134683	0.087681	-0.081700
O6	O	1.634683	0.587681	0.418300
O7	O	1.142995	0.364353	-0.081738
O8	O	1.642995	0.864353	0.418262
O9	O	1.134667	0.087672	0.081883
O10	O	1.634667	0.587672	0.581883
O11	O	1.000488	0.221855	0.081852
O12	O	1.500488	0.721855	0.581852
O13	O	1.277160	0.230161	0.081876
O14	O	1.777160	0.730161	0.581876
Zn15	Zn	1.138821	0.226007	0.107836
Zn16	Zn	1.638821	0.726007	0.607836
Zn17	Zn	1.138841	0.226019	-0.107691
Zn18	Zn	1.638841	0.726019	0.392309
O19	O	1.142980	0.364344	0.081845
O20	O	1.642980	0.864344	0.581845
C21	C	0.964874	0.218224	0.000058
C22	C	1.464874	0.718224	0.500058
C23	C	0.858731	0.207380	0.000049
C24	C	1.358731	0.707380	0.500049
C25	C	1.131039	0.052054	0.000094
C26	C	1.631039	0.552054	0.500094
C27	C	1.120191	-0.054089	0.000102
C28	C	1.620191	0.445911	0.500102
C29	C	1.177292	-0.299547	0.000068
C30	C	1.677292	0.200453	0.500068
C31	C	1.100375	-0.248422	0.000068
C32	C	1.600375	0.251578	0.500068
C33	C	1.111404	-0.140285	0.000087
C34	C	1.611404	0.359715	0.500087
C35	C	1.166265	-0.407694	0.000050
C36	C	1.666265	0.092306	0.500050
C37	C	0.664392	0.187553	0.000072
C38	C	1.164392	0.687553	0.500072
C39	C	0.613264	0.264468	0.000065
C40	C	1.113264	0.764468	0.500065
C41	C	0.505128	0.253436	0.000077
C42	C	1.005128	0.753436	0.500077
C43	C	0.772539	0.198583	0.000059
C44	C	1.272539	0.698583	0.500059
C45	C	1.312789	0.233801	0.000085
C46	C	1.812789	0.733801	0.500085
C47	C	1.418932	0.244646	0.000087
C48	C	1.918932	0.744646	0.500087
C49	C	1.146624	0.399971	0.000049
C50	C	1.646624	0.899971	0.500049
C51	C	1.157472	0.506114	0.000035
C52	C	1.657472	1.006114	0.500035
N53	N	1.138815	0.225999	0.254928
N54	N	1.638815	0.725999	0.754928
N55	N	1.138855	0.226020	-0.254783
N56	N	1.638855	0.726020	0.245217
C57	C	1.138840	0.226019	0.656219
C58	C	1.638840	0.726019	1.156219
C59	C	1.138831	0.226017	0.544568
C60	C	1.638831	0.726017	1.044568
C61	C	1.138828	0.226010	0.455577
C62	C	1.638828	0.726010	0.955577
C63	C	1.138817	0.226006	0.343919
C64	C	1.638817	0.726006	0.843919
H65	H	1.026243	-0.285865	0.000056
H66	H	1.526243	0.214135	0.500056
O67	O	1.265747	-0.254928	-0.000084
O68	O	1.765747	0.245072	0.499916
C69	C	1.415904	-0.231050	-0.084769
C70	C	1.915904	0.268950	0.415231
C71	C	1.315753	-0.281640	-0.084734
C72	C	1.815753	0.218360	0.415266
H73	H	1.456370	-0.252642	-0.153190
H74	H	1.956370	0.247358	0.346810
H75	H	1.409207	-0.150523	-0.084819
H76	H	1.909207	0.349477	0.415181
H77	H	1.456304	-0.252582	-0.016275
H78	H	1.956304	0.247418	0.483725
H79	H	1.275297	-0.260185	-0.153216
H80	H	1.775297	0.239815	0.346784
H81	H	1.322518	-0.362156	-0.084633
H82	H	1.822518	0.137844	0.415367
H83	H	0.650706	0.338602	0.000050
H84	H	1.150706	0.838602	0.500050
O85	O	0.619583	0.099186	0.000038
O86	O	1.119583	0.599186	0.500038
C87	C	0.469371	0.007489	0.000111
C88	C	0.969371	0.507489	0.500111
C89	C	0.520010	0.107618	0.000131
C90	C	1.020010	0.607618	0.500131
H91	H	0.388858	0.014272	0.000206
H92	H	0.888858	0.514272	0.500206
H93	H	0.490821	-0.032972	-0.068365
H94	H	0.990821	0.467028	0.431635
H95	H	0.490956	-0.032966	0.068554
H96	H	0.990956	0.467034	0.568554
H97	H	0.498451	0.148152	-0.068266
H98	H	0.998451	0.648152	0.431734
H99	H	0.498559	0.148006	0.068651
H100	H	0.998559	0.648006	0.568651
