data_functionalizedCrystal
_audit_creation_method	'MofGen! by Chris Wilmer'
_symmetry_space_group_name_H-M	'P1'
_symmetry_Int_Tables_number	1
_symmetry_cell_setting	triclinic
loop_
_symmetry_equiv_pos_as_xyz
  x,y,z
_cell_length_a	20.875641
_cell_length_b	15.698487
_cell_length_c	20.875641
_cell_angle_alpha	90.001162
_cell_angle_beta	60.089808
_cell_angle_gamma	62.440568
loop_
_atom_site_label
_atom_site_type_symbol
_atom_site_fract_x
_atom_site_fract_y
_atom_site_fract_z
Zr1	Zr	0.694362	0.859605	-0.105781
O2	O	0.820600	0.734772	-0.209043
O3	O	0.563107	0.893202	-0.070850
O4	O	0.687131	0.905747	-0.204322
O5	O	0.704030	0.717645	0.025988
O6	O	0.687133	1.045928	-0.204324
O7	O	0.696576	0.722227	-0.075571
O8	O	0.465278	1.023488	0.034434
O9	O	0.925885	0.740085	-0.212769
O10	O	0.618954	1.017790	-0.059911
O11	O	0.624514	0.909754	0.015883
O12	O	0.770536	0.924524	-0.141263
O13	O	0.776097	0.816489	-0.065469
Zr14	Zr	0.706253	1.075869	0.056192
Zr15	Zr	0.694366	1.083178	-0.105783
Zr16	Zr	0.706249	0.852296	0.056195
Zr17	Zr	0.862280	0.868079	-0.111723
Zr18	Zr	0.538335	1.067396	0.062135
O19	O	0.837508	1.042272	0.021261
O20	O	0.820605	1.052664	-0.209047
O21	O	0.837502	0.724380	0.021265
O22	O	0.580015	1.200703	0.159455
O23	O	0.563113	1.211094	-0.070853
O24	O	0.580009	0.882811	0.159458
O25	O	0.696585	1.217830	-0.075577
O26	O	0.713484	1.029727	0.154733
O27	O	0.713482	0.889546	0.154735
O28	O	0.704038	1.213247	0.025982
O29	O	0.925888	0.917796	-0.212772
O30	O	0.474726	1.017679	0.163183
O31	O	0.474730	1.195390	0.163181
O32	O	0.465281	1.201199	0.034432
O33	O	0.935334	0.734276	-0.084021
O34	O	0.935337	0.911986	-0.084023
O35	O	0.630079	1.010950	0.091674
O36	O	0.624518	1.118986	0.015881
O37	O	0.776100	1.025720	-0.065472
O38	O	0.781661	0.917684	0.010322
C39	C	0.490268	0.957138	-0.017361
C40	C	0.418982	0.953541	-0.014838
C41	C	0.382590	1.008241	-0.053217
C42	C	0.315605	1.004863	-0.050839
C43	C	0.285019	0.946779	-0.010087
C44	C	0.321414	0.892076	0.028296
C45	C	0.388393	0.895460	0.025923
C46	C	0.085007	0.930616	0.001259
C47	C	0.018025	0.927233	0.003628
C48	C	0.012219	1.040022	-0.075506
C49	C	0.079203	1.043396	-0.077880
C50	C	0.115590	0.988698	-0.039494
N51	N	0.216552	0.943322	-0.007657
N52	N	0.184052	0.992161	-0.041919
C53	C	0.700303	0.688081	-0.024791
C54	C	0.700301	0.593169	-0.024790
C55	C	0.700316	0.419385	-0.024798
C56	C	0.700311	0.516088	-0.024795
C57	C	0.910347	0.978337	-0.032228
C58	C	0.981632	0.981934	-0.034751
C59	C	0.685438	0.976879	-0.227401
C60	C	0.680392	0.979982	-0.296163
C61	C	0.700312	1.247393	-0.024798
C62	C	0.700314	1.342306	-0.024799
C63	C	0.757143	0.932757	-0.370933
C64	C	0.752396	0.935686	-0.435541
C65	C	0.670897	0.985833	-0.425376
C66	C	0.594140	1.033063	-0.350598
C67	C	0.598888	1.030141	-0.285993
C68	C	0.648213	0.999801	-0.614042
C69	C	0.643471	1.002717	-0.678655
C70	C	0.801729	0.905340	-0.763594
C71	C	0.806469	0.902417	-0.698983
C72	C	0.729712	0.949652	-0.624211
N73	N	0.666043	0.988825	-0.491414
N74	N	0.734567	0.946666	-0.558175
C75	C	0.715176	0.958595	0.177812
C76	C	0.720223	0.955493	0.246575
C77	C	0.490273	1.236794	-0.017364
C78	C	0.418989	1.328109	-0.014843
C79	C	0.505137	0.947996	0.185245
C80	C	0.438898	0.941296	0.256531
C81	C	0.505142	1.227652	0.185242
C82	C	0.438904	1.315864	0.256526
C83	C	0.895473	0.707823	-0.234831
C84	C	0.961710	0.619610	-0.306115
C85	C	0.910342	0.698681	-0.032224
C86	C	0.981626	0.607365	-0.034746
C87	C	0.895478	0.987478	-0.234834
C88	C	0.961717	0.994178	-0.306120
C89	C	0.382608	1.318169	-0.053227
C90	C	0.315638	1.403962	-0.050874
C91	C	0.285045	1.499694	-0.010130
C92	C	0.321432	1.509632	0.028256
C93	C	0.388405	1.423840	0.025897
C94	C	0.410696	0.990973	0.329576
C95	C	0.348467	0.984673	0.396562
C96	C	0.314437	0.928703	0.390502
C97	C	0.342644	0.879021	0.317448
C98	C	0.404877	0.885314	0.250464
C99	C	0.404896	1.413693	0.250439
C100	C	0.342668	1.496587	0.317411
C101	C	0.314444	1.481651	0.390471
C102	C	0.348459	1.383812	0.396557
C103	C	0.410691	1.300920	0.329585
C104	C	0.995727	0.521782	-0.300028
C105	C	1.057976	0.438889	-0.367001
C106	C	1.086203	0.453825	-0.440061
C107	C	1.052184	0.551663	-0.446147
C108	C	0.989940	0.634555	-0.379174
C109	C	1.018013	0.617306	0.003632
C110	C	1.085001	0.531515	0.001259
C111	C	1.115596	0.435783	-0.039487
C112	C	1.079206	0.425845	-0.077869
C113	C	1.012224	0.511635	-0.075501
C114	C	0.995728	1.050157	-0.300034
C115	C	1.057958	1.056472	-0.367008
C116	C	1.086181	1.006802	-0.440067
C117	C	1.052163	0.950821	-0.446151
C118	C	0.989929	0.944513	-0.379177
H119	H	0.104105	1.090694	-0.111064
H120	H	1.075174	0.563813	-0.505640
F121	F	1.152448	0.365594	-0.511334
F122	F	0.427113	1.434435	0.066759
F123	F	0.434926	1.429612	0.172689
F124	F	0.248210	1.569882	0.461743
F125	F	1.094168	0.334771	-0.360508
H126	H	1.085650	1.102055	-0.362039
F127	F	0.123722	0.872404	0.042117
F128	F	0.973500	0.501039	-0.116346
H129	H	0.527782	1.073900	-0.342326
H130	H	0.438398	1.036549	0.334526
H131	H	0.972748	0.509601	-0.240545
H132	H	0.325508	1.025136	0.456039
F133	F	0.517198	1.080413	-0.206414
F134	F	0.415157	1.216292	-0.096597
F135	F	0.953738	0.738669	-0.385665
F136	F	0.276921	1.393363	-0.091728
F137	F	1.111775	0.323951	-0.121230
F138	F	0.985466	0.719184	0.047000
F139	F	1.123716	0.542114	0.042116
F140	F	0.965703	1.103029	-0.222285
H141	H	0.418026	0.850914	0.057172
F142	F	1.186885	0.344485	-0.042000
H143	H	1.136856	1.011946	-0.494594
H144	H	0.314979	1.576245	0.312442
H145	H	-0.006874	0.879929	0.036813
F146	F	0.213763	1.590993	-0.007625
F147	F	0.843887	0.879380	-0.381761
H148	H	0.962244	0.898924	-0.384144
H149	H	0.407492	1.055535	-0.086405
F150	F	0.276889	1.063066	-0.091701
H151	H	1.075151	0.910382	-0.505644
F152	F	0.306417	0.819457	0.311010
F153	F	-0.026512	1.098234	-0.116355
H154	H	0.296502	0.844788	0.061482
F155	F	0.893212	0.849005	-0.709809
F156	F	0.834086	0.885421	-0.515116
H157	H	0.296513	1.587588	0.061428
F158	F	0.248203	0.922015	0.461800
F159	F	0.318413	1.367931	0.474319
F160	F	0.434880	0.832443	0.172725
H161	H	0.864220	0.866885	-0.824478
F162	F	0.556725	1.056094	-0.667831
H163	H	0.438373	1.221266	0.334553
F164	F	0.566521	1.050038	-0.534472
