data_functionalizedCrystal
_audit_creation_method	'MofGen! by Chris Wilmer'
_symmetry_space_group_name_H-M	'P1'
_symmetry_Int_Tables_number	1
_symmetry_cell_setting	triclinic
loop_
_symmetry_equiv_pos_as_xyz
  x,y,z
_cell_length_a	12.759395
_cell_length_b	12.594516
_cell_length_c	12.759395
_cell_angle_alpha	90.006508
_cell_angle_beta	90.003667
_cell_angle_gamma	90.017589
loop_
_atom_site_label
_atom_site_type_symbol
_atom_site_fract_x
_atom_site_fract_y
_atom_site_fract_z
Zn1	Zn	1.606084	-0.423873	0.594021
Zn2	Zn	1.606022	-0.601822	0.418349
Zn3	Zn	1.430434	-0.423863	0.418358
Zn4	Zn	1.430371	-0.601815	0.593988
O5	O	1.518228	-0.512843	0.506179
O6	O	1.753097	-0.447486	0.570728
O7	O	1.582731	-0.578214	0.271329
O8	O	1.453787	-0.274919	0.441678
O9	O	1.753052	-0.578224	0.441663
O10	O	1.582836	-0.274926	0.570737
O11	O	1.453727	-0.447469	0.271336
O12	O	1.283404	-0.447461	0.441646
O13	O	1.453679	-0.578212	0.741014
O14	O	1.283358	-0.578202	0.570680
O15	O	1.582775	-0.447479	0.741038
O16	O	1.582669	-0.750767	0.441630
O17	O	1.453619	-0.750762	0.570671
C18	C	1.245260	-0.512830	0.506161
C19	C	1.128484	-0.512851	0.506178
C20	C	1.128474	-0.649211	0.640324
C21	C	1.073608	-0.717399	0.707401
C22	C	0.963886	-0.717412	0.707413
C23	C	0.909028	-0.649227	0.640345
C24	C	0.963894	-0.581039	0.573269
C25	C	1.073618	-0.581035	0.573261
C26	C	0.963904	-0.444675	0.439130
C27	C	1.073625	-0.444665	0.439110
C28	C	0.909045	-0.376490	0.372062
C29	C	0.963911	-0.308305	0.304979
C30	C	1.073639	-0.308296	0.304968
C31	C	1.128491	-0.376477	0.372034
C32	C	1.518159	-0.789384	0.506169
C33	C	1.518226	-0.907690	0.506200
C34	C	1.448028	-0.976979	0.576336
C35	C	1.422455	-1.047811	0.480469
C36	C	1.543894	-1.047656	0.602083
C37	C	1.492602	-0.976964	0.410282
C38	C	1.614086	-0.976803	0.531961
C39	C	1.588549	-1.047603	0.436028
C40	C	1.792261	-0.512857	0.506198
C41	C	1.909038	-0.512863	0.506206
C42	C	1.518226	-0.512846	0.780213
C43	C	1.518226	-0.512847	0.896989
C44	C	1.518325	-0.235223	0.506213
C45	C	1.518367	-0.116917	0.506227
C46	C	1.652661	-0.376723	1.116458
C47	C	1.719876	-0.308657	1.061609
C48	C	1.719876	-0.308650	0.951887
C49	C	1.652656	-0.376720	0.897012
C50	C	1.585441	-0.444786	0.951862
C51	C	1.585446	-0.444783	1.061586
C52	C	1.451011	-0.580913	0.951839
C53	C	1.451004	-0.580916	1.061560
C54	C	1.383791	-0.648983	0.896964
C55	C	1.316569	-0.717046	0.951813
C56	C	1.316571	-0.717049	1.061541
C57	C	1.383789	-0.648983	1.116409
C58	C	1.518222	-0.512861	1.233212
C59	C	1.518224	-0.512847	1.116435
H60	H	0.919215	-0.772932	0.762038
H61	H	1.652671	-0.376717	0.807671
Br62	Br	1.225354	-0.809440	1.135970
Br63	Br	1.811106	-0.216288	1.136085
Br64	Br	0.760119	-0.649227	0.640383
Br65	Br	1.148062	-0.809937	0.798412
Br66	Br	1.652643	-0.376704	1.265367
H67	H	1.647973	-1.078419	0.376659
H68	H	1.388558	-0.945966	0.635561
H69	H	1.470854	-0.946041	0.329183
H70	H	1.565548	-1.078708	0.683159
H71	H	0.919237	-0.252789	0.250382
H72	H	1.118304	-0.252761	0.250354
H73	H	0.819704	-0.376500	0.372082
Br74	Br	1.383789	-0.648973	1.265318
H75	H	1.383800	-0.648977	0.807623
H76	H	1.774611	-0.253226	0.907229
Br77	Br	1.287441	-1.099793	0.444156
Br78	Br	1.277400	-0.376477	0.372017
Br79	Br	1.749065	-0.924778	0.568315
Br80	Br	1.225359	-0.809424	0.877337
H81	H	1.217815	-0.649215	0.640313
