data_functionalizedCrystal
_audit_creation_method	'MofGen! by Chris Wilmer'
_symmetry_space_group_name_H-M	'P1'
_symmetry_Int_Tables_number	1
_symmetry_cell_setting	triclinic
loop_
_symmetry_equiv_pos_as_xyz
  x,y,z
_cell_length_a	15.995350
_cell_length_b	15.995300
_cell_length_c	16.776229
_cell_angle_alpha	89.997895
_cell_angle_beta	89.996506
_cell_angle_gamma	83.482091
loop_
_atom_site_label
_atom_site_type_symbol
_atom_site_fract_x
_atom_site_fract_y
_atom_site_fract_z
O1	O	1.110969	0.107931	-0.066213
O2	O	0.867191	0.121259	-0.066228
O3	O	0.995766	-0.007295	-0.066224
O4	O	0.982394	0.236486	-0.066217
O5	O	0.995749	-0.007303	0.066353
O6	O	0.867174	0.121251	0.066349
O7	O	1.110952	0.107923	0.066364
Zn8	Zn	0.989060	0.114586	0.087406
Zn9	Zn	0.989083	0.114596	-0.087270
O10	O	0.982377	0.236478	0.066360
C11	C	0.995212	-0.038495	0.000062
C12	C	0.993577	-0.131448	0.000054
C13	C	0.835988	0.120704	0.000058
C14	C	0.743038	0.119052	0.000052
C15	C	0.990558	-0.301631	0.000061
C16	C	1.082105	-0.349096	0.000065
C17	C	1.080435	-0.445784	0.000369
C18	C	0.987586	-0.469187	0.000068
C19	C	0.942156	-0.428057	0.075623
C20	C	0.944473	-0.331424	0.075684
C21	C	0.943136	-0.331139	-0.075086
C22	C	0.943145	-0.428083	-0.076076
C23	C	0.985901	-0.563883	0.000074
C24	C	0.992239	-0.206935	0.000060
C25	C	0.405292	0.113120	0.000068
C26	C	0.452742	0.021566	0.000361
C27	C	0.549432	0.023218	0.000057
C28	C	0.572852	0.116062	0.000061
C29	C	0.531766	0.161224	-0.075642
C30	C	0.435131	0.158924	-0.075700
C31	C	0.434772	0.160807	0.075064
C32	C	0.531717	0.160785	0.076059
C33	C	0.667549	0.117730	0.000054
C34	C	0.310594	0.111455	0.000070
C35	C	1.142155	0.108478	0.000076
C36	C	1.235105	0.110130	0.000077
C37	C	0.982931	0.267677	0.000073
C38	C	0.984566	0.360630	0.000076
N39	N	0.989051	0.114578	0.206617
N40	N	0.989099	0.114597	-0.206481
C41	C	1.046001	0.057678	0.248336
C42	C	1.046006	0.057677	0.331788
C43	C	0.989064	0.114581	0.373520
C44	C	0.932108	0.171485	0.331795
C45	C	0.932100	0.171481	0.248344
C46	C	0.932138	0.171501	0.668342
C47	C	0.932152	0.171502	0.751799
C48	C	1.046044	0.057697	0.751786
C49	C	1.046036	0.057693	0.668335
C50	C	0.989078	0.114593	0.626618
C51	C	0.989072	0.114592	0.536129
C52	C	0.989073	0.114587	0.464007
H53	H	1.118898	-0.330615	-0.054115
N54	N	0.851788	-0.446738	0.079075
H55	H	0.813172	-0.392212	0.078199
H56	H	0.839474	-0.482149	0.031575
H57	H	0.885780	0.217843	0.785775
H58	H	0.577303	-0.012515	-0.054307
N59	N	0.567892	0.117117	0.150247
H60	H	0.541199	0.146162	0.198929
H61	H	0.556010	0.056441	0.149690
N62	N	0.587107	-0.023815	0.071927
H63	H	0.617187	0.015391	0.106002
H64	H	0.540867	-0.045809	0.104038
H65	H	0.434220	-0.015034	0.054651
H66	H	0.875454	-0.443428	-0.080870
N67	N	0.410888	0.115308	-0.150659
H68	H	0.462952	0.097752	-0.183354
H69	H	0.382946	0.063915	-0.135922
H70	H	0.977198	-0.313107	0.132381
H71	H	0.885740	0.217815	0.365778
H72	H	0.885724	0.217814	0.214378
N73	N	0.983078	-0.303991	-0.150966
H74	H	1.003413	-0.355233	-0.183778
H75	H	0.940233	-0.266252	-0.182500
N76	N	0.987080	-0.464292	-0.150123
H77	H	1.047761	-0.452423	-0.149441
H78	H	0.984638	-0.527091	-0.151593
N79	N	1.127740	-0.483496	-0.071340
H80	H	1.149865	-0.437315	-0.103435
H81	H	1.176352	-0.524851	-0.053008
N82	N	0.853730	-0.289044	-0.076063
H83	H	0.843955	-0.251040	-0.028091
H84	H	0.843921	-0.254622	-0.126356
H85	H	0.433162	-0.014859	-0.053631
H86	H	1.092407	0.011359	0.634360
H87	H	0.545879	0.229435	-0.078455
H88	H	0.402871	0.226142	-0.079134
H89	H	1.118366	-0.329431	0.054130
H90	H	1.092374	0.011343	0.214363
N91	N	0.569352	0.119691	-0.150283
H92	H	0.631958	0.123408	-0.151152
H93	H	0.558713	0.058653	-0.150992
H94	H	0.414235	0.130873	0.132445
N95	N	1.127495	-0.482685	0.072534
H96	H	1.149403	-0.436132	0.104274
H97	H	1.088286	-0.512503	0.106845
H98	H	0.547070	0.228490	0.080634
H99	H	0.402998	0.228309	0.075578
N100	N	1.107459	-0.003665	0.376786
H101	H	1.143544	-0.039701	0.337686
H102	H	1.144452	0.028450	0.411386
N103	N	1.107480	-0.003677	0.796781
H104	H	1.098846	0.004955	0.855979
H105	H	1.097825	-0.063085	0.782198
N106	N	0.870701	0.232872	0.623363
H107	H	0.880331	0.292307	0.637881
H108	H	0.879353	0.224169	0.564178
N109	N	0.855431	-0.288670	0.079982
H110	H	0.856241	-0.225624	0.080064
H111	H	0.822641	-0.305535	0.032296
N112	N	0.983417	-0.465619	0.150395
H113	H	1.031527	-0.509268	0.135499
H114	H	1.005529	-0.419738	0.182900
