data_functionalizedCrystal
_audit_creation_method	'MofGen! by Chris Wilmer'
_symmetry_space_group_name_H-M	'P1'
_symmetry_Int_Tables_number	1
_symmetry_cell_setting	triclinic
loop_
_symmetry_equiv_pos_as_xyz
  x,y,z
_cell_length_a	21.295420
_cell_length_b	21.295420
_cell_length_c	16.120484
_cell_angle_alpha	92.894825
_cell_angle_beta	87.078650
_cell_angle_gamma	90.017013
loop_
_atom_site_label
_atom_site_type_symbol
_atom_site_fract_x
_atom_site_fract_y
_atom_site_fract_z
Zn1	Zn	0.949610	0.368639	0.332224
Zn2	Zn	0.944199	0.268704	0.471586
Zn3	Zn	0.844349	0.263383	0.332178
Zn4	Zn	0.838975	0.373936	0.471590
O5	O	0.894283	0.318665	0.401895
O6	O	1.036981	0.355393	0.350728
O7	O	0.930938	0.179908	0.453073
O8	O	0.862825	0.272902	0.215516
O9	O	1.033006	0.281971	0.453117
O10	O	0.940160	0.350233	0.215550
O11	O	0.857579	0.175998	0.350651
O12	O	0.755547	0.278037	0.350654
O13	O	0.853667	0.461323	0.453123
O14	O	0.751600	0.359260	0.453079
O15	O	0.934949	0.457432	0.350731
O16	O	0.925728	0.287106	0.588255
O17	O	0.848421	0.364420	0.588258
C18	C	0.730733	0.318646	0.401863
C19	C	0.660765	0.318654	0.401869
C20	C	0.163370	0.356976	0.348706
C21	C	0.229113	0.356976	0.348700
C22	C	0.259923	0.318681	0.401920
C23	C	0.224985	0.280396	0.455165
C24	C	0.159243	0.280402	0.455176
N25	N	0.362881	0.263801	0.408173
N26	N	0.425333	0.263797	0.408158
C27	C	0.457999	0.318661	0.401892
N28	N	0.425854	0.373531	0.395626
N29	N	0.363396	0.373534	0.395637
C30	C	0.331209	0.318670	0.401915
C31	C	0.564215	0.356947	0.348648
C32	C	0.629959	0.356948	0.348648
C33	C	0.625830	0.280362	0.455108
C34	C	0.560087	0.280367	0.455113
C35	C	0.529284	0.318659	0.401879
C36	C	0.894312	0.482857	0.401933
C37	C	0.894325	0.552826	0.401949
C38	C	0.936642	0.583668	0.348642
C39	C	0.936633	0.649410	0.348629
C40	C	0.894313	0.684308	0.401936
C41	C	0.851987	0.653458	0.455247
C42	C	0.851993	0.587717	0.455253
N43	N	0.886653	0.790319	0.474904
N44	N	0.886651	0.852770	0.474896
C45	C	0.894291	0.882382	0.401919
N46	N	0.901945	0.847184	0.328950
N47	N	0.901950	0.784727	0.328959
C48	C	0.894301	0.755593	0.401935
C49	C	0.936601	0.984509	0.348593
C50	C	0.936588	1.050252	0.348578
C51	C	0.851945	1.054299	0.455203
C52	C	0.851955	0.988557	0.455211
C53	C	0.894287	0.953666	0.401907
C54	C	1.058472	0.318685	0.401927
C55	C	1.128440	0.318693	0.401941
C56	C	0.885921	0.326929	0.618507
C57	C	0.882402	0.330485	0.711175
C58	C	0.894256	1.155113	0.401882
C59	C	0.894266	1.085145	0.401885
C60	C	0.902695	0.310383	0.184436
C61	C	0.906280	0.306854	0.091769
C62	C	0.875979	0.336991	0.880840
C63	C	0.912700	0.300350	0.922109
C64	C	0.909127	0.303970	1.016516
C65	C	0.879552	0.333372	0.786424
H66	H	0.138294	0.388159	0.305362
O67	O	0.830778	0.382134	0.927957
H68	H	0.842157	0.430926	0.911288
O69	O	0.266800	0.398261	0.291273
H70	H	0.234336	0.424884	0.254253
H71	H	0.971092	0.674526	0.305215
O72	O	0.806340	0.554457	0.512750
H73	H	0.832866	0.526136	0.555182
H74	H	0.971047	1.075362	0.305164
H75	H	0.130803	0.249227	0.498528
H76	H	0.817481	1.082712	0.498599
H77	H	0.250075	0.249218	0.498499
H78	H	0.539134	0.388126	0.305301
O79	O	0.667639	0.398236	0.291221
H80	H	0.635172	0.424855	0.254201
O81	O	0.659050	0.239055	0.512510
H82	H	0.710634	0.245478	0.503557
O83	O	0.957899	0.255195	0.874998
H84	H	0.946516	0.206409	0.891688
O85	O	0.522406	0.239065	0.512517
H86	H	0.554873	0.212430	0.549518
H87	H	0.817528	0.681876	0.498648
O88	O	0.982295	0.546033	0.291150
H89	H	1.011717	0.578529	0.254076
H90	H	0.971066	0.956098	0.305185
O91	O	0.806297	0.955284	0.512684
H92	H	0.776862	0.990593	0.549745
