data_functionalizedCrystal
_audit_creation_method	'MofGen! by Chris Wilmer'
_symmetry_space_group_name_H-M	'P1'
_symmetry_Int_Tables_number	1
_symmetry_cell_setting	triclinic
loop_
_symmetry_equiv_pos_as_xyz
  x,y,z
_cell_length_a	10.723024
_cell_length_b	15.995350
_cell_length_c	9.798715
_cell_angle_alpha	90.001165
_cell_angle_beta	90.003403
_cell_angle_gamma	83.980122
loop_
_atom_site_label
_atom_site_type_symbol
_atom_site_fract_x
_atom_site_fract_y
_atom_site_fract_z
O1	O	1.655689	0.117435	0.113475
O2	O	1.292393	0.128676	0.113479
O3	O	1.483972	0.001225	0.113475
O4	O	1.464110	0.244886	0.113478
O5	O	1.483958	0.001224	-0.113507
O6	O	1.292379	0.128675	-0.113503
O7	O	1.655675	0.117434	-0.113507
Zn8	Zn	1.474025	0.123054	-0.149544
Zn9	Zn	1.474043	0.123056	0.149515
O10	O	1.464096	0.244885	-0.113504
C11	C	1.245897	0.127857	-0.000012
C12	C	1.107374	0.125410	-0.000010
C13	C	0.916587	0.049385	-0.000008
C14	C	1.059758	0.051913	-0.000010
C15	C	1.483144	-0.029975	-0.000013
C16	C	1.480682	-0.122940	-0.000005
C17	C	1.471842	-0.460738	-0.000010
C18	C	1.335403	-0.414088	0.000501
C19	C	1.337865	-0.317383	-0.000011
C20	C	1.476227	-0.293152	-0.000007
C21	C	1.543515	-0.333844	-0.129623
C22	C	1.540088	-0.430499	-0.129732
C23	C	1.542922	-0.430840	0.128390
C24	C	1.542890	-0.333895	0.130103
C25	C	1.478712	-0.198441	-0.000010
C26	C	1.469360	-0.555450	-0.000016
C27	C	1.702171	0.118252	-0.000014
C28	C	1.840694	0.120700	-0.000007
C29	C	1.464924	0.276085	-0.000013
C30	C	1.467386	0.369049	-0.000011
N31	N	1.474021	0.123053	-0.353643
C32	C	1.546167	0.171605	-0.421421
C33	C	1.546187	0.171604	-0.578584
N34	N	1.474057	0.123050	0.353615
H35	H	0.881714	0.183627	-0.000014
H36	H	1.640259	-0.462172	-0.135610
Cl37	Cl	1.160433	-0.042351	-0.000002
H38	H	1.284971	-0.289265	0.092903
H39	H	1.412281	0.081485	-0.588107
H40	H	1.284604	-0.289825	-0.093082
H41	H	1.607924	0.213168	-0.363097
H42	H	1.042170	0.186464	-0.000003
H43	H	1.280875	-0.432932	0.093451
H44	H	1.607946	0.213175	-0.636872
H45	H	0.875567	-0.013542	-0.000029
Cl46	Cl	1.251338	-0.445179	-0.141784
Cl47	Cl	1.464307	-0.459194	-0.279321
Cl48	Cl	1.700457	-0.311135	-0.137069
H49	H	1.496768	-0.305731	-0.226082
H50	H	1.498320	-0.451636	0.226631
Cl51	Cl	1.467558	-0.291768	0.278169
H52	H	1.643790	-0.317953	0.137932
Cl53	Cl	1.698232	-0.478985	0.129744
H54	H	1.412273	0.081483	-0.411968
