data_functionalizedCrystal
_audit_creation_method	'MofGen! by Chris Wilmer'
_symmetry_space_group_name_H-M	'P1'
_symmetry_Int_Tables_number	1
_symmetry_cell_setting	triclinic
loop_
_symmetry_equiv_pos_as_xyz
  x,y,z
_cell_length_a	23.096457
_cell_length_b	23.096457
_cell_length_c	20.875641
_cell_angle_alpha	62.440863
_cell_angle_beta	89.999562
_cell_angle_gamma	59.999106
loop_
_atom_site_label
_atom_site_type_symbol
_atom_site_fract_x
_atom_site_fract_y
_atom_site_fract_z
Zr1	Zr	0.560479	0.628345	-0.081200
O2	O	0.471302	0.742591	-0.179993
O3	O	0.587815	0.509563	-0.050916
O4	O	0.592091	0.621800	-0.179998
O5	O	0.463656	0.637099	0.050911
O6	O	0.687373	0.621798	-0.180000
O7	O	0.467027	0.630354	-0.050912
O8	O	0.679725	0.421027	0.050903
O9	O	0.471304	0.837870	-0.179991
O10	O	0.670584	0.560099	-0.038001
O11	O	0.596961	0.565134	0.037990
O12	O	0.601995	0.697278	-0.113986
O13	O	0.528371	0.702314	-0.037995
Zr14	Zr	0.707069	0.639099	0.081192
Zr15	Zr	0.712444	0.628342	-0.081204
Zr16	Zr	0.555104	0.639103	0.081196
Zr17	Zr	0.560483	0.780305	-0.081198
Zr18	Zr	0.707065	0.487140	0.081190
O19	O	0.679733	0.757881	0.050909
O20	O	0.687376	0.742585	-0.179998
O21	O	0.463659	0.757887	0.050913
O22	O	0.796246	0.524854	0.179985
O23	O	0.803889	0.509558	-0.050921
O24	O	0.580172	0.524860	0.179990
O25	O	0.803892	0.630346	-0.050919
O26	O	0.675458	0.645645	0.179990
O27	O	0.580175	0.645647	0.179992
O28	O	0.800522	0.637091	0.050904
O29	O	0.592096	0.837867	-0.179994
O30	O	0.675452	0.429578	0.179986
O31	O	0.796244	0.429575	0.179983
O32	O	0.800516	0.421024	0.050900
O33	O	0.467032	0.846421	-0.050908
O34	O	0.587823	0.846418	-0.050911
O35	O	0.665554	0.570166	0.113978
O36	O	0.739177	0.565131	0.037987
O37	O	0.670588	0.702311	-0.037998
O38	O	0.596964	0.707346	0.037993
C39	C	0.633769	0.443644	-0.000007
C40	C	0.633768	0.379133	-0.000008
C41	C	0.583151	-0.032612	-0.056098
C42	C	0.583145	0.028007	-0.056097
C43	C	0.633779	0.009544	-0.000004
C44	C	0.684413	-0.069546	0.056104
C45	C	0.684413	-0.130162	0.056106
N46	N	0.695466	0.066769	0.016978
N47	N	0.695463	0.124355	0.016971
C48	C	0.633780	0.192173	-0.000007
N49	N	0.572098	0.200238	-0.016993
N50	N	0.572101	0.142648	-0.016990
C51	C	0.633784	0.075266	-0.000000
C52	C	0.583140	0.336983	-0.056108
C53	C	0.583134	0.397601	-0.056102
C54	C	0.684407	0.300045	0.056096
C55	C	0.684408	0.239430	0.056093
C56	C	0.633775	0.257904	-0.000013
C57	C	0.443690	0.633727	0.000000
C58	C	0.379177	0.633729	0.000002
C59	C	0.350731	0.630019	-0.056097
C60	C	0.290119	0.630011	-0.056097
C61	C	0.257947	0.633730	-0.000004
C62	C	0.286402	0.637436	0.056105
C63	C	0.347017	0.637436	0.056108
N64	N	0.139034	0.681211	0.016979
N65	N	0.081451	0.681213	0.016972
C66	C	0.075318	0.633730	-0.000007
N67	N	0.128937	0.586255	-0.016994
N68	N	0.186523	0.586257	-0.016990
C69	C	0.192220	0.633731	-0.000000
C70	C	-0.018851	0.630011	-0.056109
C71	C	-0.079462	0.629998	-0.056104
C72	C	-0.083181	0.637432	0.056095
C73	C	-0.022567	0.637436	0.056093
C74	C	0.009593	0.633729	-0.000013
C75	C	0.823858	0.633718	-0.000008
C76	C	0.888371	0.633716	-0.000010
C77	C	0.640498	0.620266	-0.203137
C78	C	0.642779	0.615699	-0.272078
C79	C	0.633779	0.823801	-0.000001
C80	C	0.633780	0.888312	0.000000
C81	C	0.608050	0.685158	-0.344131
C82	C	0.610203	0.680862	-0.408906
C83	C	0.647082	0.607107	-0.401627
C84	C	0.681816	0.537642	-0.329567
C85	C	0.679667	0.541939	-0.264793
C86	C	0.657354	0.586578	-0.591096
C87	C	0.659499	0.582287	-0.655877
C88	C	0.587886	0.725507	-0.735212
C89	C	0.585736	0.729797	-0.670434
C90	C	0.620474	0.660333	-0.598379
N91	N	0.649282	0.602714	-0.467837
N92	N	0.618277	0.664727	-0.532171
C93	C	0.627051	0.647179	0.203129
C94	C	0.624769	0.651746	0.272070
C95	C	0.823854	0.443639	-0.000011
C96	C	0.888365	0.379127	-0.000014
C97	C	0.627046	0.457100	0.203126
C98	C	0.624763	0.397157	0.272066
C99	C	0.817130	0.457096	0.203121
C100	C	0.879360	0.397150	0.272060
C101	C	0.450418	0.810349	-0.203129
C102	C	0.388189	0.870295	-0.272068
C103	C	0.443694	0.823806	0.000003
C104	C	0.379183	0.888318	0.000006
C105	C	0.640502	0.810344	-0.203134
C106	C	0.642786	0.870288	-0.272074
C107	C	0.882856	0.346204	-0.039687
C108	C	0.943466	0.285595	-0.039704
C109	C	1.009584	0.257906	-0.000044
C110	C	1.015092	0.290835	0.039630
C111	C	0.954483	0.351447	0.039643
C112	C	0.659495	0.371634	0.344113
C113	C	0.657346	0.315319	0.408896
C114	C	0.620469	0.284524	0.401630
C115	C	0.585733	0.310053	0.329576
C116	C	0.587877	0.366370	0.264795
C117	C	0.947020	0.366371	0.264768
C118	C	1.005497	0.310053	0.329537
C119	C	0.996313	0.284513	0.401598
C120	C	0.928645	0.315298	0.408889
C121	C	0.870169	0.371619	0.344120
C122	C	0.320528	0.901082	-0.264776
C123	C	0.262051	0.957418	-0.329545
C124	C	0.271236	0.982961	-0.401606
C125	C	0.338903	0.952172	-0.408897
C126	C	0.397379	0.895841	-0.344128
C127	C	0.384693	0.921247	0.039672
C128	C	0.324084	0.981871	0.039672
C129	C	0.257965	1.009562	0.000009
C130	C	0.252457	0.976630	-0.039662
C131	C	0.313066	0.916011	-0.039665
C132	C	0.679669	0.901065	-0.264784
C133	C	0.681828	0.957381	-0.329555
C134	C	0.647100	0.982923	-0.401614
C135	C	0.610215	0.952140	-0.408903
C136	C	0.608060	0.895821	-0.344133
H137	H	0.541911	0.352026	-0.101791
F138	F	0.618193	0.224585	0.470584
H139	H	0.555708	0.284971	0.323672
H140	H	0.559596	0.387143	0.206133
F141	F	0.812493	0.375663	-0.081904
H142	H	1.060590	0.284993	0.323588
H143	H	0.707950	0.880278	-0.206115
H144	H	0.452470	0.870774	-0.350074
H145	H	0.541920	-0.017563	-0.101782
F146	F	0.377293	0.641385	0.115818
H147	H	0.438524	0.898706	0.071975
F148	F	0.007707	0.641390	0.115798
H149	H	0.954512	0.387157	0.206099
F150	F	0.694300	0.512648	-0.514418
H151	H	0.541907	0.092403	-0.101772
F152	F	0.721068	0.459146	-0.321821
H153	H	0.198615	0.999186	-0.071954
F154	F	0.716637	0.468011	-0.188107
H155	H	0.711862	0.982440	-0.323606
H156	H	1.043933	0.238653	0.454330
F157	F	0.573252	0.979337	-0.485600
F158	F	0.307191	0.880968	-0.081881
F159	F	0.329960	1.016906	0.081899
F160	F	0.310737	0.873905	-0.188090
H161	H	0.541903	0.461992	-0.101785
H162	H	0.346374	0.972977	-0.467576
H163	H	0.223615	1.028830	-0.454338
H164	H	0.689524	0.396701	0.350043
H165	H	0.815079	0.396672	0.350068
F166	F	0.694322	0.288158	0.485574
H167	H	0.578014	0.745218	-0.350066
H168	H	0.921177	0.294495	0.467569
F169	F	0.193465	1.074079	0.000021
F170	F	0.698753	0.503782	-0.648125
F171	F	0.649397	1.042866	-0.470542
F172	F	0.190040	0.990174	-0.321770
H173	H	0.578023	0.870768	-0.350079
F174	F	1.074084	0.193396	-0.000064
H175	H	1.068934	0.268282	0.071920
F176	F	0.738302	-0.214328	0.115816
H177	H	0.725631	0.285011	0.101771
F178	F	0.738299	-0.089195	0.115804
H179	H	0.376915	0.626998	-0.101780
F180	F	0.738297	0.155266	0.115799
H181	H	0.266954	0.626990	-0.101781
H182	H	0.260206	0.640462	0.101778
H183	H	0.007337	0.626989	-0.101793
H184	H	-0.102620	0.626972	-0.101785
F185	F	0.960357	0.386476	0.081875
F186	F	-0.117414	0.641382	0.115797
H187	H	0.555708	0.789857	-0.676369
F188	F	0.573237	0.754791	-0.485589
H189	H	0.559606	0.782061	-0.793884
F190	F	0.937589	0.250558	-0.081930
