data_functionalizedCrystal
_audit_creation_method	'MofGen! by Chris Wilmer'
_symmetry_space_group_name_H-M	'P1'
_symmetry_Int_Tables_number	1
_symmetry_cell_setting	triclinic
loop_
_symmetry_equiv_pos_as_xyz
  x,y,z
_cell_length_a	11.792254
_cell_length_b	10.868271
_cell_length_c	11.792253
_cell_angle_alpha	89.993028
_cell_angle_beta	84.198598
_cell_angle_gamma	89.994440
loop_
_atom_site_label
_atom_site_type_symbol
_atom_site_fract_x
_atom_site_fract_y
_atom_site_fract_z
O1	O	-1.506908	0.102373	-0.155630
O2	O	-1.176569	0.102370	-0.171648
O3	O	-1.349747	0.102346	0.001530
O4	O	-1.333729	0.102397	-0.328808
O5	O	-1.349732	-0.102298	0.001525
O6	O	-1.176553	-0.102275	-0.171653
O7	O	-1.506892	-0.102271	-0.155635
Zn8	Zn	-1.341720	-0.134765	-0.163645
Zn9	Zn	-1.341741	0.134863	-0.163638
O10	O	-1.333714	-0.102248	-0.328814
C11	C	-1.134271	0.000047	-0.170642
C12	C	-1.008257	0.000044	-0.167621
C13	C	-0.905921	0.000047	-0.165168
C14	C	-0.777534	0.000044	-0.162099
N15	N	-1.341714	-0.318779	-0.163650
C16	C	-1.341723	-0.430116	-0.163650
C17	C	-1.341738	-0.569794	-0.163640
C18	C	-0.549190	0.000049	-0.156642
C19	C	-0.675204	0.000041	-0.159662
C20	C	-1.348730	0.000020	0.043818
C21	C	-1.345710	0.000008	0.169832
N22	N	-1.341756	0.318878	-0.163625
C23	C	-1.343256	0.000002	0.272168
C24	C	-1.340188	0.000000	0.400555
C25	C	-1.334731	0.000056	0.628898
C26	C	-1.337751	-0.000001	0.502885
