data_functionalizedCrystal
_audit_creation_method	'MofGen! by Chris Wilmer'
_symmetry_space_group_name_H-M	'P1'
_symmetry_Int_Tables_number	1
_symmetry_cell_setting	triclinic
loop_
_symmetry_equiv_pos_as_xyz
  x,y,z
_cell_length_a	29.839134
_cell_length_b	29.839126
_cell_length_c	12.759400
_cell_angle_alpha	89.985011
_cell_angle_beta	90.009506
_cell_angle_gamma	89.964260
loop_
_atom_site_label
_atom_site_type_symbol
_atom_site_fract_x
_atom_site_fract_y
_atom_site_fract_z
Zn1	Zn	0.686864	-0.254147	-0.418513
Zn2	Zn	0.686813	-0.179026	-0.594183
Zn3	Zn	0.611729	-0.179017	-0.418503
Zn4	Zn	0.611730	-0.254115	-0.594135
O5	O	0.649284	-0.216576	-0.506333
O6	O	0.749725	-0.244200	-0.441840
O7	O	0.676832	-0.116158	-0.570895
O8	O	0.621717	-0.188992	-0.271483
O9	O	0.749687	-0.189009	-0.570905
O10	O	0.676918	-0.244190	-0.271491
O11	O	0.621668	-0.116151	-0.441823
O12	O	0.548862	-0.188961	-0.441777
O13	O	0.621718	-0.316986	-0.570822
O14	O	0.548863	-0.244135	-0.570812
O15	O	0.676919	-0.317010	-0.441794
O16	O	0.676833	-0.188977	-0.741198
O17	O	0.621669	-0.244144	-0.741162
C18	C	0.532562	-0.216544	-0.506289
C19	C	0.482627	-0.216540	-0.506295
C20	C	0.649324	-0.333754	-0.506303
C21	C	0.649342	-0.383689	-0.506291
C22	C	0.649258	-0.216568	-0.779301
C23	C	0.649287	-0.216580	-0.896077
C24	C	0.172994	-0.245270	-0.573622
C25	C	-0.014679	-0.245290	-0.573651
O26	O	-0.038936	-0.269698	-0.630845
N27	N	-0.038158	-0.216610	-0.506372
C28	C	-0.014715	-0.187925	-0.439076
O29	O	-0.038991	-0.163534	-0.381843
C30	C	0.172957	-0.187907	-0.439041
C31	C	0.196433	-0.216586	-0.506333
C32	C	0.196470	-0.273947	-0.640907
C33	C	0.243385	-0.273940	-0.640903
C34	C	0.266825	-0.245256	-0.573614
C35	C	0.243348	-0.216579	-0.506329
C36	C	0.196399	-0.159225	-0.371741
C37	C	0.243320	-0.159224	-0.371736
C38	C	0.266796	-0.187903	-0.439027
C39	C	0.313703	-0.187888	-0.439036
N40	N	0.337182	-0.216568	-0.506315
C41	C	0.313742	-0.245252	-0.573604
C42	C	-0.113246	-0.187935	-0.439100
C43	C	-0.160164	-0.187939	-0.439109
C44	C	-0.160125	-0.245305	-0.573684
C45	C	-0.113206	-0.245299	-0.573679
C46	C	-0.089767	-0.216615	-0.506379
C47	C	0.412268	-0.245235	-0.573591
C48	C	0.459188	-0.245224	-0.573584
C49	C	0.459145	-0.187860	-0.439006
C50	C	0.412229	-0.187869	-0.439016
C51	C	0.388792	-0.216560	-0.506312
O52	O	0.337989	-0.163497	-0.381863
O53	O	0.338027	-0.269646	-0.630811
C54	C	0.126078	-0.245277	-0.573626
C55	C	0.102602	-0.216600	-0.506341
C56	C	0.126041	-0.187916	-0.439052
C57	C	0.055684	-0.216604	-0.506351
C58	C	0.032245	-0.245288	-0.573640
C59	C	0.055723	-0.273968	-0.640919
C60	C	0.102639	-0.273961	-0.640915
C61	C	0.102563	-0.159236	-0.371772
C62	C	0.055648	-0.159245	-0.371783
C63	C	0.032208	-0.187929	-0.439072
C64	C	0.766463	-0.216609	-0.506379
C65	C	0.816397	-0.216623	-0.506398
C66	C	0.678060	-0.740283	-0.573358
C67	C	0.678060	-0.552610	-0.573431
O68	O	0.702473	-0.528351	-0.630619
N69	N	0.649340	-0.529134	-0.506240
C70	C	0.620615	-0.552580	-0.439031
O71	O	0.596183	-0.528306	-0.381890
C72	C	0.620612	-0.740252	-0.438964
C73	C	0.649338	-0.763725	-0.506152
C74	C	0.706783	-0.763756	-0.640542
C75	C	0.706784	-0.810672	-0.640519
C76	C	0.678062	-0.834114	-0.573312
C77	C	0.649339	-0.810641	-0.506129
C78	C	0.591885	-0.763696	-0.371760
C79	C	0.591886	-0.810618	-0.371751
C80	C	0.620612	-0.834091	-0.438939
C81	C	0.620618	-0.880998	-0.438899
N82	N	0.649339	-0.904474	-0.506090
C83	C	0.678061	-0.881032	-0.573297
C84	C	0.620619	-0.454049	-0.439069
C85	C	0.620620	-0.407131	-0.439084
C86	C	0.678065	-0.407164	-0.573487
C87	C	0.678066	-0.454083	-0.573465
C88	C	0.649339	-0.477525	-0.506260
C89	C	0.678062	-0.979558	-0.573243
C90	C	0.678062	-1.026477	-0.573211
C91	C	0.620615	-1.026440	-0.438813
C92	C	0.620616	-0.979524	-0.438841
C93	C	0.649341	-0.956084	-0.506064
O94	O	0.596215	-0.905286	-0.381749
O95	O	0.702482	-0.905313	-0.630446
C96	C	0.678058	-0.693367	-0.573381
C97	C	0.649335	-0.669894	-0.506198
C98	C	0.620613	-0.693336	-0.438991
C99	C	0.649336	-0.622976	-0.506213
C100	C	0.678058	-0.599534	-0.573419
C101	C	0.706779	-0.623010	-0.640611
C102	C	0.706780	-0.669925	-0.640588
C103	C	0.591893	-0.669861	-0.371800
C104	C	0.591894	-0.622945	-0.371828
C105	C	0.620616	-0.599503	-0.439034
C106	C	0.649270	-0.099854	-0.506288
C107	C	0.649340	-0.049919	-0.506004
C108	C	0.678018	-0.245346	-0.950853
C109	C	0.678043	-0.245358	-1.060577
C110	C	0.620606	-0.187834	-1.060740
C111	C	0.620578	-0.187825	-0.951018
C112	C	0.649323	-0.216594	-0.232300
C113	C	0.649340	-0.216602	-0.115524
H114	H	0.393191	-0.268599	-0.628388
H115	H	0.597225	-0.473131	-0.384340
O116	O	0.563940	-0.692646	-0.306663
C117	C	0.503297	-0.745589	-0.292468
C118	C	0.534919	-0.719809	-0.366363
H119	H	0.479831	-0.767564	-0.340705
H120	H	0.482739	-0.720765	-0.244480
H121	H	0.523934	-0.767549	-0.237498
H122	H	0.514317	-0.697849	-0.421397
H123	H	0.555478	-0.744658	-0.414278
H124	H	-0.094166	-0.164576	-0.384295
H125	H	0.393114	-0.164516	-0.384225
H126	H	-0.179274	-0.164581	-0.384325
H127	H	0.597231	-0.960411	-0.384117
H128	H	-0.094095	-0.268652	-0.628472
O129	O	0.032915	-0.131370	-0.306313
C130	C	0.037841	-0.074458	-0.172863
C131	C	0.063639	-0.106006	-0.246942
H132	H	0.062670	-0.053937	-0.124858
H133	H	0.015909	-0.095107	-0.117926
H134	H	0.015841	-0.050951	-0.221025
H135	H	0.085664	-0.129519	-0.198864
H136	H	0.085543	-0.085329	-0.301881
O137	O	0.592620	-0.159943	-0.897755
C138	C	0.531956	-0.153827	-0.773936
C139	C	0.563584	-0.185450	-0.834209
H140	H	0.508480	-0.174436	-0.722528
H141	H	0.511412	-0.133282	-0.832002
H142	H	0.552589	-0.130346	-0.722601
H143	H	0.542986	-0.208958	-0.885546
H144	H	0.584130	-0.205963	-0.776087
H145	H	-0.179217	-0.268661	-0.628473
O146	O	0.564052	-0.600126	-0.306444
C147	C	0.558007	-0.547136	-0.164662
C148	C	0.589592	-0.572957	-0.238613
H149	H	0.578644	-0.525156	-0.109817
H150	H	0.537488	-0.571934	-0.116554
H151	H	0.534501	-0.525178	-0.212930
H152	H	0.613126	-0.594916	-0.190427
H153	H	0.610081	-0.548134	-0.286725
O154	O	0.705900	-0.384368	-0.638889
C155	C	0.711911	-0.331368	-0.780706
C156	C	0.680342	-0.357167	-0.706718
H157	H	0.691261	-0.309362	-0.835550
H158	H	0.732431	-0.356181	-0.828815
H159	H	0.735417	-0.309438	-0.732469
H160	H	0.656809	-0.379097	-0.754875
H161	H	0.659854	-0.332330	-0.658606
H162	H	0.701394	-0.268761	-0.906123
H163	H	0.701438	-0.268783	-1.105171
O164	O	0.592783	-0.384312	-0.373699
C165	C	0.586748	-0.331327	-0.231905
C166	C	0.618328	-0.357147	-0.305867
H167	H	0.607389	-0.309351	-0.177059
H168	H	0.566228	-0.356126	-0.183797
H169	H	0.563242	-0.309365	-0.280162
H170	H	0.641862	-0.379110	-0.257690
H171	H	0.638817	-0.332325	-0.353978
O172	O	0.592658	-0.159948	-1.114066
C173	C	0.516260	-0.138042	-1.147751
C174	C	0.547858	-0.169659	-1.087317
H175	H	0.480033	-0.145875	-1.126131
H176	H	0.521176	-0.142990	-1.235595
H177	H	0.524184	-0.101826	-1.126214
H178	H	0.539954	-0.205887	-1.108766
H179	H	0.542936	-0.164672	-0.999488
H180	H	0.478300	-0.268578	-0.628385
H181	H	0.177390	-0.297307	-0.695702
O182	O	0.266117	-0.301844	-0.706296
C183	C	0.261186	-0.358727	-0.839812
C184	C	0.235391	-0.327153	-0.765790
H185	H	0.236356	-0.379190	-0.887948
H186	H	0.283157	-0.382283	-0.791704
H187	H	0.283148	-0.338057	-0.894638
H188	H	0.213405	-0.347787	-0.710949
H189	H	0.213448	-0.303596	-0.813963
H190	H	0.701456	-1.045587	-0.627924
O191	O	0.173671	-0.131354	-0.306268
C192	C	0.178605	-0.074446	-0.172811
C193	C	0.204398	-0.105995	-0.246896
H194	H	0.203436	-0.053928	-0.124805
H195	H	0.156671	-0.095094	-0.117876
H196	H	0.156606	-0.050936	-0.220969
H197	H	0.226421	-0.129511	-0.198822
H198	H	0.226304	-0.085319	-0.301834
H199	H	0.568492	-0.744593	-0.317050
O200	O	0.266138	-0.131337	-0.306509
C201	C	0.319040	-0.070665	-0.292162
C202	C	0.293236	-0.102226	-0.366144
H203	H	0.340949	-0.047116	-0.340348
H204	H	0.341056	-0.091303	-0.237311
H205	H	0.294192	-0.050191	-0.244051
H206	H	0.318053	-0.122707	-0.414324
H207	H	0.271214	-0.081563	-0.420926
H208	H	0.478238	-0.164505	-0.384224
H209	H	0.036631	-0.297322	-0.695711
O210	O	0.125371	-0.301864	-0.706311
C211	C	0.120440	-0.358745	-0.839832
C212	C	0.094645	-0.327172	-0.765806
H213	H	0.095609	-0.379207	-0.887969
H214	H	0.142412	-0.382301	-0.791728
H215	H	0.142400	-0.338073	-0.894657
H216	H	0.072660	-0.347808	-0.710967
H217	H	0.072701	-0.303615	-0.813975
H218	H	0.121643	-0.135878	-0.316976
O219	O	0.706016	-0.476903	-0.638585
C220	C	0.766654	-0.529927	-0.652732
C221	C	0.735034	-0.504108	-0.578860
H222	H	0.790117	-0.551937	-0.604475
H223	H	0.787215	-0.505128	-0.700743
H224	H	0.746014	-0.551856	-0.707683
H225	H	0.755640	-0.482179	-0.523846
H226	H	0.714472	-0.528932	-0.530923
H227	H	0.597231	-1.045535	-0.384092
O228	O	0.706007	-0.956862	-0.638576
C229	C	0.762967	-0.961859	-0.771920
C230	C	0.731348	-0.987617	-0.697974
H231	H	0.783457	-0.986714	-0.819979
H232	H	0.786496	-0.939921	-0.723758
H233	H	0.742330	-0.939868	-0.826822
H234	H	0.751949	-1.009633	-0.643057
H235	H	0.707818	-1.009527	-0.746201
O236	O	0.734665	-0.741038	-0.705975
C237	C	0.756443	-0.726681	-0.884700
C238	C	0.724840	-0.752440	-0.810718
H239	H	0.748505	-0.735883	-0.969402
H240	H	0.792675	-0.735946	-0.866333
H241	H	0.751526	-0.689116	-0.873130
H242	H	0.729718	-0.790011	-0.822247
H243	H	0.688620	-0.743138	-0.829103
H244	H	0.730174	-0.829779	-0.695233
H245	H	0.568493	-0.829701	-0.317023
H246	H	0.730172	-0.689033	-0.695299
O247	O	0.734614	-0.600213	-0.706009
C248	C	0.740628	-0.547212	-0.847825
C249	C	0.709058	-0.573012	-0.773844
H250	H	0.719979	-0.525207	-0.902674
H251	H	0.761152	-0.572023	-0.895930
H252	H	0.764131	-0.525281	-0.799583
H253	H	0.685528	-0.594944	-0.822005
H254	H	0.688566	-0.548177	-0.725736
