data_functionalizedCrystal
_audit_creation_method	'MofGen! by Chris Wilmer'
_symmetry_space_group_name_H-M	'P1'
_symmetry_Int_Tables_number	1
_symmetry_cell_setting	triclinic
loop_
_symmetry_equiv_pos_as_xyz
  x,y,z
_cell_length_a	8.559649
_cell_length_b	10.489741
_cell_length_c	7.681481
_cell_angle_alpha	84.199479
_cell_angle_beta	94.913240
_cell_angle_gamma	77.158919
loop_
_atom_site_label
_atom_site_type_symbol
_atom_site_fract_x
_atom_site_fract_y
_atom_site_fract_z
O1	O	2.104681	-0.029684	-0.146400
O2	O	1.640234	0.036114	-0.146410
O3	O	1.883027	-0.183496	-0.146394
O4	O	1.861888	0.189927	-0.146416
O5	O	1.912910	-0.210581	0.146465
O6	O	1.670117	0.009029	0.146450
O7	O	2.134565	-0.056769	0.146459
Zn8	Zn	1.907085	-0.028170	0.192952
Zn9	Zn	1.867713	0.007516	-0.192903
O10	O	1.891771	0.162842	0.146444
C11	C	1.595703	0.027558	0.000019
C12	C	1.418493	0.042401	0.000015
C13	C	1.896372	-0.244402	0.000034
C14	C	1.891596	-0.385529	0.000031
C15	C	1.737113	-0.437401	0.000015
C16	C	1.824822	-0.550562	0.144412
C17	C	1.795396	-0.523837	-0.144325
C18	C	1.979381	-0.496842	0.144547
C19	C	1.949920	-0.470093	-0.144320
C20	C	2.037746	-0.583242	0.000112
C21	C	2.179095	-0.048212	0.000027
C22	C	2.356304	-0.063054	0.000019
C23	C	1.878426	0.223748	0.000011
C24	C	1.883201	0.364876	0.000003
N25	N	1.933968	-0.052526	0.456288
N26	N	1.840843	0.031861	-0.456239
H27	H	1.438631	-0.164693	0.000016
H28	H	1.336155	0.144049	-0.000000
O29	O	2.047300	-0.155441	0.545810
C30	C	2.015105	-0.274843	0.500937
H31	H	1.940010	-0.256335	0.367046
H32	H	1.945641	-0.315906	0.604676
C33	C	2.267446	-0.397535	0.657097
C34	C	2.175225	-0.374805	0.492643
H35	H	2.366214	-0.459200	0.651988
H36	H	2.289134	-0.317093	0.687336
H37	H	2.209541	-0.431749	0.743529
H38	H	2.233122	-0.340577	0.406219
H39	H	2.153550	-0.455245	0.462389
O40	O	1.761982	-0.592955	0.290170
C41	C	1.877052	-0.697457	0.390827
H42	H	2.003007	-0.691620	0.358568
H43	H	1.852601	-0.795405	0.358438
C44	C	1.710933	-0.694350	0.627733
C45	C	1.865635	-0.687174	0.588122
H46	H	1.703887	-0.688012	0.749433
H47	H	1.633404	-0.623948	0.559917
H48	H	1.690575	-0.775974	0.600728
H49	H	1.885982	-0.605544	0.615106
H50	H	1.943167	-0.757561	0.655948
O51	O	2.189533	-0.657992	0.000299
C52	C	2.300132	-0.576456	0.001778
H53	H	2.245783	-0.482016	0.057910
H54	H	2.327831	-0.551018	-0.138343
C55	C	2.523698	-0.765316	0.047906
C56	C	2.456951	-0.649329	0.116863
H57	H	2.620435	-0.810268	0.118889
H58	H	2.449187	-0.820250	0.046903
H59	H	2.546766	-0.744101	-0.068860
H60	H	2.433865	-0.670546	0.233618
H61	H	2.531463	-0.594400	0.117888
O62	O	1.702328	-0.538923	-0.289914
C63	C	1.543928	-0.463626	-0.289338
H64	H	1.545934	-0.380598	-0.204800
H65	H	1.466115	-0.529363	-0.232986
C66	C	1.470838	-0.506706	-0.582858
C67	C	1.473304	-0.404724	-0.479039
H68	H	1.427269	-0.470377	-0.699875
H69	H	1.577553	-0.557440	-0.583245
H70	H	1.405996	-0.561479	-0.535878
H71	H	1.538161	-0.349964	-0.526007
H72	H	1.366598	-0.353980	-0.478665
H73	H	2.057159	-0.484189	0.266760
H74	H	1.610114	-0.374389	0.000158
H75	H	2.002772	-0.434635	-0.266400
H76	H	1.745782	0.117995	0.468558
