data_functionalizedCrystal
_audit_creation_method	'MofGen! by Chris Wilmer'
_symmetry_space_group_name_H-M	'P1'
_symmetry_Int_Tables_number	1
_symmetry_cell_setting	triclinic
loop_
_symmetry_equiv_pos_as_xyz
  x,y,z
_cell_length_a	10.654559
_cell_length_b	10.654549
_cell_length_c	9.130313
_cell_angle_alpha	90.002502
_cell_angle_beta	89.998079
_cell_angle_gamma	95.513269
loop_
_atom_site_label
_atom_site_type_symbol
_atom_site_fract_x
_atom_site_fract_y
_atom_site_fract_z
O1	O	0.176396	-1.667846	-0.121756
O2	O	0.193202	-1.302368	-0.121766
O3	O	0.002061	-1.493504	-0.121761
O4	O	0.367538	-1.476710	-0.121761
O5	O	0.002055	-1.493490	0.121838
O6	O	0.193197	-1.302354	0.121833
O7	O	0.176390	-1.667832	0.121842
Cu8	Cu	0.184793	-1.485092	0.144080
Cu9	Cu	0.184800	-1.485108	-0.144004
O10	O	0.367532	-1.476696	0.121837
C11	C	0.191966	-1.255563	0.000032
C12	C	0.188274	-1.116120	0.000028
C13	C	-0.044740	-1.492261	0.000035
C14	C	-0.184183	-1.488565	0.000026
N15	N	0.184788	-1.485090	0.346703
C16	C	-0.235722	-1.372553	0.000019
C17	C	-0.366744	-1.369087	0.000030
C18	C	-0.394677	-1.597656	0.000049
C19	C	-0.263657	-1.601121	0.000048
C20	C	-0.219597	-1.240590	0.000002
C21	C	-0.350619	-1.237124	0.000013
C22	C	0.414333	-1.477938	0.000038
C23	C	0.553775	-1.481635	0.000038
C24	C	0.177627	-1.714637	0.000041
C25	C	0.181319	-1.854080	0.000035
C26	C	0.297337	-0.905608	0.000034
C27	C	0.300815	-1.036629	0.000025
C28	C	0.072247	-1.064583	0.000025
C29	C	0.068770	-0.933565	0.000024
N30	N	0.184795	-1.485119	-0.346626
C31	C	0.100186	-1.569754	0.423357
C32	C	0.100186	-1.569766	0.576694
C33	C	0.269401	-1.400446	0.576709
C34	C	0.269393	-1.400429	0.423375
H35	H	-0.221700	-1.695589	0.000073
H36	H	-0.025712	-0.891612	0.000020
F37	F	0.417121	-0.821019	0.000042
F38	F	-0.479269	-1.717439	0.000076
F39	F	0.010137	-1.659855	0.341763
F40	F	-0.165026	-1.175581	0.133238
H41	H	0.031294	-1.638706	0.639101
H42	H	-0.173953	-1.200728	-0.105181
F43	F	-0.397199	-1.182180	0.137488
H44	H	-0.379985	-1.185518	-0.101928
H45	H	0.395289	-1.078576	0.000023
F46	F	0.359443	-1.310351	0.658319
F47	F	-0.047529	-1.149187	0.000023
F48	F	0.359437	-1.310309	0.341788
