data_functionalizedCrystal
_audit_creation_method	'MofGen! by Chris Wilmer'
_symmetry_space_group_name_H-M	'P1'
_symmetry_Int_Tables_number	1
_symmetry_cell_setting	triclinic
loop_
_symmetry_equiv_pos_as_xyz
  x,y,z
_cell_length_a	14.446369
_cell_length_b	14.446369
_cell_length_c	14.446369
_cell_angle_alpha	60.000250
_cell_angle_beta	90.002026
_cell_angle_gamma	59.999699
loop_
_atom_site_label
_atom_site_type_symbol
_atom_site_fract_x
_atom_site_fract_y
_atom_site_fract_z
Zr1	Zr	0.891780	1.013186	-0.121487
O2	O	0.743973	1.206305	-0.269303
O3	O	0.937090	0.820067	-0.076168
O4	O	0.937092	1.013176	-0.269287
O5	O	0.743970	1.013205	0.076145
O6	O	1.089429	1.013167	-0.269281
O7	O	0.743971	1.013197	-0.076184
O8	O	1.089425	0.667731	0.076174
O9	O	0.743974	1.358641	-0.269310
O10	O	1.070103	0.899493	-0.056843
O11	O	0.956415	0.899506	0.056835
O12	O	0.956417	1.126866	-0.170538
O13	O	0.842730	1.126879	-0.056861
Zr14	Zr	1.134740	1.013186	0.121469
Zr15	Zr	1.134740	1.013173	-0.121478
Zr16	Zr	0.891780	1.013199	0.121460
Zr17	Zr	0.891782	1.256144	-0.121498
Zr18	Zr	1.134738	0.770228	0.121480
O19	O	1.089430	1.206305	0.076149
O20	O	1.089431	1.206286	-0.269290
O21	O	0.743972	1.206324	0.076136
O22	O	1.282547	0.820067	0.269284
O23	O	1.282548	0.820048	-0.076155
O24	O	0.937089	0.820086	0.269272
O25	O	1.282549	1.013167	-0.076164
O26	O	1.089428	1.013197	0.269268
O27	O	0.937091	1.013205	0.269263
O28	O	1.282549	1.013176	0.076165
O29	O	0.937095	1.358630	-0.269303
O30	O	1.089425	0.667742	0.269284
O31	O	1.282546	0.667731	0.269291
O32	O	1.282546	0.667721	0.076181
O33	O	0.743974	1.358652	-0.076199
O34	O	0.937095	1.358641	-0.076192
O35	O	1.070102	0.899506	0.170520
O36	O	1.183790	0.899493	0.056843
O37	O	1.070105	1.126866	-0.056853
O38	O	0.956417	1.126879	0.056824
C39	C	1.013257	0.709283	0.000005
C40	C	1.013256	0.606141	0.000009
C41	C	0.941897	0.459139	0.072034
C42	C	0.941509	0.566759	0.071743
C43	C	0.960950	0.655133	-0.123527
C44	C	0.960414	0.547900	-0.123153
C45	C	1.136972	0.372679	0.050459
C46	C	1.136790	0.478830	0.052979
C47	C	0.709354	1.013203	-0.000020
C48	C	0.606211	1.013208	-0.000024
C49	C	0.387843	1.156597	-0.071371
C50	C	0.495075	1.156694	-0.071772
C51	C	0.602887	0.941974	-0.052319
C52	C	0.495118	0.942884	-0.052842
C53	C	0.496481	0.939941	0.123708
C54	C	0.602450	0.942643	0.123513
C55	C	1.317166	1.013169	0.000002
C56	C	1.420309	1.013164	0.000006
C57	C	1.013260	1.013169	-0.303899
C58	C	1.013260	1.013164	-0.407036
C59	C	1.013263	1.317089	-0.000023
C60	C	1.013264	1.420231	-0.000028
C61	C	1.085319	0.869775	-0.482009
C62	C	1.085007	0.869678	-0.374680
C63	C	0.889731	1.084398	-0.481604
C64	C	0.890126	1.083488	-0.588462
C65	C	1.063733	1.086432	-0.590030
C66	C	1.066233	1.083729	-0.481358
C67	C	1.013259	1.013203	0.303880
C68	C	1.013259	1.013208	0.407017
C69	C	1.317163	0.709266	0.000016
C70	C	1.420305	0.606118	0.000024
C71	C	1.013257	0.709299	0.303894
C72	C	1.013256	0.606163	0.407036
C73	C	1.317163	0.709283	0.303905
C74	C	1.420305	0.606141	0.407051
C75	C	0.709357	1.317089	-0.303924
C76	C	0.606215	1.420231	-0.407070
C77	C	0.709357	1.317106	-0.000034
C78	C	0.606215	1.420254	-0.000043
C79	C	1.013263	1.317073	-0.303913
C80	C	1.013264	1.420209	-0.407055
C81	C	1.638673	0.459797	0.071363
C82	C	1.531442	0.566726	0.071765
C83	C	1.423632	0.479262	0.052327
C84	C	1.531400	0.371879	0.052849
C85	C	1.530029	0.546849	-0.123710
C86	C	1.424061	0.655327	-0.123514
C87	C	0.941205	0.459853	0.482023
C88	C	0.941511	0.566773	0.374689
C89	C	1.136787	0.479303	0.481600
C90	C	1.136399	0.371928	0.588464
C91	C	0.962793	0.546911	0.590035
C92	C	0.960287	0.655381	0.481359
C93	C	1.495290	0.459806	0.625418
C94	C	1.387956	0.566750	0.518183
C95	C	1.494847	0.479288	0.410371
C96	C	1.601711	0.371890	0.518142
C97	C	1.603326	0.546834	0.516796
C98	C	1.494650	0.655327	0.410824
H99	H	1.009037	0.525926	-0.179762
O100	O	1.316055	0.685096	0.520329
H101	H	1.357809	0.666282	0.598147
O102	O	1.710149	0.509121	0.025138
H103	H	1.793430	0.446187	0.091798
H104	H	1.157245	1.031779	-0.429935
H105	H	1.522086	0.501532	0.332110
H106	H	1.492965	0.497034	0.679381
H107	H	1.502580	0.522058	-0.177135
O108	O	0.835825	1.018868	-0.413256
H109	H	0.748513	1.070113	-0.466893
H110	H	1.443226	0.440749	0.408224
O111	O	0.532850	0.799973	0.194500
H112	H	0.456691	0.798729	0.197775
H113	H	1.153324	1.040528	-0.594140
H114	H	1.010433	0.683913	-0.179540
H115	H	1.443254	0.745787	0.411386
O116	O	0.839740	0.775258	0.413236
H117	H	0.788887	0.750375	0.385835
O118	O	1.528469	0.697883	0.305980
H119	H	1.492665	0.684570	0.249298
H120	H	0.681154	0.836473	-0.002835
O121	O	0.315023	1.230817	-0.191525
H122	H	0.357996	1.263457	-0.250910
H123	H	1.680294	0.341922	0.491494
O124	O	0.316353	1.231181	-0.025157
H125	H	0.364677	1.180641	0.064104
H126	H	1.424582	0.745813	-0.162585
O127	O	0.430224	1.000739	0.181577
H128	H	0.485791	0.947378	0.268634
O129	O	1.316703	0.517137	0.521404
H130	H	1.291470	0.494315	0.598388
H131	H	0.976523	0.529302	0.320906
O132	O	0.841482	0.777285	-0.177141
H133	H	0.835584	0.859079	-0.254550
O134	O	1.205494	0.795604	-0.302742
H135	H	1.215885	0.861673	-0.292941
H136	H	1.019205	1.188408	-0.506880
H137	H	0.833709	1.189899	-0.508841
H138	H	0.873203	0.586488	0.594147
O139	O	1.206123	0.795178	-0.478896
H140	H	1.216101	0.859528	-0.556412
O141	O	0.821018	0.685131	0.302787
H142	H	0.821114	0.761791	0.225881
O143	O	1.706933	0.513997	0.480443
H144	H	1.760289	0.408036	0.516414
O145	O	0.820417	0.509106	0.478945
H146	H	0.810449	0.505896	0.556471
H147	H	1.180674	0.278935	0.140027
O148	O	0.605695	1.007516	-0.171760
H149	H	0.528048	1.044072	-0.231398
H150	H	1.192808	0.501549	0.508832
O151	O	1.319961	0.508724	-0.013212
H152	H	1.324402	0.417508	0.025450
H153	H	0.976595	0.530052	0.162711
H154	H	0.849718	1.032871	-0.588192
O155	O	1.211394	0.332232	0.692559
H156	H	1.280991	0.226312	0.741374
O157	O	1.493880	0.341060	0.698220
H158	H	1.571870	0.253953	0.711384
O159	O	1.190697	0.428201	0.413262
H160	H	1.129736	0.492921	0.326210
O161	O	1.608788	0.599251	0.583047
H162	H	1.613655	0.535617	0.671008
H163	H	1.175867	0.439231	0.143990
H164	H	0.851184	0.494904	0.037326
O165	O	0.988102	0.341432	0.192832
H166	H	1.062423	0.253936	0.202804
O167	O	0.820643	0.684416	0.025349
H168	H	0.762243	0.664585	0.003023
H169	H	1.011479	1.192105	-0.668235
H170	H	1.007319	0.687505	0.506881
O171	O	1.039378	0.795573	-0.480635
H172	H	1.090848	0.694461	-0.401958
O173	O	1.038617	0.795199	-0.303432
H174	H	1.016308	0.759121	-0.345597
H175	H	1.533056	0.656074	0.036687
O176	O	1.031973	0.514088	0.693643
H177	H	1.101959	0.408124	0.747015
O178	O	0.601802	1.011405	0.175290
H179	H	0.604150	1.095488	0.113308
H180	H	1.601428	0.281143	0.568477
H181	H	1.581747	0.281126	0.143877
H182	H	0.833514	1.188723	-0.667049
O183	O	0.987159	0.341096	0.480626
H184	H	1.061102	0.253994	0.558624
H185	H	1.693658	0.370131	0.162065
O186	O	0.839836	0.601796	-0.176686
H187	H	0.787331	0.629892	-0.127256
O188	O	1.213158	0.507300	-0.009319
H189	H	1.216859	0.579706	-0.004418
O190	O	1.207750	0.338250	-0.018720
H191	H	1.155147	0.354885	-0.088713
O192	O	0.492948	1.230723	-0.025314
H193	H	0.415140	1.266783	-0.002363
O194	O	1.534688	0.517106	0.192639
H195	H	1.458030	0.593397	0.193350
H196	H	0.444774	0.993500	-0.143871
O197	O	0.491838	1.231189	-0.192643
H198	H	0.489790	1.183262	-0.232540
O199	O	0.707303	0.803977	0.199881
H200	H	0.752372	0.792162	0.271363
O201	O	0.530405	0.803497	0.011553
H202	H	0.624297	0.735739	0.042923
O203	O	1.496112	0.332168	-0.011538
H204	H	1.402220	0.389669	-0.042903
O205	O	1.420852	0.428149	0.171777
H206	H	1.417102	0.492864	0.194108
O207	O	1.318948	0.698253	-0.199810
H208	H	1.312457	0.614537	-0.165777
H209	H	1.580047	0.586416	-0.167399
H210	H	1.176807	0.281173	0.588195
