data_functionalizedCrystal
_audit_creation_method	'MofGen! by Chris Wilmer'
_symmetry_space_group_name_H-M	'P1'
_symmetry_Int_Tables_number	1
_symmetry_cell_setting	triclinic
loop_
_symmetry_equiv_pos_as_xyz
  x,y,z
_cell_length_a	12.759395
_cell_length_b	17.077402
_cell_length_c	17.077396
_cell_angle_alpha	89.970216
_cell_angle_beta	89.982791
_cell_angle_gamma	90.024420
loop_
_atom_site_label
_atom_site_type_symbol
_atom_site_fract_x
_atom_site_fract_y
_atom_site_fract_z
Zn1	Zn	1.606175	-0.312476	-0.443788
Zn2	Zn	1.606050	-0.443751	-0.312519
Zn3	Zn	1.430483	-0.312507	-0.312541
Zn4	Zn	1.430440	-0.443707	-0.443747
O5	O	1.518287	-0.378110	-0.378149
O6	O	1.753179	-0.329895	-0.426382
O7	O	1.582727	-0.426372	-0.202675
O8	O	1.453859	-0.202656	-0.329977
O9	O	1.753088	-0.426342	-0.329939
O10	O	1.582939	-0.202633	-0.426404
O11	O	1.453738	-0.329947	-0.202691
O12	O	1.283456	-0.329905	-0.329938
O13	O	1.453786	-0.426268	-0.553600
O14	O	1.283425	-0.426298	-0.426335
O15	O	1.582897	-0.329853	-0.553629
O16	O	1.582685	-0.553592	-0.329900
O17	O	1.453665	-0.553560	-0.426314
C18	C	1.518186	-0.582058	-0.378117
C19	C	1.518238	-0.669308	-0.378130
C20	C	1.245320	-0.378101	-0.378135
C21	C	1.128543	-0.378115	-0.378148
C22	C	1.585488	-0.710289	-0.327982
C23	C	1.585539	-0.792269	-0.328002
C24	C	1.518335	-0.833267	-0.378167
C25	C	1.451083	-0.792281	-0.428321
C26	C	1.451037	-0.710302	-0.428304
C27	C	1.451180	-0.963151	-0.428351
C28	C	1.451224	-1.045135	-0.428366
C29	C	1.585682	-1.045118	-0.328048
C30	C	1.585636	-0.963139	-0.328031
C31	C	1.518382	-0.922158	-0.378185
C32	C	1.128549	-0.478651	-0.478364
C33	C	1.073691	-0.528926	-0.528474
C34	C	0.963969	-0.528935	-0.528483
C35	C	0.909103	-0.478663	-0.478379
C36	C	0.963961	-0.428389	-0.428269
C37	C	1.073685	-0.428387	-0.428263
C38	C	0.963955	-0.327851	-0.328059
C39	C	1.073677	-0.327844	-0.328044
C40	C	0.909089	-0.277579	-0.277954
C41	C	0.963947	-0.227307	-0.227839
C42	C	1.073675	-0.227301	-0.227831
C43	C	1.128535	-0.277570	-0.277934
C44	C	1.792320	-0.378120	-0.378163
C45	C	1.909097	-0.378125	-0.378169
C46	C	1.518351	-0.378052	-0.582893
C47	C	1.518378	-0.378028	-0.670143
C48	C	1.518417	-0.173366	-0.378197
C49	C	1.518473	-0.086116	-0.378218
C50	C	1.585608	-0.327820	-0.711150
C51	C	1.585621	-0.327794	-0.793130
C52	C	1.518408	-0.377980	-0.834102
C53	C	1.451169	-0.428190	-0.793090
C54	C	1.451152	-0.428211	-0.711111
C55	C	1.451212	-0.428142	-0.963960
C56	C	1.451230	-0.428122	-1.045945
C57	C	1.585681	-0.327725	-1.045979
C58	C	1.585663	-0.327747	-0.964000
C59	C	1.518426	-0.377958	-0.922993
C60	C	1.518284	-0.378111	-0.174201
C61	C	1.518461	-0.377915	-0.086951
H62	H	1.640300	-0.825632	-0.287165
H63	H	1.640354	-0.929758	-0.287179
C64	C	1.378287	-0.836892	-0.482832
C65	C	1.437760	-0.883900	-0.533178
C66	C	1.370733	-0.925013	-0.583397
H67	H	1.338205	-0.800833	-0.512773
H68	H	1.332568	-0.868966	-0.452800
H69	H	1.483461	-0.851829	-0.563207
H70	H	1.477840	-0.919973	-0.503259
H71	H	1.325013	-0.957087	-0.553365
H72	H	1.330654	-0.888949	-0.613332
H73	H	1.411074	-0.956918	-0.617557
H74	H	1.396278	-0.676936	-0.469141
C75	C	1.133396	-0.583378	-0.582914
C76	C	1.196457	-0.539000	-0.633293
C77	C	1.251479	-0.589133	-0.683448
H78	H	1.085132	-0.613339	-0.612834
H79	H	1.176227	-0.617524	-0.552838
H80	H	1.153630	-0.504868	-0.663366
H81	H	1.244741	-0.509041	-0.603395
H82	H	1.294310	-0.623278	-0.653372
H83	H	1.203207	-0.619091	-0.713362
H84	H	1.294279	-0.559030	-0.717631
H85	H	1.640345	-0.286955	-0.677796
C86	C	1.658796	-1.089748	-0.273781
C87	C	1.644538	-1.170317	-0.284591
C88	C	1.711934	-1.211458	-0.234665
H89	H	1.643642	-1.076509	-0.220961
H90	H	1.729348	-1.076251	-0.285412
H91	H	1.574003	-1.183809	-0.272955
H92	H	1.659700	-1.183579	-0.337401
H93	H	1.782486	-1.197960	-0.246296
H94	H	1.696775	-1.198212	-0.181848
H95	H	1.702276	-1.266127	-0.241998
C96	C	1.658736	-0.273256	-0.837510
C97	C	1.717619	-0.229330	-0.784082
C98	C	1.784996	-0.179086	-0.824936
H99	H	1.618697	-0.238970	-0.869497
H100	H	1.704553	-0.303263	-0.869471
H101	H	1.671808	-0.199325	-0.752135
H102	H	1.757680	-0.263595	-0.752094
H103	H	1.830813	-0.209093	-0.856897
H104	H	1.744948	-0.144806	-0.856921
H105	H	1.824963	-0.149282	-0.788692
H106	H	1.396520	-1.078514	-0.469230
H107	H	1.118334	-0.186356	-0.187030
H108	H	1.396395	-0.469087	-0.677724
C109	C	0.904592	-0.583598	-0.582923
C110	C	0.976118	-0.627631	-0.626791
C111	C	0.921459	-0.677998	-0.676943
H112	H	0.861819	-0.553700	-0.617250
H113	H	0.861778	-0.617804	-0.552854
H114	H	1.018914	-0.593428	-0.656858
H115	H	1.018893	-0.657544	-0.592485
H116	H	0.878644	-0.712205	-0.646874
H117	H	0.878688	-0.648094	-0.711265
H118	H	0.969980	-0.707886	-0.706708
H119	H	1.396418	-0.929787	-0.469194
C120	C	0.789976	-0.478814	-0.478479
C121	C	0.753677	-0.533611	-0.533076
C122	C	0.643944	-0.533779	-0.533180
H123	H	0.765054	-0.428224	-0.492177
H124	H	0.765083	-0.492361	-0.427813
H125	H	0.778560	-0.520059	-0.583730
H126	H	0.778570	-0.584209	-0.519391
H127	H	0.619050	-0.547326	-0.482514
H128	H	0.619032	-0.483187	-0.546876
H129	H	0.619301	-0.570963	-0.570218
H130	H	1.217876	-0.277571	-0.277930
C131	C	0.904324	-0.172863	-0.173347
C132	C	0.841298	-0.217246	-0.122949
C133	C	0.786366	-0.167120	-0.072732
H134	H	0.861472	-0.138687	-0.203353
H135	H	0.952675	-0.142937	-0.143452
H136	H	0.792954	-0.247159	-0.152841
H137	H	0.884124	-0.251421	-0.092926
H138	H	0.834717	-0.137194	-0.042836
H139	H	0.743520	-0.132946	-0.102743
H140	H	0.743604	-0.197227	-0.038525
C141	C	1.378136	-0.482635	-1.090289
C142	C	1.319222	-0.526593	-1.036833
C143	C	1.251867	-0.576811	-1.077655
H144	H	1.418191	-0.516902	-1.122267
H145	H	1.332336	-0.452609	-1.122257
H146	H	1.365016	-0.556617	-1.004879
H147	H	1.279145	-0.492347	-1.004854
H148	H	1.206068	-0.546785	-1.109622
H149	H	1.291931	-0.611073	-1.109631
H150	H	1.211880	-0.606637	-1.041392
C151	C	1.378393	-0.482704	-0.919328
C152	C	1.437855	-0.533010	-0.872246
C153	C	1.370821	-0.583277	-0.831109
H154	H	1.338339	-0.512673	-0.955373
H155	H	1.332647	-0.452706	-0.887303
H156	H	1.483582	-0.563005	-0.904269
H157	H	1.477906	-0.503063	-0.836187
H158	H	1.325074	-0.553279	-0.799083
H159	H	1.330770	-0.613240	-0.867159
H160	H	1.411155	-0.617410	-0.799153
H161	H	1.640208	-0.676913	-0.287128
H162	H	1.217890	-0.478654	-0.478355
H163	H	0.819748	-0.277587	-0.277969
H164	H	1.640401	-0.286885	-0.930643
H165	H	1.640426	-0.286840	-1.079371
H166	H	1.396439	-0.469049	-0.826456
