data_functionalizedCrystal
_audit_creation_method	'MofGen! by Chris Wilmer'
_symmetry_space_group_name_H-M	'P1'
_symmetry_Int_Tables_number	1
_symmetry_cell_setting	triclinic
loop_
_symmetry_equiv_pos_as_xyz
  x,y,z
_cell_length_a	25.639243
_cell_length_b	25.639240
_cell_length_c	12.759387
_cell_angle_alpha	89.956399
_cell_angle_beta	89.974541
_cell_angle_gamma	90.035481
loop_
_atom_site_label
_atom_site_type_symbol
_atom_site_fract_x
_atom_site_fract_y
_atom_site_fract_z
Zn1	Zn	0.799296	-0.208085	-0.594050
Zn2	Zn	0.799214	-0.295531	-0.418332
Zn3	Zn	0.711857	-0.208116	-0.418372
Zn4	Zn	0.711826	-0.295496	-0.593955
O5	O	0.755548	-0.251807	-0.506177
O6	O	0.872450	-0.219687	-0.570764
O7	O	0.787604	-0.283963	-0.271316
O8	O	0.723504	-0.134946	-0.441733
O9	O	0.872390	-0.283933	-0.441664
O10	O	0.787744	-0.134924	-0.570803
O11	O	0.723424	-0.219739	-0.271345
O12	O	0.638688	-0.219705	-0.441641
O13	O	0.723450	-0.283873	-0.740989
O14	O	0.638665	-0.283902	-0.570641
O15	O	0.787714	-0.219653	-0.741059
O16	O	0.787574	-0.368691	-0.441572
O17	O	0.723371	-0.368666	-0.570602
C18	C	0.619706	-0.251803	-0.506136
C19	C	0.561592	-0.251814	-0.506143
C20	C	0.201254	-0.218406	-0.573512
C21	C	0.146650	-0.218406	-0.573518
O22	O	0.118435	-0.189992	-0.630746
N23	N	0.119309	-0.251805	-0.506206
C24	C	0.146575	-0.285203	-0.438876
O25	O	0.118306	-0.313612	-0.381622
C26	C	0.201179	-0.285201	-0.438865
C27	C	0.228517	-0.251803	-0.506189
C28	C	0.228592	-0.185011	-0.640829
C29	C	0.283193	-0.185012	-0.640824
C30	C	0.310455	-0.218409	-0.573501
C31	C	0.283117	-0.251804	-0.506183
C32	C	0.228444	-0.318596	-0.371530
C33	C	0.283051	-0.318590	-0.371524
C34	C	0.310389	-0.285193	-0.438848
C35	C	0.364980	-0.285202	-0.438855
N36	N	0.392321	-0.251803	-0.506167
C37	C	0.365059	-0.218406	-0.573490
C38	C	0.031905	-0.285206	-0.438903
C39	C	-0.022698	-0.285211	-0.438918
C40	C	-0.022619	-0.218413	-0.573560
C41	C	0.031984	-0.218410	-0.573549
C42	C	0.059246	-0.251806	-0.506215
C43	C	0.479724	-0.218412	-0.573474
C44	C	0.534329	-0.218418	-0.573466
C45	C	0.534246	-0.285214	-0.438821
C46	C	0.479645	-0.285210	-0.438833
C47	C	0.452386	-0.251805	-0.506163
O48	O	0.393230	-0.313601	-0.381654
O49	O	0.393335	-0.189998	-0.630725
C50	C	0.755474	-0.387649	-0.506095
C51	C	0.755491	-0.445763	-0.506095
C52	C	0.789015	-0.806076	-0.573505
C53	C	0.789030	-0.860681	-0.573527
O54	O	0.817446	-0.888875	-0.630757
N55	N	0.755621	-0.888046	-0.506279
C56	C	0.722190	-0.860804	-0.439013
O57	O	0.693774	-0.889094	-0.381816
C58	C	0.722172	-0.806201	-0.438998
C59	C	0.755588	-0.778838	-0.506242
C60	C	0.822427	-0.778714	-0.640746
C61	C	0.822412	-0.724113	-0.640722
C62	C	0.788985	-0.696875	-0.573459
C63	C	0.755573	-0.724238	-0.506219
C64	C	0.688739	-0.778960	-0.371738
C65	C	0.688724	-0.724353	-0.371729
C66	C	0.722140	-0.696990	-0.438973
C67	C	0.722131	-0.642399	-0.438933
N68	N	0.755540	-0.615034	-0.506181
C69	C	0.788967	-0.642272	-0.573444
C70	C	0.722229	-0.975474	-0.439051
C71	C	0.722249	-1.030077	-0.439061
C72	C	0.789089	-1.029950	-0.573576
C73	C	0.789071	-0.975347	-0.573561
C74	C	0.755638	-0.948109	-0.506299
C75	C	0.788934	-0.527607	-0.573390
C76	C	0.788918	-0.473002	-0.573358
C77	C	0.722076	-0.473133	-0.438847
C78	C	0.722094	-0.527734	-0.438875
C79	C	0.755525	-0.554969	-0.506155
O80	O	0.693728	-0.614170	-0.381735
O81	O	0.817374	-0.613975	-0.630641
C82	C	0.891921	-0.251811	-0.506220
C83	C	0.950035	-0.251812	-0.506238
C84	C	0.755588	-0.251756	-0.780211
C85	C	0.755605	-0.251734	-0.896988
C86	C	0.755637	-0.115434	-0.506283
C87	C	0.755674	-0.057320	-0.506328
C88	C	0.822527	-0.184866	-0.897080
C89	C	0.855995	-0.151424	-0.951987
C90	C	0.856008	-0.151405	-1.061709
C91	C	0.822547	-0.184830	-1.116526
C92	C	0.789079	-0.218272	-1.061619
C93	C	0.789071	-0.218289	-0.951895
C94	C	0.722155	-0.285136	-1.061527
C95	C	0.722144	-0.285159	-0.951805
C96	C	0.688695	-0.318562	-1.116344
C97	C	0.655228	-0.352007	-1.061437
C98	C	0.655217	-0.352025	-0.951709
C99	C	0.688676	-0.318601	-0.896898
C100	C	0.755539	-0.251820	-0.233210
C101	C	0.755623	-0.251695	-0.116434
H102	H	0.054239	-0.191214	-0.628368
C103	C	0.313258	-0.148265	-0.714872
N104	N	0.335899	-0.120582	-0.770643
H105	H	0.816153	-0.549776	-0.628183
C106	C	0.822564	-0.184808	-1.237223
N107	N	0.822578	-0.184793	-1.328133
C108	C	0.618398	-0.388814	-0.891319
N109	N	0.590665	-0.416524	-0.845838
H110	H	0.849647	-0.800886	-0.695525
H111	H	0.694862	-0.450948	-0.384079
C112	C	0.449573	-0.321954	-0.364783
N113	N	0.426926	-0.349627	-0.309000
C114	C	0.061888	-0.321952	-0.364837
N115	N	0.084468	-0.349630	-0.309052
C116	C	0.892824	-0.114618	-1.122108
N117	N	0.920556	-0.086910	-1.167601
C118	C	0.822519	-0.184887	-0.776383
N119	N	0.822514	-0.184902	-0.685473
H120	H	0.556585	-0.191221	-0.628293
H121	H	0.661498	-0.702179	-0.316957
C122	C	0.825856	-1.059922	-0.647575
N123	N	0.853546	-1.082499	-0.703309
H124	H	0.688706	-0.318542	-1.205685
H125	H	0.695044	-1.052351	-0.384292
C126	C	0.449746	-0.181667	-0.647546
N127	N	0.427167	-0.153994	-0.703344
C128	C	0.688666	-0.318617	-0.776201
N129	N	0.688659	-0.318625	-0.685291
C130	C	-0.052618	-0.181673	-0.647611
N131	N	-0.075215	-0.154001	-0.703381
H132	H	0.206401	-0.157813	-0.695652
C133	C	0.685450	-0.945518	-0.365049
N134	N	0.657747	-0.922958	-0.309313
C135	C	0.685339	-0.557833	-0.364897
N136	N	0.657650	-0.580501	-0.309182
C137	C	-0.052763	-0.321954	-0.364862
N138	N	-0.075407	-0.349627	-0.309074
C139	C	0.198384	-0.355330	-0.297453
N140	N	0.175744	-0.382997	-0.241648
C141	C	0.859174	-0.694022	-0.714694
N142	N	0.886865	-0.671361	-0.770413
C143	C	0.313035	-0.355331	-0.297453
N144	N	0.335618	-0.383006	-0.241665
H145	H	0.556453	-0.312406	-0.384011
H146	H	0.816130	-0.450725	-0.628117
H147	H	0.661529	-0.801229	-0.316979
H148	H	0.883237	-0.124209	-0.907343
H149	H	0.816280	-0.953071	-0.628318
H150	H	0.627985	-0.379216	-1.106078
