data_functionalizedCrystal
_audit_creation_method	'MofGen! by Chris Wilmer'
_symmetry_space_group_name_H-M	'P1'
_symmetry_Int_Tables_number	1
_symmetry_cell_setting	triclinic
loop_
_symmetry_equiv_pos_as_xyz
  x,y,z
_cell_length_a	17.077404
_cell_length_b	10.685194
_cell_length_c	17.077396
_cell_angle_alpha	85.601377
_cell_angle_beta	89.983895
_cell_angle_gamma	94.375067
loop_
_atom_site_label
_atom_site_type_symbol
_atom_site_fract_x
_atom_site_fract_y
_atom_site_fract_z
Zn1	Zn	1.176161	-0.502467	-0.419860
Zn2	Zn	1.166045	-0.713516	-0.278531
Zn3	Zn	1.044896	-0.502506	-0.288609
Zn4	Zn	1.034836	-0.713430	-0.409761
O5	O	1.105484	-0.607980	-0.349190
O6	O	1.284665	-0.530483	-0.401121
O7	O	1.149950	-0.685578	-0.170018
O8	O	1.070752	-0.325903	-0.314464
O9	O	1.277232	-0.685540	-0.297287
O10	O	1.167192	-0.325875	-0.410893
O11	O	1.060943	-0.530549	-0.177422
O12	O	0.933716	-0.530466	-0.304671
O13	O	1.053607	-0.685393	-0.520950
O14	O	0.926325	-0.685431	-0.393681
O15	O	1.157438	-0.530399	-0.528370
O16	O	1.140196	-0.890102	-0.287494
O17	O	1.043797	-0.890038	-0.383909
C18	C	0.901538	-0.607944	-0.349174
C19	C	0.814288	-0.607959	-0.349184
C20	C	0.777162	-0.527364	-0.403321
C21	C	0.695181	-0.527372	-0.403324
C22	C	0.650327	-0.607983	-0.349194
C23	C	0.687459	-0.688581	-0.295052
C24	C	0.769439	-0.688565	-0.295046
C25	C	0.516588	-0.688609	-0.295070
C26	C	0.434602	-0.688627	-0.295077
C27	C	0.442330	-0.527417	-0.403348
C28	C	0.524309	-0.527401	-0.403342
C29	C	0.561435	-0.608001	-0.349201
C30	C	1.089828	-0.935860	-0.333529
C31	C	1.083203	-1.076128	-0.326856
C32	C	1.310227	-0.608016	-0.349206
C33	C	1.397476	-0.608032	-0.349213
C34	C	1.105528	-0.607882	-0.553939
C35	C	1.105547	-0.607840	-0.641191
C36	C	1.121223	-0.278819	-0.364929
C37	C	1.127930	-0.138551	-0.371636
C38	C	1.059217	-0.527107	-0.686036
C39	C	1.059231	-0.527079	-0.768018
C40	C	1.105580	-0.607778	-0.805153
C41	C	1.151913	-0.688519	-0.760302
C42	C	1.151894	-0.688553	-0.678321
C43	C	1.151950	-0.688440	-0.931176
C44	C	1.151971	-0.688405	-1.013162
C45	C	1.059288	-0.526966	-1.020873
C46	C	1.059269	-0.527000	-0.938892
C47	C	1.105602	-0.607740	-0.894046
C48	C	1.105490	-0.607986	-0.145242
C49	C	1.105640	-0.607672	-0.058007
H50	H	0.560827	-0.461769	-0.447424
H51	H	1.171293	-1.084684	-0.415084
O52	O	1.031525	-1.140583	-0.275039
C53	C	0.977516	-1.343846	-0.220978
C54	C	1.036085	-1.271010	-0.279676
H55	H	0.981171	-1.449309	-0.224720
H56	H	0.992540	-1.318152	-0.158885
H57	H	0.915430	-1.317984	-0.235916
H58	H	1.098192	-1.296832	-0.264812
H59	H	1.020993	-1.296710	-0.341753
H60	H	1.021479	-0.461386	-0.655807
O61	O	1.014210	-0.448531	-0.811465
C62	C	0.922251	-0.288452	-0.810460
C63	C	0.973217	-0.377326	-0.761163
H64	H	0.889082	-0.230879	-0.769810
H65	H	0.961422	-0.222377	-0.851984
H66	H	0.878473	-0.346383	-0.846086
H67	H	1.017001	-0.319497	-0.725490
H68	H	0.933997	-0.443405	-0.719688
H69	H	0.412098	-0.461787	-0.447431
H70	H	1.021531	-0.461282	-0.908659
O71	O	1.014159	-0.448600	-1.064337
C72	C	0.883562	-0.387352	-1.092355
C73	C	0.934575	-0.476161	-1.043066
H74	H	0.819207	-0.409621	-1.075187
H75	H	0.902148	-0.285583	-1.081089
H76	H	0.891568	-0.401162	-1.157326
H77	H	0.926595	-0.462463	-0.978079
H78	H	0.915977	-0.577897	-1.054398
H79	H	1.189627	-0.754285	-0.641809
H80	H	0.398084	-0.754267	-0.251000
H81	H	1.189712	-0.754117	-1.043395
O82	O	1.197027	-0.766917	-0.887730
C83	C	1.288917	-0.927097	-0.888726
C84	C	1.237921	-0.838272	-0.938023
H85	H	1.321981	-0.984830	-0.929366
H86	H	1.332774	-0.869249	-0.853135
H87	H	1.249701	-0.993037	-0.847170
H88	H	1.277076	-0.772315	-0.979623
H89	H	1.194059	-0.896200	-0.973561
H90	H	0.813676	-0.461725	-0.447402
H91	H	0.650933	-0.754209	-0.250975
H92	H	0.546813	-0.754239	-0.250981
H93	H	1.189647	-0.754232	-0.790543
O94	O	0.659025	-0.449264	-0.455947
C95	C	0.567348	-0.432533	-0.562791
C96	C	0.608222	-0.521136	-0.503221
H97	H	0.526278	-0.490607	-0.601038
H98	H	0.532051	-0.366489	-0.530028
H99	H	0.613507	-0.374899	-0.601445
H100	H	0.562116	-0.578851	-0.464551
H101	H	0.643535	-0.587097	-0.536034
O102	O	0.805378	-0.766979	-0.242430
C103	C	0.789069	-0.926831	-0.135013
C104	C	0.748268	-0.838114	-0.194573
H105	H	0.742915	-0.984347	-0.096294
H106	H	0.824289	-0.992967	-0.167785
H107	H	0.830223	-0.868781	-0.096830
H108	H	0.707076	-0.896062	-0.232772
H109	H	0.713098	-0.771974	-0.161752
