data_functionalizedCrystal
_audit_creation_method	'MofGen! by Chris Wilmer'
_symmetry_space_group_name_H-M	'P1'
_symmetry_Int_Tables_number	1
_symmetry_cell_setting	triclinic
loop_
_symmetry_equiv_pos_as_xyz
  x,y,z
_cell_length_a	10.540539
_cell_length_b	9.016244
_cell_length_c	14.519709
_cell_angle_alpha	89.996820
_cell_angle_beta	95.897182
_cell_angle_gamma	90.005301
loop_
_atom_site_label
_atom_site_type_symbol
_atom_site_fract_x
_atom_site_fract_y
_atom_site_fract_z
O1	O	1.684566	0.123274	-0.129964
O2	O	2.184566	0.623274	0.370036
O3	O	1.315028	0.123293	-0.142209
O4	O	1.815028	0.623293	0.357791
O5	O	1.509595	0.123269	-0.001901
O6	O	2.009595	0.623269	0.498099
O7	O	1.490000	0.123297	-0.270272
O8	O	1.990000	0.623297	0.229728
O9	O	1.509567	-0.123411	-0.001904
O10	O	2.009567	0.376589	0.498096
O11	O	1.315000	-0.123388	-0.142212
O12	O	1.815000	0.376612	0.357788
O13	O	1.684538	-0.123407	-0.129967
O14	O	2.184538	0.376593	0.370033
Cu15	Cu	1.499766	-0.145921	-0.136090
Cu16	Cu	1.999766	0.354079	0.363910
Cu17	Cu	1.499800	0.145807	-0.136086
Cu18	Cu	1.999800	0.645807	0.363914
O19	O	1.489971	-0.123384	-0.270275
O20	O	1.989971	0.376616	0.229725
C21	C	1.267720	-0.000046	-0.141293
C22	C	1.767720	0.499954	0.358707
C23	C	1.126800	-0.000039	-0.138545
C24	C	1.626800	0.499961	0.361455
C25	C	0.944448	-0.000626	-0.033266
C26	C	1.444448	0.499374	0.466734
C27	C	1.091038	-0.000054	-0.036051
C28	C	1.591038	0.499946	0.463949
C29	C	1.064641	0.140828	-0.187868
C30	C	1.564641	0.640828	0.312132
C31	C	0.918132	0.140930	-0.184370
C32	C	1.418132	0.640930	0.315630
C33	C	0.917590	-0.139592	-0.186459
C34	C	1.417590	0.360408	0.313541
C35	C	1.064562	-0.141438	-0.187403
C36	C	1.564562	0.358562	0.312597
N37	N	1.499752	-0.351108	-0.136092
N38	N	1.999752	0.148892	0.363908
C39	C	1.395357	-0.586128	-0.210896
C40	C	1.895357	-0.086128	0.289104
C41	C	1.395583	-0.414237	-0.211176
C42	C	1.895583	0.085763	0.288824
C43	C	1.632251	-0.413450	-0.157983
C44	C	2.132251	0.086550	0.342017
C45	C	1.631680	-0.585395	-0.158513
C46	C	2.131680	-0.085395	0.341487
C47	C	1.472968	-0.585659	-0.039152
C48	C	1.972968	-0.085659	0.460848
C49	C	1.469916	-0.413705	-0.039780
C50	C	1.969916	0.086295	0.460220
C51	C	1.731846	-0.000065	-0.130884
C52	C	2.231846	0.499935	0.369116
C53	C	1.872766	-0.000062	-0.133631
C54	C	2.372766	0.499938	0.366369
C55	C	1.508668	-0.000071	0.032462
C56	C	2.008668	0.499929	0.532462
C57	C	1.505931	-0.000072	0.134858
C58	C	2.005931	0.499928	0.634858
N59	N	1.499824	0.350993	-0.136077
N60	N	1.999824	0.850993	0.363923
C61	C	1.490899	-0.000040	-0.304639
C62	C	1.990899	0.499960	0.195361
C63	C	1.493635	-0.000029	-0.407035
C64	C	1.993635	0.499971	0.092965
C65	C	1.495856	-0.000033	0.509808
C66	C	1.995856	0.499967	1.009808
C67	C	1.498654	-0.000044	0.405485
C68	C	1.998654	0.499956	0.905485
C69	C	1.500893	-0.000054	0.322337
C70	C	2.000893	0.499946	0.822337
C71	C	1.503692	-0.000062	0.218007
C72	C	2.003692	0.499938	0.718007
H73	H	1.107591	0.245656	-0.153603
H74	H	1.607591	0.745656	0.346397
H75	H	0.886370	-0.246368	-0.153290
H76	H	1.386370	0.253632	0.346710
H77	H	1.378443	-0.629105	-0.018317
H78	H	1.878443	-0.129105	0.481683
H79	H	0.869607	-0.140536	-0.260489
H80	H	1.369607	0.359464	0.239511
H81	H	1.134036	-0.101034	0.002758
H82	H	1.634036	0.398966	0.502758
H83	H	1.412294	-0.629315	-0.282399
H84	H	1.912294	-0.129315	0.217601
H85	H	1.412749	-0.373084	-0.283086
H86	H	1.912749	0.126916	0.216914
H87	H	1.297101	-0.372089	-0.198004
H88	H	1.797101	0.127911	0.301996
H89	H	0.869411	0.147331	-0.258082
H90	H	1.369411	0.647331	0.241918
H91	H	1.372447	-0.372960	-0.023187
H92	H	1.872447	0.127040	0.476813
H93	H	1.088024	-0.149936	-0.262128
H94	H	1.588024	0.350064	0.237872
H95	H	1.541039	-0.370738	0.018572
H96	H	2.041039	0.129262	0.518572
H97	H	1.655313	-0.625478	-0.229227
H98	H	2.155313	-0.125478	0.270773
H99	H	1.549148	-0.626321	0.016536
H100	H	2.049148	-0.126321	0.516536
H101	H	0.916265	-0.101649	0.007224
H102	H	1.416265	0.398351	0.507224
H103	H	1.105880	-0.245651	-0.151371
H104	H	1.605880	0.254349	0.348629
H105	H	1.296564	-0.627518	-0.197926
H106	H	1.796564	-0.127518	0.302074
H107	H	1.711856	-0.626986	-0.106214
H108	H	2.211856	-0.126986	0.393786
H109	H	0.914664	0.099827	0.007055
H110	H	1.414664	0.599827	0.507055
H111	H	1.656436	-0.370366	-0.227898
H112	H	2.156436	0.129634	0.272102
H113	H	1.133194	0.101092	0.003035
H114	H	1.633194	0.601092	0.503035
H115	H	1.086226	0.146076	-0.263137
H116	H	1.586226	0.646076	0.236863
H117	H	0.890306	0.246221	-0.147913
H118	H	1.390306	0.746221	0.352087
H119	H	1.711848	-0.372555	-0.104977
H120	H	2.211848	0.127445	0.395023
