data_functionalizedCrystal
_audit_creation_method	'MofGen! by Chris Wilmer'
_symmetry_space_group_name_H-M	'P1'
_symmetry_Int_Tables_number	1
_symmetry_cell_setting	triclinic
loop_
_symmetry_equiv_pos_as_xyz
  x,y,z
_cell_length_a	15.625950
_cell_length_b	17.699083
_cell_length_c	16.176319
_cell_angle_alpha	90.005533
_cell_angle_beta	71.930347
_cell_angle_gamma	96.211973
loop_
_atom_site_label
_atom_site_type_symbol
_atom_site_fract_x
_atom_site_fract_y
_atom_site_fract_z
O1	O	1.195846	-0.098930	-0.289623
O2	O	0.933378	-0.110673	-0.210965
O3	O	1.072027	0.005367	-0.252523
O4	O	1.057197	-0.214971	-0.248064
O5	O	1.072014	0.005346	-0.390013
O6	O	0.933364	-0.110694	-0.348454
O7	O	1.195833	-0.098951	-0.427112
Cu8	Cu	1.064597	-0.104825	-0.400337
Cu9	Cu	1.064613	-0.104800	-0.237740
O10	O	1.057183	-0.214992	-0.385553
C11	C	0.899789	-0.110147	-0.269645
C12	C	0.799724	-0.108538	-0.239657
C13	C	0.470493	-0.103345	-0.515656
C14	C	0.376465	-0.101848	-0.487439
C15	C	0.376526	-0.101826	-0.337568
C16	C	0.470556	-0.103327	-0.365772
C17	C	0.517532	-0.104085	-0.454817
C18	C	0.517595	-0.104067	-0.304933
C19	C	0.611617	-0.105563	-0.333136
C20	C	0.658600	-0.106320	-0.422177
C21	C	0.611554	-0.105582	-0.483020
C22	C	0.470617	-0.103303	-0.215889
C23	C	0.517656	-0.104043	-0.155050
C24	C	0.611679	-0.105545	-0.183252
C25	C	0.658663	-0.106301	-0.272293
C26	C	0.658725	-0.106283	-0.122409
C27	C	0.752747	-0.107779	-0.150612
C28	C	0.752685	-0.107798	-0.300496
C29	C	1.071489	0.033555	-0.321109
C30	C	1.069895	0.117578	-0.320631
C31	C	1.229422	-0.099478	-0.368430
C32	C	1.329487	-0.101087	-0.398413
C33	C	1.057721	-0.243180	-0.316966
C34	C	1.059316	-0.327202	-0.317438
N35	N	1.064593	-0.104842	-0.514701
C36	C	1.151280	0.165979	-0.345023
C37	C	1.149776	0.244926	-0.344565
C38	C	1.066887	0.275471	-0.319721
C39	C	0.985497	0.227064	-0.295326
C40	C	0.987001	0.148118	-0.295778
C41	C	0.979428	0.545443	-0.293501
C42	C	0.977930	0.624395	-0.293053
C43	C	1.142203	0.642251	-0.342287
C44	C	1.143708	0.563306	-0.342739
C45	C	1.062317	0.514905	-0.318340
C46	C	1.063949	0.429302	-0.318835
C47	C	1.065255	0.361073	-0.319232
C48	C	1.010056	-0.058788	-1.063750
C49	C	1.010055	-0.058794	-0.977202
C50	C	1.064617	-0.104793	-0.950283
C51	C	1.119192	-0.150784	-1.009920
C52	C	1.119198	-0.150773	-1.096467
C53	C	1.119169	-0.150826	-0.660885
C54	C	1.119157	-0.150835	-0.574329
C55	C	1.010026	-0.058847	-0.541620
C56	C	1.010032	-0.058837	-0.628167
C57	C	1.064610	-0.104824	-0.687797
C58	C	1.064613	-0.104816	-0.781642
C59	C	1.064610	-0.104806	-0.856439
N60	N	1.064625	-0.104777	-0.123378
H61	H	0.649803	-0.106211	-0.555529
H62	H	0.918007	0.251939	-0.275093
H63	H	1.163610	-0.188272	-0.709425
O64	O	0.521173	-0.104167	-0.611698
H65	H	0.472671	-0.103399	-0.649270
H66	H	0.394058	-0.102088	-0.192929
H67	H	0.910428	0.649261	-0.272823
H68	H	0.913155	0.506044	-0.273633
O69	O	1.240683	0.133037	-0.371820
H70	H	1.245297	0.097496	-0.317167
H71	H	1.163591	-0.188295	-0.552417
O72	O	0.760011	-0.107933	-0.452597
H73	H	0.784773	-0.108331	-0.524735
H74	H	0.965620	-0.021335	-1.085658
H75	H	1.208475	0.681669	-0.362150
H76	H	1.163622	-0.188233	-0.987997
H77	H	0.791047	-0.108386	-0.101071
O78	O	0.325724	-0.101057	-0.553061
H79	H	0.374188	-0.101842	-0.619715
O80	O	0.608045	-0.105455	-0.026374
H81	H	0.634240	-0.054188	0.001700
O82	O	0.325858	-0.101013	-0.241528
H83	H	0.252574	-0.099853	-0.232136
H84	H	0.479396	-0.103422	-0.082549
H85	H	0.965599	-0.021383	-0.650078
O86	O	1.178049	-0.200378	-1.160786
H87	H	1.215982	-0.232372	-1.127527
H88	H	0.790934	-0.108427	-0.373005
O89	O	1.233108	0.530358	-0.369522
H90	H	1.289449	0.577279	-0.386395
O91	O	1.237554	0.297133	-0.370886
H92	H	1.295444	0.262630	-0.388251
O93	O	0.899223	0.095908	-0.269480
H94	H	0.841332	0.130409	-0.252138
O95	O	0.951193	-0.009199	-0.912884
H96	H	0.913243	0.022780	-0.946139
H97	H	0.965589	-0.021400	-0.493059
