data_functionalizedCrystal
_audit_creation_method	'MofGen! by Chris Wilmer'
_symmetry_space_group_name_H-M	'P1'
_symmetry_Int_Tables_number	1
_symmetry_cell_setting	triclinic
loop_
_symmetry_equiv_pos_as_xyz
  x,y,z
_cell_length_a	21.295418
_cell_length_b	21.295417
_cell_length_c	21.295411
_cell_angle_alpha	89.978356
_cell_angle_beta	90.043738
_cell_angle_gamma	89.953681
loop_
_atom_site_label
_atom_site_type_symbol
_atom_site_fract_x
_atom_site_fract_y
_atom_site_fract_z
Zn1	Zn	0.962356	0.250415	0.356234
Zn2	Zn	1.295689	0.583749	0.689567
Zn3	Zn	1.629022	0.917082	1.022900
Zn4	Zn	0.962258	0.355667	0.250959
Zn5	Zn	1.295592	0.689000	0.584292
Zn6	Zn	1.628925	1.022334	0.917626
Zn7	Zn	0.857079	0.250445	0.250943
Zn8	Zn	1.190412	0.583778	0.584277
Zn9	Zn	1.523746	0.917111	0.917610
Zn10	Zn	0.857048	0.355680	0.356155
Zn11	Zn	1.190382	0.689013	0.689489
Zn12	Zn	1.523715	1.022346	1.022822
O13	O	0.909685	0.303052	0.303573
O14	O	1.243019	0.636385	0.636906
O15	O	1.576352	0.969718	0.970240
O16	O	1.050432	0.264360	0.342308
O17	O	1.383766	0.597693	0.675641
O18	O	1.717099	0.931026	1.008975
O19	O	0.948278	0.341716	0.162867
O20	O	1.281611	0.675050	0.496201
O21	O	1.614945	1.008383	0.829534
O22	O	0.871098	0.162351	0.264937
O23	O	1.204431	0.495685	0.598270
O24	O	1.537764	0.829018	0.931603
O25	O	1.050361	0.341688	0.264963
O26	O	1.383694	0.675021	0.598296
O27	O	1.717027	1.008354	0.931630
O28	O	0.948444	0.162330	0.342293
O29	O	1.281778	0.495663	0.675626
O30	O	1.615111	0.828996	1.008960
O31	O	0.871003	0.264410	0.162856
O32	O	1.204337	0.597743	0.496189
O33	O	1.537670	0.931077	0.829523
O34	O	0.768985	0.264422	0.264861
O35	O	1.102319	0.597755	0.598194
O36	O	1.435652	0.931089	0.931527
O37	O	0.871046	0.341709	0.444255
O38	O	1.204379	0.675042	0.777589
O39	O	1.537712	1.008376	1.110922
O40	O	0.768963	0.341738	0.342160
O41	O	1.102296	0.675071	0.675493
O42	O	1.435630	1.008404	1.008826
O43	O	0.948415	0.264372	0.444313
O44	O	1.281748	0.597705	0.777646
O45	O	1.615081	0.931038	1.110979
O46	O	0.948248	0.443758	0.264887
O47	O	1.281582	0.777091	0.598221
O48	O	1.614915	1.110425	0.931554
O49	O	0.870951	0.443767	0.342175
O50	O	1.204284	0.777101	0.675508
O51	O	1.537618	1.110434	1.008841
C52	C	0.746134	0.303085	0.303500
C53	C	1.079467	0.636418	0.636834
C54	C	1.412800	0.969751	0.970167
C55	C	0.676166	0.303114	0.303484
C56	C	1.009499	0.636447	0.636818
C57	C	1.342832	0.969781	0.970151
C58	C	0.909603	0.466603	0.303538
C59	C	1.242936	0.799937	0.636871
C60	C	1.576269	1.133270	0.970205
C61	C	0.909625	0.536571	0.303544
C62	C	1.242958	0.869905	0.636877
C63	C	1.576292	1.203238	0.970211
C64	C	0.643304	0.343426	0.343674
C65	C	0.976637	0.676759	0.677007
C66	C	1.309970	1.010092	1.010340
C67	C	0.577561	0.343410	0.343702
C68	C	0.910894	0.676743	0.677035
C69	C	1.244228	1.010077	1.010369
C70	C	0.544683	0.303090	0.303530
C71	C	0.878016	0.636423	0.636863
C72	C	1.211350	0.969756	0.970196
C73	C	0.577553	0.262770	0.263337
C74	C	0.910886	0.596104	0.596671
C75	C	1.244220	0.929437	0.930004
C76	C	0.643294	0.262783	0.263315
C77	C	0.976627	0.596116	0.596648
C78	C	1.309961	0.929449	0.929982
N79	N	0.441407	0.298163	0.248472
N80	N	0.774740	0.631496	0.581805
N81	N	1.108074	0.964829	0.915139
N82	N	0.378956	0.298155	0.248495
N83	N	0.712289	0.631488	0.581829
N84	N	1.045622	0.964821	0.915162
C85	C	0.346608	0.303050	0.303596
C86	C	0.679942	0.636383	0.636930
C87	C	1.013275	0.969716	0.970263
N88	N	0.379072	0.307965	0.358675
N89	N	0.712405	0.641298	0.692008
N90	N	1.045739	0.974632	1.025341
N91	N	0.441529	0.307976	0.358650
N92	N	0.774862	0.641309	0.691984
N93	N	1.108196	0.974643	1.025317
C94	C	0.473398	0.303072	0.303550
C95	C	0.806731	0.636405	0.636883
C96	C	1.140064	0.969738	0.970217
C97	C	0.242461	0.343346	0.343820
C98	C	0.575794	0.676680	0.677153
C99	C	0.909128	1.010013	1.010486
C100	C	0.176717	0.343326	0.343849
C101	C	0.510051	0.676660	0.677182
C102	C	0.843384	1.009993	1.010516
C103	C	0.176710	0.262690	0.263479
C104	C	0.510044	0.596023	0.596812
C105	C	0.843377	0.929357	0.930146
C106	C	0.242453	0.262707	0.263455
C107	C	0.575786	0.596040	0.596789
C108	C	0.909119	0.929373	0.930122
C109	C	0.275324	0.303038	0.303625
C110	C	0.608657	0.636372	0.636958
C111	C	0.941991	0.969705	0.970291
C112	C	0.909738	0.303038	0.467763
C113	C	1.243071	0.636372	0.801097
C114	C	1.576404	0.969705	1.134430
C115	C	0.909760	0.303033	0.537731
C116	C	1.243093	0.636366	0.871065
C117	C	1.576427	0.969699	1.204398
C118	C	1.073876	0.303019	0.303646
C119	C	1.407209	0.636352	0.636979
C120	C	1.740542	0.969686	0.970313
C121	C	1.143844	0.303005	0.303677
C122	C	1.477177	0.636338	0.637010
C123	C	1.810510	0.969672	0.970344
C124	C	0.909785	0.138861	0.303622
C125	C	1.243119	0.472195	0.636955
C126	C	1.576452	0.805528	0.970288
C127	C	0.909828	0.068893	0.303642
C128	C	1.243161	0.402227	0.636976
C129	C	1.576495	0.735560	0.970309
C130	C	0.949910	0.569412	0.263342
C131	C	1.283243	0.902746	0.596675
C132	C	1.616576	1.236079	0.930009
C133	C	0.949939	0.635155	0.263356
C134	C	1.283272	0.968488	0.596689
C135	C	1.616606	1.301822	0.930023
C136	C	0.909673	0.668054	0.303566
C137	C	1.243006	1.001387	0.636899
C138	C	1.576340	1.334721	0.970233
C139	C	0.869386	0.635205	0.343776
C140	C	1.202719	0.968538	0.677109
C141	C	1.536052	1.301872	1.010443
C142	C	0.869362	0.569464	0.343765
C143	C	1.202695	0.902797	0.677098
C144	C	1.536028	1.236130	1.010432
N145	N	0.854606	0.771336	0.308340
N146	N	1.187939	1.104669	0.641674
N147	N	1.521272	1.438002	0.975007
N148	N	0.854630	0.833787	0.308347
N149	N	1.187964	1.167120	0.641680
N150	N	1.521297	1.500454	0.975014
C151	C	0.909743	0.866129	0.303602
C152	C	1.243077	1.199462	0.636935
C153	C	1.576410	1.532795	0.970269
N154	N	0.964832	0.833659	0.298838
N155	N	1.298166	1.166993	0.632171
N156	N	1.631499	1.500326	0.965504
N157	N	0.964807	0.771202	0.298828
N158	N	1.298140	1.104535	0.632161
N159	N	1.631474	1.437869	0.965494
C160	C	0.909695	0.739339	0.303582
C161	C	1.243028	1.072673	0.636916
C162	C	1.576361	1.406006	0.970249
C163	C	0.950063	0.970255	0.263413
C164	C	1.283397	1.303588	0.596746
C165	C	1.616730	1.636922	0.930080
C166	C	0.950094	1.035999	0.263431
C167	C	1.283427	1.369332	0.596765
C168	C	1.616760	1.702665	0.930098
C169	C	0.869535	1.036048	0.343848
C170	C	1.202868	1.369381	0.677181
C171	C	1.536201	1.702714	1.010515
C172	C	0.869510	0.970305	0.343833
C173	C	1.202843	1.303638	0.677166
C174	C	1.536176	1.636972	1.010500
C175	C	0.909773	0.937413	0.303612
C176	C	1.243106	1.270746	0.636945
C177	C	1.576440	1.604079	0.970279
C178	C	0.909670	0.303019	0.140021
C179	C	1.243003	0.636353	0.473355
C180	C	1.576336	0.969686	0.806688
C181	C	0.909769	0.302848	0.070054
C182	C	1.243103	0.636181	0.403387
C183	C	1.576436	0.969514	0.736720
C184	C	0.950044	0.262761	0.570629
C185	C	1.283377	0.596095	0.903962
C186	C	1.616711	0.929428	1.237296
C187	C	0.950043	0.262734	0.636371
C188	C	1.283377	0.596067	0.969705
C189	C	1.616710	0.929401	1.303038
C190	C	0.909765	0.302989	0.669214
C191	C	1.243098	0.636323	1.002547
C192	C	1.576431	0.969656	1.335881
C193	C	0.869473	0.343263	0.636308
C194	C	1.202806	0.676597	0.969642
C195	C	1.536139	1.009930	1.302975
C196	C	0.869470	0.343285	0.570567
C197	C	1.202804	0.676618	0.903900
C198	C	1.536137	1.009952	1.237234
N199	N	0.904908	0.358058	0.772428
N200	N	1.238241	0.691392	1.105761
N201	N	1.571575	1.024725	1.439094
N202	N	0.904914	0.358036	0.834879
N203	N	1.238247	0.691369	1.168213
N204	N	1.571581	1.024703	1.501546
C205	C	0.909769	0.302926	0.867289
C206	C	1.243102	0.636259	1.200622
C207	C	1.576435	0.969592	1.533955
N208	N	0.914629	0.247837	0.834888
N209	N	1.247963	0.581170	1.168221
N210	N	1.581296	0.914504	1.501554
N211	N	0.914627	0.247860	0.772430
N212	N	1.247960	0.581193	1.105764
N213	N	1.581293	0.914527	1.439097
C214	C	0.909763	0.302970	0.740499
C215	C	1.243096	0.636303	1.073833
C216	C	1.576429	0.969637	1.407166
C217	C	0.950054	0.262621	0.971472
C218	C	1.283388	0.595955	1.304805
C219	C	1.616721	0.929288	1.638139
C220	C	0.950049	0.262593	1.037216
C221	C	1.283382	0.595926	1.370549
C222	C	1.616716	0.929260	1.703882
C223	C	0.869482	0.343128	1.037151
C224	C	1.202815	0.676461	1.370485
C225	C	1.536148	1.009795	1.703818
C226	C	0.869484	0.343151	0.971409
C227	C	1.202817	0.676484	1.304742
C228	C	1.536150	1.009817	1.638076
C229	C	0.909773	0.302898	0.938573
C230	C	1.243107	0.636231	1.271906
C231	C	1.576440	0.969565	1.605240
H232	H	0.670063	0.376266	0.376384
H233	H	1.003397	0.709599	0.709717
H234	H	1.336730	1.042932	1.043050
C235	C	0.825093	0.671391	0.388004
C236	C	1.158426	1.004724	0.721338
C237	C	1.491760	1.338058	1.054671
H238	H	0.830872	0.715248	0.382249
H239	H	1.164205	1.048581	0.715582
H240	H	1.497538	1.381915	1.048915
H241	H	0.834280	0.660585	0.430310
H242	H	1.167613	0.993918	0.763643
H243	H	1.500947	1.327252	1.096976
H244	H	0.782796	0.660670	0.378733
H245	H	1.116130	0.994003	0.712066
H246	H	1.449463	1.327337	1.045400
H247	H	0.149962	0.376152	0.376580
H248	H	0.483296	0.709485	0.709913
H249	H	0.816629	1.042818	1.043247
H250	H	0.550779	0.229940	0.230630
H251	H	0.884113	0.563273	0.563963
H252	H	1.217446	0.896607	0.897297
H253	H	0.269209	0.229884	0.230726
H254	H	0.602543	0.563217	0.564059
H255	H	0.935876	0.896550	0.897392
H256	H	0.149942	0.229857	0.230773
H257	H	0.483275	0.563191	0.564106
H258	H	0.816608	0.896524	0.897440
H259	H	0.836663	0.376078	0.543782
H260	H	1.169996	0.709411	0.877116
H261	H	1.503330	1.042745	1.210449
H262	H	0.550800	0.376236	0.376431
H263	H	0.884133	0.709570	0.709765
H264	H	1.217466	1.042903	1.043098
C265	C	0.994204	0.533234	0.219108
C266	C	1.327538	0.866568	0.552441
C267	C	1.660871	1.199901	0.885774
H268	H	1.018205	0.562213	0.195171
H269	H	1.351538	0.895546	0.528504
H270	H	1.684872	1.228879	0.861837
H271	H	0.970132	0.507629	0.191645
H272	H	1.303465	0.840962	0.524979
H273	H	1.636799	1.174295	0.858312
H274	H	1.021614	0.507547	0.243224
H275	H	1.354948	0.840880	0.576557
H276	H	1.688281	1.174214	0.909890
H277	H	0.982846	0.229937	0.663162
H278	H	1.316180	0.563270	0.996495
H279	H	1.649513	0.896604	1.329829
C280	C	0.679444	0.218441	0.219101
C281	C	1.012777	0.551775	0.552435
C282	C	1.346110	0.885108	0.885768
H283	H	0.650450	0.194427	0.195177
H284	H	0.983783	0.527760	0.528510
H285	H	1.317116	0.861093	0.861844
H286	H	0.705147	0.191056	0.243222
H287	H	1.038480	0.524390	0.576555
H288	H	1.371813	0.857723	0.909888
H289	H	0.705031	0.242492	0.191617
H290	H	1.038365	0.575825	0.524950
H291	H	1.371698	0.909158	0.858283
H292	H	0.836683	0.375948	0.944623
H293	H	1.170017	0.709281	1.277957
H294	H	1.503350	1.042614	1.611290
H295	H	0.269226	0.376183	0.376531
H296	H	0.602560	0.709517	0.709865
H297	H	0.935893	1.042850	1.043198
H298	H	0.982746	0.661899	0.230619
H299	H	1.316079	0.995233	0.563952
H300	H	1.649412	1.328566	0.897285
H301	H	0.836557	0.542724	0.376503
H302	H	1.169890	0.876057	0.709837
H303	H	1.503223	1.209391	1.043170
C304	C	0.994357	0.934071	0.219180
C305	C	1.327690	1.267404	0.552513
C306	C	1.661023	1.600737	0.885846
H307	H	1.018361	0.963048	0.195245
H308	H	1.351694	1.296382	0.528578
H309	H	1.685028	1.629715	0.861911
H310	H	0.970283	0.908469	0.191715
H311	H	1.303616	1.241802	0.525049
H312	H	1.636949	1.575136	0.858382
H313	H	1.021764	0.908380	0.243295
H314	H	1.355097	1.241713	0.576628
H315	H	1.688430	1.575046	0.909962
H316	H	0.982902	1.062737	0.230695
H317	H	1.316235	1.396070	0.564029
H318	H	1.649569	1.729403	0.897362
C319	C	0.994353	0.218480	0.534510
C320	C	1.327686	0.551813	0.867843
C321	C	1.661020	0.885147	1.201177
H322	H	0.988586	0.224262	0.490644
H323	H	1.321919	0.557595	0.823978
H324	H	1.655253	0.890928	1.157311
H325	H	0.985167	0.176184	0.545282
H326	H	1.318500	0.509517	0.878615
H327	H	1.651834	0.842851	1.211949
H328	H	1.036646	0.227685	0.545313
H329	H	1.369979	0.561018	0.878647
H330	H	1.703312	0.894352	1.211980
C331	C	0.994359	0.218336	0.935350
C332	C	1.327693	0.551669	1.268683
C333	C	1.661026	0.885003	1.602017
H334	H	1.018344	0.194339	0.964361
H335	H	1.351677	0.527672	1.297694
H336	H	1.685010	0.861005	1.631028
H337	H	1.021775	0.242414	0.909722
H338	H	1.355108	0.575747	1.243055
H339	H	1.688441	0.909080	1.576389
H340	H	0.970286	0.190922	0.909690
H341	H	1.303620	0.524256	1.243023
H342	H	1.636953	0.857589	1.576356
H343	H	0.836752	1.062833	0.376591
H344	H	1.170085	1.396167	0.709924
H345	H	1.503419	1.729500	1.043257
C346	C	0.994364	0.218292	1.073403
C347	C	1.327698	0.551626	1.406737
C348	C	1.661031	0.884959	1.740070
H349	H	1.018361	0.194329	1.044429
H350	H	1.351695	0.527662	1.377763
H351	H	1.685028	0.860996	1.711096
H352	H	0.970306	0.190858	1.099032
H353	H	1.303639	0.524191	1.432365
H354	H	1.636972	0.857524	1.765699
H355	H	1.021777	0.242366	1.099068
H356	H	1.355111	0.575699	1.432401
H357	H	1.688444	0.909032	1.765735
H358	H	0.836704	0.943564	0.376567
H359	H	1.170037	1.276898	0.709900
H360	H	1.503370	1.610231	1.043233
C361	C	0.825170	0.387546	0.672432
C362	C	1.158504	0.720879	1.005766
C363	C	1.491837	1.054213	1.339099
H364	H	0.830946	0.381771	0.716298
H365	H	1.164280	0.715104	1.049631
H366	H	1.497613	1.048437	1.382964
H367	H	0.782880	0.378347	0.661631
H368	H	1.116213	0.711681	0.994964
H369	H	1.449546	1.045014	1.328297
H370	H	0.834362	0.429844	0.661660
H371	H	1.167696	0.763178	0.994994
H372	H	1.501029	1.096511	1.328327
H373	H	0.836680	0.375898	1.063891
H374	H	1.170013	0.709231	1.397224
H375	H	1.503346	1.042565	1.730558
