data_functionalizedCrystal
_audit_creation_method	'MofGen! by Chris Wilmer'
_symmetry_space_group_name_H-M	'P1'
_symmetry_Int_Tables_number	1
_symmetry_cell_setting	triclinic
loop_
_symmetry_equiv_pos_as_xyz
  x,y,z
_cell_length_a	12.645330
_cell_length_b	12.645331
_cell_length_c	14.908404
_cell_angle_alpha	93.273022
_cell_angle_beta	93.348999
_cell_angle_gamma	89.981897
loop_
_atom_site_label
_atom_site_type_symbol
_atom_site_fract_x
_atom_site_fract_y
_atom_site_fract_z
Zn1	Zn	-0.387163	-1.586222	0.510043
Zn2	Zn	0.112837	-1.086222	1.010043
Zn3	Zn	-0.574760	-1.596310	0.359187
Zn4	Zn	-0.074760	-1.096310	0.859187
Zn5	Zn	-0.397511	-1.419142	0.359203
Zn6	Zn	0.102489	-0.919142	0.859203
Zn7	Zn	-0.564387	-1.408920	0.510017
Zn8	Zn	-0.064387	-0.908920	1.010017
O9	O	-0.480955	-1.502649	0.434612
O10	O	0.019045	-1.002649	0.934612
O11	O	-0.412058	-1.735907	0.490035
O12	O	0.087942	-1.235907	0.990035
O13	O	-0.559920	-1.581309	0.232939
O14	O	-0.059920	-1.081309	0.732939
O15	O	-0.247790	-1.441362	0.379229
O16	O	0.252210	-0.941362	0.879229
O17	O	-0.549885	-1.743319	0.379202
O18	O	-0.049885	-1.243319	0.879202
O19	O	-0.240187	-1.564114	0.490051
O20	O	0.259813	-1.064114	0.990051
O21	O	-0.429696	-1.451144	0.232951
O22	O	0.070304	-0.951144	0.732951
O23	O	-0.419638	-1.269439	0.379205
O24	O	0.080362	-0.769439	0.879205
O25	O	-0.532206	-1.423939	0.636271
O26	O	-0.032206	-0.923939	1.136271
O27	O	-0.542241	-1.261929	0.490007
O28	O	-0.042241	-0.761929	0.990007
O29	O	-0.402000	-1.554202	0.636290
O30	O	0.098000	-1.054202	1.136290
O31	O	-0.721733	-1.571397	0.379177
O32	O	-0.221733	-1.071397	0.879177
O33	O	-0.714112	-1.433722	0.489992
O34	O	-0.214112	-0.933722	0.989992
C35	C	-0.756386	-1.502572	0.434600
C36	C	-0.256386	-1.002572	0.934600
C37	C	-0.874214	-1.502634	0.434625
C38	C	-0.374214	-1.002634	0.934625
C39	C	-0.480938	-1.227219	0.434605
C40	C	0.019062	-0.727219	0.934605
C41	C	-0.480954	-1.109388	0.434624
C42	C	0.019046	-0.609388	0.934624
C43	C	-0.480974	-1.779153	0.434620
C44	C	0.019026	-1.279153	0.934620
C45	C	-0.480982	-1.896983	0.434623
C46	C	0.019018	-1.396983	0.934623
C47	C	-1.037013	-1.416346	0.504553
C48	C	-0.537013	-0.916346	1.004553
C49	C	-0.914469	-1.415944	0.504328
C50	C	-0.414469	-0.915944	1.004328
C51	C	-0.925306	-1.478822	0.339546
C52	C	-0.425306	-0.978822	0.839546
C53	C	-1.047876	-1.478295	0.339971
C54	C	-0.547876	-0.978295	0.839971
C55	C	-1.039637	-1.613286	0.459003
C56	C	-0.539637	-1.113286	0.959003
C57	C	-0.916888	-1.612457	0.461082
C58	C	-0.416888	-1.112457	0.961082
C59	C	-0.204448	-1.502753	0.434645
C60	C	0.295552	-1.002753	0.934645
C61	C	-0.086617	-1.502797	0.434659
C62	C	0.413383	-1.002797	0.934659
C63	C	-0.558230	-1.059824	0.504228
C64	C	-0.058230	-0.559824	1.004228
C65	C	-0.558581	-0.937278	0.504021
C66	C	-0.058581	-0.437278	1.004021
C67	C	-0.517298	-0.947875	0.339429
C68	C	-0.017298	-0.447875	0.839429
C69	C	-0.517850	-1.070446	0.339832
C70	C	-0.017850	-0.570446	0.839832
C71	C	-0.367216	-1.062567	0.459383
C72	C	0.132784	-0.562567	0.959383
C73	C	-0.367692	-0.939820	0.461479
C74	C	0.132308	-0.439820	0.961479
C75	C	-0.496980	-1.518491	0.200210
C76	C	0.003020	-1.018491	0.700210
C77	C	-0.503569	-1.525448	0.099931
C78	C	-0.003569	-1.025448	0.599931
C79	C	-0.381307	-1.401996	-0.088403
C80	C	0.118693	-0.901996	0.411597
C81	C	-0.387495	-1.408529	-0.182624
C82	C	0.112505	-0.908529	0.317376
C83	C	-0.522127	-1.545052	-0.182731
C84	C	-0.022127	-1.045052	0.317269
C85	C	-0.515939	-1.538519	-0.088511
C86	C	-0.015939	-1.038519	0.411489
C87	C	-0.445528	-1.466987	-0.041350
C88	C	0.054472	-0.966987	0.458650
C89	C	-0.439346	-1.460450	0.052872
C90	C	0.060654	-0.960450	0.552872
C91	C	-0.573972	-1.596978	0.052763
C92	C	-0.073972	-1.096978	0.552763
C93	C	-0.580160	-1.603511	-0.041457
C94	C	-0.080160	-1.103511	0.458543
C95	C	-0.464791	-1.486805	0.669931
C96	C	0.035209	-0.986805	1.169931
C97	C	-0.457903	-1.480054	0.770209
C98	C	0.042097	-0.980054	1.270209
H99	H	-0.879497	-1.430098	0.574828
H100	H	-0.379497	-0.930098	1.074828
H101	H	-0.535010	-1.084552	0.575021
H102	H	-0.035010	-0.584552	1.075021
Br103	Br	-0.656726	-1.120420	0.304974
Br104	Br	-0.156726	-0.620420	0.804974
H105	H	-0.626260	-1.649904	0.091084
H106	H	-0.126260	-1.149904	0.591084
H107	H	-1.077977	-1.397719	0.319347
H108	H	-0.577977	-0.897719	0.819347
Br109	Br	-0.300329	-1.320328	-0.246480
Br110	Br	0.199671	-0.820328	0.253520
Br111	Br	-0.271131	-1.116623	0.374892
Br112	Br	0.228869	-0.616623	0.874892
Br113	Br	-0.285749	-1.304925	-0.024396
Br114	Br	0.214251	-0.804925	0.475604
H115	H	-0.641894	-1.091699	0.488001
H116	H	-0.141894	-0.591699	0.988001
H117	H	-0.599752	-0.918586	0.318146
H118	H	-0.099752	-0.418586	0.818146
H119	H	-0.382014	-1.402204	0.091268
H120	H	0.117986	-0.902204	0.591268
Br121	Br	-0.867570	-1.279201	0.477454
Br122	Br	-0.367570	-0.779201	0.977454
Br123	Br	-1.077979	-1.439612	0.622449
Br124	Br	-0.577979	-0.939612	1.122449
Br125	Br	-1.103447	-1.579259	0.250209
Br126	Br	-0.603447	-1.079259	0.750209
H127	H	-0.579445	-1.603297	-0.221145
H128	H	-0.079445	-1.103297	0.278855
Br129	Br	-0.698854	-0.890186	0.476673
Br130	Br	-0.198854	-0.390186	0.976673
H131	H	-0.882955	-1.630532	0.531055
H132	H	-0.382955	-1.130532	1.031055
Br133	Br	-1.090356	-1.280450	0.478040
Br134	Br	-0.590356	-0.780450	0.978040
H135	H	-1.065823	-1.636265	0.527156
H136	H	-0.565823	-1.136265	1.027156
Br137	Br	-0.426842	-0.905318	0.250612
Br138	Br	0.073158	-0.405318	0.750612
H139	H	-0.899804	-1.540077	0.286047
H140	H	-0.399804	-1.040077	0.786047
H141	H	-0.340416	-0.906031	0.531537
H142	H	0.159584	-0.406031	1.031537
H143	H	-0.896131	-1.399125	0.318549
H144	H	-0.396131	-0.899125	0.818549
H145	H	-0.889463	-1.679744	0.413882
H146	H	-0.389463	-1.179744	0.913882
H147	H	-1.072103	-1.677615	0.408096
H148	H	-0.572103	-1.177615	0.908096
H149	H	-0.535162	-0.902450	0.574595
H150	H	-0.035162	-0.402450	1.074595
Br151	Br	-0.428671	-1.125957	0.250404
Br152	Br	0.071329	-0.625957	0.750404
Br153	Br	-0.675704	-1.700593	-0.105469
Br154	Br	-0.175704	-1.200593	0.394531
Br155	Br	-0.314042	-1.106463	0.573131
Br156	Br	0.185958	-0.606463	1.073131
Br157	Br	-0.265788	-0.894060	0.383219
Br158	Br	0.234212	-0.394060	0.883219
