data_functionalizedCrystal
_audit_creation_method	'MofGen! by Chris Wilmer'
_symmetry_space_group_name_H-M	'P1'
_symmetry_Int_Tables_number	1
_symmetry_cell_setting	triclinic
loop_
_symmetry_equiv_pos_as_xyz
  x,y,z
_cell_length_a	14.971506
_cell_length_b	14.971486
_cell_length_c	14.048226
_cell_angle_alpha	89.996181
_cell_angle_beta	90.005155
_cell_angle_gamma	96.381742
loop_
_atom_site_label
_atom_site_type_symbol
_atom_site_fract_x
_atom_site_fract_y
_atom_site_fract_z
O1	O	1.186934	-0.116647	0.079168
O2	O	1.520267	0.216686	0.412501
O3	O	1.853601	0.550019	0.745834
O4	O	0.926536	-0.130587	0.079168
O5	O	1.259870	0.202746	0.412502
O6	O	1.593203	0.536080	0.745835
O7	O	1.063715	0.006582	0.079161
O8	O	1.397048	0.339916	0.412495
O9	O	1.730381	0.673249	0.745828
O10	O	1.049756	-0.253817	0.079175
O11	O	1.383089	0.079517	0.412508
O12	O	1.716423	0.412850	0.745841
O13	O	1.063702	0.006584	-0.079160
O14	O	1.397035	0.339917	0.254173
O15	O	1.730368	0.673250	0.587507
O16	O	0.926523	-0.130586	-0.079153
O17	O	1.259857	0.202747	0.254180
O18	O	1.593190	0.536081	0.587514
O19	O	1.186921	-0.116646	-0.079154
O20	O	1.520254	0.216687	0.254180
O21	O	1.853588	0.550021	0.587513
Zn22	Zn	1.056720	-0.123616	-0.104290
Zn23	Zn	1.390053	0.209718	0.229043
Zn24	Zn	1.723387	0.543051	0.562376
Zn25	Zn	1.056737	-0.123617	0.104305
Zn26	Zn	1.390071	0.209716	0.437638
Zn27	Zn	1.723404	0.543049	0.770972
O28	O	1.049743	-0.253816	-0.079147
O29	O	1.383076	0.079518	0.254187
O30	O	1.716410	0.412851	0.587520
C31	C	0.893205	-0.129960	0.000008
C32	C	1.226539	0.203373	0.333341
C33	C	1.559872	0.536707	0.666674
C34	C	0.793909	-0.128082	0.000008
C35	C	1.127243	0.205251	0.333341
C36	C	1.460576	0.538585	0.666674
C37	C	1.063084	0.039908	0.000001
C38	C	1.396417	0.373241	0.333334
C39	C	1.729751	0.706574	0.666668
C40	C	1.061213	0.139205	0.000002
C41	C	1.394546	0.472538	0.333335
C42	C	1.727880	0.805872	0.666668
C43	C	0.355627	-0.201500	0.000021
C44	C	0.688960	0.131833	0.333355
C45	C	1.022294	0.465167	0.666688
C46	C	0.448927	-0.203258	0.000025
C47	C	0.782260	0.130076	0.333359
C48	C	1.115594	0.463409	0.666692
C49	C	0.506147	-0.122665	0.000017
C50	C	0.839480	0.210668	0.333350
C51	C	1.172814	0.544001	0.666684
C52	C	0.470062	-0.040310	0.000014
C53	C	0.803396	0.293023	0.333347
C54	C	1.136729	0.626357	0.666681
C55	C	0.376764	-0.038553	0.000017
C56	C	0.710097	0.294780	0.333350
C57	C	1.043431	0.628113	0.666683
C58	C	0.664525	-0.043977	0.000006
C59	C	0.997859	0.289356	0.333340
C60	C	1.331192	0.622690	0.666673
C61	C	0.757831	-0.045733	0.000002
C62	C	1.091164	0.287600	0.333335
C63	C	1.424497	0.620934	0.666668
C64	C	0.736689	-0.208681	0.000015
C65	C	1.070022	0.124652	0.333348
C66	C	1.403355	0.457986	0.666682
C67	C	0.643390	-0.206924	0.000018
C68	C	0.976723	0.126409	0.333351
C69	C	1.310057	0.459742	0.666684
C70	C	0.607312	-0.124569	0.000013
C71	C	0.940645	0.208764	0.333346
C72	C	1.273979	0.542098	0.666680
C73	C	1.220252	-0.117273	0.000009
C74	C	1.553585	0.216060	0.333343
C75	C	1.886919	0.549393	0.666676
C76	C	1.319548	-0.119151	0.000015
C77	C	1.652881	0.214182	0.333349
C78	C	1.986215	0.547515	0.666682
C79	C	1.050374	-0.287141	0.000016
C80	C	1.383707	0.046192	0.333349
C81	C	1.717040	0.379526	0.666683
C82	C	1.052244	-0.386438	0.000021
C83	C	1.385578	-0.053105	0.333355
C84	C	1.718911	0.280229	0.666688
N85	N	1.056715	-0.123614	-0.246651
N86	N	1.390048	0.209719	0.086682
N87	N	1.723381	0.543052	0.420016
C88	C	1.141802	0.196424	0.000001
C89	C	1.475135	0.529758	0.333334
C90	C	1.808468	0.863091	0.666668
C91	C	1.140038	0.289724	0.000010
C92	C	1.473372	0.623057	0.333344
C93	C	1.806705	0.956391	0.666677
C94	C	1.057686	0.325802	0.000014
C95	C	1.391019	0.659136	0.333347
C96	C	1.724353	0.992469	0.666681
C97	C	0.977091	0.268575	0.000018
C98	C	1.310425	0.601909	0.333351
C99	C	1.643758	0.935242	0.666684
C100	C	0.978855	0.175278	0.000015
C101	C	1.312189	0.508611	0.333348
C102	C	1.645522	0.841944	0.666682
C103	C	0.973420	0.463038	0.000021
C104	C	1.306754	0.796372	0.333355
C105	C	1.640087	1.129705	0.666688
C106	C	0.971656	0.556342	0.000022
C107	C	1.304989	0.889676	0.333356
C108	C	1.638323	1.223009	0.666689
C109	C	1.134603	0.577485	0.000017
C110	C	1.467937	0.910818	0.333350
C111	C	1.801270	1.244151	0.666683
C112	C	1.136367	0.484187	0.000014
C113	C	1.469701	0.817520	0.333347
C114	C	1.803034	1.150853	0.666681
C115	C	1.055772	0.426966	0.000016
C116	C	1.389106	0.760300	0.333349
C117	C	1.722439	1.093633	0.666682
C118	C	1.111017	-0.177959	-0.296462
C119	C	1.444350	0.155374	0.036871
C120	C	1.777683	0.488707	0.370205
C121	C	1.111028	-0.177955	-0.396120
C122	C	1.444362	0.155378	-0.062786
C123	C	1.777695	0.488711	0.270547
C124	C	1.056732	-0.123611	-0.445964
C125	C	1.390066	0.209723	-0.112631
C126	C	1.723399	0.543056	0.220702
C127	C	1.002428	-0.069259	-0.396146
C128	C	1.335762	0.264074	-0.062813
C129	C	1.669095	0.597407	0.270520
C130	C	1.002422	-0.069259	-0.296491
C131	C	1.335756	0.264074	0.036843
C132	C	1.669089	0.597408	0.370176
C133	C	1.002443	-0.069265	-0.603861
C134	C	1.335776	0.264068	-0.270527
C135	C	1.669110	0.597401	0.062806
C136	C	1.002448	-0.069267	-0.703523
C137	C	1.335781	0.264067	-0.370190
C138	C	1.669114	0.597400	-0.036857
C139	C	1.111049	-0.177962	-0.703490
C140	C	1.444383	0.155371	-0.370156
C141	C	1.777716	0.488705	-0.036823
C142	C	1.111043	-0.177962	-0.603834
C143	C	1.444377	0.155372	-0.270500
C144	C	1.777710	0.488705	0.062833
C145	C	1.056738	-0.123611	-0.554023
C146	C	1.390071	0.209722	-0.220689
C147	C	1.723404	0.543055	0.112644
N148	N	1.056750	-0.123612	0.246666
N149	N	1.390083	0.209721	0.579999
N150	N	1.723416	0.543055	0.913332
H151	H	0.309044	-0.267128	0.000021
H152	H	0.642377	0.066205	0.333354
H153	H	0.975711	0.399539	0.666688
H154	H	1.155251	-0.222218	-0.563253
H155	H	1.488585	0.111115	-0.229920
H156	H	1.821918	0.444449	0.103414
H157	H	0.478297	-0.270314	0.000039
H158	H	0.811631	0.063019	0.333372
H159	H	1.144964	0.396353	0.666706
F160	F	0.889445	0.306975	0.000032
F161	F	1.222779	0.640308	0.333366
F162	F	1.556112	0.973642	0.666699
F163	F	0.626131	0.043676	-0.000003
F164	F	0.959465	0.377009	0.333331
F165	F	1.292798	0.710342	0.666664
F166	F	0.884007	0.594738	0.000025
F167	F	1.217341	0.928071	0.333358
F168	F	1.550674	1.261404	0.666692
H169	H	1.155263	-0.222219	-0.744051
H170	H	1.488597	0.111114	-0.410717
H171	H	1.821930	0.444447	-0.077384
F172	F	1.225812	0.350618	0.000008
F173	F	1.559145	0.683951	0.333341
F174	F	1.892479	1.017284	0.666674
F175	F	0.818727	0.040042	-0.000001
F176	F	1.152060	0.373375	0.333332
F177	F	1.485394	0.706709	0.666665
H178	H	1.155248	-0.222207	-0.436671
H179	H	1.488581	0.111126	-0.103338
H180	H	1.821915	0.444460	0.229995
F181	F	0.530963	0.045463	0.000008
F182	F	0.864296	0.378796	0.333342
F183	F	1.197629	0.712129	0.666675
H184	H	1.155226	-0.222219	-0.255885
H185	H	1.488559	0.111115	0.077448
H186	H	1.821892	0.444448	0.410781
F187	F	0.893082	0.114380	0.000019
F188	F	1.226415	0.447714	0.333352
F189	F	1.559749	0.781047	0.666685
H190	H	0.958234	-0.025016	-0.744104
H191	H	1.291567	0.308318	-0.410771
H192	H	1.624901	0.641651	-0.077438
H193	H	0.596803	-0.272550	0.000018
H194	H	0.930137	0.060783	0.333352
H195	H	1.263470	0.394117	0.666685
H196	H	1.200227	0.624078	0.000018
H197	H	1.533560	0.957412	0.333351
H198	H	1.866894	1.290745	0.666685
F199	F	0.775086	-0.296330	0.000012
F200	F	1.108419	0.037003	0.333345
F201	F	1.441753	0.370336	0.666679
H202	H	0.958223	-0.025006	-0.563307
H203	H	1.291556	0.308327	-0.229974
H204	H	1.624890	0.641660	0.103359
H205	H	0.958204	-0.025006	-0.255936
H206	H	1.291537	0.308327	0.077398
H207	H	1.624870	0.641661	0.410731
F208	F	0.338367	0.049093	0.000010
F209	F	0.671701	0.382427	0.333344
F210	F	1.005034	0.715760	0.666677
F211	F	1.229454	0.158036	-0.000012
F212	F	1.562787	0.491370	0.333321
F213	F	1.896120	0.824703	0.666654
H214	H	1.203426	0.454815	0.000004
H215	H	1.536759	0.788149	0.333337
H216	H	1.870093	1.121482	0.666671
H217	H	0.958224	-0.025006	-0.436738
H218	H	1.291557	0.308327	-0.103405
H219	H	1.624891	0.641660	0.229929
H220	H	0.907791	0.416451	0.000025
H221	H	1.241124	0.749784	0.333359
H222	H	1.574458	1.083118	0.666692
