data_functionalizedCrystal
_audit_creation_method	'MofGen! by Chris Wilmer'
_symmetry_space_group_name_H-M	'P1'
_symmetry_Int_Tables_number	1
_symmetry_cell_setting	triclinic
loop_
_symmetry_equiv_pos_as_xyz
  x,y,z
_cell_length_a	25.639242
_cell_length_b	29.839131
_cell_length_c	25.639233
_cell_angle_alpha	89.980415
_cell_angle_beta	89.977834
_cell_angle_gamma	90.036947
loop_
_atom_site_label
_atom_site_type_symbol
_atom_site_fract_x
_atom_site_fract_y
_atom_site_fract_z
Zn1	Zn	0.799215	-0.178962	-0.295739
Zn2	Zn	0.799134	-0.254076	-0.208302
Zn3	Zn	0.711791	-0.178955	-0.208303
Zn4	Zn	0.711732	-0.254059	-0.295692
O5	O	0.755468	-0.216513	-0.252009
O6	O	0.872370	-0.188935	-0.284160
O7	O	0.787539	-0.244115	-0.135137
O8	O	0.723447	-0.116089	-0.219922
O9	O	0.872310	-0.244122	-0.219920
O10	O	0.787677	-0.116094	-0.284161
O11	O	0.723369	-0.188924	-0.135138
O12	O	0.638618	-0.188908	-0.219876
O13	O	0.723346	-0.244093	-0.368864
O14	O	0.638575	-0.244087	-0.284081
O15	O	0.787619	-0.188919	-0.368898
O16	O	0.787482	-0.316941	-0.219875
O17	O	0.723268	-0.316929	-0.284080
C18	C	0.619626	-0.216495	-0.251974
C19	C	0.561512	-0.216499	-0.251971
C20	C	0.755374	-0.333236	-0.251983
C21	C	0.755381	-0.383170	-0.251990
C22	C	0.201135	-0.245293	-0.285409
C23	C	0.146531	-0.245295	-0.285417
O24	O	0.118282	-0.269755	-0.313817
N25	N	0.119229	-0.216525	-0.252043
C26	C	0.146535	-0.187748	-0.218663
O27	O	0.118299	-0.163276	-0.190277
C28	C	0.201138	-0.187743	-0.218658
C29	C	0.228437	-0.216518	-0.252030
C30	C	0.228434	-0.274065	-0.318778
C31	C	0.283034	-0.274063	-0.318769
C32	C	0.310336	-0.245288	-0.285390
C33	C	0.283037	-0.216516	-0.252021
C34	C	0.228443	-0.158963	-0.185281
C35	C	0.283050	-0.158961	-0.185279
C36	C	0.310349	-0.187736	-0.218651
C37	C	0.364940	-0.187739	-0.218633
N38	N	0.392241	-0.216509	-0.252006
C39	C	0.364939	-0.245283	-0.285385
C40	C	0.031864	-0.187759	-0.218677
C41	C	-0.022738	-0.187766	-0.218679
C42	C	-0.022739	-0.245313	-0.285434
C43	C	0.031865	-0.245308	-0.285429
C44	C	0.059166	-0.216529	-0.252051
C45	C	0.479604	-0.245277	-0.285363
C46	C	0.534210	-0.245273	-0.285350
C47	C	0.534206	-0.187724	-0.218597
C48	C	0.479605	-0.187729	-0.218609
C49	C	0.452306	-0.216507	-0.251996
O50	O	0.393223	-0.163290	-0.190249
O51	O	0.393182	-0.269746	-0.313771
C52	C	0.788965	-0.692807	-0.218627
C53	C	0.789030	-0.880480	-0.218647
O54	O	0.817509	-0.904740	-0.190260
N55	N	0.755577	-0.903955	-0.252049
C56	C	0.722108	-0.880509	-0.285450
O57	O	0.693659	-0.904782	-0.313865
C58	C	0.722046	-0.692837	-0.285432
C59	C	0.755498	-0.669364	-0.252024
C60	C	0.822415	-0.669335	-0.185222
C61	C	0.822396	-0.622419	-0.185215
C62	C	0.788928	-0.598976	-0.218613
C63	C	0.755479	-0.622449	-0.252018
C64	C	0.688580	-0.669391	-0.318836
C65	C	0.688568	-0.622470	-0.318829
C66	C	0.722020	-0.598998	-0.285422
C67	C	0.721993	-0.552090	-0.285409
N68	N	0.755446	-0.528615	-0.252007
C69	C	0.788914	-0.552058	-0.218609
C70	C	0.722141	-0.979039	-0.285457
C71	C	0.722156	-1.025957	-0.285461
C72	C	0.789079	-1.025925	-0.218658
C73	C	0.789062	-0.979007	-0.218652
C74	C	0.755595	-0.955565	-0.252055
C75	C	0.788872	-0.453533	-0.218597
C76	C	0.788849	-0.406613	-0.218592
C77	C	0.721928	-0.406649	-0.285396
C78	C	0.721949	-0.453564	-0.285400
C79	C	0.755425	-0.477005	-0.251999
O80	O	0.693533	-0.527802	-0.313784
O81	O	0.817366	-0.527777	-0.190207
C82	C	0.788984	-0.739723	-0.218633
C83	C	0.755535	-0.763195	-0.252038
C84	C	0.722067	-0.739752	-0.285436
C85	C	0.755549	-0.810113	-0.252042
C86	C	0.789017	-0.833556	-0.218644
C87	C	0.822470	-0.810081	-0.185242
C88	C	0.822451	-0.763166	-0.185235
C89	C	0.688614	-0.763227	-0.318838
C90	C	0.688635	-0.810143	-0.318841
C91	C	0.722102	-0.833585	-0.285443
C92	C	0.891841	-0.216531	-0.252045
C93	C	0.949955	-0.216539	-0.252060
C94	C	0.755485	-0.216505	-0.388382
C95	C	0.755492	-0.216502	-0.446496
C96	C	0.755577	-0.099335	-0.252047
C97	C	0.755624	-0.049400	-0.252063
C98	C	0.789002	-0.187687	-0.806883
C99	C	0.789008	-0.187675	-0.861488
O100	O	0.817457	-0.163229	-0.889744
N101	N	0.755550	-0.216396	-0.888779
C102	C	0.722079	-0.245129	-0.861463
O103	O	0.693621	-0.269558	-0.889691
C104	C	0.722071	-0.245139	-0.806860
C105	C	0.755535	-0.216419	-0.779571
C106	C	0.822463	-0.158969	-0.779594
C107	C	0.822457	-0.158982	-0.724994
C108	C	0.788990	-0.187714	-0.697682
C109	C	0.755529	-0.216432	-0.724971
C110	C	0.688598	-0.273869	-0.779545
C111	C	0.688592	-0.273876	-0.724938
C112	C	0.722056	-0.245156	-0.697650
C113	C	0.722056	-0.245176	-0.643058
N114	N	0.755514	-0.216455	-0.615767
C115	C	0.788981	-0.187723	-0.643079
C116	C	0.722100	-0.245106	-0.976134
C117	C	0.722110	-0.245099	-1.030736
C118	C	0.789039	-0.187644	-1.030757
C119	C	0.789030	-0.187653	-0.976153
C120	C	0.755558	-0.216384	-0.948843
C121	C	0.788967	-0.187753	-0.528414
C122	C	0.788959	-0.187770	-0.473808
C123	C	0.722029	-0.245223	-0.473793
C124	C	0.722038	-0.245208	-0.528393
C125	C	0.755509	-0.216470	-0.555702
O126	O	0.693620	-0.269609	-0.614767
O127	O	0.817430	-0.163295	-0.614845
C128	C	0.755482	-0.216488	-0.116167
C129	C	0.755576	-0.216365	-0.058053
H130	H	0.556434	-0.268707	-0.312526
H131	H	0.694866	-0.268490	-1.052950
H132	H	0.816220	-0.164350	-0.550642
H133	H	0.305276	-0.135522	-0.158101
N134	N	0.199016	-0.127922	-0.149285
H135	H	0.208552	-0.095837	-0.157482
H136	H	0.160288	-0.132320	-0.154361
H137	H	0.849671	-0.688417	-0.158025
N138	N	0.061309	-0.156716	-0.182675
H139	H	0.035724	-0.138493	-0.161537
H140	H	0.083942	-0.174967	-0.158435
N141	N	0.563662	-0.156689	-0.182601
H142	H	0.554187	-0.124602	-0.190794
H143	H	0.554129	-0.163653	-0.145243
N144	N	0.825056	-0.156792	-0.444378
H145	H	0.803828	-0.135975	-0.421717
H146	H	0.849260	-0.175091	-0.421761
N147	N	-0.052191	-0.276348	-0.321439
H148	H	-0.042718	-0.308436	-0.313250
H149	H	-0.090914	-0.271942	-0.316360
N150	N	0.686067	-1.051268	-0.321487
H151	H	0.694159	-1.043080	-0.358851
H152	H	0.691165	-1.084540	-0.316382
H153	H	0.661361	-0.744143	-0.346035
N154	N	0.824933	-0.381295	-0.182562
H155	H	0.816844	-0.389483	-0.145197
H156	H	0.862271	-0.389437	-0.190771
N157	N	0.824974	-0.478806	-0.182564
H158	H	0.803749	-0.498297	-0.158314
H159	H	0.849196	-0.498219	-0.203869
H160	H	0.694842	-0.268504	-0.953901
N161	N	0.858484	-0.597106	-0.149190
H162	H	0.879688	-0.619082	-0.128040
H163	H	0.882658	-0.577616	-0.170502
H164	H	0.816301	-0.959898	-0.191448
H165	H	0.457377	-0.164299	-0.191433
N166	N	-0.052179	-0.156736	-0.182678
H167	H	-0.026592	-0.138510	-0.161533
H168	H	-0.074808	-0.135972	-0.204005
H169	H	0.816330	-1.045021	-0.191464
N170	N	0.686040	-0.953759	-0.321484
H171	H	0.664851	-0.975753	-0.342640
H172	H	0.661852	-0.934320	-0.300173
N173	N	0.685934	-0.276208	-0.444325
H174	H	0.648585	-0.269221	-0.453817
H175	H	0.694065	-0.308296	-0.453833
H176	H	0.694712	-0.472677	-0.312605
N177	N	0.858549	-0.128004	-0.695565
H178	H	0.879747	-0.109802	-0.721159
H179	H	0.837284	-0.107214	-0.672908
H180	H	0.661347	-0.297256	-0.801754
H181	H	0.661337	-0.688495	-0.346038
H182	H	0.661316	-0.603386	-0.346032
H183	H	0.816288	-0.164248	-1.053004
N184	N	0.652484	-0.304861	-0.695482
H185	H	0.631287	-0.323050	-0.721058
H186	H	0.673738	-0.325662	-0.672828
H187	H	0.694677	-0.387554	-0.312587
H188	H	0.849716	-0.135570	-0.801826
N189	N	0.858535	-0.737852	-0.149206
H190	H	0.879737	-0.759828	-0.128054
H191	H	0.882711	-0.718360	-0.170513
N192	N	0.858563	-0.835370	-0.149215
H193	H	0.853494	-0.868653	-0.154291
H194	H	0.895897	-0.827139	-0.157390
N195	N	0.685953	-0.276190	-0.557830
H196	H	0.664753	-0.294394	-0.532240
H197	H	0.661774	-0.257894	-0.580478
N198	N	0.652547	-0.835453	-0.354875
H199	H	0.660642	-0.827262	-0.392237
H200	H	0.657648	-0.868725	-0.349773
N201	N	0.450165	-0.276316	-0.321372
H202	H	0.475751	-0.294541	-0.342506
H203	H	0.427486	-0.297081	-0.300048
H204	H	0.206210	-0.297497	-0.345962
N205	N	0.312474	-0.305098	-0.354764
H206	H	0.286886	-0.323324	-0.375909
H207	H	0.335153	-0.286842	-0.378999
H208	H	0.054088	-0.268739	-0.312604
N209	N	0.825123	-0.156677	-0.946723
H210	H	0.846325	-0.138477	-0.972315
H211	H	0.803858	-0.135886	-0.924067
