data_functionalizedCrystal
_audit_creation_method	'MofGen! by Chris Wilmer'
_symmetry_space_group_name_H-M	'P1'
_symmetry_Int_Tables_number	1
_symmetry_cell_setting	triclinic
loop_
_symmetry_equiv_pos_as_xyz
  x,y,z
_cell_length_a	19.188930
_cell_length_b	23.532407
_cell_length_c	18.266242
_cell_angle_alpha	89.988983
_cell_angle_beta	89.977082
_cell_angle_gamma	82.996728
loop_
_atom_site_label
_atom_site_type_symbol
_atom_site_fract_x
_atom_site_fract_y
_atom_site_fract_z
O1	O	0.925922	0.071102	-0.061124
O2	O	1.425922	0.571102	0.438876
O3	O	0.722581	0.080673	-0.061074
O4	O	1.222581	0.580673	0.438926
O5	O	0.830383	-0.007031	-0.061087
O6	O	1.330383	0.492969	0.438913
O7	O	0.818120	0.158806	-0.061111
O8	O	1.318120	0.658806	0.438889
O9	O	0.830365	-0.007035	0.060675
O10	O	1.330365	0.492965	0.560675
O11	O	0.722562	0.080669	0.060688
O12	O	1.222562	0.580669	0.560688
O13	O	0.925904	0.071097	0.060638
O14	O	1.425904	0.571097	0.560638
Zn15	Zn	0.824230	0.075882	0.079995
Zn16	Zn	1.324230	0.575882	0.579995
Zn17	Zn	0.824254	0.075888	-0.080431
Zn18	Zn	1.324254	0.575888	0.419569
O19	O	0.818102	0.158802	0.060651
O20	O	1.318102	0.658802	0.560651
C21	C	0.696561	0.080361	-0.000187
C22	C	1.196561	0.580361	0.499813
C23	C	0.619060	0.079431	-0.000168
C24	C	1.119060	0.579431	0.499832
C25	C	0.573972	0.130893	-0.000187
C26	C	1.073972	0.630893	0.499813
C27	C	0.501151	0.130019	-0.000194
C28	C	1.001151	0.630019	0.499806
C29	C	0.473421	0.077680	-0.000198
C30	C	0.973421	0.577680	0.499802
C31	C	0.518519	0.026211	-0.000175
C32	C	1.018519	0.526211	0.499825
C33	C	0.591339	0.027086	-0.000160
C34	C	1.091339	0.527086	0.499840
N35	N	0.365575	0.037674	-0.041663
N36	N	0.865575	0.537674	0.458337
N37	N	0.296399	0.036846	-0.041679
N38	N	0.796399	0.536846	0.458321
C39	C	0.254021	0.075038	-0.000243
C40	C	0.754021	0.575038	0.499757
N41	N	0.283431	0.114099	0.041201
N42	N	0.783431	0.614099	0.541201
N43	N	0.352613	0.114929	0.041214
N44	N	0.852613	0.614929	0.541214
C45	C	0.394462	0.076724	-0.000214
C46	C	0.894462	0.576724	0.499786
C47	C	0.129971	0.125556	-0.000269
C48	C	0.629971	0.625556	0.499731
C49	C	0.057149	0.124680	-0.000272
C50	C	0.557149	0.624680	0.499728
C51	C	0.074520	0.020870	-0.000260
C52	C	0.574520	0.520870	0.499740
C53	C	0.147340	0.021748	-0.000250
C54	C	0.647340	0.521748	0.499750
C55	C	0.175061	0.074092	-0.000257
C56	C	0.675061	0.574092	0.499743
C57	C	0.830062	-0.028250	-0.000204
C58	C	1.330062	0.471750	0.499796
C59	C	0.829123	-0.091469	-0.000198
C60	C	1.329123	0.408531	0.499802
C61	C	0.887029	-0.490449	-0.000252
C62	C	1.387029	0.009551	0.499748
C63	C	0.886157	-0.549851	-0.000258
C64	C	1.386157	-0.049851	0.499742
O65	O	0.939837	-0.586482	-0.000298
O66	O	1.439837	-0.086482	0.499702
N67	N	0.822068	-0.572613	-0.000242
N68	N	1.322068	-0.072613	0.499758
C69	C	0.758848	-0.535970	-0.000228
C70	C	1.258848	-0.035970	0.499772
O71	O	0.704255	-0.560786	-0.000215
O72	O	1.204255	-0.060786	0.499785
C73	C	0.759721	-0.476569	-0.000228
C74	C	1.259721	0.023431	0.499772
C75	C	0.823814	-0.453810	-0.000236
C76	C	1.323814	0.046190	0.499764
C77	C	0.951117	-0.467690	-0.000262
C78	C	1.451117	0.032310	0.499738
C79	C	0.951989	-0.408292	-0.000255
C80	C	1.451989	0.091708	0.499745
C81	C	0.888773	-0.371653	-0.000239
C82	C	1.388773	0.128347	0.499761
C83	C	0.824685	-0.394412	-0.000230
C84	C	1.324685	0.105588	0.499770
C85	C	0.696501	-0.439927	-0.000219
C86	C	1.196501	0.060073	0.499781
C87	C	0.697379	-0.380523	-0.000219
C88	C	1.197379	0.119477	0.499781
C89	C	0.761472	-0.357764	-0.000228
C90	C	1.261472	0.142236	0.499772
C91	C	0.762342	-0.298376	-0.000207
C92	C	1.262342	0.201624	0.499793
N93	N	0.826430	-0.275614	-0.000223
N94	N	1.326430	0.224386	0.499777
C95	C	0.889646	-0.312252	-0.000239
C96	C	1.389646	0.187748	0.499761
C97	C	0.757019	-0.660717	-0.000229
C98	C	1.257019	-0.160717	0.499771
C99	C	0.756146	-0.720116	-0.000224
C100	C	1.256146	-0.220116	0.499776
C101	C	0.883455	-0.733993	-0.000256
C102	C	1.383455	-0.233993	0.499744
C103	C	0.884328	-0.674592	-0.000255
C104	C	1.384328	-0.174592	0.499745
C105	C	0.821108	-0.637954	-0.000245
C106	C	1.321108	-0.137954	0.499755
C107	C	0.891472	-0.187512	-0.000224
C108	C	1.391472	0.312488	0.499776
C109	C	0.892339	-0.128108	-0.000214
C110	C	1.392339	0.371892	0.499786
C111	C	0.765029	-0.114236	-0.000187
C112	C	1.265029	0.385764	0.499813
C113	C	0.764163	-0.173634	-0.000193
C114	C	1.264163	0.326366	0.499807
C115	C	0.827390	-0.210272	-0.000214
C116	C	1.327390	0.289728	0.499786
O117	O	0.708690	-0.261710	-0.000170
O118	O	1.208690	0.238290	0.499830
O119	O	0.944230	-0.287428	-0.000261
O120	O	1.444230	0.212572	0.499739
C121	C	0.951923	0.071410	-0.000251
C122	C	1.451923	0.571410	0.499749
C123	C	1.029425	0.072340	-0.000275
C124	C	1.529425	0.572340	0.499725
C125	C	0.818423	0.180021	-0.000234
C126	C	1.318423	0.680021	0.499766
C127	C	0.819362	0.243240	-0.000244
C128	C	1.319362	0.743240	0.499756
N129	N	0.824219	0.075878	0.189482
N130	N	1.324219	0.575878	0.689482
N131	N	0.824271	0.075888	-0.189918
N132	N	1.324271	0.575888	0.310082
C133	C	0.871970	0.037062	0.227785
C134	C	1.371970	0.537062	0.727785
C135	C	0.871974	0.037059	0.304430
C136	C	1.371974	0.537059	0.804430
C137	C	0.824235	0.075883	0.342769
C138	C	1.324235	0.575883	0.842769
C139	C	0.776475	0.114702	0.304457
C140	C	1.276475	0.614702	0.804457
C141	C	0.776468	0.114700	0.227813
C142	C	1.276468	0.614700	0.727813
N143	N	0.814998	0.126298	0.463096
N144	N	1.314998	0.626298	0.963096
N145	N	0.815010	0.126298	0.535904
N146	N	1.315010	0.626298	1.035904
C147	C	0.824254	0.075891	0.573691
C148	C	1.324254	0.575891	1.073691
N149	N	0.833500	0.025481	0.535921
N150	N	1.333500	0.525481	1.035921
N151	N	0.833492	0.025482	0.463106
N152	N	1.333492	0.525482	0.963106
C153	C	0.824238	0.075889	0.425876
C154	C	1.324238	0.575889	0.925876
C155	C	0.872012	0.037068	0.695102
C156	C	1.372012	0.537068	1.195102
C157	C	0.872012	0.037065	0.771748
C158	C	1.372012	0.537065	1.271748
C159	C	0.776516	0.114713	0.771773
C160	C	1.276516	0.614713	1.271773
C161	C	0.776513	0.114711	0.695128
C162	C	1.276513	0.614711	1.195128
C163	C	0.824265	0.075890	0.656797
C164	C	1.324265	0.575890	1.156797
H165	H	0.944533	-0.109581	-0.000220
H166	H	1.444533	0.390419	0.499780
Cl167	Cl	0.932039	-0.011739	0.646913
Cl168	Cl	1.432039	0.488261	1.146913
H169	H	1.002598	-0.497516	-0.000278
H170	H	1.502598	0.002484	0.499722
Cl171	Cl	0.608818	0.196697	-0.000193
Cl172	Cl	1.108818	0.696697	0.499807
H173	H	0.644310	-0.458446	-0.000216
H174	H	1.144310	0.041554	0.499784
Cl175	Cl	0.932042	-0.011741	0.819904
Cl176	Cl	1.432042	0.488259	1.319904
Cl177	Cl	0.444458	0.194719	-0.000216
Cl178	Cl	0.944458	0.694719	0.499784
Cl179	Cl	0.483660	-0.039587	-0.000176
Cl180	Cl	0.983660	0.460413	0.499824
H181	H	0.737643	0.146322	0.802988
H182	H	1.237643	0.646322	1.302988
H183	H	0.152543	0.168178	-0.000265
H184	H	0.652543	0.668178	0.499735
Cl185	Cl	0.648024	-0.037614	-0.000137
Cl186	Cl	1.148024	0.462386	0.499863
Cl187	Cl	0.716485	0.163515	0.646971
Cl188	Cl	1.216485	0.663515	1.146971
Cl189	Cl	1.032567	-0.379690	-0.000287
Cl190	Cl	1.532567	0.120310	0.499713
H191	H	0.934929	-0.763836	-0.000272
H192	H	1.434929	-0.263836	0.499728
H193	H	0.020438	0.166588	-0.000284
H194	H	0.520438	0.666588	0.499716
H195	H	0.051943	-0.021745	-0.000309
H196	H	0.551943	0.478255	0.499691
Cl197	Cl	0.932009	-0.011743	0.352591
Cl198	Cl	1.432009	0.488257	0.852591
Cl199	Cl	0.964905	-0.645988	-0.000267
Cl200	Cl	1.464905	-0.145988	0.499733
H201	H	0.737604	0.146312	0.335676
H202	H	1.237604	0.646312	0.835676
H203	H	0.737582	0.146309	0.196626
H204	H	1.237582	0.646309	0.696626
Cl205	Cl	0.931995	-0.011745	0.179599
Cl206	Cl	1.431995	0.488255	0.679599
H207	H	0.703955	-0.738641	-0.000205
H208	H	1.203955	-0.238641	0.499795
Cl209	Cl	0.677534	-0.614662	-0.000208
Cl210	Cl	1.177534	-0.114662	0.499792
Cl211	Cl	0.617897	-0.334466	-0.000208
Cl212	Cl	1.117897	0.165534	0.499792
H213	H	0.184052	-0.020158	-0.000238
H214	H	0.684052	0.479842	0.499762
H215	H	0.711973	-0.192165	-0.000165
H216	H	1.211973	0.307835	0.499835
Cl217	Cl	0.970959	-0.233560	-0.000249
Cl218	Cl	1.470959	0.266440	0.499751
H219	H	0.713561	-0.084394	-0.000171
H220	H	1.213561	0.415606	0.499829
