data_functionalizedCrystal
_audit_creation_method	'MofGen! by Chris Wilmer'
_symmetry_space_group_name_H-M	'P1'
_symmetry_Int_Tables_number	1
_symmetry_cell_setting	triclinic
loop_
_symmetry_equiv_pos_as_xyz
  x,y,z
_cell_length_a	21.395362
_cell_length_b	12.759394
_cell_length_c	12.759387
_cell_angle_alpha	89.968340
_cell_angle_beta	89.957714
_cell_angle_gamma	90.030716
loop_
_atom_site_label
_atom_site_type_symbol
_atom_site_fract_x
_atom_site_fract_y
_atom_site_fract_z
Zn1	Zn	0.957918	-0.417766	-0.594610
Zn2	Zn	0.957853	-0.593483	-0.418927
Zn3	Zn	0.853136	-0.417867	-0.418880
Zn4	Zn	0.853132	-0.593452	-0.594500
O5	O	0.905510	-0.505642	-0.506729
O6	O	1.045588	-0.441045	-0.571371
O7	O	0.943937	-0.570242	-0.271900
O8	O	0.867065	-0.270832	-0.442217
O9	O	1.045539	-0.570144	-0.442298
O10	O	0.944048	-0.270758	-0.571325
O11	O	0.867002	-0.441218	-0.271865
O12	O	0.765458	-0.441188	-0.442110
O13	O	0.867057	-0.570091	-0.741535
O14	O	0.765454	-0.570190	-0.571137
O15	O	0.944044	-0.441016	-0.741616
O16	O	0.943932	-0.740500	-0.442191
O17	O	0.866994	-0.740477	-0.571184
C18	C	0.742722	-0.505697	-0.506607
C19	C	0.673081	-0.505746	-0.506580
C20	C	0.640382	-0.573007	-0.573664
C21	C	0.574947	-0.572981	-0.573711
C22	C	0.542213	-0.505706	-0.506655
C23	C	0.574919	-0.438433	-0.439566
C24	C	0.640353	-0.438453	-0.439529
C25	C	0.438488	-0.497270	-0.412072
C26	C	0.373055	-0.497258	-0.412108
C27	C	0.340392	-0.505637	-0.506771
C28	C	0.373170	-0.514052	-0.601401
C29	C	0.438604	-0.514072	-0.601364
C30	C	0.471260	-0.505676	-0.506688
C31	C	0.236741	-0.572873	-0.573911
C32	C	0.171304	-0.572840	-0.573960
C33	C	0.171278	-0.438297	-0.439806
C34	C	0.236713	-0.438325	-0.439767
C35	C	0.269441	-0.505619	-0.506818
C36	C	0.905472	-0.778609	-0.506704
C37	C	0.905513	-0.895386	-0.506728
C38	C	0.985689	-0.895356	-0.372509
C39	C	1.025794	-0.950202	-0.305412
C40	C	1.025830	-1.059923	-0.305440
C41	C	0.985760	-1.114802	-0.372576
C42	C	0.945656	-1.059956	-0.439673
C43	C	0.945622	-0.950232	-0.439635
C44	C	0.865484	-1.059986	-0.573895
C45	C	0.865443	-0.950264	-0.573863
C46	C	0.825413	-1.114864	-0.641030
C47	C	0.785305	-1.060018	-0.708124
C48	C	0.785269	-0.950290	-0.708092
C49	C	0.825338	-0.895418	-0.640960
C50	C	1.068933	-0.505587	-0.506852
C51	C	1.138574	-0.505563	-0.506904
C52	C	0.905557	-0.505539	-0.780763
C53	C	0.905577	-0.505495	-0.897539
C54	C	0.905565	-0.231608	-0.506778
C55	C	0.905588	-0.114832	-0.506798
C56	C	0.985749	-0.371097	-0.897643
C57	C	1.025843	-0.303882	-0.952556
C58	C	1.025858	-0.303844	-1.062278
C59	C	0.985774	-0.371025	-1.117089
C60	C	0.945679	-0.438240	-1.062176
C61	C	0.945669	-0.438273	-0.952452
C62	C	0.865505	-0.572631	-1.062073
C63	C	0.865492	-0.572676	-0.952351
C64	C	0.825421	-0.639813	-1.116884
C65	C	0.785328	-0.707034	-1.061971
C66	C	0.785315	-0.707071	-0.952243
C67	C	0.825398	-0.639891	-0.897438
C68	C	0.905499	-0.505669	-0.233762
C69	C	0.905600	-0.505416	-0.116985
H70	H	0.667025	-0.627801	-0.628264
H71	H	0.346372	-0.490412	-0.335054
H72	H	0.465077	-0.490442	-0.334981
H73	H	1.058503	-0.249105	-1.106988
O74	O	0.825289	-0.777076	-0.640932
H75	H	0.872529	-0.748032	-0.662257
O76	O	0.337952	-0.523065	-0.703517
H77	H	0.350495	-0.597863	-0.742587
O78	O	0.742093	-0.779479	-1.121086
H79	H	0.770124	-0.832911	-1.171093
O80	O	0.825433	-0.639777	-1.235227
H81	H	0.860051	-0.581761	-1.264206
H82	H	0.144682	-0.627609	-0.628594
H83	H	0.825448	-1.204205	-0.641053
H84	H	0.548263	-0.383655	-0.384971
O85	O	0.985733	-0.371145	-0.779300
H86	H	1.020338	-0.313136	-0.750412
O87	O	0.135982	-0.365729	-0.367481
H88	H	0.148486	-0.383651	-0.284987
H89	H	0.752614	-0.905640	-0.762734
H90	H	1.058478	-0.249183	-0.907917
H91	H	0.666976	-0.383678	-0.384901
O92	O	1.069015	-0.891019	-0.233005
H93	H	1.118189	-0.911979	-0.251141
H94	H	0.465289	-0.520921	-0.678415
H95	H	0.752659	-0.761794	-0.907539
H96	H	0.825394	-0.639919	-0.808097
H97	H	0.548319	-0.627752	-0.628342
H98	H	0.263389	-0.627662	-0.628514
O99	O	0.985783	-0.370981	-1.235432
H100	H	1.020397	-0.312957	-1.264408
H101	H	0.263336	-0.383560	-0.385134
O102	O	0.985646	-0.777013	-0.372477
H103	H	1.020248	-0.748067	-0.314529
H104	H	1.058490	-1.104579	-0.250809
O105	O	0.985799	-1.233144	-0.372604
H106	H	1.033062	-1.261971	-0.393931
O107	O	0.742083	-1.119202	-0.780518
H108	H	0.748844	-1.204712	-0.769262
