data_functionalizedCrystal
_audit_creation_method	'MofGen! by Chris Wilmer'
_symmetry_space_group_name_H-M	'P1'
_symmetry_Int_Tables_number	1
_symmetry_cell_setting	triclinic
loop_
_symmetry_equiv_pos_as_xyz
  x,y,z
_cell_length_a	10.654551
_cell_length_b	14.853559
_cell_length_c	9.730223
_cell_angle_alpha	90.000686
_cell_angle_beta	90.005105
_cell_angle_gamma	84.058362
loop_
_atom_site_label
_atom_site_type_symbol
_atom_site_fract_x
_atom_site_fract_y
_atom_site_fract_z
O1	O	1.666522	0.126628	0.114265
O2	O	1.300918	0.138691	0.114271
O3	O	1.493492	0.001481	0.114266
O4	O	1.473949	0.263837	0.114270
O5	O	1.493470	0.001482	-0.114314
O6	O	1.300896	0.138692	-0.114309
O7	O	1.666500	0.126629	-0.114315
Zn8	Zn	1.483695	0.132660	-0.150604
Zn9	Zn	1.483724	0.132659	0.150560
O10	O	1.473927	0.263838	-0.114310
C11	C	1.254118	0.137805	-0.000018
C12	C	1.114703	0.135155	-0.000016
C13	C	1.492597	-0.032112	-0.000021
C14	C	1.489949	-0.132210	-0.000013
C15	C	0.918198	0.131410	-0.124616
C16	C	1.049193	0.133908	-0.124617
C17	C	1.049210	0.133912	0.124594
C18	C	0.918217	0.131420	0.124593
C19	C	0.852696	0.130154	-0.249225
C20	C	0.918179	0.131398	-0.373835
C21	C	1.049174	0.133897	-0.373836
C22	C	1.114685	0.135151	-0.249226
C23	C	1.478728	-0.555446	0.124586
C24	C	1.478705	-0.555439	-0.124621
C25	C	1.481203	-0.461393	-0.124622
C26	C	1.482462	-0.414368	-0.000017
C27	C	1.481223	-0.461390	0.124589
C28	C	1.482429	-0.414363	-0.249225
C29	C	1.484926	-0.320310	-0.249232
C30	C	1.486194	-0.273285	-0.124626
C31	C	1.484957	-0.320312	-0.000015
C32	C	1.486216	-0.273288	0.124590
C33	C	1.484987	-0.320315	0.249202
C34	C	1.482491	-0.414364	0.249195
C35	C	1.488690	-0.179235	-0.124618
C36	C	1.488710	-0.179232	0.124593
C37	C	1.713300	0.127514	-0.000023
C38	C	1.852716	0.130165	-0.000016
C39	C	1.474821	0.297431	-0.000020
C40	C	1.477469	0.397530	-0.000019
N41	N	1.483685	0.132661	-0.356140
C42	C	1.559983	0.187840	-0.571943
C43	C	1.559950	0.187848	-0.428060
C44	C	1.407437	0.077470	-0.428111
C45	C	1.407464	0.077468	-0.571992
C46	C	1.636262	0.243024	-0.643855
C47	C	1.712508	0.298217	-0.571894
C48	C	1.712476	0.298224	-0.428011
C49	C	1.636197	0.243039	-0.356089
N50	N	1.483744	0.132652	0.356096
H51	H	0.864830	0.130385	-0.475287
H52	H	1.489742	-0.140952	0.226062
O53	O	1.486252	-0.274495	0.370117
C54	C	1.489976	-0.129585	0.480540
C55	C	1.488588	-0.181371	0.343513
H56	H	1.491838	-0.054284	0.459078
H57	H	1.577328	-0.155699	0.542022
H58	H	1.401689	-0.140436	0.541976
H59	H	1.576814	-0.170543	0.281966
H60	H	1.401178	-0.155248	0.282136
H61	H	1.345336	0.032540	-0.369541
O62	O	1.112964	0.135247	0.245542
C63	C	1.246721	0.216049	0.390205
C64	C	1.174604	0.214646	0.253167
H65	H	1.296554	0.280246	0.396427
H66	H	1.319511	0.154278	0.396450
H67	H	1.177402	0.214687	0.479242
H68	H	1.243827	0.216038	0.164052
H69	H	1.101796	0.276411	0.247042
O70	O	1.786564	0.351739	-0.641965
C71	C	1.854151	0.400689	-0.863597
C72	C	1.770244	0.340014	-0.784418
H73	H	1.840966	0.391245	-0.978784
H74	H	1.957254	0.381275	-0.835371
H75	H	1.826283	0.474523	-0.835238
H76	H	1.798001	0.266163	-0.812734
H77	H	1.667162	0.359506	-0.812651
O78	O	1.333553	0.023722	-0.641839
C79	C	1.284214	-0.128335	-0.685828
C80	C	1.368031	-0.067579	-0.606666
H81	H	1.312041	-0.202162	-0.657398
H82	H	1.297343	-0.118933	-0.801032
H83	H	1.181132	-0.108873	-0.657587
H84	H	1.471144	-0.087002	-0.634793
H85	H	1.354794	-0.076988	-0.491482
O86	O	0.854487	0.130085	0.245542
C87	C	0.720757	0.049284	0.390211
C88	C	0.792848	0.050686	0.253170
H89	H	0.670925	-0.014912	0.396436
H90	H	0.647968	0.111056	0.396457
H91	H	0.790093	0.050647	0.479245
H92	H	0.723608	0.049293	0.164058
H93	H	0.865654	-0.011080	0.247044
O94	O	1.481228	-0.460179	0.370110
C95	C	1.477454	-0.605080	0.480541
C96	C	1.478858	-0.553301	0.343510
H97	H	1.475564	-0.680380	0.459084
H98	H	1.390110	-0.578948	0.542006
H99	H	1.565748	-0.594243	0.541991
H100	H	1.390624	-0.564115	0.281950
H101	H	1.566260	-0.579442	0.282150
O102	O	1.477320	-0.601205	-0.245563
C103	C	1.365763	-0.697821	-0.390231
C104	C	1.367177	-0.646044	-0.253197
H105	H	1.276709	-0.734072	-0.396461
H106	H	1.452353	-0.749612	-0.396462
H107	H	1.367146	-0.648050	-0.479272
H108	H	1.365752	-0.695747	-0.164079
H109	H	1.280595	-0.594241	-0.247086
H110	H	0.746035	0.128118	-0.249239
H111	H	1.102485	0.134919	-0.475299
O112	O	1.490047	-0.133474	-0.245568
C113	C	1.601580	-0.036879	-0.390271
C114	C	1.600190	-0.088638	-0.253221
H115	H	1.690634	-0.000631	-0.396516
H116	H	1.514991	0.014912	-0.396513
H117	H	1.600179	-0.086662	-0.479296
H118	H	1.601634	-0.038924	-0.164118
H119	H	1.686771	-0.140442	-0.247099
H120	H	1.774549	0.343171	-0.369424
H121	H	1.221347	0.137196	-0.249237
H122	H	1.477733	-0.593740	0.226042
H123	H	1.481397	-0.452657	-0.350672
H124	H	1.485931	-0.282029	-0.350699
H125	H	1.636301	0.243022	-0.761012
H126	H	1.636165	0.243057	-0.238930
