data_functionalizedCrystal
_audit_creation_method	'MofGen! by Chris Wilmer'
_symmetry_space_group_name_H-M	'P1'
_symmetry_Int_Tables_number	1
_symmetry_cell_setting	triclinic
loop_
_symmetry_equiv_pos_as_xyz
  x,y,z
_cell_length_a	31.640172
_cell_length_b	21.606444
_cell_length_c	21.606444
_cell_angle_alpha	59.991153
_cell_angle_beta	90.005700
_cell_angle_gamma	60.001198
loop_
_atom_site_label
_atom_site_type_symbol
_atom_site_fract_x
_atom_site_fract_y
_atom_site_fract_z
Zr1	Zr	0.407182	0.677438	-0.081257
O2	O	0.339689	0.806585	-0.180118
O3	O	0.427871	0.548303	-0.050935
O4	O	0.427868	0.677439	-0.180079
O5	O	0.339697	0.677445	0.050880
O6	O	0.497425	0.677426	-0.180066
O7	O	0.339693	0.677449	-0.050974
O8	O	0.497432	0.446425	0.050949
O9	O	0.339689	0.908445	-0.180135
O10	O	0.488605	0.601404	-0.038012
O11	O	0.436698	0.601410	0.037991
O12	O	0.436694	0.753451	-0.114060
O13	O	0.384787	0.753457	-0.038057
Zr14	Zr	0.518123	0.677411	0.081211
Zr15	Zr	0.518117	0.677418	-0.081235
Zr16	Zr	0.407187	0.677431	0.081189
Zr17	Zr	0.407182	0.839893	-0.081284
Zr18	Zr	0.518122	0.514955	0.081238
O19	O	0.497433	0.806546	0.050889
O20	O	0.497425	0.806556	-0.180087
O21	O	0.339697	0.806575	0.050858
O22	O	0.585615	0.548264	0.180072
O23	O	0.585607	0.548274	-0.050905
O24	O	0.427879	0.548293	0.180041
O25	O	0.585608	0.677404	-0.050926
O26	O	0.497437	0.677410	0.180033
O27	O	0.427880	0.677423	0.180020
O28	O	0.585611	0.677399	0.050928
O29	O	0.427868	0.908429	-0.180118
O30	O	0.497436	0.446420	0.180072
O31	O	0.585615	0.446404	0.180089
O32	O	0.585611	0.446409	0.050967
O33	O	0.339694	0.908440	-0.051013
O34	O	0.427873	0.908423	-0.050996
O35	O	0.488611	0.601398	0.114014
O36	O	0.540518	0.601391	0.038011
O37	O	0.488606	0.753438	-0.038037
O38	O	0.436699	0.753445	0.037965
C39	C	0.462651	0.474218	0.000011
C40	C	0.462651	0.405251	0.000022
C41	C	0.424328	0.428995	-0.056113
C42	C	0.424330	0.364206	-0.056129
C43	C	0.462652	0.275673	-0.000005
C44	C	0.500979	0.251929	0.056133
C45	C	0.500979	0.316718	0.056145
C46	C	0.500979	-0.009357	0.056086
C47	C	0.500975	-0.074146	0.056071
C48	C	0.424329	0.038131	-0.056189
C49	C	0.424329	0.102920	-0.056177
C50	C	0.462657	0.079170	-0.000041
C51	C	0.462656	0.149423	-0.000025
C52	C	0.462652	0.205421	-0.000017
C53	C	0.323889	0.677450	-0.000050
C54	C	0.276794	0.677459	-0.000059
C55	C	0.011885	0.598049	0.039689
C56	C	-0.165100	0.598034	0.039704
O57	O	-0.164940	0.530535	0.073492
N58	N	-0.214327	0.677400	0.000006
C59	C	-0.219307	0.756776	-0.039694
O60	O	-0.265239	0.824282	-0.073452
C61	C	-0.042322	0.756790	-0.039704
C62	C	0.006904	0.677419	-0.000010
C63	C	0.061110	0.518684	0.079380
C64	C	0.105353	0.518689	0.079372
C65	C	0.100372	0.598058	0.039674
C66	C	0.051148	0.677423	-0.000018
C67	C	-0.047303	0.836165	-0.079399
C68	C	-0.003052	0.836162	-0.079396
C69	C	0.046175	0.756790	-0.039702
C70	C	0.090410	0.756798	-0.039724
N71	N	0.139637	0.677431	-0.000026
C72	C	0.144618	0.598062	0.039672
C73	C	-0.312224	0.756763	-0.039687
C74	C	-0.356470	0.756760	-0.039685
C75	C	-0.302260	0.598017	0.039713
C76	C	-0.258014	0.598021	0.039707
C77	C	-0.262997	0.677397	0.000011
C78	C	0.237530	0.598077	0.039653
C79	C	0.281775	0.598089	0.039639
C80	C	0.227561	0.756831	-0.039756
C81	C	0.183320	0.756820	-0.039746
C82	C	0.188308	0.677436	-0.000036
O83	O	0.090290	0.824262	-0.073487
O84	O	0.190554	0.530566	0.073439
C85	C	-0.032358	0.598045	0.039696
C86	C	-0.081582	0.677410	0.000005
C87	C	-0.086564	0.756779	-0.039694
C88	C	-0.125828	0.677406	0.000006
C89	C	-0.120847	0.598037	0.039705
C90	C	-0.071620	0.518670	0.079402
C91	C	-0.027377	0.518675	0.079395
C92	C	-0.135791	0.836146	-0.079391
C93	C	-0.180032	0.836135	-0.079381
C94	C	-0.175051	0.756765	-0.039682
C95	C	0.601416	0.677399	0.000004
C96	C	0.648511	0.677390	0.000013
C97	C	0.462645	0.677433	-0.203218
C98	C	0.462643	0.677436	-0.272180
C99	C	0.462653	0.880631	-0.000057
C100	C	0.462653	0.949598	-0.000069
C101	C	0.435545	0.756802	-0.344275
C102	C	0.435550	0.756800	-0.409070
C103	C	0.462649	0.677430	-0.401768
C104	C	0.489750	0.598058	-0.329666
C105	C	0.489748	0.598061	-0.264872
C106	C	0.489758	0.598043	-0.590969
C107	C	0.489757	0.598045	-0.655769
C108	C	0.435560	0.756781	-0.735166
C109	C	0.435558	0.756785	-0.670373
C110	C	0.462661	0.677413	-0.598276
C111	C	0.462657	0.677416	-0.528019
C112	C	0.462651	0.677426	-0.472024
C113	C	0.462659	0.677416	0.203172
C114	C	0.462662	0.677413	0.272134
C115	C	0.601415	0.474192	0.000038
C116	C	0.648510	0.405217	0.000059
C117	C	0.462659	0.474209	0.203206
C118	C	0.462661	0.405240	0.272179
C119	C	0.601422	0.474183	0.203233
C120	C	0.648519	0.405205	0.272216
C121	C	0.323883	0.880665	-0.203279
C122	C	0.276786	0.949644	-0.272262
C123	C	0.323890	0.880657	-0.000084
C124	C	0.276795	0.949632	-0.000105
C125	C	0.462646	0.880640	-0.203252
C126	C	0.462644	0.949609	-0.272226
C127	C	0.643528	0.372832	-0.039621
C128	C	0.687774	0.308032	-0.039617
C129	C	0.737002	0.275613	0.000072
C130	C	0.741982	0.308004	0.039754
C131	C	0.697736	0.372808	0.039744
C132	C	0.489759	0.372844	0.344260
C133	C	0.489759	0.308049	0.409075
C134	C	0.462663	0.275646	0.401807
C135	C	0.435561	0.308048	0.329719
C136	C	0.435559	0.372846	0.264906
C137	C	0.697736	0.372809	0.264938
C138	C	0.741993	0.308006	0.329749
C139	C	0.737032	0.275595	0.401837
C140	C	0.687810	0.307998	0.409112
C141	C	0.643554	0.372804	0.344302
C142	C	0.227569	0.982048	-0.264985
C143	C	0.183312	1.046871	-0.329795
C144	C	0.188273	1.079285	-0.401883
C145	C	0.237495	1.046878	-0.409158
C146	C	0.281751	0.982060	-0.344348
C147	C	0.281776	0.982023	0.039568
C148	C	0.237530	1.046842	0.039546
C149	C	0.188303	1.079263	-0.000145
C150	C	0.183322	1.046869	-0.039824
C151	C	0.227568	0.982056	-0.039805
C152	C	0.489745	0.981992	-0.264933
C153	C	0.489753	1.046787	-0.329736
C154	C	0.462657	1.079204	-0.401829
C155	C	0.435555	1.046815	-0.409120
C156	C	0.435550	0.982016	-0.344318
H157	H	0.393122	0.057463	-0.101900
H158	H	0.413501	0.281656	0.323812
F159	F	0.130928	0.841295	-0.082006
F160	F	0.334166	0.513607	0.081887
H161	H	0.773072	0.222826	0.454603
F162	F	0.541766	0.157704	0.115863
F163	F	0.383539	0.197143	-0.115908
F164	F	0.242767	1.081382	-0.485885
H165	H	0.223514	0.821452	-0.072080
H166	H	0.143237	1.073246	-0.323856
F167	F	0.222277	0.947560	-0.188270
H168	H	0.223505	0.955685	-0.072110
F169	F	0.703028	0.407295	0.188224
F170	F	0.794374	0.273529	0.321990
H171	H	0.413493	0.399214	0.206217
H172	H	0.413479	0.955658	-0.350266
F173	F	0.141217	1.148243	-0.000157
F174	F	0.334164	0.947532	0.081815
H175	H	0.532188	-0.028705	0.101795
H176	H	0.462665	1.131967	-0.454588
F177	F	0.682463	0.273568	-0.081850
F178	F	0.518594	0.513589	-0.188141
H179	H	0.393116	0.501081	-0.101808
H180	H	0.683778	0.281600	0.467814
H181	H	0.701800	0.399167	0.072061
H182	H	0.782069	0.281599	0.072067
H183	H	0.241595	1.073206	0.071860
H184	H	0.511810	0.955608	-0.206237
F185	F	0.157740	0.434210	0.121625
F186	F	0.130927	1.081381	-0.082062
H187	H	0.413492	0.821410	-0.793877
F188	F	0.518601	0.513565	-0.647992
H189	H	0.511822	1.073151	-0.323784
F190	F	0.406709	0.841261	-0.678150
H191	H	0.413494	1.073218	-0.467827
H192	H	0.152232	1.132063	-0.454649
H193	H	0.532184	-0.146237	0.101776
F194	F	0.383540	0.389483	-0.115875
H195	H	0.532186	0.297379	0.101857
F196	F	0.242846	0.513588	0.081916
F197	F	0.518602	0.407315	0.352013
F198	F	0.334130	0.947575	-0.352105
H199	H	0.511831	0.281675	0.467766
H200	H	0.065174	0.454048	0.111711
F201	F	-0.205626	0.513544	0.081955
F202	F	-0.296966	0.513546	0.081963
H203	H	-0.396550	0.821392	-0.072018
H204	H	-0.087379	0.900798	-0.111721
F205	F	-0.317537	0.841251	-0.081941
F206	F	-0.066327	0.434199	0.121650
F207	F	-0.008361	0.920647	-0.121646
H208	H	-0.220113	0.900774	-0.111712
F209	F	0.025010	0.434196	0.121643
F210	F	-0.141101	0.920627	-0.121646
H211	H	0.511827	0.533413	-0.532273
H212	H	0.462670	0.222883	0.454588
F213	F	0.406701	0.841280	-0.352055
H214	H	0.413485	0.821428	-0.467771
H215	H	0.511818	0.533434	-0.323725
F216	F	0.591141	0.407325	-0.081870
F217	F	0.591175	0.407272	0.352059
F218	F	0.784088	0.206641	0.000076
