data_functionalizedCrystal
_audit_creation_method	'MofGen! by Chris Wilmer'
_symmetry_space_group_name_H-M	'P1'
_symmetry_Int_Tables_number	1
_symmetry_cell_setting	triclinic
loop_
_symmetry_equiv_pos_as_xyz
  x,y,z
_cell_length_a	10.654550
_cell_length_b	15.625163
_cell_length_c	9.730223
_cell_angle_alpha	108.079647
_cell_angle_beta	89.999957
_cell_angle_gamma	84.351829
loop_
_atom_site_label
_atom_site_type_symbol
_atom_site_fract_x
_atom_site_fract_y
_atom_site_fract_z
O1	O	1.666516	0.126625	-0.051068
O2	O	1.300911	0.138689	-0.045080
O3	O	1.493487	0.001480	-0.113452
O4	O	1.473940	0.263835	0.017304
O5	O	1.493475	0.001477	0.115126
O6	O	1.300899	0.138686	0.183498
O7	O	1.666503	0.126622	0.177510
Zn8	Zn	1.483699	0.132653	0.216796
Zn9	Zn	1.483715	0.132658	-0.084366
O10	O	1.473927	0.263831	0.245882
C11	C	1.254116	0.137802	0.068764
C12	C	1.114701	0.135152	0.067434
C13	C	1.034371	0.215938	0.107702
C14	C	0.903376	0.213443	0.106482
C15	C	0.933054	0.049367	0.024717
C16	C	1.064046	0.051863	0.025947
C17	C	1.492598	-0.032115	-0.015909
C18	C	1.489952	-0.132212	-0.065807
C19	C	1.486228	-0.273290	-0.260722
C20	C	1.488715	-0.179233	-0.213821
C21	C	1.488696	-0.179237	0.035365
C22	C	1.486203	-0.273295	-0.011514
C23	C	1.484971	-0.320314	-0.159560
C24	C	1.484946	-0.320320	0.089648
C25	C	1.482460	-0.414370	0.042771
C26	C	1.481231	-0.461396	-0.105268
C27	C	1.482485	-0.414365	-0.206437
C28	C	1.486187	-0.273300	0.237692
C29	C	1.484930	-0.320324	0.338855
C30	C	1.482435	-0.414375	0.291979
C31	C	1.481206	-0.461402	0.143939
C32	C	1.481181	-0.461407	0.393147
C33	C	1.478695	-0.555457	0.346270
C34	C	1.478720	-0.555452	0.097062
C35	C	1.713298	0.127509	0.063662
C36	C	1.852714	0.130160	0.064984
C37	C	1.474816	0.297426	0.148336
C38	C	1.477462	0.397523	0.198225
N39	N	1.483697	0.132649	0.422330
N40	N	1.483727	0.132655	-0.289904
C41	C	1.568999	0.071919	0.463994
C42	C	1.569011	0.071919	0.607877
C43	C	1.398417	0.193388	0.668424
C44	C	1.398399	0.193383	0.524541
H45	H	1.477694	-0.593736	-0.023490
F46	F	1.477363	-0.605508	0.453938
H47	H	1.328970	0.242837	0.751659
H48	H	1.638452	0.022465	0.380774
F49	F	1.486246	-0.270274	0.496411
F50	F	0.817888	0.299427	0.149342
H51	H	1.075609	0.283757	0.141493
F52	F	0.879132	-0.039270	-0.019439
H53	H	1.489705	-0.140942	0.155905
F54	F	1.149545	-0.034125	-0.016904
F55	F	1.484897	-0.323335	-0.418289
F56	F	1.478595	-0.561495	-0.155160
H57	H	1.488216	-0.196718	0.275855
F58	F	1.307600	0.258020	0.480195
F59	F	1.481154	-0.464410	-0.364004
F60	F	1.490057	-0.129189	-0.321505
H61	H	1.482197	-0.423111	0.513685
H62	H	1.638470	0.022466	0.641792
