data_functionalizedCrystal
_audit_creation_method	'MofGen! by Chris Wilmer'
_symmetry_space_group_name_H-M	'P1'
_symmetry_Int_Tables_number	1
_symmetry_cell_setting	triclinic
loop_
_symmetry_equiv_pos_as_xyz
  x,y,z
_cell_length_a	8.497374
_cell_length_b	8.497374
_cell_length_c	14.908571
_cell_angle_alpha	93.295221
_cell_angle_beta	86.692197
_cell_angle_gamma	90.000262
loop_
_atom_site_label
_atom_site_type_symbol
_atom_site_fract_x
_atom_site_fract_y
_atom_site_fract_z
Zn1	Zn	-0.767762	1.031069	1.379245
Zn2	Zn	-1.031509	0.767310	1.379252
Zn3	Zn	-0.752489	0.752094	1.228421
Zn4	Zn	-1.016246	1.015838	1.228414
O5	O	-0.892002	0.891578	1.303833
O6	O	-0.815529	1.008823	1.505492
O7	O	-0.994492	0.544530	1.359250
O8	O	-0.533752	0.789107	1.248428
O9	O	-1.009302	0.815041	1.505498
O10	O	-0.544974	0.994069	1.359237
O11	O	-0.789496	0.533351	1.248435
O12	O	-0.774697	0.774337	1.102174
O13	O	-0.983289	1.238620	1.248416
O14	O	-0.968479	0.968109	1.102169
O15	O	-0.800729	1.249810	1.359231
O16	O	-1.250247	0.800271	1.359244
O17	O	-1.239033	0.982864	1.248424
C18	C	-0.868275	0.867920	1.069437
C19	C	-0.858163	0.857837	0.969162
C20	C	-0.480521	0.891584	1.303826
C21	C	-0.301876	0.891589	1.303826
C22	C	-0.892003	1.303057	1.303826
C23	C	-0.892020	1.481701	1.303828
C24	C	-1.041259	1.040392	0.780776
C25	C	-1.031763	1.030924	0.686558
C26	C	-0.829667	0.829440	0.686506
C27	C	-0.839164	0.838909	0.780724
C28	C	-0.944965	0.944387	0.827856
C29	C	-0.954468	0.953846	0.922075
C30	C	-0.752366	0.752372	0.922021
C31	C	-0.742869	0.742903	0.827804
C32	C	-0.915822	0.915328	1.539144
C33	C	-0.925972	0.925449	1.639420
H34	H	-1.127415	1.126268	0.819152
O35	O	-0.628801	0.629097	0.776968
H36	H	-0.638394	0.638619	0.703543
H37	H	-1.110173	1.109105	0.648230
O38	O	-0.648521	0.648808	0.972813
H39	H	-0.673597	0.523140	0.954720
O40	O	-1.068553	1.067622	0.972922
H41	H	-1.190513	1.038593	0.954855
O42	O	-0.715612	0.715628	0.635666
H43	H	-0.725216	0.725155	0.562241
