data_functionalizedCrystal
_audit_creation_method	'MofGen! by Chris Wilmer'
_symmetry_space_group_name_H-M	'P1'
_symmetry_Int_Tables_number	1
_symmetry_cell_setting	triclinic
loop_
_symmetry_equiv_pos_as_xyz
  x,y,z
_cell_length_a	25.639240
_cell_length_b	16.120530
_cell_length_c	16.120297
_cell_angle_alpha	89.871860
_cell_angle_beta	87.138170
_cell_angle_gamma	87.127770
loop_
_atom_site_label
_atom_site_type_symbol
_atom_site_fract_x
_atom_site_fract_y
_atom_site_fract_z
Zn1	Zn	-0.264883	1.247376	0.534485
Zn2	Zn	-0.348114	1.254307	0.395403
Zn3	Zn	-0.256048	1.115369	0.388406
Zn4	Zn	-0.347633	1.108263	0.527372
O5	O	-0.304169	1.181329	0.461417
O6	O	-0.279823	1.364661	0.521941
O7	O	-0.332405	1.241750	0.278110
O8	O	-0.184058	1.132953	0.407832
O9	O	-0.340972	1.369753	0.419757
O10	O	-0.190549	1.229938	0.515156
O11	O	-0.264765	1.139673	0.272970
O12	O	-0.264298	0.998061	0.400935
O13	O	-0.340152	1.120843	0.644680
O14	O	-0.331585	0.992840	0.503033
O15	O	-0.279356	1.223048	0.649906
O16	O	-0.421212	1.234860	0.412860
O17	O	-0.420858	1.127563	0.509818
C18	C	-0.296931	0.965278	0.450453
C19	C	-0.293847	0.872850	0.445783
C20	C	-0.440006	1.181214	0.461345
C21	C	-0.498121	1.181240	0.461347
C22	C	-0.288205	0.703622	0.437263
C23	C	-0.320174	0.659873	0.485630
C24	C	-0.317035	0.565708	0.480890
C25	C	-0.291344	0.797795	0.442003
C26	C	-0.861834	1.231850	0.517397
C27	C	-0.916440	1.231874	0.517416
O28	O	-0.947518	1.274768	0.564998
N29	N	-0.940415	1.181440	0.461503
C30	C	-0.909781	1.130972	0.405574
O31	O	-0.935187	1.088076	0.358018
C32	C	-0.855176	1.130945	0.405560
C33	C	-0.831204	1.181389	0.461471
C34	C	-0.837862	1.282289	0.573304
C35	C	-0.783260	1.282267	0.573285
C36	C	-0.752630	1.231805	0.517359
C37	C	-0.776603	1.181366	0.461452
C38	C	-0.824543	1.080474	0.349636
C39	C	-0.769935	1.080450	0.349628
C40	C	-0.745964	1.130894	0.405539
C41	C	-0.691371	1.130882	0.405506
N42	N	-0.667396	1.181316	0.461419
C43	C	-0.698026	1.231778	0.517345
C44	C	-1.024454	1.131033	0.405608
C45	C	-1.079058	1.131064	0.405616
C46	C	-1.085713	1.231965	0.517459
C47	C	-1.031109	1.231937	0.517446
C48	C	-1.000480	1.181467	0.461520
C49	C	-0.583358	1.231727	0.517300
C50	C	-0.528751	1.231702	0.517273
C51	C	-0.522100	1.130798	0.405433
C52	C	-0.576703	1.130826	0.405457
C53	C	-0.607330	1.181292	0.461397
O54	O	-0.660259	1.088007	0.357950
O55	O	-0.672612	1.274659	0.564900
C56	C	-0.167804	1.181465	0.461507
C57	C	-0.109693	1.181523	0.461546
C58	C	-0.310686	1.170380	0.678309
C59	C	-0.313462	1.165714	0.770735
C60	C	-0.311437	1.398223	0.472423
C61	C	-0.314534	1.490650	0.477113
C62	C	-0.297642	1.192283	0.245371
C63	C	-0.294724	1.197109	0.152953
C64	C	-0.318519	1.157165	0.939958
C65	C	-0.289668	1.205656	0.983735
C66	C	-0.292482	1.200899	1.077896
C67	C	-0.315706	1.161921	0.845788
H68	H	-0.349899	0.693138	0.530600
H69	H	-0.258482	0.670359	0.392298
O70	O	-0.257602	1.259360	0.944128
C71	C	-0.169242	1.301182	0.919508
C72	C	-0.205494	1.240297	0.964395
H73	H	-0.127107	1.285802	0.935892
H74	H	-0.172592	1.295490	0.849518
H75	H	-0.181199	1.367373	0.939931
H76	H	-0.193562	1.174080	0.944042
H77	H	-0.202139	1.246061	1.034377
O78	O	-0.505489	1.280608	0.571704
C79	C	-0.494336	1.313739	0.715224
C80	C	-0.520701	1.258289	0.653674
H81	H	-0.506634	1.295726	0.781509
H82	H	-0.450043	1.305053	0.705680
H83	H	-0.506843	1.381538	0.704040
H84	H	-0.508236	1.190469	0.664819
H85	H	-0.564990	1.267046	0.663232
O86	O	-0.613128	1.280626	0.571718
C87	C	-0.678494	1.286098	0.684553
C88	C	-0.644800	1.230619	0.622991
H89	H	-0.704117	1.245692	0.726011
H90	H	-0.652001	1.322125	0.724565
H91	H	-0.704335	1.331565	0.648611
H92	H	-0.618955	1.185105	0.658866
H93	H	-0.671324	1.194651	0.582980
O94	O	-0.760062	1.331286	0.627681
C95	C	-0.772447	1.431402	0.738582
C96	C	-0.798781	1.375912	0.677031
H97	H	-0.803739	1.467510	0.778486
H98	H	-0.746933	1.391024	0.780147
H99	H	-0.747166	1.476798	0.702633
H100	H	-0.824088	1.330508	0.712913
H101	H	-0.824263	1.416342	0.635467
H102	H	-0.345331	1.112083	0.973196
H103	H	-1.011594	1.273013	0.562973
H104	H	-0.862796	1.323381	0.618851
H105	H	-1.110662	1.273052	0.562999
H106	H	-0.999518	1.089937	0.360059
O107	O	-1.102315	1.081945	0.351381
C108	C	-1.113126	0.942580	0.303695
C109	C	-1.086767	0.998116	0.365174
H110	H	-1.100557	0.874795	0.314813
H111	H	-1.157420	0.951183	0.313305
H112	H	-1.100888	0.960661	0.237405
H113	H	-1.098964	0.980070	0.431488
H114	H	-1.042478	0.989506	0.355491
O115	O	-0.847737	1.031391	0.295297
C116	C	-0.835349	0.931330	0.184346
C117	C	-0.809017	0.986867	0.245856
H118	H	-0.804056	0.895331	0.144346
H119	H	-0.860594	0.885849	0.220246
H120	H	-0.860897	0.971747	0.142869
H121	H	-0.783443	0.946517	0.287348
H122	H	-0.783803	1.032353	0.209905
O123	O	-0.600015	1.081956	0.351056
C124	C	-0.657991	1.076543	0.238268
C125	C	-0.631621	1.131993	0.299812
H126	H	-0.683558	1.116974	0.196832
H127	H	-0.626737	1.040497	0.198231
H128	H	-0.683228	1.031094	0.274225
H129	H	-0.606386	1.177490	0.263921
H130	H	-0.662900	1.167981	0.339848
H131	H	-0.744999	1.039348	0.304087
O132	O	-0.492264	1.081803	0.351190
C133	C	-0.405187	1.037087	0.301585
C134	C	-0.438915	1.092605	0.363067
H135	H	-0.362048	1.045815	0.311154
H136	H	-0.414106	0.969276	0.312739
H137	H	-0.414442	1.055116	0.235297
H138	H	-0.429680	1.074651	0.429378
H139	H	-0.429991	1.160403	0.351841
