data_functionalizedCrystal
_audit_creation_method	'MofGen! by Chris Wilmer'
_symmetry_space_group_name_H-M	'P1'
_symmetry_Int_Tables_number	1
_symmetry_cell_setting	triclinic
loop_
_symmetry_equiv_pos_as_xyz
  x,y,z
_cell_length_a	10.489716
_cell_length_b	15.944545
_cell_length_c	9.565339
_cell_angle_alpha	89.995582
_cell_angle_beta	89.996241
_cell_angle_gamma	84.012654
loop_
_atom_site_label
_atom_site_type_symbol
_atom_site_fract_x
_atom_site_fract_y
_atom_site_fract_z
O1	O	0.164472	1.115510	-0.116157
O2	O	0.184762	0.871080	-0.116178
O3	O	-0.011061	0.998867	-0.116172
O4	O	0.360294	0.987722	-0.116163
O5	O	-0.011077	0.998850	0.116348
O6	O	0.184745	0.871063	0.116342
O7	O	0.164455	1.115493	0.116363
Zn8	Zn	0.174598	0.993275	0.153270
Zn9	Zn	0.174619	0.993298	-0.153085
O10	O	0.360278	0.987705	0.116357
C11	C	0.183913	0.839772	0.000079
C12	C	0.181392	0.746511	0.000071
C13	C	-0.058589	0.998021	0.000084
C14	C	-0.200185	0.995516	0.000071
C15	C	0.052479	0.475111	0.000082
C16	C	0.114622	0.526054	0.114732
C17	C	0.172401	0.410814	0.000094
C18	C	0.114670	0.526052	-0.114515
C19	C	0.176812	0.575754	0.000080
C20	C	0.234512	0.460529	0.114838
C21	C	0.234543	0.460523	-0.114511
C22	C	0.296774	0.511434	0.000166
C23	C	0.169857	0.315796	0.000104
C24	C	0.179366	0.670768	0.000081
C25	C	-0.298948	1.073879	0.000090
C26	C	-0.375726	1.032479	-0.114554
C27	C	-0.375705	1.032444	0.114692
C28	C	-0.275098	0.954148	-0.114668
C29	C	-0.275072	0.954125	0.114681
C30	C	-0.351800	0.912667	0.000009
C31	C	0.407806	0.988551	0.000098
C32	C	0.549403	0.991056	0.000102
C33	C	0.165304	1.146800	0.000103
C34	C	0.167825	1.240061	0.000103
N35	N	0.174625	0.993313	-0.362164
C36	C	0.084202	1.052507	-0.546500
C37	C	0.059223	0.976526	-0.453246
C38	C	0.199548	1.069288	-0.453350
C39	C	0.149545	0.917246	-0.546447
C40	C	0.289920	1.010058	-0.546559
C41	C	0.264990	0.934022	-0.453347
N42	N	0.174582	0.993266	0.362350
H43	H	0.063969	0.554676	0.211656
C44	C	0.434646	0.532801	0.000035
C45	C	0.497576	0.498155	-0.118957
C46	C	0.624585	0.517815	-0.119109
H47	H	0.435662	0.592300	-0.000807
H48	H	0.477108	0.510123	0.081491
H49	H	0.455126	0.520837	-0.200392
H50	H	0.496596	0.438657	-0.118141
H51	H	0.667047	0.495137	-0.037654
H52	H	0.625588	0.577314	-0.119947
H53	H	0.667302	0.494305	-0.199837
C54	C	0.227877	1.154903	-0.398628
C55	C	0.339950	1.145388	-0.318165
C56	C	0.366066	1.224237	-0.267723
H57	H	0.239104	1.191437	-0.475085
H58	H	0.158342	1.178304	-0.342508
H59	H	0.409469	1.121999	-0.374282
H60	H	0.328752	1.108869	-0.241688
H61	H	0.296531	1.247638	-0.211603
H62	H	0.377287	1.260766	-0.344188
H63	H	0.442102	1.217792	-0.213113
C64	C	-0.383202	0.821731	0.000213
C65	C	-0.453673	0.806924	0.120411
C66	C	-0.482612	0.723162	0.120649
H67	H	-0.432310	0.811763	-0.080395
H68	H	-0.305909	0.784921	-0.000527
H69	H	-0.530954	0.843722	0.121138
H70	H	-0.404588	0.816873	0.201039
H71	H	-0.405320	0.686353	0.119909
H72	H	-0.531717	0.713202	0.040036
H73	H	-0.530420	0.713103	0.202208
H74	H	0.128336	0.852959	-0.587172
C75	C	0.301859	0.422361	0.244184
C76	C	0.298639	0.334799	0.242732
C77	C	0.360639	0.299612	0.361874
H78	H	0.388409	0.434920	0.244655
H79	H	0.259532	0.445321	0.325524
H80	H	0.340969	0.311847	0.161413
H81	H	0.212106	0.322216	0.242282
H82	H	0.318311	0.322572	0.443214
H83	H	0.447184	0.312177	0.362335
H84	H	0.358452	0.240199	0.360911
H85	H	0.341444	0.883889	-0.412704
C86	C	0.046923	0.564116	-0.243706
C87	C	-0.080845	0.546012	-0.243170
C88	C	-0.143298	0.581051	-0.362160
H89	H	0.049542	0.623486	-0.243347
H90	H	0.088603	0.540781	-0.325154
H91	H	-0.122514	0.569351	-0.161743
H92	H	-0.083503	0.486649	-0.243550
H93	H	-0.101618	0.557715	-0.443607
H94	H	-0.140669	0.640419	-0.361790
H95	H	-0.229991	0.568765	-0.361818
C96	C	0.420036	1.028889	-0.601066
C97	C	0.514681	0.967603	-0.551784
C98	C	0.634560	0.984939	-0.601952
H99	H	0.419486	1.028198	-0.700362
H100	H	0.437712	1.082912	-0.569204
H101	H	0.497009	0.913593	-0.583654
H102	H	0.515272	0.968284	-0.452494
H103	H	0.652237	1.038962	-0.570090
H104	H	0.633997	0.984248	-0.701247
H105	H	0.698793	0.943364	-0.568512
C106	C	-0.216333	0.909904	0.243746
C107	C	-0.129389	0.841719	0.202794
C108	C	-0.075267	0.800963	0.321661
H109	H	-0.172785	0.948400	0.296877
H110	H	-0.282153	0.889998	0.299020
H111	H	-0.063579	0.861626	0.147543
H112	H	-0.172906	0.803204	0.149679
H113	H	-0.141087	0.781058	0.376935
H114	H	-0.031726	0.839466	0.374784
H115	H	-0.016278	0.754691	0.293892
C116	C	-0.267311	1.164766	-0.000374
C117	C	-0.318455	1.205425	-0.120706
C118	C	-0.289294	1.289138	-0.121213
H119	H	-0.303226	1.192994	0.080142
H120	H	-0.176910	1.165743	0.000368
H121	H	-0.408838	1.204454	-0.121434
H122	H	-0.282548	1.177223	-0.201241
H123	H	-0.198893	1.290115	-0.120472
H124	H	-0.325211	1.317358	-0.040693
H125	H	-0.323980	1.316734	-0.202863
H126	H	-0.419673	1.065566	-0.211474
H127	H	-0.231327	0.921093	-0.211699
H128	H	0.285152	0.431885	-0.211439
C129	C	-0.434138	1.076696	0.243886
C130	C	-0.407854	1.161003	0.243347
C131	C	-0.461644	1.201797	0.362338
H132	H	-0.524264	1.074411	0.243529
H133	H	-0.398308	1.049470	0.325333
H134	H	-0.443689	1.188222	0.161921
H135	H	-0.317739	1.163313	0.243724
H136	H	-0.425814	1.174571	0.443785
H137	H	-0.551768	1.199506	0.361971
H138	H	-0.443808	1.259002	0.361995
H139	H	0.007702	1.102527	-0.587403
C140	C	-0.070805	0.957469	-0.398780
C141	C	-0.097533	0.878478	-0.448007
C142	C	-0.217313	0.860906	-0.397885
H143	H	-0.069747	0.957046	-0.299483
H144	H	-0.134994	0.999551	-0.430711
H145	H	-0.033361	0.836407	-0.416069
H146	H	-0.098617	0.878881	-0.547298
H147	H	-0.281501	0.902988	-0.429815
H148	H	-0.216243	0.860487	-0.298589
H149	H	-0.235468	0.807314	-0.431288
C150	C	-0.085140	0.453242	0.000135
C151	C	-0.085727	0.365475	-0.001137
C152	C	-0.212474	0.345299	-0.001106
H153	H	-0.127702	0.475711	0.081651
H154	H	-0.128154	0.476614	-0.080522
H155	H	-0.042731	0.342113	0.079512
H156	H	-0.043190	0.342985	-0.082647
H157	H	-0.255488	0.368671	-0.081763
H158	H	-0.255025	0.367773	0.080411
H159	H	-0.212889	0.285748	-0.001982
