data_functionalizedCrystal
_audit_creation_method	'MofGen! by Chris Wilmer'
_symmetry_space_group_name_H-M	'P1'
_symmetry_Int_Tables_number	1
_symmetry_cell_setting	triclinic
loop_
_symmetry_equiv_pos_as_xyz
  x,y,z
_cell_length_a	13.897449
_cell_length_b	29.839131
_cell_length_c	13.897441
_cell_angle_alpha	90.042797
_cell_angle_beta	90.023394
_cell_angle_gamma	90.036054
loop_
_atom_site_label
_atom_site_type_symbol
_atom_site_fract_x
_atom_site_fract_y
_atom_site_fract_z
Zn1	Zn	1.474585	-0.178829	0.545368
Zn2	Zn	1.474430	-0.253964	0.384035
Zn3	Zn	1.313274	-0.178850	0.384079
Zn4	Zn	1.313207	-0.253934	0.545280
O5	O	1.393874	-0.216394	0.464690
O6	O	1.609546	-0.188800	0.523985
O7	O	1.453015	-0.244021	0.249059
O8	O	1.334766	-0.115980	0.405529
O9	O	1.609432	-0.244001	0.405454
O10	O	1.453280	-0.115965	0.524028
O11	O	1.334615	-0.188835	0.249091
O12	O	1.178284	-0.188806	0.405444
O13	O	1.334651	-0.243950	0.680273
O14	O	1.178234	-0.243970	0.523878
O15	O	1.453215	-0.188771	0.680338
O16	O	1.452950	-0.316827	0.405369
O17	O	1.334500	-0.316805	0.523835
C18	C	1.143260	-0.216387	0.464657
C19	C	1.036046	-0.216395	0.464665
C20	C	0.948976	-0.216397	0.464681
C21	C	0.839743	-0.216400	0.464711
C22	C	1.393727	-0.333117	0.464609
C23	C	1.393752	-0.383051	0.464607
C24	C	1.455571	-0.692652	0.526480
C25	C	1.455676	-0.880325	0.526538
O26	O	1.508092	-0.904553	0.579085
N27	N	1.394038	-0.903836	0.464797
C28	C	1.332365	-0.880427	0.403042
O29	O	1.279933	-0.904731	0.350536
C30	C	1.332256	-0.692754	0.402990
C31	C	1.393905	-0.669245	0.464728
C32	C	1.517214	-0.669143	0.588214
C33	C	1.517191	-0.622227	0.588195
C34	C	1.455525	-0.598821	0.526443
C35	C	1.393882	-0.622330	0.464709
C36	C	1.270579	-0.669346	0.341240
C37	C	1.270555	-0.622425	0.341234
C38	C	1.332204	-0.598916	0.402972
C39	C	1.332192	-0.552008	0.402937
N40	N	1.393830	-0.528497	0.464678
C41	C	1.455496	-0.551903	0.526431
C42	C	1.332428	-0.978957	0.403073
C43	C	1.332456	-1.025875	0.403084
C44	C	1.455766	-1.025770	0.526582
C45	C	1.455742	-0.978851	0.526565
C46	C	1.394066	-0.955446	0.464814
C47	C	1.455444	-0.453377	0.526386
C48	C	1.455418	-0.406458	0.526359
C49	C	1.332105	-0.406567	0.402865
C50	C	1.332134	-0.453482	0.402888
C51	C	1.393807	-0.476886	0.464657
O52	O	1.279796	-0.527751	0.350426
O53	O	1.507905	-0.527591	0.578944
C54	C	1.455594	-0.739567	0.526499
C55	C	1.393951	-0.763076	0.464765
C56	C	1.332285	-0.739670	0.403013
C57	C	1.393979	-0.809994	0.464777
C58	C	1.455645	-0.833400	0.526530
C59	C	1.517283	-0.809889	0.588271
C60	C	1.517260	-0.762974	0.588252
C61	C	1.270647	-0.763181	0.341272
C62	C	1.270676	-0.810097	0.341295
C63	C	1.332342	-0.833503	0.403048
C64	C	1.645467	-0.216401	0.464725
C65	C	1.752681	-0.216405	0.464739
C66	C	1.393942	-0.216355	0.716284
C67	C	1.393972	-0.216338	0.823498
C68	C	1.394048	-0.099216	0.464793
C69	C	1.394122	-0.049281	0.464837
C70	C	1.393861	-0.216401	0.214076
C71	C	1.394019	-0.216292	0.106863
C72	C	1.393998	-0.216307	1.019793
C73	C	1.393980	-0.216325	0.910560
H74	H	1.505657	-0.472427	0.576691
H75	H	1.220430	-0.744128	0.290986
H76	H	1.282266	-1.045012	0.352801
H77	H	1.220328	-0.603370	0.290950
H78	H	1.282202	-0.959904	0.352785
H79	H	1.567388	-0.603089	0.638471
H80	H	1.220378	-0.688479	0.290966
H81	H	1.567497	-0.828955	0.638549
O82	O	1.515335	-0.383691	0.586429
C83	C	1.637682	-0.388547	0.708884
C84	C	1.569865	-0.414384	0.640922
H85	H	1.681802	-0.413351	0.752945
H86	H	1.593405	-0.366590	0.759336
H87	H	1.688094	-0.366568	0.664626
H88	H	1.519440	-0.436387	0.685102
H89	H	1.614202	-0.436312	0.590467
H90	H	1.281942	-0.472624	0.352609
H91	H	1.281900	-0.387502	0.352584
H92	H	1.567430	-0.688195	0.638506
H93	H	1.505941	-0.959713	0.576838
O94	O	1.577172	-0.740210	0.648321
C95	C	1.699519	-0.745075	0.770774
C96	C	1.631700	-0.770906	0.702806
H97	H	1.743637	-0.769882	0.814829
H98	H	1.655244	-0.723120	0.821232
H99	H	1.749933	-0.723094	0.726522
H100	H	1.581273	-0.792911	0.746981
H101	H	1.676034	-0.792833	0.652346
H102	H	1.505978	-1.044835	0.576862
O103	O	1.210695	-0.832861	0.281286
C104	C	1.088414	-0.828001	0.158766
C105	C	1.156281	-0.802167	0.226681
H106	H	1.044417	-0.803195	0.114586
H107	H	1.037898	-0.849953	0.202968
H108	H	1.132742	-0.849985	0.108414
H109	H	1.112032	-0.780158	0.277046
H110	H	1.206801	-0.780243	0.182418
