data_functionalizedCrystal
_audit_creation_method	'MofGen! by Chris Wilmer'
_symmetry_space_group_name_H-M	'P1'
_symmetry_Int_Tables_number	1
_symmetry_cell_setting	triclinic
loop_
_symmetry_equiv_pos_as_xyz
  x,y,z
_cell_length_a	10.489741
_cell_length_b	16.109301
_cell_length_c	15.186229
_cell_angle_alpha	90.005167
_cell_angle_beta	89.994657
_cell_angle_gamma	95.999673
loop_
_atom_site_label
_atom_site_type_symbol
_atom_site_fract_x
_atom_site_fract_y
_atom_site_fract_z
O1	O	1.692350	-0.117298	-0.073273
O2	O	1.320995	-0.128308	-0.073266
O3	O	1.516874	-0.001835	-0.073260
O4	O	1.496471	-0.243771	-0.073278
O5	O	1.516861	-0.001833	0.073197
O6	O	1.320981	-0.128306	0.073192
O7	O	1.692337	-0.117296	0.073185
Zn8	Zn	1.506657	-0.122801	0.096441
Zn9	Zn	1.506674	-0.122803	-0.096522
O10	O	1.496458	-0.243769	0.073179
C11	C	1.273468	-0.127475	-0.000036
C12	C	1.131875	-0.124987	-0.000033
C13	C	1.516041	0.029146	-0.000031
C14	C	1.513563	0.121457	-0.000030
C15	C	1.739863	-0.118128	-0.000047
C16	C	1.881456	-0.120616	-0.000056
C17	C	1.948429	-0.201087	-0.000052
C18	C	2.041114	-0.163075	-0.072257
C19	C	2.041067	-0.163054	0.072138
C20	C	1.972276	-0.082570	-0.072321
C21	C	1.972220	-0.082560	0.072140
C22	C	2.064878	-0.044489	-0.000083
C23	C	1.497291	-0.274750	-0.000052
C24	C	1.499769	-0.367060	-0.000059
N25	N	1.506655	-0.122798	0.228134
C26	C	1.624032	0.343048	-0.000046
C27	C	1.621694	0.429783	-0.000053
C28	C	1.389290	0.411341	-0.000045
C29	C	1.391630	0.324608	-0.000045
C30	C	1.509004	0.290464	-0.000040
C31	C	1.504327	0.463932	-0.000049
C32	C	1.501791	0.557974	-0.000056
C33	C	1.511541	0.196417	-0.000034
N34	N	1.506687	-0.122799	-0.228215
C35	C	1.593419	-0.066815	0.453859
C36	C	1.593423	-0.066813	0.546049
C37	C	1.419913	-0.178784	0.546053
C38	C	1.419904	-0.178782	0.453865
C39	C	1.506664	-0.122798	0.407771
C40	C	1.506677	-0.122799	0.592148
C41	C	1.506681	-0.122797	0.692104
C42	C	1.506659	-0.122799	0.307808
H43	H	1.897820	-0.267251	-0.000130
H44	H	1.349251	-0.224370	0.416337
C45	C	1.266636	0.267609	-0.000175
C46	C	1.195951	0.283151	-0.075510
C47	C	1.080799	0.230668	-0.075659
H48	H	1.284659	0.211037	-0.000223
H49	H	1.218433	0.278049	0.050873
H50	H	1.244143	0.272705	-0.126545
H51	H	1.177893	0.339713	-0.075479
H52	H	1.032597	0.241108	-0.024610
H53	H	1.098835	0.174100	-0.075704
H54	H	1.032820	0.241212	-0.126768
H55	H	2.071646	-0.197126	-0.133305
H56	H	1.941660	-0.048539	0.133193
C57	C	1.932007	-0.037307	-0.153924
C58	C	1.967748	-0.079310	-0.229267
C59	C	1.930686	-0.037636	-0.304455
H60	H	1.841685	-0.036004	-0.153573
H61	H	1.972968	0.018154	-0.154177
H62	H	1.926783	-0.134756	-0.229014
H63	H	2.058064	-0.080614	-0.229647
H64	H	1.971647	0.017825	-0.304708
H65	H	1.840365	-0.036335	-0.304095
H66	H	1.954941	-0.066124	-0.355584
C67	C	2.132240	0.043763	-0.000261
C68	C	2.209741	0.055318	-0.075241
C69	C	2.271828	0.136599	-0.075432
H70	H	2.070200	0.082696	-0.000815
H71	H	2.183849	0.052122	0.051025
H72	H	2.158136	0.046966	-0.126513
H73	H	2.271805	0.016404	-0.074702
H74	H	2.323437	0.144959	-0.024147
H75	H	2.209778	0.175525	-0.075985
H76	H	2.324428	0.144447	-0.126301
H77	H	1.664063	-0.021229	0.416331
C78	C	1.325521	-0.239469	0.596057
C79	C	1.200194	-0.225173	0.573668
C80	C	1.113206	-0.281054	0.619722
H81	H	1.339169	-0.295082	0.580979
H82	H	1.337868	-0.231449	0.657570
H83	H	1.187852	-0.233201	0.512169
H84	H	1.186505	-0.169572	0.588749
H85	H	1.125553	-0.273033	0.681235
H86	H	1.126866	-0.336662	0.604641
H87	H	1.028162	-0.271356	0.604544
H88	H	1.719606	0.315251	-0.000045
H89	H	2.071544	-0.197116	0.133184
C90	C	1.746722	0.486735	-0.000012
C91	C	1.850006	0.438265	0.000014
C92	C	1.965206	0.490701	0.000063
H93	H	1.750829	0.520965	-0.051072
H94	H	1.750706	0.520947	0.051080
H95	H	1.846024	0.404068	-0.051073
H96	H	1.845942	0.404038	0.051071
H97	H	1.969190	0.524913	0.051154
H98	H	1.969300	0.524927	-0.050999
H99	H	2.035298	0.457822	0.000088
C100	C	1.687762	-0.005997	0.595929
C101	C	1.763756	0.043015	0.535826
C102	C	1.850688	0.099044	0.581742
H103	H	1.642052	0.028984	0.631902
H104	H	1.740913	-0.036223	0.631864
H105	H	1.710612	0.073238	0.499905
H106	H	1.809494	0.008056	0.499850
H107	H	1.903839	0.068818	0.617677
H108	H	1.804968	0.134019	0.617714
H109	H	1.902268	0.132299	0.540969
H110	H	1.293728	0.439152	-0.000047
