data_functionalizedCrystal
_audit_creation_method	'MofGen! by Chris Wilmer'
_symmetry_space_group_name_H-M	'P1'
_symmetry_Int_Tables_number	1
_symmetry_cell_setting	triclinic
loop_
_symmetry_equiv_pos_as_xyz
  x,y,z
_cell_length_a	18.215407
_cell_length_b	12.645330
_cell_length_c	18.215399
_cell_angle_alpha	90.023030
_cell_angle_beta	90.019833
_cell_angle_gamma	90.018140
loop_
_atom_site_label
_atom_site_type_symbol
_atom_site_fract_x
_atom_site_fract_y
_atom_site_fract_z
Zn1	Zn	1.125109	-0.422038	0.416141
Zn2	Zn	1.625109	0.077962	0.916141
Zn3	Zn	1.125033	-0.599320	0.293085
Zn4	Zn	1.625033	-0.099320	0.793085
Zn5	Zn	1.002041	-0.422072	0.293088
Zn6	Zn	1.502041	0.077928	0.793088
Zn7	Zn	1.002023	-0.599261	0.416110
Zn8	Zn	1.502023	-0.099261	0.916110
O9	O	1.063551	-0.510673	0.354606
O10	O	1.563551	-0.010673	0.854606
O11	O	1.228083	-0.445565	0.399829
O12	O	1.728083	0.054435	0.899829
O13	O	1.108693	-0.575847	0.190101
O14	O	1.608693	-0.075847	0.690101
O15	O	1.018406	-0.273720	0.309426
O16	O	1.518406	0.226280	0.809426
O17	O	1.228027	-0.575813	0.309421
O18	O	1.728027	-0.075813	0.809421
O19	O	1.108823	-0.273695	0.399832
O20	O	1.608823	0.226305	0.899832
O21	O	1.018332	-0.445624	0.190104
O22	O	1.518332	0.054376	0.690104
O23	O	0.899055	-0.445566	0.309396
O24	O	1.399055	0.054434	0.809396
O25	O	1.018374	-0.575713	0.519099
O26	O	1.518374	-0.075713	1.019099
O27	O	0.899041	-0.575746	0.399780
O28	O	1.399041	-0.075746	0.899780
O29	O	1.108805	-0.445507	0.519121
O30	O	1.608805	0.054493	1.019121
O31	O	1.108675	-0.747659	0.309391
O32	O	1.608675	-0.247659	0.809391
O33	O	1.018300	-0.747616	0.399777
O34	O	1.518300	-0.247616	0.899777
C35	C	0.872345	-0.510654	0.354585
C36	C	1.372345	-0.010654	0.854585
C37	C	0.790546	-0.510672	0.354594
C38	C	1.290546	-0.010672	0.854594
C39	C	0.602364	-0.578563	0.401597
C40	C	1.102364	-0.078563	0.901597
C41	C	0.525506	-0.578567	0.401606
C42	C	1.025506	-0.078567	0.901606
C43	C	0.525490	-0.442801	0.307631
C44	C	1.025490	0.057199	0.807631
C45	C	0.602348	-0.442793	0.307626
C46	C	1.102348	0.057207	0.807626
C47	C	0.640783	-0.510680	0.354608
C48	C	1.140783	-0.010680	0.854608
C49	C	0.487067	-0.510692	0.354622
C50	C	0.987067	-0.010692	0.854622
C51	C	0.403733	-0.510695	0.354632
C52	C	0.903733	-0.010695	0.854632
C53	C	0.724122	-0.510676	0.354600
C54	C	1.224122	-0.010676	0.854600
C55	C	1.063498	-0.786102	0.354596
C56	C	1.563498	-0.286102	0.854596
C57	C	1.063542	-0.903932	0.354616
C58	C	1.563542	-0.403932	0.854616
C59	C	1.006922	-1.071513	0.411653
C60	C	1.506922	-0.571513	0.911653
C61	C	1.006632	-0.948954	0.411470
C62	C	1.506632	-0.448954	0.911470
C63	C	1.042549	-0.948523	0.277058
C64	C	1.542549	-0.448523	0.777058
C65	C	1.042203	-1.071122	0.277404
C66	C	1.542203	-0.571122	0.777404
C67	C	1.141502	-1.071022	0.374509
C68	C	1.641502	-0.571022	0.874509
C69	C	1.141024	-0.948415	0.376205
C70	C	1.641024	-0.448415	0.876205
C71	C	1.255504	-0.510692	0.354628
C72	C	1.755504	-0.010692	0.854628
C73	C	1.337303	-0.510700	0.354637
C74	C	1.837303	-0.010700	0.854637
C75	C	1.063596	-0.510600	0.546559
C76	C	1.563596	-0.010600	1.046559
C77	C	1.063615	-0.510568	0.628358
C78	C	1.563615	-0.010568	1.128358
C79	C	1.063625	-0.234167	0.354633
C80	C	1.563625	0.265833	0.854633
C81	C	1.063657	-0.116337	0.354644
C82	C	1.563657	0.383663	0.854644
C83	C	1.063549	-0.510669	0.163400
C84	C	1.563549	-0.010669	0.663400
C85	C	1.063672	-0.510401	0.081602
C86	C	1.563672	-0.010401	0.581602
C87	C	1.110720	-0.442707	0.816565
C88	C	1.610720	0.057293	1.316565
C89	C	1.110728	-0.442676	0.893424
C90	C	1.610728	0.057324	1.393424
C91	C	1.016563	-0.578266	0.893389
C92	C	1.516563	-0.078266	1.393389
C93	C	1.016551	-0.578290	0.816532
C94	C	1.516551	-0.078290	1.316532
C95	C	1.063634	-0.510513	0.778122
C96	C	1.563634	-0.010513	1.278122
C97	C	1.063654	-0.510457	0.931838
C98	C	1.563654	-0.010457	1.431838
C99	C	1.063663	-0.510424	1.015172
C100	C	1.563663	-0.010424	1.515172
C101	C	1.063624	-0.510544	0.694783
C102	C	1.563624	-0.010544	1.194783
H103	H	0.633629	-0.387508	0.269362
H104	H	1.133629	0.112492	0.769362
H105	H	1.082562	-0.919362	0.233421
H106	H	1.582562	-0.419362	0.733421
H107	H	0.494229	-0.633842	0.439871
H108	H	0.994229	-0.133842	0.939871
H109	H	1.019935	-1.100928	0.469351
H110	H	1.519935	-0.600928	0.969351
H111	H	0.494187	-0.387531	0.269379
H112	H	0.994187	0.112469	0.769379
C113	C	1.024348	-0.908216	0.489163
C114	C	1.524348	-0.408216	0.989163
H115	H	1.031787	-0.966593	0.521123
H116	H	1.531787	-0.466593	1.021123
H117	H	1.067592	-0.866267	0.487665
H118	H	1.567592	-0.366267	0.987665
H119	H	0.984576	-0.866670	0.506644
H120	H	1.484576	-0.366670	1.006644
C121	C	1.162501	-0.368150	0.774313
C122	C	1.662501	0.131850	1.274313
H123	H	1.155757	-0.377880	0.723033
H124	H	1.655757	0.122120	1.223033
H125	H	1.151750	-0.296919	0.786916
H126	H	1.651750	0.203081	1.286916
H127	H	1.211949	-0.383669	0.786918
H128	H	1.711949	0.116331	1.286918
C129	C	0.929445	-1.113243	0.394101
C130	C	1.429445	-0.613243	0.894101
H131	H	0.931523	-1.157861	0.352179
H132	H	1.431523	-0.657861	0.852179
H133	H	0.911371	-1.152243	0.434830
H134	H	1.411371	-0.652243	0.934830
H135	H	0.897643	-1.055361	0.384449
H136	H	1.397643	-0.555361	0.884449
C137	C	0.928674	-0.909452	0.393681
C138	C	1.428674	-0.409452	0.893681
H139	H	0.897060	-0.968333	0.386532
H140	H	1.397060	-0.468333	0.886532
H141	H	0.910990	-0.867728	0.433279
H142	H	1.410990	-0.367728	0.933279
H143	H	0.929877	-0.867938	0.350242
H144	H	1.429877	-0.367938	0.850242
H145	H	0.985298	-1.099813	0.260576
H146	H	1.485298	-0.599813	0.760576
C147	C	1.095590	-1.111189	0.218057
C148	C	1.595590	-0.611189	0.718057
H149	H	1.117389	-1.052536	0.193839
H150	H	1.617389	-0.552536	0.693839
H151	H	1.132815	-1.152861	0.240337
H152	H	1.632815	-0.652861	0.740337
H153	H	1.069490	-1.152873	0.183368
H154	H	1.569490	-0.652873	0.683368
H155	H	0.986237	-0.917912	0.259925
H156	H	1.486237	-0.417912	0.759925
H157	H	1.149069	-0.387460	0.924721
H158	H	1.649069	0.112540	1.424721
C159	C	0.644644	-0.653232	0.453274
C160	C	1.144644	-0.153232	0.953274
H161	H	0.695920	-0.643516	0.446537
H162	H	1.195920	-0.143516	0.946537
H163	H	0.632073	-0.637813	0.502741
H164	H	1.132073	-0.137813	1.002741
H165	H	0.632028	-0.724443	0.442415
H166	H	1.132028	-0.224443	0.942415
C167	C	1.167376	-1.112681	0.449612
C168	C	1.667376	-0.612681	0.949612
H169	H	1.214450	-1.084390	0.460552
H170	H	1.714450	-0.584390	0.960552
H171	H	1.133487	-1.091693	0.486464
H172	H	1.633487	-0.591693	0.986464
H173	H	1.170163	-1.187671	0.448148
H174	H	1.670163	-0.687671	0.948148
H175	H	1.156855	-0.919267	0.433284
H176	H	1.656855	-0.419267	0.933284
C177	C	1.201135	-0.907029	0.324189
C178	C	1.701135	-0.407029	0.824189
H179	H	1.179669	-0.861882	0.288463
H180	H	1.679669	-0.361882	0.788463
H181	H	1.236621	-0.868664	0.351628
H182	H	1.736621	-0.368664	0.851628
H183	H	1.224191	-0.965020	0.300367
H184	H	1.724191	-0.465020	0.800367
C185	C	0.964755	-0.652878	0.774238
C186	C	1.464755	-0.152878	1.274238
H187	H	0.971486	-0.643175	0.722963
H188	H	1.471486	-0.143175	1.222963
H189	H	0.975506	-0.724103	0.786823
H190	H	1.475506	-0.224103	1.286823
H191	H	0.915311	-0.637348	0.786826
H192	H	1.415311	-0.137348	1.286826
C193	C	0.964783	-0.652824	0.935642
C194	C	1.464783	-0.152824	1.435642
H195	H	0.971539	-0.643107	0.986922
H196	H	1.471539	-0.143107	1.486922
H197	H	0.915338	-0.637316	0.923041
H198	H	1.415338	-0.137316	1.423041
H199	H	0.975542	-0.724059	0.923038
H200	H	1.475542	-0.224059	1.423038
H201	H	1.183771	-1.100007	0.332986
H202	H	1.683771	-0.600007	0.832986
