data_functionalizedCrystal
_audit_creation_method	'MofGen! by Chris Wilmer'
_symmetry_space_group_name_H-M	'P1'
_symmetry_Int_Tables_number	1
_symmetry_cell_setting	triclinic
loop_
_symmetry_equiv_pos_as_xyz
  x,y,z
_cell_length_a	12.594517
_cell_length_b	12.594516
_cell_length_c	12.594517
_cell_angle_alpha	90.001327
_cell_angle_beta	89.995054
_cell_angle_gamma	90.016010
loop_
_atom_site_label
_atom_site_type_symbol
_atom_site_fract_x
_atom_site_fract_y
_atom_site_fract_z
Zn1	Zn	1.627065	-0.423973	0.601675
Zn2	Zn	1.627015	-0.601906	0.423703
Zn3	Zn	1.449128	-0.423941	0.423726
Zn4	Zn	1.449051	-0.601909	0.601655
O5	O	1.538065	-0.512932	0.512690
O6	O	1.776004	-0.447587	0.578066
O7	O	1.603430	-0.578284	0.274760
O8	O	1.472785	-0.275000	0.447349
O9	O	1.775968	-0.578314	0.447310
O10	O	1.603514	-0.275023	0.578088
O11	O	1.472737	-0.447534	0.274777
O12	O	1.300172	-0.447538	0.447330
O13	O	1.472653	-0.578320	0.750603
O14	O	1.300115	-0.578290	0.578053
O15	O	1.603439	-0.447591	0.750618
O16	O	1.603355	-0.750852	0.447291
O17	O	1.472605	-0.750855	0.578031
C18	C	1.261524	-0.512912	0.512692
C19	C	1.143218	-0.512928	0.512719
C20	C	1.003202	-0.584173	0.583687
C21	C	1.074005	-0.610039	0.486547
C22	C	1.073987	-0.487110	0.609848
C23	C	1.003236	-0.538879	0.415495
C24	C	1.003212	-0.415905	0.538862
C25	C	1.073983	-0.441733	0.441655
C26	C	1.537995	-0.789473	0.512679
C27	C	1.538063	-0.907779	0.512710
C28	C	1.466941	-0.977072	0.583770
C29	C	1.441040	-1.047895	0.486650
C30	C	1.564060	-1.047754	0.609847
C31	C	1.512110	-0.977044	0.415539
C32	C	1.635176	-0.976897	0.538801
C33	C	1.609312	-1.047688	0.441615
C34	C	1.815686	-0.512954	0.512688
C35	C	1.933991	-0.512963	0.512687
C36	C	1.538043	-0.512960	0.790311
C37	C	1.538033	-0.512971	0.908616
C38	C	1.538164	-0.235311	0.512724
C39	C	1.538206	-0.117006	0.512738
C40	C	1.466898	-0.584064	0.977861
C41	C	1.563995	-0.610101	1.048640
C42	C	1.440941	-0.486961	1.048636
C43	C	1.635181	-0.539058	0.977837
C44	C	1.512063	-0.415873	0.977826
C45	C	1.609227	-0.441873	1.048574
C46	C	1.538064	-0.512937	1.236149
C47	C	1.538027	-0.512951	1.117843
H48	H	1.105066	-0.465258	0.692003
H49	H	0.972288	-0.560830	0.333318
O50	O	1.343209	-1.085158	0.460150
C51	C	1.239756	-1.188962	0.337135
C52	C	1.350605	-1.146817	0.367000
H53	H	1.245702	-1.238840	0.261834
H54	H	1.183783	-1.119292	0.322841
H55	H	1.207728	-1.240018	0.404678
H56	H	1.382729	-1.095777	0.299496
H57	H	1.406507	-1.216535	0.381332
H58	H	1.358835	-0.464971	1.079735
O59	O	1.485800	-0.939974	0.317598
C60	C	1.456270	-0.786189	0.207688
C61	C	1.486061	-0.828027	0.318657
H62	H	1.456493	-0.695675	0.208501
H63	H	1.373777	-0.815990	0.185296
H64	H	1.516566	-0.815939	0.147088
H65	H	1.425836	-0.798295	0.379331
H66	H	1.568581	-0.798235	0.340959
H67	H	1.669519	-1.078500	0.381464
O68	O	1.732999	-0.939481	0.565086
C69	C	1.842677	-0.785311	0.593678
C70	C	1.731849	-0.827542	0.563858
H71	H	1.841778	-0.694804	0.592718
H72	H	1.903615	-0.815508	0.533945
H73	H	1.864670	-0.814368	0.676531
H74	H	1.709756	-0.798502	0.481031
H75	H	1.670976	-0.797353	0.623660
O76	O	1.590032	-0.708113	1.085708
C77	C	1.544553	-0.893873	1.091682
C78	C	1.514940	-0.782930	1.049659
H79	H	1.483870	-0.954397	1.062535
H80	H	1.545009	-0.892786	1.182193
H81	H	1.626762	-0.916578	1.061367
H82	H	1.432725	-0.760157	1.079895
H83	H	1.514557	-0.784076	0.959149
H84	H	0.972124	-0.644454	0.643641
H85	H	1.406688	-0.946063	0.643776
H86	H	1.104865	-0.381498	0.381556
H87	H	1.717312	-0.561142	0.946869
O88	O	1.590106	-1.084683	0.707912
C89	C	1.544424	-1.090734	0.893611
C90	C	1.514830	-1.048827	0.782616
H91	H	1.483567	-1.061779	0.954036
H92	H	1.626540	-1.060281	0.916509
H93	H	1.545039	-1.181241	0.892443
H94	H	1.514154	-0.958323	0.783700
H95	H	1.432733	-1.079361	0.759762
H96	H	1.406818	-0.644240	0.946813
O97	O	1.681150	-0.370128	1.085207
C98	C	1.813355	-0.239285	1.040278
C99	C	1.731952	-0.320509	0.998648
H100	H	1.854435	-0.199130	0.970316
H101	H	1.875017	-0.281666	1.091201
H102	H	1.770814	-0.176870	1.090148
H103	H	1.774401	-0.382946	0.948733
H104	H	1.670295	-0.278054	0.947783
O105	O	1.111057	-0.708004	0.460313
C106	C	1.116971	-0.893843	0.505410
C107	C	1.074969	-0.782953	0.535248
H108	H	1.087793	-0.954473	0.565966
H109	H	1.207483	-0.892756	0.504965
H110	H	1.086672	-0.916404	0.423152
H111	H	1.105189	-0.760324	0.617512
H112	H	0.984459	-0.784100	0.535620
O113	O	0.966125	-0.318065	0.565483
C114	C	0.960084	-0.180181	0.697990
C115	C	1.002138	-0.291004	0.667972
H116	H	0.989201	-0.158259	0.780845
H117	H	0.869573	-0.180930	0.697026
H118	H	0.990405	-0.119275	0.638278
H119	H	0.971895	-0.351972	0.727655
H120	H	1.092647	-0.290167	0.668904
H121	H	1.490063	-0.333792	0.946698
