data_functionalizedCrystal
_audit_creation_method	'MofGen! by Chris Wilmer'
_symmetry_space_group_name_H-M	'P1'
_symmetry_Int_Tables_number	1
_symmetry_cell_setting	triclinic
loop_
_symmetry_equiv_pos_as_xyz
  x,y,z
_cell_length_a	10.654550
_cell_length_b	16.992694
_cell_length_c	9.130313
_cell_angle_alpha	90.002155
_cell_angle_beta	89.998405
_cell_angle_gamma	87.576576
loop_
_atom_site_label
_atom_site_type_symbol
_atom_site_fract_x
_atom_site_fract_y
_atom_site_fract_z
O1	O	0.266431	1.041839	-0.121600
O2	O	0.766431	1.541839	0.378400
O3	O	0.263508	0.813538	-0.121644
O4	O	0.763508	1.313538	0.378356
O5	O	0.082684	0.932938	-0.121622
O6	O	0.582684	1.432938	0.378378
O7	O	0.447255	0.922439	-0.121622
O8	O	0.947255	1.422439	0.378378
O9	O	0.082678	0.932929	0.121977
O10	O	0.582678	1.432929	0.621977
O11	O	0.263502	0.813530	0.121955
O12	O	0.763502	1.313530	0.621955
O13	O	0.266425	1.041831	0.121999
O14	O	0.766425	1.541831	0.621999
Cu15	Cu	0.264963	0.927679	0.144219
Cu16	Cu	0.764963	1.427679	0.644219
Cu17	Cu	0.264970	0.927689	-0.143864
Cu18	Cu	0.764970	1.427689	0.356136
O19	O	0.447249	0.922431	0.121977
O20	O	0.947249	1.422431	0.621977
C21	C	0.259745	0.784301	0.000150
C22	C	0.759745	1.284301	0.500150
C23	C	0.248526	0.697196	0.000133
C24	C	0.748526	1.197196	0.500133
C25	C	0.035816	0.932163	0.000174
C26	C	0.535816	1.432163	0.500174
C27	C	-0.103826	0.929856	0.000163
C28	C	0.396174	1.429856	0.500163
C29	C	-0.300645	0.926602	-0.132612
C30	C	0.199355	1.426602	0.367388
C31	C	-0.169437	0.928777	-0.132621
C32	C	0.330563	1.428777	0.367379
C33	C	-0.169431	0.928769	0.132964
C34	C	0.330569	1.428769	0.632964
C35	C	-0.300638	0.926600	0.132971
C36	C	0.199362	1.426600	0.632971
C37	C	0.356776	0.647544	0.000134
C38	C	0.856776	1.147544	0.500134
C39	C	0.346227	0.565700	0.000155
C40	C	0.846227	1.065700	0.500155
C41	C	0.227426	0.533509	0.000163
C42	C	0.727426	1.033509	0.500163
C43	C	0.119167	0.583167	0.000166
C44	C	0.619167	1.083167	0.500166
C45	C	0.129718	0.665010	0.000157
C46	C	0.629718	1.165010	0.500157
C47	C	0.183699	0.289674	0.000202
C48	C	0.683699	0.789674	0.500202
C49	C	0.173157	0.207825	0.000208
C50	C	0.673157	0.707825	0.500208
C51	C	0.400218	0.190363	0.000199
C52	C	0.900218	0.690363	0.500199
C53	C	0.410758	0.272208	0.000180
C54	C	0.910758	0.772208	0.500180
C55	C	0.302499	0.321859	0.000191
C56	C	0.802499	0.821859	0.500191
N57	N	0.216640	0.449852	0.000179
N58	N	0.716640	0.949852	0.500179
N59	N	0.313286	0.405515	0.000186
N60	N	0.813286	0.905515	0.500186
C61	C	0.494117	0.923206	0.000178
C62	C	0.994117	1.423206	0.500178
C63	C	0.633759	0.925512	0.000179
C64	C	1.133759	1.425512	0.500179
C65	C	0.270188	1.071068	0.000202
C66	C	0.770188	1.571068	0.500202
C67	C	0.281408	1.158173	0.000209
C68	C	0.781408	1.658173	0.500209
N69	N	0.264957	0.927678	0.346842
N70	N	0.764957	1.427678	0.846842
N71	N	0.264966	0.927697	-0.346487
N72	N	0.764966	1.427697	0.153513
C73	C	0.184926	0.980567	0.423503
C74	C	0.684926	1.480567	0.923503
C75	C	0.184927	0.980574	0.576840
C76	C	0.684927	1.480574	1.076840
C77	C	0.345001	0.874803	0.576841
C78	C	0.845001	1.374803	1.076841
C79	C	0.344993	0.874792	0.423507
C80	C	0.844993	1.374792	0.923507
H81	H	-0.354055	0.925716	-0.240740
H82	H	0.145945	1.425716	0.259260
H83	H	-0.354048	0.925714	0.241112
H84	H	0.145952	1.425714	0.741112
H85	H	-0.116002	0.929653	0.241079
H86	H	0.383998	1.429653	0.741079
H87	H	0.119754	1.023629	0.361087
H88	H	0.619754	1.523629	0.861087
H89	H	0.453517	0.673747	0.000126
H90	H	0.953517	1.173747	0.500126
H91	H	0.434377	0.525276	0.000154
H92	H	0.934377	1.025276	0.500154
H93	H	-0.116034	0.929666	-0.240752
H94	H	0.383966	1.429666	0.259248
H95	H	0.041568	0.705436	0.000155
H96	H	0.541568	1.205436	0.500155
H97	H	0.507498	0.298411	0.000156
H98	H	1.007498	0.798411	0.500156
H99	H	0.119756	1.023639	0.639254
H100	H	0.619756	1.523639	1.139254
H101	H	0.095546	0.330090	0.000212
H102	H	0.595546	0.830090	0.500212
H103	H	0.410165	0.831720	0.361085
H104	H	0.910165	1.331720	0.861085
H105	H	0.488356	0.149929	0.000193
H106	H	0.988356	0.649929	0.500193
H107	H	0.076410	0.181619	0.000213
H108	H	0.576410	0.681619	0.500213
H109	H	0.022437	0.556951	0.000194
H110	H	0.522437	1.056951	0.500194
H111	H	0.410167	0.831745	0.639277
H112	H	0.910167	1.331745	1.139277
