data_functionalizedCrystal
_audit_creation_method	'MofGen! by Chris Wilmer'
_symmetry_space_group_name_H-M	'P1'
_symmetry_Int_Tables_number	1
_symmetry_cell_setting	triclinic
loop_
_symmetry_equiv_pos_as_xyz
  x,y,z
_cell_length_a	33.510554
_cell_length_b	33.509711
_cell_length_c	33.506470
_cell_angle_alpha	60.004186
_cell_angle_beta	60.008358
_cell_angle_gamma	59.994760
loop_
_atom_site_label
_atom_site_type_symbol
_atom_site_fract_x
_atom_site_fract_y
_atom_site_fract_z
O1	O	0.055430	-0.583081	0.487524
O2	O	0.020931	-0.453975	0.392819
O3	O	0.102693	-0.535652	0.392731
O4	O	-0.026332	-0.501404	0.487613
O5	O	0.129823	-0.508526	0.419767
O6	O	0.048062	-0.426850	0.419856
O7	O	0.082561	-0.555956	0.514561
Cu8	Cu	0.067789	-0.488926	0.469677
Cu9	Cu	0.035703	-0.521005	0.437703
O10	O	0.000799	-0.474279	0.514649
N11	N	0.090357	-0.466366	0.492168
N12	N	0.013139	-0.543569	0.415212
C13	C	0.143028	-0.279707	0.544737
C14	C	0.143165	-0.413746	0.678712
C15	C	0.143043	-0.413725	0.544739
C16	C	0.277090	-0.413694	0.544637
C17	C	0.157791	-0.323929	0.559462
C18	C	0.157869	-0.398994	0.634489
C19	C	0.232865	-0.398963	0.559407
C20	C	0.157801	-0.398982	0.559463
C21	C	0.124237	-0.223419	0.525994
C22	C	0.124262	-0.432490	0.525997
C23	C	0.176583	-0.380217	0.578205
C24	C	0.358938	-0.399566	0.501510
C25	C	0.410104	-0.416609	0.484423
C26	C	0.410135	-0.499402	0.515995
C27	C	0.358969	-0.482358	0.533084
C28	C	0.136554	-0.197822	0.475693
C29	C	0.119469	-0.146653	0.458657
C30	C	0.077755	-0.146680	0.542223
C31	C	0.094840	-0.197850	0.559260
C32	C	0.073954	-0.420144	0.538396
C33	C	0.056884	-0.437203	0.521352
C34	C	0.140427	-0.478952	0.479524
C35	C	0.157498	-0.461894	0.496561
C36	C	0.074158	-0.420182	0.760618
C37	C	0.057149	-0.437256	0.811786
C38	C	0.140732	-0.479014	0.811717
C39	C	0.157740	-0.461942	0.760547
C40	C	0.124452	-0.432525	0.734999
C41	C	0.333372	-0.432439	0.525839
C42	C	-0.020612	-0.577650	0.170305
C43	C	-0.020943	-0.788098	0.380897
C44	C	-0.020912	-0.577638	0.380991
C45	C	-0.231336	-0.577418	0.380585
C46	C	-0.129735	-0.611383	0.346870
C47	C	-0.054722	-0.611464	0.347017
C48	C	-0.073450	-0.630202	0.328195
C49	C	-0.087616	-0.712029	0.371239
C50	C	-0.070599	-0.763199	0.388315
C51	C	0.012191	-0.763282	0.356872
C52	C	-0.004828	-0.712113	0.339795
C53	C	-0.155381	-0.623711	0.397158
C54	C	-0.206547	-0.606601	0.414133
C55	C	-0.206417	-0.564839	0.330529
C56	C	-0.155251	-0.581949	0.313554
C57	C	-0.067051	-0.561160	0.334643
C58	C	-0.050026	-0.544131	0.351759
C59	C	-0.008343	-0.627704	0.393612
C60	C	-0.025368	-0.644736	0.376502
C61	C	-0.066922	-0.561168	0.246303
C62	C	-0.049794	-0.544141	0.195134
C63	C	-0.008048	-0.627719	0.195183
C64	C	-0.025175	-0.644745	0.246352
C65	C	-0.054614	-0.611468	0.271911
C66	C	-0.054732	-0.686488	0.346980
C67	C	-0.002117	-0.558258	0.114025
C68	C	-0.002879	-0.844379	0.399940
C69	C	-0.002504	-0.558243	0.399473
C70	C	-0.287615	-0.558285	0.398601
N71	N	0.434975	-0.466279	0.491900
O72	O	0.591199	-0.470749	0.375150
O73	O	0.591395	-0.565767	0.504116
O74	O	0.591311	-0.565550	0.422329
O75	O	0.591283	-0.470966	0.456937
O76	O	0.510024	-0.538522	0.449509
O77	O	0.510108	-0.538739	0.531297
O78	O	0.509913	-0.443721	0.402330
Cu79	Cu	0.502588	-0.488762	0.469295
Cu80	Cu	0.598719	-0.520726	0.437151
O81	O	0.509997	-0.443938	0.484117
N82	N	0.666332	-0.543209	0.414541
N83	N	0.090323	-0.121809	0.492157
O84	O	-0.026342	0.034503	0.487582
O85	O	0.102626	0.034543	0.392540
O86	O	0.020797	0.034507	0.392812
O87	O	0.055487	0.034539	0.487310
O88	O	0.047933	-0.046785	0.419900
O89	O	0.129763	-0.046749	0.419628
O90	O	0.000794	-0.046789	0.514670
Cu91	Cu	0.067756	-0.054192	0.469623
Cu92	Cu	0.035664	0.041946	0.437588
O93	O	0.082623	-0.046753	0.514399
N94	N	0.013091	0.109564	0.415054
N95	N	0.090671	-0.466416	0.836606
O96	O	0.086120	-0.583065	0.992910
O97	O	-0.008880	-0.454051	0.992954
O98	O	-0.008658	-0.535864	0.992931
O99	O	0.085897	-0.501252	0.992933
O100	O	0.018407	-0.508749	0.911642
O101	O	0.018185	-0.426936	0.911665
O102	O	0.113185	-0.555949	0.911621
Cu103	Cu	0.068156	-0.488967	0.904221
Cu104	Cu	0.036148	-0.521034	1.000355
O105	O	0.112963	-0.474136	0.911644
N106	N	0.013633	-0.543590	1.067970
C107	C	0.031262	-0.424144	0.393290
C108	C	0.132513	-0.525291	0.393180
C109	C	0.072229	-0.585787	0.514090
C110	C	-0.029022	-0.484640	0.514200
C111	C	0.550775	-0.565338	0.533954
C112	C	0.550672	-0.565070	0.432670
C113	C	0.550530	-0.444149	0.372492
C114	C	0.550635	-0.444418	0.473776
C115	C	0.132408	-0.005998	0.392963
C116	C	0.031106	-0.006142	0.393333
C117	C	-0.029021	-0.006147	0.514213
C118	C	0.072314	-0.006104	0.513878
C119	C	-0.008430	-0.424240	0.952316
C120	C	-0.008150	-0.525550	0.952271
C121	C	0.112735	-0.585760	0.952260
C122	C	0.112461	-0.484444	0.952286
H123	H	0.016194	-0.427197	0.832639
O124	O	0.081025	-0.629995	0.549621
C125	C	0.085525	-0.673756	0.631047
C126	C	0.075563	-0.623661	0.590846
H127	H	0.081102	-0.668651	0.664391
H128	H	0.124359	-0.698328	0.616799
H129	H	0.058451	-0.691374	0.641724
H130	H	0.102605	-0.606001	0.580152
H131	H	0.036715	-0.599123	0.605117
O132	O	0.550907	-0.600987	0.578100
C133	C	0.593137	-0.682479	0.621692
C134	C	0.593041	-0.642154	0.571666
H135	H	0.627204	-0.715769	0.616508
H136	H	0.559163	-0.693213	0.639279
H137	H	0.593128	-0.668292	0.646331
H138	H	0.593067	-0.656307	0.546989
H139	H	0.627012	-0.631426	0.554118
O140	O	0.022333	-0.006221	0.357892
C141	C	0.045807	-0.048366	0.304610
C142	C	0.055797	-0.048330	0.344738
H143	H	0.072850	-0.082414	0.293970
H144	H	0.050182	-0.014368	0.271222
H145	H	0.006963	-0.048358	0.318957
H146	H	0.094639	-0.048356	0.330437
H147	H	0.051390	-0.082326	0.378118
H148	H	0.550467	-0.414317	0.335455
O149	O	0.081086	-0.006075	0.549346
C150	C	0.049176	-0.006110	0.631705
C151	C	0.039173	-0.006131	0.591577
H152	H	0.015299	-0.006165	0.665862
H153	H	0.058448	0.027927	0.618181
H154	H	0.081204	-0.040115	0.640789
H155	H	0.007138	0.027850	0.582476
H156	H	0.029929	-0.040190	0.605122
O157	O	0.148335	-0.629964	0.952309
C158	C	0.201780	-0.701716	0.994414
C159	C	0.161474	-0.651661	0.994414
H160	H	0.212408	-0.719277	1.028457
H161	H	0.235130	-0.696599	0.960414
H162	H	0.187615	-0.726346	0.994383
H163	H	0.175593	-0.627005	0.994462
H164	H	0.128131	-0.656815	1.028411
O165	O	0.022523	-0.379880	0.357814
C166	C	0.046123	-0.308029	0.304391
C167	C	0.056065	-0.358142	0.344573
H168	H	0.073242	-0.290443	0.293666
H169	H	0.007309	-0.283435	0.318660
H170	H	0.050476	-0.313125	0.271072
H171	H	0.051739	-0.353092	0.377905
H172	H	0.094875	-0.382718	0.330265
H173	H	0.550629	-0.414708	0.481180
H174	H	0.169570	-0.532590	0.363385
H175	H	-0.066081	-0.477343	0.543993
H176	H	0.142166	-0.477036	0.952281
O177	O	0.176520	-0.005692	0.357323
C178	C	0.256914	-0.005289	0.334432
C179	C	0.206976	-0.005625	0.374834
H180	H	0.281555	-0.005246	0.348578
H181	H	0.251589	0.028814	0.301208
H182	H	0.274581	-0.039226	0.323608
H183	H	0.189282	0.028289	0.385699
H184	H	0.212333	-0.039751	0.408031
O185	O	-0.073243	-0.006129	0.549746
C186	C	-0.153758	-0.006171	0.572517
C187	C	-0.103702	-0.006185	0.532232
H188	H	-0.178395	-0.006226	0.558375
H189	H	-0.171336	0.027863	0.583163
H190	H	-0.148587	-0.040178	0.605855
H191	H	-0.108830	0.027799	0.498868
H192	H	-0.086142	-0.040241	0.521627
H193	H	0.550685	-0.594783	0.425263
O194	O	-0.043967	-0.380018	0.952353
C195	C	-0.066684	-0.299489	0.952346
C196	C	-0.026400	-0.349551	0.952316
H197	H	-0.052493	-0.274838	0.952306
H198	H	-0.100012	-0.304599	0.986377
H199	H	-0.077364	-0.281956	0.918339
H200	H	-0.015679	-0.367111	0.986300
H201	H	0.006901	-0.344409	0.918262
O202	O	-0.043514	-0.534441	0.952208
C203	C	-0.065855	-0.592500	0.952162
C204	C	-0.025758	-0.582493	0.952222
H205	H	-0.051518	-0.631352	0.952184
H206	H	-0.076524	-0.565458	0.918128
H207	H	-0.099225	-0.588106	0.986167
H208	H	0.007638	-0.586894	0.918240
H209	H	-0.015131	-0.609533	0.986278
H210	H	0.167840	-0.502959	0.832516
O211	O	0.041754	-0.391626	0.735878
C212	C	-0.042946	-0.351983	0.741351
C213	C	-0.006303	-0.384332	0.769430
H214	H	-0.081807	-0.346066	0.768465
H215	H	-0.037109	-0.370718	0.717411
H216	H	-0.037044	-0.315183	0.717384
H217	H	-0.012182	-0.421137	0.793423
H218	H	-0.012149	-0.365558	0.793339
H219	H	0.338156	-0.509129	0.552896
O220	O	0.206610	-0.474018	0.735717
C221	C	0.283253	-0.538870	0.719984
C222	C	0.227918	-0.525264	0.748141
H223	H	0.300496	-0.580301	0.730010
H224	H	0.300540	-0.524780	0.730038
H225	H	0.289683	-0.521593	0.679026
H226	H	0.221444	-0.542536	0.789104
H227	H	0.210659	-0.539344	0.738046
O228	O	0.041647	-0.391509	0.566912
C229	C	-0.024588	-0.316221	0.573503
C230	C	0.011981	-0.348599	0.541152
H231	H	-0.048589	-0.281526	0.552692
H232	H	-0.003773	-0.306108	0.583545
H233	H	-0.048497	-0.337083	0.608239
H234	H	0.035900	-0.327767	0.506395
H235	H	-0.008863	-0.358715	0.531149
O236	O	0.008011	-0.425275	0.533479
C237	C	-0.068582	-0.429198	0.598397
C238	C	-0.013240	-0.442745	0.584731
H239	H	-0.085782	-0.443307	0.639835
H240	H	-0.075098	-0.446455	0.581194
H241	H	-0.085843	-0.387765	0.584273
H242	H	0.004058	-0.484170	0.598852
H243	H	-0.006759	-0.425453	0.601926
H244	H	0.198463	-0.471942	0.486461
O245	O	0.172783	-0.507496	0.450919
C246	C	0.257450	-0.547134	0.411255
C247	C	0.220864	-0.514797	0.443644
H248	H	0.296331	-0.553055	0.405371
H249	H	0.251556	-0.528386	0.374444
H250	H	0.251543	-0.583932	0.430003
H251	H	0.226749	-0.477993	0.424939
H252	H	0.226767	-0.533583	0.480454
H253	H	0.430973	-0.540048	0.521891
H254	H	0.430920	-0.389838	0.464614
O255	O	0.027173	-0.687355	0.316181
C256	C	0.098145	-0.671755	0.247287
C257	C	0.061946	-0.699832	0.273988
H258	H	0.126262	-0.681824	0.213163
H259	H	0.117550	-0.681839	0.272574
H260	H	0.077397	-0.630783	0.236339
H261	H	0.082658	-0.740810	0.284938
H262	H	0.042541	-0.689707	0.248685
O263	O	0.334125	-0.351054	0.494389
C264	C	0.318392	-0.269688	0.435878
C265	C	0.346529	-0.324610	0.443876
H266	H	0.328402	-0.248293	0.395040
H267	H	0.328480	-0.256949	0.454387
H268	H	0.277433	-0.263165	0.452292
H269	H	0.387494	-0.331174	0.427461
H270	H	0.336400	-0.337322	0.425378
O271	O	0.165035	-0.222637	0.443359
C272	C	0.171525	-0.238258	0.377157
C273	C	0.139214	-0.210132	0.413755
H274	H	0.150665	-0.228151	0.353206
H275	H	0.181612	-0.279234	0.397949
H276	H	0.206238	-0.228187	0.353199
H277	H	0.104481	-0.220163	0.437723
H278	H	0.129167	-0.169164	0.392934
O279	O	0.049191	-0.121915	0.574603
C280	C	0.009655	-0.127343	0.659289
C281	C	0.042000	-0.155448	0.622672
H282	H	0.003840	-0.154442	0.698161
H283	H	-0.027188	-0.103411	0.653465
H284	H	0.028400	-0.103364	0.653345
H285	H	0.023298	-0.179453	0.628594
H286	H	0.078842	-0.179349	0.628506
H287	H	0.084809	-0.218687	0.600218
O288	O	-0.061823	-0.495259	0.170339
C289	C	-0.105024	-0.414160	0.175696
C290	C	-0.091448	-0.469503	0.203839
H291	H	-0.128968	-0.393320	0.202769
H292	H	-0.125840	-0.404046	0.151701
H293	H	-0.070278	-0.404143	0.151779
H294	H	-0.126168	-0.479560	0.227783
H295	H	-0.070613	-0.479587	0.227804
H296	H	0.129496	-0.125810	0.417697
H297	H	-0.090896	-0.534066	0.267110
H298	H	-0.015148	-0.685706	0.267200
O299	O	0.020553	-0.660111	0.170434
C300	C	0.060116	-0.744808	0.175890
C301	C	0.027730	-0.708176	0.203978
H302	H	0.065921	-0.783677	0.202998
H303	H	0.096962	-0.738997	0.152003
H304	H	0.041411	-0.738865	0.151868
H305	H	0.046392	-0.714097	0.228026
H306	H	-0.009114	-0.713997	0.227834
H307	H	-0.060067	-0.503170	0.341685
O308	O	-0.095638	-0.528818	0.306079
C309	C	-0.170882	-0.462539	0.299413
C310	C	-0.138561	-0.499149	0.331818
H311	H	-0.205588	-0.438535	0.320207
H312	H	-0.180976	-0.483322	0.289313
H313	H	-0.149989	-0.438633	0.264711
H314	H	-0.159424	-0.523064	0.366541
H315	H	-0.128465	-0.478335	0.341879
O316	O	0.020223	-0.660073	0.422192
C317	C	0.095493	-0.726313	0.428842
C318	C	0.063185	-0.689688	0.396425
H319	H	0.130240	-0.750260	0.408018
H320	H	0.074650	-0.750274	0.463534
H321	H	0.105519	-0.705493	0.438963
H322	H	0.053150	-0.710469	0.386266
H323	H	0.084046	-0.665728	0.361756
O324	O	-0.013414	-0.693609	0.388587
C325	C	-0.017437	-0.770229	0.453432
C326	C	-0.030998	-0.714891	0.439826
H327	H	-0.031657	-0.787450	0.494858
H328	H	0.023993	-0.787544	0.439403
H329	H	-0.034638	-0.776652	0.436099
H330	H	-0.013830	-0.708424	0.457155
H331	H	-0.072432	-0.697603	0.453846
H332	H	-0.097376	-0.783993	0.408060
O333	O	0.060666	-0.788232	0.349869
C334	C	0.133369	-0.846040	0.314099
C335	C	0.078472	-0.817824	0.322004
H336	H	0.147784	-0.869964	0.291561
H337	H	0.139034	-0.870026	0.351007
H338	H	0.153938	-0.818987	0.293847
H339	H	0.057868	-0.844841	0.342238
H340	H	0.072844	-0.793830	0.285080
H341	H	-0.134607	-0.647683	0.424287
O342	O	-0.136083	-0.687155	0.378139
C343	C	-0.206603	-0.671450	0.362999
C344	C	-0.151712	-0.699647	0.355148
H345	H	-0.219258	-0.681548	0.344425
H346	H	-0.213135	-0.630486	0.346601
H347	H	-0.228062	-0.681468	0.403821
H348	H	-0.130218	-0.689671	0.314337
H349	H	-0.145218	-0.740605	0.371579
O350	O	-0.231388	-0.618642	0.463002
C351	C	-0.226120	-0.661855	0.544137
C352	C	-0.197929	-0.648261	0.488808
H353	H	-0.199080	-0.685795	0.565017
H354	H	-0.250066	-0.682685	0.554182
H355	H	-0.250090	-0.627114	0.554172
H356	H	-0.173932	-0.682976	0.478733
H357	H	-0.174014	-0.627412	0.478792
H358	H	-0.134369	-0.571905	0.272603
O359	O	-0.231131	-0.536240	0.298102
C360	C	-0.225605	-0.496663	0.213385
C361	C	-0.197557	-0.529046	0.250055
H362	H	-0.198472	-0.490844	0.174532
H363	H	-0.249535	-0.459820	0.219213
H364	H	-0.249578	-0.515381	0.219269
H365	H	-0.173558	-0.510371	0.244194
H366	H	-0.173658	-0.565887	0.244219
