data_functionalizedCrystal
_audit_creation_method	'MofGen! by Chris Wilmer'
_symmetry_space_group_name_H-M	'P1'
_symmetry_Int_Tables_number	1
_symmetry_cell_setting	triclinic
loop_
_symmetry_equiv_pos_as_xyz
  x,y,z
_cell_length_a	12.759401
_cell_length_b	29.839131
_cell_length_c	12.759393
_cell_angle_alpha	89.963184
_cell_angle_beta	89.979062
_cell_angle_gamma	90.042945
loop_
_atom_site_label
_atom_site_type_symbol
_atom_site_fract_x
_atom_site_fract_y
_atom_site_fract_z
Zn1	Zn	1.606071	-0.178813	-0.593974
Zn2	Zn	1.605880	-0.253950	-0.418275
Zn3	Zn	1.430370	-0.178837	-0.418309
Zn4	Zn	1.430280	-0.253919	-0.593912
O5	O	1.518150	-0.216380	-0.506117
O6	O	1.753067	-0.188784	-0.570679
O7	O	1.582556	-0.244010	-0.271258
O8	O	1.453795	-0.115967	-0.441652
O9	O	1.752927	-0.243986	-0.441593
O10	O	1.582882	-0.115949	-0.570712
O11	O	1.453610	-0.188824	-0.271283
O12	O	1.283337	-0.188794	-0.441592
O13	O	1.453641	-0.243933	-0.740941
O14	O	1.283271	-0.243956	-0.570606
O15	O	1.582794	-0.188753	-0.740987
O16	O	1.582469	-0.316813	-0.441533
O17	O	1.453456	-0.316790	-0.570573
C18	C	1.245183	-0.216375	-0.506097
C19	C	1.128406	-0.216383	-0.506113
C20	C	1.073538	-0.245150	-0.573185
C21	C	0.963813	-0.245151	-0.573206
C22	C	0.963837	-0.187618	-0.439073
C23	C	1.073559	-0.187615	-0.439058
C24	C	1.517961	-0.333103	-0.506065
C25	C	1.517976	-0.383037	-0.506078
C26	C	1.585450	-0.692680	-0.439024
C27	C	1.585579	-0.880353	-0.439065
O28	O	1.642798	-0.904617	-0.382014
N29	N	1.518368	-0.903822	-0.506197
C30	C	1.451125	-0.880370	-0.573327
O31	O	1.393969	-0.904638	-0.630435
C32	C	1.451001	-0.692698	-0.573291
C33	C	1.518209	-0.669231	-0.506148
C34	C	1.652653	-0.669213	-0.371888
C35	C	1.652616	-0.622297	-0.371874
C36	C	1.585375	-0.598849	-0.438997
C37	C	1.518172	-0.622316	-0.506134
C38	C	1.383764	-0.669247	-0.640427
C39	C	1.383741	-0.622326	-0.640413
C40	C	1.450949	-0.598859	-0.573270
C41	C	1.450895	-0.551952	-0.573244
N42	N	1.518106	-0.528482	-0.506113
C43	C	1.585346	-0.551931	-0.438989
C44	C	1.451193	-0.978901	-0.573340
C45	C	1.451223	-1.025819	-0.573348
C46	C	1.585679	-1.025798	-0.439087
C47	C	1.585643	-0.978879	-0.439075
C48	C	1.518404	-0.955431	-0.506209
C49	C	1.585262	-0.453405	-0.438965
C50	C	1.585216	-0.406486	-0.438955
C51	C	1.450764	-0.406510	-0.573219
C52	C	1.450806	-0.453426	-0.573226
C53	C	1.518064	-0.476872	-0.506096
O54	O	1.393715	-0.527659	-0.630274
O55	O	1.642510	-0.527655	-0.381907
C56	C	1.585487	-0.739595	-0.439038
C57	C	1.518284	-0.763062	-0.506175
C58	C	1.451043	-0.739613	-0.573298
C59	C	1.518313	-0.809980	-0.506183
C60	C	1.585553	-0.833428	-0.439060
C61	C	1.652764	-0.809959	-0.371928
C62	C	1.652727	-0.763044	-0.371915
C63	C	1.383832	-0.763083	-0.640430
C64	C	1.383874	-0.809998	-0.640437
C65	C	1.451114	-0.833447	-0.573314
C66	C	1.792184	-0.216386	-0.506139
C67	C	1.908960	-0.216388	-0.506148
C68	C	1.518229	-0.216337	-0.780151
C69	C	1.518263	-0.216318	-0.896928
C70	C	1.518370	-0.099202	-0.506193
C71	C	1.518463	-0.049267	-0.506225
C72	C	1.585518	-0.187582	-0.951815
C73	C	1.585535	-0.187562	-1.061539
C74	C	1.451040	-0.245020	-1.061479
C75	C	1.451018	-0.245037	-0.951757
C76	C	1.518133	-0.216391	-0.233150
C77	C	1.518303	-0.216282	-0.116374
H78	H	0.919167	-0.164197	-0.384478
C79	C	1.377082	-0.276613	-1.121794
C80	C	1.377107	-0.276599	-1.242484
C81	C	1.303150	-0.308193	-1.302796
C82	C	1.229168	-0.339803	-1.242417
C83	C	1.229140	-0.339818	-1.121721
C84	C	1.303097	-0.308224	-1.061409
H85	H	1.431876	-0.253198	-1.287185
H86	H	1.303171	-0.308181	-1.392144
H87	H	1.174420	-0.363191	-1.287064
H88	H	1.174372	-0.363219	-1.077019
H89	H	1.303077	-0.308236	-0.972061
C90	C	1.726624	-0.695000	-0.298041
C91	C	1.718097	-0.688581	-0.178599
C92	C	1.792067	-0.714364	-0.104740
C93	C	1.874564	-0.746567	-0.150323
C94	C	1.883095	-0.752988	-0.269770
C95	C	1.809124	-0.727205	-0.343629
H96	H	1.657024	-0.664741	-0.144851
H97	H	1.785752	-0.709610	-0.016317
H98	H	1.929321	-0.765653	-0.095648
H99	H	1.944167	-0.776828	-0.303518
H100	H	1.815439	-0.731958	-0.432052
H101	H	1.118191	-0.268573	-0.627787
C102	C	1.659652	-1.051597	-0.365258
C103	C	1.779079	-1.045095	-0.373955
C104	C	1.853054	-1.070897	-0.300137
C105	C	1.807603	-1.103202	-0.217623
C106	C	1.688170	-1.109706	-0.208923
C107	C	1.614194	-1.083904	-0.282740
H108	H	1.812730	-1.021179	-0.435039
H109	H	1.941467	-1.066082	-0.306578
H110	H	1.862364	-1.122302	-0.162980
H111	H	1.654518	-1.133622	-0.147838
H112	H	1.525782	-1.088719	-0.276299
C113	C	1.377029	-0.276650	-0.891377
C114	C	1.257604	-0.272976	-0.906451
C115	C	1.183614	-0.304586	-0.846073
C116	C	1.229049	-0.339869	-0.770620
C117	C	1.348480	-0.343544	-0.755542
C118	C	1.422470	-0.311935	-0.815920
H119	H	1.223965	-0.246856	-0.962309
H120	H	1.095203	-0.301865	-0.857235
H121	H	1.174277	-0.363269	-0.725925
H122	H	1.382119	-0.369664	-0.699684
H123	H	1.510881	-0.314656	-0.804758
H124	H	0.919144	-0.268576	-0.627824
C125	C	1.659477	-0.155989	-0.891502
C126	C	1.741914	-0.175468	-0.816075
C127	C	1.815873	-0.143873	-0.755766
C128	C	1.807395	-0.092799	-0.770885
C129	C	1.724954	-0.073317	-0.846316
C130	C	1.650995	-0.104912	-0.906625
H131	H	1.748193	-0.213278	-0.804880
H132	H	1.876901	-0.158294	-0.699927
H133	H	1.862144	-0.069410	-0.726241
H134	H	1.718675	-0.035507	-0.857511
H135	H	1.589968	-0.090490	-0.962464
C136	C	1.726732	-0.835759	-0.298093
C137	C	1.681272	-0.868064	-0.215586
C138	C	1.755239	-0.893867	-0.141760
C139	C	1.874667	-0.887363	-0.150442
C140	C	1.920134	-0.855055	-0.232953
C141	C	1.846166	-0.829253	-0.306778
H142	H	1.592859	-0.872880	-0.209156
H143	H	1.721582	-0.917783	-0.080680
H144	H	1.929423	-0.906463	-0.095792
H145	H	2.008547	-0.850239	-0.239383
H146	H	1.879824	-0.805337	-0.367858
H147	H	1.118234	-0.164187	-0.384440
H148	H	1.707345	-0.603193	-0.317203
C149	C	1.659153	-0.380673	-0.365096
C150	C	1.650651	-0.387171	-0.245655
C151	C	1.724586	-0.361360	-0.171799
C152	C	1.807023	-0.329053	-0.217385
C153	C	1.815529	-0.322554	-0.336833
C154	C	1.741593	-0.348364	-0.410688
H155	H	1.589622	-0.411088	-0.211903
H156	H	1.718289	-0.366172	-0.083376
H157	H	1.861755	-0.309946	-0.162714
H158	H	1.876557	-0.298636	-0.370584
H159	H	1.747890	-0.343553	-0.499111
H160	H	1.640032	-0.472490	-0.384304
H161	H	1.640370	-0.959775	-0.384402
H162	H	1.396485	-1.044921	-0.628013
H163	H	1.329031	-0.688346	-0.695097
C164	C	1.377219	-0.953113	-0.647191
C165	C	1.257794	-0.959625	-0.638506
C166	C	1.183816	-0.933841	-0.712355
C167	C	1.229263	-0.901545	-0.794890
C168	C	1.348694	-0.895031	-0.803579
C169	C	1.422672	-0.920816	-0.729730
H170	H	1.224145	-0.983534	-0.577405
H171	H	1.095405	-0.938663	-0.705922
H172	H	1.174500	-0.882458	-0.849558
H173	H	1.382342	-0.871123	-0.864680
H174	H	1.511083	-0.915994	-0.736163
C175	C	1.309771	-0.596534	-0.714259
C176	C	1.190345	-0.603044	-0.705582
C177	C	1.116373	-0.577253	-0.779424
C178	C	1.161828	-0.544951	-0.861943
C179	C	1.281260	-0.538439	-0.870624
C180	C	1.355232	-0.564230	-0.796782
H181	H	1.156691	-0.626957	-0.644493
H182	H	1.027961	-0.582073	-0.772997
H183	H	1.107069	-0.525858	-0.916605
H184	H	1.314914	-0.514526	-0.931712
H185	H	1.443644	-0.559410	-0.803209
H186	H	1.396083	-0.472534	-0.627903
H187	H	1.396015	-0.387411	-0.627867
H188	H	1.707454	-0.743940	-0.317241
H189	H	1.640300	-0.164161	-1.106224
H190	H	1.329136	-0.829101	-0.695112
H191	H	1.329078	-0.743995	-0.695091
