data_functionalizedCrystal
_audit_creation_method	'MofGen! by Chris Wilmer'
_symmetry_space_group_name_H-M	'P1'
_symmetry_Int_Tables_number	1
_symmetry_cell_setting	triclinic
loop_
_symmetry_equiv_pos_as_xyz
  x,y,z
_cell_length_a	8.965430
_cell_length_b	10.489741
_cell_length_c	10.489741
_cell_angle_alpha	84.539174
_cell_angle_beta	89.999293
_cell_angle_gamma	90.001157
loop_
_atom_site_label
_atom_site_type_symbol
_atom_site_fract_x
_atom_site_fract_y
_atom_site_fract_z
O1	O	-0.123946	-1.694053	-0.179958
O2	O	-0.123969	-1.322858	-0.196851
O3	O	-0.123948	-1.516902	-0.002807
O4	O	-0.123967	-1.500009	-0.374003
O5	O	0.124130	-1.516886	-0.002820
O6	O	0.124110	-1.322841	-0.196864
O7	O	0.124133	-1.694037	-0.179971
Cu8	Cu	0.146773	-1.508438	-0.188419
Cu9	Cu	-0.146609	-1.508457	-0.188404
O10	O	0.124112	-1.499993	-0.374016
C11	C	0.000067	-1.275318	-0.195582
C12	C	0.000059	-1.133688	-0.191765
N13	N	0.353122	-1.508433	-0.188429
N14	N	-0.352958	-1.508471	-0.188384
C15	C	0.450418	-1.418666	-0.278138
C16	C	0.549838	-1.534163	-0.303949
C17	C	0.549830	-1.392986	-0.162629
C18	C	0.450352	-1.623988	-0.214298
C19	C	0.450336	-1.482735	-0.072927
C20	C	0.549711	-1.598314	-0.098690
C21	C	0.000090	-1.515618	0.044718
C22	C	0.000087	-1.511801	0.186348
C23	C	0.000093	-1.741577	-0.181241
C24	C	0.000092	-1.883206	-0.185058
C25	C	0.000079	-1.065548	-0.068300
C26	C	-0.122237	-0.973430	-0.126617
C27	C	0.122349	-0.973447	-0.126659
C28	C	-0.122358	-1.043435	-0.250133
C29	C	0.122338	-1.043462	-0.250158
C30	C	-0.000007	-0.951371	-0.308564
C31	C	0.000070	-1.501277	-0.421541
C32	C	0.000063	-1.505094	-0.563170
C33	C	0.000069	-1.388336	0.254488
C34	C	0.122388	-1.446652	0.346604
C35	C	-0.122198	-1.446697	0.346591
C36	C	0.122508	-1.570167	0.276599
C37	C	-0.122189	-1.570195	0.276576
C38	C	0.000161	-1.628600	0.368665
H39	H	0.406821	-1.342824	-0.354072
H40	H	0.000185	-1.286824	0.204837
H41	H	0.225794	-1.394404	0.377610
Br42	Br	0.295059	-1.657159	0.225212
Br43	Br	0.621931	-1.725000	0.027795
H44	H	0.406840	-1.721659	-0.236216
H45	H	-0.000079	-0.901947	-0.410168
H46	H	0.406596	-1.460937	0.024699
H47	H	-0.225620	-1.394447	0.377561
Br48	Br	0.000274	-1.797943	0.451046
H49	H	-0.225883	-1.074270	-0.302327
Br50	Br	-0.294549	-1.657208	0.224839
H51	H	0.593543	-1.555925	-0.401606
H52	H	0.593530	-1.295338	-0.140828
H53	H	-0.000069	-1.115238	0.033196
H54	H	-0.225643	-0.942422	-0.074371
H55	H	0.225749	-1.074502	-0.302361
H56	H	0.225758	-0.942463	-0.074402
