data_functionalizedCrystal
_audit_creation_method	'MofGen! by Chris Wilmer'
_symmetry_space_group_name_H-M	'P1'
_symmetry_Int_Tables_number	1
_symmetry_cell_setting	triclinic
loop_
_symmetry_equiv_pos_as_xyz
  x,y,z
_cell_length_a	14.519709
_cell_length_b	13.596369
_cell_length_c	14.519709
_cell_angle_alpha	89.993066
_cell_angle_beta	83.680145
_cell_angle_gamma	90.000291
loop_
_atom_site_label
_atom_site_type_symbol
_atom_site_fract_x
_atom_site_fract_y
_atom_site_fract_z
O1	O	-1.223868	0.081665	-0.120893
O2	O	-0.973868	0.331665	0.129107
O3	O	-0.723868	0.581665	0.379107
O4	O	-0.473868	0.831665	0.629107
O5	O	-0.955392	0.081696	-0.135129
O6	O	-0.705392	0.331696	0.114871
O7	O	-0.455392	0.581696	0.364871
O8	O	-0.205392	0.831696	0.614871
O9	O	-1.096748	0.081671	0.006227
O10	O	-0.846748	0.331671	0.256227
O11	O	-0.596748	0.581671	0.506227
O12	O	-0.346748	0.831671	0.756227
O13	O	-1.082512	0.081690	-0.262249
O14	O	-0.832512	0.331690	-0.012249
O15	O	-0.582512	0.581690	0.237751
O16	O	-0.332512	0.831690	0.487751
O17	O	-1.096734	-0.081912	0.006235
O18	O	-0.846734	0.168088	0.256235
O19	O	-0.596734	0.418088	0.506235
O20	O	-0.346734	0.668088	0.756235
O21	O	-0.955377	-0.081887	-0.135122
O22	O	-0.705377	0.168113	0.114878
O23	O	-0.455377	0.418113	0.364878
O24	O	-0.205377	0.668113	0.614878
O25	O	-1.223854	-0.081917	-0.120885
O26	O	-0.973854	0.168083	0.129115
O27	O	-0.723854	0.418083	0.379115
O28	O	-0.473854	0.668083	0.629115
Zn29	Zn	-1.089614	-0.107875	-0.128002
Zn30	Zn	-0.839614	0.142125	0.121998
Zn31	Zn	-0.589614	0.392125	0.371998
Zn32	Zn	-0.339614	0.642125	0.621998
Zn33	Zn	-1.089632	0.107653	-0.128012
Zn34	Zn	-0.839632	0.357653	0.121988
Zn35	Zn	-0.589632	0.607653	0.371988
Zn36	Zn	-0.339632	0.857653	0.621988
O37	O	-1.082498	-0.081893	-0.262242
O38	O	-0.832498	0.168107	-0.012242
O39	O	-0.582498	0.418107	0.237758
O40	O	-0.332498	0.668107	0.487758
C41	C	-0.921025	-0.000092	-0.134462
C42	C	-0.671025	0.249908	0.115538
C43	C	-0.421025	0.499908	0.365538
C44	C	-0.171025	0.749908	0.615538
C45	C	-0.818643	-0.000081	-0.132474
C46	C	-0.568643	0.249919	0.117526
C47	C	-0.318643	0.499919	0.367526
C48	C	-0.068643	0.749919	0.617526
C49	C	-1.258221	-0.000128	-0.121553
C50	C	-1.008221	0.249872	0.128447
C51	C	-0.758221	0.499872	0.378447
C52	C	-0.508221	0.749872	0.628447
C53	C	-1.360602	-0.000132	-0.123541
C54	C	-1.110602	0.249868	0.126459
C55	C	-0.860602	0.499868	0.376459
C56	C	-0.610602	0.749868	0.626459
N57	N	-1.089608	-0.254966	-0.127995
N58	N	-0.839608	-0.004966	0.122005
N59	N	-0.589608	0.245034	0.372005
N60	N	-0.339608	0.495034	0.622005
C61	C	-1.096078	-0.000121	0.040591
C62	C	-0.846078	0.249879	0.290591
C63	C	-0.596078	0.499879	0.540591
C64	C	-0.346078	0.749879	0.790591
C65	C	-1.094090	-0.000121	0.142972
C66	C	-0.844090	0.249879	0.392972
C67	C	-0.594090	0.499879	0.642972
C68	C	-0.344090	0.749879	0.892972
C69	C	-0.443748	-0.000126	-0.125154
C70	C	-0.193748	0.249874	0.124846
C71	C	0.056252	0.499874	0.374846
C72	C	0.306252	0.749874	0.624846
C73	C	-0.548056	-0.000113	-0.127187
C74	C	-0.298056	0.249887	0.122813
C75	C	-0.048056	0.499887	0.372813
C76	C	0.201944	0.749887	0.622813
C77	C	-0.631192	-0.000102	-0.128814
C78	C	-0.381192	0.249898	0.121186
C79	C	-0.131192	0.499898	0.371186
C80	C	0.118808	0.749898	0.621186
C81	C	-0.735507	-0.000091	-0.130847
C82	C	-0.485507	0.249909	0.119153
C83	C	-0.235507	0.499909	0.369153
C84	C	0.014493	0.749909	0.619153
C85	C	-1.089631	-0.656257	-0.128013
C86	C	-0.839631	-0.406257	0.121987
C87	C	-0.589631	-0.156257	0.371987
C88	C	-0.339631	0.093743	0.621987
C89	C	-1.089622	-0.544606	-0.128011
C90	C	-0.839622	-0.294606	0.121989
C91	C	-0.589622	-0.044606	0.371989
C92	C	-0.339622	0.205394	0.621989
C93	C	-1.089620	-0.455615	-0.128005
C94	C	-0.839620	-0.205615	0.121995
C95	C	-0.589620	0.044385	0.371995
C96	C	-0.339620	0.294385	0.621995
C97	C	-1.089610	-0.343957	-0.128001
C98	C	-0.839610	-0.093957	0.121999
C99	C	-0.589610	0.156043	0.371999
C100	C	-0.339610	0.406043	0.621999
N101	N	-1.089645	0.254745	-0.128012
N102	N	-0.839645	0.504745	0.121988
N103	N	-0.589645	0.754745	0.371988
N104	N	-0.339645	1.004745	0.621988
C105	C	-1.083168	-0.000099	-0.296605
C106	C	-0.833168	0.249901	-0.046605
C107	C	-0.583168	0.499901	0.203395
C108	C	-0.333168	0.749901	0.453395
C109	C	-1.085156	-0.000092	-0.398987
C110	C	-0.835156	0.249908	-0.148987
C111	C	-0.585156	0.499908	0.101013
C112	C	-0.335156	0.749908	0.351013
C113	C	-1.086770	-0.000095	0.517868
C114	C	-0.836770	0.249905	0.767868
C115	C	-0.586770	0.499905	1.017868
C116	C	-0.336770	0.749905	1.267868
C117	C	-1.088803	-0.000102	0.413560
C118	C	-0.838803	0.249898	0.663560
C119	C	-0.588803	0.499898	0.913560
C120	C	-0.338803	0.749898	1.163560
C121	C	-1.090430	-0.000109	0.330423
C122	C	-0.840430	0.249891	0.580423
C123	C	-0.590430	0.499891	0.830423
C124	C	-0.340430	0.749891	1.080423
C125	C	-1.092463	-0.000114	0.226109
C126	C	-0.842463	0.249886	0.476109
C127	C	-0.592463	0.499886	0.726109
C128	C	-0.342463	0.749886	0.976109
