data_functionalizedCrystal
_audit_creation_method	'MofGen! by Chris Wilmer'
_symmetry_space_group_name_H-M	'P1'
_symmetry_Int_Tables_number	1
_symmetry_cell_setting	triclinic
loop_
_symmetry_equiv_pos_as_xyz
  x,y,z
_cell_length_a	13.897449
_cell_length_b	18.050590
_cell_length_c	18.050582
_cell_angle_alpha	89.976663
_cell_angle_beta	89.986245
_cell_angle_gamma	90.019832
loop_
_atom_site_label
_atom_site_type_symbol
_atom_site_fract_x
_atom_site_fract_y
_atom_site_fract_z
Zn1	Zn	1.474630	-0.295681	-0.419886
Zn2	Zn	1.474542	-0.419865	-0.295694
Zn3	Zn	1.313339	-0.295696	-0.295712
Zn4	Zn	1.313299	-0.419837	-0.419845
O5	O	1.393952	-0.357770	-0.357784
O6	O	1.609600	-0.312160	-0.403421
O7	O	1.453137	-0.403411	-0.191772
O8	O	1.334789	-0.191769	-0.312209
O9	O	1.609535	-0.403397	-0.312177
O10	O	1.453289	-0.191759	-0.403438
O11	O	1.334703	-0.312185	-0.191785
O12	O	1.178352	-0.312158	-0.312169
O13	O	1.334720	-0.403350	-0.523775
O14	O	1.178323	-0.403364	-0.403369
O15	O	1.453250	-0.312133	-0.523805
O16	O	1.453098	-0.523785	-0.312138
O17	O	1.334634	-0.523765	-0.403351
C18	C	1.143338	-0.357760	-0.357767
C19	C	1.036124	-0.357773	-0.357778
C20	C	0.839829	-0.357776	-0.357797
C21	C	0.949062	-0.357772	-0.357784
C22	C	1.393878	-0.550722	-0.357754
C23	C	1.393935	-0.633267	-0.357767
C24	C	1.458490	-0.832702	-0.308234
C25	C	1.482045	-0.882040	-0.376014
C26	C	1.393990	-0.784398	-0.357796
C27	C	1.370533	-0.882141	-0.290047
C28	C	1.394044	-0.930383	-0.357819
C29	C	1.417590	-0.832649	-0.425612
C30	C	1.306037	-0.832745	-0.339599
C31	C	1.329558	-0.882061	-0.407426
C32	C	1.393961	-0.700300	-0.357782
C33	C	1.394073	-1.014479	-0.357841
C34	C	1.645545	-0.357780	-0.357802
C35	C	1.752759	-0.357785	-0.357809
C36	C	1.393990	-0.357737	-0.551490
C37	C	1.394006	-0.357723	-0.634036
C38	C	1.394053	-0.164064	-0.357830
C39	C	1.394096	-0.081518	-0.357850
C40	C	1.329599	-0.407258	-0.833470
C41	C	1.417607	-0.425410	-0.882860
C42	C	1.394054	-0.357666	-0.785166
C43	C	1.306095	-0.339493	-0.882858
C44	C	1.394092	-0.357613	-0.931151
C45	C	1.482107	-0.375853	-0.833469
C46	C	1.370536	-0.289905	-0.833462
C47	C	1.458605	-0.308031	-0.882830
C48	C	1.394031	-0.357699	-0.701068
C49	C	1.394125	-0.357580	-1.015248
C50	C	1.393970	-0.357749	-0.164832
C51	C	1.394141	-0.357554	-0.082287
H52	H	1.556448	-0.903696	-0.391420
H53	H	1.556531	-0.391267	-0.811865
H54	H	1.275143	-0.449252	-0.811798
O55	O	1.523851	-0.258055	-0.908495
C56	C	1.616449	-0.277452	-0.883177
H57	H	1.618247	-0.339072	-0.869385
H58	H	1.671609	-0.264973	-0.928245
H59	H	1.634368	-0.243995	-0.831429
H60	H	1.231655	-0.811074	-0.324173
O61	O	1.346883	-0.908200	-0.221722
C62	C	1.346364	-0.986301	-0.222858
H63	H	1.393669	-1.006818	-0.270194
H64	H	1.375396	-1.008284	-0.168032
H65	H	1.269610	-1.006955	-0.231266
O66	O	1.441229	-0.493737	-0.908841
C67	C	1.365437	-0.521228	-0.952878
H68	H	1.320573	-0.473001	-0.974533
H69	H	1.396397	-0.553572	-1.001593
H70	H	1.318054	-0.559340	-0.918119
H71	H	1.437379	-0.811001	-0.482965
H72	H	1.350596	-0.232640	-0.811748
H73	H	1.275036	-0.903597	-0.449397
O74	O	1.217264	-0.321265	-0.908653
C75	C	1.149530	-0.373739	-0.883519
H76	H	1.178080	-0.402046	-0.831517
H77	H	1.078830	-0.344626	-0.870211
H78	H	1.136907	-0.416974	-0.928505
H79	H	1.513054	-0.811029	-0.266364
