data_functionalizedCrystal
_audit_creation_method	'MofGen! by Chris Wilmer'
_symmetry_space_group_name_H-M	'P1'
_symmetry_Int_Tables_number	1
_symmetry_cell_setting	triclinic
loop_
_symmetry_equiv_pos_as_xyz
  x,y,z
_cell_length_a	8.597340
_cell_length_b	10.654545
_cell_length_c	7.681481
_cell_angle_alpha	84.204528
_cell_angle_beta	103.474906
_cell_angle_gamma	84.910392
loop_
_atom_site_label
_atom_site_type_symbol
_atom_site_fract_x
_atom_site_fract_y
_atom_site_fract_z
O1	O	2.101768	0.173671	0.172457
O2	O	1.637929	0.193680	0.102081
O3	O	1.880512	0.000862	0.138888
O4	O	1.859185	0.366488	0.135650
O5	O	1.910369	-0.022924	0.436276
O6	O	1.667786	0.169894	0.399469
O7	O	2.131625	0.149884	0.469845
Zn8	Zn	1.904446	0.156112	0.481874
Zn9	Zn	1.865108	0.187452	0.090052
O10	O	1.889042	0.342702	0.433038
C11	C	1.593465	0.180963	0.241764
C12	C	1.416493	0.178493	0.214913
C13	C	1.893874	-0.057818	0.287341
C14	C	1.889187	-0.197228	0.286620
C15	C	1.856654	-0.171304	-0.037599
C16	C	1.838193	-0.223837	-0.200041
C17	C	1.833790	-0.354825	-0.200711
C18	C	1.847845	-0.433284	-0.038922
C19	C	1.866307	-0.380751	0.123519
C20	C	1.870713	-0.249759	0.124172
C21	C	1.898828	-0.406674	0.447732
C22	C	1.903242	-0.275687	0.448408
C23	C	1.912883	-0.485133	0.609521
C24	C	1.931357	-0.432602	0.771968
C25	C	1.935761	-0.301605	0.772632
C26	C	1.921704	-0.223154	0.610850
C27	C	2.176089	0.162601	0.330158
C28	C	2.353060	0.165072	0.356997
C29	C	1.875680	0.401382	0.284581
C30	C	1.880366	0.540793	0.285291
N31	N	1.931305	0.134723	0.749283
N32	N	1.838261	0.208831	-0.177355
H33	H	1.335403	0.188095	0.072710
H34	H	2.026302	0.059085	0.838903
H35	H	1.826747	-0.159941	-0.331766
C36	C	1.461383	0.152079	0.546509
C37	C	1.574549	0.044704	0.572858
C38	C	1.674386	0.032703	0.747407
H39	H	1.398068	0.143255	0.632225
H40	H	1.515684	0.225600	0.561311
H41	H	1.520252	-0.028799	0.558074
H42	H	1.637901	0.053503	0.487184
H43	H	1.728687	0.106224	0.762209
H44	H	1.611058	0.023883	0.833109
H45	H	1.751190	-0.040144	0.765302
C46	C	1.711568	0.309805	0.703484
C47	C	1.629773	0.374999	0.811086
C48	C	1.513066	0.468037	0.701369
H49	H	1.637204	0.270621	0.620286
H50	H	1.762262	0.367895	0.639284
H51	H	1.579080	0.316918	0.875257
H52	H	1.704094	0.414210	0.894281
H53	H	1.563760	0.526128	0.637169
H54	H	1.438713	0.428843	0.618177
H55	H	1.457564	0.512290	0.774362
H56	H	1.860256	-0.064647	-0.037067
H57	H	1.818742	-0.397594	-0.332987
H58	H	1.909288	-0.591789	0.608962
H59	H	1.942788	-0.496491	0.903681
H60	H	1.844239	-0.539938	-0.039485
H61	H	1.950770	-0.258840	0.904908
H62	H	1.925296	-0.116496	0.611375
