data_functionalizedCrystal
_audit_creation_method	'MofGen! by Chris Wilmer'
_symmetry_space_group_name_H-M	'P1'
_symmetry_Int_Tables_number	1
_symmetry_cell_setting	triclinic
loop_
_symmetry_equiv_pos_as_xyz
  x,y,z
_cell_length_a	16.109301
_cell_length_b	16.109298
_cell_length_c	14.586319
_cell_angle_alpha	90.000563
_cell_angle_beta	89.999374
_cell_angle_gamma	83.460886
loop_
_atom_site_label
_atom_site_type_symbol
_atom_site_fract_x
_atom_site_fract_y
_atom_site_fract_z
O1	O	1.103126	0.106870	0.076204
O2	O	0.861063	0.120169	0.076210
O3	O	0.988746	-0.007511	0.076214
O4	O	0.975443	0.234551	0.076201
O5	O	0.988744	-0.007519	-0.076267
O6	O	0.861062	0.120161	-0.076271
O7	O	1.103125	0.106862	-0.076277
Cu8	Cu	0.982093	0.113511	-0.090196
Cu9	Cu	0.982095	0.113521	0.090130
O10	O	0.975442	0.234543	-0.076280
C11	C	0.830088	0.119627	-0.000029
C12	C	0.737793	0.118011	-0.000026
C13	C	0.988207	-0.038490	-0.000023
C14	C	0.986593	-0.130786	-0.000012
C15	C	1.134100	0.107405	-0.000035
C16	C	1.226395	0.109020	-0.000032
C17	C	1.535394	0.038537	-0.000031
C18	C	1.448674	0.037012	-0.000030
C19	C	1.428799	0.188501	-0.000024
C20	C	1.515518	0.190025	-0.000019
C21	C	1.568813	0.115041	-0.000027
C22	C	1.395374	0.111991	-0.000031
C23	C	1.301349	0.110338	-0.000029
C24	C	1.662845	0.116694	-0.000027
C25	C	0.981326	-0.429850	0.083086
C26	C	0.982854	-0.343130	0.083092
C27	C	0.982865	-0.343125	-0.083151
C28	C	0.981343	-0.429844	-0.083156
C29	C	0.980569	-0.473204	-0.000035
C30	C	0.983619	-0.299765	-0.000023
C31	C	0.985275	-0.205739	-0.000017
C32	C	0.978914	-0.567235	-0.000041
C33	C	0.975981	0.265522	-0.000041
C34	C	0.977595	0.357817	-0.000046
N35	N	0.982096	0.113521	0.216962
N36	N	0.982099	0.113504	-0.217028
C37	C	1.038743	0.057094	0.451970
C38	C	1.038745	0.057092	0.547951
C39	C	0.925449	0.169937	0.547957
C40	C	0.925451	0.169943	0.451978
C41	C	0.982097	0.113516	0.403986
C42	C	0.982097	0.113509	0.595947
C43	C	0.982100	0.113507	0.700014
C44	C	0.982096	0.113519	0.299913
H45	H	1.421469	-0.025285	-0.000031
H46	H	1.385395	0.249550	-0.000020
C47	C	1.101058	-0.004967	0.399179
C48	C	1.163397	-0.066999	0.451965
C49	C	1.225716	-0.129060	0.399177
C50	C	1.225696	-0.129089	0.293603
C51	C	1.163354	-0.067055	0.240811
C52	C	1.101035	-0.004994	0.293599
H53	H	1.163414	-0.066980	0.530122
H54	H	1.271866	-0.174982	0.438258
H55	H	1.271828	-0.175030	0.254527
H56	H	1.163337	-0.067074	0.162654
H57	H	1.054886	0.040928	0.254518
H58	H	0.879323	0.215893	0.412907
H59	H	1.578786	-0.022520	-0.000034
C60	C	1.552283	0.274186	-0.000017
C61	C	1.532171	0.336465	-0.079197
C62	C	1.568936	0.420622	-0.079191
C63	C	1.625814	0.442499	-0.000005
C64	C	1.645929	0.380219	0.079180
C65	C	1.609164	0.296062	0.079174
H66	H	1.490064	0.320271	-0.137820
H67	H	1.554046	0.466725	-0.137809
H68	H	1.653030	0.504797	-0.000001
H69	H	1.688036	0.396413	0.137803
H70	H	1.624055	0.249959	0.137792
C71	C	0.980485	-0.477548	0.174516
C72	C	0.981323	-0.429857	0.265948
C73	C	0.980485	-0.477553	0.357381
C74	C	0.978809	-0.572940	0.357382
C75	C	0.977971	-0.620637	0.265947
C76	C	0.978808	-0.572941	0.174514
H77	H	0.982563	-0.359241	0.265949
H78	H	0.981105	-0.442244	0.425067
H79	H	0.978189	-0.608247	0.425066
H80	H	0.976730	-0.691253	0.265945
H81	H	0.978188	-0.608250	0.106828
C82	C	0.983681	-0.295442	0.174528
C83	C	1.055615	-0.316837	0.243110
C84	C	1.056443	-0.269150	0.334550
C85	C	0.985337	-0.200066	0.357408
C86	C	0.913398	-0.178667	0.288824
C87	C	0.912570	-0.226355	0.197384
H88	H	1.108256	-0.367980	0.226190
H89	H	1.109697	-0.284991	0.385320
H90	H	0.985950	-0.164765	0.425098
H91	H	0.860757	-0.127525	0.305744
H92	H	0.859316	-0.210514	0.146614
C93	C	1.101054	-0.004976	0.600734
C94	C	1.099869	-0.099676	0.587534
C95	C	1.162181	-0.161746	0.640317
C96	C	1.225678	-0.129115	0.706299
C97	C	1.226865	-0.034410	0.719502
C98	C	1.164553	0.027660	0.666719
H99	H	1.052863	-0.123836	0.538687
H100	H	1.161302	-0.231853	0.630543
H101	H	1.271805	-0.175063	0.745372
H102	H	1.273871	-0.010250	0.768349
H103	H	1.165431	0.097767	0.676493
H104	H	0.983493	-0.307810	-0.150825
H105	H	0.879328	0.215877	0.587041
H106	H	0.980729	-0.465143	-0.150847
