data_functionalizedCrystal
_audit_creation_method	'MofGen! by Chris Wilmer'
_symmetry_space_group_name_H-M	'P1'
_symmetry_Int_Tables_number	1
_symmetry_cell_setting	triclinic
loop_
_symmetry_equiv_pos_as_xyz
  x,y,z
_cell_length_a	17.699104
_cell_length_b	9.798715
_cell_length_c	17.699083
_cell_angle_alpha	90.004285
_cell_angle_beta	83.287266
_cell_angle_gamma	90.004584
loop_
_atom_site_label
_atom_site_type_symbol
_atom_site_fract_x
_atom_site_fract_y
_atom_site_fract_z
O1	O	1.004065	0.113521	0.095785
O2	O	0.783689	0.113518	0.108221
O3	O	0.900103	0.113508	-0.008186
O4	O	0.887651	0.113532	0.212192
O5	O	0.900095	-0.113474	-0.008187
O6	O	0.783680	-0.113464	0.108220
O7	O	1.004057	-0.113461	0.095784
Zn8	Zn	0.893867	-0.149501	0.102002
Zn9	Zn	0.893878	0.149558	0.102003
O10	O	0.887642	-0.113450	0.212191
C11	C	0.755488	0.000027	0.107772
C12	C	0.671471	0.000025	0.106427
C13	C	0.146600	0.000046	0.167171
C14	C	0.225543	0.000050	0.168430
C15	C	0.274161	0.000042	0.100095
C16	C	0.243831	0.000045	0.030496
C17	C	0.164889	0.000050	0.029238
C18	C	0.562197	0.000023	0.035569
C19	C	0.641144	0.000013	0.036833
C20	C	0.622852	0.000023	0.174762
C21	C	0.543909	0.000029	0.173503
C22	C	0.513587	0.000038	0.103905
C23	C	0.427987	0.000036	0.102541
C24	C	0.359759	0.000035	0.101459
N25	N	0.893865	-0.353600	0.102001
C26	C	0.937544	-0.421372	0.145436
C27	C	0.937556	-0.578535	0.145435
C28	C	1.032258	0.000034	0.096233
C29	C	1.116275	0.000044	0.097578
C30	C	0.899653	0.000017	-0.036383
C31	C	0.898314	0.000016	-0.120402
N32	N	0.893887	0.353658	0.101998
C33	C	0.966647	0.000015	-0.169017
C34	C	0.965385	0.000027	-0.247961
C35	C	0.895789	0.000030	-0.278287
C36	C	0.827451	0.000035	-0.229665
C37	C	0.828714	0.000033	-0.150723
C38	C	0.822356	0.000046	-0.548028
C39	C	0.821098	0.000045	-0.626976
C40	C	0.959026	0.000040	-0.645266
C41	C	0.960289	0.000038	-0.566324
C42	C	0.891952	0.000050	-0.517709
C43	C	0.893321	0.000040	-0.432110
C44	C	0.894419	0.000031	-0.363885
C45	C	0.888093	0.000044	0.240388
C46	C	0.889431	0.000053	0.324406
H47	H	0.680728	0.000011	-0.018817
H48	H	0.764421	0.000045	-0.651664
H49	H	0.856480	-0.411930	0.064811
H50	H	1.023320	0.000004	-0.144333
H51	H	0.283422	0.000046	-0.025143
C52	C	0.258584	-0.000128	0.243929
C53	C	0.303393	-0.116870	0.248679
C54	C	0.333854	-0.117053	0.318214
H55	H	0.218409	-0.000189	0.284520
H56	H	0.289040	0.078997	0.247277
H57	H	0.272938	-0.195975	0.245339
H58	H	0.343579	-0.116835	0.208105
H59	H	0.364310	-0.037928	0.321562
H60	H	0.293675	-0.117110	0.358799
H61	H	0.364266	-0.196254	0.321443
C62	C	0.748081	-0.000031	-0.495379
C63	C	0.686865	-0.000074	-0.538837
C64	C	0.618429	-0.000170	-0.490359
H65	H	0.745595	0.079099	-0.464181
H66	H	0.745664	-0.079219	-0.464219
H67	H	0.689281	0.079106	-0.569983
H68	H	0.689326	-0.079198	-0.570033
H69	H	0.616011	-0.079357	-0.459199
H70	H	0.615950	0.078962	-0.459163
H71	H	0.576886	-0.000212	-0.519838
H72	H	1.016961	0.000029	-0.541638
C73	C	0.751965	-0.000031	-0.262734
C74	C	0.765482	-0.000070	-0.342274
C75	C	0.695962	-0.000154	-0.372761
H76	H	0.723780	0.079101	-0.246120
H77	H	0.723826	-0.079216	-0.246082
H78	H	0.793610	0.079108	-0.358919
H79	H	0.793656	-0.079196	-0.358909
H80	H	0.667823	-0.079340	-0.356109
H81	H	0.667782	0.078979	-0.356141
H82	H	0.705124	-0.000193	-0.426731
C83	C	1.039636	0.000231	-0.300651
C84	C	1.081568	0.116982	-0.286943
C85	C	1.149980	0.117209	-0.335458
H86	H	1.029030	0.000309	-0.352037
H87	H	1.068213	-0.078888	-0.291463
H88	H	1.052996	0.196081	-0.296137
H89	H	1.092193	0.116930	-0.235567
H90	H	1.178557	0.038090	-0.326270
H91	H	1.139367	0.117283	-0.386840
H92	H	1.178442	0.196416	-0.326159
H93	H	0.537518	0.000027	-0.021102
C94	C	0.754441	-0.000034	-0.098062
C95	C	0.693221	-0.000066	-0.141515
C96	C	0.624788	-0.000138	-0.093031
H97	H	0.751965	0.079099	-0.066868
H98	H	0.752020	-0.079218	-0.066899
H99	H	0.695641	0.079109	-0.172665
H100	H	0.695673	-0.079194	-0.172707
H101	H	0.622367	-0.079322	-0.061868
H102	H	0.622319	0.078997	-0.061839
H103	H	0.583242	-0.000173	-0.122506
C104	C	0.132108	-0.000021	-0.046399
C105	C	0.191580	-0.000065	-0.105976
C106	C	0.161413	-0.000141	-0.175665
H107	H	0.101711	0.079115	-0.049862
H108	H	0.101708	-0.079203	-0.049801
H109	H	0.221967	0.079108	-0.102576
H110	H	0.221982	-0.079196	-0.102538
H111	H	0.131013	-0.079322	-0.179066
H112	H	0.131016	0.078997	-0.179120
H113	H	0.201759	-0.000183	-0.216096
C114	C	0.655670	0.000244	0.250384
C115	C	0.630936	0.117005	0.291695
C116	C	0.661142	0.117241	0.361364
H117	H	0.709645	0.000315	0.241460
H118	H	0.638948	-0.078868	0.278553
H119	H	0.647662	0.196096	0.263533
H120	H	0.576965	0.116958	0.300640
H121	H	0.644420	0.038129	0.389532
H122	H	0.715116	0.117309	0.352432
H123	H	0.644359	0.196455	0.389405
C124	C	0.987322	-0.656164	0.195155
C125	C	0.966511	-0.621529	0.271501
C126	C	1.012333	-0.693031	0.317326
H127	H	1.039139	-0.632856	0.180999
H128	H	0.980693	-0.751480	0.188616
H129	H	0.973146	-0.526235	0.278037
H130	H	0.914701	-0.644841	0.285680
H131	H	1.005704	-0.788347	0.310787
H132	H	1.064147	-0.669717	0.303164
H133	H	0.998214	-0.669551	0.369133
H134	H	0.504328	0.000028	0.229149
H135	H	0.107020	0.000042	0.222818
H136	H	0.856486	-0.588068	0.064813
H137	H	1.014670	0.000037	-0.684858
H138	H	0.974934	-0.363043	0.182620
