data_functionalizedCrystal
_audit_creation_method	'MofGen! by Chris Wilmer'
_symmetry_space_group_name_H-M	'P1'
_symmetry_Int_Tables_number	1
_symmetry_cell_setting	triclinic
loop_
_symmetry_equiv_pos_as_xyz
  x,y,z
_cell_length_a	12.837943
_cell_length_b	14.971486
_cell_length_c	11.295462
_cell_angle_alpha	85.391192
_cell_angle_beta	94.155723
_cell_angle_gamma	90.778466
loop_
_atom_site_label
_atom_site_type_symbol
_atom_site_fract_x
_atom_site_fract_y
_atom_site_fract_z
O1	O	1.381956	-0.238475	0.099006
O2	O	1.080137	-0.226988	0.099013
O3	O	1.239135	-0.103213	0.099001
O4	O	1.222957	-0.362250	0.099019
O5	O	1.226691	-0.091358	-0.099051
O6	O	1.067693	-0.215133	-0.099039
O7	O	1.369512	-0.226621	-0.099046
Cu8	Cu	1.217466	-0.219795	-0.117126
Cu9	Cu	1.232182	-0.233814	0.117094
O10	O	1.210513	-0.350396	-0.099034
C11	C	1.035289	-0.217180	-0.000012
C12	C	0.920198	-0.205606	-0.000010
C13	C	1.232190	-0.063900	-0.000025
C14	C	1.230022	0.035580	-0.000023
N15	N	1.207123	-0.209934	-0.281864
C16	C	0.679412	-0.344748	-0.000017
C17	C	0.571272	-0.333877	-0.000016
C18	C	0.595778	-0.172994	-0.000014
C19	C	0.703917	-0.183865	-0.000015
C20	C	0.745730	-0.269744	-0.000015
C21	C	0.853872	-0.280615	-0.000008
C22	C	0.878374	-0.119732	-0.000015
C23	C	0.770235	-0.108861	-0.000013
C24	C	1.414359	-0.236429	-0.000018
C25	C	1.529451	-0.248003	-0.000012
C26	C	1.217459	-0.389708	-0.000005
C27	C	1.219628	-0.489189	0.000001
C28	C	1.323429	0.084930	-0.000026
C29	C	1.321386	0.178401	-0.000014
C30	C	1.225934	0.222521	-0.000008
C31	C	1.132520	0.173164	-0.000001
C32	C	1.134564	0.079694	-0.000005
C33	C	1.128265	0.367985	0.000003
C34	C	1.126220	0.461461	0.000004
C35	C	1.315087	0.466692	-0.000006
C36	C	1.317132	0.373222	-0.000010
C37	C	1.223716	0.323872	-0.000006
N38	N	1.242534	-0.243667	0.281831
C39	C	1.317087	-0.314569	0.468860
C40	C	1.309257	-0.307134	0.344196
C41	C	1.183639	-0.187628	0.344140
C42	C	1.191469	-0.195062	0.468805
C43	C	1.258194	-0.258536	0.531161
C44	C	1.266018	-0.265973	0.655827
C45	C	1.140406	-0.146464	0.655769
C46	C	1.132575	-0.139029	0.531105
H47	H	0.887913	-0.350542	-0.000010
H48	H	0.736175	-0.038940	-0.000027
H49	H	1.394857	0.337303	-0.000024
C50	C	1.075550	-0.084876	0.724310
N51	N	1.026676	-0.038511	0.775935
H52	H	1.391150	0.506878	-0.000006
H53	H	0.932383	-0.058659	-0.000005
C54	C	1.428436	0.036408	-0.000034
N55	N	1.507530	-0.000137	-0.000034
H56	H	1.320345	-0.317660	0.706596
H57	H	1.052196	0.327806	0.000010
H58	H	1.371408	-0.366258	0.519632
H59	H	1.129325	-0.135943	0.293348
C60	C	1.424141	0.232684	-0.000037
N61	N	1.501541	0.273569	-0.000060
H62	H	1.357215	-0.352762	0.293476
H63	H	1.048493	0.497382	-0.000009
C64	C	1.059176	-0.069216	0.462499
N65	N	1.003886	-0.016635	0.410827
H66	H	1.054801	0.209093	0.000011
C67	C	0.725409	-0.439215	-0.000009
N68	N	0.760052	-0.510370	-0.000004
H69	H	0.517279	-0.394952	-0.000021
H70	H	0.561708	-0.103069	-0.000112
H71	H	1.058502	0.039514	-0.000002
