data_functionalizedCrystal
_audit_creation_method	'MofGen! by Chris Wilmer'
_symmetry_space_group_name_H-M	'P1'
_symmetry_Int_Tables_number	1
_symmetry_cell_setting	triclinic
loop_
_symmetry_equiv_pos_as_xyz
  x,y,z
_cell_length_a	19.188930
_cell_length_b	8.965430
_cell_length_c	19.188930
_cell_angle_alpha	90.005777
_cell_angle_beta	83.144779
_cell_angle_gamma	90.010958
loop_
_atom_site_label
_atom_site_type_symbol
_atom_site_fract_x
_atom_site_fract_y
_atom_site_fract_z
O1	O	0.926138	0.124535	0.087164
O2	O	1.426138	0.624535	0.587164
O3	O	0.722826	0.124435	0.098899
O4	O	1.222826	0.624435	0.598899
O5	O	0.830349	0.124459	-0.008624
O6	O	1.330349	0.624459	0.491376
O7	O	0.818615	0.124512	0.194687
O8	O	1.318615	0.624512	0.694687
O9	O	0.830354	-0.123620	-0.008621
O10	O	1.330354	0.376380	0.491379
O11	O	0.722831	-0.123643	0.098902
O12	O	1.222831	0.376357	0.598902
O13	O	0.926143	-0.123543	0.087168
O14	O	1.426143	0.376457	0.587168
Cu15	Cu	0.824487	-0.146245	0.093035
Cu16	Cu	1.324487	0.353755	0.593035
Cu17	Cu	0.824482	0.147137	0.093031
Cu18	Cu	1.324482	0.647137	0.593031
O19	O	0.818620	-0.123567	0.194690
O20	O	1.318620	0.376433	0.694690
C21	C	0.696818	0.000383	0.098520
C22	C	1.196818	0.500383	0.598520
C23	C	0.619313	0.000343	0.097380
C24	C	1.119313	0.500343	0.597380
N25	N	0.824497	-0.352594	0.093037
N26	N	1.324497	0.147406	0.593037
C27	C	0.574389	0.000383	0.160470
C28	C	1.074389	0.500383	0.660470
C29	C	0.501566	0.000399	0.159399
C30	C	1.001566	0.500399	0.659399
C31	C	0.473669	0.000406	0.095233
C32	C	0.973669	0.500406	0.595233
C33	C	0.518603	0.000357	0.032133
C34	C	1.018603	0.500357	0.532133
C35	C	0.591425	0.000326	0.033207
C36	C	1.091425	0.500326	0.533207
N37	N	0.365687	0.084885	0.046185
N38	N	0.865687	0.584885	0.546185
N39	N	0.296509	0.084918	0.045169
N40	N	0.796509	0.584918	0.545169
C41	C	0.254260	0.000496	0.091994
C42	C	0.754260	0.500496	0.591994
N43	N	0.283803	-0.083941	0.139884
N44	N	0.783803	0.416059	0.639884
N45	N	0.352988	-0.083967	0.140902
N46	N	0.852988	0.416033	0.640902
C47	C	0.394707	0.000438	0.094062
C48	C	0.894707	0.500438	0.594062
C49	C	0.130372	0.000551	0.153928
C50	C	0.630372	0.500551	0.653928
C51	C	0.057547	0.000558	0.152853
C52	C	0.557547	0.500558	0.652853
C53	C	0.074586	0.000531	0.025586
C54	C	0.574586	0.500531	0.525586
C55	C	0.147409	0.000509	0.026662
C56	C	0.647409	0.500509	0.526662
C57	C	0.175298	0.000526	0.090835
C58	C	0.675298	0.500526	0.590835
C59	C	0.874238	-0.449849	0.043315
C60	C	1.374238	0.050151	0.543315
C61	C	0.811187	-0.549289	0.029946
C62	C	1.311187	-0.049289	0.529946
C63	C	0.887523	-0.549281	0.106361
C64	C	1.387523	-0.049281	0.606361
C65	C	0.761414	-0.449845	0.079638
C66	C	1.261414	0.050155	0.579638
C67	C	0.837791	-0.449829	0.156079
C68	C	1.337791	0.050171	0.656079
C69	C	0.774695	-0.549224	0.142738
C70	C	1.274695	-0.049224	0.642738
C71	C	0.952151	0.000513	0.087546
C72	C	1.452151	0.500513	0.587546
C73	C	1.029656	0.000562	0.088687
C74	C	1.529656	0.500562	0.588687
C75	C	0.829972	0.000415	-0.034634
C76	C	1.329972	0.500415	0.465366
C77	C	0.828831	0.000402	-0.112138
C78	C	1.328831	0.500402	0.387862
N79	N	0.824478	0.353486	0.093023
N80	N	1.324478	0.853486	0.593023
C81	C	0.891922	0.000426	-0.157062
C82	C	1.391922	0.500426	0.342938
C83	C	0.890850	0.000449	-0.229886
C84	C	1.390850	0.500449	0.270114
C85	C	0.826684	0.000419	-0.257782
C86	C	1.326684	0.500419	0.242218
C87	C	0.763585	0.000403	-0.212849
C88	C	1.263585	0.500403	0.287151
C89	C	0.764658	0.000395	-0.140026
C90	C	1.264658	0.500395	0.359974
N91	N	0.777638	-0.084031	-0.365786
N92	N	1.277638	0.415969	0.134214
N93	N	0.776623	-0.084027	-0.434965
N94	N	1.276623	0.415973	0.065035
C95	C	0.823446	0.000447	-0.477191
C96	C	1.323446	0.500447	0.022809
N97	N	0.871333	0.084897	-0.447627
N98	N	1.371333	0.584897	0.052373
N99	N	0.872351	0.084886	-0.378442
N100	N	1.372351	0.584886	0.121558
C101	C	0.825513	0.000429	-0.336745
C102	C	1.325513	0.500429	0.163255
C103	C	0.885379	0.000499	-0.601079
C104	C	1.385379	0.500499	-0.101079
C105	C	0.884305	0.000531	-0.673904
C106	C	1.384305	0.500531	-0.173904
C107	C	0.757038	0.000470	-0.656865
C108	C	1.257038	0.500470	-0.156865
C109	C	0.758114	0.000453	-0.584042
C110	C	1.258114	0.500453	-0.084042
C111	C	0.822286	0.000460	-0.556154
C112	C	1.322286	0.500460	-0.056154
C113	C	0.818997	0.000480	0.220700
C114	C	1.318997	0.500480	0.720700
C115	C	0.820138	0.000503	0.298204
C116	C	1.320138	0.500503	0.798204
H117	H	0.464982	0.000427	0.210776
H118	H	0.964982	0.500427	0.710776
O119	O	0.690065	0.000411	-0.535582
O120	O	1.190065	0.500411	-0.035582
H121	H	0.687518	-0.100702	-0.502001
H122	H	1.187518	0.399298	-0.002001
O123	O	0.718907	-0.606666	0.198431
O124	O	1.218907	-0.106666	0.698431
H125	H	0.743870	-0.674797	0.236897
H126	H	1.243870	-0.174797	0.736897
O127	O	0.009092	0.000597	0.220907
O128	O	0.509092	0.500597	0.720907
H129	H	-0.024504	-0.100513	0.223470
H130	H	0.475496	0.399487	0.723470
H131	H	0.849069	-0.406108	0.209382
H132	H	1.349069	0.093892	0.709382
H133	H	0.944176	0.000437	-0.134360
H134	H	1.444176	0.500437	0.365640
H135	H	0.051874	0.000629	-0.026659
H136	H	0.551874	0.500629	0.473341
H137	H	0.183988	0.000485	-0.024713
H138	H	0.683988	0.500485	0.475287
O139	O	0.696605	0.000359	-0.091571
O140	O	1.196605	0.500359	0.408429
H141	H	0.708132	0.000362	-0.036247
H142	H	1.208132	0.500362	0.463753
O143	O	0.958135	-0.607123	0.121306
O144	O	1.458135	-0.107123	0.621306
H145	H	0.981269	-0.676951	0.076665
H146	H	1.481269	-0.176951	0.576665
O147	O	0.954590	0.000524	-0.570994
O148	O	1.454590	0.500524	-0.070994
H149	H	0.958116	0.101626	-0.538209
H150	H	1.458116	0.601626	-0.038209
H151	H	0.916263	-0.406215	0.001245
H152	H	1.416263	0.093785	0.501245
H153	H	0.935683	0.000559	-0.710481
H154	H	1.435683	0.500559	-0.210481
H155	H	0.704792	0.000453	-0.679578
H156	H	1.204792	0.500453	-0.179578
O157	O	0.958900	0.000455	-0.278354
O158	O	1.458900	0.500455	0.221646
H159	H	1.003702	0.000446	-0.246727
H160	H	1.503702	0.500446	0.253273
O161	O	0.488521	0.000356	-0.037077
O162	O	0.988521	0.500356	0.462923
H163	H	0.455776	0.101490	-0.040618
H164	H	0.955776	0.601490	0.459382
O165	O	0.604471	0.000358	0.229682
O166	O	1.104471	0.500358	0.729682
H167	H	0.560993	0.000367	0.273373
H168	H	1.060993	0.500367	0.773373
H169	H	0.799929	-0.592978	-0.023373
H170	H	1.299929	-0.092978	0.476627
H171	H	0.711340	0.000382	-0.235567
H172	H	1.211340	0.500382	0.264433
O173	O	0.639886	0.000283	-0.034843
O174	O	1.139886	0.500283	0.465157
H175	H	0.630017	0.101396	-0.065564
H176	H	1.130017	0.601396	0.434436
O177	O	0.160457	0.000535	0.223139
O178	O	0.660457	0.500535	0.723139
H179	H	0.142408	0.101647	0.253451
H180	H	0.642408	0.601647	0.753451
O181	O	0.690790	-0.392253	0.064597
O182	O	1.190790	0.107747	0.564597
H183	H	0.691364	-0.268457	0.064686
H184	H	1.191364	0.231543	0.564686
