data_functionalizedCrystal
_audit_creation_method	'MofGen! by Chris Wilmer'
_symmetry_space_group_name_H-M	'P1'
_symmetry_Int_Tables_number	1
_symmetry_cell_setting	triclinic
loop_
_symmetry_equiv_pos_as_xyz
  x,y,z
_cell_length_a	29.839131
_cell_length_b	21.395364
_cell_length_c	21.395355
_cell_angle_alpha	90.024552
_cell_angle_beta	90.020172
_cell_angle_gamma	90.056371
loop_
_atom_site_label
_atom_site_type_symbol
_atom_site_fract_x
_atom_site_fract_y
_atom_site_fract_z
Zn1	Zn	-0.178726	0.957813	0.354254
Zn2	Zn	0.154607	1.291146	0.687588
Zn3	Zn	0.487941	1.624479	1.020921
Zn4	Zn	-0.253841	0.957696	0.249474
Zn5	Zn	0.079492	1.291029	0.582807
Zn6	Zn	0.412825	1.624362	0.916140
Zn7	Zn	-0.178746	0.853028	0.249491
Zn8	Zn	0.154587	1.186361	0.582824
Zn9	Zn	0.487921	1.519694	0.916158
Zn10	Zn	-0.253849	0.852977	0.354214
Zn11	Zn	0.079484	1.186311	0.687547
Zn12	Zn	0.412817	1.519644	1.020881
O13	O	-0.216291	0.905378	0.301858
O14	O	0.117043	1.238712	0.635192
O15	O	0.450376	1.572045	0.968525
O16	O	-0.188679	1.045475	0.340365
O17	O	0.144655	1.378808	0.673698
O18	O	0.477988	1.712142	1.007031
O19	O	-0.243885	0.943783	0.161798
O20	O	0.089449	1.277117	0.495131
O21	O	0.422782	1.610450	0.828465
O22	O	-0.115876	0.866998	0.263412
O23	O	0.217457	1.200331	0.596745
O24	O	0.550791	1.533664	0.930079
O25	O	-0.243866	1.045389	0.263383
O26	O	0.089468	1.378722	0.596716
O27	O	0.422801	1.712056	0.930049
O28	O	-0.115862	0.943983	0.340381
O29	O	0.217472	1.277316	0.673715
O30	O	0.550805	1.610649	1.007048
O31	O	-0.188712	0.866884	0.161811
O32	O	0.144621	1.200217	0.495144
O33	O	0.477954	1.533551	0.828477
O34	O	-0.188720	0.765343	0.263373
O35	O	0.144613	1.098676	0.596706
O36	O	0.477947	1.432010	0.930040
O37	O	-0.243879	0.866912	0.441897
O38	O	0.089454	1.200245	0.775231
O39	O	0.422787	1.533578	1.108564
O40	O	-0.243898	0.765306	0.340313
O41	O	0.089435	1.098639	0.673646
O42	O	0.422768	1.431973	1.006979
O43	O	-0.188687	0.943934	0.441927
O44	O	0.144647	1.277267	0.775260
O45	O	0.477980	1.610601	1.108593
O46	O	-0.316710	0.943734	0.263344
O47	O	0.016624	1.277068	0.596677
O48	O	0.349957	1.610401	0.930010
O49	O	-0.316716	0.866798	0.340296
O50	O	0.016618	1.200132	0.673629
O51	O	0.349951	1.533465	1.006962
C52	C	-0.216313	0.742591	0.301841
C53	C	0.117021	1.075924	0.635174
C54	C	0.450354	1.409257	0.968507
C55	C	-0.216333	0.672949	0.301848
C56	C	0.117001	1.006283	0.635181
C57	C	0.450334	1.339616	0.968515
C58	C	-0.187644	0.640303	0.341994
C59	C	0.145689	0.973637	0.675328
C60	C	0.479023	1.306970	1.008661
C61	C	-0.187632	0.574868	0.341997
C62	C	0.145701	0.908201	0.675330
C63	C	0.479035	1.241535	1.008663
C64	C	-0.216317	0.542081	0.301859
C65	C	0.117016	0.875414	0.635193
C66	C	0.450350	1.208748	0.968526
C67	C	-0.245008	0.574735	0.261705
C68	C	0.088326	0.908068	0.595039
C69	C	0.421659	1.241402	0.928372
C70	C	-0.245016	0.640169	0.261699
C71	C	0.088318	0.973502	0.595033
C72	C	0.421651	1.306836	0.928366
C73	C	-0.256775	0.438346	0.296820
C74	C	0.076559	0.771679	0.630153
C75	C	0.409892	1.105013	0.963487
C76	C	-0.256768	0.372913	0.296830
C77	C	0.076566	0.706246	0.630164
C78	C	0.409899	1.039580	0.963497
C79	C	-0.216292	0.340260	0.301873
C80	C	0.117041	0.673594	0.635207
C81	C	0.450375	1.006927	0.968540
C82	C	-0.175823	0.373048	0.306919
C83	C	0.157511	0.706382	0.640253
C84	C	0.490844	1.039715	0.973586
C85	C	-0.175831	0.438483	0.306914
C86	C	0.157503	0.771816	0.640247
C87	C	0.490836	1.105149	0.973580
C88	C	-0.216311	0.471129	0.301861
C89	C	0.117022	0.804462	0.635194
C90	C	0.450355	1.137795	0.968527
C91	C	-0.187588	0.236662	0.342024
C92	C	0.145745	0.569995	0.675358
C93	C	0.479079	0.903328	1.008691
C94	C	-0.187575	0.171225	0.342022
C95	C	0.145758	0.504559	0.675356
C96	C	0.479091	0.837892	1.008689
C97	C	-0.244955	0.171093	0.261734
C98	C	0.088378	0.504427	0.595068
C99	C	0.421712	0.837760	0.928401
C100	C	-0.244964	0.236529	0.261733
C101	C	0.088370	0.569862	0.595066
C102	C	0.421703	0.903195	0.928400
C103	C	-0.216281	0.269309	0.301881
C104	C	0.117053	0.602642	0.635215
C105	C	0.450386	0.935976	0.968548
C106	C	-0.333013	0.905265	0.301827
C107	C	0.000320	1.238598	0.635160
C108	C	0.333653	1.571932	0.968494
C109	C	-0.382948	0.905274	0.301835
C110	C	-0.049614	1.238607	0.635168
C111	C	0.283719	1.571941	0.968501
C112	C	-0.692575	0.945512	0.261848
C113	C	-0.359242	1.278845	0.595181
C114	C	-0.025909	1.612178	0.928514
C115	C	-0.880248	0.945589	0.261872
C116	C	-0.546915	1.278922	0.595205
C117	C	-0.213582	1.612256	0.928539
O118	O	-0.904500	0.979711	0.227850
O119	O	-0.571167	1.313044	0.561183
O120	O	-0.237833	1.646378	0.894516
N121	N	-0.903733	0.905508	0.301905
N122	N	-0.570399	1.238841	0.635239
N123	N	-0.237066	1.572175	0.968572
C124	C	-0.880296	0.865408	0.341939
C125	C	-0.546963	1.198741	0.675272
C126	C	-0.213629	1.532075	1.008605
O127	O	-0.904577	0.831323	0.375994
O128	O	-0.571244	1.164656	0.709328
O129	O	-0.237910	1.497990	1.042661
C130	C	-0.692624	0.865334	0.341917
C131	C	-0.359290	1.198668	0.675250
C132	C	-0.025957	1.532001	1.008584
C133	C	-0.669142	0.905413	0.301876
C134	C	-0.335809	1.238747	0.635210
C135	C	-0.002475	1.572080	0.968543
C136	C	-0.669093	0.985588	0.221811
C137	C	-0.335760	1.318921	0.555144
C138	C	-0.002427	1.652255	0.888478
C139	C	-0.622178	0.985566	0.221803
C140	C	-0.288845	1.318899	0.555136
C141	C	0.044489	1.652233	0.888470
C142	C	-0.598744	0.945467	0.261832
C143	C	-0.265411	1.278801	0.595165
C144	C	0.067922	1.612134	0.928498
C145	C	-0.622226	0.905391	0.301868
C146	C	-0.288893	1.238724	0.635202
C147	C	0.044440	1.572058	0.968535
C148	C	-0.669188	0.825238	0.381953
C149	C	-0.335855	1.158571	0.715286
C150	C	-0.002521	1.491904	1.048619
C151	C	-0.622267	0.825224	0.381945
C152	C	-0.288934	1.158557	0.715278
C153	C	0.044400	1.491891	1.048611
C154	C	-0.598785	0.865303	0.341904
C155	C	-0.265452	1.198636	0.675238
C156	C	0.067882	1.531970	1.008571
C157	C	-0.551878	0.865271	0.341889
C158	C	-0.218544	1.198604	0.675222
C159	C	0.114789	1.531937	1.008556
N160	N	-0.528393	0.905351	0.301856
N161	N	-0.195060	1.238685	0.635189
N162	N	0.138273	1.572018	0.968522
C163	C	-0.551827	0.945450	0.261827
C164	C	-0.218493	1.278783	0.595160
C165	C	0.114840	1.612117	0.928494
C166	C	-0.978827	0.865449	0.341946
C167	C	-0.645493	1.198782	0.675279
C168	C	-0.312160	1.532115	1.008613
C169	C	-1.025744	0.865466	0.341951
C170	C	-0.692411	1.198799	0.675284
C171	C	-0.359078	1.532133	1.008618
C172	C	-1.025694	0.945648	0.261885
C173	C	-0.692360	1.278982	0.595218
C174	C	-0.359027	1.612315	0.928552
C175	C	-0.978775	0.945627	0.261878
C176	C	-0.645442	1.278960	0.595211
C177	C	-0.312108	1.612294	0.928544
C178	C	-0.955342	0.905530	0.301913
C179	C	-0.622009	1.238863	0.635246
C180	C	-0.288676	1.572196	0.968579
C181	C	-0.453301	0.945400	0.261813
C182	C	-0.119968	1.278733	0.595146
C183	C	0.213366	1.612067	0.928479
C184	C	-0.406381	0.945372	0.261806
C185	C	-0.073048	1.278706	0.595140
C186	C	0.260285	1.612039	0.928473
C187	C	-0.406436	0.865193	0.341874
C188	C	-0.073103	1.198526	0.675207
C189	C	0.260231	1.531860	1.008541
C190	C	-0.453352	0.865218	0.341878
C191	C	-0.120018	1.198551	0.675212
C192	C	0.213315	1.531885	1.008545
C193	C	-0.476783	0.905326	0.301845
C194	C	-0.143450	1.238660	0.635179
C195	C	0.189884	1.571993	0.968512
O196	O	-0.527597	0.831172	0.375898
O197	O	-0.194264	1.164505	0.709232
O198	O	0.139070	1.497838	1.042565
O199	O	-0.527537	0.979540	0.227786
O200	O	-0.194204	1.312873	0.561119
O201	O	0.139129	1.646206	0.894453
C202	C	-0.739491	0.945534	0.261856
C203	C	-0.406157	1.278867	0.595189
C204	C	-0.072824	1.612201	0.928523
C205	C	-0.762973	0.905458	0.301893
C206	C	-0.429639	1.238791	0.635226
C207	C	-0.096306	1.572124	0.968559
C208	C	-0.739539	0.865359	0.341921
C209	C	-0.406206	1.198692	0.675255
C210	C	-0.072873	1.532026	1.008588
C211	C	-0.809891	0.905475	0.301897
C212	C	-0.476557	1.238808	0.635231
C213	C	-0.143224	1.572142	0.968564
C214	C	-0.833324	0.945574	0.261869
C215	C	-0.499991	1.278907	0.595202
C216	C	-0.166657	1.612240	0.928535
C217	C	-0.809840	0.985654	0.221835
C218	C	-0.476506	1.318988	0.555169
C219	C	-0.143173	1.652321	0.888502
C220	C	-0.762924	0.985632	0.221827
C221	C	-0.429591	1.318966	0.555161
C222	C	-0.096258	1.652299	0.888494
C223	C	-0.763024	0.825278	0.381955
C224	C	-0.429690	1.158612	0.715288
C225	C	-0.096357	1.491945	1.048621
C226	C	-0.809939	0.825303	0.381959
C227	C	-0.476606	1.158637	0.715292
C228	C	-0.143272	1.491970	1.048626
C229	C	-0.833373	0.865402	0.341930
C230	C	-0.500039	1.198735	0.675264
C231	C	-0.166706	1.532068	1.008597
C232	C	-0.099112	0.905509	0.301903
C233	C	0.234221	1.238842	0.635236
C234	C	0.567554	1.572176	0.968570
C235	C	-0.049178	0.905565	0.301922
C236	C	0.284155	1.238898	0.635256
C237	C	0.617489	1.572231	0.968589
C238	C	-0.216269	1.068802	0.301876
C239	C	0.117064	1.402135	0.635210
C240	C	0.450398	1.735468	0.968543
C241	C	-0.216260	1.138443	0.301884
C242	C	0.117073	1.471776	0.635217
C243	C	0.450407	1.805109	0.968551
C244	C	-0.216282	0.905430	0.465282
C245	C	0.117052	1.238764	0.798615
C246	C	0.450385	1.572097	1.131948
C247	C	-0.216278	0.905452	0.534923
C248	C	0.117056	1.238786	0.868256
C249	C	0.450389	1.572119	1.201590
C250	C	-0.216267	0.905362	0.139071
C251	C	0.117066	1.238696	0.472404
C252	C	0.450399	1.572029	0.805737
C253	C	-0.216145	0.905462	0.069430
C254	C	0.117189	1.238795	0.402763
C255	C	0.450522	1.572128	0.736096
C256	C	-0.187538	0.945556	0.567652
C257	C	0.145796	1.278889	0.900986
C258	C	0.479129	1.612223	1.234319
C259	C	-0.187518	0.945555	0.633088
C260	C	0.145815	1.278889	0.966421
C261	C	0.479148	1.612222	1.299755
C262	C	-0.216247	0.905457	0.665791
C263	C	0.117086	1.238791	0.999125
C264	C	0.450420	1.572124	1.332458
C265	C	-0.244989	0.865346	0.633054
C266	C	0.088344	1.198679	0.966387
C267	C	0.421677	1.532012	1.299720
C268	C	-0.245005	0.865343	0.567620
C269	C	0.088329	1.198677	0.900953
C270	C	0.421662	1.532010	1.234286
C271	C	-0.256699	0.900471	0.769455
C272	C	0.076634	1.233804	1.102788
C273	C	0.409967	1.567137	1.436122
C274	C	-0.256685	0.900478	0.834888
C275	C	0.076649	1.233811	1.168221
C276	C	0.409982	1.567144	1.501555
C277	C	-0.216200	0.905461	0.867612
C278	C	0.117134	1.238795	1.200945
C279	C	0.450467	1.572128	1.534279
C280	C	-0.175728	0.910451	0.834895
C281	C	0.157605	1.243784	1.168228
C282	C	0.490939	1.577118	1.501562
C283	C	-0.175743	0.910449	0.769461
C284	C	0.157590	1.243782	1.102794
C285	C	0.490923	1.577115	1.436127
C286	C	-0.216234	0.905455	0.736744
C287	C	0.117100	1.238789	1.070077
C288	C	0.450433	1.572122	1.403410
C289	C	-0.187436	0.945566	0.971294
C290	C	0.145897	1.278899	1.304628
C291	C	0.479230	1.612233	1.637961
C292	C	-0.187416	0.945561	1.036731
C293	C	0.145917	1.278894	1.370064
C294	C	0.479251	1.612228	1.703398
C295	C	-0.244891	0.865355	1.036696
C296	C	0.088442	1.198688	1.370029
C297	C	0.421776	1.532021	1.703362
C298	C	-0.244907	0.865357	0.971260
C299	C	0.088426	1.198690	1.304594
C300	C	0.421760	1.532023	1.637927
C301	C	-0.216180	0.905466	0.938563
C302	C	0.117153	1.238799	1.271897
C303	C	0.450486	1.572132	1.605230
H304	H	-0.289720	0.346222	0.292724
H305	H	0.043613	0.679555	0.626058
H306	H	0.376946	1.012889	0.959391
F307	F	-0.157116	0.675187	0.384723
F308	F	0.176217	1.008520	0.718057
F309	F	0.509550	1.341853	1.051390
H310	H	-0.164211	0.144646	0.374713
H311	H	0.169123	0.477979	0.708047
H312	H	0.502456	0.811313	1.041380
F313	F	-0.156962	0.988241	0.532858
F314	F	0.176371	1.321575	0.866191
F315	F	0.509705	1.654908	1.199525
H316	H	-0.268408	0.832683	0.540972
H317	H	0.064926	1.166017	0.874305
H318	H	0.398259	1.499350	1.207638
H319	H	-0.603190	0.792572	0.414548
H320	H	-0.269857	1.125906	0.747882
H321	H	0.063476	1.459239	1.081215
F322	F	-0.275498	0.822674	0.936426
F323	F	0.057835	1.156008	1.269759
F324	F	0.391168	1.489341	1.603092
F325	F	-0.478344	0.822550	0.384482
F326	F	-0.145010	1.155883	0.717815
F327	F	0.188323	1.489217	1.051149
H328	H	-0.603062	1.018203	0.189201
H329	H	-0.269728	1.351537	0.522534
H330	H	0.063605	1.684870	0.855867
F331	F	-0.275481	0.136203	0.219013
F332	F	0.057852	0.469537	0.552346
F333	F	0.391186	0.802870	0.885679
F334	F	-0.299793	0.895181	0.734634
F335	F	0.033541	1.228514	1.067968
F336	F	0.366874	1.561847	1.401301
H337	H	-0.268327	0.263109	0.229044
H338	H	0.065006	0.596443	0.562377
H339	H	0.398340	0.929776	0.895711
F340	F	-0.275463	0.822674	1.071497
F341	F	0.057870	1.156008	1.404830
F342	F	0.391203	1.489341	1.738163
H343	H	-0.289737	0.464927	0.292713
H344	H	0.043596	0.798260	0.626046
H345	H	0.376930	1.131593	0.959380
F346	F	-0.737939	1.028292	0.179212
F347	F	-0.404606	1.361625	0.512545
F348	F	-0.071272	1.694959	0.845879
H349	H	-0.268363	0.548036	0.229025
H350	H	0.064971	0.881369	0.562358
H351	H	0.398304	1.214702	0.895691
H352	H	-0.164230	0.263353	0.374712
H353	H	0.169103	0.596686	0.708045
H354	H	0.502437	0.930020	1.041378
H355	H	-0.289639	0.896418	0.861521
H356	H	0.043694	1.229752	1.194855
H357	H	0.377028	1.563085	1.528188
H358	H	-0.164043	0.978222	0.944671
H359	H	0.169291	1.311555	1.278004
H360	H	0.502624	1.644888	1.611338
H361	H	-0.142761	0.914510	0.861537
H362	H	0.190572	1.247843	1.194871
H363	H	0.523905	1.581177	1.528204
F364	F	-0.275550	0.674914	0.218967
F365	F	0.057783	1.008248	0.552300
F366	F	0.391116	1.341581	0.885633
F367	F	-0.381393	0.988032	0.219187
F368	F	-0.048059	1.321365	0.552521
F369	F	0.285274	1.654698	0.885854
F370	F	-0.275563	0.822669	0.667860
F371	F	0.057770	1.156002	1.001193
F372	F	0.391104	1.489335	1.334526
F373	F	-0.156921	0.988231	0.667928
F374	F	0.176413	1.321564	1.001262
F375	F	0.509746	1.654897	1.334595
H376	H	-0.164268	0.548282	0.374688
H377	H	0.169065	0.881616	0.708021
H378	H	0.502399	1.214949	1.041354
H379	H	-0.142864	0.346464	0.311026
H380	H	0.190470	0.679797	0.644359
H381	H	0.523803	1.013131	0.977693
F382	F	-0.132761	0.473376	0.312282
F383	F	0.200572	0.806709	0.645615
F384	F	0.533905	1.140042	0.978948
F385	F	-0.694169	0.782585	0.424575
F386	F	-0.360836	1.115918	0.757909
F387	F	-0.027502	1.449251	1.091242
H388	H	-0.828928	1.018302	0.189241
H389	H	-0.495594	1.351636	0.522574
H390	H	-0.162261	1.684969	0.855907
H391	H	-1.044781	0.978298	0.229292
H392	H	-0.711448	1.311631	0.562626
H393	H	-0.378114	1.644965	0.895959
F394	F	-0.381488	0.822521	0.384475
F395	F	-0.048155	1.155855	0.717808
F396	F	0.285178	1.489188	1.051141
F397	F	-1.050731	0.822801	0.384560
F398	F	-0.717397	1.156135	0.717894
F399	F	-0.384064	1.489468	1.051227
F400	F	-0.478232	0.988088	0.219205
F401	F	-0.144898	1.321421	0.552538
F402	F	0.188435	1.654755	0.885872
H403	H	-0.688168	1.018244	0.189215
H404	H	-0.354835	1.351578	0.522548
H405	H	-0.021501	1.684911	0.855881
H406	H	-0.829054	0.792660	0.414564
H407	H	-0.495721	1.125994	0.747897
H408	H	-0.162387	1.459327	1.081231
H409	H	-0.959659	0.978263	0.229274
H410	H	-0.626325	1.311596	0.562607
H411	H	-0.292992	1.644930	0.895940
H412	H	-0.959751	0.832795	0.374548
H413	H	-0.626417	1.166128	0.707882
H414	H	-0.293084	1.499461	1.041215
F415	F	-0.738090	0.782598	0.424562
F416	F	-0.404757	1.115931	0.757895
F417	F	-0.071423	1.449265	1.091228
H418	H	-0.142790	0.914510	0.742825
H419	H	0.190543	1.247843	1.076159
H420	H	0.523877	1.581177	1.409492
F421	F	-0.156830	0.988254	1.071564
F422	F	0.176503	1.321588	1.404897
F423	F	0.509836	1.654921	1.738231
