data_functionalizedCrystal
_audit_creation_method	'MofGen! by Chris Wilmer'
_symmetry_space_group_name_H-M	'P1'
_symmetry_Int_Tables_number	1
_symmetry_cell_setting	triclinic
loop_
_symmetry_equiv_pos_as_xyz
  x,y,z
_cell_length_a	16.992694
_cell_length_b	16.992695
_cell_length_c	13.448316
_cell_angle_alpha	89.993283
_cell_angle_beta	89.999033
_cell_angle_gamma	90.668223
loop_
_atom_site_label
_atom_site_type_symbol
_atom_site_fract_x
_atom_site_fract_y
_atom_site_fract_z
O1	O	1.050853	0.166919	-0.082568
O2	O	1.550853	0.666919	0.417432
O3	O	0.822453	0.165087	-0.082597
O4	O	1.322453	0.665087	0.417403
O5	O	0.935737	0.051803	-0.082575
O6	O	1.435737	0.551803	0.417425
O7	O	0.937569	0.280203	-0.082591
O8	O	1.437569	0.780203	0.417409
O9	O	0.935722	0.051795	0.082809
O10	O	1.435722	0.551795	0.582809
O11	O	0.822437	0.165079	0.082786
O12	O	1.322437	0.665079	0.582786
O13	O	1.050837	0.166910	0.082816
O14	O	1.550837	0.666910	0.582816
Cu15	Cu	0.936636	0.165994	0.097902
Cu16	Cu	1.436636	0.665994	0.597902
Cu17	Cu	0.936654	0.166004	-0.097684
Cu18	Cu	1.436654	0.666004	0.402316
O19	O	0.937553	0.280195	0.082793
O20	O	1.437553	0.780195	0.582793
C21	C	0.793085	0.162727	0.000091
C22	C	1.293085	0.662727	0.500091
C23	C	0.705600	0.155699	0.000080
C24	C	1.205600	0.655699	0.500080
C25	C	0.659610	0.223517	0.000076
C26	C	1.159610	0.723517	0.500076
C27	C	0.577409	0.216908	0.000090
C28	C	1.077409	0.716908	0.500090
C29	C	0.541201	0.142480	0.000101
C30	C	1.041201	0.642480	0.500101
C31	C	0.587198	0.074657	0.000108
C32	C	1.087198	0.574657	0.500108
C33	C	0.669397	0.081267	0.000101
C34	C	1.169397	0.581267	0.500101
C35	C	0.295886	0.115086	0.000129
C36	C	0.795886	0.615086	0.500129
C37	C	0.213681	0.108481	0.000134
C38	C	0.713681	0.608481	0.500134
C39	C	0.203898	0.250732	0.000118
C40	C	0.703898	0.750732	0.500118
C41	C	0.286099	0.257335	0.000105
C42	C	0.786099	0.757335	0.500105
C43	C	0.332089	0.189512	0.000117
C44	C	0.832089	0.689512	0.500117
N45	N	0.457178	0.135723	0.000112
N46	N	0.957178	0.635723	0.500112
N47	N	0.416110	0.196270	0.000112
N48	N	0.916110	0.696270	0.500112
C49	C	0.933374	0.022439	0.000116
C50	C	1.433374	0.522439	0.500116
C51	C	0.926345	-0.065046	0.000115
C52	C	1.426345	0.434954	0.500115
C53	C	0.994163	-0.111037	0.000125
C54	C	1.494163	0.388963	0.500125
C55	C	0.987554	-0.193238	0.000115
C56	C	1.487554	0.306762	0.500115
C57	C	0.913127	-0.229446	0.000102
C58	C	1.413127	0.270554	0.500102
C59	C	0.845303	-0.183449	0.000089
C60	C	1.345303	0.316551	0.500089
C61	C	0.851913	-0.101250	0.000092
C62	C	1.351913	0.398750	0.500092
C63	C	0.885732	-0.474760	0.000085
C64	C	1.385732	0.025240	0.500085
C65	C	0.879127	-0.556966	0.000084
C66	C	1.379127	-0.056966	0.500084
C67	C	1.021379	-0.566749	0.000108
C68	C	1.521379	-0.066749	0.500108
C69	C	1.027982	-0.484547	0.000117
C70	C	1.527982	0.015453	0.500117
C71	C	0.960159	-0.438558	0.000099
C72	C	1.460159	0.061442	0.500099
N73	N	0.906369	-0.313468	0.000095
N74	N	1.406369	0.186532	0.500095
N75	N	0.966917	-0.354537	0.000100
N76	N	1.466917	0.145463	0.500100
C77	C	1.080205	0.169270	0.000125
C78	C	1.580205	0.669270	0.500125
C79	C	1.167690	0.176299	0.000130
C80	C	1.667690	0.676299	0.500130
C81	C	0.939917	0.309559	0.000100
C82	C	1.439917	0.809559	0.500100
C83	C	0.946945	0.397044	0.000094
C84	C	1.446945	0.897044	0.500094
N85	N	0.936629	0.165987	0.235466
N86	N	1.436629	0.665987	0.735466
N87	N	0.936668	0.166005	-0.235248
N88	N	1.436668	0.666005	0.264752
C89	C	0.986809	0.115847	0.287516
C90	C	1.486809	0.615847	0.787516
C91	C	0.986814	0.115847	0.391620
C92	C	1.486814	0.615847	0.891620
C93	C	0.936642	0.165991	0.443671
C94	C	1.436642	0.665991	0.943671
C95	C	0.886456	0.216132	0.391613
C96	C	1.386456	0.716132	0.891613
C97	C	0.886448	0.216128	0.287512
C98	C	1.386448	0.716128	0.787512
C99	C	0.886478	0.216139	0.608593
C100	C	1.386478	0.716139	1.108593
C101	C	0.886487	0.216144	0.712702
C102	C	1.386487	0.716144	1.212702
C103	C	0.986844	0.115858	0.712701
C104	C	1.486844	0.615858	1.212701
C105	C	0.986836	0.115854	0.608600
C106	C	1.486836	0.615854	1.108600
C107	C	0.936651	0.165997	0.556549
C108	C	1.436651	0.665997	1.056549
H109	H	0.184203	0.047870	0.000141
H110	H	0.684203	0.547870	0.500141
H111	H	0.689084	0.284124	0.000066
H112	H	1.189084	0.784124	0.500066
H113	H	1.027674	0.075019	0.433999
H114	H	1.527674	0.575019	0.933999
H115	H	0.845601	0.256957	0.433999
H116	H	1.345601	0.756957	0.933999
H117	H	0.539966	0.272133	0.000086
H118	H	1.039966	0.772133	0.500086
O119	O	1.035598	0.067072	0.558190
O120	O	1.535598	0.567072	1.058190
C121	C	1.079908	0.022829	0.626450
C122	C	1.579908	0.522829	1.126450
H123	H	1.047588	0.019897	0.700665
H124	H	1.547588	0.519897	1.200665
H125	H	1.087978	-0.039278	0.596379
H126	H	1.587978	0.460722	1.096379
H127	H	1.139986	0.052089	0.637504
H128	H	1.639986	0.552089	1.137504
O129	O	0.321143	0.329695	0.000144
O130	O	0.821143	0.829695	0.500144
C131	C	0.262922	0.388138	0.000119
C132	C	0.762922	0.888138	0.500119
H133	H	0.205763	0.362576	0.031436
H134	H	0.705763	0.862576	0.531436
H135	H	0.283253	0.439789	0.048129
H136	H	0.783253	0.939789	0.548129
H137	H	0.252673	0.409308	-0.079225
H138	H	0.752673	0.909308	0.420775
H139	H	0.845631	0.256976	0.755077
H140	H	1.345631	0.756976	1.255077
H141	H	1.027706	0.075030	0.755087
H142	H	1.527706	0.575030	1.255087
O143	O	0.837706	0.264923	0.558184
O144	O	1.337706	0.764923	1.058184
C145	C	0.793412	0.309171	0.626446
C146	C	1.293412	0.809171	1.126446
H147	H	0.825746	0.312102	0.700649
H148	H	1.325746	0.812102	1.200649
H149	H	0.785341	0.371278	0.596357
H150	H	1.285341	0.871278	1.096357
H151	H	0.733335	0.279916	0.637530
H152	H	1.233335	0.779916	1.137530
O153	O	0.552116	0.002315	-0.000016
O154	O	1.052116	0.502315	0.499984
C155	C	0.575163	-0.039327	-0.085680
C156	C	1.075163	0.460673	0.414320
H157	H	0.633454	-0.014304	-0.114239
H158	H	1.133454	0.485696	0.385761
H159	H	0.582452	-0.104168	-0.066412
H160	H	1.082452	0.395832	0.433588
H161	H	0.528222	-0.033183	-0.145657
H162	H	1.028222	0.466817	0.354343
O163	O	0.837680	0.264910	0.237101
O164	O	1.337680	0.764910	0.737101
C165	C	0.793385	0.309156	0.305363
C166	C	1.293385	0.809156	0.805363
H167	H	0.825720	0.312091	0.379564
H168	H	1.325720	0.812091	0.879564
H169	H	0.785307	0.371261	0.275271
H170	H	1.285307	0.871261	0.775271
H171	H	0.733310	0.279896	0.316451
H172	H	1.233310	0.779896	0.816451
O173	O	1.053374	-0.237999	0.000256
O174	O	1.553374	0.262001	0.500256
C175	C	1.053805	-0.285840	0.085916
C176	C	1.553805	0.214160	0.585916
H177	H	0.991059	-0.293907	0.114462
H178	H	1.491059	0.206093	0.614462
H179	H	1.079258	-0.345712	0.066648
H180	H	1.579258	0.154288	0.566648
H181	H	1.091446	-0.256589	0.145903
H182	H	1.591446	0.243411	0.645903
O183	O	0.340437	0.049125	0.000093
O184	O	0.840437	0.549125	0.500093
C185	C	0.290848	-0.017981	0.000126
C186	C	0.790848	0.482019	0.500126
H187	H	0.230821	-0.001836	-0.031187
H188	H	0.730821	0.498164	0.468813
H189	H	0.318018	-0.065817	-0.047883
H190	H	0.818018	0.434183	0.452117
H191	H	0.283608	-0.040553	0.079472
H192	H	0.783608	0.459447	0.579472
O193	O	0.772943	-0.218493	0.000029
O194	O	1.272943	0.281507	0.500029
C195	C	0.714503	-0.160270	0.000043
C196	C	1.214503	0.339730	0.500043
H197	H	0.740070	-0.103107	-0.031262
H198	H	1.240070	0.396893	0.468738
H199	H	0.662856	-0.180592	-0.047982
H200	H	1.162856	0.319408	0.452018
H201	H	0.693326	-0.150031	0.079382
H202	H	1.193326	0.349969	0.579382
H203	H	0.706842	0.026042	0.000103
H204	H	1.206842	0.526042	0.500103
H205	H	0.166444	0.305950	0.000110
H206	H	0.666444	0.805950	0.500110
H207	H	1.054770	-0.081563	0.000142
H208	H	1.554770	0.418437	0.500142
O209	O	1.100342	-0.449504	0.000089
O210	O	1.600342	0.050496	0.500089
C211	C	1.158785	-0.507724	0.000125
C212	C	1.658785	-0.007724	0.500125
H213	H	1.133230	-0.564880	-0.031199
H214	H	1.633230	-0.064880	0.468801
H215	H	1.210447	-0.487388	-0.047873
H216	H	1.710447	0.012612	0.452127
H217	H	1.179935	-0.517983	0.079473
H218	H	1.679935	-0.017983	0.579473
O219	O	1.087178	-0.611540	0.000073
O220	O	1.587178	-0.111540	0.500073
C221	C	1.065389	-0.691856	0.000092
C222	C	1.565389	-0.191856	0.500092
H223	H	1.003364	-0.698875	-0.031225
H224	H	1.503364	-0.198875	0.468775
H225	H	1.108305	-0.726214	-0.047921
H226	H	1.608305	-0.226214	0.452079
H227	H	1.066880	-0.715424	0.079434
H228	H	1.566880	-0.215424	0.579434
H229	H	0.830505	-0.437325	0.000070
H230	H	1.330505	0.062675	0.500070
O231	O	0.806764	-0.592013	0.000017
O232	O	1.306764	-0.092013	0.500017
C233	C	0.748317	-0.533796	0.000022
C234	C	1.248317	-0.033796	0.500022
H235	H	0.773882	-0.476631	-0.031280
H236	H	1.273882	0.023369	0.468720
H237	H	0.696676	-0.554123	-0.048010
H238	H	1.196676	-0.054123	0.451990
H239	H	0.727133	-0.523558	0.079358
H240	H	1.227133	-0.023558	0.579358
O241	O	0.786115	-0.056455	0.000042
O242	O	1.286115	0.443545	0.500042
C243	C	0.807907	0.023860	0.000070
C244	C	1.307907	0.523860	0.500070
H245	H	0.869939	0.030883	-0.031230
H246	H	1.369939	0.530883	0.468770
H247	H	0.765002	0.058230	-0.047953
H248	H	1.265002	0.558230	0.452047
H249	H	0.806402	0.047411	0.079413
H250	H	1.306402	0.547411	0.579413
O251	O	1.035572	0.067063	0.237113
O252	O	1.535572	0.567063	0.737113
C253	C	1.079876	0.022823	0.305382
C254	C	1.579876	0.522823	0.805382
H255	H	1.047552	0.019896	0.379594
H256	H	1.547552	0.519896	0.879594
H257	H	1.087947	-0.039286	0.275318
H258	H	1.587947	0.460714	0.775318
H259	H	1.139954	0.052081	0.316440
H260	H	1.639954	0.552081	0.816440
