data_functionalizedCrystal
_audit_creation_method	'MofGen! by Chris Wilmer'
_symmetry_space_group_name_H-M	'P1'
_symmetry_Int_Tables_number	1
_symmetry_cell_setting	triclinic
loop_
_symmetry_equiv_pos_as_xyz
  x,y,z
_cell_length_a	19.188905
_cell_length_b	19.188930
_cell_length_c	14.185569
_cell_angle_alpha	76.885558
_cell_angle_beta	103.100864
_cell_angle_gamma	83.139668
loop_
_atom_site_label
_atom_site_type_symbol
_atom_site_fract_x
_atom_site_fract_y
_atom_site_fract_z
O1	O	0.910236	0.102998	-0.083594
O2	O	0.706928	0.114744	-0.083561
O3	O	0.814453	0.007211	-0.083559
O4	O	0.802711	0.210531	-0.083596
O5	O	0.846217	-0.024552	0.083276
O6	O	0.738692	0.082981	0.083274
O7	O	0.942000	0.071235	0.083241
Cu8	Cu	0.843246	0.074208	0.098491
Cu9	Cu	0.805682	0.111771	-0.098811
O10	O	0.834475	0.178768	0.083239
C11	C	0.696800	0.098484	-0.000139
C12	C	0.619297	0.097348	-0.000126
C13	C	0.565590	0.114118	-0.091070
C14	C	0.492764	0.113047	-0.091083
C15	C	0.473651	0.095191	-0.000145
C16	C	0.527368	0.078423	0.090811
C17	C	0.600191	0.079502	0.090821
N18	N	0.377516	0.040877	0.067538
N19	N	0.308337	0.039852	0.067523
C20	C	0.254239	0.091943	-0.000169
N21	N	0.271934	0.145092	-0.067860
N22	N	0.341120	0.146114	-0.067847
C23	C	0.394688	0.094021	-0.000146
C24	C	0.121565	0.107554	-0.091133
C25	C	0.048738	0.106487	-0.091141
C26	C	0.083344	0.071856	0.090755
C27	C	0.156169	0.072931	0.090761
C28	C	0.175275	0.090777	-0.000186
C29	C	0.829955	-0.034682	-0.000138
C30	C	0.828816	-0.112188	-0.000130
C31	C	0.891907	-0.157116	-0.000135
C32	C	0.890832	-0.229937	-0.000151
C33	C	0.826667	-0.257830	-0.000141
C34	C	0.763567	-0.212890	-0.000142
C35	C	0.764642	-0.140069	-0.000136
N36	N	0.788430	-0.376641	0.056644
N37	N	0.787414	-0.445819	0.056640
C38	C	0.823425	-0.477234	-0.000161
N39	N	0.860503	-0.436862	-0.056946
N40	N	0.861523	-0.367679	-0.056939
C41	C	0.825495	-0.336791	-0.000148
C42	C	0.885355	-0.601124	-0.000185
C43	C	0.884276	-0.673944	-0.000207
C44	C	0.757011	-0.656898	-0.000188
C45	C	0.758090	-0.584077	-0.000176
C46	C	0.822264	-0.556195	-0.000170
C47	C	0.952128	0.087495	-0.000183
C48	C	1.029629	0.088633	-0.000203
C49	C	0.818972	0.220661	-0.000184
C50	C	0.820110	0.298168	-0.000199
N51	N	0.869672	0.047788	0.237263
N52	N	0.779262	0.138186	-0.237583
C53	C	0.701623	0.215778	0.604909
C54	C	0.721645	0.195770	0.709931
C55	C	0.816877	0.100585	0.709894
C56	C	0.796861	0.120583	0.604870
C57	C	0.739234	0.178181	0.552386
C58	C	0.834471	0.082985	0.552346
C59	C	0.814459	0.102985	0.447332
C60	C	0.756836	0.160581	0.394840
C61	C	0.719221	0.198180	0.447371
C62	C	0.892101	0.025391	0.604833
C63	C	0.929712	-0.012206	0.552309
C64	C	0.909697	0.007789	0.447292
C65	C	0.852073	0.065386	0.394801
C66	C	0.947311	-0.029809	0.394762
C67	C	0.927299	-0.009810	0.289747
C68	C	0.832061	0.085385	0.289786
H69	H	0.067783	0.057322	0.164798
H70	H	0.785130	0.132282	0.247051
H71	H	0.937608	-0.578421	-0.000185
H72	H	0.740544	0.176866	0.309330
H73	H	0.672291	0.245077	0.404636
Cl74	Cl	0.629168	0.288182	0.538925
Cl75	Cl	0.223690	0.051843	0.205098
H76	H	0.942209	-0.266524	-0.000159
H77	H	0.704766	-0.679606	-0.000185
Cl78	Cl	0.674355	0.243046	0.775953
Cl79	Cl	0.889322	0.028180	0.775881
Cl80	Cl	0.963596	-0.730426	-0.000221
H81	H	0.137121	0.122093	-0.165187
H82	H	0.706715	-0.547496	-0.000166
Cl83	Cl	0.917261	0.000255	0.736853
H84	H	0.976635	-0.059102	0.595054
H85	H	0.944162	-0.134420	-0.000133
H86	H	0.957926	-0.040426	0.246982
Cl87	Cl	0.589605	0.136556	-0.205403
Cl88	Cl	0.425236	0.134130	-0.205421
Cl89	Cl	1.019761	-0.102208	0.460752
Cl90	Cl	-0.018783	0.127577	-0.205483
H91	H	0.511801	0.063887	0.164853
H92	H	0.643921	0.065846	0.164881
H93	H	0.711323	-0.235605	-0.000136
H94	H	0.713264	-0.103488	-0.000131
