data_functionalizedCrystal
_audit_creation_method	'MofGen! by Chris Wilmer'
_symmetry_space_group_name_H-M	'P1'
_symmetry_Int_Tables_number	1
_symmetry_cell_setting	triclinic
loop_
_symmetry_equiv_pos_as_xyz
  x,y,z
_cell_length_a	23.532407
_cell_length_b	23.532361
_cell_length_c	9.730223
_cell_angle_alpha	89.998623
_cell_angle_beta	89.992466
_cell_angle_gamma	82.839173
loop_
_atom_site_label
_atom_site_type_symbol
_atom_site_fract_x
_atom_site_fract_y
_atom_site_fract_z
O1	O	0.069007	0.755278	-0.114166
O2	O	0.079038	0.589411	-0.114201
O3	O	-0.008910	0.677346	-0.114157
O4	O	0.156955	0.667343	-0.114210
O5	O	-0.008910	0.677336	0.114423
O6	O	0.079038	0.589401	0.114379
O7	O	0.069008	0.755268	0.114414
Zn8	Zn	0.074023	0.672333	0.150689
Zn9	Zn	0.074022	0.672346	-0.150475
O10	O	0.156956	0.667333	0.114370
C11	C	0.078787	0.568189	0.000085
C12	C	0.078032	0.504971	0.000073
C13	C	0.074728	0.231732	-0.124517
C14	C	0.075443	0.291132	-0.124520
O15	O	0.075792	0.321863	-0.230485
N16	N	0.075804	0.320832	0.000079
C17	C	0.075445	0.291131	0.124690
O18	O	0.075818	0.321848	0.230671
C19	C	0.074726	0.231733	0.124692
C20	C	0.074370	0.202035	0.000085
C21	C	0.074372	0.202034	-0.249114
C22	C	0.073658	0.142639	-0.249110
C23	C	0.073300	0.112941	-0.124509
C24	C	0.073657	0.142639	0.000089
C25	C	0.074363	0.202032	0.249302
C26	C	0.073643	0.142630	0.249293
C27	C	0.073288	0.112932	0.124686
C28	C	0.072585	0.053545	0.124694
N29	N	0.072224	0.023845	0.000095
C30	C	0.072581	0.053543	-0.124506
C31	C	0.076954	0.415871	0.124676
C32	C	0.077677	0.475267	0.124675
C33	C	0.077674	0.475265	-0.124536
C34	C	0.076955	0.415867	-0.124534
C35	C	0.076593	0.386171	0.000077
C36	C	0.071083	-0.071193	-0.124488
C37	C	0.070371	-0.130594	-0.124473
C38	C	0.070372	-0.130586	0.124737
C39	C	0.071086	-0.071190	0.124723
C40	C	0.071440	-0.041495	0.000099
O41	O	0.072233	0.022777	0.230605
O42	O	0.072201	0.022820	-0.230470
C43	C	-0.030126	0.677086	0.000136
C44	C	-0.093343	0.676320	0.000147
C45	C	-0.492454	0.723555	0.000081
C46	C	-0.551854	0.722844	0.000071
O47	O	-0.588606	0.766630	0.000029
N48	N	-0.574471	0.670566	0.000061
C49	C	-0.537685	0.618997	0.000047
O50	O	-0.562377	0.574465	0.000037
C51	C	-0.478286	0.619709	0.000048
C52	C	-0.455672	0.671990	0.000072
C53	C	-0.469839	0.775832	0.000104
C54	C	-0.410443	0.776543	0.000117
C55	C	-0.373662	0.724977	0.000108
C56	C	-0.396276	0.672701	0.000085
C57	C	-0.441501	0.568140	0.000025
C58	C	-0.382099	0.568857	0.000025
C59	C	-0.359485	0.621137	0.000048
C60	C	-0.300099	0.621847	0.000089
N61	N	-0.277481	0.674124	0.000099
C62	C	-0.314263	0.725690	0.000108
C63	C	-0.662427	0.617505	0.000043
C64	C	-0.721825	0.616793	0.000052
C65	C	-0.735990	0.720640	0.000073
C66	C	-0.676591	0.721352	0.000074
C67	C	-0.639810	0.669783	0.000053
C68	C	-0.189526	0.727179	0.000137
C69	C	-0.130124	0.727886	0.000156
C70	C	-0.115965	0.624039	0.000128
C71	C	-0.175361	0.623332	0.000116
C72	C	-0.212141	0.674907	0.000116
O73	O	-0.263312	0.578083	0.000125
O74	O	-0.289562	0.770214	0.000101
C75	C	0.178171	0.667592	0.000074
C76	C	0.241388	0.668358	0.000054
C77	C	0.069258	0.776489	0.000125
C78	C	0.070014	0.839708	0.000128
N79	N	0.074023	0.672328	0.356225
N80	N	0.074017	0.672355	-0.356012
C81	C	0.108379	0.706692	0.572023
C82	C	0.108383	0.706677	0.428140
C83	C	0.039661	0.637987	0.428200
C84	C	0.039659	0.637999	0.572081
C85	C	0.142737	0.741048	0.643931
C86	C	0.177100	0.775389	0.571965
C87	C	0.177105	0.775374	0.428082
C88	C	0.142746	0.741019	0.356165
H89	H	0.073353	0.118454	0.350768
H90	H	0.077964	0.499456	-0.225993
O91	O	-0.622757	0.561880	0.000041
H92	H	-0.595360	0.559719	0.093205
O93	O	-0.076286	0.568425	0.000125
H94	H	-0.084283	0.543393	-0.093045
H95	H	0.074661	0.226208	-0.350585
O96	O	-0.775668	0.776259	0.000084
H97	H	-0.767658	0.801301	-0.093068
O98	O	0.142733	0.741060	0.799118
H99	H	0.172399	0.770714	0.837033
O100	O	-0.746209	0.560402	0.000053
H101	H	-0.793693	0.568563	0.000060
H102	H	0.070083	-0.154777	0.226184
H103	H	0.071371	-0.047022	-0.225969
H104	H	0.076666	0.391695	0.226155
H105	H	0.077976	0.499441	0.226143
H106	H	0.011681	0.610037	0.630676
H107	H	0.205078	0.803355	0.630530
O108	O	-0.342428	0.513233	0.000006
H109	H	-0.315032	0.511069	0.093172
O110	O	0.002591	0.600938	0.350669
H111	H	-0.042989	0.613598	0.378332
H112	H	0.071387	-0.047011	0.226188
O113	O	0.069969	-0.162625	-0.258875
H114	H	0.070325	-0.131989	-0.345515
O115	O	-0.199751	0.566942	0.000107
H116	H	-0.226479	0.564126	0.093269
O117	O	-0.386063	0.832936	0.000117
H118	H	-0.359350	0.835755	0.093287
O119	O	-0.465884	0.511751	-0.000006
H120	H	-0.430320	0.476020	-0.000029
H121	H	0.074651	0.226203	0.350771
H122	H	-0.499782	0.817825	0.000106
H123	H	-0.111716	0.770461	0.000179
O124	O	0.214169	0.812406	0.350454
H125	H	0.238056	0.836298	0.424634
O126	O	0.142772	0.740977	0.200975
H127	H	0.172446	0.770618	0.163011
H128	H	-0.219466	0.769176	0.000132
H129	H	0.073365	0.118464	-0.350578
H130	H	-0.658183	0.763923	0.000092
O131	O	0.076553	0.383838	-0.258928
H132	H	0.076915	0.414475	-0.345564
