data_functionalizedCrystal
_audit_creation_method	'MofGen! by Chris Wilmer'
_symmetry_space_group_name_H-M	'P1'
_symmetry_Int_Tables_number	1
_symmetry_cell_setting	triclinic
loop_
_symmetry_equiv_pos_as_xyz
  x,y,z
_cell_length_a	14.971482
_cell_length_b	19.188924
_cell_length_c	14.048226
_cell_angle_alpha	89.991497
_cell_angle_beta	89.994098
_cell_angle_gamma	83.377286
loop_
_atom_site_label
_atom_site_type_symbol
_atom_site_fract_x
_atom_site_fract_y
_atom_site_fract_z
O1	O	1.186466	0.090976	-0.079153
O2	O	0.926007	0.101875	-0.079158
O3	O	1.063756	-0.005207	-0.079144
O4	O	1.048717	0.198057	-0.079167
O5	O	1.063739	-0.005213	0.079177
O6	O	0.925991	0.101868	0.079163
O7	O	1.186449	0.090969	0.079169
Zn8	Zn	1.056217	0.096418	0.104303
Zn9	Zn	1.056239	0.096426	-0.104292
O10	O	1.048700	0.198051	0.079155
C11	C	0.892677	0.101384	0.000002
C12	C	0.793387	0.099925	0.000001
C13	C	0.746737	0.099234	0.086303
C14	C	0.653446	0.097852	0.086304
C15	C	0.606806	0.097166	0.000002
C16	C	0.653463	0.097854	-0.086307
C17	C	0.746753	0.099232	-0.086307
C18	C	0.459016	0.094986	-0.086300
C19	C	0.365719	0.093610	-0.086300
C20	C	0.365709	0.093606	0.086311
C21	C	0.458999	0.094983	0.086310
C22	C	0.505650	0.095673	0.000001
C23	C	1.063262	-0.031223	0.000018
C24	C	1.061803	-0.108732	0.000020
C25	C	1.061131	-0.145130	-0.086281
C26	C	1.059747	-0.217957	-0.086288
C27	C	1.059054	-0.254385	0.000010
C28	C	1.059721	-0.217978	0.086323
C29	C	1.061095	-0.145152	0.086328
N30	N	1.107789	-0.373895	0.064242
N31	N	1.106486	-0.443077	0.064231
C32	C	1.054911	-0.473808	0.000001
N33	N	1.004700	-0.432743	-0.064232
N34	N	1.006008	-0.363555	-0.064225
C35	C	1.057563	-0.333354	0.000015
C36	C	1.052738	-0.589173	-0.086314
C37	C	1.051348	-0.662001	-0.086317
C38	C	1.051331	-0.662022	0.086296
C39	C	1.052711	-0.589194	0.086298
C40	C	1.053418	-0.552775	-0.000010
C41	C	1.219780	0.091460	0.000006
C42	C	1.319069	0.092919	0.000002
C43	C	1.049195	0.224067	-0.000009
C44	C	1.050653	0.301576	-0.000018
N45	N	1.056209	0.096412	0.246664
N46	N	1.056254	0.096427	-0.246653
C47	C	1.117223	0.049016	0.296488
C48	C	1.117229	0.049015	0.396145
C49	C	1.056225	0.096415	0.445977
C50	C	0.995204	0.143813	0.396146
C51	C	0.995194	0.143810	0.296490
C52	C	0.995230	0.143818	0.603860
C53	C	0.995240	0.143823	0.703523
C54	C	1.117265	0.049024	0.703516
C55	C	1.117255	0.049020	0.603860
C56	C	1.056235	0.096420	0.554035
H57	H	0.784704	0.099799	0.156580
H58	H	1.053265	-0.559560	0.156574
H59	H	0.945509	0.182403	0.255924
H60	H	0.615470	0.097278	0.156580
Cl61	Cl	1.058842	-0.263772	0.194813
H62	H	1.166948	0.010430	0.744088
Cl63	Cl	0.517631	0.095854	0.194806
H64	H	1.053308	-0.559518	-0.156591
Cl65	Cl	1.193952	-0.010563	0.541212
H66	H	1.061639	-0.115517	0.156607
H67	H	0.327722	0.093044	0.156587
H68	H	1.050797	-0.691634	-0.156597
H69	H	1.050759	-0.691680	0.156563
Cl70	Cl	0.307087	0.092745	-0.194796
Cl71	Cl	1.193933	-0.010570	0.458783
H72	H	0.496996	0.095548	-0.156582
Cl73	Cl	0.918507	0.203399	0.458789
Cl74	Cl	1.193924	-0.010573	0.233853
H75	H	0.945563	0.182420	0.744091
Cl76	Cl	0.918515	0.203406	0.541228
Cl77	Cl	0.594833	0.096966	-0.194801
H78	H	0.784734	0.099795	-0.156583
H79	H	1.061704	-0.115481	-0.156560
Cl80	Cl	1.058902	-0.263723	-0.194790
