data_functionalizedCrystal
_audit_creation_method	'MofGen! by Chris Wilmer'
_symmetry_space_group_name_H-M	'P1'
_symmetry_Int_Tables_number	1
_symmetry_cell_setting	triclinic
loop_
_symmetry_equiv_pos_as_xyz
  x,y,z
_cell_length_a	15.995350
_cell_length_b	16.992695
_cell_length_c	15.455313
_cell_angle_alpha	87.152573
_cell_angle_beta	92.677661
_cell_angle_gamma	87.080299
loop_
_atom_site_label
_atom_site_type_symbol
_atom_site_fract_x
_atom_site_fract_y
_atom_site_fract_z
O1	O	-1.121185	-0.097643	-0.072058
O2	O	-0.621185	0.402357	0.427942
O3	O	-0.878246	-0.110122	-0.072076
O4	O	-0.378246	0.389878	0.427924
O5	O	-0.998742	0.010260	-0.072060
O6	O	-0.498742	0.510260	0.427940
O7	O	-1.000690	-0.218025	-0.072073
O8	O	-0.500690	0.281975	0.427927
O9	O	-0.991849	0.003404	0.072201
O10	O	-0.491849	0.503404	0.572201
O11	O	-0.871354	-0.116978	0.072186
O12	O	-0.371354	0.383022	0.572186
O13	O	-1.114293	-0.104498	0.072204
O14	O	-0.614293	0.395502	0.572204
Cu15	Cu	-0.992194	-0.111364	0.085367
Cu16	Cu	-0.492194	0.388636	0.585367
Cu17	Cu	-1.000345	-0.103256	-0.085239
Cu18	Cu	-0.500345	0.396744	0.414761
O19	O	-0.993798	-0.224880	0.072188
O20	O	-0.493798	0.275120	0.572188
C21	C	-0.992790	0.036045	0.000071
C22	C	-0.492790	0.536045	0.500071
C23	C	-0.985313	0.123089	0.000070
C24	C	-0.485313	0.623089	0.500070
C25	C	-0.843571	-0.113034	0.000053
C26	C	-0.343571	0.386966	0.500053
C27	C	-0.750517	-0.111487	0.000046
C28	C	-0.250517	0.388513	0.500046
C29	C	-1.148968	-0.101586	0.000073
C30	C	-0.648968	0.398414	0.500073
C31	C	-1.242022	-0.103133	0.000074
C32	C	-0.742022	0.396867	0.500074
C33	C	-0.412397	-0.105933	0.000065
C34	C	0.087603	0.394067	0.500065
C35	C	-0.454079	-0.020213	0.000391
C36	C	0.045921	0.479787	0.500391
C37	C	-0.550888	-0.021745	0.000060
C38	C	-0.050888	0.478255	0.500060
C39	C	-0.580142	-0.108688	0.000056
C40	C	-0.080142	0.391312	0.500056
C41	C	-0.545821	-0.147060	-0.082323
C42	C	-0.045821	0.352940	0.417677
C43	C	-0.449044	-0.144903	-0.082386
C44	C	0.050956	0.355097	0.417614
C45	C	-0.440986	-0.154471	0.081666
C46	C	0.059014	0.345529	0.581666
C47	C	-0.537878	-0.154502	0.082748
C48	C	-0.037878	0.345498	0.582748
C49	C	-0.674945	-0.110249	0.000048
C50	C	-0.174945	0.389751	0.500048
C51	C	-0.317595	-0.104373	0.000066
C52	C	0.182405	0.395627	0.500066
C53	C	-0.999750	-0.250665	0.000056
C54	C	-0.499750	0.249335	0.500056
C55	C	-1.007226	-0.337709	0.000051
C56	C	-0.507226	0.162291	0.500051
N57	N	-0.986467	-0.117066	0.205362
N58	N	-0.486467	0.382934	0.705362
C59	C	-1.057449	0.173329	0.000076
C60	C	-0.557449	0.673329	0.500076
C61	C	-1.050419	0.255116	0.000067
C62	C	-0.550419	0.755116	0.500067
C63	C	-0.971254	0.286661	0.000058
C64	C	-0.471254	0.786661	0.500058
C65	C	-0.899114	0.236415	0.000050
C66	C	-0.399114	0.736415	0.500050
C67	C	-0.906144	0.154629	0.000052
C68	C	-0.406144	0.654629	0.500052
C69	C	-0.942116	0.530259	0.000044
C70	C	-0.442116	1.030259	0.500044
C71	C	-0.935091	0.612051	0.000044
C72	C	-0.435091	1.112051	0.500044
C73	C	-1.086398	0.630747	0.000060
C74	C	-0.586398	1.130747	0.500060
C75	C	-1.093421	0.548959	0.000068
C76	C	-0.593421	1.048959	0.500068
C77	C	-1.021281	0.498720	0.000055
C78	C	-0.521281	0.998720	0.500055
N79	N	-0.964067	0.370260	0.000052
N80	N	-0.464067	0.870260	0.500052
N81	N	-1.028469	0.415123	0.000055
N82	N	-0.528469	0.915123	0.500055
N83	N	-1.006078	-0.097548	-0.205234
N84	N	-0.506078	0.402452	0.294766
C85	C	-1.037678	-0.065942	0.250762
C86	C	-0.537678	0.434058	0.750762
C87	C	-1.033355	-0.070262	0.341570
C88	C	-0.533355	0.429738	0.841570
C89	C	-0.977825	-0.125709	0.386975
C90	C	-0.477825	0.374291	0.886975
C91	C	-0.926609	-0.176835	0.341567
C92	C	-0.426609	0.323165	0.841567
C93	C	-0.930928	-0.172511	0.250762
C94	C	-0.430928	0.327489	0.750762
C95	C	-0.959181	-0.144351	0.658554
C96	C	-0.459181	0.355649	1.158554
C97	C	-0.954867	-0.148672	0.749366
C98	C	-0.454867	0.351328	1.249366
C99	C	-1.061613	-0.042097	0.749362
C100	C	-0.561613	0.457903	1.249362
C101	C	-1.065931	-0.037781	0.658554
C102	C	-0.565931	0.462219	1.158554
C103	C	-1.014711	-0.088905	0.613155
C104	C	-0.514711	0.411095	1.113155
N105	N	-0.973407	-0.130127	0.479794
N106	N	-0.473407	0.369873	0.979794
N107	N	-1.019126	-0.084482	0.520337
N108	N	-0.519126	0.415518	1.020337
H109	H	-0.574272	0.008689	0.059113
H110	H	-0.074272	0.508689	0.559113
H111	H	-0.421186	-0.207670	-0.086128
H112	H	0.078814	0.292330	0.413872
H113	H	-1.157885	0.523282	0.000075
H114	H	-0.657885	1.023282	0.500075
H115	H	-1.145130	0.671660	0.000070
H116	H	-0.645130	1.171660	0.500070
H117	H	-0.883374	0.489364	0.000034
H118	H	-0.383374	0.989364	0.500034
H119	H	-1.103313	-0.000474	0.786334
H120	H	-0.603313	0.499526	1.286334
H121	H	-0.881390	-0.221979	0.378541
H122	H	-0.381390	0.278021	0.878541
H123	H	-0.889225	-0.214141	0.213797
H124	H	-0.389225	0.285859	0.713797
H125	H	-0.430441	0.011249	0.059469
H126	H	0.069559	0.511249	0.559469
H127	H	-0.909646	-0.193827	0.786330
H128	H	-0.409646	0.306173	1.286330
H129	H	-0.917477	-0.185979	0.621597
H130	H	-0.417477	0.314021	1.121597
H131	H	-1.121913	0.147652	0.000088
H132	H	-0.621913	0.647652	0.500088
H133	H	-0.847404	0.113724	0.000047
H134	H	-0.347404	0.613724	0.500047
H135	H	-0.870621	0.637730	0.000051
H136	H	-0.370621	1.137730	0.500051
H137	H	-0.834656	0.262105	0.000037
H138	H	-0.334656	0.762105	0.500037
H139	H	-0.435009	0.016691	-0.058356
H140	H	0.064991	0.516691	0.441644
H141	H	-1.109159	0.296019	0.000074
H142	H	-0.609159	0.796019	0.500074
H143	H	-0.564366	-0.210789	-0.085390
H144	H	-0.064366	0.289211	0.414610
H145	H	-1.082900	-0.020794	0.213800
H146	H	-0.582900	0.479206	0.713800
H147	H	-1.075055	-0.028632	0.378535
H148	H	-0.575055	0.471368	0.878535
H149	H	-1.111148	0.007368	0.621587
H150	H	-0.611148	0.507368	1.121587
H151	H	-0.575159	-0.114776	-0.143629
H152	H	-0.075159	0.385224	0.356371
H153	H	-0.431614	-0.111139	-0.143964
H154	H	0.068386	0.388861	0.356036
H155	H	-0.579333	0.014531	-0.059092
H156	H	-0.079333	0.514531	0.440908
H157	H	-0.413427	-0.217708	0.082220
H158	H	0.086573	0.282292	0.582220
H159	H	-0.560217	-0.126529	0.143692
H160	H	-0.060217	0.373471	0.643692
H161	H	-0.415591	-0.129409	0.144107
H162	H	0.084409	0.370591	0.644107
H163	H	-0.557248	-0.218140	0.087721
H164	H	-0.057248	0.281860	0.587721
