data_functionalizedCrystal
_audit_creation_method	'MofGen! by Chris Wilmer'
_symmetry_space_group_name_H-M	'P1'
_symmetry_Int_Tables_number	1
_symmetry_cell_setting	triclinic
loop_
_symmetry_equiv_pos_as_xyz
  x,y,z
_cell_length_a	19.805407
_cell_length_b	19.805405
_cell_length_c	19.805399
_cell_angle_alpha	90.029301
_cell_angle_beta	89.979591
_cell_angle_gamma	89.971650
loop_
_atom_site_label
_atom_site_type_symbol
_atom_site_fract_x
_atom_site_fract_y
_atom_site_fract_z
Zn1	Zn	1.034736	0.269444	-0.382727
Zn2	Zn	1.034651	0.382632	-0.269535
Zn3	Zn	0.921550	0.269466	-0.269550
Zn4	Zn	0.921514	0.382600	-0.382680
O5	O	0.978113	0.326036	-0.326123
O6	O	1.129441	0.284463	-0.367725
O7	O	1.019627	0.367643	-0.174820
O8	O	0.936616	0.174747	-0.284588
O9	O	1.129378	0.367622	-0.284564
O10	O	1.019772	0.174730	-0.367739
O11	O	0.936533	0.284501	-0.174831
O12	O	0.826829	0.284470	-0.284543
O13	O	0.936553	0.367567	-0.477403
O14	O	0.826802	0.367589	-0.367660
O15	O	1.019737	0.284431	-0.477437
O16	O	1.019592	0.477345	-0.284518
O17	O	0.936471	0.477321	-0.367646
C18	C	0.802257	0.326029	-0.326098
C19	C	0.727025	0.326042	-0.326104
C20	C	0.265270	0.282816	-0.369517
C21	C	0.335958	0.282817	-0.369513
C22	C	0.371263	0.326046	-0.326145
C23	C	0.335876	0.369281	-0.282784
C24	C	0.265188	0.369283	-0.282793
C25	C	0.620949	0.369276	-0.282748
C26	C	0.691641	0.369270	-0.282741
C27	C	0.691719	0.282810	-0.369468
C28	C	0.621031	0.282812	-0.369477
C29	C	0.585650	0.326049	-0.326119
C30	C	0.509002	0.326048	-0.326125
C31	C	0.447910	0.326044	-0.326134
C32	C	0.978036	0.501892	-0.326090
C33	C	0.978066	0.577124	-0.326099
C34	C	0.978151	0.325993	-0.502666
C35	C	0.978167	0.325975	-0.577898
C36	C	1.154655	0.326043	-0.326148
C37	C	1.229887	0.326046	-0.326158
C38	C	0.978207	0.149493	-0.326171
C39	C	0.978248	0.074261	-0.326191
C40	C	1.021389	0.612458	-0.282860
C41	C	1.021418	0.683146	-0.282875
C42	C	0.978119	0.718499	-0.326126
C43	C	0.934794	0.683160	-0.369370
C44	C	0.934769	0.612473	-0.369357
C45	C	0.934894	0.968233	-0.369420
C46	C	0.934921	1.038926	-0.369427
C47	C	1.021542	1.038906	-0.282937
C48	C	1.021518	0.968219	-0.282925
C49	C	0.978195	0.932886	-0.326171
C50	C	0.978166	0.856238	-0.326155
C51	C	0.978145	0.795146	-0.326139
C52	C	1.021481	0.282684	-0.613261
C53	C	1.021488	0.282664	-0.683949
C54	C	0.978184	0.325939	-0.719273
C55	C	0.934864	0.369232	-0.683905
C56	C	0.934854	0.369248	-0.613218
C57	C	0.934902	0.369169	-0.968979
C58	C	0.934917	0.369151	-1.039671
C59	C	1.021536	0.282586	-1.039710
C60	C	1.021527	0.282601	-0.969023
C61	C	0.978205	0.325891	-0.933661
C62	C	0.978197	0.325911	-0.857012
C63	C	0.978194	0.325923	-0.795921
C64	C	0.978114	0.326029	-0.150267
C65	C	0.978229	0.325857	-0.075035
H66	H	0.364626	0.404482	-0.247475
C67	C	0.226265	0.416836	-0.235099
H68	H	0.179110	0.410651	-0.241320
H69	H	0.237830	0.406874	-0.189638
H70	H	0.237834	0.462327	-0.244928
C71	C	1.069019	0.573575	-0.235284
H72	H	1.094829	0.604746	-0.209540
H73	H	1.043138	0.546041	-0.205762
H74	H	1.098487	0.545959	-0.261204
C75	C	1.069070	0.722011	-0.235308
H76	H	1.094846	0.690832	-0.209542
H77	H	1.098558	0.749543	-0.261229
H78	H	1.043199	0.749627	-0.205797
C79	C	0.730639	0.235256	-0.417169
H80	H	0.777795	0.241450	-0.410961
H81	H	0.719073	0.189766	-0.407348
H82	H	0.719068	0.245226	-0.462631
C83	C	1.069202	1.077771	-0.235369
H84	H	1.094979	1.046591	-0.209604
H85	H	1.098691	1.105303	-0.261290
H86	H	1.043333	1.105387	-0.205857
H87	H	0.720384	0.404475	-0.247424
C88	C	1.069148	0.929334	-0.235351
H89	H	1.094959	0.960503	-0.209606
H90	H	1.043267	0.901799	-0.205830
H91	H	1.098615	0.901719	-0.261274
H92	H	0.899663	1.067708	-0.404652
C93	C	0.887210	0.416867	-0.574316
H94	H	0.893401	0.410673	-0.527158
H95	H	0.897089	0.462343	-0.585887
H96	H	0.841738	0.406949	-0.585895
H97	H	0.592150	0.404481	-0.247441
H98	H	0.899618	0.939471	-0.404631
C99	C	1.069186	0.234962	-1.078610
H100	H	1.062987	0.241143	-1.125768
H101	H	1.114655	0.244875	-1.067032
H102	H	1.059301	0.189485	-1.067034
H103	H	0.899492	0.583705	-0.404568
C104	C	0.226440	0.235266	-0.417226
H105	H	0.257640	0.209525	-0.443053
H106	H	0.198865	0.205740	-0.391396
H107	H	0.198870	0.261204	-0.446675
C108	C	0.887166	0.722047	-0.416943
H109	H	0.893379	0.769206	-0.410753
H110	H	0.897037	0.710425	-0.462429
H111	H	0.841689	0.710505	-0.406986
C112	C	0.582200	0.235262	-0.417183
H113	H	0.613397	0.209520	-0.443011
H114	H	0.554624	0.205738	-0.391352
H115	H	0.554629	0.261201	-0.446632
H116	H	1.056747	0.247446	-0.584505
C117	C	1.069138	0.235048	-0.722846
H118	H	1.094933	0.209284	-0.691684
H119	H	1.043270	0.205546	-0.750424
H120	H	1.098619	0.260941	-0.750419
C121	C	1.069159	0.234997	-0.930170
H122	H	1.094953	0.209206	-0.961355
H123	H	1.098633	0.260893	-0.902591
H124	H	1.043272	0.205509	-0.902600
H125	H	0.899602	0.404465	-0.712672
H126	H	0.899650	0.404392	-1.068430
C127	C	0.887237	0.416772	-0.930090
H128	H	0.861449	0.442541	-0.961253
H129	H	0.857760	0.390870	-0.902526
H130	H	0.913094	0.446280	-0.902502
H131	H	0.364763	0.247616	-0.404822
