data_functionalizedCrystal
_audit_creation_method	'MofGen! by Chris Wilmer'
_symmetry_space_group_name_H-M	'P1'
_symmetry_Int_Tables_number	1
_symmetry_cell_setting	triclinic
loop_
_symmetry_equiv_pos_as_xyz
  x,y,z
_cell_length_a	10.967819
_cell_length_b	11.026607
_cell_length_c	10.065875
_cell_angle_alpha	100.718735
_cell_angle_beta	93.100497
_cell_angle_gamma	96.381100
loop_
_atom_site_label
_atom_site_type_symbol
_atom_site_fract_x
_atom_site_fract_y
_atom_site_fract_z
O1	O	1.631236	0.248000	0.497152
O2	O	2.131236	0.748000	0.997152
O3	O	1.281974	0.251519	0.415009
O4	O	1.781974	0.751519	0.915009
O5	O	1.427659	0.071796	0.449268
O6	O	1.927659	0.571796	0.949268
O7	O	1.485551	0.427722	0.462894
O8	O	1.985551	0.927722	0.962894
O9	O	1.455487	0.037450	0.228823
O10	O	1.955487	0.537450	0.728823
O11	O	1.309802	0.217172	0.194565
O12	O	1.809802	0.717172	0.694565
O13	O	1.659064	0.213653	0.276708
O14	O	2.159064	0.713653	0.776708
Zn15	Zn	1.488851	0.209959	0.200636
Zn16	Zn	1.988851	0.709959	0.700636
Zn17	Zn	1.452187	0.255212	0.491081
Zn18	Zn	1.952187	0.755212	0.991081
O19	O	1.513379	0.393376	0.242449
O20	O	2.013379	0.893376	0.742449
C21	C	1.250480	0.231493	0.294107
C22	C	1.750480	0.731493	0.794107
C23	C	1.115175	0.222979	0.262285
C24	C	1.615175	0.722979	0.762285
C25	C	1.430892	0.008929	0.336535
C26	C	1.930892	0.508929	0.836535
C27	C	1.399054	-0.127224	0.329052
C28	C	1.899054	0.372776	0.829052
C29	C	0.900596	0.228193	0.329431
C30	C	1.400596	0.728193	0.829431
C31	C	1.040441	0.236983	0.362312
C32	C	1.540441	0.736983	0.862312
C33	C	1.486964	-0.197053	0.349730
C34	C	1.986964	0.302947	0.849730
C35	C	1.454059	-0.337775	0.341996
C36	C	1.954059	0.162225	0.841996
C37	C	1.690558	0.233679	0.397612
C38	C	2.190558	0.733679	0.897612
C39	C	1.825861	0.242194	0.429444
C40	C	2.325861	0.742194	0.929444
C41	C	1.510145	0.456243	0.355184
C42	C	2.010145	0.956243	0.855184
C43	C	1.541982	0.592398	0.362676
C44	C	2.041982	1.092398	0.862676
N45	N	1.427163	0.286087	0.689302
N46	N	1.927163	0.786087	1.189302
N47	N	1.513882	0.179075	0.002416
N48	N	2.013882	0.679075	0.502416
C49	C	1.480154	0.220710	0.769542
C50	C	1.980154	0.720710	1.269542
C51	C	1.460884	0.244462	0.922178
C52	C	1.960884	0.744462	1.422178
H53	H	0.861049	0.209706	0.219463
H54	H	1.361049	0.709706	0.719463
H55	H	0.865410	0.260696	0.539412
H56	H	1.365410	0.760696	1.039412
C57	C	1.676580	-0.347638	0.394331
C58	C	2.176580	0.152362	0.894331
N59	N	1.777958	-0.302472	0.418171
N60	N	2.277958	0.197528	0.918171
H61	H	1.586588	-0.152657	0.373152
H62	H	2.086588	0.347343	0.873152
H63	H	1.367534	0.359649	0.733606
H64	H	1.867534	0.859649	1.233606
C65	C	1.264464	-0.187197	0.297396
C66	C	1.764464	0.312803	0.797396
N67	N	1.163088	-0.232367	0.273548
N68	N	1.663088	0.267633	0.773548
H69	H	1.079984	0.255485	0.472288
H70	H	1.579984	0.755485	0.972288
H71	H	1.354428	-0.382166	0.318573
H72	H	1.854428	0.117834	0.818573
H73	H	1.539794	0.147157	0.725243
H74	H	2.039794	0.647157	1.225243
C75	C	1.380314	0.343841	0.982018
C76	C	1.880314	0.843841	1.482018
N77	N	1.319629	0.418690	1.027091
N78	N	1.819629	0.918690	1.527091
H79	H	1.075635	0.204491	0.152309
H80	H	1.575635	0.704491	0.652309
C81	C	1.594452	0.079695	0.942580
C82	C	2.094452	0.579695	1.442580
N83	N	1.655133	0.004842	0.897509
N84	N	2.155133	0.504842	1.397509
