data_functionalizedCrystal
_audit_creation_method	'MofGen! by Chris Wilmer'
_symmetry_space_group_name_H-M	'P1'
_symmetry_Int_Tables_number	1
_symmetry_cell_setting	triclinic
loop_
_symmetry_equiv_pos_as_xyz
  x,y,z
_cell_length_a	21.295417
_cell_length_b	17.077404
_cell_length_c	17.077396
_cell_angle_alpha	90.019699
_cell_angle_beta	89.966808
_cell_angle_gamma	89.972425
loop_
_atom_site_label
_atom_site_type_symbol
_atom_site_fract_x
_atom_site_fract_y
_atom_site_fract_z
Zn1	Zn	-0.250658	-1.200013	-0.443821
Zn2	Zn	0.249342	-0.700013	0.056179
Zn3	Zn	-0.355931	-1.199903	-0.312544
Zn4	Zn	0.144069	-0.699903	0.187456
Zn5	Zn	-0.250675	-1.068745	-0.312569
Zn6	Zn	0.249325	-0.568745	0.187431
Zn7	Zn	-0.355888	-1.068695	-0.443767
Zn8	Zn	0.144112	-0.568695	0.056233
O9	O	-0.303288	-1.134339	-0.378175
O10	O	0.196712	-0.634339	0.121825
O11	O	-0.264634	-1.309845	-0.426419
O12	O	0.235366	-0.809845	0.073581
O13	O	-0.341994	-1.182479	-0.202701
O14	O	0.158006	-0.682479	0.297299
O15	O	-0.162583	-1.086225	-0.330012
O16	O	0.337417	-0.586225	0.169988
O17	O	-0.341978	-1.309764	-0.329971
O18	O	0.158022	-0.809764	0.170029
O19	O	-0.162571	-1.182667	-0.426443
O20	O	0.337429	-0.682667	0.073557
O21	O	-0.264662	-1.086118	-0.202718
O22	O	0.235338	-0.586118	0.297282
O23	O	-0.264620	-0.958891	-0.329960
O24	O	0.235380	-0.458891	0.170040
O25	O	-0.341904	-1.086140	-0.553622
O26	O	0.158096	-0.586140	-0.053622
O27	O	-0.341920	-0.958855	-0.426351
O28	O	0.158080	-0.458855	0.073649
O29	O	-0.264593	-1.182619	-0.553661
O30	O	0.235407	-0.682619	-0.053661
O31	O	-0.444015	-1.182431	-0.329919
O32	O	0.055985	-0.682431	0.170081
O33	O	-0.443983	-1.086033	-0.426328
O34	O	0.056017	-0.586033	0.073672
C35	C	-0.303268	-0.930391	-0.378153
C36	C	0.196732	-0.430391	0.121847
C37	C	-0.303274	-0.843141	-0.378162
C38	C	0.196726	-0.343141	0.121838
C39	C	-0.263073	-0.802194	-0.428458
C40	C	0.236927	-0.302194	0.071542
C41	C	-0.263076	-0.720214	-0.428460
C42	C	0.236924	-0.220214	0.071540
C43	C	-0.303284	-0.679182	-0.378169
C44	C	0.196716	-0.179182	0.121831
C45	C	-0.343487	-0.720135	-0.327867
C46	C	0.156513	-0.220135	0.172133
C47	C	-0.343481	-0.802114	-0.327862
C48	C	0.156519	-0.302114	0.172138
C49	C	-0.343500	-0.549265	-0.327882
C50	C	0.156500	-0.049265	0.172118
C51	C	-0.343507	-0.467280	-0.327888
C52	C	0.156493	0.032720	0.172112
C53	C	-0.263094	-0.467365	-0.428481
C54	C	0.236906	0.032635	0.071519
C55	C	-0.263088	-0.549344	-0.428476
C56	C	0.236912	-0.049344	0.071524
C57	C	-0.303292	-0.590291	-0.378175
C58	C	0.196708	-0.090291	0.121825
C59	C	-0.466840	-1.134236	-0.378132
C60	C	0.033160	-0.634236	0.121868
C61	C	-0.536808	-1.134264	-0.378140
C62	C	-0.036808	-0.634264	0.121860
C63	C	-0.569670	-1.184503	-0.327991
C64	C	-0.069670	-0.684503	0.172009
C65	C	-0.635413	-1.184539	-0.328008
C66	C	-0.135413	-0.684539	0.171992
C67	C	-0.668290	-1.134323	-0.378167
C68	C	-0.168290	-0.634323	0.121833
C69	C	-0.635420	-1.084081	-0.428325
C70	C	-0.135420	-0.584081	0.071675
C71	C	-0.569679	-1.084051	-0.428312
C72	C	-0.069679	-0.584051	0.071688
N73	N	-0.771553	-1.065655	-0.384143
N74	N	-0.271553	-0.565655	0.115857
N75	N	-0.834005	-1.065685	-0.384152
N76	N	-0.334005	-0.565685	0.115848
C77	C	-0.866365	-1.134411	-0.378212
C78	C	-0.366365	-0.634411	0.121788
N79	N	-0.833915	-1.203107	-0.372248
N80	N	-0.333915	-0.703107	0.127752
N81	N	-0.771458	-1.203076	-0.372235
N82	N	-0.271458	-0.703076	0.127765
C83	C	-0.739576	-1.134350	-0.378187
C84	C	-0.239576	-0.634350	0.121813
C85	C	-0.970513	-1.184694	-0.328079
C86	C	-0.470513	-0.684694	0.171921
C87	C	-1.036257	-1.184732	-0.328102
C88	C	-0.536257	-0.684732	0.171898
C89	C	-1.036263	-1.084267	-0.428415
C90	C	-0.536263	-0.584267	0.071585
C91	C	-0.970520	-1.084236	-0.428396
C92	C	-0.470520	-0.584236	0.071604
C93	C	-0.937649	-1.134448	-0.378224
C94	C	-0.437649	-0.634448	0.121776
C95	C	-0.139098	-1.134464	-0.378236
C96	C	0.360902	-0.634464	0.121764
C97	C	-0.069130	-1.134517	-0.378262
C98	C	0.430870	-0.634517	0.121738
C99	C	-0.303242	-1.134386	-0.582920
C100	C	0.196758	-0.634386	-0.082920
C101	C	-0.303222	-1.134407	-0.670170
C102	C	0.196778	-0.634407	-0.170170
C103	C	-0.303306	-0.339083	-0.378192
C104	C	0.196694	0.160917	0.121808
C105	C	-0.303306	-0.426333	-0.378185
C106	C	0.196694	0.073667	0.121815
C107	C	-0.262962	-1.184645	-0.711182
C108	C	0.237038	-0.684645	-0.211182
C109	C	-0.262941	-1.184654	-0.793162
C110	C	0.237059	-0.684654	-0.293162
C111	C	-0.303184	-1.134429	-0.834129
C112	C	0.196816	-0.634429	-0.334129
C113	C	-0.343445	-1.084185	-0.793111
C114	C	0.156555	-0.584185	-0.293111
C115	C	-0.343463	-1.084172	-0.711132
C116	C	0.156537	-0.584172	-0.211132
C117	C	-0.343407	-1.084217	-0.963982
C118	C	0.156593	-0.584217	-0.463982
C119	C	-0.343391	-1.084231	-1.045966
C120	C	0.156609	-0.584231	-0.545966
C121	C	-0.262886	-1.184699	-1.046011
C122	C	0.237114	-0.684699	-0.546011
C123	C	-0.262904	-1.184686	-0.964032
C124	C	0.237096	-0.684686	-0.464032
C125	C	-0.303166	-1.134443	-0.923020
C126	C	0.196834	-0.634443	-0.423020
C127	C	-0.303289	-1.134337	-0.174228
C128	C	0.196711	-0.634337	0.325772
C129	C	-0.303131	-1.134469	-0.086978
C130	C	0.196869	-0.634469	0.413022
H131	H	-0.230340	-0.686878	-0.469418
H132	H	0.269660	-0.186878	0.030582
C133	C	-0.387648	-1.028976	-1.091033
C134	C	0.112352	-0.528976	-0.591033
H135	H	-0.381873	-1.036186	-1.145730
H136	H	0.118127	-0.536186	-0.645730
H137	H	-0.378425	-0.976241	-1.077593
H138	H	0.121575	-0.476241	-0.577593
H139	H	-0.429952	-1.040423	-1.077587
H140	H	0.070048	-0.540423	-0.577587
H141	H	-1.063012	-1.225648	-0.287267
H142	H	-0.563012	-0.725648	0.212733
C143	C	-0.218697	-1.239893	-0.666121
C144	C	0.281303	-0.739893	-0.166121
H145	H	-0.224476	-1.232697	-0.611423
H146	H	0.275524	-0.732697	-0.111423
H147	H	-0.176398	-1.228440	-0.679571
H148	H	0.323602	-0.728440	-0.179571
H149	H	-0.227917	-1.292632	-0.679564
H150	H	0.272083	-0.792632	-0.179564
H151	H	-0.662174	-1.225453	-0.287171
H152	H	-0.162174	-0.725453	0.212829
H153	H	-0.230102	-1.225607	-1.079407
H154	H	0.269898	-0.725607	-0.579407
C155	C	-0.387747	-1.028912	-0.666016
C156	C	0.112253	-0.528912	-0.166016
H157	H	-0.381990	-1.036092	-0.611325
H158	H	0.118010	-0.536092	-0.111325
H159	H	-0.430042	-1.040366	-0.679434
H160	H	0.069958	-0.540366	-0.179434
H161	H	-0.378520	-0.976178	-0.679446
H162	H	0.121480	-0.476178	-0.179446
C163	C	-0.533513	-1.239716	-0.272789
C164	C	-0.033513	-0.739716	0.227211
H165	H	-0.489652	-1.232494	-0.279951
H166	H	0.010348	-0.732494	0.220049
H167	H	-0.544236	-1.292463	-0.284304
H168	H	-0.044236	-0.792463	0.215696
H169	H	-0.544335	-1.228235	-0.220044
H170	H	-0.044335	-0.728235	0.279956
C171	C	-0.671583	-1.028844	-0.483496
C172	C	-0.171583	-0.528844	0.016504
H173	H	-0.715443	-1.036051	-0.476316
H174	H	-0.215443	-0.536051	0.023684
H175	H	-0.660771	-1.040296	-0.536247
H176	H	-0.160771	-0.540296	-0.036247
H177	H	-0.660850	-0.976101	-0.471952
H178	H	-0.160850	-0.476101	0.028048
C179	C	-0.934370	-1.028963	-0.483550
C180	C	-0.434370	-0.528963	0.016450
H181	H	-0.963365	-0.999055	-0.513421
H182	H	-0.463365	-0.499055	-0.013421
H183	H	-0.908681	-1.058955	-0.517775
H184	H	-0.408681	-0.558955	-0.017775
H185	H	-0.908769	-0.994764	-0.453477
H186	H	-0.408769	-0.494764	0.046523
C187	C	-0.533529	-1.028782	-0.483473
C188	C	-0.033529	-0.528782	0.016527
H189	H	-0.562523	-0.998877	-0.513347
H190	H	-0.062523	-0.498877	-0.013347
H191	H	-0.507839	-1.058777	-0.517695
H192	H	-0.007839	-0.558777	-0.017695
H193	H	-0.507928	-0.994581	-0.453401
H194	H	-0.007928	-0.494581	0.046599
C195	C	-0.218659	-1.239920	-0.838272
C196	C	0.281341	-0.739920	-0.338272
H197	H	-0.194701	-1.269838	-0.802132
H198	H	0.305299	-0.769838	-0.302132
H199	H	-0.191218	-1.209923	-0.870257
H200	H	0.308782	-0.709923	-0.370257
H201	H	-0.242742	-1.274109	-0.870248
H202	H	0.257258	-0.774109	-0.370248
H203	H	-0.376209	-1.043288	-0.826473
H204	H	0.123791	-0.543288	-0.326473
H205	H	-1.063031	-1.043384	-0.469258
H206	H	-0.563031	-0.543384	0.030742
H207	H	-0.376184	-1.043291	-0.930592
H208	H	0.123816	-0.543291	-0.430592
H209	H	-0.230332	-0.835596	-0.469414
H210	H	0.269668	-0.335596	0.030586
H211	H	-0.943748	-1.225583	-0.287229
H212	H	-0.443748	-0.725583	0.212771
H213	H	-0.230350	-0.582750	-0.469432
H214	H	0.269650	-0.082750	0.030568
H215	H	-0.230138	-1.225588	-0.930679
H216	H	0.269862	-0.725588	-0.430679
H217	H	-0.376249	-0.433874	-0.286937
H218	H	0.123751	0.066126	0.213063
C219	C	-0.218869	-0.422326	-0.483809
C220	C	0.281131	0.077674	0.016191
H221	H	-0.224625	-0.367626	-0.476605
H222	H	0.275375	0.132374	0.023395
H223	H	-0.228137	-0.435778	-0.536528
H224	H	0.271863	0.064222	-0.036528
H225	H	-0.176558	-0.435779	-0.472417
H226	H	0.323442	0.064221	0.027583
H227	H	-0.376223	-0.686720	-0.286915
H228	H	0.123777	-0.186720	0.213085
C229	C	-0.387730	-0.594305	-0.272560
C230	C	0.112270	-0.094305	0.227440
H231	H	-0.411684	-0.558129	-0.242616
H232	H	0.088316	-0.058129	0.257384
H233	H	-0.363620	-0.626288	-0.238409
H234	H	0.136380	-0.126288	0.261591
H235	H	-0.415186	-0.626279	-0.302536
H236	H	0.084814	-0.126279	0.197464
H237	H	-0.376217	-0.835452	-0.286905
H238	H	0.123783	-0.335452	0.213095
