data_functionalizedCrystal
_audit_creation_method	'MofGen! by Chris Wilmer'
_symmetry_space_group_name_H-M	'P1'
_symmetry_Int_Tables_number	1
_symmetry_cell_setting	triclinic
loop_
_symmetry_equiv_pos_as_xyz
  x,y,z
_cell_length_a	15.711784
_cell_length_b	14.853567
_cell_length_c	13.930277
_cell_angle_alpha	90.000757
_cell_angle_beta	89.992329
_cell_angle_gamma	78.388134
loop_
_atom_site_label
_atom_site_type_symbol
_atom_site_fract_x
_atom_site_fract_y
_atom_site_fract_z
O1	O	1.147534	-0.494659	-0.079840
O2	O	1.647534	0.005341	0.420160
O3	O	0.895788	-0.425983	-0.079837
O4	O	1.395788	0.074017	0.420163
O5	O	1.028385	-0.331300	-0.079842
O6	O	1.528385	0.168700	0.420158
O7	O	1.014936	-0.589342	-0.079836
O8	O	1.514936	-0.089342	0.420164
O9	O	1.028367	-0.331291	0.079820
O10	O	1.528367	0.168709	0.579820
O11	O	0.895769	-0.425974	0.079824
O12	O	1.395769	0.074026	0.579824
O13	O	1.147515	-0.494650	0.079821
O14	O	1.647515	0.005350	0.579821
Zn15	Zn	1.021639	-0.460311	0.105173
Zn16	Zn	1.521639	0.039689	0.605173
Zn17	Zn	1.021664	-0.460322	-0.105189
Zn18	Zn	1.521664	0.039678	0.394811
O19	O	1.014918	-0.589333	0.079826
O20	O	1.514918	-0.089333	0.579826
C21	C	0.863561	-0.414760	-0.000006
C22	C	1.363561	0.085240	0.499994
C23	C	0.767562	-0.381322	-0.000006
C24	C	1.267562	0.118678	0.499994
C25	C	0.642463	-0.255437	-0.000008
C26	C	1.142463	0.244563	0.499992
C27	C	0.732667	-0.286867	-0.000008
C28	C	1.232667	0.213133	0.499992
C29	C	0.712260	-0.444384	-0.000008
C30	C	1.212260	0.055616	0.499992
C31	C	0.622052	-0.412968	-0.000012
C32	C	1.122052	0.087032	0.499988
C33	C	0.587161	-0.318493	-0.000011
C34	C	1.087161	0.181507	0.499989
C35	C	0.566750	-0.476024	-0.000016
C36	C	1.066750	0.023976	0.499984
C37	C	0.476551	-0.444609	-0.000015
C38	C	0.976551	0.055391	0.499985
C39	C	0.441653	-0.350139	-0.000011
C40	C	0.941653	0.149861	0.499989
C41	C	0.496962	-0.287079	-0.000010
C42	C	0.996962	0.212921	0.499990
C43	C	0.601643	-0.570498	-0.000010
C44	C	1.101643	-0.070498	0.499990
C45	C	0.546341	-0.633554	-0.000014
C46	C	1.046341	-0.133554	0.499986
C47	C	0.456140	-0.602140	-0.000020
C48	C	0.956140	-0.102140	0.499980
C49	C	0.421242	-0.507669	-0.000016
C50	C	0.921242	-0.007669	0.499984
C51	C	0.400831	-0.665200	-0.000021
C52	C	0.900831	-0.165200	0.499979
C53	C	0.310631	-0.633785	-0.000020
C54	C	0.810631	-0.133785	0.499980
C55	C	0.331042	-0.476255	-0.000015
C56	C	0.831042	0.023745	0.499985
C57	C	1.027767	-0.297507	-0.000014
C58	C	1.527767	0.202493	0.499986
C59	C	1.025940	-0.196823	-0.000022
C60	C	1.525940	0.303177	0.499978
C61	C	1.179742	-0.505873	-0.000012
C62	C	1.679742	-0.005873	0.499988
C63	C	1.275740	-0.539311	-0.000019
C64	C	1.775740	-0.039311	0.499981
C65	C	1.015536	-0.623126	-0.000004
C66	C	1.515536	-0.123126	0.499996
C67	C	1.017362	-0.723810	-0.000002
C68	C	1.517362	-0.223810	0.499998
N69	N	1.021629	-0.460304	0.248739
N70	N	1.521629	0.039696	0.748739
C71	C	0.939455	0.244120	-0.000003
C72	C	1.439455	0.744120	0.499997
C73	C	1.096984	0.213654	-0.000005
C74	C	1.596984	0.713654	0.499995
C75	C	1.098701	0.119057	-0.000010
C76	C	1.598701	0.619057	0.499990
C77	C	1.020794	0.086987	-0.000011
C78	C	1.520794	0.586987	0.499989
C79	C	0.941170	0.149514	-0.000006
C80	C	1.441170	0.649514	0.499994
C81	C	1.178324	0.056522	-0.000006
C82	C	1.678324	0.556522	0.499994
C83	C	1.180044	-0.038082	-0.000011
C84	C	1.680044	0.461918	0.499989
C85	C	1.102136	-0.070154	-0.000018
C86	C	1.602136	0.429846	0.499982
C87	C	1.022509	-0.007620	-0.000014
C88	C	1.522509	0.492380	0.499986
C89	C	0.944602	-0.039690	-0.000014
C90	C	1.444602	0.460310	0.499986
C91	C	0.864973	0.022843	-0.000017
C92	C	1.364973	0.522843	0.499983
C93	C	0.863262	0.117443	-0.000013
C94	C	1.363262	0.617443	0.499987
C95	C	1.103848	-0.164753	-0.000022
C96	C	1.603848	0.335247	0.499978
C97	C	0.946316	-0.134296	-0.000017
C98	C	1.446316	0.365704	0.499983
N99	N	1.021681	-0.460324	-0.248755
N100	N	1.521681	0.039676	0.251245
C101	C	0.962947	-0.502223	0.701010
C102	C	1.462947	-0.002223	1.201010
C103	C	1.080404	-0.418422	0.700975
C104	C	1.580404	0.081578	1.200975
C105	C	1.080394	-0.418416	0.600480
C106	C	1.580394	0.081584	1.100480
C107	C	1.021660	-0.460315	0.550244
C108	C	1.521660	0.039685	1.050244
C109	C	0.962937	-0.502221	0.600505
C110	C	1.462937	-0.002221	1.100505
C111	C	1.139122	-0.376519	0.550212
C112	C	1.639122	0.123481	1.050212
C113	C	1.139114	-0.376512	0.449710
C114	C	1.639114	0.123488	0.949710
C115	C	1.080376	-0.418407	0.399473
C116	C	1.580376	0.081593	0.899473
C117	C	1.021650	-0.460313	0.449739
C118	C	1.521650	0.039687	0.949739
C119	C	0.962916	-0.502212	0.399504
C120	C	1.462916	-0.002212	0.899504
C121	C	0.904185	-0.544113	0.449769
C122	C	1.404185	-0.044113	0.949769
C123	C	0.904198	-0.544115	0.550268
C124	C	1.404198	-0.044115	1.050268
C125	C	1.080363	-0.418405	0.298974
C126	C	1.580363	0.081595	0.798974
C127	C	0.962906	-0.502209	0.298999
C128	C	1.462906	-0.002209	0.798999
H129	H	0.675090	-0.596073	-0.000007
H130	H	1.175090	-0.096073	0.499993
H131	H	1.244882	-0.088989	-0.000010
H132	H	1.744882	0.411011	0.499990
H133	H	0.614054	-0.178507	-0.000017
H134	H	1.114054	0.321493	0.499983
Br135	Br	1.211905	-0.249614	0.000005
Br136	Br	1.711905	0.250386	0.500005
H137	H	1.128227	-0.384315	0.741880
H138	H	1.628227	0.115685	1.241880
H139	H	1.186945	-0.342412	0.591116
H140	H	1.686945	0.157588	1.091116
Br141	Br	0.883184	-0.559066	0.230830
Br142	Br	1.383184	-0.059066	0.730830
Br143	Br	1.218816	-0.319647	0.381499
Br144	Br	1.718816	0.180353	0.881499
Br145	Br	0.283682	-0.348038	-0.000014
Br146	Br	0.783682	0.151962	0.499986
H147	H	0.856382	-0.578230	0.591200
H148	H	1.356382	-0.078230	1.091200
H149	H	0.882874	-0.160398	-0.000021
H150	H	1.382874	0.339602	0.499979
H151	H	1.128184	-0.384295	0.258053
H152	H	1.628184	0.115705	0.758053
Br153	Br	0.593701	-0.761765	-0.000015
Br154	Br	1.093701	-0.261765	0.499985
Br155	Br	0.824486	-0.600986	0.381582
Br156	Br	1.324486	-0.100986	0.881582
Br157	Br	1.284048	0.100050	0.000021
Br158	Br	1.784048	0.600050	0.500021
H159	H	1.160413	0.239772	0.000003
H160	H	1.660413	0.739772	0.500003
Br161	Br	0.448193	-0.793411	-0.000008
Br162	Br	0.948193	-0.293411	0.499992
H163	H	0.798433	0.168364	-0.000014
H164	H	1.298433	0.668364	0.499986
Br165	Br	0.883238	-0.559080	0.769219
Br166	Br	1.383238	-0.059080	1.269219
H167	H	0.468552	-0.210149	-0.000020
H168	H	0.968552	0.289851	0.499980
Br169	Br	0.807719	-0.201280	0.000001
Br170	Br	1.307719	0.298720	0.500001
H171	H	0.368206	-0.324563	-0.000002
H172	H	0.868206	0.175437	0.499998
H173	H	0.740680	-0.521306	-0.000006
H174	H	1.240680	-0.021306	0.499994
H175	H	0.801542	-0.003281	-0.000010
H176	H	1.301542	0.496719	0.499990
Br177	Br	0.235573	-0.719361	-0.000012
Br178	Br	0.735573	-0.219361	0.499988
H179	H	0.874624	0.295038	-0.000009
H180	H	1.374624	0.795038	0.499991
