data_functionalizedCrystal
_audit_creation_method	'MofGen! by Chris Wilmer'
_symmetry_space_group_name_H-M	'P1'
_symmetry_Int_Tables_number	1
_symmetry_cell_setting	triclinic
loop_
_symmetry_equiv_pos_as_xyz
  x,y,z
_cell_length_a	18.215407
_cell_length_b	25.639239
_cell_length_c	18.215387
_cell_angle_alpha	89.908932
_cell_angle_beta	89.939256
_cell_angle_gamma	90.039134
loop_
_atom_site_label
_atom_site_type_symbol
_atom_site_fract_x
_atom_site_fract_y
_atom_site_fract_z
Zn1	Zn	1.125299	-0.207835	-0.416106
Zn2	Zn	1.458632	0.125498	-0.082773
Zn3	Zn	1.791965	0.458832	0.250561
Zn4	Zn	1.125090	-0.295364	-0.293035
Zn5	Zn	1.458423	0.037969	0.040298
Zn6	Zn	1.791756	0.371303	0.373632
Zn7	Zn	1.002143	-0.207945	-0.293053
Zn8	Zn	1.335477	0.125388	0.040280
Zn9	Zn	1.668810	0.458722	0.373613
Zn10	Zn	1.002168	-0.295242	-0.416060
Zn11	Zn	1.335501	0.038092	-0.082727
Zn12	Zn	1.668834	0.371425	0.250606
O13	O	1.063675	-0.251596	-0.354564
O14	O	1.397008	0.081737	-0.021230
O15	O	1.730342	0.415070	0.312103
O16	O	1.228255	-0.219451	-0.399792
O17	O	1.561589	0.113883	-0.066459
O18	O	1.894922	0.447216	0.266875
O19	O	1.108683	-0.283865	-0.190053
O20	O	1.442016	0.049468	0.143280
O21	O	1.775350	0.382802	0.476614
O22	O	1.018558	-0.134765	-0.309403
O23	O	1.351891	0.198568	0.023930
O24	O	1.685224	0.531901	0.357263
O25	O	1.228102	-0.283758	-0.309372
O26	O	1.561435	0.049575	0.023961
O27	O	1.894768	0.382909	0.357294
O28	O	1.109039	-0.134684	-0.399810
O29	O	1.442373	0.198649	-0.066476
O30	O	1.775706	0.531982	0.266857
O31	O	1.018355	-0.219639	-0.190066
O32	O	1.351688	0.113695	0.143267
O33	O	1.685021	0.447028	0.476600
O34	O	0.899162	-0.219520	-0.309359
O35	O	1.232496	0.113813	0.023975
O36	O	1.565829	0.447146	0.357308
O37	O	1.018599	-0.283550	-0.519051
O38	O	1.351932	0.049784	-0.185718
O39	O	1.685266	0.383117	0.147616
O40	O	0.899180	-0.283657	-0.399731
O41	O	1.232513	0.049677	-0.066398
O42	O	1.565847	0.383010	0.266935
O43	O	1.109063	-0.219332	-0.519085
O44	O	1.442396	0.114001	-0.185751
O45	O	1.775730	0.447334	0.147582
O46	O	1.108706	-0.368513	-0.309328
O47	O	1.442040	-0.035180	0.024006
O48	O	1.775373	0.298154	0.357339
O49	O	1.018396	-0.368423	-0.399714
O50	O	1.351729	-0.035090	-0.066381
O51	O	1.685063	0.298243	0.266953
C52	C	0.872469	-0.251588	-0.354543
C53	C	1.205802	0.081746	-0.021209
C54	C	1.539135	0.415079	0.312124
C55	C	0.790670	-0.251596	-0.354551
C56	C	1.124003	0.081737	-0.021218
C57	C	1.457336	0.415070	0.312116
C58	C	0.602504	-0.285045	-0.401549
C59	C	0.935838	0.048289	-0.068216
C60	C	1.269171	0.381622	0.265118
C61	C	0.525645	-0.285046	-0.401558
C62	C	0.858979	0.048287	-0.068225
C63	C	1.192312	0.381620	0.265108
C64	C	0.525598	-0.218158	-0.307594
C65	C	0.858931	0.115176	0.025739
C66	C	1.192264	0.448509	0.359072
C67	C	0.602455	-0.218154	-0.307589
C68	C	0.935788	0.115180	0.025744
C69	C	1.269122	0.448513	0.359077
C70	C	0.640906	-0.251600	-0.354566
C71	C	0.974240	0.081733	-0.021232
C72	C	1.307573	0.415066	0.312101
C73	C	0.487190	-0.251606	-0.354580
C74	C	0.820523	0.081728	-0.021246
C75	C	1.153857	0.415061	0.312087
C76	C	0.403856	-0.251607	-0.354589
C77	C	0.737190	0.081726	-0.021256
C78	C	1.070523	0.415059	0.312077
C79	C	0.724245	-0.251598	-0.354557
C80	C	1.057578	0.081735	-0.021224
C81	C	1.390912	0.415068	0.312109
C82	C	1.063551	-0.387439	-0.354530
C83	C	1.396884	-0.054106	-0.021197
C84	C	1.730218	0.279228	0.312137
C85	C	1.063565	-0.445553	-0.354540
C86	C	1.396899	-0.112220	-0.021207
C87	C	1.730232	0.221114	0.312127
C88	C	1.110822	-0.805950	-0.307580
C89	C	1.444156	-0.472617	0.025754
C90	C	1.777489	-0.139284	0.359087
C91	C	1.110851	-0.860555	-0.307590
C92	C	1.444184	-0.527221	0.025744
C93	C	1.777517	-0.193888	0.359077
O94	O	1.150902	-0.888820	-0.267625
O95	O	1.484235	-0.555487	0.065708
O96	O	1.817568	-0.222154	0.399041
N97	N	1.063804	-0.887835	-0.354612
N98	N	1.397138	-0.554502	-0.021279
N99	N	1.730471	-0.221169	0.312054
C100	C	1.016731	-0.860509	-0.401634
C101	C	1.350065	-0.527176	-0.068300
C102	C	1.683398	-0.193843	0.265033
O103	O	0.976718	-0.888728	-0.441632
O104	O	1.310051	-0.555394	-0.108298
O105	O	1.643384	-0.222061	0.225035
C106	C	1.016707	-0.805906	-0.401627
C107	C	1.350040	-0.472573	-0.068294
C108	C	1.683374	-0.139239	0.265040
C109	C	1.063751	-0.778628	-0.354596
C110	C	1.397085	-0.445295	-0.021263
C111	C	1.730418	-0.111961	0.312071
C112	C	1.157863	-0.778672	-0.260553
C113	C	1.491197	-0.445339	0.072780
C114	C	1.824530	-0.112005	0.406114
C115	C	1.157834	-0.724072	-0.260543
C116	C	1.491167	-0.390738	0.072791
C117	C	1.824500	-0.057405	0.406124
C118	C	1.110763	-0.696749	-0.307559
C119	C	1.444096	-0.363416	0.025775
C120	C	1.777430	-0.030083	0.359108
C121	C	1.063722	-0.724027	-0.354585
C122	C	1.397055	-0.390694	-0.021252
C123	C	1.730388	-0.057361	0.312081
C124	C	0.969638	-0.778581	-0.448651
C125	C	1.302972	-0.445247	-0.115318
C126	C	1.636305	-0.111914	0.218015
C127	C	0.969619	-0.723974	-0.448641
C128	C	1.302952	-0.390640	-0.115308
C129	C	1.636285	-0.057307	0.218026
C130	C	1.016663	-0.696696	-0.401610
C131	C	1.349996	-0.363362	-0.068277
C132	C	1.683330	-0.030029	0.265057
C133	C	1.016621	-0.642104	-0.401591
C134	C	1.349955	-0.308771	-0.068257
C135	C	1.683288	0.024562	0.265076
N136	N	1.063668	-0.614824	-0.354568
N137	N	1.397001	-0.281490	-0.021235
N138	N	1.730334	0.051843	0.312099
C139	C	1.110739	-0.642146	-0.307552
C140	C	1.444072	-0.308813	0.025781
C141	C	1.777405	0.024521	0.359115
C142	C	1.016787	-0.975180	-0.401645
C143	C	1.350120	-0.641847	-0.068312
C144	C	1.683453	-0.308513	0.265022
C145	C	1.016807	-1.029782	-0.401649
C146	C	1.350140	-0.696449	-0.068315
C147	C	1.683473	-0.363115	0.265018
C148	C	1.110927	-1.029824	-0.307605
C149	C	1.444261	-0.696490	0.025728
C150	C	1.777594	-0.363157	0.359061
C151	C	1.110903	-0.975220	-0.307599
C152	C	1.444236	-0.641887	0.025735
C153	C	1.777570	-0.308554	0.359068
C154	C	1.063833	-0.947899	-0.354622
C155	C	1.397167	-0.614566	-0.021289
C156	C	1.730500	-0.281232	0.312044
C157	C	1.110672	-0.527481	-0.307533
C158	C	1.444006	-0.194148	0.025801
C159	C	1.777339	0.139186	0.359134
C160	C	1.110636	-0.472875	-0.307524
C161	C	1.443970	-0.139542	0.025809
C162	C	1.777303	0.193791	0.359143
C163	C	1.016519	-0.472839	-0.401570
C164	C	1.349852	-0.139505	-0.068236
C165	C	1.683185	0.193828	0.265097
C166	C	1.016552	-0.527439	-0.401576
C167	C	1.349885	-0.194106	-0.068243
C168	C	1.683218	0.139227	0.265091
C169	C	1.063634	-0.554759	-0.354555
C170	C	1.396968	-0.221426	-0.021222
C171	C	1.730301	0.111908	0.312112
O172	O	0.976593	-0.613804	-0.441537
O173	O	1.309926	-0.280471	-0.108203
O174	O	1.643259	0.052863	0.225130
O175	O	1.150752	-0.613921	-0.267568
O176	O	1.484086	-0.280587	0.065766
O177	O	1.817419	0.052746	0.399099
C178	C	1.255628	-0.251606	-0.354585
C179	C	1.588961	0.081728	-0.021252
C180	C	1.922294	0.415061	0.312081
C181	C	1.337427	-0.251610	-0.354594
C182	C	1.670760	0.081724	-0.021261
C183	C	2.004093	0.415057	0.312072
C184	C	1.063857	-0.251415	-0.546517
C185	C	1.397190	0.081918	-0.213184
C186	C	1.730524	0.415252	0.120150
C187	C	1.063934	-0.251338	-0.628316
C188	C	1.397268	0.081996	-0.294983
C189	C	1.730601	0.415329	0.038350
C190	C	1.063819	-0.115223	-0.354614
C191	C	1.397153	0.218110	-0.021280
C192	C	1.730486	0.551443	0.312053
C193	C	1.063881	-0.057109	-0.354635
C194	C	1.397214	0.276224	-0.021302
C195	C	1.730547	0.609557	0.312032
C196	C	1.063536	-0.251739	-0.163357
C197	C	1.396869	0.081594	0.169976
C198	C	1.730203	0.414927	0.503310
C199	C	1.063601	-0.251669	-0.081558
C200	C	1.396934	0.081664	0.251775
C201	C	1.730268	0.414997	0.585108
C202	C	1.016430	-0.218278	0.183457
C203	C	1.349764	0.115055	0.516791
C204	C	1.683097	0.448389	0.850124
C205	C	1.016372	-0.218335	0.106599
C206	C	1.349705	0.114999	0.439932
C207	C	1.683039	0.448332	0.773265
C208	C	1.111107	-0.284733	0.106674
C209	C	1.444440	0.048600	0.440007
C210	C	1.777774	0.381934	0.773340
C211	C	1.111161	-0.284678	0.183531
C212	C	1.444495	0.048655	0.516864
C213	C	1.777828	0.381988	0.850198
C214	C	1.063824	-0.251448	0.221921
C215	C	1.397157	0.081885	0.555254
C216	C	1.730491	0.415219	0.888587
C217	C	1.063711	-0.251559	0.068205
C218	C	1.397045	0.081774	0.401538
C219	C	1.730378	0.415107	0.734872
C220	C	1.063649	-0.251621	-0.015129
C221	C	1.396982	0.081712	0.318205
C222	C	1.730315	0.415045	0.651538
C223	C	1.063886	-0.251386	0.305259
C224	C	1.397219	0.081947	0.638593
C225	C	1.730552	0.415280	0.971926
H226	H	0.494382	-0.312280	-0.439818
H227	H	0.827715	0.021054	-0.106484
H228	H	1.161049	0.354387	0.226849
H229	H	0.633723	-0.190916	-0.269330
H230	H	0.967056	0.142417	0.064003
H231	H	1.300389	0.475751	0.397337
C232	C	1.162657	-0.945220	-0.255864
C233	C	1.495991	-0.611886	0.077470
C234	C	1.829324	-0.278553	0.410803
N235	N	1.201642	-0.922626	-0.216896
N236	N	1.534975	-0.589292	0.116438
N237	N	1.868309	-0.255959	0.449771
H238	H	0.494281	-0.190927	-0.269347
H239	H	0.827614	0.142406	0.063986
H240	H	1.160948	0.475739	0.397320
H241	H	0.977779	-0.191325	0.075285
H242	H	1.311112	0.142008	0.408618
H243	H	1.644446	0.475342	0.741952
H244	H	0.633809	-0.312278	-0.439802
H245	H	0.967142	0.021056	-0.106469
H246	H	1.300476	0.354389	0.226865
H247	H	1.149648	-0.311788	0.075407
H248	H	1.482981	0.021546	0.408741
H249	H	1.816315	0.354879	0.742074
C250	C	0.964746	-0.442774	-0.453288
C251	C	1.298079	-0.109440	-0.119954
C252	C	1.631413	0.223893	0.213379
N253	N	0.925755	-0.420127	-0.492247
N254	N	1.259089	-0.086794	-0.158913
N255	N	1.592422	0.246540	0.174420
C256	C	0.965047	-1.059782	-0.453379
C257	C	1.298381	-0.726449	-0.120046
C258	C	1.631714	-0.393115	0.213287
N259	N	0.926063	-1.082376	-0.492348
N260	N	1.259396	-0.749043	-0.159015
N261	N	1.592730	-0.415709	0.174319
H262	H	0.977885	-0.191219	0.214712
H263	H	1.311219	0.142114	0.548045
H264	H	1.644552	0.475447	0.881379
C265	C	1.162387	-0.442873	-0.255780
C266	C	1.495721	-0.109540	0.077553
C267	C	1.829054	0.223794	0.410886
N268	N	1.201365	-0.420277	-0.216808
N269	N	1.534698	-0.086943	0.116526
N270	N	1.868031	0.246390	0.449859
C271	C	1.162461	-0.557525	-0.255803
C272	C	1.495795	-0.224191	0.077531
C273	C	1.829128	0.109142	0.410864
N274	N	1.201465	-0.580153	-0.216836
N275	N	1.534798	-0.246820	0.116498
N276	N	1.868131	0.086513	0.449831
C277	C	1.163314	-0.321160	0.225843
C278	C	1.496647	0.012173	0.559176
C279	C	1.829980	0.345506	0.892510
N280	N	1.202597	-0.348635	0.257713
N281	N	1.535930	-0.015301	0.591046
N282	N	1.869264	0.318032	0.924379
C283	C	1.209646	-0.808718	-0.208823
C284	C	1.542979	-0.475385	0.124510
C285	C	1.876312	-0.142051	0.457844
N286	N	1.248647	-0.831345	-0.169851
N287	N	1.581980	-0.498012	0.163482
N288	N	1.915313	-0.164679	0.496815
C289	C	1.209581	-0.694073	-0.208798
C290	C	1.542914	-0.360739	0.124535
C291	C	1.876247	-0.027406	0.457869
N292	N	1.248558	-0.671481	-0.169820
N293	N	1.581891	-0.338148	0.163514
N294	N	1.915224	-0.004814	0.496847
H295	H	1.149258	-1.052079	-0.269325
H296	H	1.482591	-0.718746	0.064009
H297	H	1.815924	-0.385413	0.397342
C298	C	0.965006	-0.945131	-0.453381
C299	C	1.298339	-0.611798	-0.120048
C300	C	1.631673	-0.278464	0.213285
N301	N	0.926009	-0.922501	-0.492353
N302	N	1.259342	-0.589168	-0.159020
N303	N	1.592675	-0.255834	0.174314
C304	C	0.917887	-0.808574	-0.500393
C305	C	1.251220	-0.475241	-0.167059
C306	C	1.584554	-0.141908	0.166274
N307	N	0.878906	-0.831165	-0.539368
N308	N	1.212239	-0.497831	-0.206035
N309	N	1.545573	-0.164498	0.127298
C310	C	0.917837	-0.693924	-0.500373
C311	C	1.251170	-0.360590	-0.167039
C312	C	1.584504	-0.027257	0.166294
N313	N	0.878834	-0.671291	-0.539335
N314	N	1.212167	-0.337958	-0.206002
N315	N	1.545501	-0.004624	0.127331
H316	H	0.978247	-0.549650	-0.439875
H317	H	1.311580	-0.216317	-0.106541
H318	H	1.644913	0.117016	0.226792
