data_functionalizedCrystal
_audit_creation_method	'MofGen! by Chris Wilmer'
_symmetry_space_group_name_H-M	'P1'
_symmetry_Int_Tables_number	1
_symmetry_cell_setting	triclinic
loop_
_symmetry_equiv_pos_as_xyz
  x,y,z
_cell_length_a	14.044220
_cell_length_b	23.532407
_cell_length_c	12.503572
_cell_angle_alpha	93.496478
_cell_angle_beta	86.164750
_cell_angle_gamma	88.018778
loop_
_atom_site_label
_atom_site_type_symbol
_atom_site_fract_x
_atom_site_fract_y
_atom_site_fract_z
O1	O	1.261903	0.134222	-0.089227
O2	O	0.985982	0.129269	-0.089253
O3	O	1.132262	0.049265	-0.089219
O4	O	1.115623	0.214225	-0.089260
O5	O	1.121261	0.055293	0.089420
O6	O	0.974981	0.135296	0.089386
O7	O	1.250902	0.140249	0.089413
Cu8	Cu	1.111937	0.138323	0.105711
Cu9	Cu	1.124947	0.131195	-0.105551
O10	O	1.104622	0.220253	0.089379
C11	C	0.945188	0.130115	0.000063
C12	C	0.840023	0.123648	0.000054
C13	C	0.647472	0.111828	0.000078
C14	C	0.589407	0.157687	0.000072
C15	C	0.482265	0.151110	0.000085
C16	C	0.754624	0.118404	0.000065
C17	C	1.126337	0.031040	0.000103
C18	C	1.125063	-0.032246	0.000111
C19	C	1.203641	-0.427092	0.000060
C20	C	1.202458	-0.486556	0.000051
O21	O	1.275300	-0.519354	0.000019
N22	N	1.115494	-0.513896	0.000044
C23	C	1.029708	-0.481769	0.000034
O24	O	0.955630	-0.510484	0.000026
C25	C	1.030893	-0.422305	0.000034
C26	C	1.117862	-0.394968	0.000053
C27	C	1.290603	-0.399754	0.000077
C28	C	1.291786	-0.340294	0.000087
C29	C	1.206006	-0.308170	0.000080
C30	C	1.119044	-0.335508	0.000063
C31	C	0.945109	-0.390179	0.000016
C32	C	0.946301	-0.330712	0.000016
C33	C	1.033270	-0.303375	0.000035
C34	C	1.034447	-0.243924	0.000066
N35	N	1.121411	-0.216584	0.000074
C36	C	1.207191	-0.248707	0.000081
C37	C	1.027228	-0.606646	0.000031
C38	C	1.026042	-0.666108	0.000038
C39	C	1.198792	-0.670891	0.000053
C40	C	1.199976	-0.611428	0.000054
C41	C	1.114192	-0.579306	0.000038
C42	C	1.209668	-0.123835	0.000103
C43	C	1.210842	-0.064369	0.000118
C44	C	1.038093	-0.059591	0.000097
C45	C	1.036917	-0.119052	0.000088
C46	C	1.122713	-0.151173	0.000087
O47	O	0.961644	-0.211090	0.000095
O48	O	1.281258	-0.219985	0.000075
C49	C	1.291696	0.139403	0.000094
C50	C	1.396861	0.145869	0.000096
C51	C	1.110547	0.238478	0.000054
C52	C	1.111822	0.301763	0.000039
N53	N	1.102793	0.143337	0.254301
N54	N	1.134098	0.126177	-0.254141
C55	C	1.089342	0.150717	0.473413
C56	C	1.147546	0.118799	0.526753
C57	C	1.140062	0.122905	0.648675
C58	C	1.096825	0.146611	0.351480
H59	H	1.281666	-0.042114	0.000136
O60	O	0.610945	0.059059	0.000133
C61	C	0.686031	0.017707	0.000100
H62	H	0.750993	0.038143	0.033918
H63	H	0.705388	-0.000313	-0.085604
C64	C	0.574362	-0.055826	0.028620
C65	C	0.654147	-0.030728	0.070164
H66	H	0.554694	-0.085705	0.071833
H67	H	0.523774	-0.027967	0.028637
H68	H	0.590504	-0.070838	-0.042800
H69	H	0.638001	-0.015710	0.141576
H70	H	0.704731	-0.058586	0.070159
O71	O	1.293092	-0.154945	0.000155
C72	C	1.370092	-0.118056	0.000146
H73	H	1.343517	-0.073831	0.033966
H74	H	1.402056	-0.115348	-0.085551
C75	C	1.479563	-0.195476	0.028675
C76	C	1.446924	-0.141159	0.070222
H77	H	1.526959	-0.209728	0.071896
H78	H	1.427687	-0.220330	0.028676
H79	H	1.506193	-0.193212	-0.042739
H80	H	1.420284	-0.143425	0.141629
H81	H	1.498797	-0.116307	0.070234
O82	O	1.213489	0.082383	0.471997
C83	C	1.166745	0.042563	0.407131
H84	H	1.093547	0.061054	0.390306
H85	H	1.157756	0.001683	0.450592
C86	C	1.316607	0.006601	0.320958
C87	C	1.226707	0.029314	0.300286
H88	H	1.353596	-0.001575	0.255052
H89	H	1.348101	0.033426	0.364662
H90	H	1.309104	-0.027464	0.357178
H91	H	1.234211	0.063381	0.264079
H92	H	1.195216	0.002493	0.256573
O93	O	1.374021	-0.430866	0.000135
C94	C	1.451019	-0.393975	0.000122
H95	H	1.424440	-0.349749	0.033933
H96	H	1.482985	-0.391272	-0.085576
C97	C	1.560493	-0.471391	0.028670
C98	C	1.527850	-0.417073	0.070206
H99	H	1.607888	-0.485639	0.071897
H100	H	1.508619	-0.496246	0.028675
H101	H	1.587125	-0.469131	-0.042743
H102	H	1.501207	-0.419335	0.141613
H103	H	1.579721	-0.392219	0.070214
H104	H	0.620163	0.201888	0.000055
H105	H	1.362605	-0.318041	0.000098
H106	H	1.033896	0.181126	0.519308
H107	H	1.270794	-0.589174	0.000068
O108	O	1.282038	-0.702190	-0.000000
C109	C	1.262332	-0.760533	0.000015
H110	H	1.190017	-0.767728	-0.033804
H111	H	1.260818	-0.774640	0.085714
C112	C	1.429358	-0.786652	-0.028511
C113	C	1.340543	-0.795490	-0.070057
H114	H	1.477604	-0.808215	-0.071730
H115	H	1.442635	-0.747345	-0.028517
H116	H	1.428083	-0.798407	0.042904
H117	H	1.341816	-0.783727	-0.141466
H118	H	1.327268	-0.834796	-0.070064
H119	H	0.957366	-0.580495	0.000027
O120	O	0.941479	-0.692570	-0.000016
C121	C	0.866027	-0.651458	0.000009
H122	H	0.894283	-0.610911	-0.033801
H123	H	0.834318	-0.641514	0.085710
C124	C	0.753565	-0.724554	-0.028532
C125	C	0.788269	-0.674756	-0.070067
H126	H	0.705598	-0.738925	-0.071754
H127	H	0.804398	-0.752253	-0.028545
H128	H	0.727149	-0.716261	0.042885
H129	H	0.814696	-0.683051	-0.141477
H130	H	0.737439	-0.647059	-0.070068
H131	H	0.874290	-0.412427	-0.000005
H132	H	0.876442	-0.304561	0.000002
H133	H	0.966098	-0.141310	0.000102
H134	H	0.968253	-0.033425	0.000095
