data_functionalizedCrystal
_audit_creation_method	'MofGen! by Chris Wilmer'
_symmetry_space_group_name_H-M	'P1'
_symmetry_Int_Tables_number	1
_symmetry_cell_setting	triclinic
loop_
_symmetry_equiv_pos_as_xyz
  x,y,z
_cell_length_a	14.908571
_cell_length_b	13.897448
_cell_length_c	13.897441
_cell_angle_alpha	89.971988
_cell_angle_beta	93.314722
_cell_angle_gamma	93.284087
loop_
_atom_site_label
_atom_site_type_symbol
_atom_site_fract_x
_atom_site_fract_y
_atom_site_fract_z
Zn1	Zn	1.379248	0.469208	0.630374
Zn2	Zn	1.879248	0.969208	1.130374
Zn3	Zn	1.379144	0.630523	0.469077
Zn4	Zn	1.879144	1.130523	0.969077
Zn5	Zn	1.228377	0.459928	0.459798
Zn6	Zn	1.728377	0.959928	0.959798
Zn7	Zn	1.228355	0.621139	0.621039
Zn8	Zn	1.728355	1.121139	1.121039
O9	O	1.303781	0.545199	0.545072
O10	O	1.803781	1.045199	1.045072
O11	O	1.505480	0.498417	0.616768
O12	O	2.005480	0.998417	1.116768
O13	O	1.359110	0.607937	0.332862
O14	O	1.859110	1.107937	0.832862
O15	O	1.248444	0.326180	0.482448
O16	O	1.748444	0.826180	0.982448
O17	O	1.505404	0.616935	0.498263
O18	O	2.005404	1.116935	0.998263
O19	O	1.359288	0.332998	0.607770
O20	O	1.859288	0.832998	1.107770
O21	O	1.248343	0.482601	0.326045
O22	O	1.748343	0.982601	0.826045
O23	O	1.102129	0.473502	0.473396
O24	O	1.602129	0.973502	0.973396
O25	O	1.248406	0.600941	0.757261
O26	O	1.748406	1.100941	1.257261
O27	O	1.102113	0.591943	0.591860
O28	O	1.602113	1.091943	1.091860
O29	O	1.359266	0.489318	0.764120
O30	O	1.859266	0.989318	1.264120
O31	O	1.359089	0.764256	0.489211
O32	O	1.859089	1.264256	0.989211
O33	O	1.248305	0.757362	0.600857
O34	O	1.748305	1.257362	1.100857
C35	C	1.069387	0.530698	0.530609
C36	C	1.569387	1.030698	1.030609
C37	C	0.969112	0.524517	0.524444
C38	C	1.469112	1.024517	1.024444
C39	C	0.780716	0.636427	0.636051
C40	C	1.280716	1.136427	1.136051
C41	C	0.686498	0.630623	0.630262
C42	C	1.186498	1.130623	1.130262
C43	C	0.686458	0.507100	0.507084
C44	C	1.186458	1.007100	1.007084
C45	C	0.780675	0.512904	0.512872
C46	C	1.280675	1.012904	1.012872
C47	C	0.827801	0.577571	0.577357
C48	C	1.327801	1.077571	1.077357
C49	C	0.922020	0.583379	0.583140
C50	C	1.422020	1.083379	1.083140
C51	C	0.921978	0.459852	0.459967
C52	C	1.421978	0.959852	0.959967
C53	C	0.827760	0.454048	0.454179
C54	C	1.327760	0.954048	0.954179
C55	C	1.303708	0.795809	0.545051
C56	C	1.803708	1.295809	1.045051
C57	C	1.303759	0.903026	0.545079
C58	C	1.803759	1.403026	1.045079
C59	C	1.303848	1.099327	0.545154
C60	C	1.803848	1.599327	1.045154
C61	C	1.303796	0.990091	0.545115
C62	C	1.803796	1.490091	1.045115
C63	C	1.539091	0.559758	0.559592
C64	C	2.039091	1.059758	1.059592
C65	C	1.639366	0.565962	0.565780
C66	C	2.139366	1.065962	1.065780
C67	C	1.303845	0.545118	0.796669
C68	C	1.803845	1.045118	1.296669
C69	C	1.303873	0.545083	0.903885
C70	C	1.803873	1.045083	1.403885
C71	C	1.303872	1.293612	0.545127
C72	C	1.803872	1.793612	1.045127
C73	C	1.303891	1.186399	0.545178
C74	C	1.803891	1.686399	1.045178
C75	C	1.303769	0.545214	0.294457
C76	C	1.803769	1.045214	0.794457
C77	C	1.303917	0.544987	0.187252
C78	C	1.803917	1.044987	0.687252
C79	C	1.303897	0.545019	1.100181
C80	C	1.803897	1.045019	1.600181
C81	C	1.303881	0.545057	0.990948
C82	C	1.803881	1.045057	1.490948
H83	H	0.648072	0.454445	0.454590
H84	H	1.148072	0.954445	0.954590
H85	H	0.648165	0.678547	0.678058
H86	H	1.148165	1.178547	1.178058
H87	H	0.960388	0.636036	0.635646
H88	H	1.460388	1.136036	1.135646
H89	H	0.819086	0.689086	0.688552
H90	H	1.319086	1.189086	1.188552
Br91	Br	0.763796	0.366284	0.366675
Br92	Br	1.263796	0.866284	0.866675
H93	H	0.960324	0.411929	0.412172
H94	H	1.460324	0.911929	0.912172
