data_functionalizedCrystal
_audit_creation_method	'MofGen! by Chris Wilmer'
_symmetry_space_group_name_H-M	'P1'
_symmetry_Int_Tables_number	1
_symmetry_cell_setting	triclinic
loop_
_symmetry_equiv_pos_as_xyz
  x,y,z
_cell_length_a	16.120444
_cell_length_b	12.759401
_cell_length_c	12.759393
_cell_angle_alpha	89.981433
_cell_angle_beta	92.863624
_cell_angle_gamma	92.925484
loop_
_atom_site_label
_atom_site_type_symbol
_atom_site_fract_x
_atom_site_fract_y
_atom_site_fract_z
Zn1	Zn	-0.331879	1.584963	-0.615155
Zn2	Zn	-0.471317	1.575911	-0.448370
Zn3	Zn	-0.331920	1.409262	-0.439496
Zn4	Zn	-0.471250	1.400311	-0.624007
O5	O	-0.401591	1.492612	-0.531757
O6	O	-0.350387	1.730782	-0.593039
O7	O	-0.452871	1.553762	-0.300175
O8	O	-0.215249	1.440103	-0.455380
O9	O	-0.452831	1.724132	-0.470503
O10	O	-0.215219	1.569190	-0.584435
O11	O	-0.350456	1.431326	-0.293655
O12	O	-0.350391	1.261054	-0.463963
O13	O	-0.452717	1.424848	-0.769851
O14	O	-0.452757	1.254478	-0.599522
O15	O	-0.350322	1.560511	-0.763347
O16	O	-0.587974	1.545083	-0.479087
O17	O	-0.587925	1.416071	-0.608126
C18	C	-0.401572	1.219646	-0.531741
C19	C	-0.401584	1.102868	-0.531761
C20	C	-0.348341	1.051456	-0.595676
C21	C	-0.348357	0.941731	-0.595683
C22	C	-0.454865	0.934840	-0.467858
C23	C	-0.454844	1.044563	-0.467846
C24	C	-0.286852	1.055433	-0.669478
C25	C	-0.286868	0.945708	-0.669485
C26	C	-0.618199	1.478652	-0.545553
C27	C	-0.710865	1.472776	-0.551490
C28	C	-0.921811	1.523350	-0.501184
C29	C	-0.880521	1.462068	-0.562341
C30	C	-0.786116	1.468028	-0.556302
C31	C	-1.016225	1.517392	-0.507222
C32	C	-0.184138	1.506654	-0.517930
C33	C	-0.091472	1.512639	-0.512038
C34	C	-0.401507	1.492691	-0.805785
C35	C	-0.401472	1.492724	-0.922560
C36	C	-0.401612	1.766644	-0.531774
C37	C	-0.401620	1.883420	-0.531781
C38	C	-0.348149	1.563373	-0.974036
C39	C	-0.348119	1.563400	-1.083759
C40	C	-0.454741	1.422126	-1.090518
C41	C	-0.454766	1.422095	-0.980797
C42	C	-0.286594	1.644940	-0.970135
C43	C	-0.286564	1.644967	-1.079857
C44	C	-0.401615	1.492597	-0.258791
C45	C	-0.401416	1.492782	-0.142002
H46	H	-0.304243	0.914848	-0.751930
C47	C	-0.927767	1.386101	-0.638302
C48	C	-0.871116	1.330746	-0.693554
C49	C	-0.914613	1.260767	-0.763541
H50	H	-0.961798	1.338152	-0.600316
H51	H	-0.961663	1.424138	-0.686300
H52	H	-0.837236	1.292711	-0.645562
H53	H	-0.837084	1.378668	-0.731561
H54	H	-0.948508	1.298804	-0.811539
H55	H	-0.948642	1.212824	-0.725546
H56	H	-0.876182	1.223207	-0.801044
C57	C	-0.200683	1.100457	-0.635026
C58	C	-0.147993	1.018303	-0.613967
C59	C	-0.068615	1.059739	-0.582210
H60	H	-0.179162	1.143200	-0.689327
H61	H	-0.204100	1.141539	-0.573451
H62	H	-0.144573	0.977239	-0.675535
H63	H	-0.169488	0.975554	-0.559660
H64	H	-0.072032	1.100821	-0.520634
H65	H	-0.047102	1.102482	-0.636515
H66	H	-0.032857	1.004005	-0.567908
C67	C	-0.874369	1.599091	-0.425185
C68	C	-0.824484	1.542708	-0.354658
C69	C	-0.780766	1.612438	-0.284622
H70	H	-0.840268	1.646977	-0.463149
H71	H	-0.912660	1.636742	-0.387536
H72	H	-0.786197	1.505075	-0.392303
H73	H	-0.858564	1.494826	-0.316670
H74	H	-0.819057	1.650089	-0.246974
H75	H	-0.746670	1.660321	-0.322595
H76	H	-0.746920	1.574192	-0.236756
C77	C	-0.512725	0.871722	-0.398362
C78	C	-0.559335	0.940237	-0.342367
C79	C	-0.612638	0.882134	-0.278327
H80	H	-0.549169	0.826592	-0.440682
H81	H	-0.480816	0.830972	-0.350565
H82	H	-0.591242	0.980969	-0.390158
H83	H	-0.522913	0.985368	-0.300026
H84	H	-0.580729	0.841384	-0.230530
H85	H	-0.649077	0.837006	-0.320656
H86	H	-0.644264	0.928613	-0.240320
C87	C	-0.317761	1.098681	-0.774533
C88	C	-0.338266	1.015486	-0.844139
C89	C	-0.366733	1.055288	-0.940927
H90	H	-0.365585	1.137497	-0.765133
H91	H	-0.275325	1.143290	-0.802382
H92	H	-0.380698	0.970895	-0.816295
H93	H	-0.290454	0.976663	-0.853570
H94	H	-0.324298	1.099896	-0.968777
H95	H	-0.414556	1.094103	-0.931517
H96	H	-0.380642	0.998847	-0.988170
H97	H	-0.225507	0.915603	-0.636572
H98	H	-0.303858	1.725228	-1.110739
H99	H	-0.498183	1.364562	-0.938889
H100	H	-0.498130	1.364619	-1.137948
C101	C	-0.200465	1.621362	-0.925159
C102	C	-0.147753	1.606971	-1.007340
C103	C	-0.068411	1.585235	-0.965949
H104	H	-0.178917	1.678378	-0.882458
H105	H	-0.203947	1.559345	-0.884048
H106	H	-0.144268	1.668981	-1.048434
H107	H	-0.169274	1.549953	-1.050048
H108	H	-0.071893	1.523218	-0.924837
H109	H	-0.046872	1.642254	-0.923248
H110	H	-0.032638	1.575459	-1.021701
H111	H	-0.309742	1.720727	-0.937576
H112	H	-0.225217	1.619789	-1.109992
H113	H	-0.498191	1.086420	-0.415790
