data_functionalizedCrystal
_audit_creation_method	'MofGen! by Chris Wilmer'
_symmetry_space_group_name_H-M	'P1'
_symmetry_Int_Tables_number	1
_symmetry_cell_setting	triclinic
loop_
_symmetry_equiv_pos_as_xyz
  x,y,z
_cell_length_a	27.440280
_cell_length_b	17.917603
_cell_length_c	17.917559
_cell_angle_alpha	60.135762
_cell_angle_beta	90.004211
_cell_angle_gamma	57.017445
loop_
_atom_site_label
_atom_site_type_symbol
_atom_site_fract_x
_atom_site_fract_y
_atom_site_fract_z
Zr1	Zr	-0.062636	0.746487	0.790586
O2	O	-0.148882	0.913188	0.673422
O3	O	-0.033149	0.587658	0.821356
O4	O	-0.139207	0.742989	0.828775
O5	O	0.037369	0.757871	0.666006
O6	O	-0.135043	0.731275	0.957175
O7	O	-0.042824	0.757857	0.666003
O8	O	0.054676	0.453416	0.943903
O9	O	-0.152350	1.035730	0.679277
O10	O	-0.021148	0.641329	0.936521
O11	O	0.035591	0.650082	0.840699
O12	O	-0.089279	0.832964	0.849435
O13	O	-0.032539	0.841716	0.753613
Zr14	Zr	0.071904	0.727827	0.995373
Zr15	Zr	-0.055995	0.727804	0.995369
Zr16	Zr	0.065262	0.746509	0.790590
Zr17	Zr	-0.068167	0.941927	0.799924
Zr18	Zr	0.077434	0.532387	0.986035
O19	O	0.042416	0.886656	0.964603
O20	O	-0.139439	0.886624	0.964598
O21	O	0.032973	0.913220	0.673428
O22	O	0.158150	0.561126	1.112537
O23	O	-0.023706	0.561094	1.112531
O24	O	0.148706	0.587690	0.821362
O25	O	-0.028102	0.716443	1.119954
O26	O	0.148475	0.731325	0.957184
O27	O	0.144310	0.743039	0.828784
O28	O	0.052091	0.716457	1.119956
O29	O	-0.147071	1.020879	0.842053
O30	O	0.156338	0.453434	0.943907
O31	O	0.161617	0.438584	1.106682
O32	O	0.059955	0.438566	1.106679
O33	O	-0.050688	1.035748	0.679281
O34	O	-0.045409	1.020897	0.842056
O35	O	0.098546	0.641350	0.936525
O36	O	0.041807	0.632597	1.032346
O37	O	-0.026324	0.824232	0.945260
O38	O	0.030416	0.832985	0.849438
C39	C	0.011551	0.492691	0.881299
C40	C	0.013899	0.409722	0.877335
C41	C	-0.155348	0.737128	0.892975
C42	C	-0.209644	0.737119	0.892973
C43	C	0.018186	0.257814	0.870092
C44	C	-0.008918	0.216495	0.915865
C45	C	-0.006532	0.131969	0.911835
C46	C	0.015802	0.342348	0.874121
C47	C	-0.581943	0.837205	0.847531
C48	C	-0.632966	0.837210	0.847534
O49	O	-0.689598	0.922280	0.808903
N50	N	-0.622920	0.737180	0.892990
C51	C	-0.561846	0.637137	0.938454
O52	O	-0.557986	0.552054	0.977120
C53	C	-0.510825	0.637132	0.938456
C54	C	-0.520876	0.737170	0.892989
C55	C	-0.591991	0.937234	0.802068
C56	C	-0.540973	0.937228	0.802064
C57	C	-0.479905	0.837193	0.847522
C58	C	-0.469857	0.737164	0.892985
C59	C	-0.449752	0.537090	0.983926
C60	C	-0.398731	0.537094	0.983924
C61	C	-0.408782	0.637131	0.938457
C62	C	-0.357771	0.637123	0.938439
N63	N	-0.367817	0.737153	0.892983
C64	C	-0.428884	0.837188	0.847524
C65	C	-0.668997	0.637155	0.938448
C66	C	-0.720017	0.637159	0.938441
C67	C	-0.791133	0.837233	0.847522
C68	C	-0.740112	0.837228	0.847524
C69	C	-0.679043	0.737185	0.892992
C70	C	-0.321738	0.837168	0.847518
C71	C	-0.270712	0.837154	0.847514
C72	C	-0.199600	0.637081	0.938437
C73	C	-0.250622	0.637095	0.938437
C74	C	-0.311693	0.737147	0.892976
O75	O	-0.301122	0.552096	0.977053
O76	O	-0.432732	0.922256	0.808876
C77	C	0.164615	0.737185	0.892985
C78	C	0.218912	0.737195	0.892986
C79	C	-0.003674	0.760526	0.636827
C80	C	-0.006493	0.768457	0.549891
C81	C	-0.002284	0.981623	0.904660
C82	C	-0.004632	1.064592	0.908624
C83	C	0.020908	0.691382	0.395217
C84	C	-0.011639	0.782927	0.390749
C85	C	-0.008775	0.774873	0.479305
C86	C	0.018045	0.699433	0.306654
C87	C	0.012941	0.713788	1.149132
C88	C	0.015761	0.705856	1.236068
C89	C	0.019859	0.469322	1.137452
C90	C	0.025026	0.378421	1.220423
C91	C	0.171533	0.492719	0.881304
C92	C	0.228177	0.409759	0.877342
C93	C	0.179841	0.469350	1.137457
C94	C	0.239304	0.378459	1.220430
C95	C	-0.170573	1.004963	0.648503
C96	C	-0.230037	1.095854	0.565529
C97	C	-0.010592	1.004992	0.648508
C98	C	-0.015759	1.095892	0.565536
C99	C	-0.162266	0.981594	0.904655
C100	C	-0.218910	1.064554	0.908617
C101	C	-0.005414	0.340291	1.209368
C102	C	-0.000572	0.254892	1.287321
C103	C	0.034715	0.207619	1.376329
C104	C	0.065157	0.245757	1.387383
C105	C	0.060310	0.331160	1.309430
C106	C	0.287645	0.366243	0.925501
C107	C	0.340873	0.288305	0.921774
C108	C	0.334631	0.253878	0.869894
C109	C	0.275157	0.297403	0.821729
C110	C	0.221931	0.375346	0.825451
C111	C	0.237612	0.331206	1.309421
C112	C	0.293479	0.245815	1.387392
C113	C	0.351039	0.207672	1.376369
C114	C	0.352729	0.254934	1.287368
C115	C	0.296862	0.340329	1.209400
C116	C	-0.228345	1.143117	0.476538
C117	C	-0.284213	1.228533	0.398569
C118	C	-0.341772	1.266679	0.409592
C119	C	-0.343463	1.219413	0.498593
C120	C	-0.287596	1.134004	0.576560
C121	C	0.014676	1.134031	0.576592
C122	C	0.009819	1.219452	0.498640
C123	C	-0.025470	1.266727	0.409632
C124	C	-0.055909	1.228586	0.398578
C125	C	-0.051055	1.143171	0.476530
C126	C	-0.212649	1.098955	0.960507
C127	C	-0.265866	1.176892	0.964248
C128	C	-0.325344	1.220434	0.916094
C129	C	-0.331605	1.186026	0.864203
C130	C	-0.278387	1.108084	0.860468
H131	H	-0.033915	0.244605	0.958078
H132	H	-0.278903	0.918620	0.810485
H133	H	-0.380039	1.221489	0.824999
H134	H	0.034609	1.250492	0.507658
H135	H	0.270085	0.269362	0.779489
H136	H	-0.390334	1.250483	0.507557
H137	H	-0.029418	1.336276	0.346167
H138	H	0.043180	0.229708	0.827880
H139	H	0.085103	0.362194	1.318445
H140	H	-0.260757	1.204899	1.006502
H141	H	0.377977	0.190412	0.866871
H142	H	-0.441556	0.455629	1.020951
H143	H	0.173511	0.410767	0.786236
H144	H	-0.041657	0.867350	0.320416
H145	H	0.399602	0.223865	1.278406
H146	H	-0.349006	0.455625	1.020951
H147	H	0.298249	0.378792	1.136941
H148	H	0.190750	0.362249	1.318414
H149	H	0.292092	0.207342	1.459853
H150	H	-0.748302	0.918687	0.810499
H151	H	-0.288980	1.095523	0.649019
H152	H	0.043416	1.095545	0.649059
H153	H	-0.371459	0.918640	0.810500
H154	H	-0.084641	1.267090	0.326098
H155	H	-0.549164	1.018688	0.765044
H156	H	-0.840865	0.918687	0.810506
H157	H	0.038657	0.138078	1.439794
H158	H	-0.641713	1.018699	0.765051
H159	H	-0.075838	1.112123	0.467514
H160	H	-0.711825	0.555700	0.975452
H161	H	0.396524	0.138137	1.439863
H162	H	0.050919	0.606966	0.465545
H163	H	0.093887	0.207255	1.459863
H164	H	-0.387258	1.336225	0.346098
H165	H	-0.034156	0.378780	1.136900
H166	H	-0.283494	1.080084	0.818210
H167	H	-0.025361	0.223851	1.278302
H168	H	0.292739	0.394264	0.967748
H169	H	-0.619272	0.555684	0.975469
H170	H	-0.181482	1.112064	0.467544
H171	H	-0.282824	1.267004	0.326108
H172	H	-0.242437	0.555638	0.975447
H173	H	0.389294	0.252875	0.961000
H174	H	-0.368672	1.283899	0.919143
H175	H	-0.149871	0.555635	0.975446
H176	H	-0.164223	1.063515	0.999720
