data_functionalizedCrystal
_audit_creation_method	'MofGen! by Chris Wilmer'
_symmetry_space_group_name_H-M	'P1'
_symmetry_Int_Tables_number	1
_symmetry_cell_setting	triclinic
loop_
_symmetry_equiv_pos_as_xyz
  x,y,z
_cell_length_a	13.897449
_cell_length_b	13.897447
_cell_length_c	12.759393
_cell_angle_alpha	90.032074
_cell_angle_beta	90.020530
_cell_angle_gamma	90.020810
loop_
_atom_site_label
_atom_site_type_symbol
_atom_site_fract_x
_atom_site_fract_y
_atom_site_fract_z
Zn1	Zn	1.474688	-0.383925	0.594035
Zn2	Zn	1.974688	0.116075	1.094035
Zn3	Zn	1.474578	-0.545254	0.418353
Zn4	Zn	1.974578	-0.045254	0.918353
Zn5	Zn	1.313378	-0.383979	0.418368
Zn6	Zn	1.813378	0.116021	0.918368
Zn7	Zn	1.313354	-0.545183	0.593988
Zn8	Zn	1.813354	-0.045183	1.093988
O9	O	1.394000	-0.464585	0.506186
O10	O	1.894000	0.035415	1.006186
O11	O	1.609655	-0.405333	0.570743
O12	O	2.109655	0.094667	1.070743
O13	O	1.453158	-0.523913	0.271334
O14	O	1.953158	-0.023913	0.771334
O15	O	1.334833	-0.248990	0.441696
O16	O	1.834833	0.251010	0.941696
O17	O	1.609574	-0.523861	0.441671
O18	O	2.109574	-0.023861	0.941671
O19	O	1.453347	-0.248951	0.570758
O20	O	1.953347	0.251049	1.070758
O21	O	1.334725	-0.405425	0.271345
O22	O	1.834725	0.094575	0.771345
O23	O	1.178393	-0.405356	0.441651
O24	O	1.678393	0.094644	0.941651
O25	O	1.334792	-0.523740	0.741016
O26	O	1.834792	-0.023740	1.241016
O27	O	1.178376	-0.523792	0.570679
O28	O	1.678376	-0.023792	1.070679
O29	O	1.453323	-0.405264	0.741050
O30	O	1.953323	0.094736	1.241050
O31	O	1.453135	-0.680227	0.441626
O32	O	1.953135	-0.180227	0.941626
O33	O	1.334684	-0.680174	0.570665
O34	O	1.834684	-0.180174	1.070665
C35	C	1.143385	-0.464573	0.506162
C36	C	1.643385	0.035427	1.006162
C37	C	1.036171	-0.464590	0.506177
C38	C	1.536171	0.035410	1.006177
C39	C	0.839876	-0.464594	0.506204
C40	C	1.339876	0.035406	1.006204
C41	C	0.949109	-0.464589	0.506186
C42	C	1.449109	0.035411	1.006186
C43	C	1.393921	-0.715200	0.506162
C44	C	1.893921	-0.215200	1.006162
C45	C	1.393976	-0.822414	0.506186
C46	C	1.893976	-0.322414	1.006186
C47	C	1.394022	-0.909483	0.506210
C48	C	1.894022	-0.409483	1.006210
C49	C	1.394090	-1.018716	0.506237
C50	C	1.894090	-0.518716	1.006237
C51	C	1.645592	-0.464599	0.506211
C52	C	2.145592	0.035401	1.006211
C53	C	1.752806	-0.464605	0.506221
C54	C	2.252806	0.035395	1.006221
C55	C	1.394067	-0.464488	0.780220
C56	C	1.894067	0.035512	1.280220
C57	C	1.394096	-0.464447	0.896996
C58	C	1.894096	0.035553	1.396996
C59	C	1.394105	-0.212992	0.506233
C60	C	1.894105	0.287008	1.006233
C61	C	1.394149	-0.105778	0.506254
C62	C	1.894149	0.394222	1.006254
C63	C	1.393988	-0.464613	0.233219
C64	C	1.893988	0.035387	0.733219
C65	C	1.394146	-0.464382	0.116443
C66	C	1.894146	0.035618	0.616443
C67	C	1.455824	-0.402750	0.951878
C68	C	1.955824	0.097250	1.451878
C69	C	1.455847	-0.402716	1.061602
C70	C	1.955847	0.097284	1.561602
C71	C	1.332411	-0.526081	1.061553
C72	C	1.832411	-0.026081	1.561553
C73	C	1.332384	-0.526111	0.951831
C74	C	1.832384	-0.026111	1.451831
C75	C	1.517536	-0.341086	0.897043
C76	C	2.017536	0.158914	1.397043
C77	C	1.579269	-0.279386	0.951924
C78	C	2.079269	0.220614	1.451924
C79	C	1.579292	-0.279351	1.061648
C80	C	2.079292	0.220649	1.561648
C81	C	1.517581	-0.341017	1.116491
C82	C	2.017581	0.158983	1.616491
H83	H	1.517526	-0.341110	0.807700
H84	H	2.017526	0.158890	1.307700
H85	H	1.629506	-0.229174	0.907264
H86	H	2.129506	0.270826	1.407264
F87	F	1.644994	-0.213686	1.120054
F88	F	2.144994	0.286314	1.620054
F89	F	1.266685	-0.591774	0.893419
F90	F	1.766685	-0.091774	1.393419
F91	F	1.517597	-0.340964	1.233270
F92	F	2.017597	0.159036	1.733270
H93	H	1.282169	-0.576286	1.106215
H94	H	1.782169	-0.076286	1.606215
