data_functionalizedCrystal
_audit_creation_method	'MofGen! by Chris Wilmer'
_symmetry_space_group_name_H-M	'P1'
_symmetry_Int_Tables_number	1
_symmetry_cell_setting	triclinic
loop_
_symmetry_equiv_pos_as_xyz
  x,y,z
_cell_length_a	16.109301
_cell_length_b	17.019294
_cell_length_c	14.586319
_cell_angle_alpha	86.117240
_cell_angle_beta	89.999213
_cell_angle_gamma	83.427968
loop_
_atom_site_label
_atom_site_type_symbol
_atom_site_fract_x
_atom_site_fract_y
_atom_site_fract_z
O1	O	1.103039	0.101395	-0.084186
O2	O	1.436373	0.434728	0.249148
O3	O	1.769706	0.768061	0.582481
O4	O	0.860966	0.114013	-0.085196
O5	O	1.194299	0.447347	0.248137
O6	O	1.527633	0.780680	0.581470
O7	O	0.988756	-0.007130	-0.075620
O8	O	1.322089	0.326203	0.257713
O9	O	1.655423	0.659536	0.591046
O10	O	0.975250	0.222538	-0.093762
O11	O	1.308583	0.555872	0.239572
O12	O	1.641916	0.889205	0.572905
O13	O	0.988747	-0.007132	0.076861
O14	O	1.322080	0.326201	0.410194
O15	O	1.655414	0.659534	0.743527
O16	O	0.860957	0.114011	0.067285
O17	O	1.194291	0.447345	0.400618
O18	O	1.527624	0.780678	0.733951
O19	O	1.103031	0.101393	0.068295
O20	O	1.436364	0.434726	0.401629
O21	O	1.769697	0.768060	0.734962
Cu22	Cu	0.981993	0.107702	0.081713
Cu23	Cu	1.315326	0.441035	0.415046
Cu24	Cu	1.648660	0.774369	0.748379
Cu25	Cu	0.982004	0.107704	-0.098614
Cu26	Cu	1.315337	0.441037	0.234720
Cu27	Cu	1.648670	0.774371	0.568053
O28	O	0.975241	0.222537	0.058719
O29	O	1.308574	0.555870	0.392053
O30	O	1.641907	0.889203	0.725386
C31	C	0.829987	0.113501	-0.008917
C32	C	1.163321	0.446835	0.324416
C33	C	1.496654	0.780168	0.657749
C34	C	0.737693	0.111969	-0.008802
C35	C	1.071027	0.445302	0.324532
C36	C	1.404360	0.778635	0.657865
C37	C	0.515359	0.180290	-0.014188
C38	C	0.848693	0.513623	0.319146
C39	C	1.182026	0.846956	0.652479
C40	C	0.428640	0.178844	-0.014068
C41	C	0.761974	0.512177	0.319266
C42	C	1.095307	0.845510	0.652599
C43	C	0.448644	0.035111	-0.002718
C44	C	0.781977	0.368444	0.330615
C45	C	1.115311	0.701778	0.663948
C46	C	0.535362	0.036558	-0.002832
C47	C	0.868695	0.369891	0.330502
C48	C	1.202028	0.703224	0.663835
C49	C	0.568717	0.109150	-0.008571
C50	C	0.902050	0.442483	0.324762
C51	C	1.235383	0.775816	0.658095
C52	C	0.395280	0.106257	-0.008338
C53	C	0.728613	0.439590	0.324996
C54	C	1.061947	0.772923	0.658329
C55	C	0.301255	0.104688	-0.008207
C56	C	0.634589	0.438022	0.325126
C57	C	0.967922	0.771355	0.658459
C58	C	0.662747	0.110718	-0.008700
C59	C	0.996081	0.444052	0.324633
C60	C	1.329414	0.777385	0.657967
C61	C	0.988239	-0.036520	0.002939
C62	C	1.321573	0.296813	0.336273
C63	C	1.654906	0.630146	0.669606
C64	C	0.986703	-0.124090	0.009850
C65	C	1.320036	0.209243	0.343184
C66	C	1.653370	0.542576	0.676517
C67	C	0.985988	-0.165225	-0.070020
C68	C	1.319321	0.168108	0.263314
C69	C	1.652655	0.501441	0.596647
C70	C	0.984539	-0.247506	-0.063524
C71	C	1.317872	0.085827	0.269810
C72	C	1.651206	0.419161	0.603143
C73	C	0.983811	-0.288651	0.022844
C74	C	1.317145	0.044682	0.356177
C75	C	1.650478	0.378016	0.689510
C76	C	0.984524	-0.247510	0.102720
C77	C	1.317857	0.085824	0.436053
C78	C	1.651191	0.419157	0.769386
C79	C	0.985967	-0.165230	0.096223
C80	C	1.319300	0.168104	0.429556
C81	C	1.652633	0.501437	0.762889
C82	C	0.979449	-0.537082	0.046619
C83	C	1.312782	-0.203749	0.379953
C84	C	1.646116	0.129584	0.713286
C85	C	0.978009	-0.619368	0.053111
C86	C	1.311342	-0.286035	0.386444
C87	C	1.644675	0.047298	0.719777
C88	C	0.978023	-0.619359	-0.113133
C89	C	1.311356	-0.286026	0.220200
C90	C	1.644689	0.047308	0.553533
C91	C	0.979470	-0.537078	-0.119623
C92	C	1.312804	-0.203745	0.213710
C93	C	1.646137	0.129589	0.547044
C94	C	0.980178	-0.495944	-0.039747
C95	C	1.313512	-0.162610	0.293586
C96	C	1.646845	0.170723	0.626920
C97	C	0.982333	-0.372755	0.029486
C98	C	1.315666	-0.039422	0.362819
C99	C	1.649000	0.293911	0.696153
C100	C	0.981651	-0.411840	-0.046390
C101	C	1.314984	-0.078507	0.286943
C102	C	1.648317	0.254827	0.620276
C103	C	1.134009	0.101905	-0.007986
C104	C	1.467343	0.435238	0.325348
C105	C	1.800676	0.768572	0.658681
C106	C	1.226303	0.103437	-0.008107
C107	C	1.559637	0.436771	0.325226
C108	C	1.892970	0.770104	0.658559
C109	C	0.975757	0.251927	-0.019843
C110	C	1.309091	0.585260	0.313491
C111	C	1.642424	0.918593	0.646824
C112	C	0.977294	0.339496	-0.026759
C113	C	1.310627	0.672830	0.306574
C114	C	1.643960	1.006163	0.639907
N115	N	0.981992	0.107700	0.208545
N116	N	1.315325	0.441033	0.541878
N117	N	1.648658	0.774367	0.875211
N118	N	0.982011	0.107700	-0.225445
N119	N	1.315345	0.441033	0.107888
N120	N	1.648678	0.774367	0.441222
C121	C	1.038596	0.054076	0.447790
C122	C	1.371929	0.387409	0.781123
C123	C	1.705262	0.720742	1.114456
C124	C	1.038598	0.054074	0.543771
C125	C	1.371932	0.387407	0.877105
C126	C	1.705265	0.720740	1.210438
C127	C	0.925401	0.161327	0.535303
C128	C	1.258735	0.494660	0.868636
C129	C	1.592068	0.827994	1.201969
C130	C	0.925396	0.161324	0.439323
C131	C	1.258729	0.494658	0.772657
C132	C	1.592062	0.827991	1.105990
C133	C	0.981998	0.107700	0.395569
C134	C	1.315331	0.441033	0.728903
C135	C	1.648664	0.774366	1.062236
C136	C	0.982006	0.107700	0.587530
C137	C	1.315339	0.441034	0.920863
C138	C	1.648672	0.774367	1.254197
C139	C	0.982008	0.107699	0.691597
C140	C	1.315341	0.441032	1.024931
C141	C	1.648675	0.774365	1.358264
C142	C	0.981995	0.107700	0.291496
C143	C	1.315328	0.441033	0.624829
C144	C	1.648661	0.774367	0.958162
H145	H	0.578808	-0.021377	0.001745
H146	H	0.912141	0.311957	0.335078
H147	H	1.245474	0.645290	0.668411
Cl148	Cl	0.854234	0.228739	0.373669
Cl149	Cl	1.187568	0.562072	0.707002
Cl150	Cl	1.520901	0.895406	1.040335
Cl151	Cl	1.109751	-0.013344	0.609417
Cl152	Cl	1.443085	0.319990	0.942751
Cl153	Cl	1.776418	0.653323	1.276084
H154	H	0.982238	-0.378336	-0.116710
H155	H	1.315571	-0.045002	0.216623
H156	H	1.648904	0.288331	0.549957
H157	H	0.385200	0.236773	-0.018639
H158	H	0.718533	0.570107	0.314694
H159	H	1.051866	0.903440	0.648027
Cl160	Cl	0.557289	0.271548	-0.021398
Cl161	Cl	0.890622	0.604881	0.311936
Cl162	Cl	1.223955	0.938214	0.645269
Cl163	Cl	0.986909	-0.113509	-0.178602
Cl164	Cl	1.320242	0.219824	0.154732
Cl165	Cl	1.653575	0.553157	0.488065
H166	H	1.084683	0.010410	0.412168
H167	H	1.418017	0.343743	0.745501
H168	H	1.751350	0.677077	1.078834
H169	H	0.980042	-0.503603	0.111660
H170	H	1.313376	-0.170269	0.444994
H171	H	1.646709	0.163064	0.778327
Cl172	Cl	0.986864	-0.113517	0.196635
Cl173	Cl	1.320198	0.219817	0.529968
Cl174	Cl	1.653531	0.553150	0.863302
H175	H	0.421476	-0.023991	0.001960
H176	H	0.754809	0.309342	0.335294
H177	H	1.088142	0.642676	0.668627
H178	H	0.983960	-0.280995	-0.128562
H179	H	1.317294	0.052338	0.204771
H180	H	1.650627	0.385672	0.538104
H181	H	0.980064	-0.503584	-0.189952
H182	H	1.313397	-0.170250	0.143381
H183	H	1.646731	0.163083	0.476714
Cl184	Cl	0.977131	-0.671075	-0.213542
Cl185	Cl	1.310464	-0.337742	0.119791
Cl186	Cl	1.643797	-0.004409	0.453125
Cl187	Cl	0.981414	-0.424486	0.138059
Cl188	Cl	1.314747	-0.091153	0.471392
Cl189	Cl	1.648081	0.242180	0.804726
H190	H	0.977412	-0.652866	0.123445
H191	H	1.310745	-0.319532	0.456778
H192	H	1.644078	0.013801	0.790111
Cl193	Cl	0.983599	-0.299233	0.211296
Cl194	Cl	1.316932	0.034100	0.544630
Cl195	Cl	1.650265	0.367433	0.877963
Cl196	Cl	0.854251	0.228741	0.590312
Cl197	Cl	1.187585	0.562074	0.923645
Cl198	Cl	1.520918	0.895407	1.256979
