data_functionalizedCrystal
_audit_creation_method	'MofGen! by Chris Wilmer'
_symmetry_space_group_name_H-M	'P1'
_symmetry_Int_Tables_number	1
_symmetry_cell_setting	triclinic
loop_
_symmetry_equiv_pos_as_xyz
  x,y,z
_cell_length_a	17.699083
_cell_length_b	10.540539
_cell_length_c	16.776229
_cell_angle_alpha	89.995514
_cell_angle_beta	89.998886
_cell_angle_gamma	83.904253
loop_
_atom_site_label
_atom_site_type_symbol
_atom_site_fract_x
_atom_site_fract_y
_atom_site_fract_z
O1	O	1.005122	0.160520	-0.066173
O2	O	1.505122	0.660520	0.433827
O3	O	0.784880	0.181404	-0.066198
O4	O	1.284880	0.681404	0.433802
O5	O	0.900026	-0.013836	-0.066184
O6	O	1.400026	0.486164	0.433816
O7	O	0.889976	0.355761	-0.066187
O8	O	1.389976	0.855761	0.433813
O9	O	0.900010	-0.013848	0.066393
O10	O	1.400010	0.486152	0.566393
O11	O	0.784864	0.181392	0.066378
O12	O	1.284864	0.681392	0.566378
O13	O	1.005107	0.160508	0.066404
O14	O	1.505107	0.660508	0.566404
Zn15	Zn	0.894983	0.170948	0.087440
Zn16	Zn	1.394983	0.670948	0.587440
Zn17	Zn	0.895003	0.170964	-0.087235
Zn18	Zn	1.395003	0.670964	0.412765
O19	O	0.889961	0.355749	0.066389
O20	O	1.389961	0.855749	0.566389
C21	C	0.756670	0.180650	0.000087
C22	C	1.256670	0.680650	0.500087
C23	C	0.672637	0.178405	0.000077
C24	C	1.172637	0.678405	0.500077
C25	C	0.624761	0.293007	0.000076
C26	C	1.124761	0.793007	0.500076
C27	C	0.545804	0.290890	0.000086
C28	C	1.045804	0.790890	0.500086
C29	C	0.514725	0.174170	0.000092
C30	C	1.014725	0.674170	0.500092
C31	C	0.562607	0.059559	0.000095
C32	C	1.062607	0.559559	0.500095
C33	C	0.641562	0.061677	0.000090
C34	C	1.141562	0.561677	0.500090
C35	C	0.244188	0.051014	0.000115
C36	C	0.744188	0.551014	0.500115
C37	C	0.165226	0.048904	0.000117
C38	C	0.665226	0.548904	0.500117
C39	C	0.148430	0.280227	0.000111
C40	C	0.648430	0.780227	0.500111
C41	C	0.227386	0.282345	0.000106
C42	C	0.727386	0.782345	0.500106
C43	C	0.275261	0.167735	0.000113
C44	C	0.775261	0.667735	0.500113
C45	C	0.360875	0.170032	0.000104
C46	C	0.860875	0.670032	0.500104
C47	C	0.429112	0.171872	0.000096
C48	C	0.929112	0.671872	0.500096
C49	C	0.899264	-0.061131	0.000103
C50	C	1.399264	0.438869	0.500103
C51	C	0.897009	-0.202038	0.000098
C52	C	1.397009	0.297962	0.500098
C53	C	0.810610	-0.383885	-0.000209
C54	C	1.310610	0.116115	0.499791
C55	C	0.812896	-0.237308	0.000089
C56	C	1.312896	0.262692	0.500089
C57	C	0.937480	-0.264443	0.075811
C58	C	1.437480	0.235557	0.575811
C59	C	0.934609	-0.410935	0.075874
C60	C	1.434609	0.089065	0.575874
C61	C	0.936337	-0.411471	-0.074890
C62	C	1.436337	0.088529	0.425110
C63	C	0.937112	-0.264503	-0.075891
C64	C	1.437112	0.235497	0.424109
C65	C	1.033316	0.161263	0.000117
C66	C	1.533316	0.661263	0.500117
C67	C	1.117349	0.163508	0.000122
C68	C	1.617349	0.663508	0.500122
C69	C	0.890722	0.403044	0.000101
C70	C	1.390722	0.903044	0.500101
C71	C	0.892977	0.543951	0.000100
C72	C	1.392977	1.043951	0.500100
N73	N	0.894974	0.170937	0.206652
N74	N	1.394974	0.670937	0.706652
N75	N	0.895018	0.170966	-0.206446
N76	N	1.395018	0.670966	0.293554
C77	C	0.945977	0.084520	0.248375
C78	C	1.445977	0.584520	0.748375
C79	C	0.945981	0.084519	0.331827
C80	C	1.445981	0.584519	0.831827
C81	C	0.894986	0.170942	0.373555
C82	C	1.394986	0.670942	0.873555
C83	C	0.843978	0.257363	0.331825
C84	C	1.343978	0.757363	0.831825
C85	C	0.843971	0.257357	0.248375
C86	C	1.343971	0.757357	0.748375
C87	C	0.844005	0.257388	0.668372
C88	C	1.344005	0.757388	1.168372
C89	C	0.844018	0.257390	0.751829
C90	C	1.344018	0.757390	1.251829
C91	C	0.946016	0.084550	0.751825
C92	C	1.446016	0.584550	1.251825
C93	C	0.946009	0.084544	0.668374
C94	C	1.446009	0.584544	1.168374
C95	C	0.894998	0.170960	0.626652
C96	C	1.394998	0.670960	1.126652
C97	C	0.894993	0.170958	0.536164
C98	C	1.394993	0.670958	1.036164
C99	C	0.894994	0.170950	0.464041
C100	C	1.394994	0.670950	0.964041
H101	H	0.506826	0.384211	0.000085
H102	H	1.006826	0.884211	0.500085
H103	H	0.252686	0.377390	0.000098
H104	H	0.752686	0.877390	0.500098
H105	H	0.139925	-0.046149	0.000122
H106	H	0.639925	0.453851	0.500122
N107	N	0.789001	0.350611	0.623381
N108	N	1.289001	0.850611	1.123381
H109	H	0.796729	0.337500	0.564183
H110	H	1.296729	0.837500	1.064183
H111	H	0.735234	0.336069	0.637978
H112	H	1.235234	0.836069	1.137978
H113	H	0.987536	0.014174	0.634403
H114	H	1.487536	0.514174	1.134403
H115	H	0.283159	-0.042309	0.000121
H116	H	0.783159	0.457691	0.500121
N117	N	0.894972	-0.447572	0.150831
N118	N	1.394972	0.052428	0.650831
H119	H	0.841668	-0.402619	0.152103
H120	H	1.341668	0.097381	0.652103
H121	H	0.892768	-0.542918	0.151580
H122	H	1.392768	-0.042918	0.651580
N123	N	1.000966	-0.008706	0.203364
N124	N	1.500966	0.491294	0.703364
H125	H	1.034735	0.039717	0.168727
H126	H	1.534735	0.539717	0.668727
H127	H	1.033224	-0.063441	0.242505
H128	H	1.533224	0.436559	0.742505
N129	N	0.096803	0.403858	0.000115
N130	N	0.596803	0.903858	0.500115
H131	H	0.063664	0.408151	-0.049027
H132	H	0.563664	0.908151	0.450973
H133	H	0.063724	0.408070	0.049298
H134	H	0.563724	0.908070	0.549298
H135	H	0.987549	0.014181	0.785804
H136	H	1.487549	0.514181	1.285804
N137	N	0.529090	-0.066335	0.000113
N138	N	1.029090	0.433665	0.500113
H139	H	0.471807	-0.050290	0.000116
H140	H	0.971807	0.449710	0.500116
H141	H	0.546557	-0.116478	-0.049031
H142	H	1.046557	0.383522	0.450969
H143	H	0.802438	0.327725	0.214404
H144	H	1.302438	0.827725	0.714404
N145	N	1.014733	-0.475948	0.080462
N146	N	1.514733	0.024052	0.580462
H147	H	1.013494	-0.571525	0.080543
H148	H	1.513494	-0.071525	0.580543
H149	H	1.044662	-0.450477	0.032880
H150	H	1.544662	0.049523	0.532880
N151	N	1.019310	-0.236381	0.079540
N152	N	1.519310	0.263619	0.579540
H153	H	1.030961	-0.182810	0.032076
H154	H	1.530961	0.317190	0.532076
H155	H	1.027987	-0.188432	0.130275
H156	H	1.527987	0.311568	0.630275
N157	N	0.789009	0.350600	0.796838
N158	N	1.289009	0.850600	1.296838
H159	H	0.756690	0.405339	0.757745
H160	H	1.256690	0.905339	1.257745
H161	H	0.755302	0.302060	0.831470
H162	H	1.255302	0.802060	1.331470
N163	N	0.693204	-0.061928	0.000097
N164	N	1.193204	0.438072	0.500097
H165	H	0.661536	-0.136193	0.000101
H166	H	1.161536	0.363807	0.500101
H167	H	0.726330	-0.066089	-0.049050
H168	H	1.226330	0.433911	0.450950
H169	H	0.909354	-0.221334	0.132147
H170	H	1.409354	0.278666	0.632147
N171	N	0.900288	-0.452598	-0.150903
N172	N	1.400288	0.047402	0.349097
H173	H	0.882434	-0.374895	-0.183793
H174	H	1.382434	0.125105	0.316207
H175	H	0.938826	-0.509927	-0.182282
H176	H	1.438826	-0.009927	0.317718
N177	N	0.788979	0.350575	0.376834
N178	N	1.288979	0.850575	0.876834
H179	H	0.798177	0.440647	0.362301
H180	H	1.298177	0.940647	0.862301
H181	H	0.735209	0.335957	0.362306
H182	H	1.235209	0.835957	0.862306
N183	N	0.897940	-0.209576	-0.150089
N184	N	1.397940	0.290424	0.349911
H185	H	0.854399	-0.144497	-0.134554
H186	H	1.354399	0.355503	0.365446
H187	H	0.935437	-0.167242	-0.183682
H188	H	1.435437	0.332758	0.316318
H189	H	0.998438	-0.241403	-0.080455
H190	H	1.498438	0.258597	0.419545
N191	N	0.770714	-0.180094	-0.071801
N192	N	1.270714	0.319906	0.428199
H193	H	0.795583	-0.217365	-0.121982
H194	H	1.295583	0.282635	0.378018
H195	H	0.716185	-0.200055	-0.069768
H196	H	1.216185	0.299945	0.430232
N197	N	0.766597	-0.420953	-0.072125
N198	N	1.266597	0.079047	0.427875
H199	H	0.799619	-0.484888	-0.105203
H200	H	1.299619	0.015112	0.394797
H201	H	0.719854	-0.460132	-0.053997
H202	H	1.219854	0.039868	0.446003
N203	N	0.766762	-0.423089	0.071295
N204	N	1.266762	0.076911	0.571295
H205	H	0.800020	-0.487393	0.103888
H206	H	1.300020	0.012607	0.603888
H207	H	0.750673	-0.345559	0.105039
H208	H	1.250673	0.154441	0.605039
H209	H	0.997092	-0.459808	-0.075392
H210	H	1.497092	0.040192	0.424608
N211	N	0.658280	0.418900	0.000061
N212	N	1.158280	0.918900	0.500061
H213	H	0.615967	0.491177	0.000063
H214	H	1.115967	0.991177	0.500063
H215	H	0.690677	0.424818	0.049205
H216	H	1.190677	0.924818	0.549205
H217	H	0.780815	-0.194971	0.054446
H218	H	1.280815	0.305029	0.554446
H219	H	0.987511	0.014151	0.365798
H220	H	1.487511	0.514151	0.865798
