data_functionalizedCrystal
_audit_creation_method	'MofGen! by Chris Wilmer'
_symmetry_space_group_name_H-M	'P1'
_symmetry_Int_Tables_number	1
_symmetry_cell_setting	triclinic
loop_
_symmetry_equiv_pos_as_xyz
  x,y,z
_cell_length_a	12.759401
_cell_length_b	16.120444
_cell_length_c	12.759393
_cell_angle_alpha	92.864172
_cell_angle_beta	89.980789
_cell_angle_gamma	92.926867
loop_
_atom_site_label
_atom_site_type_symbol
_atom_site_fract_x
_atom_site_fract_y
_atom_site_fract_z
Zn1	Zn	1.584971	-0.331853	-0.615154
Zn2	Zn	1.575917	-0.471290	-0.448370
Zn3	Zn	1.409268	-0.331896	-0.439496
Zn4	Zn	1.400319	-0.471228	-0.624007
O5	O	1.492619	-0.401567	-0.531757
O6	O	1.730790	-0.350358	-0.593039
O7	O	1.553767	-0.452843	-0.300174
O8	O	1.440109	-0.215224	-0.455379
O9	O	1.724139	-0.452801	-0.470503
O10	O	1.569197	-0.215193	-0.584435
O11	O	1.431331	-0.350431	-0.293655
O12	O	1.261060	-0.350371	-0.463963
O13	O	1.424858	-0.452695	-0.769851
O14	O	1.254486	-0.452737	-0.599522
O15	O	1.560520	-0.350297	-0.763347
O16	O	1.545090	-0.587948	-0.479086
O17	O	1.416079	-0.587902	-0.608126
C18	C	1.219652	-0.401552	-0.531741
C19	C	1.102875	-0.401566	-0.531760
C20	C	1.051471	-0.348320	-0.595675
C21	C	0.941746	-0.348329	-0.595682
C22	C	0.934839	-0.454837	-0.467859
C23	C	1.044562	-0.454823	-0.467846
C24	C	1.478659	-0.618175	-0.545553
C25	C	1.472784	-0.710841	-0.551490
C26	C	1.523357	-0.921785	-0.501184
C27	C	1.462075	-0.880497	-0.562341
C28	C	1.468035	-0.786091	-0.556301
C29	C	1.517398	-1.016199	-0.507221
C30	C	1.766651	-0.401582	-0.531773
C31	C	1.883427	-0.401588	-0.531780
C32	C	1.492700	-0.401485	-0.805785
C33	C	1.492735	-0.401450	-0.922559
C34	C	1.506661	-0.184113	-0.517930
C35	C	1.512646	-0.091447	-0.512038
C36	C	1.563404	-0.348091	-1.083765
C37	C	1.563382	-0.348123	-0.974043
C38	C	1.422114	-0.454753	-0.980804
C39	C	1.422142	-0.454724	-1.090524
C40	C	1.492602	-0.401588	-0.258791
C41	C	1.492786	-0.401389	-0.142002
H42	H	0.887347	-0.498197	-0.415823
H43	H	0.899898	-0.304969	-0.647726
H44	H	1.086416	-0.498183	-0.415794
H45	H	1.580293	-0.886236	-0.444293
H46	H	1.364634	-0.498130	-1.137942
H47	H	1.405134	-0.916050	-0.619234
H48	H	1.098946	-0.304952	-0.647714
H49	H	1.620926	-0.304661	-1.125675
H50	H	1.620887	-0.304724	-0.926632
H51	H	1.364596	-0.498176	-0.938878
