data_functionalizedCrystal
_audit_creation_method	'MofGen! by Chris Wilmer'
_symmetry_space_group_name_H-M	'P1'
_symmetry_Int_Tables_number	1
_symmetry_cell_setting	triclinic
loop_
_symmetry_equiv_pos_as_xyz
  x,y,z
_cell_length_a	12.759401
_cell_length_b	18.050589
_cell_length_c	12.759393
_cell_angle_alpha	89.969379
_cell_angle_beta	89.981504
_cell_angle_gamma	90.028382
loop_
_atom_site_label
_atom_site_type_symbol
_atom_site_fract_x
_atom_site_fract_y
_atom_site_fract_z
Zn1	Zn	1.606157	-0.295612	-0.593988
Zn2	Zn	1.606010	-0.419823	-0.418311
Zn3	Zn	1.430459	-0.295651	-0.418328
Zn4	Zn	1.430406	-0.419766	-0.593953
O5	O	1.518258	-0.357713	-0.506145
O6	O	1.753158	-0.312097	-0.570692
O7	O	1.582683	-0.403391	-0.271292
O8	O	1.453849	-0.191722	-0.441651
O9	O	1.753050	-0.403354	-0.441623
O10	O	1.582934	-0.191693	-0.570708
O11	O	1.453706	-0.312163	-0.271304
O12	O	1.283431	-0.312108	-0.441617
O13	O	1.453759	-0.403256	-0.740979
O14	O	1.283392	-0.403294	-0.570648
O15	O	1.582882	-0.312041	-0.741005
O16	O	1.582632	-0.523740	-0.441589
O17	O	1.453616	-0.523698	-0.570632
C18	C	1.245290	-0.357699	-0.506131
C19	C	1.128514	-0.357711	-0.506149
C20	C	1.073659	-0.405268	-0.573225
C21	C	0.963935	-0.405277	-0.573236
C22	C	0.963930	-0.310171	-0.439088
C23	C	1.073652	-0.310159	-0.439083
C24	C	1.073661	-0.460179	-0.650671
C25	C	0.963937	-0.460188	-0.650683
C26	C	1.518131	-0.550665	-0.506127
C27	C	1.518173	-0.633211	-0.506155
C28	C	1.448083	-0.832666	-0.576304
C29	C	1.422469	-0.882114	-0.480436
C30	C	1.518276	-0.784341	-0.506169
C31	C	1.543942	-0.881974	-0.602048
C32	C	1.518374	-0.930326	-0.506191
C33	C	1.492611	-0.832703	-0.410250
C34	C	1.614129	-0.832558	-0.531927
C35	C	1.588551	-0.881985	-0.435992
C36	C	1.518217	-0.700243	-0.506158
C37	C	1.518433	-1.014423	-0.506191
C38	C	1.792291	-0.357727	-0.506160
C39	C	1.909068	-0.357733	-0.506166
C40	C	1.518331	-0.357638	-0.780178
C41	C	1.518363	-0.357606	-0.896955
C42	C	1.518414	-0.164007	-0.506185
C43	C	1.518480	-0.081462	-0.506203
C44	C	1.585606	-0.310106	-0.951832
C45	C	1.585631	-0.310079	-1.061557
C46	C	1.451166	-0.405059	-1.061516
C47	C	1.451136	-0.405081	-0.951794
C48	C	1.663242	-0.255273	-0.951857
C49	C	1.663267	-0.255246	-1.061581
C50	C	1.518245	-0.357734	-0.233178
C51	C	1.518417	-0.357557	-0.116401
H52	H	1.107657	-0.514786	-0.621388
H53	H	0.919248	-0.271455	-0.384485
H54	H	1.396430	-0.443710	-1.106180
C55	C	1.196997	-0.299694	-0.297784
C56	C	1.133950	-0.257878	-0.365360
H57	H	1.234225	-0.267414	-0.252274
H58	H	1.154163	-0.332012	-0.257517
H59	H	1.245372	-0.328007	-0.337734
H60	H	1.085568	-0.229569	-0.325410
H61	H	1.176787	-0.225547	-0.405631
H62	H	1.470848	-0.811149	-0.329152
C63	C	1.641664	-0.886038	-0.255572
C64	C	1.668739	-0.911044	-0.355850
H65	H	1.691162	-0.903984	-0.206096
H66	H	1.641659	-0.833421	-0.254735
H67	H	1.573811	-0.903761	-0.237874
H68	H	1.736589	-0.893317	-0.373553
H69	H	1.668754	-0.963671	-0.356691
H70	H	1.103474	-0.444840	-0.732077
H71	H	1.641493	-0.197759	-0.922099
C72	C	0.999806	-0.414263	-0.823665
C73	C	0.918039	-0.432474	-0.755099
H74	H	0.971466	-0.397155	-0.888125
H75	H	1.041709	-0.376420	-0.793347
H76	H	1.041685	-0.456869	-0.836036
H77	H	0.876164	-0.389866	-0.742721
H78	H	0.876118	-0.470320	-0.785422
H79	H	0.934122	-0.517692	-0.628752
C80	C	1.813002	-0.217987	-1.162755
C81	C	1.773107	-0.276037	-1.101782
H82	H	1.880813	-0.230819	-1.187565
H83	H	1.767826	-0.209416	-1.220652
H84	H	1.817438	-0.174358	-1.121390
H85	H	1.768663	-0.319665	-1.143150
H86	H	1.818294	-0.284616	-1.043877
H87	H	1.634172	-0.200598	-1.095627
H88	H	1.695124	-0.810777	-0.553739
C89	C	1.267562	-0.828443	-0.629034
C90	C	1.367838	-0.803422	-0.656257
H91	H	1.218022	-0.810383	-0.678387
H92	H	1.266608	-0.881059	-0.629152
H93	H	1.250042	-0.810843	-0.561103
H94	H	1.385361	-0.821026	-0.724186
H95	H	1.368795	-0.750795	-0.656149
C96	C	1.672819	-0.885104	-0.739140
C97	C	1.573205	-0.911195	-0.711492
H98	H	1.690879	-0.903146	-0.806704
H99	H	1.672357	-0.832489	-0.740074
H100	H	1.722781	-0.901994	-0.689398
H101	H	1.523242	-0.894300	-0.761230
H102	H	1.573660	-0.963821	-0.710566
C103	C	1.314577	-0.989069	-0.450427
C104	C	1.313102	-0.911505	-0.451026
H105	H	1.247058	-1.007210	-0.432269
H106	H	1.333252	-1.006658	-0.518044
H107	H	1.364411	-1.005942	-0.400545
H108	H	1.263273	-0.894632	-0.500913
H109	H	1.294414	-0.893909	-0.383399
C110	C	1.318206	-0.498945	-0.962780
C111	C	1.377203	-0.457283	-0.891472
H112	H	1.272562	-0.531174	-0.925538
H113	H	1.278074	-0.466571	-1.005588
H114	H	1.363972	-0.527356	-1.005565
H115	H	1.331437	-0.428868	-0.848692
H116	H	1.417338	-0.489661	-0.848646
H117	H	1.740507	-0.275891	-0.917821
