data_functionalizedCrystal
_audit_creation_method	'MofGen! by Chris Wilmer'
_symmetry_space_group_name_H-M	'P1'
_symmetry_Int_Tables_number	1
_symmetry_cell_setting	triclinic
loop_
_symmetry_equiv_pos_as_xyz
  x,y,z
_cell_length_a	19.121063
_cell_length_b	19.805407
_cell_length_c	19.805399
_cell_angle_alpha	89.980427
_cell_angle_beta	92.411105
_cell_angle_gamma	92.469032
loop_
_atom_site_label
_atom_site_type_symbol
_atom_site_fract_x
_atom_site_fract_y
_atom_site_fract_z
Zn1	Zn	-0.279631	1.023234	-0.394203
Zn2	Zn	0.053703	1.356567	-0.060869
Zn3	Zn	0.387036	1.689900	0.272464
Zn4	Zn	-0.397083	1.018317	-0.285838
Zn5	Zn	-0.063750	1.351651	0.047496
Zn6	Zn	0.269584	1.684984	0.380829
Zn7	Zn	-0.279650	0.910048	-0.281028
Zn8	Zn	0.053683	1.243381	0.052305
Zn9	Zn	0.387017	1.576714	0.385638
Zn10	Zn	-0.397046	0.905182	-0.398983
Zn11	Zn	-0.063712	1.238516	-0.065650
Zn12	Zn	0.269621	1.571849	0.267684
O13	O	-0.338352	0.964195	-0.340013
O14	O	-0.005019	1.297529	-0.006680
O15	O	0.328314	1.630862	0.326654
O16	O	-0.295218	1.117298	-0.379840
O17	O	0.038115	1.450631	-0.046507
O18	O	0.371448	1.783964	0.286826
O19	O	-0.381529	1.003934	-0.190484
O20	O	-0.048196	1.337267	0.142849
O21	O	0.285138	1.670601	0.476182
O22	O	-0.181363	0.929156	-0.292028
O23	O	0.151971	1.262489	0.041306
O24	O	0.485304	1.595822	0.374639
O25	O	-0.381510	1.113686	-0.300225
O26	O	-0.048177	1.447019	0.033108
O27	O	0.285156	1.780353	0.366442
O28	O	-0.181348	1.012313	-0.375177
O29	O	0.151985	1.345646	-0.041843
O30	O	0.485318	1.678980	0.291490
O31	O	-0.295251	0.924388	-0.186951
O32	O	0.038082	1.257722	0.146383
O33	O	0.371415	1.591055	0.479716
O34	O	-0.295215	0.814686	-0.296663
O35	O	0.038118	1.148019	0.036670
O36	O	0.371451	1.481353	0.370004
O37	O	-0.381447	0.920863	-0.493065
O38	O	-0.048113	1.254197	-0.159731
O39	O	0.285220	1.587530	0.173602
O40	O	-0.381465	0.811111	-0.383324
O41	O	-0.048132	1.144445	-0.049990
O42	O	0.285201	1.477778	0.283343
O43	O	-0.295182	1.007595	-0.489553
O44	O	0.038151	1.340929	-0.156219
O45	O	0.371484	1.674262	0.177114
O46	O	-0.495363	0.999216	-0.304860
O47	O	-0.162029	1.332550	0.028473
O48	O	0.171304	1.665883	0.361807
O49	O	-0.495335	0.916096	-0.387987
O50	O	-0.162002	1.249430	-0.054654
O51	O	0.171331	1.582763	0.278679
C52	C	-0.338339	0.788340	-0.339991
C53	C	-0.005006	1.121673	-0.006657
C54	C	0.328328	1.455006	0.326676
C55	C	-0.338350	0.713107	-0.339998
C56	C	-0.005017	1.046441	-0.006664
C57	C	0.328317	1.379774	0.326669
C58	C	-0.520833	0.956613	-0.347479
C59	C	-0.187500	1.289947	-0.014146
C60	C	0.145833	1.623280	0.319187
C61	C	-0.598899	0.953431	-0.350696
C62	C	-0.265566	1.286765	-0.017363
C63	C	0.067767	1.620098	0.315971
C64	C	-0.383328	0.675917	-0.385055
C65	C	-0.049995	1.009250	-0.051721
C66	C	0.283339	1.342584	0.281612
C67	C	-0.383329	0.605228	-0.385064
C68	C	-0.049996	0.938562	-0.051731
C69	C	0.283337	1.271895	0.281602
C70	C	-0.338356	0.571732	-0.340013
C71	C	-0.005022	0.905065	-0.006680
C72	C	0.328311	1.238398	0.326654
C73	C	-0.293373	0.608927	-0.294954
C74	C	0.039961	0.942261	0.038379
C75	C	0.373294	1.275594	0.371713
C76	C	-0.293368	0.679614	-0.294948
C77	C	0.039965	1.012948	0.038385
C78	C	0.373298	1.346281	0.371719
C79	C	-0.293388	0.323853	-0.294977
C80	C	0.039945	0.657187	0.038356
C81	C	0.373279	0.990520	0.371690
C82	C	-0.293397	0.253161	-0.294985
C83	C	0.039936	0.586494	0.038348
C84	C	0.373269	0.919827	0.371682
C85	C	-0.383349	0.249467	-0.385093
C86	C	-0.050016	0.582800	-0.051760
C87	C	0.283318	0.916134	0.281574
C88	C	-0.383345	0.320154	-0.385087
C89	C	-0.050012	0.653488	-0.051754
C90	C	0.283322	0.986821	0.281579
C91	C	-0.338360	0.357344	-0.340031
C92	C	-0.005026	0.690677	-0.006698
C93	C	0.328307	1.024011	0.326636
C94	C	-0.338358	0.433992	-0.340022
C95	C	-0.005025	0.767326	-0.006689
C96	C	0.328309	1.100659	0.326645
C97	C	-0.338360	0.495084	-0.340018
C98	C	-0.005027	0.828418	-0.006685
C99	C	0.328306	1.161751	0.326648
C100	C	-0.635566	0.995246	-0.308963
C101	C	-0.302233	1.328580	0.024370
C102	C	0.031101	1.661913	0.357704
C103	C	-0.708917	0.992258	-0.311992
C104	C	-0.375584	1.325591	0.021341
C105	C	-0.042251	1.658925	0.354674
C106	C	-0.745601	0.947451	-0.356752
C107	C	-0.412267	1.280784	-0.023418
C108	C	-0.078934	1.614117	0.309915
C109	C	-0.708929	0.905634	-0.398489
C110	C	-0.375596	1.238968	-0.065156
C111	C	-0.042262	1.572301	0.268178
C112	C	-0.635579	0.908626	-0.395463
C113	C	-0.302246	1.241960	-0.062129
C114	C	0.031088	1.575293	0.271204
C115	C	-0.967071	0.936252	-0.368056
C116	C	-0.633738	1.269586	-0.034722
C117	C	-0.300404	1.602919	0.298611
C118	C	-1.040426	0.933262	-0.371078
C119	C	-0.707093	1.266595	-0.037744
C120	C	-0.373759	1.599929	0.295589
C121	C	-1.040409	1.019887	-0.284581
C122	C	-0.707076	1.353220	0.048752
C123	C	-0.373743	1.686554	0.382085
C124	C	-0.967058	1.022872	-0.281556
C125	C	-0.633725	1.356206	0.051777
C126	C	-0.300391	1.689539	0.385110
C127	C	-0.930393	0.981058	-0.323296
C128	C	-0.597059	1.314392	0.010037
C129	C	-0.263726	1.647725	0.343371
C130	C	-0.820578	0.944394	-0.359848
C131	C	-0.487244	1.277727	-0.026514
C132	C	-0.153911	1.611060	0.306819
C133	C	-0.855417	0.984119	-0.320203
C134	C	-0.522084	1.317453	0.013130
C135	C	-0.188750	1.650786	0.346464
C136	C	-0.155159	0.971825	-0.332532
C137	C	0.178174	1.305159	0.000801
C138	C	0.511508	1.638492	0.334134
C139	C	-0.077093	0.975077	-0.329345
C140	C	0.256241	1.308410	0.003989
C141	C	0.589574	1.641744	0.337322
C142	C	-0.338308	0.964235	-0.516554
C143	C	-0.004975	1.297568	-0.183221
C144	C	0.328359	1.630902	0.150113
C145	C	-0.338289	0.964252	-0.591785
C146	C	-0.004956	1.297585	-0.258452
C147	C	0.328377	1.630919	0.074881
C148	C	-0.338366	1.140737	-0.340036
C149	C	-0.005033	1.474071	-0.006703
C150	C	0.328300	1.807404	0.326631
C151	C	-0.338372	1.215969	-0.340046
C152	C	-0.005039	1.549302	-0.006712
C153	C	0.328294	1.882636	0.326621
C154	C	-0.293369	1.009414	-0.625302
C155	C	0.039964	1.342748	-0.291968
C156	C	0.373297	1.676081	0.041365
C157	C	-0.293349	1.009422	-0.695989
C158	C	0.039985	1.342755	-0.362656
C159	C	0.373318	1.676089	-0.029323
C160	C	-0.338253	0.964270	-0.733159
C161	C	-0.004919	1.297604	-0.399826
C162	C	0.328414	1.630937	-0.066493
C163	C	-0.383175	0.919103	-0.699638
C164	C	-0.049841	1.252436	-0.366305
C165	C	0.283492	1.585770	-0.032971
C166	C	-0.383191	0.919093	-0.628952
C167	C	-0.049858	1.252426	-0.295618
C168	C	0.283476	1.585759	0.037715
C169	C	-0.383109	0.919144	-0.984709
C170	C	-0.049776	1.252477	-0.651375
C171	C	0.283557	1.585811	-0.318042
C172	C	-0.383091	0.919159	-1.055400
C173	C	-0.049758	1.252493	-0.722067
C174	C	0.283576	1.585826	-0.388734
C175	C	-0.293267	1.009474	-1.051747
C176	C	0.040066	1.342807	-0.718413
C177	C	0.373400	1.676140	-0.385080
C178	C	-0.293283	1.009463	-0.981060
C179	C	0.040050	1.342796	-0.647727
C180	C	0.373383	1.676130	-0.314393
C181	C	-0.338202	0.964294	-0.947545
C182	C	-0.004869	1.297627	-0.614211
C183	C	0.328464	1.630960	-0.280878
C184	C	-0.338223	0.964285	-0.870897
C185	C	-0.004890	1.297618	-0.537564
C186	C	0.328444	1.630952	-0.204231
C187	C	-0.338236	0.964282	-0.809806
C188	C	-0.004903	1.297615	-0.476473
C189	C	0.328431	1.630949	-0.143139
C190	C	-0.338346	0.964197	-0.164157
C191	C	-0.005012	1.297530	0.169177
C192	C	0.328321	1.630863	0.502510
C193	C	-0.338167	0.964319	-0.088918
C194	C	-0.004833	1.297652	0.244416
C195	C	0.328500	1.630986	0.577749
H196	H	-0.419953	0.703185	-0.421739
H197	H	-0.086620	1.036518	-0.088405
H198	H	0.246713	1.369851	0.244928
H199	H	-1.070292	0.896783	-0.407538
H200	H	-0.736958	1.230116	-0.074204
H201	H	-0.403625	1.563449	0.259129
H202	H	-0.419970	0.347424	-0.421771
H203	H	-0.086636	0.680757	-0.088437
H204	H	0.246697	1.014090	0.244896
H205	H	-0.256805	1.046184	-0.595043
H206	H	0.076528	1.379518	-0.261709
H207	H	0.409861	1.712851	0.071624
H208	H	-0.419976	0.219179	-0.421783
H209	H	-0.086642	0.552512	-0.088449
H210	H	0.246691	0.885846	0.244884
H211	H	-0.605703	1.031730	-0.272512
H212	H	-0.272370	1.365064	0.060821
H213	H	0.060964	1.698397	0.394154
H214	H	-0.605726	0.874577	-0.429447
H215	H	-0.272392	1.207910	-0.096113
H216	H	0.060941	1.541244	0.237220
H217	H	-0.256772	1.046199	-0.723275
H218	H	0.076561	1.379533	-0.389942
H219	H	0.409895	1.712866	-0.056609
H220	H	-0.937224	0.902204	-0.402041
H221	H	-0.603890	1.235538	-0.068707
H222	H	-0.270557	1.568871	0.264626
H223	H	-0.738803	0.869154	-0.434936
H224	H	-0.405469	1.202487	-0.101602
H225	H	-0.072136	1.535821	0.231731
H226	H	-0.825547	1.020604	-0.283763
H227	H	-0.492214	1.353937	0.049571
H228	H	-0.158881	1.687271	0.382904
H229	H	-0.419658	0.882388	-1.085662
H230	H	-0.086325	1.215722	-0.752329
H231	H	0.247008	1.549055	-0.418996
H232	H	-0.256720	1.046232	-0.950800
H233	H	0.076613	1.379566	-0.617466
H234	H	0.409946	1.712899	-0.284133
H235	H	-0.419695	0.882374	-0.957430
H236	H	-0.086362	1.215707	-0.624096
H237	H	0.246971	1.549041	-0.290763
H238	H	-0.256689	1.046250	-1.079043
H239	H	0.076644	1.379584	-0.745710
H240	H	0.409977	1.712917	-0.412376
H241	H	-0.419734	0.882337	-0.729907
H242	H	-0.086400	1.215671	-0.396574
H243	H	0.246933	1.549004	-0.063241
H244	H	-0.256739	0.709894	-0.258261
H245	H	0.076594	1.043228	0.075072
H246	H	0.409928	1.376561	0.408405
H247	H	-0.850454	0.907910	-0.396289
H248	H	-0.517120	1.241243	-0.062956
H249	H	-0.183787	1.574577	0.270377
H250	H	-0.419956	0.574951	-0.421754
H251	H	-0.086622	0.908284	-0.088420
H252	H	0.246711	1.241617	0.244913
H253	H	-0.419762	0.882310	-0.601663
H254	H	-0.086429	1.215644	-0.268330
H255	H	0.246904	1.548977	0.065003
H256	H	-0.256770	0.225890	-0.258298
H257	H	0.076563	0.559223	0.075035
H258	H	0.409897	0.892557	0.408368
H259	H	-0.256751	0.581649	-0.258275
H260	H	0.076582	0.914982	0.075058
H261	H	0.409916	1.248315	0.408391
H262	H	-0.256764	0.354124	-0.258284
H263	H	0.076570	0.687458	0.075049
H264	H	0.409903	1.020791	0.408382
H265	H	-0.738768	1.026308	-0.278008
H266	H	-0.405435	1.359641	0.055325
H267	H	-0.072101	1.692974	0.388658
H268	H	-1.070270	1.053931	-0.250600
H269	H	-0.736937	1.387264	0.082733
H270	H	-0.403603	1.720597	0.416066
H271	H	-0.937192	1.059358	-0.245110
H272	H	-0.603858	1.392691	0.088224
H273	H	-0.270525	1.726025	0.421557
