data_functionalizedCrystal
_audit_creation_method	'MofGen! by Chris Wilmer'
_symmetry_space_group_name_H-M	'P1'
_symmetry_Int_Tables_number	1
_symmetry_cell_setting	triclinic
loop_
_symmetry_equiv_pos_as_xyz
  x,y,z
_cell_length_a	6.394989
_cell_length_b	19.288864
_cell_length_c	17.766277
_cell_angle_alpha	89.976791
_cell_angle_beta	90.003244
_cell_angle_gamma	95.183021
loop_
_atom_site_label
_atom_site_type_symbol
_atom_site_fract_x
_atom_site_fract_y
_atom_site_fract_z
O1	O	-0.260546	0.923905	-0.062832
O2	O	-0.295693	0.721989	-0.062780
O3	O	0.025971	0.825813	-0.062807
O4	O	-0.582211	0.820081	-0.062804
O5	O	0.025988	0.825794	0.062382
O6	O	-0.295677	0.721970	0.062409
O7	O	-0.260530	0.923886	0.062357
Cu8	Cu	-0.278102	0.822926	0.073814
Cu9	Cu	-0.278121	0.822948	-0.074236
O10	O	-0.582195	0.820062	0.062384
C11	C	-0.294554	0.696092	-0.000179
C12	C	-0.291159	0.618955	-0.000159
N13	N	-0.278087	0.822915	0.177944
C14	C	-0.479898	0.576107	-0.000170
C15	C	-0.476708	0.503629	-0.000178
C16	C	-0.284770	0.474001	-0.000191
C17	C	-0.096007	0.516859	-0.000175
C18	C	-0.099202	0.589335	-0.000160
C19	C	-0.133891	0.364268	-0.044076
C20	C	-0.130704	0.291792	-0.044096
C21	C	-0.274908	0.250459	-0.000236
C22	C	-0.422335	0.281609	0.043634
C23	C	-0.425530	0.354086	0.043650
C24	C	-0.281284	0.395413	-0.000207
C25	C	-0.460201	0.129022	-0.000255
C26	C	-0.457004	0.056542	-0.000259
C27	C	-0.076297	0.069774	-0.000264
C28	C	-0.079500	0.142252	-0.000252
C29	C	-0.271458	0.171871	-0.000252
C30	C	0.103790	0.824670	-0.000215
C31	C	0.339993	0.821206	-0.000215
C32	C	-0.261669	0.949783	-0.000246
C33	C	-0.265064	1.026920	-0.000270
N34	N	-0.278120	0.822964	-0.178367
C35	C	-0.135724	0.868905	0.217319
C36	C	-0.135714	0.868909	0.296121
C37	C	-0.278104	0.822930	0.335545
C38	C	-0.420478	0.776932	0.296160
C39	C	-0.420470	0.776925	0.217360
C40	C	-0.468405	0.815495	0.460385
C41	C	-0.468416	0.815508	0.539184
C42	C	-0.278129	0.822949	0.578591
C43	C	-0.087822	0.830393	0.539190
C44	C	-0.087814	0.830386	0.460389
C45	C	-0.278128	0.822933	0.420990
C46	C	-0.135743	0.868945	0.703412
C47	C	-0.135731	0.868944	0.782215
C48	C	-0.420513	0.776971	0.782253
C49	C	-0.420507	0.776969	0.703451
C50	C	-0.278125	0.822959	0.664035
H51	H	-0.636205	0.600218	-0.000171
H52	H	0.060271	0.492731	-0.000196
N53	N	-0.574044	0.727339	0.338681
H54	H	-0.666329	0.754688	0.371355
H55	H	-0.664091	0.698212	0.301730
N56	N	0.117427	0.838413	0.417893
H57	H	0.129497	0.796124	0.385219
H58	H	0.122175	0.881387	0.385221
H59	H	0.067128	0.836452	0.571273
H60	H	-0.536441	0.739523	0.671390
N61	N	-0.680287	0.457405	-0.000203
H62	H	-0.649130	0.406997	-0.000215
H63	H	-0.763984	0.467154	0.046206
H64	H	-0.539759	0.247957	0.079350
N65	N	0.017849	0.918502	0.174805
H66	H	-0.005836	0.968004	0.188492
H67	H	0.165955	0.909152	0.188548
H68	H	0.054497	0.624223	-0.000151
H69	H	-0.019780	0.906360	0.328186
H70	H	-0.610704	0.021656	-0.000264
H71	H	-0.019800	0.906391	0.671318
H72	H	-0.536401	0.739474	0.185300
N73	N	0.017792	0.918561	0.824688
H74	H	0.107966	0.947699	0.787758
H75	H	-0.061997	0.949955	0.857355
H76	H	-0.545564	0.379445	0.079374
N77	N	-0.574076	0.727374	0.824765
H78	H	-0.722257	0.736660	0.811043
H79	H	-0.550192	0.677896	0.811057
N80	N	-0.673661	0.807475	0.581678
H81	H	-0.794205	0.802748	0.544758
H82	H	-0.678332	0.764531	0.614394
H83	H	-0.616505	0.153139	-0.000244
H84	H	0.079983	0.045652	-0.000320
N85	N	0.124081	0.188465	-0.000243
H86	H	0.207849	0.178770	-0.046654
H87	H	0.092772	0.238857	-0.000202
H88	H	-0.010669	0.266436	-0.079821
H89	H	-0.016458	0.397916	-0.079796
H90	H	-0.623370	0.809424	0.428306
