data_functionalizedCrystal
_audit_creation_method	'MofGen! by Chris Wilmer'
_symmetry_space_group_name_H-M	'P1'
_symmetry_Int_Tables_number	1
_symmetry_cell_setting	triclinic
loop_
_symmetry_equiv_pos_as_xyz
  x,y,z
_cell_length_a	23.532355
_cell_length_b	19.188930
_cell_length_c	18.266242
_cell_angle_alpha	89.989745
_cell_angle_beta	90.005095
_cell_angle_gamma	97.013874
loop_
_atom_site_label
_atom_site_type_symbol
_atom_site_fract_x
_atom_site_fract_y
_atom_site_fract_z
O1	O	-0.755462	0.084584	-0.060823
O2	O	-0.589621	0.096885	-0.060840
O3	O	-0.677327	-0.010938	-0.060817
O4	O	-0.667755	0.192406	-0.060846
O5	O	-0.677312	-0.010941	0.060945
O6	O	-0.589606	0.096882	0.060922
O7	O	-0.755447	0.084581	0.060939
Zn8	Zn	-0.672524	0.090731	0.080263
Zn9	Zn	-0.672544	0.090735	-0.080164
O10	O	-0.667741	0.192403	0.060916
C11	C	-0.568396	0.096576	0.000039
C12	C	-0.505175	0.095652	0.000033
C13	C	-0.231930	0.091610	-0.066332
C14	C	-0.291332	0.092485	-0.066334
O15	O	-0.322066	0.092915	-0.122781
N16	N	-0.321031	0.092925	0.000038
C17	C	-0.291325	0.092484	0.066417
O18	O	-0.322041	0.092938	0.122872
C19	C	-0.231925	0.091604	0.066419
C20	C	-0.202229	0.091170	0.000042
C21	C	-0.202234	0.091176	-0.132703
C22	C	-0.142836	0.090302	-0.132700
C23	C	-0.113135	0.089862	-0.066326
C24	C	-0.142831	0.090297	0.000045
C25	C	-0.202221	0.091157	0.132798
C26	C	-0.142817	0.090276	0.132794
C27	C	-0.113121	0.089843	0.066417
C28	C	-0.053732	0.088983	0.066422
N29	N	-0.024033	0.088543	0.000050
C30	C	-0.053735	0.088982	-0.066324
C31	C	-0.416070	0.094331	0.066409
C32	C	-0.475468	0.095216	0.066408
C33	C	-0.475471	0.095216	-0.066344
C34	C	-0.416071	0.094336	-0.066343
C35	C	-0.386371	0.093890	0.000036
C36	C	0.071005	0.087148	-0.066314
C37	C	0.130409	0.086277	-0.066305
C38	C	0.130406	0.086274	0.066446
C39	C	0.071008	0.087148	0.066438
C40	C	0.041309	0.087583	0.000052
O41	O	-0.022960	0.088550	0.122839
O42	O	-0.023013	0.088519	-0.122770
C43	C	-0.677010	-0.036949	0.000066
C44	C	-0.676079	-0.114450	0.000073
C45	C	-0.727543	-0.159550	0.000081
C46	C	-0.726668	-0.232371	0.000069
C47	C	-0.674328	-0.260089	0.000064
C48	C	-0.622858	-0.214979	0.000051
C49	C	-0.623733	-0.142160	0.000055
N50	N	-0.634315	-0.367958	0.041497
N51	N	-0.633487	-0.437134	0.041495
C52	C	-0.671687	-0.479488	0.000048
N53	N	-0.710755	-0.450055	-0.041386
N54	N	-0.711585	-0.380874	-0.041380
C55	C	-0.673373	-0.339048	0.000058
C56	C	-0.722206	-0.603550	0.000043
C57	C	-0.721329	-0.676371	0.000027
C58	C	-0.617517	-0.658977	0.000016
C59	C	-0.618395	-0.586157	0.000025
C60	C	-0.670741	-0.558448	0.000042
C61	C	0.223329	0.084895	0.000061
C62	C	0.160110	0.085838	0.000069
C63	C	-0.668058	0.218415	0.000031
C64	C	-0.668988	0.295916	0.000020
N65	N	-0.672515	0.090728	0.189750
N66	N	-0.672557	0.090732	-0.189651
C67	C	-0.706945	0.132856	0.228050
C68	C	-0.706954	0.132854	0.304695
C69	C	-0.672523	0.090732	0.343037
C70	C	-0.638091	0.048596	0.304727
C71	C	-0.638087	0.048594	0.228084
N72	N	-0.622645	0.089183	0.463385
N73	N	-0.622650	0.089188	0.536193
C74	C	-0.672534	0.090735	0.573959
N75	N	-0.722414	0.092288	0.536167
N76	N	-0.722407	0.092286	0.463352
C77	C	-0.672524	0.090729	0.426144
C78	C	-0.706978	0.132862	0.695366
C79	C	-0.706988	0.132855	0.772012
C80	C	-0.638119	0.048601	0.772044
C81	C	-0.638114	0.048604	0.695399
C82	C	-0.672542	0.090739	0.657065
H83	H	-0.499641	0.095580	0.120458
C84	C	-0.561781	-0.536545	0.000019
N85	N	-0.519136	-0.499177	0.000012
C86	C	0.163070	0.085795	-0.139327
N87	N	0.187669	0.085429	-0.194327
H88	H	0.046831	0.087503	-0.120371
H89	H	-0.764829	-0.580988	0.000054
C90	C	-0.567117	-0.092548	0.000048
N91	N	-0.524473	-0.055178	0.000043
H92	H	-0.734981	0.167162	0.196843
H93	H	-0.734992	0.167161	0.335885
C94	C	-0.383411	0.093851	-0.139361
N95	N	-0.358816	0.093484	-0.194362
C96	C	-0.600232	0.002267	0.653267
N97	N	-0.571697	-0.032636	0.621534
C98	C	0.163089	0.085788	0.139454
N99	N	0.187707	0.085416	0.194445
H100	H	-0.610057	0.014299	0.335950
C101	C	-0.559942	-0.689462	0.000007
N102	N	-0.516575	-0.712427	-0.000002
H103	H	-0.763239	-0.713092	0.000030
C104	C	-0.234897	0.091658	-0.205727
N105	N	-0.259494	0.092026	-0.260733
H106	H	-0.610048	0.014287	0.196900
H107	H	-0.735012	0.167170	0.664153
H108	H	-0.735029	0.167159	0.803195
H109	H	-0.118663	0.089946	-0.186751
H110	H	-0.610086	0.014304	0.803261
H111	H	-0.391891	0.093977	0.120465
C112	C	-0.234875	0.091627	0.205819
N113	N	-0.259468	0.091977	0.260823
C114	C	-0.508155	0.095692	-0.139358
N115	N	-0.532774	0.096050	-0.194348
H116	H	-0.580242	-0.237551	0.000044
C117	C	-0.785125	-0.129075	0.000094
N118	N	-0.828496	-0.106119	0.000102
C119	C	-0.110150	0.089790	0.205817
N120	N	-0.085547	0.089427	0.260819
H121	H	-0.768577	-0.269099	0.000074
C122	C	0.038342	0.087630	0.139455
N123	N	0.013741	0.087986	0.194454
