data_functionalizedCrystal
_audit_creation_method	'MofGen! by Chris Wilmer'
_symmetry_space_group_name_H-M	'P1'
_symmetry_Int_Tables_number	1
_symmetry_cell_setting	triclinic
loop_
_symmetry_equiv_pos_as_xyz
  x,y,z
_cell_length_a	14.519709
_cell_length_b	10.654550
_cell_length_c	9.130313
_cell_angle_alpha	89.995631
_cell_angle_beta	90.002092
_cell_angle_gamma	84.082538
loop_
_atom_site_label
_atom_site_type_symbol
_atom_site_fract_x
_atom_site_fract_y
_atom_site_fract_z
O1	O	1.224720	0.164623	-0.121608
O2	O	0.956343	0.184009	-0.121653
O3	O	1.096702	-0.008483	-0.121620
O4	O	1.084361	0.357115	-0.121641
O5	O	1.096692	-0.008488	0.121979
O6	O	0.956334	0.184004	0.121946
O7	O	1.224710	0.164617	0.121991
Cu8	Cu	1.090521	0.174310	0.144211
Cu9	Cu	1.090532	0.174317	-0.143873
O10	O	1.084351	0.357109	0.121958
C11	C	1.095791	-0.055275	0.000178
C12	C	1.093080	-0.194692	0.000176
C13	C	0.921974	0.183103	0.000141
C14	C	0.819579	0.180396	0.000124
C15	C	1.175721	-0.274972	0.000189
C16	C	1.173168	-0.405968	0.000171
C17	C	1.005326	-0.376391	0.000132
C18	C	1.007880	-0.245397	0.000140
C19	C	0.444631	0.170428	0.000191
C20	C	0.548954	0.173196	0.000172
C21	C	0.632102	0.175412	0.000156
C22	C	0.736431	0.178180	0.000140
C23	C	1.259079	0.165524	0.000194
C24	C	1.361475	0.168231	0.000201
C25	C	1.085262	0.403901	0.000156
C26	C	1.087973	0.543318	0.000150
N27	N	1.090520	0.174305	0.346834
N28	N	1.090541	0.174312	-0.346496
C29	C	1.152692	0.089105	0.423500
C30	C	1.152701	0.089105	0.576837
C31	C	1.028362	0.259516	0.576827
C32	C	1.028350	0.259509	0.423493
H33	H	1.245096	-0.233692	0.000215
H34	H	0.977746	0.328889	0.639259
C35	C	0.916973	-0.157078	0.000118
H36	H	0.930698	-0.071802	0.000109
H37	H	0.882062	-0.172469	0.085053
H38	H	0.882084	-0.172464	-0.084854
C39	C	1.221073	-0.004612	0.339172
H40	H	1.212171	0.007593	0.236870
H41	H	1.210535	-0.088461	0.364311
H42	H	1.282709	0.009233	0.364297
C43	C	1.264071	-0.494277	0.000180
H44	H	1.250351	-0.579555	0.000151
H45	H	1.298969	-0.478900	0.085135
H46	H	1.298970	-0.478868	-0.084772
C47	C	0.911614	-0.432173	0.000113
H48	H	0.921927	-0.521686	0.000127
H49	H	0.877552	-0.404623	-0.084838
H50	H	0.877552	-0.404634	0.085069
C51	C	1.221093	-0.004610	0.661164
H52	H	1.258119	-0.055345	0.593542
H53	H	1.187597	-0.056992	0.720992
H54	H	1.259774	0.040698	0.720965
C55	C	0.959960	0.353236	0.339155
H56	H	0.922944	0.403993	0.406769
H57	H	0.921282	0.307937	0.279351
H58	H	0.993468	0.405615	0.279327
