data_functionalizedCrystal
_audit_creation_method	'MofGen! by Chris Wilmer'
_symmetry_space_group_name_H-M	'P1'
_symmetry_Int_Tables_number	1
_symmetry_cell_setting	triclinic
loop_
_symmetry_equiv_pos_as_xyz
  x,y,z
_cell_length_a	10.654550
_cell_length_b	10.654550
_cell_length_c	9.130313
_cell_angle_alpha	90.004369
_cell_angle_beta	90.000276
_cell_angle_gamma	84.484931
loop_
_atom_site_label
_atom_site_type_symbol
_atom_site_fract_x
_atom_site_fract_y
_atom_site_fract_z
O1	O	-1.667839	-0.176399	-0.121690
O2	O	-1.167839	0.323601	0.378310
O3	O	-1.302361	-0.193205	-0.121716
O4	O	-0.802361	0.306795	0.378284
O5	O	-1.493503	-0.002063	-0.121693
O6	O	-0.993503	0.497937	0.378307
O7	O	-1.476697	-0.367541	-0.121713
O8	O	-0.976697	0.132459	0.378287
O9	O	-1.493490	-0.002057	0.121906
O10	O	-0.993490	0.497943	0.621906
O11	O	-1.302348	-0.193199	0.121882
O12	O	-0.802348	0.306801	0.621882
O13	O	-1.667826	-0.176393	0.121909
O14	O	-1.167826	0.323607	0.621909
Cu15	Cu	-1.485086	-0.184796	0.144138
Cu16	Cu	-0.985086	0.315204	0.644138
Cu17	Cu	-1.485101	-0.184802	-0.143946
Cu18	Cu	-0.985101	0.315198	0.356054
O19	O	-1.476684	-0.367535	0.121886
O20	O	-0.976684	0.132465	0.621886
C21	C	-1.255556	-0.191968	0.000080
C22	C	-0.755556	0.308032	0.500080
C23	C	-1.116113	-0.188276	0.000070
C24	C	-0.616113	0.311724	0.500070
C25	C	-1.492263	0.044738	0.000105
C26	C	-0.992263	0.544738	0.500105
C27	C	-1.488571	0.184181	0.000103
C28	C	-0.988571	0.684181	0.500103
C29	C	-1.714631	-0.177630	0.000110
C30	C	-1.214631	0.322370	0.500110
C31	C	-1.854074	-0.181322	0.000110
C32	C	-1.354074	0.318678	0.500110
C33	C	-1.036628	-0.300818	0.000068
C34	C	-0.536628	0.199182	0.500068
C35	C	-0.905607	-0.297341	0.000093
C36	C	-0.405607	0.202659	0.500093
C37	C	-0.933570	-0.068772	0.000117
C38	C	-0.433570	0.431228	0.500117
C39	C	-1.064588	-0.072250	0.000101
C40	C	-0.564588	0.427750	0.500101
C41	C	-1.477925	-0.414336	0.000084
C42	C	-0.977925	0.085664	0.500084
C43	C	-1.481616	-0.553779	0.000077
C44	C	-0.981616	-0.053779	0.500077
N45	N	-1.485084	-0.184790	0.346761
N46	N	-0.985084	0.315210	0.846761
C47	C	-1.601112	0.263667	0.000111
C48	C	-1.101112	0.763667	0.500111
C49	C	-1.597636	0.394688	0.000092
C50	C	-1.097636	0.894688	0.500092
C51	C	-1.369066	0.366725	0.000065
C52	C	-0.869066	0.866725	0.500065
C53	C	-1.372544	0.235706	0.000073
C54	C	-0.872544	0.735706	0.500073
N55	N	-1.485113	-0.184798	-0.346568
N56	N	-0.985113	0.315202	0.153432
C57	C	-1.569751	-0.100188	0.423423
C58	C	-1.069751	0.399812	0.923423
C59	C	-1.569763	-0.100189	0.576760
C60	C	-1.069763	0.399811	1.076760
C61	C	-1.400437	-0.269404	0.576759
C62	C	-0.900437	0.230596	1.076759
C63	C	-1.400420	-0.269396	0.423425
C64	C	-0.900420	0.230604	0.923425
H65	H	-1.078574	-0.395294	0.000053
H66	H	-0.578574	0.104706	0.500053
H67	H	-1.695588	0.221720	0.000132
H68	H	-1.195588	0.721720	0.500132
H69	H	-1.129309	0.019401	0.000107
H70	H	-0.629309	0.519401	0.500107
H71	H	-0.891602	0.025693	0.000151
H72	H	-0.391602	0.525693	0.500151
N73	N	-1.251155	0.149963	0.000054
N74	N	-0.751155	0.649963	0.500054
H75	H	-1.177125	0.202483	0.000044
H76	H	-0.677125	0.702483	0.500044
H77	H	-1.247613	0.095000	0.090359
H78	H	-0.747613	0.595000	0.590359
N79	N	-1.661029	-0.008919	0.340716
N80	N	-1.161029	0.491081	0.840716
H81	H	-1.717046	-0.057416	0.277073
H82	H	-1.217046	0.442584	0.777073
H83	H	-1.714581	0.044667	0.412634
H84	H	-1.214581	0.544667	0.912634
H85	H	-0.840894	-0.388984	0.000095
H86	H	-0.340894	0.111016	0.500095
H87	H	-1.689279	0.459401	0.000096
H88	H	-1.189279	0.959401	0.500096
H89	H	-1.274601	0.408693	0.000043
H90	H	-0.774601	0.908693	0.500043
N91	N	-1.661099	-0.008957	0.659447
N92	N	-1.161099	0.491043	1.159447
H93	H	-1.714732	0.044631	0.587609
H94	H	-1.214732	0.544631	1.087609
H95	H	-1.717028	-0.057583	0.723040
H96	H	-1.217028	0.442417	1.223040
H97	H	-1.331508	-0.338290	0.639194
H98	H	-0.831508	0.161710	1.139194
N99	N	-1.309087	-0.360639	0.340726
N100	N	-0.809087	0.139361	0.840726
H101	H	-1.255460	-0.414243	0.412556
H102	H	-0.755460	0.085757	0.912556
H103	H	-1.357632	-0.416608	0.277082
H104	H	-0.857632	0.083392	0.777082
