data_functionalizedCrystal
_audit_creation_method	'MofGen! by Chris Wilmer'
_symmetry_space_group_name_H-M	'P1'
_symmetry_Int_Tables_number	1
_symmetry_cell_setting	triclinic
loop_
_symmetry_equiv_pos_as_xyz
  x,y,z
_cell_length_a	11.026607
_cell_length_b	14.519709
_cell_length_c	9.482944
_cell_angle_alpha	100.411698
_cell_angle_beta	98.185432
_cell_angle_gamma	96.133081
loop_
_atom_site_label
_atom_site_type_symbol
_atom_site_fract_x
_atom_site_fract_y
_atom_site_fract_z
O1	O	1.628002	0.401966	0.120917
O2	O	2.128002	0.901966	0.620917
O3	O	1.274600	0.357975	0.120917
O4	O	1.774600	0.857975	0.620917
O5	O	1.460669	0.247274	0.120904
O6	O	1.960669	0.747274	0.620904
O7	O	1.441933	0.512667	0.120930
O8	O	1.941933	1.012667	0.620930
O9	O	1.426658	0.215985	-0.120891
O10	O	1.926658	0.715985	0.379109
O11	O	1.240590	0.326686	-0.120878
O12	O	1.740590	0.826686	0.379122
O13	O	1.593991	0.370677	-0.120878
O14	O	2.093991	0.870677	0.379122
Cu15	Cu	1.414185	0.345825	-0.142956
Cu16	Cu	1.914185	0.845825	0.357044
Cu17	Cu	1.454406	0.382827	0.142995
Cu18	Cu	1.954406	0.882827	0.642995
O19	O	1.407922	0.481378	-0.120865
O20	O	1.907922	0.981378	0.379135
C21	C	1.212366	0.334215	0.000019
C22	C	1.712366	0.834215	0.500019
C23	C	1.077600	0.310023	0.000019
C24	C	1.577600	0.810023	0.500019
C25	C	1.003940	0.376823	0.000026
C26	C	1.503940	0.876823	0.500026
C27	C	0.864651	0.351821	0.000026
C28	C	1.364651	0.851821	0.500026
C29	C	1.442790	0.197126	0.000006
C30	C	1.942790	0.697126	0.500006
C31	C	1.440173	0.094313	0.000005
C32	C	1.940173	0.594313	0.500005
C33	C	1.430544	-0.282165	0.000043
C34	C	1.930544	0.217835	0.500043
C35	C	1.433218	-0.177418	0.000032
C36	C	1.933218	0.322582	0.500032
C37	C	1.435358	-0.093929	0.000023
C38	C	1.935358	0.406071	0.500023
C39	C	1.438033	0.010825	0.000015
C40	C	1.938033	0.510825	0.500015
C41	C	1.656225	0.394437	0.000023
C42	C	2.156225	0.894437	0.500023
C43	C	1.790993	0.418631	0.000033
C44	C	2.290993	0.918631	0.500033
C45	C	1.425801	0.531526	0.000036
C46	C	1.925801	1.031526	0.500036
C47	C	1.428420	0.634340	0.000046
C48	C	1.928420	1.134340	0.500046
N49	N	1.385904	0.319800	-0.344078
N50	N	1.885904	0.819800	0.155922
C51	C	1.446056	0.375149	-0.416273
C52	C	1.946056	0.875149	0.083727
C53	C	1.422536	0.353489	-0.583692
C54	C	1.922536	0.853489	-0.083692
N55	N	1.482696	0.408847	0.344117
N56	N	1.982696	0.908847	0.844117
H57	H	0.824605	0.276120	0.000055
H58	H	1.324605	0.776120	0.500055
C59	C	1.581010	0.499369	-0.422406
C60	C	2.081010	0.999369	0.077594
C61	C	1.575720	0.494479	-0.572026
C62	C	2.075720	0.994479	-0.072026
H63	H	1.638430	0.552239	-0.370640
H64	H	2.138430	1.052239	0.129360
H65	H	1.606695	0.443148	-0.397538
H66	H	2.106695	0.943148	0.102462
H67	H	1.501493	0.506053	-0.397570
H68	H	2.001493	1.006053	0.102430
H69	H	1.655235	0.487787	-0.596864
H70	H	2.155235	0.987787	-0.096864
H71	H	1.550042	0.550714	-0.596904
H72	H	2.050042	1.050714	-0.096904
C73	C	1.185522	0.484006	0.000031
C74	C	1.685522	0.984006	0.500031
C75	C	1.058001	0.479019	0.000033
C76	C	1.558001	0.979019	0.500033
H77	H	1.218892	0.547101	0.000043
H78	H	1.718892	1.047101	0.500043
H79	H	1.200218	0.443248	-0.084286
H80	H	1.700218	0.943248	0.415714
H81	H	1.223939	0.465066	0.084353
H82	H	1.723939	0.965066	0.584353
H83	H	1.019582	0.497954	-0.084295
H84	H	1.519582	0.997954	0.415705
H85	H	1.043295	0.519791	0.084358
H86	H	1.543295	1.019791	0.584358
C87	C	1.287371	0.229418	-0.577561
C88	C	1.787371	0.729418	-0.077561
C89	C	1.292872	0.234180	-0.427942
C90	C	1.792872	0.734180	0.072058
H91	H	1.229928	0.176561	-0.629328
H92	H	1.729928	0.676561	-0.129328
H93	H	1.366831	0.222790	-0.602574
H94	H	1.866831	0.722790	-0.102574
H95	H	1.261600	0.285668	-0.602251
H96	H	1.761600	0.785668	-0.102251
H97	H	1.318651	0.177932	-0.403250
H98	H	1.818651	0.677932	0.096750
H99	H	1.213395	0.240800	-0.402919
H100	H	1.713395	0.740800	0.097081
H101	H	0.831041	0.494335	0.000031
H102	H	1.331041	0.994335	0.500031
H103	H	1.037548	0.234327	0.000048
H104	H	1.537548	0.734327	0.500048
H105	H	1.514971	0.438568	-0.354137
H106	H	2.014971	0.938568	0.145863
H107	H	1.353624	0.290061	-0.645822
H108	H	1.853624	0.790061	-0.145822
