data_functionalizedCrystal
_audit_creation_method	'MofGen! by Chris Wilmer'
_symmetry_space_group_name_H-M	'P1'
_symmetry_Int_Tables_number	1
_symmetry_cell_setting	triclinic
loop_
_symmetry_equiv_pos_as_xyz
  x,y,z
_cell_length_a	6.817900
_cell_length_b	14.858329
_cell_length_c	16.306216
_cell_angle_alpha	95.055583
_cell_angle_beta	103.467292
_cell_angle_gamma	104.519616
loop_
_atom_site_label
_atom_site_type_symbol
_atom_site_fract_x
_atom_site_fract_y
_atom_site_fract_z
V1	V	-4.031638	-0.129399	-0.263268
O2	O	-4.013718	0.005470	-0.258009
O3	O	-3.988258	-0.255856	-0.261705
O4	O	-3.983021	-0.127737	-0.377979
O5	O	-4.018991	-0.123536	-0.140930
V6	V	-4.514643	-0.113228	-0.248606
O7	O	-4.294031	-0.164870	-0.295429
O8	O	-4.702447	-0.077756	-0.216445
O9	O	-4.334817	0.013229	-0.250169
O10	O	-4.649960	-0.248096	-0.253865
O11	O	-4.644687	-0.119090	-0.370944
O12	O	-4.340054	-0.114890	-0.133895
C13	C	-3.834487	-0.286673	-0.257613
C14	C	-3.880303	-0.390055	-0.257100
C15	C	-3.917506	-0.474012	-0.256676
C16	C	-3.964197	-0.579340	-0.256147
C17	C	-4.001427	-0.663291	-0.255727
C18	C	-4.048122	-0.768626	-0.255197
C19	C	-3.827805	-0.123243	-0.405931
C20	C	-3.869372	-0.122721	-0.499710
C21	C	-4.020254	-0.120847	-0.840459
C22	C	-4.224921	-0.127017	-0.810022
C23	C	-4.181659	-0.127203	-0.712431
C24	C	-3.945401	-0.121777	-0.671410
C25	C	-3.805985	-0.029537	-0.691444
C26	C	-3.850589	-0.028964	-0.789041
C27	C	-3.937114	-0.206590	-0.814502
C28	C	-3.898622	-0.208410	-0.717188
C29	C	-3.903084	-0.122300	-0.575869
C30	C	-4.062561	-0.120319	-0.935998
C31	C	-4.151930	0.044041	-0.254258
C32	C	-4.085352	0.147423	-0.254777
C33	C	-4.158612	-0.119386	-0.105938
C34	C	-4.096283	-0.119904	-0.012158
H35	H	-4.289652	-0.193504	-0.699687
H36	H	-4.289237	-0.065429	-0.827458
H37	H	-3.729794	-0.209835	-0.689781
C38	C	-4.400078	-0.216287	-0.856884
N39	N	-4.532014	-0.283527	-0.892189
C40	C	-3.570885	-0.019634	-0.654284
N41	N	-3.393808	-0.012177	-0.626292
H42	H	-4.053160	-0.275904	-0.850475
C43	C	-3.923112	0.058657	-0.809360
N44	N	-3.977742	0.124653	-0.824661
C45	C	-3.643559	-0.017728	-0.814995
N46	N	-3.487622	-0.009257	-0.834538
C47	C	-3.848057	0.057397	-0.648002
N48	N	-3.879755	0.122873	-0.615281
H49	H	-4.001951	-0.276602	-0.705394
C50	C	-3.732109	-0.201642	-0.840629
N51	N	-3.577708	-0.197910	-0.860312
H52	H	-4.224882	-0.065445	-0.681950
