data_functionalizedCrystal
_audit_creation_method	'MofGen! by Chris Wilmer'
_symmetry_space_group_name_H-M	'P1'
_symmetry_Int_Tables_number	1
_symmetry_cell_setting	triclinic
loop_
_symmetry_equiv_pos_as_xyz
  x,y,z
_cell_length_a	18.101389
_cell_length_b	12.759401
_cell_length_c	12.759400
_cell_angle_alpha	89.983831
_cell_angle_beta	89.985725
_cell_angle_gamma	90.017197
loop_
_atom_site_label
_atom_site_type_symbol
_atom_site_fract_x
_atom_site_fract_y
_atom_site_fract_z
Zn1	Zn	-0.418719	-1.606228	-0.418334
Zn2	Zn	0.081281	-1.106228	0.081666
Zn3	Zn	-0.294887	-1.606131	-0.594002
Zn4	Zn	0.205113	-1.106131	-0.094002
Zn5	Zn	-0.294896	-1.430538	-0.418342
Zn6	Zn	0.205104	-0.930538	0.081658
Zn7	Zn	-0.418691	-1.430519	-0.593976
Zn8	Zn	0.081309	-0.930519	-0.093976
O9	O	-0.356798	-1.518354	-0.506163
O10	O	0.143202	-1.018354	-0.006163
O11	O	-0.402301	-1.753236	-0.441644
O12	O	0.097699	-1.253236	0.058356
O13	O	-0.191255	-1.582805	-0.570714
O14	O	0.308745	-1.082805	-0.070714
O15	O	-0.311337	-1.453893	-0.271320
O16	O	0.188663	-0.953893	0.228680
O17	O	-0.311321	-1.753165	-0.570706
O18	O	0.188679	-1.253165	-0.070706
O19	O	-0.402310	-1.582971	-0.271314
O20	O	0.097690	-1.082971	0.228686
O21	O	-0.191262	-1.453798	-0.441658
O22	O	0.308738	-0.953798	0.058342
O23	O	-0.311309	-1.283515	-0.441633
O24	O	0.188691	-0.783515	0.058367
O25	O	-0.522327	-1.453859	-0.570662
O26	O	-0.022327	-0.953859	-0.070662
O27	O	-0.402261	-1.283500	-0.570670
O28	O	0.097739	-0.783500	-0.070670
O29	O	-0.522348	-1.582952	-0.441619
O30	O	-0.022348	-1.082952	0.058381
O31	O	-0.311294	-1.582787	-0.741019
O32	O	0.188706	-1.082787	-0.241019
O33	O	-0.402252	-1.453765	-0.741000
O34	O	0.097748	-0.953765	-0.241000
C35	C	-0.356783	-1.245387	-0.506150
C36	C	0.143217	-0.745387	-0.006150
C37	C	-0.356795	-1.128610	-0.506170
C38	C	0.143205	-0.628610	-0.006170
C39	C	-0.549960	-1.518415	-0.506137
C40	C	-0.049960	-1.018415	-0.006137
C41	C	-0.632274	-1.518440	-0.506125
C42	C	-0.132274	-1.018440	-0.006125
C43	C	-0.356785	-1.518292	-0.779131
C44	C	0.143215	-1.018292	-0.279131
C45	C	-0.356804	-1.518361	-0.895907
C46	C	0.143196	-1.018361	-0.395907
C47	C	-0.931365	-1.518502	-0.505929
C48	C	-0.431365	-1.018502	-0.005929
C49	C	-0.900027	-1.437000	-0.586861
C50	C	-0.400027	-0.937000	-0.086861
C51	C	-0.814409	-1.437221	-0.587236
C52	C	-0.314409	-0.937221	-0.087236
C53	C	-0.782983	-1.518470	-0.506026
C54	C	-0.282983	-1.018470	-0.006026
C55	C	-0.814080	-1.629171	-0.536076
C56	C	-0.314080	-1.129171	-0.036076
C57	C	-0.899725	-1.628717	-0.536608
C58	C	-0.399725	-1.128717	-0.036608
C59	C	-0.899786	-1.490264	-0.394766
C60	C	-0.399786	-0.990264	0.105234
C61	C	-0.814136	-1.487802	-0.395408
C62	C	-0.314136	-0.987802	0.104592
C63	C	-0.699123	-1.518459	-0.506080
C64	C	-0.199123	-1.018459	-0.006080
C65	C	-1.015225	-1.518520	-0.505878
C66	C	-0.515225	-1.018520	-0.005878
C67	C	-0.164388	-1.518354	-0.506114
C68	C	0.335612	-1.018354	-0.006114
C69	C	-0.082074	-1.518532	-0.505829
C70	C	0.417926	-1.018532	-0.005829
C71	C	-0.356813	-1.792387	-0.506177
C72	C	0.143187	-1.292387	-0.006177
C73	C	-0.356820	-1.909164	-0.506183
C74	C	0.143180	-1.409164	-0.006183
C75	C	-0.404079	-1.073768	-0.573462
C76	C	0.095921	-0.573768	-0.073462
C77	C	-0.404093	-0.964044	-0.573466
C78	C	0.095907	-0.464044	-0.073466
C79	C	-0.309534	-0.964013	-0.438883
C80	C	0.190466	-0.464013	0.061117
C81	C	-0.309523	-1.073735	-0.438875
C82	C	0.190477	-0.573735	0.061125
C83	C	-0.404214	-1.585543	-0.950676
C84	C	0.095786	-1.085543	-0.450676
C85	C	-0.404234	-1.585602	-1.060400
C86	C	0.095766	-1.085602	-0.560400
C87	C	-0.309428	-1.451294	-1.060577
C88	C	0.190572	-0.951294	-0.560577
C89	C	-0.309412	-1.451231	-0.950855
C90	C	0.190588	-0.951231	-0.450855
C91	C	-0.356827	-1.518445	-0.232130
C92	C	0.143173	-1.018445	0.267870
C93	C	-0.356840	-1.518484	-0.115353
C94	C	0.143160	-1.018484	0.384647
H95	H	-0.920619	-1.354665	-0.568249
H96	H	-0.420619	-0.854665	-0.068249
H97	H	-0.920054	-1.549626	-0.334467
H98	H	-0.420054	-1.049626	0.165533
O99	O	-0.258302	-1.378916	-1.119851
O100	O	0.241698	-0.878916	-0.619851
H101	H	-0.291416	-1.325471	-1.169880
H102	H	0.208584	-0.825471	-0.669880
O103	O	-0.455046	-0.904953	-0.646161
O104	O	0.044954	-0.404953	-0.146161
H105	H	-0.513203	-0.926050	-0.628356
H106	H	-0.013203	-0.426050	-0.128356
O107	O	-0.785812	-1.560694	-0.311286
O108	O	-0.285812	-1.060694	0.188714
H109	H	-0.748928	-1.620189	-0.347167
H110	H	-0.248928	-1.120189	0.152833
H111	H	-0.793810	-1.406336	-0.372747
H112	H	-0.293810	-0.906336	0.127253
O113	O	-0.258269	-1.378777	-0.891770
O114	O	0.241731	-0.878777	-0.391770
H115	H	-0.225307	-1.332122	-0.948410
H116	H	0.274693	-0.832122	-0.448410
O117	O	-0.258525	-0.904829	-0.366336
O118	O	0.241475	-0.404829	0.133664
H119	H	-0.266462	-0.819318	-0.377664
H120	H	0.233538	-0.319318	0.122336
O121	O	-0.455366	-1.658065	-1.119477
O122	O	0.044634	-1.158065	-0.619477
H123	H	-0.488312	-1.704736	-1.062831
H124	H	0.011688	-1.204736	-0.562831
O125	O	-0.455331	-1.657940	-0.891410
O126	O	0.044669	-1.157940	-0.391410
H127	H	-0.422208	-1.711396	-0.841406
H128	H	0.077792	-1.211396	-0.341406
O129	O	-0.455070	-1.132960	-0.646028
O130	O	0.044930	-0.632960	-0.146028
H131	H	-0.487957	-1.076386	-0.692812
H132	H	0.012043	-0.576386	-0.192812
O133	O	-0.258511	-1.132899	-0.366308
O134	O	0.241489	-0.632899	0.133692
H135	H	-0.225630	-1.076310	-0.319532
H136	H	0.274370	-0.576310	0.180468
H137	H	-0.793382	-1.355132	-0.568432
H138	H	-0.293382	-0.855132	-0.068432
H139	H	-0.921555	-1.455460	-0.668756
H140	H	-0.421555	-0.955460	-0.168756
H141	H	-0.919711	-1.652652	-0.617869
H142	H	-0.419711	-1.152652	-0.117869
O143	O	-0.787269	-1.461782	-0.696408
O144	O	-0.287269	-0.961782	-0.196408
H145	H	-0.835318	-1.473581	-0.749133
H146	H	-0.335318	-0.973581	-0.249133
H147	H	-0.793726	-1.691528	-0.478981
H148	H	-0.293726	-1.191528	0.021019
O149	O	-0.927197	-1.711895	-0.461938
O150	O	-0.427197	-1.211895	0.038062
H151	H	-0.879308	-1.752271	-0.425614
H152	H	-0.379308	-1.252271	0.074386
O153	O	-0.785689	-1.661438	-0.642572
O154	O	-0.285689	-1.161438	-0.142572
H155	H	-0.803759	-1.603343	-0.702032
H156	H	-0.303759	-1.103343	-0.202032
H157	H	-0.921378	-1.410943	-0.367387
H158	H	-0.421378	-0.910943	0.132613
