data_functionalizedCrystal
_audit_creation_method	'MofGen! by Chris Wilmer'
_symmetry_space_group_name_H-M	'P1'
_symmetry_Int_Tables_number	1
_symmetry_cell_setting	triclinic
loop_
_symmetry_equiv_pos_as_xyz
  x,y,z
_cell_length_a	12.759395
_cell_length_b	12.594516
_cell_length_c	12.759387
_cell_angle_alpha	89.970353
_cell_angle_beta	89.981185
_cell_angle_gamma	90.017589
loop_
_atom_site_label
_atom_site_type_symbol
_atom_site_fract_x
_atom_site_fract_y
_atom_site_fract_z
Zn1	Zn	1.606241	-0.423630	-0.594022
Zn2	Zn	1.606133	-0.601651	-0.418349
Zn3	Zn	1.430545	-0.423692	-0.418359
Zn4	Zn	1.430528	-0.601572	-0.593989
O5	O	1.518362	-0.512636	-0.506180
O6	O	1.753248	-0.447252	-0.570729
O7	O	1.582803	-0.578103	-0.271330
O8	O	1.453904	-0.274738	-0.441679
O9	O	1.753168	-0.578044	-0.441663
O10	O	1.582987	-0.274693	-0.570738
O11	O	1.453799	-0.447357	-0.271336
O12	O	1.283521	-0.447281	-0.441646
O13	O	1.453875	-0.577909	-0.741014
O14	O	1.283509	-0.577968	-0.570681
O15	O	1.582971	-0.447176	-0.741039
O16	O	1.582786	-0.750586	-0.441631
O17	O	1.453770	-0.750528	-0.570672
C18	C	1.245394	-0.512623	-0.506162
C19	C	1.128617	-0.512643	-0.506179
C20	C	1.128643	-0.648949	-0.640325
C21	C	1.073795	-0.717110	-0.707401
C22	C	0.964073	-0.717123	-0.707414
C23	C	0.909197	-0.648965	-0.640346
C24	C	0.964045	-0.580804	-0.573270
C25	C	1.073769	-0.580801	-0.573262
C26	C	0.964020	-0.444495	-0.439130
C27	C	1.073741	-0.444486	-0.439111
C28	C	0.909144	-0.376337	-0.372062
C29	C	0.963992	-0.308180	-0.304979
C30	C	1.073720	-0.308171	-0.304968
C31	C	1.128589	-0.376325	-0.372034
C32	C	1.518293	-0.789177	-0.506169
C33	C	1.518359	-0.907483	-0.506200
C34	C	1.448181	-0.976743	-0.576336
C35	C	1.422582	-1.047615	-0.480469
C36	C	1.544054	-1.047410	-0.602083
C37	C	1.492710	-0.976796	-0.410282
C38	C	1.614226	-0.976585	-0.531961
C39	C	1.588664	-1.047425	-0.436028
C40	C	1.792395	-0.512650	-0.506198
C41	C	1.909172	-0.512656	-0.506206
C42	C	1.518433	-0.512526	-0.780213
C43	C	1.518463	-0.512479	-0.896990
C44	C	1.518459	-0.235015	-0.506213
C45	C	1.518501	-0.116710	-0.506227
C46	C	1.384140	-0.376325	-0.897016
C47	C	1.316998	-0.308226	-0.951890
C48	C	1.317029	-0.308187	-1.061612
C49	C	1.384208	-0.376257	-1.116462
C50	C	1.451351	-0.444356	-1.061588
C51	C	1.451314	-0.444385	-0.951864
C52	C	1.585667	-0.580515	-1.061562
C53	C	1.585642	-0.580549	-0.951840
C54	C	1.652845	-0.648584	-1.116413
C55	C	1.719995	-0.716679	-1.061539
C56	C	1.719961	-0.716714	-0.951810
C57	C	1.652784	-0.648648	-0.896967
C58	C	1.518351	-0.512669	-0.233212
C59	C	1.518524	-0.512416	-0.116436
H60	H	1.118487	-0.772600	-0.762008
O61	O	0.910525	-0.242080	-0.239870
C62	C	0.741475	-0.181636	-0.180494
C63	C	0.801900	-0.256565	-0.254269
H64	H	0.653641	-0.193305	-0.192126
H65	H	0.762920	-0.200224	-0.095718
H66	H	0.763141	-0.095843	-0.199074
H67	H	0.780266	-0.342382	-0.235784
H68	H	0.780449	-0.237885	-0.339023
O69	O	1.126834	-0.241926	-0.239707
C70	C	1.115214	-0.106681	-0.106699
C71	C	1.054939	-0.181664	-0.180539
H72	H	1.057114	-0.057923	-0.058858
H73	H	1.166515	-0.155423	-0.051599
H74	H	1.166650	-0.051128	-0.155038
H75	H	1.003446	-0.237231	-0.132284
H76	H	1.003704	-0.132856	-0.235642
H77	H	1.648073	-1.078265	-0.376659
H78	H	1.774640	-0.772165	-0.907138
O79	O	0.910677	-0.783384	-0.772427
C80	C	0.786818	-0.927157	-0.786320
C81	C	0.847203	-0.852168	-0.712575
H82	H	0.735501	-0.982802	-0.737959
H83	H	0.735411	-0.878420	-0.841327
H84	H	0.844904	-0.975814	-0.834278
H85	H	0.789192	-0.803494	-0.664549
H86	H	0.898625	-0.900966	-0.657638
H87	H	1.262355	-0.252737	-1.106290
O88	O	1.652746	-0.648878	-0.790384
C89	C	1.625584	-0.750949	-0.632909
C90	C	1.625620	-0.750842	-0.753613
H91	H	1.603634	-0.833372	-0.603143
H92	H	1.706947	-0.728958	-0.603061
H93	H	1.566068	-0.690561	-0.603161
H94	H	1.685084	-0.811231	-0.783450
H95	H	1.544219	-0.772786	-0.783389
O96	O	1.710925	-0.939462	-0.557858
C97	C	1.894617	-0.934784	-0.514302
C98	C	1.785170	-0.976920	-0.484854
H99	H	1.954671	-0.965034	-0.455281
H100	H	1.916435	-0.963773	-0.596075
H101	H	1.893755	-0.844278	-0.513314
H102	H	1.785950	-1.067424	-0.485780
H103	H	1.763396	-0.947849	-0.403098
O104	O	1.377404	-0.939658	-0.647112
C105	C	1.349149	-0.835939	-0.803312
C106	C	1.429418	-0.877888	-0.723255
H107	H	1.391169	-0.785971	-0.864881
H108	H	1.308389	-0.905709	-0.843021
H109	H	1.288444	-0.785019	-0.761250
H110	H	1.490186	-0.928791	-0.765238
H111	H	1.470099	-0.808069	-0.683550
H112	H	0.819802	-0.376348	-0.372082
O113	O	1.325875	-1.084790	-0.454651
C114	C	1.142490	-1.090900	-0.499314
C115	C	1.251956	-1.048755	-0.528678
H116	H	1.082693	-1.061765	-0.559136
H117	H	1.143614	-1.181410	-0.498874
H118	H	1.120113	-1.060662	-0.418137
H119	H	1.274400	-1.078914	-0.609861
H120	H	1.250773	-0.958247	-0.529046
O121	O	1.785133	-0.782947	-1.114771
C122	C	1.836107	-0.963992	-1.148262
C123	C	1.762254	-0.889066	-1.087925
H124	H	1.817651	-1.049803	-1.126562
H125	H	1.824586	-0.952365	-1.236120
H126	H	1.920820	-0.945261	-1.126716
H127	H	1.677513	-0.907751	-1.109383
H128	H	1.773866	-0.900707	-1.000081
H129	H	1.652861	-0.648553	-1.205754
O130	O	1.570044	-1.084542	-0.698723
C131	C	1.691471	-1.187906	-0.801201
C132	C	1.662155	-1.145951	-0.691694
H133	H	1.765956	-1.237546	-0.795558
H134	H	1.624889	-1.239096	-0.832762
H135	H	1.705305	-1.118063	-0.856371
H136	H	1.648338	-1.215729	-0.636445
H137	H	1.728752	-1.094730	-0.660219
H138	H	1.217930	-0.376327	-0.372029
H139	H	0.819856	-0.648972	-0.640371
H140	H	1.217984	-0.648953	-0.640314
O141	O	1.466707	-0.939776	-0.313605
C142	C	1.437522	-0.786046	-0.205113
C143	C	1.466965	-0.827829	-0.314650
H144	H	1.437742	-0.695532	-0.205916
H145	H	1.356087	-0.815861	-0.183004
H146	H	1.497019	-0.815824	-0.145300
H147	H	1.407539	-0.798068	-0.374536
H148	H	1.548426	-0.798023	-0.336670
H149	H	1.384116	-0.376341	-0.807675
O150	O	1.251844	-0.242138	-0.898446
C151	C	1.192219	-0.181886	-0.729425
C152	C	1.266077	-0.256764	-0.789813
H153	H	1.203685	-0.193701	-0.641585
H154	H	1.210718	-0.096034	-0.750939
H155	H	1.107512	-0.200544	-0.751055
H156	H	1.350809	-0.238202	-0.768216
H157	H	1.247488	-0.342593	-0.768294
H158	H	1.384218	-0.376229	-1.205803
