data_functionalizedCrystal
_audit_creation_method	'MofGen! by Chris Wilmer'
_symmetry_space_group_name_H-M	'P1'
_symmetry_Int_Tables_number	1
_symmetry_cell_setting	triclinic
loop_
_symmetry_equiv_pos_as_xyz
  x,y,z
_cell_length_a	13.032831
_cell_length_b	12.645330
_cell_length_c	13.032268
_cell_angle_alpha	82.848794
_cell_angle_beta	89.113023
_cell_angle_gamma	82.817450
loop_
_atom_site_label
_atom_site_type_symbol
_atom_site_fract_x
_atom_site_fract_y
_atom_site_fract_z
Zn1	Zn	1.498543	-0.715938	0.780857
Zn2	Zn	1.998543	-0.215938	1.280857
Zn3	Zn	1.520300	-0.873886	0.608882
Zn4	Zn	2.020300	-0.373886	1.108882
Zn5	Zn	1.348398	-0.671652	0.587097
Zn6	Zn	1.848398	-0.171652	1.087097
Zn7	Zn	1.326547	-0.868154	0.759007
Zn8	Zn	1.826547	-0.368154	1.259007
O9	O	1.423447	-0.782407	0.683961
O10	O	1.923447	-0.282407	1.183961
O11	O	1.645352	-0.757822	0.776306
O12	O	2.145352	-0.257822	1.276306
O13	O	1.515746	-0.830924	0.462075
O14	O	2.015746	-0.330924	0.962075
O15	O	1.368354	-0.529188	0.612827
O16	O	1.868354	-0.029188	1.112827
O17	O	1.661336	-0.873866	0.649956
O18	O	2.161336	-0.373866	1.149956
O19	O	1.478665	-0.561724	0.755181
O20	O	1.978665	-0.061724	1.255181
O21	O	1.389450	-0.682344	0.446069
O22	O	1.889450	-0.182344	0.946069
O23	O	1.201577	-0.676786	0.591639
O24	O	1.701577	-0.176786	1.091639
O25	O	1.331113	-0.864097	0.905823
O26	O	1.831113	-0.364097	1.405823
O27	O	1.185523	-0.821155	0.717941
O28	O	1.685523	-0.321155	1.217941
O29	O	1.457478	-0.752265	0.921876
O30	O	1.957478	-0.252265	1.421876
O31	O	1.494559	-1.021464	0.628769
O32	O	1.994559	-0.521464	1.128769
O33	O	1.352210	-1.017253	0.739065
O34	O	1.852210	-0.517253	1.239065
C35	C	1.156232	-0.743544	0.650056
C36	C	1.656232	-0.243544	1.150056
C37	C	1.041914	-0.726946	0.635576
C38	C	1.541914	-0.226946	1.135576
C39	C	0.983043	-0.791070	0.691518
C40	C	1.483043	-0.291070	1.191518
C41	C	0.864889	-0.773917	0.676553
C42	C	1.364889	-0.273917	1.176553
C43	C	1.423399	-1.057828	0.683936
C44	C	1.923399	-0.557828	1.183936
C45	C	1.423468	-1.175671	0.683972
C46	C	1.923468	-0.675671	1.183972
C47	C	1.513102	-1.223179	0.614665
C48	C	2.013102	-0.723179	1.114665
C49	C	1.512955	-1.345681	0.614358
C50	C	2.012955	-0.845681	1.114358
C51	C	1.318784	-1.324651	0.641109
C52	C	1.818784	-0.824651	1.141109
C53	C	1.319269	-1.202045	0.640556
C54	C	1.819269	-0.702045	1.140556
C55	C	1.437647	-1.237046	0.796295
C56	C	1.937647	-0.737046	1.296295
C57	C	1.440160	-1.359944	0.796054
C58	C	1.940160	-0.859944	1.296054
C59	C	1.691705	-0.821424	0.717998
C60	C	2.191705	-0.321424	1.217998
C61	C	1.806020	-0.838050	0.732503
C62	C	2.306020	-0.338050	1.232503
C63	C	1.389431	-0.812481	0.952209
C64	C	1.889431	-0.312481	1.452209
C65	C	1.374936	-0.825297	1.066520
C66	C	1.874936	-0.325297	1.566520
C67	C	1.423520	-0.505918	0.684011
C68	C	1.923520	-0.005918	1.184011
C69	C	1.423552	-0.388095	0.684033
C70	C	1.923552	0.111905	1.184033
C71	C	1.457389	-0.752382	0.416764
C72	C	1.957389	-0.252382	0.916764
C73	C	1.472084	-0.739297	0.302478
C74	C	1.972084	-0.239297	0.802478
C75	C	1.430996	-0.775678	1.125426
C76	C	1.930996	-0.275678	1.625426
C77	C	1.416016	-0.788923	1.243573
C78	C	1.916016	-0.288923	1.743573
H79	H	1.591067	-1.389434	0.642776
H80	H	2.091067	-0.889434	1.142776
H81	H	1.517192	-1.403029	0.828175
H82	H	2.017192	-0.903029	1.328175
H83	H	0.827821	-0.706311	0.617580
H84	H	1.327821	-0.206311	1.117580
H85	H	0.843086	-0.905648	0.791487
H86	H	1.343086	-0.405648	1.291487
H87	H	1.490078	-0.723388	1.088390
H88	H	1.990078	-0.223388	1.588390
H89	H	1.531168	-0.687001	1.265448
H90	H	2.031168	-0.187001	1.765448
H91	H	1.591467	-1.207381	0.642895
H92	H	2.091467	-0.707381	1.142895
C93	C	1.538095	-1.214479	0.845515
C94	C	2.038095	-0.714479	1.345515
N95	N	1.613759	-1.197481	0.882577
N96	N	2.113759	-0.697481	1.382577
H97	H	1.250802	-1.351241	0.689456
H98	H	1.750802	-0.851241	1.189456
C99	C	0.991836	-0.635621	0.555904
C100	C	1.491836	-0.135621	1.055904
N101	N	0.954119	-0.566833	0.495893
N102	N	1.454119	-0.066833	0.995893
C103	C	1.336184	-0.859560	1.293597
C104	C	1.836184	-0.359560	1.793597
N105	N	1.276055	-0.912762	1.331276
N106	N	1.776055	-0.412762	1.831276
C107	C	1.502093	-1.165903	0.503260
C108	C	2.002093	-0.665903	1.003260
N109	N	1.493797	-1.122762	0.419350
N110	N	1.993797	-0.622762	0.919350
C111	C	1.295108	-0.895931	1.116548
C112	C	1.795108	-0.395931	1.616548
N113	N	1.234979	-0.949133	1.154227
N114	N	1.734979	-0.449133	1.654227
C115	C	1.501744	-1.369538	0.502322
C116	C	2.001744	-0.869538	1.002322
N117	N	1.493294	-1.387504	0.417932
N118	N	1.993294	-0.887504	0.917932
C119	C	1.300906	-1.146796	0.529095
C120	C	1.800906	-0.646796	1.029095
N121	N	1.287073	-1.105188	0.445139
N122	N	1.787073	-0.605188	0.945139
C123	C	1.226970	-1.158315	0.704815
C124	C	1.726970	-0.658315	1.204815
N125	N	1.157452	-1.125383	0.753215
N126	N	1.657452	-0.625383	1.253215
H127	H	1.378580	-1.389757	0.851565
H128	H	1.878580	-0.889757	1.351565
C129	C	1.033121	-0.882396	0.771188
C130	C	1.533121	-0.382396	1.271188
N131	N	1.070839	-0.951188	0.831195
N132	N	1.570839	-0.451188	1.331195
H133	H	1.372201	-1.206250	0.848102
H134	H	1.872201	-0.706250	1.348102
H135	H	1.304697	-1.343102	0.559441
H136	H	1.804697	-0.843102	1.059441
