data_functionalizedCrystal
_audit_creation_method	'MofGen! by Chris Wilmer'
_symmetry_space_group_name_H-M	'P1'
_symmetry_Int_Tables_number	1
_symmetry_cell_setting	triclinic
loop_
_symmetry_equiv_pos_as_xyz
  x,y,z
_cell_length_a	23.532350
_cell_length_b	15.995300
_cell_length_c	14.472311
_cell_angle_alpha	90.006905
_cell_angle_beta	90.011737
_cell_angle_gamma	96.851476
loop_
_atom_site_label
_atom_site_type_symbol
_atom_site_fract_x
_atom_site_fract_y
_atom_site_fract_z
O1	O	-0.755649	0.101425	0.076712
O2	O	-0.255649	0.601425	0.576712
O3	O	-0.589836	0.116182	0.076739
O4	O	-0.089836	0.616182	0.576739
O5	O	-0.677290	-0.013127	0.076729
O6	O	-0.177290	0.486873	0.576729
O7	O	-0.668195	0.230733	0.076721
O8	O	-0.168195	0.730733	0.576721
O9	O	-0.677302	-0.013150	-0.076953
O10	O	-0.177302	0.486850	0.423047
O11	O	-0.589848	0.116158	-0.076943
O12	O	-0.089848	0.616158	0.423057
O13	O	-0.755661	0.101401	-0.076970
O14	O	-0.255661	0.601401	0.423030
Cu15	Cu	-0.672755	0.108778	-0.090989
Cu16	Cu	-0.172755	0.608778	0.409011
Cu17	Cu	-0.672741	0.108805	0.090758
Cu18	Cu	-0.172741	0.608805	0.590758
O19	O	-0.668207	0.230709	-0.076961
O20	O	-0.168207	0.730709	0.423039
C21	C	-0.568624	0.115802	-0.000099
C22	C	-0.068624	0.615802	0.499901
C23	C	-0.505401	0.114695	-0.000088
C24	C	-0.005401	0.614695	0.499912
C25	C	-0.676925	-0.044331	-0.000109
C26	C	-0.176925	0.455669	0.499891
C27	C	-0.675813	-0.137274	-0.000099
C28	C	-0.175813	0.362726	0.499901
C29	C	-0.113366	0.107728	-0.083901
C30	C	0.386634	0.607728	0.416099
C31	C	-0.053963	0.106675	-0.083905
C32	C	0.446037	0.606675	0.416095
O33	O	-0.023247	0.106091	-0.155149
O34	O	0.476753	0.606091	0.344851
N35	N	-0.024246	0.106165	-0.000134
N36	N	0.475754	0.606165	0.499866
C37	C	-0.053936	0.106700	0.083647
C38	C	0.446064	0.606700	0.583647
O39	O	-0.023205	0.106170	0.154901
O40	O	0.476795	0.606170	0.654901
C41	C	-0.113339	0.107748	0.083650
C42	C	0.386661	0.607748	0.583650
C43	C	-0.143052	0.108265	-0.000127
C44	C	0.356948	0.608265	0.499873
C45	C	-0.143079	0.108244	-0.167671
C46	C	0.356921	0.608244	0.332329
C47	C	-0.202479	0.109299	-0.167667
C48	C	0.297521	0.609299	0.332333
C49	C	-0.232165	0.109837	-0.083893
C50	C	0.267835	0.609837	0.416107
C51	C	-0.202452	0.109320	-0.000122
C52	C	0.297548	0.609320	0.499878
C53	C	-0.143029	0.108277	0.167430
C54	C	0.356971	0.608277	0.667430
C55	C	-0.202436	0.109323	0.167426
C56	C	0.297564	0.609323	0.667426
C57	C	-0.232149	0.109841	0.083649
C58	C	0.267851	0.609841	0.583649
C59	C	-0.291537	0.110912	0.083657
C60	C	0.208463	0.610912	0.583657
N61	N	-0.321254	0.111422	-0.000115
N62	N	0.178746	0.611422	0.499885
C63	C	-0.291568	0.110884	-0.083890
C64	C	0.208432	0.610884	0.416110
C65	C	0.070814	0.104500	0.083635
C66	C	0.570814	0.604500	0.583635
C67	C	0.130216	0.103459	0.083633
C68	C	0.630216	0.603459	0.583633
C69	C	0.130185	0.103432	-0.083920
C70	C	0.630185	0.603432	0.416080
C71	C	0.070782	0.104479	-0.083917
C72	C	0.570782	0.604479	0.416083
C73	C	0.041097	0.105009	-0.000137
C74	C	0.541097	0.605009	0.499863
C75	C	-0.416310	0.113099	-0.083874
C76	C	0.083690	0.613099	0.416126
C77	C	-0.475715	0.114157	-0.083862
C78	C	0.024285	0.614157	0.416138
C79	C	-0.475679	0.114180	0.083690
C80	C	0.024321	0.614180	0.583690
C81	C	-0.416280	0.113127	0.083679
C82	C	0.083720	0.613127	0.583679
C83	C	-0.386597	0.112583	-0.000111
C84	C	0.113403	0.612583	0.499889
O85	O	-0.322291	0.111493	0.154864
O86	O	0.177709	0.611493	0.654864
O87	O	-0.322307	0.111404	-0.155131
O88	O	0.177693	0.611404	0.344869
C89	C	-0.673759	-0.307439	-0.000108
C90	C	-0.173759	0.192561	0.499892
C91	C	-0.736028	-0.355442	-0.000116
C92	C	-0.236028	0.144558	0.499884
C93	C	-0.734892	-0.452120	-0.000468
C94	C	-0.234892	0.047880	0.499532
C95	C	-0.671738	-0.474978	-0.000115
C96	C	-0.171738	0.025022	0.499885
C97	C	-0.640850	-0.433591	-0.087697
C98	C	-0.140850	0.066409	0.412303
C99	C	-0.642426	-0.336971	-0.087767
C100	C	-0.142426	0.163029	0.412233
C101	C	-0.641491	-0.336661	0.087004
C102	C	-0.141491	0.163339	0.587004
C103	C	-0.641496	-0.433605	0.088152
C104	C	-0.141496	0.066395	0.588152
C105	C	-0.670592	-0.569664	-0.000123
C106	C	-0.170592	-0.069664	0.499877
C107	C	-0.674903	-0.212753	-0.000107
C108	C	-0.174903	0.287247	0.499893
C109	C	0.223128	0.101788	-0.000133
C110	C	0.723128	0.601788	0.499867
C111	C	0.159907	0.102917	-0.000142
C112	C	0.659907	0.602917	0.499858
C113	C	-0.668572	0.261913	-0.000121
C114	C	-0.168572	0.761913	0.499879
C115	C	-0.669684	0.354856	-0.000124
C116	C	-0.169684	0.854856	0.499876
N117	N	-0.672732	0.108819	0.218589
N118	N	-0.172732	0.608819	0.718589
N119	N	-0.672769	0.108757	-0.218820
N120	N	-0.172769	0.608757	0.281180
C121	C	-0.672757	0.108777	0.592680
C122	C	-0.172757	0.608777	1.092680
C123	C	-0.626012	0.178042	0.553519
C124	C	-0.126012	0.678042	1.053519
C125	C	-0.625838	0.177878	0.446431
C126	C	-0.125838	0.677878	0.946431
C127	C	-0.672744	0.108799	0.407089
C128	C	-0.172744	0.608799	0.907089
C129	C	-0.659932	0.021471	0.445947
C130	C	-0.159932	0.521471	0.945947
C131	C	-0.659603	0.021866	0.553069
C132	C	-0.159603	0.521866	1.053069
C133	C	-0.732452	0.126058	0.553183
C134	C	-0.232452	0.626058	1.053183
C135	C	-0.732047	0.128060	0.446055
C136	C	-0.232047	0.628060	0.946055
C137	C	-0.672739	0.108805	0.302201
C138	C	-0.172739	0.608805	0.802201
C139	C	-0.672761	0.108765	0.697568
C140	C	-0.172761	0.608765	1.197568
H141	H	-0.499904	0.114582	-0.152087
H142	H	0.000096	0.614582	0.347913
H143	H	-0.581534	0.166873	0.420816
H144	H	-0.081534	0.666873	0.920816
H145	H	-0.616899	0.005819	0.419122
H146	H	-0.116899	0.505819	0.919122
H147	H	-0.581958	0.167191	0.580449
H148	H	-0.081958	0.667191	1.080449
H149	H	0.046594	0.104901	-0.152136
H150	H	0.546594	0.604901	0.347864
H151	H	-0.596701	-0.304304	-0.091498
H152	H	-0.096701	0.195696	0.408502
H153	H	-0.633495	0.243177	0.579293
H154	H	-0.133495	0.743177	1.079293
H155	H	-0.741768	0.192306	0.420674
H156	H	-0.241768	0.692306	0.920674
H157	H	-0.767237	0.075547	0.578510
H158	H	-0.267237	0.575547	1.078510
H159	H	-0.616072	0.006593	0.578064
H160	H	-0.116072	0.506593	1.078064
H161	H	-0.633445	0.242801	0.420160
H162	H	-0.133445	0.742801	0.920160
H163	H	0.154366	0.102992	-0.152134
H164	H	0.654366	0.602992	0.347866
H165	H	-0.226603	0.109756	0.235652
H166	H	0.273397	0.609756	0.735652
H167	H	-0.759067	-0.480184	-0.063625
H168	H	-0.259067	0.019816	0.436375
H169	H	0.046648	0.104940	0.151863
H170	H	0.546648	0.604940	0.651863
H171	H	-0.392149	0.112664	-0.152104
H172	H	0.107851	0.612664	0.347896
H173	H	0.154405	0.103051	0.151853
H174	H	0.654405	0.603051	0.651853
H175	H	-0.761044	-0.337169	0.062688
H176	H	-0.261044	0.162831	0.562688
H177	H	-0.594446	-0.447291	-0.090701
H178	H	-0.094446	0.052709	0.409299
H179	H	-0.226666	0.109716	-0.235887
H180	H	0.273334	0.609716	0.264113
H181	H	-0.662055	-0.462136	-0.153128
H182	H	-0.162055	0.037864	0.346872
H183	H	-0.595578	-0.304494	0.087847
H184	H	-0.095578	0.195506	0.587847
H185	H	-0.664052	-0.461131	0.152946
H186	H	-0.164052	0.038869	0.652946
H187	H	-0.661985	-0.316326	0.153408
H188	H	-0.161985	0.183674	0.653408
H189	H	-0.118847	0.107854	0.235651
H190	H	0.381153	0.607854	0.735651
H191	H	-0.744806	0.188354	0.580211
H192	H	-0.244806	0.688354	1.080211
H193	H	-0.768448	0.080865	0.419272
H194	H	-0.268448	0.580865	0.919272
H195	H	-0.692364	-0.031209	0.578972
H196	H	-0.192364	0.468791	1.078972
H197	H	-0.392085	0.112719	0.151897
H198	H	0.107915	0.612719	0.651897
H199	H	-0.595453	-0.448552	0.093711
H200	H	-0.095453	0.051448	0.593711
H201	H	-0.499860	0.114622	0.151897
H202	H	0.000140	0.614622	0.651897
H203	H	-0.759163	-0.480784	0.062298
H204	H	-0.259163	0.019216	0.562298
H205	H	-0.118915	0.107805	-0.235894
H206	H	0.381085	0.607805	0.264106
H207	H	-0.760701	-0.335996	-0.062789
H208	H	-0.260701	0.164004	0.437211
H209	H	-0.664695	-0.318853	-0.153492
H210	H	-0.164695	0.181147	0.346508
H211	H	-0.693078	-0.031293	0.420461
H212	H	-0.193078	0.468707	0.920461
