data_functionalizedCrystal
_audit_creation_method	'MofGen! by Chris Wilmer'
_symmetry_space_group_name_H-M	'P1'
_symmetry_Int_Tables_number	1
_symmetry_cell_setting	triclinic
loop_
_symmetry_equiv_pos_as_xyz
  x,y,z
_cell_length_a	12.645331
_cell_length_b	19.121063
_cell_length_c	12.645323
_cell_angle_alpha	92.408124
_cell_angle_beta	89.977324
_cell_angle_gamma	92.467980
loop_
_atom_site_label
_atom_site_type_symbol
_atom_site_fract_x
_atom_site_fract_y
_atom_site_fract_z
Zn1	Zn	1.602654	-0.279627	-0.617388
Zn2	Zn	1.594942	-0.397086	-0.447665
Zn3	Zn	1.425367	-0.279651	-0.440134
Zn4	Zn	1.417760	-0.397040	-0.624877
O5	O	1.510181	-0.338351	-0.532516
O6	O	1.749978	-0.295217	-0.594892
O7	O	1.572404	-0.381537	-0.298321
O8	O	1.455295	-0.181363	-0.457361
O9	O	1.744312	-0.381514	-0.470197
O10	O	1.585547	-0.181346	-0.587589
O11	O	1.447818	-0.295258	-0.292788
O12	O	1.276011	-0.295213	-0.464623
O13	O	1.442330	-0.381436	-0.772230
O14	O	1.270422	-0.381459	-0.600353
O15	O	1.578171	-0.295173	-0.766727
O16	O	1.565027	-0.495364	-0.477459
O17	O	1.434852	-0.495330	-0.607656
C18	C	1.234752	-0.338334	-0.532485
C19	C	1.116921	-0.338344	-0.532497
C20	C	0.952854	-0.283838	-0.447545
C21	C	1.075405	-0.283979	-0.447195
C22	C	1.067618	-0.412331	-0.506730
C23	C	0.945039	-0.412033	-0.506155
C24	C	0.950986	-0.319567	-0.643576
C25	C	1.073698	-0.317914	-0.642847
C26	C	1.498306	-0.520831	-0.544210
C27	C	1.493323	-0.598897	-0.549248
C28	C	1.558810	-0.635567	-0.483885
C29	C	1.554130	-0.708918	-0.488629
C30	C	1.483957	-0.745598	-0.558733
C31	C	1.418467	-0.708923	-0.624104
C32	C	1.423154	-0.635573	-0.619364
C33	C	1.466419	-0.967067	-0.576438
C34	C	1.461736	-1.040422	-0.581171
C35	C	1.597400	-1.040412	-0.445697
C36	C	1.602076	-0.967061	-0.440959
C37	C	1.536590	-0.930392	-0.506334
C38	C	1.479169	-0.820575	-0.563582
C39	C	1.541384	-0.855417	-0.501489
C40	C	1.786685	-0.338368	-0.532549
C41	C	1.904514	-0.338375	-0.532563
C42	C	1.510262	-0.338296	-0.809018
C43	C	1.510297	-0.338273	-0.926847
C44	C	1.522130	-0.155158	-0.520800
C45	C	1.527222	-0.077092	-0.515807
C46	C	1.424603	-0.392285	-1.097856
C47	C	1.424801	-0.392553	-0.975313
C48	C	1.620698	-0.358362	-0.972656
C49	C	1.620225	-0.358700	-1.095276
C50	C	1.486666	-0.263871	-1.089271
C51	C	1.484145	-0.264317	-0.966693
C52	C	1.510164	-0.338354	-0.257087
C53	C	1.510347	-0.338179	-0.139246
H54	H	0.923516	-0.266557	-0.667927
H55	H	0.915362	-0.427984	-0.425139
H56	H	1.103879	-0.296410	-0.364833
H57	H	1.607456	-0.738771	-0.435402
O58	O	0.902158	-0.467683	-0.584931
H59	H	0.855047	-0.442882	-0.646019
O60	O	1.316174	-0.375880	-0.934356
H61	H	1.263025	-0.367558	-1.002099
H62	H	1.598523	-0.825550	-0.444415
H63	H	1.542416	-0.221874	-0.933348
O64	O	1.395788	-0.927515	-0.646933
H65	H	1.344024	-0.894144	-0.597271
O66	O	1.315619	-0.375793	-1.135819
H67	H	1.314094	-0.378196	-1.223660
H68	H	1.422032	-0.850448	-0.620658
O69	O	1.111135	-0.366689	-0.730749
H70	H	1.041620	-0.393292	-0.771111
O71	O	1.382218	-0.239617	-1.128643
H72	H	1.367347	-0.187120	-1.092264
H73	H	1.106322	-0.263468	-0.662363
H74	H	1.549176	-0.223560	-1.115698
O75	O	1.444534	-0.464797	-1.143371
H76	H	1.515250	-0.462470	-1.195335
O77	O	1.647542	-0.430657	-1.137794
H78	H	1.720461	-0.426437	-1.186408
O79	O	0.910956	-0.300136	-0.339082
H80	H	0.823449	-0.297457	-0.338832
O81	O	1.119989	-0.211301	-0.467831
H82	H	1.054010	-0.175737	-0.478149
O83	O	1.102678	-0.467603	-0.586444
H84	H	1.155748	-0.442867	-0.645412
H85	H	0.926948	-0.228808	-0.462935
O86	O	1.707389	-0.308782	-1.131400
H87	H	1.749697	-0.284511	-1.061291
O88	O	1.444854	-0.465541	-0.941150
H89	H	1.454481	-0.500779	-1.012193
O90	O	1.106819	-0.433833	-0.400606
H91	H	1.083432	-0.394961	-0.338208
O92	O	1.707328	-0.307826	-0.930810
H93	H	1.672531	-0.267762	-0.876787
O94	O	1.648632	-0.429560	-0.936573
H95	H	1.726855	-0.443179	-0.969464
H96	H	0.919439	-0.359290	-0.706863
O97	O	1.376567	-0.244241	-0.926841
H98	H	1.315659	-0.283641	-0.956958
O99	O	1.634502	-0.596005	-0.408277
H100	H	1.679261	-0.633830	-0.363632
H101	H	1.659216	-0.937197	-0.383875
O102	O	1.386054	-1.079989	-0.656794
H103	H	1.341312	-1.042169	-0.701465
H104	H	1.650716	-1.070275	-0.392474
O105	O	1.342766	-0.748480	-0.699706
H106	H	1.350495	-0.805646	-0.692010
O107	O	1.352510	-0.596017	-0.689850
H108	H	1.302916	-0.633844	-0.739384
