data_functionalizedCrystal
_audit_creation_method	'MofGen! by Chris Wilmer'
_symmetry_space_group_name_H-M	'P1'
_symmetry_Int_Tables_number	1
_symmetry_cell_setting	triclinic
loop_
_symmetry_equiv_pos_as_xyz
  x,y,z
_cell_length_a	15.995343
_cell_length_b	15.995350
_cell_length_c	13.330367
_cell_angle_alpha	89.992805
_cell_angle_beta	90.002584
_cell_angle_gamma	83.490779
loop_
_atom_site_label
_atom_site_type_symbol
_atom_site_fract_x
_atom_site_fract_y
_atom_site_fract_z
O1	O	1.110994	0.107883	0.083318
O2	O	1.444327	0.441217	0.416651
O3	O	1.777661	0.774550	0.749984
O4	O	0.867218	0.121218	0.083341
O5	O	1.200551	0.454551	0.416675
O6	O	1.533884	0.787884	0.750008
O7	O	0.995770	-0.007337	0.083328
O8	O	1.329103	0.325996	0.416661
O9	O	1.662436	0.659329	0.749995
O10	O	0.982442	0.236438	0.083331
O11	O	1.315775	0.569772	0.416664
O12	O	1.649109	0.903105	0.749998
O13	O	0.995750	-0.007317	-0.083519
O14	O	1.329083	0.326016	0.249814
O15	O	1.662417	0.659350	0.583148
O16	O	0.867198	0.121238	-0.083506
O17	O	1.200531	0.454571	0.249827
O18	O	1.533865	0.787905	0.583161
O19	O	1.110974	0.107904	-0.083529
O20	O	1.444308	0.441237	0.249804
O21	O	1.777641	0.774570	0.583137
Cu22	Cu	0.989084	0.114573	-0.098752
Cu23	Cu	1.322418	0.447906	0.234581
Cu24	Cu	1.655751	0.781239	0.567915
Cu25	Cu	0.989108	0.114548	0.098564
Cu26	Cu	1.322441	0.447882	0.431897
Cu27	Cu	1.655774	0.781215	0.765231
O28	O	0.982422	0.236459	-0.083516
O29	O	1.315756	0.569792	0.249817
O30	O	1.649089	0.903125	0.583151
C31	C	0.836013	0.120678	-0.000079
C32	C	1.169346	0.454011	0.333254
C33	C	1.502680	0.787344	0.666587
C34	C	0.743062	0.119028	-0.000070
C35	C	1.076396	0.452362	0.333263
C36	C	1.409729	0.785695	0.666597
C37	C	0.572876	0.116035	-0.000084
C38	C	0.906209	0.449368	0.333250
C39	C	1.239543	0.782702	0.666583
C40	C	0.549530	0.023238	-0.000084
C41	C	0.882864	0.356571	0.333249
C42	C	1.216197	0.689905	0.666582
C43	C	0.452852	0.021492	-0.000469
C44	C	0.786186	0.354825	0.332864
C45	C	1.119519	0.688159	0.666198
C46	C	0.405316	0.113086	-0.000096
C47	C	0.738649	0.446420	0.333238
C48	C	1.071983	0.779753	0.666571
C49	C	0.434396	0.159758	-0.095183
C50	C	0.767730	0.493091	0.238150
C51	C	1.101063	0.826425	0.571483
C52	C	0.531189	0.160859	-0.095257
C53	C	0.864522	0.494192	0.238076
C54	C	1.197856	0.827525	0.571409
C55	C	0.531122	0.162194	0.094486
C56	C	0.864455	0.495527	0.427819
C57	C	1.197788	0.828861	0.761152
C58	C	0.434627	0.158768	0.095730
C59	C	0.767960	0.492101	0.429063
C60	C	1.101294	0.825435	0.762396
C61	C	0.310618	0.111425	-0.000106
C62	C	0.643951	0.444758	0.333227
C63	C	0.977284	0.778092	0.666561
C64	C	0.667574	0.117699	-0.000080
C65	C	1.000907	0.451032	0.333253
C66	C	1.334240	0.784366	0.666587
C67	C	0.995209	-0.038522	-0.000094
C68	C	1.328542	0.294811	0.333240
C69	C	1.661875	0.628145	0.666573
C70	C	0.993557	-0.131472	-0.000088
C71	C	1.326890	0.201861	0.333246
C72	C	1.660224	0.535194	0.666579
C73	C	0.987625	-0.469220	-0.000091
C74	C	1.320958	-0.135886	0.333243
C75	C	1.654291	0.197447	0.666576
C76	C	0.896072	-0.421783	0.000292
C77	C	1.229406	-0.088450	0.333626
C78	C	1.562739	0.244884	0.666959
C79	C	0.897725	-0.325093	-0.000084
C80	C	1.231058	0.008241	0.333250
C81	C	1.564391	0.341574	0.666583
C82	C	0.990567	-0.301659	-0.000089
C83	C	1.323901	0.031674	0.333245
C84	C	1.657234	0.365008	0.666578
C85	C	1.035713	-0.342726	-0.095369
C86	C	1.369046	-0.009393	0.237964
C87	C	1.702379	0.323941	0.571298
C88	C	1.033413	-0.439362	-0.095449
C89	C	1.366746	-0.106028	0.237885
C90	C	1.700080	0.227305	0.571218
C91	C	1.035327	-0.439743	0.094288
C92	C	1.368660	-0.106410	0.427621
C93	C	1.701993	0.226923	0.760954
C94	C	1.035305	-0.342798	0.095547
C95	C	1.368638	-0.009465	0.428880
C96	C	1.701972	0.323869	0.762213
C97	C	0.992235	-0.206962	-0.000091
C98	C	1.325568	0.126372	0.333242
C99	C	1.658902	0.459705	0.666576
C100	C	0.985960	-0.563917	-0.000095
C101	C	1.319293	-0.230584	0.333238
C102	C	1.652626	0.102749	0.666572
C103	C	1.142179	0.108444	-0.000107
C104	C	1.475512	0.441777	0.333227
C105	C	1.808846	0.775110	0.666560
C106	C	1.235130	0.110093	-0.000109
C107	C	1.568463	0.443426	0.333224
C108	C	1.901796	0.776759	0.666558
C109	C	0.982983	0.267643	-0.000092
C110	C	1.316317	0.600977	0.333241
C111	C	1.649650	0.934310	0.666574
C112	C	0.984635	0.360594	-0.000091
C113	C	1.317968	0.693927	0.333242
C114	C	1.651302	1.027260	0.666575
N115	N	0.989074	0.114589	-0.237534
N116	N	1.322407	0.447923	0.095800
N117	N	1.655741	0.781256	0.429133
C118	C	1.039898	0.165345	-0.710150
C119	C	1.373231	0.498678	-0.376817
C120	C	1.706565	0.832011	-0.043484
C121	C	0.938342	0.063719	-0.710130
C122	C	1.271676	0.397052	-0.376797
C123	C	1.605009	0.730385	-0.043464
C124	C	0.938330	0.063732	-0.605112
C125	C	1.271663	0.397065	-0.271779
C126	C	1.604997	0.730398	0.061554
C127	C	0.989104	0.114551	-0.552608
C128	C	1.322437	0.447884	-0.219275
C129	C	1.655770	0.781218	0.114059
C130	C	1.039889	0.165357	-0.605122
C131	C	1.373223	0.498691	-0.271789
C132	C	1.706556	0.832024	0.061544
C133	C	0.887552	0.012920	-0.552590
C134	C	1.220885	0.346253	-0.219257
C135	C	1.554218	0.679586	0.114077
C136	C	0.887538	0.012930	-0.447565
C137	C	1.220871	0.346263	-0.114232
C138	C	1.554205	0.679597	0.219101
C139	C	0.938308	0.063755	-0.395059
C140	C	1.271641	0.397088	-0.061726
C141	C	1.604975	0.730421	0.271607
C142	C	0.989095	0.114564	-0.447580
C143	C	1.322428	0.447897	-0.114247
C144	C	1.655762	0.781230	0.219087
C145	C	1.039869	0.165383	-0.395076
C146	C	1.373202	0.498716	-0.061743
C147	C	1.706535	0.832050	0.271591
C148	C	1.090652	0.216197	-0.447595
C149	C	1.423985	0.549531	-0.114261
C150	C	1.757318	0.882864	0.219072
C151	C	1.090659	0.216182	-0.552616
C152	C	1.423992	0.549515	-0.219283
C153	C	1.757326	0.882849	0.114050
C154	C	0.938300	0.063770	-0.290038
C155	C	1.271634	0.397103	0.043296
C156	C	1.604967	0.730437	0.376629
C157	C	1.039860	0.165396	-0.290048
C158	C	1.373193	0.498729	0.043286
C159	C	1.706526	0.832063	0.376619
N160	N	0.989125	0.114525	0.237346
N161	N	1.322458	0.447859	0.570679
N162	N	1.655791	0.781192	0.904012
H163	H	0.577546	-0.012739	0.068093
H164	H	0.910879	0.320594	0.401427
H165	H	1.244212	0.653927	0.734760
H166	H	0.859488	-0.440322	0.068620
H167	H	1.192821	-0.106989	0.401953
H168	H	1.526155	0.226344	0.735287
F169	F	0.833518	-0.041161	-0.608473
F170	F	1.166852	0.292172	-0.275140
F171	F	1.500185	0.625505	0.058193
H172	H	1.132006	0.257550	-0.595386
H173	H	1.465339	0.590884	-0.262053
H174	H	1.798673	0.924217	0.071280
F175	F	1.093937	0.219427	-0.766044
F176	F	1.427271	0.552761	-0.432710
F177	F	1.760604	0.886094	-0.099377
F178	F	1.144692	0.270276	-0.391704
F179	F	1.478026	0.603609	-0.058371
F180	F	1.811359	0.936943	0.274963
H181	H	1.081202	0.206784	-0.247306
H182	H	1.414536	0.540117	0.086027
H183	H	1.747869	0.873451	0.419360
F184	F	0.851003	-0.288655	-0.089500
F185	F	1.184337	0.044678	0.243834
F186	F	1.517670	0.378012	0.577167
F187	F	0.884270	0.009681	-0.234148
F188	F	1.217604	0.343014	0.099185
F189	F	1.550937	0.676348	0.432519
H190	H	0.846187	-0.028446	-0.404813
H191	H	1.179520	0.304888	-0.071480
H192	H	1.512854	0.638221	0.261853
F193	F	0.428000	-0.026259	0.088607
F194	F	0.761334	0.307075	0.421941
F195	F	1.094667	0.640408	0.755274
H196	H	1.005402	-0.460291	0.166504
H197	H	1.338736	-0.126958	0.499837
H198	H	1.672069	0.206376	0.833171
H199	H	0.578507	-0.012137	-0.068172
H200	H	0.911840	0.321197	0.265161
H201	H	1.245173	0.654530	0.598494
F202	F	0.884311	0.009634	-0.766012
F203	F	1.217644	0.342967	-0.432678
F204	F	1.550978	0.676301	-0.099345
H205	H	0.557966	0.128931	-0.166608
H206	H	0.891299	0.462264	0.166725
H207	H	1.224633	0.795598	0.500058
F208	F	0.428738	-0.026000	-0.090096
F209	F	0.762071	0.307333	0.243238
F210	F	1.095404	0.640666	0.576571
H211	H	1.000476	-0.457654	-0.166669
H212	H	1.333809	-0.124320	0.166665
H213	H	1.667143	0.209013	0.499998
F214	F	0.550240	0.249805	-0.100560
F215	F	0.883573	0.583138	0.232773
F216	F	1.216907	0.916471	0.566106
H217	H	1.102828	-0.471506	0.094924
H218	H	1.436161	-0.138173	0.428258
H219	H	1.769494	0.195161	0.761591
H220	H	1.100629	-0.471611	-0.099775
H221	H	1.433962	-0.138278	0.233558
H222	H	1.767295	0.195055	0.566892
H223	H	0.414296	0.127752	-0.166217
H224	H	0.747630	0.461085	0.167116
H225	H	1.080963	0.794419	0.500449
F226	F	0.392773	0.247870	-0.099459
F227	F	0.726106	0.581203	0.233874
F228	F	1.059439	0.914536	0.567208
F229	F	1.124867	-0.324266	-0.100009
F230	F	1.458200	0.009067	0.233324
F231	F	1.791534	0.342400	0.566658
H232	H	0.559400	0.132907	0.166582
H233	H	0.892734	0.466241	0.499915
H234	H	1.226067	0.799574	0.833248
F235	F	0.410405	0.114330	0.187680
F236	F	0.743739	0.447663	0.521014
F237	F	1.077072	0.780996	0.854347
F238	F	0.994708	-0.305620	-0.188044
F239	F	1.328042	0.027714	0.145289
F240	F	1.661375	0.361047	0.478623
F241	F	0.391558	0.246127	0.103617
F242	F	0.724892	0.579460	0.436951
F243	F	1.058225	0.912793	0.770284
H244	H	0.545135	0.230498	0.095403
H245	H	0.878468	0.563831	0.428737
H246	H	1.211802	0.897165	0.762070
H247	H	1.002298	-0.315557	0.166033
H248	H	1.335631	0.017776	0.499366
H249	H	1.668965	0.351109	0.832699
F250	F	1.123800	-0.322719	0.103068
F251	F	1.457134	0.010615	0.436401
F252	F	1.790467	0.343948	0.769735
H253	H	0.859634	-0.441368	-0.067648
H254	H	1.192968	-0.108034	0.265686
H255	H	1.526301	0.225299	0.599019
F256	F	0.851339	-0.287950	0.089190
F257	F	1.184672	0.045383	0.422524
F258	F	1.518006	0.378716	0.755857
