data_functionalizedCrystal
_audit_creation_method	'MofGen! by Chris Wilmer'
_symmetry_space_group_name_H-M	'P1'
_symmetry_Int_Tables_number	1
_symmetry_cell_setting	triclinic
loop_
_symmetry_equiv_pos_as_xyz
  x,y,z
_cell_length_a	12.594517
_cell_length_b	12.594516
_cell_length_c	13.897441
_cell_angle_alpha	90.026377
_cell_angle_beta	90.015180
_cell_angle_gamma	90.016010
loop_
_atom_site_label
_atom_site_type_symbol
_atom_site_fract_x
_atom_site_fract_y
_atom_site_fract_z
Zn1	Zn	1.627276	-0.423709	0.545267
Zn2	Zn	1.627164	-0.601720	0.383980
Zn3	Zn	1.449277	-0.423756	0.384001
Zn4	Zn	1.449262	-0.601646	0.545248
O5	O	1.538245	-0.512708	0.464624
O6	O	1.776207	-0.447334	0.523871
O7	O	1.603527	-0.578163	0.249001
O8	O	1.472942	-0.274804	0.405409
O9	O	1.776125	-0.578118	0.405374
O10	O	1.603717	-0.274770	0.523891
O11	O	1.472834	-0.447414	0.249016
O12	O	1.300329	-0.447342	0.405391
O13	O	1.472917	-0.577992	0.680232
O14	O	1.300318	-0.578037	0.523859
O15	O	1.603703	-0.447263	0.680246
O16	O	1.603512	-0.750656	0.405356
O17	O	1.472808	-0.750602	0.523839
C18	C	1.261704	-0.512687	0.464626
C19	C	1.143399	-0.512704	0.464650
C20	C	1.003407	-0.583918	0.528965
C21	C	1.074176	-0.609826	0.440932
C22	C	1.074201	-0.486844	0.552673
C23	C	1.003382	-0.538697	0.376541
C24	C	1.003401	-0.415669	0.488342
C25	C	1.074138	-0.441540	0.400248
C26	C	1.538175	-0.789249	0.464614
C27	C	1.538243	-0.907554	0.464643
C28	C	1.467146	-0.976817	0.529040
C29	C	1.441211	-1.047682	0.441026
C30	C	1.564275	-1.047488	0.552672
C31	C	1.512257	-0.976862	0.376581
C32	C	1.635365	-0.976661	0.488287
C33	C	1.609467	-1.047495	0.400212
C34	C	1.815866	-0.512729	0.464622
C35	C	1.934171	-0.512739	0.464621
C36	C	1.538320	-0.512614	0.716217
C37	C	1.538353	-0.512574	0.823431
C38	C	1.538344	-0.235087	0.464654
C39	C	1.538386	-0.116782	0.464667
C40	C	1.538231	-0.512725	0.214009
C41	C	1.538405	-0.512465	0.106796
C42	C	1.538381	-0.512502	1.019726
C43	C	1.538362	-0.512545	0.910494
H44	H	0.972290	-0.333618	0.508426
H45	H	1.586234	-1.078511	0.627108
C46	C	1.744826	-0.935235	0.515048
C47	C	1.812816	-1.021011	0.532582
C48	C	1.913656	-0.982890	0.557261
H49	H	1.772208	-0.893770	0.463648
H50	H	1.739728	-0.892666	0.571311
H51	H	1.817917	-1.063562	0.476326
H52	H	1.785468	-1.062485	0.583986
H53	H	1.908557	-0.940321	0.613524
H54	H	1.941027	-0.941424	0.505857
H55	H	1.959796	-1.041082	0.569169
H56	H	0.972350	-0.644173	0.583298
H57	H	1.359143	-1.078901	0.421047
C58	C	1.115535	-0.457797	0.652030
C59	C	1.079673	-0.532588	0.719080
C60	C	1.117714	-0.505868	0.810619
H61	H	1.190950	-0.457378	0.651315
H62	H	1.090231	-0.389357	0.669367
H63	H	1.104983	-0.601010	0.701748
H64	H	1.004262	-0.533019	0.719825
H65	H	1.092410	-0.437428	0.827955
H66	H	1.193128	-0.505449	0.809893
H67	H	1.093379	-0.556603	0.856124
H68	H	1.104999	-0.381331	0.345784
H69	H	1.669653	-1.078333	0.345701
C70	C	1.115782	-0.719250	0.414341
C71	C	1.178493	-0.758390	0.489578
C72	C	1.216843	-0.859184	0.465118
H73	H	1.057732	-0.765943	0.403592
H74	H	1.157328	-0.714375	0.357463
H75	H	1.136950	-0.763272	0.546438
H76	H	1.236559	-0.711727	0.500337
H77	H	1.258389	-0.854309	0.408241
H78	H	1.158787	-0.905868	0.454369
H79	H	1.259405	-0.885749	0.516158
C80	C	0.961880	-0.568055	0.277318
C81	C	0.850719	-0.567803	0.278478
C82	C	0.812449	-0.594862	0.187099
H83	H	0.986549	-0.517842	0.231499
H84	H	0.986644	-0.636810	0.260369
H85	H	0.825965	-0.499057	0.295415
H86	H	0.826022	-0.618016	0.324277
H87	H	0.837213	-0.663617	0.170150
H88	H	0.837125	-0.544646	0.141288
H89	H	0.737023	-0.594704	0.187876
H90	H	1.406914	-0.945782	0.583420
H91	H	1.490202	-0.945967	0.302125
