data_functionalizedCrystal
_audit_creation_method	'MofGen! by Chris Wilmer'
_symmetry_space_group_name_H-M	'P1'
_symmetry_Int_Tables_number	1
_symmetry_cell_setting	triclinic
loop_
_symmetry_equiv_pos_as_xyz
  x,y,z
_cell_length_a	19.188931
_cell_length_b	16.109301
_cell_length_c	14.586319
_cell_angle_alpha	90.005214
_cell_angle_beta	89.998028
_cell_angle_gamma	96.696869
loop_
_atom_site_label
_atom_site_type_symbol
_atom_site_fract_x
_atom_site_fract_y
_atom_site_fract_z
O1	O	0.926386	-0.103796	-0.076210
O2	O	1.426386	0.396204	0.423790
O3	O	0.723108	-0.117769	-0.076220
O4	O	1.223108	0.382231	0.423780
O5	O	0.830331	0.010267	-0.076205
O6	O	1.330331	0.510267	0.423795
O7	O	0.819163	-0.231832	-0.076225
O8	O	1.319163	0.268168	0.423775
O9	O	0.830324	0.010268	0.076275
O10	O	1.330324	0.510268	0.576275
O11	O	0.723100	-0.117767	0.076261
O12	O	1.223100	0.382233	0.576261
O13	O	0.926379	-0.103795	0.076271
O14	O	1.426379	0.396205	0.576271
Cu15	Cu	0.824739	-0.110781	0.090189
Cu16	Cu	1.324739	0.389219	0.590189
Cu17	Cu	0.824748	-0.110783	-0.090138
Cu18	Cu	1.324748	0.389217	0.409862
O19	O	0.819155	-0.231830	0.076256
O20	O	1.319155	0.268170	0.576256
C21	C	0.829875	0.041241	0.000035
C22	C	1.329875	0.541241	0.500035
C23	C	0.828519	0.133532	0.000037
C24	C	1.328519	0.633532	0.500037
C25	C	0.697092	-0.117316	0.000020
C26	C	1.197092	0.382684	0.500020
C27	C	0.619584	-0.115958	0.000016
C28	C	1.119584	0.384042	0.500016
C29	C	0.952395	-0.104248	0.000029
C30	C	1.452395	0.395752	0.500029
C31	C	1.029902	-0.105606	0.000027
C32	C	1.529902	0.394394	0.500027
C33	C	1.074651	-0.030479	0.000025
C34	C	1.574651	0.469521	0.500025
C35	C	1.147478	-0.031755	0.000030
C36	C	1.647478	0.468245	0.500030
C37	C	1.175553	-0.108163	0.000019
C38	C	1.675553	0.391837	0.500019
C39	C	1.130795	-0.183300	0.000026
C40	C	1.630795	0.316700	0.500026
C41	C	1.057969	-0.182022	0.000030
C42	C	1.557969	0.317978	0.500030
N43	N	1.283686	-0.166568	-0.051893
N44	N	1.783686	0.333432	0.448107
N45	N	1.352868	-0.167777	-0.051899
N46	N	1.852868	0.332223	0.448101
C47	C	1.394970	-0.112019	0.000010
C48	C	1.894970	0.387981	0.500010
N49	N	1.365279	-0.054993	0.051912
N50	N	1.865279	0.445007	0.551912
N51	N	1.296092	-0.053781	0.051913
N52	N	1.796092	0.446219	0.551913
C53	C	1.254519	-0.109557	0.000015
C54	C	1.754519	0.390443	0.500015
C55	C	1.518686	-0.038270	0.000015
C56	C	2.018686	0.461730	0.500015
C57	C	1.591514	-0.039549	0.000026
C58	C	2.091514	0.460451	0.500026
C59	C	1.574830	-0.191096	0.000013
C60	C	2.074830	0.308904	0.500013
C61	C	1.502003	-0.189815	0.000011
C62	C	2.002003	0.310185	0.500011
C63	C	1.473936	-0.113399	0.000007
C64	C	1.973936	0.386601	0.500007
C65	C	0.819612	-0.262805	0.000013
C66	C	1.319612	0.237195	0.500013
C67	C	0.820968	-0.355096	0.000006
C68	C	1.320968	0.144904	0.500006
N69	N	0.824738	-0.110779	0.217020
N70	N	1.324738	0.389221	0.717020
C71	C	0.888989	0.356005	0.000025
C72	C	1.388989	0.856005	0.500025
C73	C	0.887710	0.442721	0.000017
C74	C	1.387710	0.942721	0.500017
C75	C	0.760492	0.422425	0.000015
C76	C	1.260492	0.922425	0.500015
C77	C	0.761773	0.335710	0.000016
C78	C	1.261773	0.835710	0.500016
C79	C	0.826024	0.302503	0.000026
C80	C	1.326024	0.802503	0.500026
C81	C	0.823463	0.475933	0.000017
C82	C	1.323463	0.975933	0.500017
C83	C	0.822075	0.569955	0.000009
C84	C	1.322075	1.069955	0.500009
C85	C	0.827412	0.208475	0.000032
C86	C	1.327412	0.708475	0.500032
N87	N	0.824754	-0.110778	-0.216969
N88	N	1.324754	0.389222	0.283031
C89	C	0.872232	-0.054103	0.452033
C90	C	1.372232	0.445897	0.952033
C91	C	0.872234	-0.054101	0.548014
C92	C	1.372234	0.445899	1.048014
C93	C	0.777255	-0.167457	0.548011
C94	C	1.277255	0.332543	1.048011
C95	C	0.777250	-0.167454	0.452032
C96	C	1.277250	0.332546	0.952032
C97	C	0.824743	-0.110778	0.404045
C98	C	1.324743	0.389222	0.904045
C99	C	0.824750	-0.110779	0.596006
C100	C	1.324750	0.389221	1.096006
C101	C	0.824751	-0.110777	0.700073
C102	C	1.324751	0.389223	1.200073
C103	C	0.824740	-0.110779	0.299971
C104	C	1.324740	0.389221	0.799971
H105	H	1.051804	0.031744	0.000025
H106	H	1.551804	0.531744	0.500025
H107	H	1.021534	-0.243201	0.000032
H108	H	1.521534	0.256799	0.500032
N109	N	0.691198	0.458245	0.000023
N110	N	1.191198	0.958245	0.500023
H111	H	0.651503	0.411191	0.000023
H112	H	1.151503	0.911191	0.500023
H113	H	0.687894	0.493779	-0.056501
H114	H	1.187894	0.993779	0.443499
H115	H	0.941306	0.328970	0.000031
H116	H	1.441306	0.828970	0.500031
N117	N	1.453736	-0.270847	-0.000008
N118	N	1.953736	0.229153	0.499992
H119	H	1.403342	-0.258444	-0.000005
H120	H	1.903342	0.241556	0.499995
H121	H	1.462821	-0.304161	0.056513
H122	H	1.962821	0.195839	0.556513
H123	H	0.910903	-0.007950	0.587084
H124	H	1.410903	0.492050	1.087084
H125	H	1.495833	0.023952	0.000016
H126	H	1.995833	0.523952	0.500016
N127	N	0.923452	0.007023	0.400274
N128	N	1.423452	0.507023	0.900274
H129	H	0.953536	0.042928	0.445242
H130	H	1.453536	0.542928	0.945242
H131	H	0.896731	0.043700	0.360459
H132	H	1.396731	0.543700	0.860459
H133	H	0.938983	0.486279	0.000015
H134	H	1.438983	0.986279	0.500015
H135	H	0.710495	0.292146	0.000014
H136	H	1.210495	0.792146	0.500014
N137	N	1.639783	0.041485	0.000038
N138	N	2.139783	0.541485	0.500038
H139	H	1.610949	0.090084	0.000037
H140	H	2.110949	0.590084	0.500037
H141	H	1.670367	0.044254	-0.056485
H142	H	2.170367	0.544254	0.443515
N143	N	0.726037	-0.228582	0.599776
N144	N	1.226037	0.271418	1.099776
H145	H	0.752711	-0.265316	0.639587
H146	H	1.252711	0.234684	1.139587
H147	H	0.695961	-0.264428	0.554754
H148	H	1.195961	0.235572	1.054754
N149	N	1.195754	0.049277	0.000029
N150	N	1.695754	0.549277	0.500029
H151	H	1.166923	0.097879	0.000029
H152	H	1.666923	0.597879	0.500029
H153	H	1.226331	0.052039	-0.056500
H154	H	1.726331	0.552039	0.443500
N155	N	1.161070	-0.265712	0.000019
N156	N	1.661070	0.234288	0.500019
H157	H	1.213995	-0.255123	0.000013
H158	H	1.713995	0.244877	0.500013
H159	H	1.144696	-0.298579	-0.056508
H160	H	1.644696	0.201421	0.443492
N161	N	1.605099	-0.273510	0.000011
N162	N	2.105099	0.226490	0.500011
H163	H	1.658025	-0.262921	0.000011
H164	H	2.158025	0.237079	0.500011
H165	H	1.588729	-0.306377	-0.056517
H166	H	2.088729	0.193623	0.443483
H167	H	0.738575	-0.213606	0.412957
H168	H	1.238575	0.286394	0.912957
