data_functionalizedCrystal
_audit_creation_method	'MofGen! by Chris Wilmer'
_symmetry_space_group_name_H-M	'P1'
_symmetry_Int_Tables_number	1
_symmetry_cell_setting	triclinic
loop_
_symmetry_equiv_pos_as_xyz
  x,y,z
_cell_length_a	12.759401
_cell_length_b	12.759400
_cell_length_c	12.759393
_cell_angle_alpha	90.031084
_cell_angle_beta	90.018497
_cell_angle_gamma	90.014876
loop_
_atom_site_label
_atom_site_type_symbol
_atom_site_fract_x
_atom_site_fract_y
_atom_site_fract_z
Zn1	Zn	1.606244	-0.418196	0.594018
Zn2	Zn	1.606142	-0.593915	0.418340
Zn3	Zn	1.430550	-0.418252	0.418354
Zn4	Zn	1.430535	-0.593834	0.593978
O5	O	1.518368	-0.506049	0.506172
O6	O	1.753252	-0.441516	0.570725
O7	O	1.582813	-0.570670	0.271321
O8	O	1.453905	-0.271223	0.441678
O9	O	1.753177	-0.570616	0.441655
O10	O	1.582987	-0.271182	0.570738
O11	O	1.453806	-0.441611	0.271331
O12	O	1.283527	-0.441532	0.441640
O13	O	1.453880	-0.570478	0.741004
O14	O	1.283516	-0.570532	0.570670
O15	O	1.582973	-0.441437	0.741034
O16	O	1.582799	-0.740925	0.441616
O17	O	1.453781	-0.740866	0.570657
C18	C	1.245400	-0.506030	0.506153
C19	C	1.128624	-0.506047	0.506169
C20	C	1.073726	-0.573162	0.438871
C21	C	0.964002	-0.573180	0.438889
C22	C	0.964083	-0.438960	0.573507
C23	C	1.073805	-0.438948	0.573493
C24	C	1.073679	-0.650650	0.361147
C25	C	0.963955	-0.650668	0.361165
C26	C	1.518306	-0.779016	0.506154
C27	C	1.518375	-0.895793	0.506181
C28	C	1.585559	-0.950544	0.573439
C29	C	1.585618	-1.060268	0.573468
C30	C	1.451306	-1.060481	0.438970
C31	C	1.451243	-0.950759	0.438948
C32	C	1.623175	-1.210094	0.697437
C33	C	1.690375	-1.264848	0.764686
C34	C	1.792860	-1.229140	0.780898
C35	C	1.828165	-1.138678	0.729846
C36	C	1.760971	-1.083929	0.662589
C37	C	1.658471	-1.119636	0.646397
C38	C	1.413697	-0.800931	0.314977
C39	C	1.346507	-0.746180	0.247714
C40	C	1.244020	-0.781887	0.231491
C41	C	1.208718	-0.872352	0.282525
C42	C	1.275909	-0.927102	0.349788
C43	C	1.378394	-0.891388	0.366013
C44	C	1.792401	-0.506069	0.506193
C45	C	1.909178	-0.506077	0.506201
C46	C	1.518436	-0.505942	0.780206
C47	C	1.518465	-0.505897	0.896982
C48	C	1.518459	-0.232016	0.506214
C49	C	1.518498	-0.115239	0.506232
C50	C	1.518360	-0.506080	0.233205
C51	C	1.518535	-0.505829	0.116429
C52	C	1.451320	-0.438683	0.951856
C53	C	1.451351	-0.438652	1.061580
C54	C	1.585683	-0.573051	1.061548
C55	C	1.585645	-0.573086	0.951826
C56	C	1.373767	-0.361085	0.951875
C57	C	1.373799	-0.361054	1.061599
H58	H	0.919436	-0.384330	0.628320
O59	O	1.109116	-0.906875	0.266691
C60	C	1.057390	-0.839166	0.196363
H61	H	1.097021	-0.759090	0.197582
H62	H	0.971904	-0.830462	0.220811
H63	H	1.061416	-0.873195	0.113829
O64	O	1.650714	-0.638497	0.898477
C65	C	1.590847	-0.706348	0.834977
H66	H	1.508108	-0.712808	0.868041
H67	H	1.628807	-0.787210	0.833719
H68	H	1.587218	-0.673894	0.751826
H69	H	1.640380	-0.627753	1.106214
H70	H	1.497145	-0.771839	0.328196
O71	O	1.795268	-0.996161	0.612832
C72	C	1.788935	-1.010991	0.503502
H73	H	1.789964	-1.098436	0.485157
H74	H	1.858652	-0.971458	0.464040
H75	H	1.713069	-0.975072	0.472903
H76	H	1.402931	-0.283807	0.917859
O77	O	1.276709	-0.387275	0.916389
C78	C	1.249871	-0.487894	0.953307
H79	H	1.324314	-0.533273	0.972795
H80	H	1.204013	-0.531558	0.890226
H81	H	1.199586	-0.480216	1.026749
H82	H	1.189316	-0.737299	0.176716
H83	H	0.929927	-0.728006	0.390178
O84	O	1.399670	-0.263949	1.097210
C85	C	1.316959	-0.223967	1.158599
H86	H	1.240702	-0.264672	1.135924
H87	H	1.309165	-0.136095	1.144495
H88	H	1.334127	-0.238800	1.245016
H89	H	0.934142	-0.628780	0.279837
H90	H	1.396652	-1.105247	0.384230
H91	H	1.103452	-0.732043	0.382794
H92	H	1.118498	-0.384307	0.628305
H93	H	1.296502	-0.390180	1.095624
H94	H	1.640221	-0.905793	0.628186
O95	O	1.114427	-0.615755	0.269077
C96	C	1.224777	-0.617833	0.274502
H97	H	1.250473	-0.614911	0.360033
H98	H	1.258076	-0.547257	0.231029
H99	H	1.255014	-0.693008	0.236834
H100	H	1.375261	-0.672522	0.206155
H101	H	1.911623	-1.109618	0.743043
H102	H	1.847575	-1.273729	0.835655
H103	H	1.661619	-1.338503	0.806253
H104	H	1.539720	-1.239170	0.684253
H105	H	1.247157	-1.000764	0.391343
