data_functionalizedCrystal
_audit_creation_method	'MofGen! by Chris Wilmer'
_symmetry_space_group_name_H-M	'P1'
_symmetry_Int_Tables_number	1
_symmetry_cell_setting	triclinic
loop_
_symmetry_equiv_pos_as_xyz
  x,y,z
_cell_length_a	13.635800
_cell_length_b	17.110477
_cell_length_c	17.132934
_cell_angle_alpha	93.229938
_cell_angle_beta	80.212102
_cell_angle_gamma	80.939702
loop_
_atom_site_label
_atom_site_type_symbol
_atom_site_fract_x
_atom_site_fract_y
_atom_site_fract_z
V1	V	1.977910	-0.093326	-0.244943
O2	O	1.983672	0.021117	-0.240384
O3	O	1.943015	-0.201046	-0.243167
O4	O	1.943211	-0.084592	-0.351817
O5	O	1.983474	-0.096143	-0.130983
V6	V	2.222470	-0.080500	-0.231324
O7	O	2.102400	-0.121462	-0.274816
O8	O	2.323079	-0.052364	-0.201452
O9	O	2.145762	0.027221	-0.233100
O10	O	2.275407	-0.194943	-0.235883
O11	O	2.275605	-0.077683	-0.345284
O12	O	2.145566	-0.089233	-0.124451
V13	V	2.477910	-0.093326	-0.244943
O14	O	2.483672	0.021117	-0.240384
O15	O	2.443015	-0.201046	-0.243167
O16	O	2.443211	-0.084592	-0.351817
O17	O	2.483474	-0.096143	-0.130983
V18	V	2.722470	-0.080500	-0.231324
O19	O	2.602400	-0.121462	-0.274816
O20	O	2.823079	-0.052364	-0.201452
O21	O	2.645762	0.027221	-0.233100
O22	O	2.775407	-0.194943	-0.235883
O23	O	2.775605	-0.077683	-0.345284
O24	O	2.645566	-0.089233	-0.124451
C25	C	1.863253	-0.227534	-0.239277
C26	C	1.875296	-0.315550	-0.238538
C27	C	1.971210	-0.360671	-0.242107
C28	C	1.982520	-0.443372	-0.241417
C29	C	1.897914	-0.480948	-0.237152
C30	C	1.801992	-0.435820	-0.233585
C31	C	1.790684	-0.353122	-0.234281
C32	C	1.927541	-0.730455	-0.234861
C33	C	1.938856	-0.813159	-0.234163
C34	C	2.119385	-0.820705	-0.241996
C35	C	2.108068	-0.738004	-0.242687
C36	C	2.012148	-0.692884	-0.239124
C37	C	1.909472	-0.565481	-0.236444
C38	C	2.000592	-0.608353	-0.239838
C39	C	1.863503	-0.078985	-0.377869
C40	C	1.875704	-0.072557	-0.465239
C41	C	2.057195	0.053704	-0.236988
C42	C	2.034771	0.141719	-0.237732
C43	C	2.056945	-0.094844	-0.098394
C44	C	2.034364	-0.101268	-0.011024
C45	C	2.363253	-0.227534	-0.239277
C46	C	2.375296	-0.315550	-0.238538
C47	C	2.363503	-0.078985	-0.377869
C48	C	2.375704	-0.072557	-0.465239
C49	C	1.907734	-0.141262	0.482553
C50	C	1.928954	-0.135213	0.400462
C51	C	1.918137	-0.060459	0.370581
C52	C	1.886107	0.008251	0.422796
C53	C	1.864894	0.002202	0.504886
C54	C	1.981121	-0.038606	0.123281
C55	C	2.002335	-0.032562	0.041185
C56	C	2.045182	-0.176028	0.018856
C57	C	2.023961	-0.182070	0.100949
C58	C	1.991938	-0.113360	0.153157
C59	C	1.939825	-0.054275	0.286670
C60	C	1.970258	-0.119544	0.237066
C61	C	2.557195	0.053704	-0.236988
C62	C	2.534771	0.141719	-0.237732
C63	C	2.556945	-0.094844	-0.098394
C64	C	2.534364	-0.101268	-0.011024
C65	C	2.471219	-0.360659	-0.242114
C66	C	2.482551	-0.443360	-0.241431
C67	C	2.397956	-0.480951	-0.237167
C68	C	2.302025	-0.435836	-0.233593
C69	C	2.290696	-0.353136	-0.234282
C70	C	2.471701	-0.073219	-0.510270
C71	C	2.483177	-0.067169	-0.592362
C72	C	2.398656	-0.060463	-0.629421
C73	C	2.302651	-0.059798	-0.584383
C74	C	2.291175	-0.065842	-0.502292
C75	C	2.611341	0.186828	-0.234159
C76	C	2.590281	0.269529	-0.234845
C77	C	2.492653	0.307120	-0.239111
C78	C	2.416077	0.262005	-0.242682
C79	C	2.437136	0.179306	-0.241990
C80	C	2.436654	-0.107964	0.026015
C81	C	2.415420	-0.113991	0.108109
C82	C	2.491900	-0.113326	0.153162
C83	C	2.589618	-0.106627	0.116118
C84	C	2.610849	-0.100594	0.034026
H85	H	2.040107	-0.330083	-0.245572
H86	H	2.197480	-0.857450	-0.244897
H87	H	2.561356	-0.067715	-0.629022
H88	H	2.374368	-0.108506	-0.010657
F89	F	2.312175	0.302024	-0.247218
H90	H	2.213002	-0.065303	-0.465633
H91	H	1.712581	-0.316385	-0.231378
H92	H	2.335848	-0.119445	0.138258
H93	H	2.212582	-0.316414	-0.231366
H94	H	2.690841	0.156233	-0.230686
H95	H	2.474602	-0.118248	0.220005
H96	H	2.407195	-0.548291	-0.236607
F97	F	2.035484	-0.261634	0.132744
H98	H	2.690417	-0.095147	0.003876
H99	H	1.838814	0.058150	0.547394
H100	H	1.733105	-0.466422	-0.230118
H101	H	1.869957	-0.843752	-0.230709
F102	F	1.990821	0.047005	0.009386
H103	H	2.374780	0.142584	-0.244907
F104	F	1.825456	-0.682444	-0.231064
H105	H	2.233152	-0.466455	-0.230122
F106	F	2.561669	-0.080357	-0.470845
H107	H	2.233839	-0.054336	-0.614569
F108	F	2.084605	-0.491390	-0.245215
F109	F	2.671006	-0.105927	0.164077
H110	H	2.176967	-0.707416	-0.246165
H111	H	2.069479	-0.577756	-0.243314
F112	F	2.410886	-0.054032	-0.716792
H113	H	1.840586	-0.596084	-0.232970
F114	F	1.981775	-0.199101	0.268870
F115	F	1.919242	-0.220827	0.514346
F116	F	1.946968	0.034520	0.178831
F117	F	1.963046	-0.208339	0.344901
F118	F	1.928307	0.025282	0.254861
H119	H	1.877307	0.069118	0.398460
F120	F	2.079279	-0.249148	-0.036712
F121	F	2.561267	-0.320668	-0.246657
H122	H	2.560669	-0.480082	-0.244339
F123	F	2.671792	0.317529	-0.231045
H124	H	2.475519	0.374460	-0.239673
