data_functionalizedCrystal
_audit_creation_method	'MofGen! by Chris Wilmer'
_symmetry_space_group_name_H-M	'P1'
_symmetry_Int_Tables_number	1
_symmetry_cell_setting	triclinic
loop_
_symmetry_equiv_pos_as_xyz
  x,y,z
_cell_length_a	19.077105
_cell_length_b	19.077068
_cell_length_c	19.076919
_cell_angle_alpha	94.470751
_cell_angle_beta	90.076224
_cell_angle_gamma	90.115316
loop_
_atom_site_label
_atom_site_type_symbol
_atom_site_fract_x
_atom_site_fract_y
_atom_site_fract_z
Zn1	Zn	1.044048	-0.340450	-0.453500
Zn2	Zn	1.544048	0.159550	0.046500
Zn3	Zn	1.043962	-0.453600	-0.340340
Zn4	Zn	1.543962	0.046400	0.159660
Zn5	Zn	0.931660	-0.331023	-0.330931
Zn6	Zn	1.431660	0.168977	0.169069
Zn7	Zn	0.921801	-0.453176	-0.453077
Zn8	Zn	1.421801	0.046824	0.046923
O9	O	0.985368	-0.394562	-0.394462
O10	O	1.485368	0.105438	0.105538
O11	O	1.142196	-0.359583	-0.442604
O12	O	1.642196	0.140417	0.057396
O13	O	1.033154	-0.433572	-0.240616
O14	O	1.533154	0.066428	0.259384
O15	O	0.950731	-0.233799	-0.343429
O16	O	1.450731	0.266201	0.156571
O17	O	1.142133	-0.442714	-0.359466
O18	O	1.642133	0.057286	0.140534
O19	O	1.033302	-0.240725	-0.433479
O20	O	1.533302	0.259275	0.066521
O21	O	0.950647	-0.343516	-0.233703
O22	O	1.450647	0.156484	0.266297
O23	O	0.832193	-0.343104	-0.343019
O24	O	1.332193	0.156896	0.156981
O25	O	0.933928	-0.441990	-0.551609
O26	O	1.433928	0.058010	-0.051609
O27	O	0.824949	-0.432849	-0.432759
O28	O	1.324949	0.067151	0.067241
O29	O	1.023742	-0.359171	-0.551919
O30	O	1.523742	0.140829	-0.051919
O31	O	1.023594	-0.552019	-0.359056
O32	O	1.523594	-0.052019	0.140944
O33	O	0.933844	-0.551707	-0.441883
O34	O	1.433844	-0.051707	0.058117
C35	C	0.803119	-0.386908	-0.386822
C36	C	1.303119	0.113092	0.113178
C37	C	0.725151	-0.383651	-0.383571
C38	C	1.225151	0.116349	0.116429
C39	C	0.977658	-0.577398	-0.401461
C40	C	1.477658	-0.077398	0.098539
C41	C	0.974423	-0.655619	-0.404482
C42	C	1.474423	-0.155619	0.095518
C43	C	0.684769	-0.428912	-0.428699
C44	C	1.184769	0.071088	0.071301
C45	C	0.611510	-0.425842	-0.425647
C46	C	1.111510	0.074158	0.074353
C47	C	0.578634	-0.377515	-0.377464
C48	C	1.078634	0.122485	0.122536
C49	C	0.619022	-0.332250	-0.332335
C50	C	1.119022	0.167750	0.167665
C51	C	0.692280	-0.335317	-0.335390
C52	C	1.192280	0.164683	0.164610
C53	C	0.359940	-0.363323	-0.363326
C54	C	0.859940	0.136677	0.136674
C55	C	0.286677	-0.360262	-0.360273
C56	C	0.786677	0.139738	0.139727
C57	C	0.279170	-0.453853	-0.453586
C58	C	0.779170	0.046147	0.046414
C59	C	0.352429	-0.456918	-0.456635
C60	C	0.852429	0.043082	0.043365
C61	C	0.392810	-0.411651	-0.411508
C62	C	0.892810	0.088349	0.088492
N63	N	0.503752	-0.374378	-0.374342
N64	N	1.003752	0.125622	0.125658
N65	N	0.467691	-0.414785	-0.414634
N66	N	0.967691	0.085215	0.085366
C67	C	1.019665	-0.692509	-0.362816
C68	C	1.519665	-0.192509	0.137184
C69	C	1.016626	-0.766007	-0.365661
C70	C	1.516626	-0.266007	0.134339
C71	C	0.968342	-0.802612	-0.410169
C72	C	1.468342	-0.302612	0.089831
C73	C	0.923098	-0.765717	-0.451839
C74	C	1.423098	-0.265717	0.048161
C75	C	0.926141	-0.692221	-0.448997
C76	C	1.426141	-0.192221	0.051003
C77	C	0.954231	-1.022406	-0.423292
C78	C	1.454231	-0.522406	0.076708
C79	C	0.951190	-1.095907	-0.426130
C80	C	1.451190	-0.595907	0.073870
C81	C	1.044720	-1.096192	-0.339952
C82	C	1.544720	-0.596192	0.160048
C83	C	1.047755	-1.022695	-0.337111
C84	C	1.547755	-0.522695	0.162889
C85	C	1.002514	-0.985806	-0.378784
C86	C	1.502514	-0.485806	0.121216
N87	N	0.965233	-0.877738	-0.413077
N88	N	1.465233	-0.377738	0.086923
N89	N	1.005627	-0.910681	-0.375880
N90	N	1.505627	-0.410681	0.124120
C91	C	1.168328	-0.402247	-0.402132
C92	C	1.668328	0.097753	0.097868
C93	C	1.246295	-0.405522	-0.405400
C94	C	1.746295	0.094478	0.094600
C95	C	0.977745	-0.401585	-0.578012
C96	C	1.477745	0.098415	-0.078012
C97	C	0.974497	-0.404578	-0.656230
C98	C	1.474497	0.095422	-0.156230
C99	C	0.993126	-0.211015	-0.387451
C100	C	1.493126	0.288985	0.112549
C101	C	0.996432	-0.132798	-0.384464
C102	C	1.496432	0.367202	0.115536
C103	C	1.019730	-0.362866	-0.693140
C104	C	1.519730	0.137134	-0.193140
C105	C	1.016669	-0.365675	-0.766634
C106	C	1.516669	0.134325	-0.266634
C107	C	0.968378	-0.410200	-0.803216
C108	C	1.468378	0.089800	-0.303216
C109	C	0.923140	-0.451913	-0.766301
C110	C	1.423140	0.048087	-0.266301
C111	C	0.926198	-0.449100	-0.692809
C112	C	1.426198	0.050900	-0.192809
C113	C	0.954216	-0.423233	-1.022998
C114	C	1.454216	0.076767	-0.522998
C115	C	0.951163	-0.426044	-1.096496
C116	C	1.451163	0.073956	-0.596496
C117	C	1.044691	-0.339805	-1.096823
C118	C	1.544691	0.160195	-0.596823
C119	C	1.047748	-0.337000	-1.023329
C120	C	1.547748	0.163000	-0.523329
C121	C	1.002507	-0.378710	-0.986421
C122	C	1.502507	0.121290	-0.486421
N123	N	0.965250	-0.413073	-0.878339
N124	N	1.465250	0.086927	-0.378339
N125	N	1.005632	-0.375832	-0.911299
N126	N	1.505632	0.124168	-0.411299
C127	C	0.993003	-0.387518	-0.211626
C128	C	1.493003	0.112482	0.288374
C129	C	0.996396	-0.384333	-0.133406
C130	C	1.496396	0.115667	0.366594
H131	H	0.711530	-0.468267	-0.467932
H132	H	1.211530	0.031733	0.032068
H133	H	0.259912	-0.320900	-0.321040
H134	H	0.759912	0.179100	0.178960
O135	O	0.387888	-0.509036	-0.508609
O136	O	0.887888	-0.009036	-0.008609
H137	H	0.347500	-0.539989	-0.539483
H138	H	0.847500	-0.039989	-0.039483
O139	O	0.899115	-1.135394	-0.474142
O140	O	1.399115	-0.635394	0.025858
H141	H	0.868172	-1.097397	-0.502649
H142	H	1.368172	-0.597397	-0.002649
H143	H	0.889301	-0.662185	-0.482927
H144	H	1.389301	-0.162185	0.017073
H145	H	1.059056	-0.326612	-0.663360
H146	H	1.559056	0.173388	-0.163360
H147	H	0.392810	-0.326468	-0.326576
H148	H	0.892810	0.173532	0.173424
H149	H	0.578633	-0.462699	-0.462394
H150	H	1.078633	0.037301	0.037606
H151	H	1.087073	-0.300745	-0.993549
H152	H	1.587073	0.199255	-0.493549
O153	O	0.583569	-0.280141	-0.280347
O154	O	1.083569	0.219859	0.219653
H155	H	0.525844	-0.285623	-0.285791
H156	H	1.025844	0.214377	0.214209
O157	O	0.735841	-0.286509	-0.286710
O158	O	1.235841	0.213491	0.213290
H159	H	0.700674	-0.252395	-0.252685
H160	H	1.200674	0.247605	0.247315
H161	H	0.883787	-0.795527	-0.488082
H162	H	1.383787	-0.295527	0.011918
O163	O	1.071746	-0.653028	-0.314814
O164	O	1.571746	-0.153028	0.185186
H165	H	1.102700	-0.691032	-0.286326
H166	H	1.602700	-0.191032	0.213674
O167	O	1.093517	-1.135991	-0.295022
O168	O	1.593517	-0.635991	0.204978
H169	H	1.084411	-1.119315	-0.238732
H170	H	1.584411	-0.619315	0.261268
H171	H	0.246283	-0.490707	-0.490327
H172	H	0.746283	0.009293	0.009673
H173	H	1.053467	-0.796040	-0.331732
H174	H	1.553467	-0.296040	0.168268
O175	O	0.905422	-0.982636	-0.468233
O176	O	1.405422	-0.482636	0.031767
H177	H	0.936677	-0.951801	-0.504094
H178	H	1.436677	-0.451801	-0.004094
H179	H	1.087072	-0.992892	-0.300869
H180	H	1.587072	-0.492892	0.199131
H181	H	0.889357	-0.483058	-0.662757
H182	H	1.389357	0.016942	-0.162757
H183	H	0.883818	-0.488163	-0.796093
H184	H	1.383818	0.011837	-0.296093
O185	O	1.065460	-0.320691	-0.806447
O186	O	1.565460	0.179309	-0.306447
H187	H	1.099560	-0.289266	-0.768662
H188	H	1.599560	0.210734	-0.268662
O189	O	1.093469	-0.294815	-1.136643
O190	O	1.593469	0.205185	-0.636643
H191	H	1.148602	-0.308655	-1.125322
H192	H	1.648602	0.191345	-0.625322
O193	O	0.899071	-0.474064	-1.135958
O194	O	1.399071	0.025936	-0.635958
H195	H	0.868121	-0.502590	-1.097946
H196	H	1.368121	-0.002590	-0.597946
H197	H	0.917388	-0.457207	-0.992957
H198	H	1.417388	0.042793	-0.492957
