data_functionalizedCrystal
_audit_creation_method	'MofGen! by Chris Wilmer'
_symmetry_space_group_name_H-M	'P1'
_symmetry_Int_Tables_number	1
_symmetry_cell_setting	triclinic
loop_
_symmetry_equiv_pos_as_xyz
  x,y,z
_cell_length_a	10.654556
_cell_length_b	9.130313
_cell_length_c	10.654550
_cell_angle_alpha	89.995631
_cell_angle_beta	84.486234
_cell_angle_gamma	89.998135
loop_
_atom_site_label
_atom_site_type_symbol
_atom_site_fract_x
_atom_site_fract_y
_atom_site_fract_z
O1	O	1.667835	-0.121744	0.176437
O2	O	2.167835	0.378256	0.676437
O3	O	1.302357	-0.121759	0.193235
O4	O	1.802357	0.378241	0.693235
O5	O	1.493499	-0.121742	0.002097
O6	O	1.993499	0.378258	0.502097
O7	O	1.476693	-0.121761	0.367575
O8	O	1.976693	0.378239	0.867575
O9	O	1.493486	0.121857	0.002091
O10	O	1.993486	0.621857	0.502091
O11	O	1.302344	0.121840	0.193229
O12	O	1.802344	0.621840	0.693229
O13	O	1.667822	0.121855	0.176431
O14	O	2.167822	0.621855	0.676431
Cu15	Cu	1.485082	0.144090	0.184830
Cu16	Cu	1.985082	0.644090	0.684830
Cu17	Cu	1.485097	-0.143994	0.184836
Cu18	Cu	1.985097	0.356006	0.684836
O19	O	1.476680	0.121838	0.367569
O20	O	1.976680	0.621838	0.867569
C21	C	1.255553	0.000039	0.191997
C22	C	1.755553	0.500039	0.691997
C23	C	1.116110	0.000033	0.188302
C24	C	1.616110	0.500033	0.688302
N25	N	1.485080	0.346713	0.184824
N26	N	1.985080	0.846713	0.684824
N27	N	1.485109	-0.346616	0.184832
N28	N	1.985109	0.153384	0.684832
C29	C	0.919572	-0.132741	0.183102
C30	C	1.419572	0.367259	0.683102
C31	C	1.050594	-0.132750	0.186566
C32	C	1.550594	0.367250	0.686566
C33	C	1.050598	0.132835	0.186560
C34	C	1.550598	0.632835	0.686560
C35	C	0.919580	0.132843	0.183087
C36	C	1.419580	0.632843	0.683087
C37	C	1.714626	0.000054	0.177669
C38	C	2.214626	0.500054	0.677669
C39	C	1.854069	0.000050	0.181364
C40	C	2.354069	0.500050	0.681364
C41	C	1.569746	0.423372	0.100224
C42	C	2.069746	0.923372	0.600224
C43	C	1.569758	0.576709	0.100225
C44	C	2.069758	1.076709	0.600225
C45	C	1.400433	0.576714	0.269436
C46	C	1.900433	1.076714	0.769436
C47	C	1.400416	0.423380	0.269428
C48	C	1.900416	0.923380	0.769428
C49	C	1.492258	0.000057	-0.044704
C50	C	1.992258	0.500057	0.455296
C51	C	1.488567	0.000055	-0.184147
C52	C	1.988567	0.500055	0.315853
C53	C	1.601108	0.000059	-0.263630
C54	C	2.101108	0.500059	0.236370
C55	C	1.597631	0.000041	-0.394651
C56	C	2.097631	0.500041	0.105349
C57	C	1.369063	0.000021	-0.366693
C58	C	1.869063	0.500021	0.133307
C59	C	1.372540	0.000028	-0.235675
C60	C	1.872540	0.500028	0.264325
C61	C	1.477920	0.000036	0.414370
C62	C	1.977920	0.500036	0.914370
C63	C	1.481612	0.000029	0.553813
C64	C	1.981612	0.500029	1.053813
H65	H	1.103921	-0.240882	0.187979
H66	H	1.603921	0.259118	0.687979
O67	O	1.309082	0.340677	0.360666
O68	O	1.809082	0.840677	0.860666
H69	H	1.362459	0.270778	0.422190
H70	H	1.862459	0.770778	0.922190
O71	O	1.661021	0.340670	0.008946
O72	O	2.161021	0.840670	0.508946
H73	H	1.722522	0.270782	0.062359
H74	H	2.222522	0.770782	0.562359
O75	O	1.121251	0.276058	0.188440
O76	O	1.621251	0.776058	0.688440
H77	H	1.223361	0.253747	0.191163
H78	H	1.723361	0.753747	0.691163
O79	O	1.661091	0.659379	0.008980
O80	O	2.161091	1.159379	0.508980
H81	H	1.607716	0.729245	-0.052571
H82	H	2.107716	1.229245	0.447429
H83	H	1.331504	0.639151	0.338320
H84	H	1.831504	1.139151	0.838320
H85	H	0.866237	-0.240869	0.181698
H86	H	1.366237	0.259131	0.681698
O87	O	0.848914	0.276073	0.181220
O88	O	1.348914	0.776073	0.681220
H89	H	0.916474	0.368411	0.183022
H90	H	1.416474	0.868411	0.683022
H91	H	1.689274	0.000041	-0.459362
H92	H	2.189274	0.500041	0.040638
H93	H	1.274598	0.000002	-0.408664
H94	H	1.774598	0.500002	0.091336
O95	O	1.726243	0.000057	-0.208047
O96	O	2.226243	0.500057	0.291953
H97	H	1.803915	0.000038	-0.285334
H98	H	2.303915	0.500038	0.214666
H99	H	1.280890	0.000021	-0.170956
H100	H	1.780890	0.500021	0.329044
