data_functionalizedCrystal
_audit_creation_method	'MofGen! by Chris Wilmer'
_symmetry_space_group_name_H-M	'P1'
_symmetry_Int_Tables_number	1
_symmetry_cell_setting	triclinic
loop_
_symmetry_equiv_pos_as_xyz
  x,y,z
_cell_length_a	29.839134
_cell_length_b	12.759400
_cell_length_c	29.839125
_cell_angle_alpha	90.001331
_cell_angle_beta	89.976368
_cell_angle_gamma	89.998308
loop_
_atom_site_label
_atom_site_type_symbol
_atom_site_fract_x
_atom_site_fract_y
_atom_site_fract_z
Zn1	Zn	0.686846	-0.418621	-0.254166
Zn2	Zn	0.686825	-0.594259	-0.179052
Zn3	Zn	0.611726	-0.418579	-0.179035
Zn4	Zn	0.611726	-0.594243	-0.254141
O5	O	0.649281	-0.506425	-0.216598
O6	O	0.749710	-0.441944	-0.244219
O7	O	0.676855	-0.570944	-0.116183
O8	O	0.621700	-0.271564	-0.189004
O9	O	0.749695	-0.570985	-0.189034
O10	O	0.676889	-0.271594	-0.244202
O11	O	0.621680	-0.441873	-0.116170
O12	O	0.548859	-0.441857	-0.188980
O13	O	0.621699	-0.570957	-0.317011
O14	O	0.548859	-0.570916	-0.244160
O15	O	0.676889	-0.441928	-0.317029
O16	O	0.676855	-0.741278	-0.189010
O17	O	0.621679	-0.741266	-0.244177
C18	C	0.532558	-0.506381	-0.216566
C19	C	0.482624	-0.506387	-0.216563
C20	C	0.649277	-0.779393	-0.216603
C21	C	0.649316	-0.896169	-0.216619
C22	C	0.649296	-0.506445	-0.333777
C23	C	0.649303	-0.506454	-0.383711
C24	C	0.172990	-0.573726	-0.245295
C25	C	-0.014683	-0.573756	-0.245315
O26	O	-0.038940	-0.630960	-0.269726
N27	N	-0.038161	-0.506464	-0.216632
C28	C	-0.014718	-0.439155	-0.187944
O29	O	-0.038994	-0.381913	-0.163551
C30	C	0.172954	-0.439121	-0.187927
C31	C	0.196430	-0.506425	-0.216609
C32	C	0.196465	-0.641023	-0.273975
C33	C	0.243381	-0.641019	-0.273968
C34	C	0.266821	-0.573718	-0.245281
C35	C	0.243345	-0.506421	-0.216602
C36	C	0.196396	-0.371808	-0.159241
C37	C	0.243317	-0.371804	-0.159240
C38	C	0.266793	-0.439107	-0.187922
C39	C	0.313700	-0.439115	-0.187908
N40	N	0.337178	-0.506407	-0.216591
C41	C	0.313738	-0.573708	-0.245278
C42	C	-0.113249	-0.439179	-0.187955
C43	C	-0.160167	-0.439189	-0.187958
C44	C	-0.160129	-0.573788	-0.245330
C45	C	-0.113210	-0.573783	-0.245324
C46	C	-0.089771	-0.506471	-0.216638
C47	C	0.412264	-0.573695	-0.245261
C48	C	0.459184	-0.573688	-0.245250
C49	C	0.459142	-0.439086	-0.187880
C50	C	0.412226	-0.439096	-0.187889
C51	C	0.388789	-0.506404	-0.216583
O52	O	0.337986	-0.381933	-0.163514
O53	O	0.338022	-0.630926	-0.269674
C54	C	0.126074	-0.573730	-0.245302
C55	C	0.102599	-0.506433	-0.216623
C56	C	0.126038	-0.439132	-0.187936
C57	C	0.055681	-0.506442	-0.216626
C58	C	0.032241	-0.573744	-0.245313
C59	C	0.055719	-0.641035	-0.273996
C60	C	0.102634	-0.641031	-0.273989
C61	C	0.102560	-0.371840	-0.159253
C62	C	0.055645	-0.371850	-0.159262
C63	C	0.032205	-0.439152	-0.187949
C64	C	0.766459	-0.506471	-0.216631
C65	C	0.816393	-0.506490	-0.216645
C66	C	0.649297	-0.232392	-0.216604
C67	C	0.649304	-0.115615	-0.216607
C68	C	0.620574	-0.060736	-0.187870
C69	C	0.620579	0.048988	-0.187878
C70	C	0.678047	0.048943	-0.245359
C71	C	0.678040	-0.060779	-0.245353
C72	C	0.620596	-0.573398	-0.740289
C73	C	0.620580	-0.573519	-0.552616
O74	O	0.596129	-0.630635	-0.528343
N75	N	0.649313	-0.506356	-0.529156
C76	C	0.678049	-0.439154	-0.552618
O77	O	0.702484	-0.382023	-0.528358
C78	C	0.678063	-0.439028	-0.740290
C79	C	0.649332	-0.506203	-0.763747
C80	C	0.591867	-0.640566	-0.763746
C81	C	0.591873	-0.640539	-0.810662
C82	C	0.620609	-0.573344	-0.834120
C83	C	0.649338	-0.506176	-0.810663
C84	C	0.706797	-0.371821	-0.763751
C85	C	0.706797	-0.371794	-0.810672
C86	C	0.678065	-0.438968	-0.834129
C87	C	0.678079	-0.438954	-0.881037
N88	N	0.649346	-0.506116	-0.904496
C89	C	0.620611	-0.573311	-0.881038
C90	C	0.678041	-0.439226	-0.454087
C91	C	0.678038	-0.439259	-0.407170
C92	C	0.620568	-0.573622	-0.407171
C93	C	0.620574	-0.573594	-0.454089
C94	C	0.649308	-0.506388	-0.477547
C95	C	0.620626	-0.573250	-0.979564
C96	C	0.620636	-0.573221	-1.026483
C97	C	0.678104	-0.438853	-1.026478
C98	C	0.678096	-0.438887	-0.979563
C99	C	0.649354	-0.506089	-0.956107
O100	O	0.702514	-0.381859	-0.905338
O101	O	0.596173	-0.630417	-0.905306
C102	C	0.620590	-0.573425	-0.693374
C103	C	0.649320	-0.506256	-0.669917
C104	C	0.678055	-0.439061	-0.693375
C105	C	0.649317	-0.506289	-0.622999
C106	C	0.620582	-0.573484	-0.599540
C107	C	0.591849	-0.640647	-0.623000
C108	C	0.591855	-0.640620	-0.669915
C109	C	0.706787	-0.371899	-0.669915
C110	C	0.706779	-0.371932	-0.623000
C111	C	0.678044	-0.439127	-0.599541
C112	C	0.649291	-0.506330	-0.099876
C113	C	0.649371	-0.506026	-0.049942
H114	H	0.393187	-0.628502	-0.268627
N115	N	0.562505	-0.709246	-0.693866
N116	N	0.536853	-0.769232	-0.672907
H117	H	0.516123	-0.817704	-0.689819
H118	H	-0.094169	-0.384365	-0.164593
H119	H	0.701435	-0.105463	-0.268757
H120	H	0.597174	-0.105381	-0.164464
H121	H	0.730194	-0.317061	-0.829769
N122	N	0.707396	-0.370651	-0.383219
N123	N	0.733049	-0.310664	-0.404175
H124	H	0.753783	-0.262204	-0.387261
H125	H	0.701444	0.093602	-0.268763
H126	H	0.568476	-0.695237	-0.829756
H127	H	0.597240	-0.627926	-1.045580
H128	H	-0.179221	-0.628587	-0.268688
H129	H	0.701494	-0.384195	-0.960463
H130	H	0.597218	-0.627963	-0.960471
N131	N	-0.184136	-0.370450	-0.158651
N132	N	-0.163197	-0.310368	-0.133041
H133	H	-0.180124	-0.261815	-0.112342
N134	N	-0.089225	-0.642527	-0.274618
N135	N	-0.063049	-0.709411	-0.258765
H136	H	-0.046111	-0.757963	-0.279454
N137	N	0.591225	0.105041	-0.158530
N138	N	0.549770	0.092792	-0.161499
H139	H	0.529036	0.132377	-0.140772
H140	H	0.701442	-0.384497	-0.473182
H141	H	0.568465	-0.695284	-0.744652
N142	N	0.591220	-0.642209	-0.478041
N143	N	0.565566	-0.702194	-0.457085
H144	H	0.544831	-0.750652	-0.473999
N145	N	0.267350	-0.709773	-0.303270
N146	N	0.246408	-0.769851	-0.328880
H147	H	0.263333	-0.818411	-0.349577
H148	H	0.730180	-0.317232	-0.603905
H149	H	0.478235	-0.384294	-0.164522
H150	H	0.730187	-0.317179	-0.689010
N151	N	0.591218	-0.642254	-0.383197
N152	N	0.591222	-0.642260	-0.341307
H153	H	0.570492	-0.690722	-0.324373
H154	H	0.701501	-0.384148	-1.045586
N155	N	0.736150	-0.303201	-0.739805
N156	N	0.761800	-0.243213	-0.760765
H157	H	0.782533	-0.194745	-0.743854
N158	N	0.126499	-0.303079	-0.129952
N159	N	0.121255	-0.206146	-0.132997
H160	H	0.138160	-0.157582	-0.112301
H161	H	0.177290	-0.317005	-0.135884
N162	N	0.126604	-0.709790	-0.303289
N163	N	0.105662	-0.769871	-0.328897
H164	H	0.122587	-0.818436	-0.349592
N165	N	0.031764	-0.709784	-0.303293
N166	N	-0.010127	-0.709771	-0.303289
H167	H	-0.027048	-0.758319	-0.323980
H168	H	0.568454	-0.695363	-0.603892
H169	H	0.478296	-0.628499	-0.268606
H170	H	0.262399	-0.316982	-0.135883
N171	N	0.172534	-0.709778	-0.303286
N172	N	0.193509	-0.769850	-0.328889
H173	H	0.176611	-0.818418	-0.349590
H174	H	0.036535	-0.317045	-0.135901
N175	N	0.388251	-0.370353	-0.158584
N176	N	0.409187	-0.310272	-0.132972
H177	H	0.392258	-0.261713	-0.112278
