data_functionalizedCrystal
_audit_creation_method	'MofGen! by Chris Wilmer'
_symmetry_space_group_name_H-M	'P1'
_symmetry_Int_Tables_number	1
_symmetry_cell_setting	triclinic
loop_
_symmetry_equiv_pos_as_xyz
  x,y,z
_cell_length_a	21.395362
_cell_length_b	21.295417
_cell_length_c	21.395356
_cell_angle_alpha	89.969378
_cell_angle_beta	89.957023
_cell_angle_gamma	90.046383
loop_
_atom_site_label
_atom_site_type_symbol
_atom_site_fract_x
_atom_site_fract_y
_atom_site_fract_z
Zn1	Zn	0.957854	-0.250358	-0.354573
Zn2	Zn	0.957759	-0.355627	-0.249790
Zn3	Zn	0.853071	-0.250404	-0.249774
Zn4	Zn	0.853039	-0.355623	-0.354495
O5	O	0.905431	-0.303003	-0.302158
O6	O	1.045520	-0.264305	-0.340713
O7	O	0.943846	-0.341690	-0.162110
O8	O	0.867024	-0.162309	-0.263702
O9	O	1.045450	-0.341645	-0.263729
O10	O	0.944008	-0.162275	-0.340697
O11	O	0.866932	-0.264383	-0.162098
O12	O	0.765389	-0.264380	-0.263626
O13	O	0.866969	-0.341638	-0.442183
O14	O	0.765365	-0.341683	-0.340564
O15	O	0.943977	-0.264301	-0.442240
O16	O	0.943814	-0.443716	-0.263653
O17	O	0.866877	-0.443713	-0.340579
C18	C	0.742643	-0.303036	-0.302085
C19	C	0.673002	-0.303066	-0.302069
C20	C	0.640293	-0.343371	-0.342070
C21	C	0.574858	-0.343356	-0.342098
C22	C	0.542134	-0.303042	-0.302114
C23	C	0.574851	-0.262728	-0.262109
C24	C	0.640285	-0.262741	-0.262087
C25	C	0.438410	-0.297979	-0.245709
C26	C	0.372977	-0.297972	-0.245730
C27	C	0.340313	-0.303000	-0.302183
C28	C	0.373090	-0.308050	-0.358616
C29	C	0.438524	-0.308062	-0.358594
C30	C	0.471181	-0.303024	-0.302134
C31	C	0.236651	-0.343291	-0.342218
C32	C	0.171215	-0.343271	-0.342247
C33	C	0.171209	-0.262647	-0.262252
C34	C	0.236645	-0.262664	-0.262229
C35	C	0.269362	-0.302989	-0.302211
C36	C	0.905349	-0.466555	-0.302123
C37	C	0.905371	-0.536523	-0.302129
C38	C	0.945468	-0.569370	-0.262115
C39	C	0.945497	-0.635113	-0.262129
C40	C	0.905418	-0.668005	-0.302151
C41	C	0.865319	-0.635150	-0.342173
C42	C	0.865295	-0.569409	-0.342162
N43	N	0.850609	-0.771286	-0.306903
N44	N	0.850633	-0.833738	-0.306910
C45	C	0.905489	-0.866080	-0.302187
N46	N	0.960320	-0.833611	-0.297445
N47	N	0.960295	-0.771154	-0.297435
C48	C	0.905440	-0.739291	-0.302167
C49	C	0.945621	-0.970213	-0.262186
C50	C	0.945651	-1.035956	-0.262204
C51	C	0.865467	-1.035993	-0.342245
C52	C	0.865442	-0.970250	-0.342230
C53	C	0.905518	-0.937364	-0.302197
C54	C	1.068854	-0.302970	-0.302231
C55	C	1.138496	-0.302956	-0.302262
C56	C	0.905480	-0.302964	-0.465581
C57	C	0.905501	-0.302947	-0.535223
C58	C	0.905530	-0.138813	-0.302206
C59	C	0.905573	-0.068845	-0.302227
C60	C	0.865463	-0.262689	-0.567920
C61	C	0.865461	-0.262678	-0.633355
C62	C	0.905508	-0.302917	-0.666091
C63	C	0.945549	-0.343183	-0.633386
C64	C	0.945546	-0.343198	-0.567952
C65	C	0.961960	-0.307851	-0.769796
C66	C	0.961965	-0.307831	-0.835229
C67	C	0.905518	-0.302875	-0.867912
C68	C	0.849066	-0.297925	-0.835153
C69	C	0.849063	-0.297940	-0.769719
C70	C	0.905516	-0.302906	-0.737043
C71	C	0.865474	-0.262602	-0.971562
C72	C	0.865471	-0.262595	-1.036998
C73	C	0.945565	-0.343097	-1.037028
C74	C	0.945563	-0.343108	-0.971592
C75	C	0.905518	-0.302857	-0.938863
C76	C	0.905418	-0.302997	-0.139370
C77	C	0.905518	-0.302836	-0.069729
H78	H	0.144584	-0.376091	-0.374825
Br79	Br	0.810931	-0.679788	-0.396494
H80	H	0.832643	-0.542664	-0.374747
Br81	Br	0.328500	-0.291120	-0.169143
H82	H	0.144566	-0.229820	-0.229699
Br83	Br	0.281039	-0.207961	-0.207938
H84	H	0.464999	-0.293882	-0.199735
Br85	Br	0.684679	-0.208035	-0.207796
Br86	Br	0.999865	-0.524742	-0.207794
Br87	Br	0.328769	-0.314873	-0.435237
Br88	Br	0.999907	-0.397743	-0.927214
H89	H	0.978174	-0.375860	-1.063680
H90	H	0.832853	-0.229916	-0.541276
Br91	Br	0.530442	-0.208011	-0.207849
H92	H	0.832867	-0.229828	-0.944912
H93	H	0.978255	-0.943436	-0.229590
Br94	Br	0.530457	-0.398058	-0.396391
Br95	Br	1.000080	-1.080536	-0.207900
Br96	Br	0.811080	-1.080626	-0.396568
H97	H	0.832858	-0.229892	-0.659982
Br98	Br	0.281057	-0.398014	-0.396480
Br99	Br	0.999919	-0.679701	-0.207820
Br100	Br	0.811020	-0.925669	-0.396537
H101	H	0.803097	-0.293910	-0.743050
H102	H	0.465209	-0.312172	-0.404544
Br103	Br	0.772455	-0.291191	-0.879500
H104	H	0.832863	-0.229814	-1.063619
H105	H	1.007932	-0.311859	-0.861896
Br106	Br	1.038572	-0.314585	-0.725448
H107	H	0.978156	-0.375947	-0.660043
Br108	Br	0.999887	-0.397839	-0.523574
H109	H	0.666927	-0.376206	-0.374628
