data_functionalizedCrystal
_audit_creation_method	'MofGen! by Chris Wilmer'
_symmetry_space_group_name_H-M	'P1'
_symmetry_Int_Tables_number	1
_symmetry_cell_setting	triclinic
loop_
_symmetry_equiv_pos_as_xyz
  x,y,z
_cell_length_a	23.532355
_cell_length_b	15.995292
_cell_length_c	15.072220
_cell_angle_alpha	90.002061
_cell_angle_beta	89.993350
_cell_angle_gamma	83.148057
loop_
_atom_site_label
_atom_site_type_symbol
_atom_site_fract_x
_atom_site_fract_y
_atom_site_fract_z
O1	O	0.755662	0.101432	-0.073656
O2	O	0.589849	0.116184	-0.073683
O3	O	0.677305	-0.013122	-0.073670
O4	O	0.668205	0.230738	-0.073669
O5	O	0.677283	-0.013115	0.073895
O6	O	0.589827	0.116191	0.073882
O7	O	0.755640	0.101439	0.073909
Zn8	Zn	0.672730	0.108816	0.097325
Zn9	Zn	0.672759	0.108807	-0.097099
O10	O	0.668184	0.230745	0.073896
C11	C	0.568620	0.115819	0.000096
C12	C	0.505397	0.114710	0.000085
C13	C	0.676924	-0.044311	0.000110
C14	C	0.675814	-0.137254	0.000103
C15	C	0.671732	-0.474958	0.000111
C16	C	0.734855	-0.452188	0.000451
C17	C	0.736055	-0.355522	0.000115
C18	C	0.673757	-0.307419	0.000107
C19	C	0.642211	-0.336253	-0.084162
C20	C	0.641451	-0.433037	-0.084229
C21	C	0.640137	-0.432875	0.083579
C22	C	0.642476	-0.336402	0.084690
C23	C	0.674898	-0.212733	0.000103
C24	C	0.670588	-0.569644	0.000109
C25	C	0.113346	0.107748	0.080560
C26	C	0.053942	0.106693	0.080563
O27	O	0.023212	0.106123	0.148971
N28	N	0.024244	0.106166	0.000126
C29	C	0.053952	0.106686	-0.080320
O30	O	0.023237	0.106140	-0.148738
C31	C	0.113355	0.107734	-0.080323
C32	C	0.143050	0.108270	0.000120
C33	C	0.143041	0.108283	0.160996
C34	C	0.202440	0.109339	0.160992
C35	C	0.232144	0.109861	0.080552
C36	C	0.202449	0.109326	0.000116
C37	C	0.143063	0.108248	-0.160768
C38	C	0.202470	0.109296	-0.160764
C39	C	0.232165	0.109831	-0.080321
C40	C	0.291552	0.110904	-0.080328
N41	N	0.321251	0.111431	0.000110
C42	C	0.291547	0.110910	0.080550
C43	C	-0.070797	0.104482	-0.080309
C44	C	-0.130200	0.103439	-0.080307
C45	C	-0.130205	0.103445	0.080576
C46	C	-0.070802	0.104494	0.080574
C47	C	-0.041099	0.105009	0.000128
C48	C	0.416289	0.113129	0.080536
C49	C	0.475693	0.114189	0.080525
C50	C	0.475694	0.114178	-0.080359
C51	C	0.416295	0.113122	-0.080348
C52	C	0.386594	0.112595	0.000106
O53	O	0.322321	0.111472	-0.148701
O54	O	0.322271	0.111445	0.148956
C55	C	0.776869	0.101804	0.000128
C56	C	0.840092	0.102913	0.000133
C57	C	0.668565	0.261934	0.000114
C58	C	0.669675	0.354877	0.000115
N59	N	0.672715	0.108822	0.230013
N60	N	0.672778	0.108794	-0.229788
C61	C	0.672757	0.108803	0.589215
C62	C	0.625804	0.177763	0.551601
C63	C	0.625912	0.178013	0.448775
C64	C	0.672736	0.108813	0.411011
C65	C	0.732157	0.127385	0.448312
C66	C	0.731894	0.127874	0.551170
C67	C	0.660820	0.021064	0.551312
C68	C	0.659456	0.021662	0.448449
C69	C	0.672727	0.108816	0.310297
C70	C	0.672770	0.108802	0.689928
H71	H	0.760762	-0.336707	0.060522
O72	O	-0.158990	0.103042	-0.158506
C73	C	-0.183644	0.175289	-0.295991
C74	C	-0.151006	0.175841	-0.207469
H75	H	-0.177211	0.234149	-0.335594
H76	H	-0.166726	0.116929	-0.335719
H77	H	-0.231198	0.174405	-0.282160
H78	H	-0.103448	0.176755	-0.221219
H79	H	-0.167972	0.234195	-0.167768
O80	O	0.607271	0.004853	0.419518
C81	C	0.512301	-0.023109	0.460074
C82	C	0.571369	-0.004058	0.492964
H83	H	0.483262	-0.030337	0.519438
H84	H	0.492455	0.030838	0.416414
H85	H	0.517473	-0.083999	0.420011
H86	H	0.566247	0.056806	0.533063
H87	H	0.591194	-0.058054	0.536577
H88	H	0.595169	-0.447190	-0.088053
H89	H	0.593673	-0.446466	0.084141
O90	O	-0.041908	0.104847	-0.158437
C91	C	0.031646	0.033516	-0.251809
C92	C	-0.001030	0.032988	-0.163310
H93	H	0.064711	-0.024567	-0.255770
H94	H	0.000242	0.032907	-0.309328
H95	H	0.054204	0.092642	-0.255822
H96	H	-0.023590	-0.026128	-0.159211
H97	H	0.030401	0.033640	-0.105833
H98	H	-0.046629	0.104931	0.146078
H99	H	0.633534	0.243133	0.424163
O100	O	0.588220	-0.296661	0.090912
C101	C	0.500299	-0.279483	0.174483
C102	C	0.561740	-0.324533	0.167567
H103	H	0.478868	-0.302013	0.236444
H104	H	0.501609	-0.208580	0.178782
H105	H	0.474921	-0.294547	0.113297
H106	H	0.587154	-0.309536	0.228735
H107	H	0.560388	-0.395423	0.163225
O108	O	0.387528	0.112659	0.158767
C109	C	0.393811	0.112739	0.318339
C110	C	0.426452	0.113284	0.229809
H111	H	0.425268	0.113226	0.375800
H112	H	0.360789	0.170867	0.322427
H113	H	0.371208	0.053653	0.322326
H114	H	0.449088	0.172331	0.225762
H115	H	0.459441	0.055117	0.225758
H116	H	0.691434	-0.032020	0.422745
O117	O	0.114319	0.107682	-0.238991
C118	C	0.120619	0.107804	-0.398563
C119	C	0.153241	0.108432	-0.310035
H120	H	0.152071	0.108428	-0.456025
H121	H	0.098054	0.048688	-0.402641
H122	H	0.087567	0.165900	-0.402558
H123	H	0.186321	0.050377	-0.305980
H124	H	0.175767	0.167587	-0.305994
H125	H	0.695060	-0.030248	0.575636
O126	O	0.667577	-0.465130	-0.159393
C127	C	0.715411	-0.435705	-0.295236
C128	C	0.685846	-0.399257	-0.210138
H129	H	0.730179	-0.382463	-0.336296
H130	H	0.753976	-0.482535	-0.276808
H131	H	0.683924	-0.469104	-0.335632
H132	H	0.717288	-0.365817	-0.169702
H133	H	0.647272	-0.352471	-0.228627
H134	H	0.664135	-0.316384	-0.146869
H135	H	0.742415	0.191846	0.575154
H136	H	-0.154401	0.103019	0.146075
O137	O	0.231376	0.109913	-0.238854
C138	C	0.291947	0.183674	-0.332259
C139	C	0.259249	0.183067	-0.243785
H140	H	0.314480	0.242821	-0.336283
H141	H	0.325019	0.125602	-0.336296
H142	H	0.260509	0.183070	-0.389733
H143	H	0.290643	0.183700	-0.186261
H144	H	0.226169	0.241133	-0.239825
O145	O	0.504611	0.114593	0.158615
C146	C	0.578113	0.043209	0.252010
C147	C	0.545421	0.042659	0.163538
H148	H	0.611107	-0.014953	0.256028
H149	H	0.600739	0.102270	0.256050
H150	H	0.546660	0.042691	0.309486
H151	H	0.576835	0.043146	0.106012
H152	H	0.522785	-0.016397	0.159575
O153	O	0.763881	-0.485977	0.072476
C154	C	0.798104	-0.612490	0.152408
C155	C	0.765234	-0.574328	0.070787
H156	H	0.799199	-0.683925	0.151079
H157	H	0.843717	-0.595206	0.151189
H158	H	0.775695	-0.586574	0.215421
H159	H	0.787595	-0.600223	0.007732
H160	H	0.719621	-0.591605	0.072084
H161	H	0.392115	0.112700	-0.145851
H162	H	0.499889	0.114606	-0.145851
O163	O	0.572916	0.164830	0.580984
C164	C	0.477650	0.137603	0.541299
C165	C	0.537525	0.152224	0.507896
H166	H	0.449016	0.127424	0.482223
H167	H	0.481334	0.079648	0.585903
H168	H	0.458261	0.194979	0.580507
H169	H	0.556949	0.094897	0.468650
H170	H	0.533804	0.210211	0.463338
O171	O	0.573212	0.165054	0.418590
C172	C	0.490658	0.219741	0.332796
C173	C	0.550348	0.234495	0.366887
H174	H	0.472150	0.275881	0.291003
H175	H	0.494366	0.160206	0.290566
H176	H	0.461252	0.212234	0.391642
H177	H	0.579786	0.242041	0.308095
H178	H	0.546595	0.294013	0.409144
O179	O	0.231197	0.109812	0.239214
C180	C	0.224896	0.109750	0.398787
C181	C	0.192265	0.109197	0.310260
H182	H	0.193432	0.109271	0.456251
H183	H	0.257915	0.051621	0.402873
H184	H	0.247500	0.168834	0.402771
H185	H	0.169627	0.050152	0.306217
H186	H	0.159278	0.167366	0.306212
O187	O	0.114107	0.107735	0.239063
C188	C	0.022596	0.106175	0.310402
C189	C	0.055288	0.106769	0.221921
H190	H	-0.024967	0.105412	0.296574
H191	H	0.039460	0.047763	0.350079
H192	H	0.029091	0.164978	0.350063
H193	H	0.048807	0.048007	0.182188
H194	H	0.038417	0.165220	0.182312
O195	O	0.763824	-0.487015	-0.071168
C196	C	0.853072	-0.505512	-0.151252
C197	C	0.820340	-0.466041	-0.070093
H198	H	0.898768	-0.488555	-0.150419
H199	H	0.853930	-0.576891	-0.148895
H200	H	0.830733	-0.480263	-0.214567
H201	H	0.842654	-0.491225	-0.006737
H202	H	0.819478	-0.394665	-0.072529
O203	O	0.634785	0.254959	0.582570
C204	C	0.642109	0.342799	0.710967
C205	C	0.631939	0.255334	0.676015
H206	H	0.639799	0.343136	0.786520
H207	H	0.686153	0.357687	0.688970
H208	H	0.607860	0.392349	0.683273
H209	H	0.666153	0.205727	0.703693
H210	H	0.587877	0.240518	0.698003
O211	O	0.774831	0.069104	0.418978
C212	C	0.825113	0.004803	0.292402
C213	C	0.776777	0.070850	0.325504
H214	H	0.826694	0.006180	0.216825
H215	H	0.867789	0.019695	0.320331
H216	H	0.816613	-0.060412	0.315552
H217	H	0.785221	0.136089	0.302366
H218	H	0.734116	0.055885	0.297582
H219	H	0.618431	0.003079	0.577295
H220	H	0.767924	0.079600	0.576050
H221	H	0.760926	-0.337335	-0.060390
O222	O	0.663631	-0.466713	0.159866
C223	C	0.661099	-0.466013	0.319694
C224	C	0.634422	-0.427630	0.233375
H225	H	0.637502	-0.434419	0.379148
H226	H	0.657438	-0.536431	0.321070
H227	H	0.708140	-0.455565	0.322761
H228	H	0.587373	-0.438015	0.230250
H229	H	0.638127	-0.357225	0.232034
H230	H	0.742930	0.190624	0.422546
H231	H	0.665447	-0.318031	0.147032
O232	O	0.587558	-0.297629	-0.087959
C233	C	0.526192	-0.166011	-0.095901
C234	C	0.588113	-0.209648	-0.091628
H235	H	0.526620	-0.094871	-0.098850
H236	H	0.504229	-0.187931	-0.157654
H237	H	0.501882	-0.182932	-0.034291
H238	H	0.612470	-0.192748	-0.153194
H239	H	0.610032	-0.187726	-0.029836
