data_functionalizedCrystal
_audit_creation_method	'MofGen! by Chris Wilmer'
_symmetry_space_group_name_H-M	'P1'
_symmetry_Int_Tables_number	1
_symmetry_cell_setting	triclinic
loop_
_symmetry_equiv_pos_as_xyz
  x,y,z
_cell_length_a	14.044202
_cell_length_b	14.044202
_cell_length_c	13.101050
_cell_angle_alpha	86.338627
_cell_angle_beta	93.662580
_cell_angle_gamma	93.192702
loop_
_atom_site_label
_atom_site_type_symbol
_atom_site_fract_x
_atom_site_fract_y
_atom_site_fract_z
O1	O	-1.281985	-0.225386	-0.085196
O2	O	-1.031985	0.024614	0.164804
O3	O	-0.781985	0.274614	0.414804
O4	O	-0.531985	0.524614	0.664804
O5	O	-1.005313	-0.217070	-0.085208
O6	O	-0.755313	0.032930	0.164792
O7	O	-0.505313	0.282930	0.414792
O8	O	-0.255313	0.532930	0.664792
O9	O	-1.139490	-0.082894	-0.085174
O10	O	-0.889490	0.167106	0.164826
O11	O	-0.639490	0.417106	0.414826
O12	O	-0.389490	0.667106	0.664826
O13	O	-1.147808	-0.359563	-0.085230
O14	O	-0.897808	-0.109563	0.164770
O15	O	-0.647808	0.140437	0.414770
O16	O	-0.397808	0.390437	0.664770
O17	O	-1.129864	-0.092540	0.085253
O18	O	-0.879864	0.157460	0.335253
O19	O	-0.629864	0.407460	0.585253
O20	O	-0.379864	0.657460	0.835253
O21	O	-0.995687	-0.226717	0.085219
O22	O	-0.745687	0.023283	0.335219
O23	O	-0.495687	0.273283	0.585219
O24	O	-0.245687	0.523283	0.835219
O25	O	-1.272359	-0.235032	0.085231
O26	O	-1.022359	0.014968	0.335231
O27	O	-0.772359	0.264968	0.585231
O28	O	-0.522359	0.514968	0.835231
Zn29	Zn	-1.132495	-0.232406	0.112284
Zn30	Zn	-0.882495	0.017594	0.362284
Zn31	Zn	-0.632495	0.267594	0.612284
Zn32	Zn	-0.382495	0.517594	0.862284
Zn33	Zn	-1.145178	-0.219697	-0.112261
Zn34	Zn	-0.895178	0.030303	0.137739
Zn35	Zn	-0.645178	0.280303	0.387739
Zn36	Zn	-0.395178	0.530303	0.637739
O37	O	-1.138182	-0.369209	0.085198
O38	O	-0.888182	-0.119209	0.335198
O39	O	-0.638182	0.130791	0.585198
O40	O	-0.388182	0.380791	0.835198
C41	C	-0.964878	-0.218257	0.000004
C42	C	-0.714878	0.031743	0.250004
C43	C	-0.464878	0.281743	0.500004
C44	C	-0.214878	0.531743	0.750004
C45	C	-0.858735	-0.207408	0.000001
C46	C	-0.608735	0.042592	0.250001
C47	C	-0.358735	0.292592	0.500001
C48	C	-0.108735	0.542592	0.750001
C49	C	-0.613279	-0.264507	-0.000001
C50	C	-0.363279	-0.014507	0.249999
C51	C	-0.113279	0.235493	0.499999
C52	C	0.136721	0.485493	0.749999
C53	C	-0.664401	-0.187591	0.000013
C54	C	-0.414401	0.062409	0.250013
C55	C	-0.164401	0.312409	0.500013
C56	C	0.085599	0.562409	0.750013
C57	C	-0.772538	-0.198620	0.000006
C58	C	-0.522538	0.051380	0.250006
C59	C	-0.272538	0.301380	0.500006
C60	C	-0.022538	0.551380	0.750006
C61	C	-0.505131	-0.253480	0.000006
C62	C	-0.255131	-0.003480	0.250006
C63	C	-0.005131	0.246520	0.500006
C64	C	0.244869	0.496520	0.750006
C65	C	-1.131040	-0.052095	0.000044
C66	C	-0.881040	0.197905	0.250044
C67	C	-0.631040	0.447905	0.500044
C68	C	-0.381040	0.697905	0.750044
C69	C	-1.120191	0.054048	0.000058
C70	C	-0.870191	0.304048	0.250058
C71	C	-0.620191	0.554048	0.500058
C72	C	-0.370191	0.804048	0.750058
C73	C	-1.177291	0.299506	0.000035
C74	C	-0.927291	0.549506	0.250035
C75	C	-0.677291	0.799506	0.500035
C76	C	-0.427291	1.049506	0.750035
C77	C	-1.100375	0.248383	0.000035
C78	C	-0.850375	0.498383	0.250035
C79	C	-0.600375	0.748383	0.500035
C80	C	-0.350375	0.998383	0.750035
C81	C	-1.111403	0.140245	0.000048
C82	C	-0.861403	0.390245	0.250048
C83	C	-0.611403	0.640245	0.500048
C84	C	-0.361403	0.890245	0.750048
C85	C	-1.166264	0.407653	0.000022
C86	C	-0.916264	0.657653	0.250022
C87	C	-0.666264	0.907653	0.500022
C88	C	-0.416264	1.157653	0.750022
C89	C	-0.312794	-0.233844	0.000016
C90	C	-0.062794	0.016156	0.250016
C91	C	0.187206	0.266156	0.500016
C92	C	0.437206	0.516156	0.750016
C93	C	-0.418938	-0.244686	0.000011
C94	C	-0.168938	0.005314	0.250011
C95	C	0.081062	0.255314	0.500011
C96	C	0.331062	0.505314	0.750011
C97	C	-1.146630	0.599991	-0.000009
C98	C	-0.896630	0.849991	0.249991
C99	C	-0.646630	1.099991	0.499991
C100	C	-0.396630	1.349991	0.749991
C101	C	-1.157471	0.493847	0.000011
C102	C	-0.907471	0.743847	0.250011
C103	C	-0.657471	0.993847	0.500011
C104	C	-0.407471	1.243847	0.750011
N105	N	-1.123846	-0.241079	0.265531
N106	N	-0.873846	0.008921	0.515531
N107	N	-0.623846	0.258921	0.765531
N108	N	-0.373846	0.508921	1.015531
C109	C	-1.112080	-0.252889	0.474570
C110	C	-0.862080	-0.002889	0.724570
C111	C	-0.612080	0.247111	0.974570
C112	C	-0.362080	0.497111	1.224570
C113	C	-1.165594	-0.199219	0.525459
C114	C	-0.915594	0.050781	0.775459
C115	C	-0.665594	0.300781	1.025459
C116	C	-0.415594	0.550781	1.275459
C117	C	-1.159047	-0.205790	0.641776
C118	C	-0.909047	0.044210	0.891776
C119	C	-0.659047	0.294210	1.141776
C120	C	-0.409047	0.544210	1.391776
C121	C	-1.118626	-0.246319	0.358243
C122	C	-0.868626	0.003681	0.608243
C123	C	-0.618626	0.253681	0.858243
C124	C	-0.368626	0.503681	1.108243
N125	N	-1.153831	-0.211026	0.734493
N126	N	-0.903831	0.038974	0.984493
N127	N	-0.653831	0.288974	1.234493
N128	N	-0.403831	0.538974	1.484493
H129	H	-0.626958	-0.113455	-0.000044
H130	H	-0.376958	0.136545	0.249956
H131	H	-0.126958	0.386545	0.499956
H132	H	0.123042	0.636545	0.749956
H133	H	-0.650723	-0.338633	-0.000018
H134	H	-0.400723	-0.088633	0.249982
H135	H	-0.150723	0.161367	0.499982
H136	H	0.099277	0.411367	0.749982
O137	O	-1.275482	0.249908	0.000049
O138	O	-1.025482	0.499908	0.250049
O139	O	-0.775482	0.749908	0.500049
O140	O	-0.525482	0.999908	0.750049
H141	H	-1.330133	0.304037	0.000041
H142	H	-1.080133	0.554037	0.250041
H143	H	-0.830133	0.804037	0.500041
H144	H	-0.580133	1.054037	0.750041
O145	O	-1.002175	0.297979	0.000042
O146	O	-0.752175	0.547979	0.250042
O147	O	-0.502175	0.797979	0.500042
O148	O	-0.252175	1.047979	0.750042
H149	H	-0.966765	0.280898	-0.069419
H150	H	-0.716765	0.530898	0.180581
H151	H	-0.466765	0.780898	0.430581
H152	H	-0.216765	1.030898	0.680581
O153	O	-1.044897	-0.320304	0.532560
O154	O	-0.794897	-0.070304	0.782560
O155	O	-0.544897	0.179696	1.032560
O156	O	-0.294897	0.429696	1.282560
H157	H	-0.992319	-0.278976	0.581466
H158	H	-0.742319	-0.028976	0.831466
H159	H	-0.492319	0.221024	1.081466
H160	H	-0.242319	0.471024	1.331466
H161	H	-1.216326	-0.148337	0.481670
H162	H	-0.966326	0.101663	0.731670
H163	H	-0.716326	0.351663	0.981670
H164	H	-0.466326	0.601663	1.231670
