data_functionalizedCrystal
_audit_creation_method	'MofGen! by Chris Wilmer'
_symmetry_space_group_name_H-M	'P1'
_symmetry_Int_Tables_number	1
_symmetry_cell_setting	triclinic
loop_
_symmetry_equiv_pos_as_xyz
  x,y,z
_cell_length_a	13.897449
_cell_length_b	18.101395
_cell_length_c	13.897441
_cell_angle_alpha	89.970274
_cell_angle_beta	89.978743
_cell_angle_gamma	90.031931
loop_
_atom_site_label
_atom_site_type_symbol
_atom_site_fract_x
_atom_site_fract_y
_atom_site_fract_z
Zn1	Zn	1.474592	-0.294797	-0.545449
Zn2	Zn	1.974592	0.205203	-0.045449
Zn3	Zn	1.474455	-0.418650	-0.384150
Zn4	Zn	1.974455	0.081350	0.115850
Zn5	Zn	1.313288	-0.294829	-0.384160
Zn6	Zn	1.813288	0.205171	0.115840
Zn7	Zn	1.313226	-0.418603	-0.545395
Zn8	Zn	1.813226	0.081397	-0.045395
O9	O	1.393890	-0.356720	-0.464789
O10	O	1.893890	0.143280	0.035211
O11	O	1.609556	-0.311233	-0.524071
O12	O	2.109556	0.188767	-0.024071
O13	O	1.453044	-0.402258	-0.249170
O14	O	1.953044	0.097742	0.250830
O15	O	1.334769	-0.191192	-0.405582
O16	O	1.834769	0.308808	0.094418
O17	O	1.609455	-0.402227	-0.405565
O18	O	2.109455	0.097773	0.094435
O19	O	1.453279	-0.191168	-0.524080
O20	O	1.953279	0.308832	-0.024080
O21	O	1.334635	-0.311287	-0.249177
O22	O	1.834635	0.188713	0.250823
O23	O	1.178298	-0.311241	-0.405530
O24	O	1.678298	0.188759	0.094470
O25	O	1.334663	-0.402146	-0.680384
O26	O	1.834663	0.097854	-0.180384
O27	O	1.178252	-0.402177	-0.523989
O28	O	1.678252	0.097823	-0.023989
O29	O	1.453218	-0.311187	-0.680424
O30	O	1.953218	0.188813	-0.180424
O31	O	1.452984	-0.522277	-0.405513
O32	O	1.952984	-0.022277	0.094487
O33	O	1.334529	-0.522242	-0.523979
O34	O	1.834529	-0.022242	-0.023979
C35	C	1.143276	-0.356708	-0.464755
C36	C	1.643276	0.143292	0.035245
C37	C	1.036062	-0.356721	-0.464763
C38	C	1.536062	0.143279	0.035237
C39	C	0.948992	-0.356724	-0.464779
C40	C	1.448992	0.143276	0.035221
C41	C	0.839760	-0.356729	-0.464809
C42	C	1.339760	0.143271	0.035191
C43	C	1.393761	-0.549130	-0.464760
C44	C	1.893761	-0.049130	0.035240
C45	C	1.393794	-0.631444	-0.464780
C46	C	1.893794	-0.131444	0.035220
C47	C	1.394006	-0.930535	-0.464832
C48	C	1.894006	-0.430535	0.035168
C49	C	1.319650	-0.899219	-0.539553
C50	C	1.819650	-0.399219	-0.039553
C51	C	1.319297	-0.813601	-0.539319
C52	C	1.819297	-0.313601	-0.039319
C53	C	1.393901	-0.782153	-0.464807
C54	C	1.893901	-0.282153	0.035193
C55	C	1.366379	-0.813308	-0.363147
C56	C	1.866379	-0.313308	0.136853
C57	C	1.365899	-0.898953	-0.363594
C58	C	1.865899	-0.398953	0.136406
C59	C	1.496046	-0.898877	-0.490877
C60	C	1.996046	-0.398877	0.009123
C61	C	1.495446	-0.813226	-0.493106
C62	C	1.995446	-0.313226	0.006894
C63	C	1.393843	-0.698293	-0.464787
C64	C	1.893843	-0.198293	0.035213
C65	C	1.394061	-1.014395	-0.464846
C66	C	1.894061	-0.514395	0.035154
C67	C	1.645483	-0.356732	-0.464823
C68	C	2.145483	0.143268	0.035177
C69	C	1.752697	-0.356737	-0.464837
C70	C	2.252697	0.143263	0.035163
C71	C	1.393949	-0.356658	-0.716382
C72	C	1.893949	0.143342	-0.216382
C73	C	1.393974	-0.356631	-0.823596
C74	C	1.893974	0.143369	-0.323596
C75	C	1.394046	-0.163558	-0.464838
C76	C	1.894046	0.336442	0.035162
C77	C	1.394112	-0.081244	-0.464859
C78	C	1.894112	0.418756	0.035141
C79	C	1.393994	-0.356610	-0.910665
C80	C	1.893994	0.143390	-0.410665
C81	C	1.394022	-0.356577	-1.019898
C82	C	1.894022	0.143423	-0.519898
C83	C	1.393887	-0.356728	-0.214174
C84	C	1.893887	0.143272	0.285826
C85	C	1.394048	-0.356546	-0.106961
C86	C	1.894048	0.143454	0.393039
H87	H	1.336516	-0.792534	-0.614699
H88	H	1.836516	-0.292534	-0.114699
O89	O	1.525870	-0.924491	-0.577889
O90	O	2.025870	-0.424491	-0.077889
C91	C	1.459833	-0.902678	-0.649450
C92	C	1.959833	-0.402678	-0.149450
H93	H	1.418446	-0.852019	-0.623799
H94	H	1.918446	-0.352019	-0.123799
H95	H	1.407266	-0.949730	-0.664018
H96	H	1.907266	-0.449730	-0.164018
C97	C	1.565445	-0.945942	-0.774098
C98	C	2.065445	-0.445942	-0.274098
C99	C	1.514619	-0.883718	-0.742596
C100	C	2.014619	-0.383718	-0.242596
H101	H	1.599237	-0.934250	-0.831556
H102	H	2.099237	-0.434250	-0.331556
H103	H	1.609934	-0.960641	-0.725886
H104	H	2.109934	-0.460641	-0.225886
H105	H	1.521630	-0.985147	-0.786230
H106	H	2.021630	-0.485147	-0.286230
H107	H	1.558434	-0.844518	-0.730452
H108	H	2.058434	-0.344518	-0.230452
H109	H	1.470138	-0.869012	-0.790808
H110	H	1.970138	-0.369012	-0.290808
O111	O	1.229114	-0.789106	-0.518787
O112	O	1.729114	-0.289106	-0.018787
C113	C	1.228442	-0.711217	-0.518472
C114	C	1.728442	-0.211217	-0.018472
H115	H	1.290925	-0.689757	-0.563733
H116	H	1.790925	-0.189757	-0.063733
H117	H	1.236177	-0.690388	-0.441458
H118	H	1.736177	-0.190388	0.058542
C119	C	1.056113	-0.709621	-0.505429
C120	C	1.556113	-0.209621	-0.005429
C121	C	1.132851	-0.683263	-0.561027
C122	C	1.632851	-0.183263	-0.061027
H123	H	0.997147	-0.692376	-0.531674
H124	H	1.497147	-0.192376	-0.031674
H125	H	1.056565	-0.762096	-0.505637
H126	H	1.556565	-0.262096	-0.005637
H127	H	1.062572	-0.692261	-0.441255
H128	H	1.562572	-0.192261	0.058745
H129	H	1.126397	-0.700630	-0.625196
H130	H	1.626397	-0.200630	-0.125196
H131	H	1.132395	-0.630790	-0.560830
H132	H	1.632395	-0.130790	-0.060830
O133	O	1.429009	-0.788915	-0.295025
O134	O	1.929009	-0.288915	0.204975
C135	C	1.498865	-0.743229	-0.338401
C136	C	1.998865	-0.243229	0.161599
H137	H	1.469119	-0.719802	-0.408490
H138	H	1.969119	-0.219802	0.091510
H139	H	1.566271	-0.776989	-0.354179
H140	H	2.066271	-0.276989	0.145821
C141	C	1.560832	-0.708139	-0.183706
C142	C	2.060832	-0.208139	0.316294
C143	C	1.524294	-0.679361	-0.269787
C144	C	2.024294	-0.179361	0.230213
H145	H	1.576522	-0.668744	-0.141381
H146	H	2.076522	-0.168744	0.358619
H147	H	1.513771	-0.738921	-0.154483
H148	H	2.013771	-0.238921	0.345517
H149	H	1.616999	-0.736272	-0.196868
H150	H	2.116999	-0.236272	0.303132
H151	H	1.468122	-0.651237	-0.256626
H152	H	1.968122	-0.151237	0.243374
H153	H	1.571346	-0.648573	-0.299007
H154	H	2.071346	-0.148573	0.200993
H155	H	1.553775	-0.791814	-0.442650
H156	H	2.053775	-0.291814	0.057350
O157	O	1.278254	-0.787892	-0.336469
O158	O	1.778254	-0.287892	0.163531
C159	C	1.208945	-0.810880	-0.404213
C160	C	1.708945	-0.310880	0.095787
H161	H	1.236334	-0.861839	-0.443824
H162	H	1.736334	-0.361839	0.056176
H163	H	1.195520	-0.764512	-0.458097
H164	H	1.695520	-0.264512	0.041903
C165	C	1.080732	-0.767201	-0.303263
C166	C	1.580732	-0.267201	0.196737
C167	C	1.114369	-0.829794	-0.351908
C168	C	1.614369	-0.329794	0.148092
H169	H	1.022391	-0.778865	-0.271001
H170	H	1.522391	-0.278865	0.228999
H171	H	1.127427	-0.751711	-0.257624
H172	H	1.627427	-0.251711	0.242376
H173	H	1.069553	-0.728567	-0.348175
H174	H	1.569553	-0.228567	0.151825
H175	H	1.125559	-0.868423	-0.306995
H176	H	1.625559	-0.368423	0.193005
H177	H	1.067673	-0.845291	-0.397538
H178	H	1.567673	-0.345291	0.102462
H179	H	1.516200	-0.792860	-0.567922
H180	H	2.016200	-0.292860	-0.067922
O181	O	1.562138	-0.923162	-0.426037
O182	O	2.062138	-0.423162	0.073963
C183	C	1.565377	-1.001000	-0.427767
C184	C	2.065377	-0.501000	0.072233
H185	H	1.537594	-1.021721	-0.500056
H186	H	2.037594	-0.521721	-0.000056
H187	H	1.518407	-1.023999	-0.367507
H188	H	2.018407	-0.523999	0.132493
C189	C	1.704015	-1.001518	-0.324623
C190	C	2.204015	-0.501518	0.175377
C191	C	1.669900	-1.026968	-0.413413
C192	C	2.169900	-0.526968	0.086587
H193	H	1.768489	-1.017537	-0.315764
H194	H	2.268489	-0.517537	0.184236
H195	H	1.701832	-0.949077	-0.323453
H196	H	2.201832	-0.449077	0.176547
H197	H	1.664865	-1.020686	-0.274416
H198	H	2.164865	-0.520686	0.225584
H199	H	1.709043	-1.007792	-0.463618
H200	H	2.209043	-0.507792	0.036382
H201	H	1.672092	-1.079406	-0.414590
H202	H	2.172092	-0.579406	0.085410
O203	O	1.339871	-0.923633	-0.629843
O204	O	1.839871	-0.423633	-0.129843
C205	C	1.271962	-0.894617	-0.695029
C206	C	1.771962	-0.394617	-0.195029
H207	H	1.239030	-0.842222	-0.663679
H208	H	1.739030	-0.342222	-0.163679
H209	H	1.212852	-0.937136	-0.708091
H210	H	1.712852	-0.437136	-0.208091
C211	C	1.362564	-0.940616	-0.829442
C212	C	1.862564	-0.440616	-0.329442
C213	C	1.322122	-0.876260	-0.790941
C214	C	1.822122	-0.376260	-0.290941
H215	H	1.393502	-0.929295	-0.888607
H216	H	1.893502	-0.429295	-0.388607
H217	H	1.408314	-0.960168	-0.785526
H218	H	1.908314	-0.460168	-0.285526
H219	H	1.313298	-0.976043	-0.840319
H220	H	1.813298	-0.476043	-0.340319
H221	H	1.371389	-0.840838	-0.780054
H222	H	1.871389	-0.340838	-0.280054
H223	H	1.276382	-0.856702	-0.834859
H224	H	1.776382	-0.356702	-0.334859
H225	H	1.244475	-0.920807	-0.522518
H226	H	1.744475	-0.420807	-0.022518
H227	H	1.291308	-0.918997	-0.341532
H228	H	1.791308	-0.418997	0.158468
H229	H	1.417707	-0.919671	-0.306023
H230	H	1.917707	-0.419671	0.193977
