data_functionalizedCrystal
_audit_creation_method	'MofGen! by Chris Wilmer'
_symmetry_space_group_name_H-M	'P1'
_symmetry_Int_Tables_number	1
_symmetry_cell_setting	triclinic
loop_
_symmetry_equiv_pos_as_xyz
  x,y,z
_cell_length_a	10.686285
_cell_length_b	10.686220
_cell_length_c	10.686551
_cell_angle_alpha	89.692081
_cell_angle_beta	99.084519
_cell_angle_gamma	90.345593
loop_
_atom_site_label
_atom_site_type_symbol
_atom_site_fract_x
_atom_site_fract_y
_atom_site_fract_z
Zn1	Zn	-0.307891	1.994012	0.537155
Zn2	Zn	0.192109	2.494012	1.037155
Zn3	Zn	-0.536478	1.993911	0.308660
Zn4	Zn	-0.036478	2.493911	0.808660
Zn5	Zn	-0.340199	1.770410	0.340824
Zn6	Zn	0.159801	2.270410	0.840824
Zn7	Zn	-0.533920	1.800161	0.534647
Zn8	Zn	-0.033920	2.300161	1.034647
O9	O	-0.429622	1.889623	0.430322
O10	O	0.070378	2.389623	0.930322
O11	O	-0.325764	2.168662	0.494434
O12	O	0.174236	2.668662	0.994434
O13	O	-0.525033	1.951770	0.136185
O14	O	-0.025033	2.451770	0.636185
O15	O	-0.159176	1.787663	0.381378
O16	O	0.340824	2.287663	0.881378
O17	O	-0.493706	2.168588	0.326560
O18	O	0.006294	2.668588	0.826560
O19	O	-0.135440	1.951942	0.525622
O20	O	0.364560	2.451942	1.025622
O21	O	-0.380828	1.787565	0.159816
O22	O	0.119172	2.287565	0.659816
O23	O	-0.378347	1.599693	0.378946
O24	O	0.121653	2.099693	0.878946
O25	O	-0.489345	1.838368	0.711721
O26	O	0.010655	2.338368	1.211721
O27	O	-0.520672	1.621551	0.521347
O28	O	-0.020672	2.121551	1.021347
O29	O	-0.323283	1.980790	0.713564
O30	O	0.176717	2.480790	1.213564
O31	O	-0.712876	1.980618	0.324127
O32	O	-0.212876	2.480618	0.824127
O33	O	-0.710996	1.838270	0.490159
O34	O	-0.210996	2.338270	0.990159
C35	C	-0.452739	1.565334	0.453365
C36	C	0.047261	2.065334	0.953365
C37	C	-0.462656	1.426605	0.463250
C38	C	0.037344	1.926605	0.963250
C39	C	-0.757758	1.912698	0.403406
C40	C	-0.257758	2.412698	0.903406
C41	C	-0.898124	1.922686	0.391925
C42	C	-0.398124	2.422686	0.891925
C43	C	-0.100201	1.866495	0.457368
C44	C	0.399799	2.366495	0.957368
C45	C	0.040179	1.856639	0.468893
C46	C	0.540179	2.356639	0.968893
C47	C	-0.402425	1.912909	0.759751
C48	C	0.097575	2.412909	1.259751
C49	C	-0.390835	1.922832	0.900134
C50	C	0.109165	2.422832	1.400134
C51	C	-0.406416	2.215179	0.407189
C52	C	0.093584	2.715179	0.907189
C53	C	-0.396527	2.353912	0.397331
C54	C	0.103473	2.853912	0.897331
C55	C	-0.456618	1.866493	0.102176
C56	C	0.043382	2.366493	0.602176
C57	C	-0.467835	1.856787	-0.038195
C58	C	0.032165	2.356787	0.461805
H59	H	-0.332328	1.397813	0.333321
H60	H	0.167672	1.897813	0.833321
Br61	Br	-0.569677	1.353448	0.569917
Br62	Br	-0.069677	1.853448	1.069917
H63	H	-0.905253	1.792449	0.543579
H64	H	-0.405253	2.292449	1.043579
H65	H	-0.952688	1.986863	0.317237
H66	H	-0.452688	2.486863	0.817237
H67	H	-0.316045	1.986977	0.954738
H68	H	0.183955	2.486977	1.454738
H69	H	-0.542628	1.792656	0.907206
H70	H	-0.042628	2.292656	1.407206
