data_functionalizedCrystal
_audit_creation_method	'MofGen! by Chris Wilmer'
_symmetry_space_group_name_H-M	'P1'
_symmetry_Int_Tables_number	1
_symmetry_cell_setting	triclinic
loop_
_symmetry_equiv_pos_as_xyz
  x,y,z
_cell_length_a	27.440280
_cell_length_b	27.440279
_cell_length_c	27.440280
_cell_angle_alpha	60.010235
_cell_angle_beta	90.005633
_cell_angle_gamma	60.011417
loop_
_atom_site_label
_atom_site_type_symbol
_atom_site_fract_x
_atom_site_fract_y
_atom_site_fract_z
Zr1	Zr	0.469683	0.533217	-0.063774
O2	O	0.391900	0.634857	-0.141571
O3	O	0.493504	0.431576	-0.039940
O4	O	0.493541	0.533205	-0.141581
O5	O	0.391861	0.533238	0.040262
O6	O	0.573743	0.533195	-0.141571
O7	O	0.391863	0.533229	-0.039931
O8	O	0.573677	0.351400	0.040245
O9	O	0.391927	0.715033	-0.141554
O10	O	0.563546	0.473375	-0.029750
O11	O	0.503690	0.473389	0.030090
O12	O	0.503733	0.593044	-0.089578
O13	O	0.443877	0.593058	-0.029738
Zr14	Zr	0.597593	0.533217	0.064141
Zr15	Zr	0.597597	0.533202	-0.063758
Zr16	Zr	0.469679	0.533232	0.064125
Zr17	Zr	0.469726	0.661088	-0.063746
Zr18	Zr	0.597550	0.405346	0.064113
O19	O	0.573773	0.634857	0.040307
O20	O	0.573778	0.634836	-0.141549
O21	O	0.391895	0.634879	0.040285
O22	O	0.675376	0.431576	0.141938
O23	O	0.675381	0.431555	-0.039918
O24	O	0.493499	0.431598	0.141916
O25	O	0.675415	0.533195	-0.039895
O26	O	0.573736	0.533229	0.141948
O27	O	0.493533	0.533238	0.141938
O28	O	0.675413	0.533205	0.040298
O29	O	0.493602	0.715021	-0.141541
O30	O	0.573674	0.351412	0.141908
O31	O	0.675349	0.351400	0.141921
O32	O	0.675352	0.351388	0.040258
O33	O	0.391924	0.715045	-0.039891
O34	O	0.493599	0.715033	-0.039878
O35	O	0.563543	0.473389	0.089945
O36	O	0.623399	0.473375	0.030105
O37	O	0.563586	0.593044	-0.029723
O38	O	0.503730	0.593058	0.030117
C39	C	0.533584	0.373269	0.000148
C40	C	0.533566	0.318985	0.000137
C41	C	0.502386	0.084233	0.031423
C42	C	0.502374	0.135264	0.031415
O43	O	0.475814	0.161646	0.057992
N44	N	0.533610	0.160781	0.000172
C45	C	0.564865	0.135261	-0.031061
O46	O	0.591433	0.161651	-0.057636
C47	C	0.564880	0.084228	-0.031049
C48	C	0.533637	0.058718	0.000191
C49	C	0.471146	0.058723	0.062662
C50	C	0.471157	0.007697	0.062668
C51	C	0.502408	-0.017818	0.031437
C52	C	0.533648	0.007693	0.000198
C53	C	0.596138	0.058706	-0.062278
C54	C	0.596150	0.007669	-0.062263
C55	C	0.564907	-0.017841	-0.031023
C56	C	0.564910	-0.068848	-0.031027
N57	N	0.533674	-0.094366	0.000217
C58	C	0.502423	-0.068851	0.031448
C59	C	0.564832	0.242432	-0.031082
C60	C	0.564814	0.293468	-0.031098
C61	C	0.502325	0.293466	0.031379
C62	C	0.502339	0.242433	0.031391
C63	C	0.533596	0.216915	0.000161
C64	C	0.502448	-0.176008	0.031460
C65	C	0.502459	-0.227036	0.031462
C66	C	0.564952	-0.227032	-0.031012
C67	C	0.564938	-0.176006	-0.031017
C68	C	0.533684	-0.150497	0.000223
O69	O	0.591458	-0.095265	-0.057588
O70	O	0.475866	-0.095253	0.058026
C71	C	0.373637	0.533235	0.000163
C72	C	0.319334	0.533242	0.000157
C73	C	0.013858	0.470740	0.031430
C74	C	-0.037161	0.470736	0.031435
O75	O	-0.036996	0.417611	0.058013
N76	N	-0.093899	0.533201	0.000205
C77	C	-0.099618	0.595674	-0.031028
O78	O	-0.152563	0.648805	-0.057591
C79	C	-0.048600	0.595677	-0.031030
C80	C	0.008137	0.533208	0.000198
C81	C	0.070593	0.408275	0.062656
C82	C	0.121608	0.408280	0.062649
C83	C	0.115887	0.470748	0.031417
C84	C	0.059152	0.533212	0.000192
C85	C	-0.054320	0.658149	-0.062259
C86	C	-0.003296	0.658147	-0.062257
C87	C	0.053442	0.595678	-0.031030
C88	C	0.104447	0.595684	-0.031047
N89	N	0.161185	0.533219	0.000184
C90	C	0.166905	0.470751	0.031416
C91	C	-0.206757	0.595663	-0.031022
C92	C	-0.257774	0.595660	-0.031024
C93	C	-0.195313	0.470722	0.031440
C94	C	-0.144295	0.470725	0.031439
C95	C	-0.150018	0.533197	0.000209
C96	C	0.274038	0.470764	0.031400
C97	C	0.325054	0.470774	0.031389
C98	C	0.262589	0.595711	-0.031073
C99	C	0.211577	0.595702	-0.031065
C100	C	0.217305	0.533223	0.000176
O101	O	0.104328	0.648782	-0.057609
O102	O	0.219852	0.417629	0.057981
C103	C	0.693639	0.533198	0.000204
C104	C	0.747942	0.533192	0.000210
C105	C	0.533642	0.533198	-0.159799
C106	C	0.533644	0.533191	-0.214095
C107	C	0.533692	0.693164	0.000218
C108	C	0.533710	0.747449	0.000230
C109	C	0.564873	0.470740	-0.417573
C110	C	0.564874	0.470736	-0.366551
O111	O	0.591444	0.417611	-0.313603
N112	N	0.533650	0.533201	-0.372264
C113	C	0.502427	0.595674	-0.429003
O114	O	0.475869	0.648805	-0.429177
C115	C	0.502429	0.595677	-0.480024
C116	C	0.533651	0.533208	-0.474307
C117	C	0.596092	0.408275	-0.411859
C118	C	0.596090	0.408280	-0.462878
C119	C	0.564868	0.470748	-0.519611
C120	C	0.533648	0.533212	-0.525326
C121	C	0.471210	0.658149	-0.536762
C122	C	0.471215	0.658147	-0.587784
C123	C	0.502437	0.595678	-0.582067
C124	C	0.502423	0.595684	-0.633078
N125	N	0.533648	0.533219	-0.627366
C126	C	0.564870	0.470751	-0.570632
C127	C	0.502425	0.595662	-0.321853
C128	C	0.502419	0.595660	-0.270834
C129	C	0.564868	0.470722	-0.208385
C130	C	0.564870	0.470725	-0.259406
C131	C	0.533650	0.533197	-0.316141
C132	C	0.564862	0.470764	-0.677778
C133	C	0.564854	0.470774	-0.728804
C134	C	0.502409	0.595712	-0.791248
C135	C	0.502413	0.595702	-0.740227
C136	C	0.533644	0.533223	-0.683490
O137	O	0.475870	0.648782	-0.686045
O138	O	0.591430	0.417629	-0.570469
C139	C	0.533634	0.533236	0.160166
C140	C	0.533632	0.533242	0.214462
C141	C	0.693585	0.373251	0.000169
C142	C	0.747870	0.318960	0.000163
C143	C	0.533580	0.373288	0.160131
C144	C	0.533560	0.319010	0.214415
C145	C	0.693581	0.373269	0.160151
C146	C	0.747864	0.318985	0.214442
C147	C	0.373695	0.693164	-0.159784
C148	C	0.319412	0.747449	-0.214075
C149	C	0.373691	0.693183	0.000198
C150	C	0.319406	0.747474	0.000204
C151	C	0.533696	0.693145	-0.159764
C152	C	0.533716	0.747423	-0.214048
C153	C	0.742120	0.293464	-0.031088
C154	C	0.793121	0.242459	-0.031105
C155	C	0.849872	0.216947	0.000134
C156	C	0.855621	0.242447	0.031386
C157	C	0.804620	0.293455	0.031399
C158	C	0.564793	0.293520	0.271157
C159	C	0.564772	0.242527	0.322168
C160	C	0.533522	0.217021	0.316436
C161	C	0.502284	0.242516	0.259689
C162	C	0.502302	0.293512	0.208679
C163	C	0.804606	0.293485	0.208702
C164	C	0.855615	0.242486	0.259710
C165	C	0.849882	0.216984	0.316457
C166	C	0.793135	0.242489	0.322196
C167	C	0.742126	0.293491	0.271189
C168	C	0.262670	0.772955	-0.208335
C169	C	0.211661	0.823970	-0.259343
C170	C	0.217394	0.849474	-0.316090
C171	C	0.274141	0.823966	-0.321829
C172	C	0.325150	0.772955	-0.270822
C173	C	0.325156	0.772975	0.031450
C174	C	0.274155	0.823994	0.031452
C175	C	0.217404	0.849508	0.000212
C176	C	0.211655	0.824005	-0.031038
C177	C	0.262656	0.772990	-0.031044
C178	C	0.564973	0.772913	-0.208298
C179	C	0.565003	0.823907	-0.259299
C180	C	0.533773	0.849413	-0.316051
C181	C	0.502515	0.823918	-0.321800
C182	C	0.502488	0.772922	-0.270800
H183	H	0.445698	0.079490	0.088097
C184	C	0.468188	0.851958	-0.384233
N185	N	0.442340	0.873072	-0.431259
C186	C	0.786838	0.214424	0.384624
N187	N	0.782097	0.193280	0.431646
C188	C	0.918052	0.214372	0.065751
N189	N	0.965077	0.193219	0.091639
H190	H	0.809310	0.314207	0.056851
C191	C	0.467948	0.321537	0.146264
N192	N	0.442072	0.342642	0.099254
C193	C	0.161307	0.905623	0.000227
N194	N	0.119057	0.947887	0.000243
H195	H	0.621520	0.357404	-0.365667
H196	H	0.621605	-0.013107	-0.087693
H197	H	0.476987	0.646529	-0.275496
C198	C	0.387565	0.744896	-0.277146
N199	N	0.434575	0.723763	-0.281914
H200	H	0.476996	0.646538	-0.368049
H201	H	0.476987	0.646572	-0.837449
H202	H	-0.211425	0.646538	-0.056456
C203	C	0.599302	-0.147940	-0.065387
N204	N	0.625192	-0.126810	-0.091270
C205	C	0.810927	0.321531	0.146285
N206	N	0.815693	0.342656	0.099274
C207	C	0.918032	0.214433	0.253384
N208	N	0.965043	0.193304	0.248617
H209	H	-0.190663	0.419857	0.056869
C210	C	0.387577	0.744923	0.065816
N211	N	0.434592	0.723800	0.091699
H212	H	0.257942	0.646571	-0.056504
H213	H	0.695915	0.314235	-0.056533
H214	H	0.590293	0.419857	-0.254745
H215	H	0.788429	0.221702	-0.056554
H216	H	0.590293	0.419888	-0.631586
H217	H	0.278847	0.844750	0.056902
H218	H	0.257991	0.752192	-0.162134
H219	H	0.165460	0.844730	-0.254659
H220	H	0.175855	0.891010	-0.357619
H221	H	0.891395	0.175412	0.000119
H222	H	0.445787	0.709018	-0.541430
C223	C	0.599336	0.744862	-0.145875
N224	N	0.625223	0.723734	-0.098860
H225	H	0.165442	0.844786	-0.056473
C226	C	0.280438	0.852022	-0.384257
N227	N	0.285179	0.873151	-0.431279
H228	H	0.891421	0.175455	0.357986
H229	H	0.257966	0.752228	-0.056486
C230	C	0.599388	0.851945	-0.252961
N231	N	0.625285	0.873062	-0.248185
C232	C	0.533514	0.160918	0.372555
N233	N	0.533514	0.118657	0.414826
C234	C	0.630439	0.339558	-0.456579
N235	N	0.656314	0.287793	-0.451830
C236	C	0.533806	0.905511	-0.372148
N237	N	0.533833	0.947766	-0.414398
H238	H	0.590290	0.419857	-0.162181
H239	H	0.590242	0.314282	0.275836
H240	H	0.477015	-0.247803	0.056902
C241	C	0.468066	-0.147954	0.065825
N242	N	0.442168	-0.126821	0.091706
C243	C	0.436833	-0.020403	0.097082
N244	N	0.410995	-0.041582	0.123020
H245	H	0.476841	0.221741	0.255031
C246	C	0.468064	0.664421	-0.746516
N247	N	0.442196	0.716182	-0.751257
H248	H	0.476899	0.221666	0.056830
C249	C	-0.116723	0.726871	-0.096610
N250	N	-0.163726	0.778637	-0.122485
C251	C	0.599144	0.214486	0.384585
N252	N	0.625034	0.193365	0.431596
C253	C	0.679711	0.321534	0.277513
N254	N	0.632701	0.342654	0.282281
H255	H	0.590248	0.314242	-0.056544
C256	C	0.599207	0.214380	-0.065453
N257	N	0.625096	0.193255	-0.091342
C258	C	0.280348	0.402034	0.065762
N259	N	0.285101	0.350266	0.091639
C260	C	0.630512	0.086751	-0.096641
N261	N	0.656407	0.107872	-0.122524
C262	C	0.184015	0.339558	0.097008
N263	N	0.231019	0.287793	0.122891
H264	H	0.476879	0.314249	0.056810
H265	H	0.477032	0.752174	-0.275491
H266	H	0.445792	0.709021	-0.633979
H267	H	0.371253	0.419902	0.056820
C268	C	0.076899	0.339549	0.097010
N269	N	0.081654	0.287780	0.122882
H270	H	-0.098100	0.419857	0.056872
C271	C	0.149163	0.664421	-0.065419
N272	N	0.102156	0.716182	-0.091290
C273	C	-0.009598	0.726873	-0.096616
N274	N	-0.014346	0.778638	-0.122498
H275	H	0.590394	-0.247813	-0.056443
H276	H	0.590278	0.419902	-0.724142
H277	H	-0.303969	0.646529	-0.056461
