data_functionalizedCrystal
_audit_creation_method	'MofGen! by Chris Wilmer'
_symmetry_space_group_name_H-M	'P1'
_symmetry_Int_Tables_number	1
_symmetry_cell_setting	triclinic
loop_
_symmetry_equiv_pos_as_xyz
  x,y,z
_cell_length_a	15.297475
_cell_length_b	15.297327
_cell_length_c	12.827885
_cell_angle_alpha	99.642715
_cell_angle_beta	80.312948
_cell_angle_gamma	91.625546
loop_
_atom_site_label
_atom_site_type_symbol
_atom_site_fract_x
_atom_site_fract_y
_atom_site_fract_z
Zn1	Zn	1.278711	-0.580728	-0.963115
Zn2	Zn	1.778711	-0.080728	-0.463115
Zn3	Zn	1.253242	-0.727199	-0.812613
Zn4	Zn	1.753242	-0.227199	-0.312613
Zn5	Zn	1.132226	-0.555385	-0.753991
Zn6	Zn	1.632226	-0.055385	-0.253991
Zn7	Zn	1.106853	-0.701761	-0.952916
Zn8	Zn	1.606853	-0.201761	-0.452916
O9	O	1.192758	-0.641268	-0.870659
O10	O	1.692758	-0.141268	-0.370659
O11	O	1.397901	-0.621409	-0.971952
O12	O	1.897901	-0.121409	-0.471952
O13	O	1.237150	-0.704447	-0.658600
O14	O	1.737150	-0.204447	-0.158600
O15	O	1.172935	-0.436189	-0.761467
O16	O	1.672935	0.063811	-0.261467
O17	O	1.379190	-0.729021	-0.861379
O18	O	1.879190	-0.229021	-0.361379
O19	O	1.280557	-0.454808	-0.915109
O20	O	1.780557	0.045192	-0.415109
O21	O	1.148239	-0.578216	-0.615531
O22	O	1.648239	-0.078216	-0.115531
O23	O	1.006292	-0.553550	-0.751577
O24	O	1.506292	-0.053550	-0.251577
O25	O	1.129690	-0.685666	-1.100505
O26	O	1.629690	-0.185666	-0.600505
O27	O	0.987650	-0.661092	-0.897726
O28	O	1.487650	-0.161092	-0.397726
O29	O	1.255953	-0.596743	-1.107998
O30	O	1.755953	-0.096743	-0.607998
O31	O	1.212546	-0.846382	-0.851489
O32	O	1.712546	-0.346382	-0.351489
O33	O	1.104995	-0.827693	-0.954569
O34	O	1.604995	-0.327693	-0.454569
C35	C	0.965190	-0.601811	-0.817185
C36	C	1.465190	-0.101811	-0.317185
C37	C	0.867832	-0.584953	-0.794336
C38	C	1.367832	-0.084953	-0.294336
C39	C	0.554608	-0.761766	-1.033961
C40	C	1.054608	-0.261766	-0.533961
C41	C	0.646080	-0.777611	-1.055426
C42	C	1.146080	-0.277611	-0.555426
C43	C	0.701523	-0.729448	-0.990156
C44	C	1.201523	-0.229448	-0.490156
C45	C	0.665484	-0.665436	-0.903416
C46	C	1.165484	-0.165436	-0.403416
C47	C	0.574003	-0.649593	-0.881944
C48	C	1.074003	-0.149593	-0.381944
C49	C	0.720917	-0.617276	-0.838139
C50	C	1.220917	-0.117276	-0.338139
C51	C	0.684878	-0.553264	-0.751399
C52	C	1.184878	-0.053264	-0.251399
C53	C	0.593406	-0.537424	-0.729931
C54	C	1.093406	-0.037424	-0.229931
C55	C	0.537963	-0.585587	-0.795202
C56	C	1.037963	-0.085587	-0.295202
C57	C	0.812398	-0.633119	-0.859611
C58	C	1.312398	-0.133119	-0.359611
C59	C	0.831792	-0.520947	-0.707594
C60	C	1.331792	-0.020947	-0.207594
C61	C	0.740321	-0.505101	-0.686129
C62	C	1.240321	-0.005101	-0.186129
C63	C	1.153277	-0.868820	-0.908312
C64	C	1.653277	-0.368820	-0.408312
C65	C	1.136467	-0.966181	-0.924474
C66	C	1.636467	-0.466181	-0.424474
C67	C	1.313263	-1.279456	-0.755586
C68	C	1.813263	-0.779456	-0.255586
C69	C	1.329056	-1.187980	-0.740396
C70	C	1.829056	-0.687980	-0.240396
C71	C	1.280910	-1.132526	-0.786414
C72	C	1.780910	-0.632526	-0.286414
C73	C	1.216968	-1.168557	-0.847626
C74	C	1.716968	-0.668557	-0.347626
C75	C	1.201168	-1.260041	-0.862811
C76	C	1.701168	-0.760041	-0.362811
C77	C	1.168816	-1.113111	-0.893639
C78	C	1.668816	-0.613111	-0.393639
C79	C	1.104874	-1.149141	-0.954850
C80	C	1.604874	-0.649141	-0.454850
C81	C	1.089078	-1.240617	-0.970033
C82	C	1.589078	-0.740617	-0.470033
C83	C	1.137223	-1.296071	-0.924015
C84	C	1.637223	-0.796071	-0.424015
C85	C	1.184616	-1.021627	-0.878454
C86	C	1.684616	-0.521627	-0.378454
C87	C	1.072522	-1.002211	-0.985678
C88	C	1.572522	-0.502211	-0.485678
C89	C	1.056729	-1.093687	-1.000869
C90	C	1.556729	-0.593687	-0.500869
C91	C	1.421215	-0.680879	-0.924342
C92	C	1.921215	-0.180879	-0.424342
C93	C	1.518569	-0.697759	-0.947219
C94	C	2.018569	-0.197759	-0.447219
C95	C	1.192832	-0.641194	-1.143229
C96	C	1.692832	-0.141194	-0.643229
C97	C	1.192864	-0.641163	-1.259382
C98	C	1.692864	-0.141163	-0.759382
C99	C	1.232417	-0.412832	-0.832886
C100	C	1.732417	0.087168	-0.332886
C101	C	1.249317	-0.315486	-0.816790
C102	C	1.749317	0.184514	-0.316790
C103	C	1.255350	-0.597152	-1.314874
C104	C	1.755350	-0.097152	-0.814874
C105	C	1.255385	-0.597118	-1.434925
C106	C	1.755385	-0.097118	-0.934925
C107	C	1.192746	-0.641287	-0.599150
C108	C	1.692746	-0.141287	-0.099150
C109	C	1.192926	-0.641101	-0.482996
C110	C	1.692926	-0.141101	0.017004
H111	H	0.776003	-0.742353	-1.007639
H112	H	1.276003	-0.242353	-0.507639
Cl113	Cl	1.011987	-0.932503	-1.043526
Cl114	Cl	1.511987	-0.432503	-0.543526
Cl115	Cl	0.484904	-0.822324	-1.115985
Cl116	Cl	0.984904	-0.322324	-0.615985
Cl117	Cl	1.337893	-0.538987	-1.251006
Cl118	Cl	1.837893	-0.038987	-0.751006
H119	H	1.004666	-1.123036	-1.050707
H120	H	1.504666	-0.623036	-0.550707
Cl121	Cl	1.301006	-1.017568	-0.767659
Cl122	Cl	1.801006	-0.517568	-0.267659
Cl123	Cl	1.110299	-0.699297	-1.323240
Cl124	Cl	1.610299	-0.199297	-0.823240
Cl125	Cl	1.110328	-0.699287	-1.409354
Cl126	Cl	1.610328	-0.199287	-0.909354
H127	H	1.236678	-0.992299	-0.828615
H128	H	1.736678	-0.492299	-0.328615
Cl129	Cl	1.373778	-1.349172	-0.697739
Cl130	Cl	1.873778	-0.849172	-0.197739
H131	H	0.841732	-0.685237	-0.930236
H132	H	1.341732	-0.185237	-0.430236
Cl133	Cl	1.117016	-1.411012	-0.942601
Cl134	Cl	1.617016	-0.911012	-0.442601
Cl135	Cl	1.337988	-0.538946	-1.508578
Cl136	Cl	1.837988	-0.038946	-1.008578
Cl137	Cl	0.691379	-0.858081	-1.164464
Cl138	Cl	1.191379	-0.358081	-0.664464
Cl139	Cl	0.422965	-0.565664	-0.768226
Cl140	Cl	0.922965	-0.065664	-0.268226
H141	H	0.564065	-0.485310	-0.659293
H142	H	1.064065	0.014690	-0.159293
Cl143	Cl	0.695004	-0.424631	-0.577088
Cl144	Cl	1.195004	0.075369	-0.077088
Cl145	Cl	1.008689	-1.285909	-1.046979
Cl146	Cl	1.508689	-0.785909	-0.546979
Cl147	Cl	1.409445	-1.142692	-0.663460
Cl148	Cl	1.909445	-0.642692	-0.163460
H149	H	0.876934	-0.481729	-0.654444
H150	H	1.376934	0.018271	-0.154444
