data_functionalizedCrystal
_audit_creation_method	'MofGen! by Chris Wilmer'
_symmetry_space_group_name_H-M	'P1'
_symmetry_Int_Tables_number	1
_symmetry_cell_setting	triclinic
loop_
_symmetry_equiv_pos_as_xyz
  x,y,z
_cell_length_a	15.944493
_cell_length_b	15.021413
_cell_length_c	12.837942
_cell_angle_alpha	89.994069
_cell_angle_beta	90.848008
_cell_angle_gamma	89.992483
loop_
_atom_site_label
_atom_site_type_symbol
_atom_site_fract_x
_atom_site_fract_y
_atom_site_fract_z
O1	O	1.125231	-0.074020	-0.133392
O2	O	1.458565	0.259314	0.199942
O3	O	1.791898	0.592647	0.533275
O4	O	0.881999	-0.074024	-0.149937
O5	O	1.215332	0.259309	0.183396
O6	O	1.548665	0.592643	0.516729
O7	O	0.998221	-0.074016	0.009237
O8	O	1.331555	0.259317	0.342571
O9	O	1.664888	0.592650	0.675904
O10	O	1.009008	-0.074027	-0.292566
O11	O	1.342342	0.259306	0.040767
O12	O	1.675675	0.592639	0.374100
O13	O	0.998201	0.074048	0.009212
O14	O	1.331534	0.407381	0.342545
O15	O	1.664867	0.740714	0.675878
O16	O	0.881978	0.074040	-0.149963
O17	O	1.215311	0.407374	0.183370
O18	O	1.548645	0.740707	0.516704
O19	O	1.125211	0.074044	-0.133417
O20	O	1.458544	0.407378	0.199916
O21	O	1.791877	0.740711	0.533249
Zn22	Zn	1.003591	0.097551	-0.141694
Zn23	Zn	1.336924	0.430884	0.191639
Zn24	Zn	1.670258	0.764217	0.524972
Zn25	Zn	1.003618	-0.097530	-0.141661
Zn26	Zn	1.336951	0.235803	0.191673
Zn27	Zn	1.670285	0.569136	0.525006
O28	O	1.008988	0.074037	-0.292592
O29	O	1.342321	0.407370	0.040741
O30	O	1.675654	0.740704	0.374075
C31	C	0.850639	0.000008	-0.149274
C32	C	1.183973	0.333341	0.184059
C33	C	1.517306	0.666674	0.517393
C34	C	0.757229	0.000006	-0.147247
C35	C	1.090562	0.333339	0.186087
C36	C	1.423895	0.666673	0.519420
C37	C	0.528964	0.000002	-0.240940
C38	C	0.862297	0.333335	0.092393
C39	C	1.195631	0.666669	0.425726
C40	C	0.474353	0.073011	-0.190428
C41	C	0.807687	0.406344	0.142906
C42	C	1.141020	0.739678	0.476239
C43	C	0.586207	0.000008	-0.143490
C44	C	0.919540	0.333341	0.189843
C45	C	1.252874	0.666675	0.523177
C46	C	0.474376	-0.072969	-0.190379
C47	C	0.807710	0.260365	0.142954
C48	C	1.141043	0.593698	0.476287
C49	C	0.421008	0.000006	-0.139868
C50	C	0.754341	0.333339	0.193465
C51	C	1.087674	0.666672	0.526798
C52	C	0.532827	0.073077	-0.093003
C53	C	0.866160	0.406410	0.240330
C54	C	1.199494	0.739744	0.573663
C55	C	0.532854	-0.072968	-0.092969
C56	C	0.866188	0.260365	0.240364
C57	C	1.199521	0.593698	0.573697
C58	C	0.478271	0.000059	-0.042385
C59	C	0.811604	0.333392	0.290948
C60	C	1.144938	0.666725	0.624282
C61	C	0.681374	0.000010	-0.145579
C62	C	1.014707	0.333343	0.187754
C63	C	1.348041	0.666676	0.521088
C64	C	0.325843	0.000010	-0.137772
C65	C	0.659176	0.333344	0.195562
C66	C	0.992509	0.666677	0.528895
N67	N	1.003579	0.230688	-0.141717
N68	N	1.336912	0.564022	0.191617
N69	N	1.670245	0.897355	0.524950
C70	C	0.949822	0.470368	-0.215289
C71	C	1.283155	0.803701	0.118044
C72	C	1.616489	1.137035	0.451377
C73	C	1.027332	0.529703	-0.235396
C74	C	1.360665	0.863036	0.097938
C75	C	1.693999	1.196370	0.431271
C76	C	1.003596	0.412295	-0.141694
C77	C	1.336929	0.745629	0.191639
C78	C	1.670262	1.078962	0.524972
C79	C	0.926106	0.529702	-0.121615
C80	C	1.259439	0.863035	0.211719
C81	C	1.592772	1.196369	0.545052
C82	C	1.003605	0.587719	-0.141675
C83	C	1.336939	0.921053	0.191658
C84	C	1.670272	1.254386	0.524991
C85	C	1.081148	0.470324	-0.161847
C86	C	1.414481	0.803657	0.171486
C87	C	1.747814	1.136990	0.504819
C88	C	0.979868	0.470317	-0.048026
C89	C	1.313201	0.803651	0.285307
C90	C	1.646535	1.136984	0.618641
C91	C	1.057430	0.529626	-0.068092
C92	C	1.390763	0.862959	0.265241
C93	C	1.724096	1.196292	0.598574
C94	C	1.003589	0.311238	-0.141708
C95	C	1.336922	0.644571	0.191625
C96	C	1.670256	0.977905	0.524959
C97	C	1.003621	0.688775	-0.141661
C98	C	1.336954	1.022108	0.191673
C99	C	1.670287	1.355441	0.525006
C100	C	1.156570	0.000011	-0.134081
C101	C	1.489903	0.333344	0.199253
C102	C	1.823236	0.666678	0.532586
C103	C	1.249981	0.000007	-0.136108
C104	C	1.583314	0.333340	0.197225
C105	C	1.916647	0.666673	0.530558
C106	C	0.994567	0.000015	0.047844
C107	C	1.327900	0.333348	0.381178
C108	C	1.661234	0.666682	0.714511
C109	C	0.983699	0.000013	0.162919
C110	C	1.317033	0.333347	0.496253
C111	C	1.650366	0.666680	0.829586
N112	N	1.003624	0.769332	-0.141650
N113	N	1.336957	1.102665	0.191684
N114	N	1.670290	1.435999	0.525017
C115	C	1.012642	0.000003	-0.331199
C116	C	1.345975	0.333337	0.002134
C117	C	1.679309	0.666670	0.335468
C118	C	1.023510	-0.000001	-0.446274
C119	C	1.356843	0.333333	-0.112941
C120	C	1.690177	0.666666	0.220393
C121	C	1.114353	-0.000003	0.403902
C122	C	1.447686	0.333330	0.737236
C123	C	1.781019	0.666664	1.070569
C124	C	1.104145	-0.000005	0.512026
C125	C	1.437478	0.333329	0.845359
C126	C	1.770812	0.666662	1.178693
C127	C	0.953077	0.000002	0.487293
C128	C	1.286411	0.333335	0.820627
C129	C	1.619744	0.666669	1.153960
C130	C	0.963285	0.000004	0.379169
C131	C	1.296618	0.333337	0.712503
C132	C	1.629951	0.666670	1.045836
C133	C	1.043925	0.000003	0.337478
C134	C	1.377258	0.333336	0.670811
C135	C	1.710592	0.666669	1.004145
C136	C	1.054132	0.000011	0.229352
C137	C	1.387465	0.333344	0.562685
C138	C	1.720798	0.666677	0.896019
C139	C	0.903065	0.000011	0.204621
C140	C	1.236398	0.333344	0.537955
C141	C	1.569731	0.666677	0.871288
C142	C	0.892857	0.000009	0.312745
C143	C	1.226191	0.333342	0.646078
C144	C	1.559524	0.666676	0.979412
H145	H	0.551303	0.000067	-0.324884
H146	H	0.884636	0.333401	0.008450
H147	H	1.217969	0.666734	0.341783
H148	H	0.904403	0.444350	-0.277575
H149	H	1.237737	0.777683	0.055758
H150	H	1.571070	1.111016	0.389092
H151	H	0.456085	0.000104	0.041622
H152	H	0.789418	0.333437	0.374955
H153	H	1.122752	0.666770	0.708288
H154	H	1.102963	0.555481	-0.005844
H155	H	1.436297	0.888814	0.327490
H156	H	1.769630	1.222148	0.660823
H157	H	0.558519	-0.134691	-0.051835
H158	H	0.891853	0.198642	0.281499
H159	H	1.225186	0.531976	0.614832
H160	H	0.845718	0.000022	0.150526
H161	H	1.179051	0.333356	0.483860
H162	H	1.512384	0.666689	0.817193
H163	H	0.448700	0.134731	-0.231593
H164	H	0.782033	0.468064	0.101740
H165	H	1.115366	0.801397	0.435073
H166	H	0.558356	0.134862	-0.051884
H167	H	0.891689	0.468195	0.281449
H168	H	1.225023	0.801528	0.614783
H169	H	0.448740	-0.134683	-0.231543
H170	H	0.782074	0.198650	0.101790
H171	H	1.115407	0.531983	0.435123
H172	H	1.047411	0.555788	-0.314600
H173	H	1.380744	0.889121	0.018733
H174	H	1.714078	1.222454	0.352066
H175	H	1.119793	0.000013	0.195409
H176	H	1.453126	0.333346	0.528743
H177	H	1.786460	0.666680	0.862076
H178	H	0.887424	-0.000007	0.521258
H179	H	1.220757	0.333327	0.854591
H180	H	1.554090	0.666660	1.187924
H181	H	1.180013	0.000005	0.369957
H182	H	1.513346	0.333338	0.703290
H183	H	1.846680	0.666672	1.036624
H184	H	1.161495	-0.000012	0.566106
H185	H	1.494828	0.333322	0.899439
H186	H	1.828161	0.666655	1.232772
H187	H	0.959768	0.444212	0.031154
H188	H	1.293101	0.777545	0.364487
H189	H	1.626434	1.110879	0.697820
H190	H	1.146705	0.444351	-0.178917
H191	H	1.480039	0.777684	0.154416
H192	H	1.813372	1.111018	0.487750
H193	H	0.860570	0.555787	-0.104640
H194	H	1.193903	0.889120	0.228693
H195	H	1.527236	1.222453	0.562026
H196	H	0.827202	0.000007	0.346705
H197	H	1.160535	0.333340	0.680039
H198	H	1.493869	0.666673	1.013372
