data_functionalizedCrystal
_audit_creation_method	'MofGen! by Chris Wilmer'
_symmetry_space_group_name_H-M	'P1'
_symmetry_Int_Tables_number	1
_symmetry_cell_setting	triclinic
loop_
_symmetry_equiv_pos_as_xyz
  x,y,z
_cell_length_a	6.817900
_cell_length_b	14.858565
_cell_length_c	16.305550
_cell_angle_alpha	95.065908
_cell_angle_beta	103.455250
_cell_angle_gamma	104.523916
loop_
_atom_site_label
_atom_site_type_symbol
_atom_site_fract_x
_atom_site_fract_y
_atom_site_fract_z
V1	V	-4.031556	-0.129456	-0.263268
O2	O	-4.013619	0.005413	-0.258014
O3	O	-3.988195	-0.255912	-0.261700
O4	O	-3.982895	-0.127819	-0.377982
O5	O	-4.018955	-0.123567	-0.140928
V6	V	-4.514565	-0.113282	-0.248607
O7	O	-4.293942	-0.164934	-0.295429
O8	O	-4.702376	-0.077803	-0.216446
O9	O	-4.334720	0.013174	-0.250175
O10	O	-4.649899	-0.248151	-0.253860
O11	O	-4.644563	-0.119171	-0.370947
O12	O	-4.340020	-0.114919	-0.133893
C13	C	-3.834429	-0.286728	-0.257607
C14	C	-3.880261	-0.390110	-0.257090
C15	C	-3.827668	-0.123331	-0.405935
C16	C	-3.869199	-0.122830	-0.499716
C17	C	-4.048011	-0.768675	-0.255208
C18	C	-4.001329	-0.663347	-0.255731
C19	C	-3.964137	-0.579396	-0.256148
C20	C	-3.917454	-0.474061	-0.256673
C21	C	-4.020207	-0.120886	-0.840458
C22	C	-3.783922	-0.115115	-0.799519
C23	C	-3.740766	-0.116022	-0.702026
C24	C	-3.945289	-0.121850	-0.671412
C25	C	-4.116090	-0.213696	-0.722206
C26	C	-4.157932	-0.213177	-0.819755
C27	C	-4.071461	-0.035544	-0.794459
C28	C	-4.023502	-0.034817	-0.696615
C29	C	-3.902961	-0.122398	-0.575875
C30	C	-4.062543	-0.120344	-0.935996
C31	C	-4.151827	0.043986	-0.254265
C32	C	-4.085234	0.147367	-0.254788
C33	C	-4.158588	-0.119409	-0.105935
C34	C	-4.096296	-0.119906	-0.012154
H35	H	-3.611559	-0.049985	-0.666881
H36	H	-4.063307	-0.278319	-0.705512
C37	C	-4.304095	-0.040145	-0.830701
N38	N	-4.479313	-0.043617	-0.858004
H39	H	-4.124437	-0.277783	-0.850254
H40	H	-3.741347	-0.176430	-0.831143
C41	C	-4.222263	-0.033204	-0.667673
N42	N	-4.371930	-0.031974	-0.645844
C43	C	-3.944117	0.058471	-0.812342
N44	N	-3.848181	0.129280	-0.825812
C45	C	-3.856207	0.056962	-0.650006
N46	N	-3.730196	0.126089	-0.614895
H47	H	-4.332098	-0.221232	-0.847761
H48	H	-4.269557	-0.221282	-0.703307
H49	H	-3.676884	-0.178044	-0.685845
H50	H	-3.675062	-0.048766	-0.811761
