data_functionalizedCrystal
_audit_creation_method	'MofGen! by Chris Wilmer'
_symmetry_space_group_name_H-M	'P1'
_symmetry_Int_Tables_number	1
_symmetry_cell_setting	triclinic
loop_
_symmetry_equiv_pos_as_xyz
  x,y,z
_cell_length_a	19.805407
_cell_length_b	17.640280
_cell_length_c	17.639306
_cell_angle_alpha	87.821350
_cell_angle_beta	78.774374
_cell_angle_gamma	78.800112
loop_
_atom_site_label
_atom_site_type_symbol
_atom_site_fract_x
_atom_site_fract_y
_atom_site_fract_z
Zn1	Zn	1.165915	-0.389132	-0.368358
Zn2	Zn	1.156987	-0.490457	-0.215728
Zn3	Zn	1.026316	-0.363488	-0.241376
Zn4	Zn	1.070255	-0.516075	-0.342683
O5	O	1.104868	-0.439788	-0.292036
O6	O	1.259451	-0.402584	-0.348123
O7	O	1.117528	-0.452161	-0.112857
O8	O	1.030182	-0.260628	-0.279699
O9	O	1.252892	-0.477026	-0.235987
O10	O	1.132745	-0.279468	-0.372993
O11	O	1.021524	-0.358878	-0.131700
O12	O	0.937424	-0.383718	-0.254803
O13	O	1.105070	-0.520689	-0.452362
O14	O	0.969706	-0.495823	-0.329232
O15	O	1.175351	-0.427425	-0.471225
O16	O	1.160134	-0.600117	-0.211090
O17	O	1.096412	-0.618939	-0.304363
C18	C	0.929005	-0.439768	-0.292015
C19	C	0.853776	-0.439782	-0.292020
C20	C	0.835253	-0.498212	-0.330682
C21	C	0.764567	-0.498215	-0.330692
C22	C	0.712405	-0.439791	-0.292036
C23	C	0.730932	-0.381356	-0.253372
C24	C	0.801618	-0.381350	-0.253367
C25	C	0.445867	-0.381377	-0.253394
C26	C	0.375178	-0.381389	-0.253401
C27	C	0.408816	-0.498243	-0.330719
C28	C	0.479501	-0.498237	-0.330714
C29	C	0.498022	-0.439800	-0.292054
C30	C	0.574668	-0.439796	-0.292045
C31	C	0.635760	-0.439798	-0.292040
C32	C	1.132094	-0.637084	-0.252174
C33	C	1.143808	-0.721493	-0.235146
C34	C	1.016210	-1.048181	-0.421671
C35	C	1.027214	-1.127492	-0.405647
C36	C	1.093641	-1.107847	-0.308620
C37	C	1.082646	-1.028534	-0.324639
C38	C	1.043929	-0.998708	-0.381165
C39	C	1.110365	-0.979061	-0.284133
C40	C	1.099368	-0.899754	-0.300148
C41	C	1.060651	-0.869921	-0.356669
C42	C	1.032932	-0.919401	-0.397180
C43	C	1.149078	-1.008888	-0.227604
C44	C	1.176797	-0.959414	-0.187097
C45	C	1.165803	-0.880107	-0.203116
C46	C	1.127087	-0.850274	-0.259637
C47	C	1.193523	-0.830626	-0.162605
C48	C	1.182525	-0.751320	-0.178620
C49	C	1.116089	-0.770967	-0.275652
C50	C	1.281418	-0.439808	-0.292058
C51	C	1.356653	-0.439817	-0.292068
C52	C	1.146107	-0.479775	-0.490119
C53	C	1.163681	-0.496815	-0.574531
C54	C	1.077558	-0.241725	-0.332071
C55	C	1.065920	-0.157322	-0.349131
C56	C	0.971586	-0.310054	-0.901218
C57	C	0.988117	-0.326081	-0.980532
C58	C	1.088075	-0.423207	-0.960893
C59	C	1.071554	-0.407185	-0.881577
C60	C	1.013309	-0.350608	-0.851746
C61	C	1.113277	-0.447739	-0.832104
C62	C	1.096756	-0.431720	-0.752793
C63	C	1.038512	-0.375148	-0.722956
C64	C	0.996787	-0.334589	-0.772435
C65	C	1.171520	-0.504319	-0.861935
C66	C	1.213242	-0.544873	-0.812463
C67	C	1.196724	-0.528851	-0.733151
C68	C	1.138480	-0.472279	-0.703314
C69	C	1.238448	-0.569410	-0.683672
C70	C	1.221927	-0.553392	-0.604362
C71	C	1.121959	-0.456261	-0.624004
C72	C	1.063821	-0.399902	-0.094735
C73	C	1.046348	-0.382648	-0.010367
H74	H	0.521969	-0.545814	-0.362189
H75	H	1.001411	-0.895117	-0.443215
H76	H	1.004649	-1.167774	-0.438645
H77	H	0.393728	-0.545824	-0.362201
H78	H	0.949364	-0.288511	-0.748147
C79	C	1.136225	-1.140666	-0.246441
N80	N	1.168301	-1.165384	-0.199607
C81	C	0.466230	-0.317098	-0.210862
N82	N	0.481569	-0.268681	-0.178823
C83	C	1.073487	-0.738152	-0.337824
N84	N	1.041394	-0.713433	-0.384643
C85	C	0.317799	-0.317110	-0.210880
N86	N	0.274583	-0.268697	-0.178856
C87	C	0.973609	-1.015366	-0.483843
N88	N	0.941516	-0.990648	-0.530662
C89	C	1.020338	-0.357527	-0.635711
N90	N	1.006651	-0.344254	-0.569999
C91	C	0.673552	-0.317087	-0.210852
N92	N	0.630333	-0.268680	-0.178822
C93	C	1.219381	-0.992233	-0.124918
N94	N	1.251456	-1.016950	-0.078084
H95	H	1.074535	-0.410182	-0.599716
H96	H	0.816697	-0.333767	-0.221889
H97	H	1.051691	-0.805342	-0.369702
C98	C	0.907515	-0.247813	-0.868401
N99	N	0.859258	-0.200937	-0.843682
C100	C	0.942214	-0.281463	-1.034952
N101	N	0.907640	-0.247858	-1.075939
C102	C	0.744194	-0.562505	-0.373206
N103	N	0.728851	-0.610934	-0.405224
C104	C	1.236101	-0.863446	-0.100421
N105	N	1.268170	-0.888165	-0.053582
C106	C	1.277183	-0.607275	-0.845252
N107	N	1.325298	-0.654337	-0.869935
H108	H	0.877719	-0.545790	-0.362158
C109	C	1.213024	-0.696897	-0.134068
N110	N	1.235998	-0.655905	-0.100509
H111	H	1.135496	-0.469274	-0.985192
C112	C	1.189694	-0.521935	-0.949181
N113	N	1.203384	-0.535200	-1.014895
H114	H	1.158033	-1.073466	-0.214568
H115	H	1.285867	-0.615480	-0.707972
C116	C	1.267820	-0.598008	-0.549937
N117	N	1.302385	-0.631619	-0.508944
