data_functionalizedCrystal
_audit_creation_method	'MofGen! by Chris Wilmer'
_symmetry_space_group_name_H-M	'P1'
_symmetry_Int_Tables_number	1
_symmetry_cell_setting	triclinic
loop_
_symmetry_equiv_pos_as_xyz
  x,y,z
_cell_length_a	14.044191
_cell_length_b	10.540510
_cell_length_c	12.503572
_cell_angle_alpha	93.560801
_cell_angle_beta	86.162165
_cell_angle_gamma	88.852544
loop_
_atom_site_label
_atom_site_type_symbol
_atom_site_fract_x
_atom_site_fract_y
_atom_site_fract_z
O1	O	1.265175	0.299581	-0.089257
O2	O	1.598508	0.632914	0.244076
O3	O	1.931841	0.966247	0.577409
O4	O	0.989132	0.288519	-0.089271
O5	O	1.322465	0.621852	0.244062
O6	O	1.655799	0.955185	0.577395
O7	O	1.133466	0.109979	-0.089264
O8	O	1.466799	0.443313	0.244070
O9	O	1.800132	0.776646	0.577403
O10	O	1.120841	0.478120	-0.089265
O11	O	1.454174	0.811453	0.244068
O12	O	1.787507	1.144787	0.577402
O13	O	1.122611	0.123431	0.089378
O14	O	1.455944	0.456764	0.422711
O15	O	1.789278	0.790097	0.756044
O16	O	0.978277	0.301970	0.089370
O17	O	1.311611	0.635304	0.422703
O18	O	1.644944	0.968637	0.756037
O19	O	1.254320	0.313032	0.089384
O20	O	1.587653	0.646365	0.422717
O21	O	1.920987	0.979699	0.756051
Cu22	Cu	1.115308	0.308729	0.105688
Cu23	Cu	1.448641	0.642063	0.439022
Cu24	Cu	1.781974	0.975396	0.772355
Cu25	Cu	1.128144	0.292821	-0.105576
Cu26	Cu	1.461478	0.626155	0.227758
Cu27	Cu	1.794811	0.959488	0.561091
O28	O	1.109986	0.491572	0.089376
O29	O	1.443320	0.824905	0.422710
O30	O	1.776653	1.158238	0.756043
C31	C	0.948358	0.290405	0.000047
C32	C	1.281691	0.623739	0.333381
C33	C	1.615025	0.957072	0.666714
C34	C	0.843036	0.275972	0.000042
C35	C	1.176369	0.609305	0.333375
C36	C	1.509702	0.942638	0.666709
C37	C	0.593257	0.351951	0.000052
C38	C	0.926590	0.685284	0.333386
C39	C	1.259924	1.018617	0.666719
C40	C	0.650201	0.249605	0.000051
C41	C	0.983535	0.582939	0.333384
C42	C	1.316868	0.916272	0.666718
C43	C	0.757504	0.264279	0.000046
C44	C	1.090837	0.597612	0.333379
C45	C	1.424171	0.930946	0.666713
C46	C	0.485944	0.337279	0.000057
C47	C	0.819277	0.670612	0.333391
C48	C	1.152611	1.003945	0.666724
C49	C	1.127098	0.069306	0.000055
C50	C	1.460431	0.402639	0.333388
C51	C	1.793764	0.735973	0.666721
C52	C	1.124283	-0.071929	0.000048
C53	C	1.457617	0.261404	0.333382
C54	C	1.790950	0.594738	0.666715
C55	C	1.224527	-0.279213	0.000462
C56	C	1.557860	0.054120	0.333796
C57	C	1.891193	0.387454	0.667129
C58	C	1.227554	-0.132344	0.000054
C59	C	1.560887	0.200989	0.333388
C60	C	1.894221	0.534322	0.666721
C61	C	1.077617	-0.129716	-0.101965
C62	C	1.410951	0.203618	0.231368
C63	C	1.744284	0.536951	0.564701
C64	C	1.075351	-0.276712	-0.102045
C65	C	1.408684	0.056621	0.231288
C66	C	1.742018	0.389954	0.564621
C67	C	1.060857	-0.261441	0.101103
C68	C	1.394190	0.071892	0.434437
C69	C	1.727523	0.405225	0.767770
C70	C	1.065673	-0.114504	0.102446
C71	C	1.399007	0.218830	0.435780
C72	C	1.732340	0.552163	0.769113
C73	C	1.295094	0.311145	0.000063
C74	C	1.628428	0.644479	0.333396
C75	C	1.961761	0.977812	0.666729
C76	C	1.400417	0.325579	0.000061
C77	C	1.733750	0.658912	0.333395
C78	C	2.067083	0.992245	0.666728
C79	C	1.116354	0.532245	0.000055
C80	C	1.449688	0.865578	0.333389
C81	C	1.783021	1.198911	0.666722
C82	C	1.119169	0.673479	0.000055
C83	C	1.452502	1.006812	0.333388
C84	C	1.785836	1.340146	0.666722
N85	N	1.106286	0.319918	0.254280
N86	N	1.439619	0.653252	0.587613
N87	N	1.772952	0.986585	0.920947
N88	N	1.137174	0.281623	-0.254168
N89	N	1.470507	0.614957	0.079166
N90	N	1.803840	0.948290	0.412499
C91	C	1.093014	0.336388	0.473395
C92	C	1.426348	0.669721	0.806728
C93	C	1.759681	1.003055	1.140061
C94	C	1.150442	0.265157	0.526725
C95	C	1.483775	0.598491	0.860058
C96	C	1.817109	0.931824	1.193392
C97	C	1.143058	0.274321	0.648648
C98	C	1.476391	0.607655	0.981981
C99	C	1.809724	0.940988	1.315314
C100	C	1.100398	0.327226	0.351461
C101	C	1.433731	0.660559	0.684794
C102	C	1.767064	0.993892	1.018128
H103	H	1.264474	-0.093311	0.073180
H104	H	1.597807	0.240022	0.406514
H105	H	1.931141	0.573356	0.739847
F106	F	0.974763	-0.317440	-0.108107
F107	F	1.308096	0.015894	0.225226
F108	F	1.641430	0.349227	0.558559
F109	F	0.608593	0.120673	0.000052
F110	F	0.941926	0.454006	0.333385
F111	F	1.275260	0.787340	0.666719
F112	F	0.634866	0.480873	0.000042
F113	F	0.968199	0.814206	0.333376
F114	F	1.301532	1.147540	0.666709
H115	H	1.260315	-0.311590	0.073622
H116	H	1.593648	0.021743	0.406955
H117	H	1.926981	0.355076	0.740288
H118	H	1.205154	0.197293	0.480815
H119	H	1.538487	0.530627	0.814148
H120	H	1.871820	0.863960	1.147482
F121	F	1.282591	-0.337946	-0.094615
F122	F	1.615925	-0.004613	0.238718
F123	F	1.949258	0.328720	0.572052
F124	F	1.021508	0.425090	0.533396
F125	F	1.354842	0.758424	0.866730
F126	F	1.688175	1.091757	1.200063
H127	H	1.088976	-0.294482	0.178429
H128	H	1.422310	0.038852	0.511763
H129	H	1.755643	0.372185	0.845096
H130	H	1.116112	-0.319016	-0.178298
H131	H	1.449446	0.014318	0.155035
H132	H	1.782779	0.347651	0.488369
H133	H	1.273608	-0.105247	-0.073195
H134	H	1.606941	0.228086	0.260138
H135	H	1.940275	0.561420	0.593472
H136	H	1.001822	-0.090301	-0.105762
H137	H	1.335155	0.243032	0.227571
H138	H	1.668488	0.576365	0.560904
H139	H	1.118943	-0.100862	-0.177880
H140	H	1.452276	0.232471	0.155454
H141	H	1.785609	0.565804	0.488787
F142	F	1.109951	-0.064585	0.201092
F143	F	1.443285	0.268748	0.534425
F144	F	1.776618	0.602081	0.867759
H145	H	0.989904	-0.072598	0.108602
H146	H	1.323237	0.260735	0.441936
H147	H	1.656570	0.594068	0.775269
F148	F	0.959457	-0.300576	0.101999
F149	F	1.292791	0.032757	0.435332
F150	F	1.626124	0.366091	0.768666
