data_functionalizedCrystal
_audit_creation_method	'MofGen! by Chris Wilmer'
_symmetry_space_group_name_H-M	'P1'
_symmetry_Int_Tables_number	1
_symmetry_cell_setting	triclinic
loop_
_symmetry_equiv_pos_as_xyz
  x,y,z
_cell_length_a	10.489741
_cell_length_b	15.944551
_cell_length_c	9.565339
_cell_angle_alpha	89.999279
_cell_angle_beta	89.999100
_cell_angle_gamma	84.018956
loop_
_atom_site_label
_atom_site_type_symbol
_atom_site_fract_x
_atom_site_fract_y
_atom_site_fract_z
O1	O	1.692410	0.118501	-0.116177
O2	O	1.321060	0.129624	-0.116199
O3	O	1.516876	0.001849	-0.116175
O4	O	1.496594	0.246276	-0.116201
O5	O	1.516860	0.001857	0.116345
O6	O	1.321045	0.129632	0.116321
O7	O	1.692395	0.118509	0.116343
Zn8	Zn	1.506717	0.124072	0.153250
Zn9	Zn	1.506738	0.124061	-0.153106
O10	O	1.496579	0.246284	0.116319
C11	C	1.273532	0.128788	0.000058
C12	C	1.131938	0.126275	0.000050
C13	C	1.064925	0.044975	0.000072
C14	C	0.972273	0.083376	-0.114573
C15	C	0.972292	0.083403	0.114673
C16	C	1.041151	0.164709	-0.114690
C17	C	1.041179	0.164725	0.114659
C18	C	0.948554	0.203186	-0.000014
C19	C	1.516026	-0.029446	0.000085
C20	C	1.513502	-0.122708	0.000086
C21	C	1.386093	-0.338330	0.000059
C22	C	1.445250	-0.398988	0.114709
C23	C	1.508935	-0.293461	0.000075
C24	C	1.445294	-0.398979	-0.114537
C25	C	1.504515	-0.458400	0.000058
C26	C	1.568126	-0.352890	0.114820
C27	C	1.568153	-0.352875	-0.114530
C28	C	1.627399	-0.413515	0.000148
C29	C	1.511478	-0.198443	0.000086
C30	C	1.501982	-0.553417	0.000058
C31	C	1.739922	0.119345	0.000083
C32	C	1.881517	0.121858	0.000082
C33	C	1.497429	0.277579	0.000056
C34	C	1.499953	0.370841	0.000046
N35	N	1.506713	0.124078	0.362329
N36	N	1.506752	0.124048	-0.362185
C37	C	1.416127	0.183150	0.453521
C38	C	1.531388	0.200146	0.546705
C39	C	1.391501	0.107089	0.546701
C40	C	1.622032	0.141112	0.453461
C41	C	1.482069	0.048022	0.453449
C42	C	1.597414	0.064986	0.546591
H43	H	1.071509	0.199079	-0.211724
H44	H	1.115541	-0.021859	-0.000064
C45	C	1.765265	-0.457490	0.000247
N46	N	1.869103	-0.490616	0.000330
H47	H	1.339591	0.233152	0.412657
C48	C	1.259851	0.087690	0.602025
N49	N	1.160690	0.073084	0.643689
H50	H	1.393327	-0.419372	-0.211472
H51	H	1.552259	0.264452	0.587666
H52	H	0.898203	0.270090	-0.000084
C53	C	1.638293	-0.325259	-0.245475
N54	N	1.691113	-0.304456	-0.344114
H55	H	1.719502	0.155546	0.412677
H56	H	1.674119	0.015015	0.587199
C57	C	1.453821	-0.038824	0.398057
N58	N	1.432530	-0.104236	0.356332
C59	C	1.082482	0.211161	0.245600
N60	N	1.113597	0.246129	0.344237
H61	H	1.393286	-0.419405	0.211631
C62	C	0.931080	0.036917	0.245616
N63	N	0.900045	0.001898	0.344237
C64	C	0.931017	0.036898	-0.245501
N65	N	0.899945	0.001885	-0.344109
H66	H	1.620033	-0.332584	0.211854
H67	H	1.284128	-0.305636	0.000168
