data_functionalizedCrystal
_audit_creation_method	'MofGen! by Chris Wilmer'
_symmetry_space_group_name_H-M	'P1'
_symmetry_Int_Tables_number	1
_symmetry_cell_setting	triclinic
loop_
_symmetry_equiv_pos_as_xyz
  x,y,z
_cell_length_a	6.817900
_cell_length_b	8.749630
_cell_length_c	12.200875
_cell_angle_alpha	93.117997
_cell_angle_beta	107.143593
_cell_angle_gamma	105.181985
loop_
_atom_site_label
_atom_site_type_symbol
_atom_site_fract_x
_atom_site_fract_y
_atom_site_fract_z
V1	V	-4.075833	-0.219162	-0.356169
O2	O	-4.054691	0.010162	-0.350922
O3	O	-4.034441	-0.434206	-0.352259
O4	O	-4.045446	-0.215953	-0.512179
O5	O	-4.043609	-0.209602	-0.189895
V6	V	-4.556219	-0.191713	-0.336460
O7	O	-4.343973	-0.279374	-0.399402
O8	O	-4.738276	-0.131502	-0.293228
O9	O	-4.374405	0.023331	-0.340370
O10	O	-4.694758	-0.421038	-0.341708
O11	O	-4.705840	-0.201274	-0.502735
O12	O	-4.363399	-0.194922	-0.180450
C13	C	-3.880564	-0.486625	-0.346260
C14	C	-3.928127	-0.662427	-0.344103
C15	C	-3.894601	-0.208219	-0.550253
C16	C	-3.951086	-0.207018	-0.677782
C17	C	-4.054462	-0.204822	-0.911271
C18	C	-3.996928	-0.206043	-0.781341
C19	C	-4.191624	0.075741	-0.346366
C20	C	-4.123299	0.251542	-0.348530
C21	C	-4.177586	-0.202662	-0.142371
C22	C	-4.100339	-0.203855	-0.014840
H23	H	-3.797416	-0.723275	-0.338670
H24	H	-4.254009	-0.687621	-0.353976
