data_functionalizedCrystal
_audit_creation_method	'MofGen! by Chris Wilmer'
_symmetry_space_group_name_H-M	'P1'
_symmetry_Int_Tables_number	1
_symmetry_cell_setting	triclinic
loop_
_symmetry_equiv_pos_as_xyz
  x,y,z
_cell_length_a	19.288864
_cell_length_b	12.837942
_cell_length_c	11.892113
_cell_angle_alpha	93.960375
_cell_angle_beta	94.393524
_cell_angle_gamma	88.982593
loop_
_atom_site_label
_atom_site_type_symbol
_atom_site_fract_x
_atom_site_fract_y
_atom_site_fract_z
O1	O	0.934544	0.135189	0.094371
O2	O	1.434544	0.635189	0.594371
O3	O	0.733471	0.152624	0.094294
O4	O	1.233471	0.652624	0.594294
O5	O	0.829549	-0.006976	0.094324
O6	O	1.329549	0.493024	0.594324
O7	O	0.838467	0.294789	0.094341
O8	O	1.338467	0.794789	0.594341
O9	O	0.820836	-0.018765	-0.093687
O10	O	1.320836	0.481235	0.406313
O11	O	0.724758	0.140835	-0.093717
O12	O	1.224758	0.640835	0.406283
O13	O	0.925831	0.123401	-0.093640
O14	O	1.425831	0.623401	0.406360
Zn15	Zn	0.823911	0.130246	-0.123530
Zn16	Zn	1.323911	0.630246	0.376470
Zn17	Zn	0.835391	0.145778	0.124183
Zn18	Zn	1.335391	0.645778	0.624183
O19	O	0.829754	0.283000	-0.093670
O20	O	1.329754	0.783000	0.406330
C21	C	0.703199	0.146167	0.000279
C22	C	1.203199	0.646167	0.500279
C23	C	0.625979	0.144481	0.000249
C24	C	1.125979	0.644481	0.500249
C25	C	0.587679	0.238130	0.000272
C26	C	1.087679	0.738130	0.500272
C27	C	0.515124	0.236548	0.000284
C28	C	1.015124	0.736548	0.500284
C29	C	0.480874	0.141314	0.000296
C30	C	0.980874	0.641314	0.500296
C31	C	0.519183	0.047653	0.000267
C32	C	1.019183	0.547653	0.500267
C33	C	0.591736	0.049236	0.000243
C34	C	1.091736	0.549236	0.500243
C35	C	0.370554	0.070581	0.066199
C36	C	0.870554	0.570581	0.566199
C37	C	0.298003	0.069002	0.066229
C38	C	0.798003	0.569002	0.566229
C39	C	0.257098	0.136425	0.000364
C40	C	0.757098	0.636425	0.500364
C41	C	0.288752	0.205446	-0.065517
C42	C	0.788752	0.705446	0.434483
C43	C	0.361305	0.207030	-0.065540
C44	C	0.861305	0.707030	0.434460
C45	C	0.402203	0.139586	0.000321
C46	C	0.902203	0.639586	0.500321
C47	C	0.140125	0.228365	0.000399
C48	C	0.640125	0.728365	0.500399
C49	C	0.067569	0.226779	0.000405
C50	C	0.567569	0.726779	0.500405
C51	C	0.071630	0.037882	0.000399
C52	C	0.571630	0.537882	0.500399
C53	C	0.144184	0.039470	0.000382
C54	C	0.644184	0.539470	0.500382
C55	C	0.178427	0.134714	0.000388
C56	C	0.678427	0.634714	0.500388
C57	C	0.822180	-0.051477	0.000318
C58	C	1.322180	0.448523	0.500318
C59	C	0.813196	-0.166512	0.000316
C60	C	1.313196	0.333488	0.500316
C61	C	0.921204	-0.407971	0.000381
C62	C	1.421204	0.092029	0.500381
C63	C	0.912766	-0.516057	0.000380
C64	C	1.412766	-0.016057	0.500380
C65	C	0.787882	-0.490773	0.000320
C66	C	1.287882	0.009227	0.500320
C67	C	0.796320	-0.382687	0.000322
C68	C	1.296320	0.117313	0.500322
C69	C	0.862983	-0.341290	0.000350
C70	C	1.362983	0.158710	0.500350
C71	C	0.871421	-0.233202	0.000344
C72	C	1.371421	0.266798	0.500344
C73	C	0.746538	-0.207919	0.000292
C74	C	1.246538	0.292081	0.500292
C75	C	0.738100	-0.316006	0.000291
C76	C	1.238100	0.183994	0.500291
C77	C	0.956103	0.129857	0.000378
C78	C	1.456103	0.629857	0.500378
C79	C	1.033324	0.131544	0.000415
C80	C	1.533324	0.631544	0.500415
C81	C	0.837123	0.327501	0.000339
C82	C	1.337123	0.827501	0.500339
C83	C	0.846107	0.442537	0.000348
C84	C	1.346107	0.942537	0.500348
N85	N	0.816082	0.119645	-0.292587
N86	N	1.316082	0.619645	0.207413
C87	C	0.897704	0.230190	-0.529199
C88	C	1.397704	0.730190	-0.029199
C89	C	0.892236	0.222771	-0.647544
C90	C	1.392236	0.722771	-0.147544
C91	C	0.799681	0.097383	-0.647622
C92	C	1.299681	0.597383	-0.147622
C93	C	0.805149	0.104802	-0.529278
C94	C	1.305149	0.604802	-0.029278
C95	C	0.854162	0.171209	-0.470071
C96	C	1.354162	0.671209	0.029929
C97	C	0.859626	0.178633	-0.351724
C98	C	1.359626	0.678633	0.148276
C99	C	0.767075	0.053240	-0.351805
C100	C	1.267075	0.553240	0.148195
C101	C	0.761607	0.045821	-0.470149
C102	C	1.261607	0.545821	0.029851
N103	N	0.843226	0.156371	0.293241
N104	N	1.343226	0.656371	0.793241
H105	H	0.615555	0.315685	0.000279
H106	H	1.115555	0.815685	0.500279
F107	F	0.394991	0.280482	-0.135657
F108	F	0.894991	0.780482	0.364343
F109	F	0.747525	0.026712	-0.710653
F110	F	1.247525	0.526712	-0.210653
H111	H	0.255448	0.260348	-0.119151
H112	H	0.755448	0.760348	0.380849
H113	H	0.733609	-0.524497	0.000309
H114	H	1.233609	-0.024497	0.500309
F115	F	0.176571	0.329730	0.000397
F116	F	0.676571	0.829730	0.500397
F117	F	0.632500	-0.050442	0.000218
F118	F	1.132500	0.449558	0.500218
F119	F	0.667156	-0.360075	0.000269
F120	F	1.167156	0.139925	0.500269
H121	H	0.975483	-0.374266	0.000393
H122	H	1.475483	0.125734	0.500393
H123	H	0.483934	0.312810	0.000300
H124	H	0.983934	0.812810	0.500300
H125	H	0.899532	0.232709	-0.303519
H126	H	1.399532	0.732709	0.196481
F127	F	0.026806	0.326457	0.000424
F128	F	0.526806	0.826457	0.500424
H129	H	0.699130	-0.153616	0.000258
H130	H	1.199130	0.346384	0.500258
F131	F	0.974733	-0.587021	0.000416
F132	F	1.474733	-0.087021	0.500416
H133	H	0.491293	-0.029887	0.000292
H134	H	0.991293	0.470113	0.500292
H135	H	0.721704	-0.008248	-0.518372
H136	H	1.221704	0.491752	-0.018372
F137	F	0.949865	0.300864	-0.466184
F138	F	1.449865	0.800864	0.033816
F139	F	0.938582	0.285545	-0.710469
F140	F	1.438582	0.785545	-0.210469
H141	H	0.043748	-0.039655	0.000478
H142	H	0.543748	0.460345	0.500478
F143	F	0.184948	-0.060205	0.000363
F144	F	0.684948	0.439795	0.500363
H145	H	0.272236	0.012805	0.119878
H146	H	0.772236	0.512805	0.619878
F147	F	0.414082	-0.001186	0.136305
F148	F	0.914082	0.498814	0.636305
F149	F	0.720727	-0.009531	-0.288867
F150	F	1.220727	0.490469	0.211133
F151	F	0.942368	-0.189146	0.000367
F152	F	1.442368	0.310854	0.500367
