data_functionalizedCrystal
_audit_creation_method	'MofGen! by Chris Wilmer'
_symmetry_space_group_name_H-M	'P1'
_symmetry_Int_Tables_number	1
_symmetry_cell_setting	triclinic
loop_
_symmetry_equiv_pos_as_xyz
  x,y,z
_cell_length_a	17.640112
_cell_length_b	25.639240
_cell_length_c	17.640968
_cell_angle_alpha	78.760674
_cell_angle_beta	92.139080
_cell_angle_gamma	101.259448
loop_
_atom_site_label
_atom_site_type_symbol
_atom_site_fract_x
_atom_site_fract_y
_atom_site_fract_z
Zn1	Zn	1.247774	-0.015024	-0.195077
Zn2	Zn	1.221971	-0.122901	-0.068072
Zn3	Zn	1.095095	-0.049036	-0.093716
Zn4	Zn	1.120714	-0.116018	-0.220656
O5	O	1.171388	-0.075745	-0.144380
O6	O	1.350624	-0.017980	-0.156793
O7	O	1.183620	-0.130218	0.034802
O8	O	1.115426	0.028655	-0.107189
O9	O	1.331666	-0.097237	-0.063483
O10	O	1.227598	0.053644	-0.181658
O11	O	1.090406	-0.075950	0.015962
O12	O	0.992221	-0.069276	-0.131992
O13	O	1.159089	-0.085506	-0.323539
O14	O	1.011043	-0.118487	-0.225254
O15	O	1.252439	-0.011306	-0.304747
O16	O	1.208462	-0.195167	-0.088286
O17	O	1.134069	-0.190110	-0.200388
C18	C	0.974076	-0.096826	-0.184181
C19	C	0.889669	-0.105854	-0.201227
C20	C	1.171269	-0.211608	-0.144342
C21	C	1.171293	-0.269720	-0.144338
C22	C	0.563037	-0.007149	-0.014897
C23	C	0.483725	-0.015641	-0.030923
C24	C	0.503345	-0.067004	-0.127870
C25	C	0.582660	-0.058513	-0.111854
C26	C	0.612499	-0.028586	-0.055366
C27	C	0.632123	-0.079951	-0.152323
C28	C	0.711430	-0.071464	-0.136305
C29	C	0.741276	-0.041539	-0.079818
C30	C	0.691807	-0.020099	-0.039348
C31	C	0.602281	-0.109881	-0.208807
C32	C	0.651744	-0.131319	-0.249276
C33	C	0.731054	-0.122828	-0.233262
C34	C	0.760899	-0.092904	-0.176775
C35	C	0.780522	-0.144268	-0.273732
C36	C	0.859830	-0.135781	-0.257715
C37	C	0.840207	-0.084416	-0.160757
C38	C	1.229838	-0.616997	-0.183239
C39	C	1.229864	-0.671597	-0.183250
O40	O	1.279501	-0.688731	-0.216290
N41	N	1.171509	-0.711961	-0.144432
C42	C	1.113120	-0.697723	-0.105608
O43	O	1.063486	-0.737069	-0.072592
C44	C	1.113092	-0.643124	-0.105602
C45	C	1.171455	-0.602763	-0.144416
C46	C	1.288196	-0.576637	-0.222051
C47	C	1.288171	-0.522041	-0.222038
C48	C	1.229788	-0.507806	-0.183215
C49	C	1.171430	-0.548167	-0.144403
C50	C	1.054701	-0.628887	-0.066782
C51	C	1.054677	-0.574283	-0.066780
C52	C	1.113041	-0.533922	-0.105594
C53	C	1.113022	-0.479337	-0.105568
N54	N	1.171377	-0.438973	-0.144385
C55	C	1.229760	-0.453208	-0.183209
C56	C	1.113182	-0.812383	-0.105624
C57	C	1.113212	-0.866981	-0.105625
C58	C	1.229956	-0.840851	-0.183269
C59	C	1.229928	-0.786252	-0.183263
C60	C	1.171537	-0.772019	-0.144442
C61	C	1.229704	-0.338554	-0.183180
C62	C	1.229676	-0.283955	-0.183161
C63	C	1.112930	-0.310089	-0.105521
C64	C	1.112960	-0.364684	-0.105536
C65	C	1.171351	-0.378914	-0.144371
O66	O	1.063408	-0.462162	-0.072547
O67	O	1.279380	-0.413856	-0.216228
C68	C	1.369471	-0.054582	-0.104424
C69	C	1.453882	-0.045564	-0.087397
C70	C	1.211500	-0.043844	-0.342470
C71	C	1.228593	-0.030250	-0.426884
C72	C	1.171532	0.060654	-0.144431
C73	C	1.171593	0.118779	-0.144452
C74	C	1.041826	-0.178703	-0.753426
C75	C	1.057903	-0.165920	-0.832743
C76	C	1.155101	-0.088662	-0.813165
C77	C	1.139029	-0.101436	-0.733846
C78	C	1.082391	-0.146458	-0.703983
C79	C	1.179594	-0.069191	-0.684403
C80	C	1.163526	-0.081966	-0.605090
C81	C	1.106893	-0.126986	-0.575220
C82	C	1.066323	-0.159232	-0.624670
C83	C	1.236235	-0.024173	-0.714266
C84	C	1.276801	0.008072	-0.664823
C85	C	1.260729	-0.004700	-0.585509
C86	C	1.204096	-0.049720	-0.555640
C87	C	1.301299	0.027546	-0.536059
C88	C	1.285230	0.014771	-0.456747
C89	C	1.188027	-0.062495	-0.476327
C90	C	1.131477	-0.107479	0.052947
C91	C	1.114531	-0.120910	0.137390
H92	H	0.864505	-0.060037	-0.114771
H93	H	1.065693	-0.899841	-0.074009
Cl94	Cl	1.039773	-0.794497	-0.056809
H95	H	0.900104	-0.153237	-0.290669
Cl96	Cl	1.256438	-0.008114	-0.813975
Cl97	Cl	1.039596	-0.415426	-0.056729
H98	H	1.277205	-0.251092	-0.214767
H99	H	1.065397	-0.298491	-0.073909
H100	H	1.141889	-0.099145	-0.452015
H101	H	0.716106	0.004281	0.006639
Cl102	Cl	1.086695	-0.143050	-0.475511
H103	H	0.443455	0.001823	0.002030
H104	H	1.020185	-0.195883	-0.600358
H105	H	1.277493	-0.852450	-0.214883
Cl106	Cl	0.502577	-0.120559	-0.228934
Cl107	Cl	1.336230	0.055307	-0.394585
Cl108	Cl	1.372505	0.084137	-0.573610
Cl109	Cl	0.600556	0.030479	0.056113
Cl110	Cl	0.970616	-0.235298	-0.715880
H111	H	0.805853	-0.034631	-0.066776
H112	H	1.024866	-0.192182	-0.872998
H113	H	1.277247	-0.350132	-0.214809
Cl114	Cl	0.981322	-0.679615	-0.017988
H115	H	0.479038	-0.091372	-0.173860
H116	H	1.335694	-0.489181	-0.253646
H117	H	1.335740	-0.588219	-0.253670
Cl118	Cl	0.614222	-0.168948	-0.320278
Cl119	Cl	1.303300	-0.735517	-0.232061
Cl120	Cl	1.226302	-0.032067	-0.850715
H121	H	1.007126	-0.562699	-0.035169
H122	H	1.322917	0.044727	-0.689148
Cl123	Cl	0.742997	-0.181902	-0.344728
