data_functionalizedCrystal
_audit_creation_method	'MofGen! by Chris Wilmer'
_symmetry_space_group_name_H-M	'P1'
_symmetry_Int_Tables_number	1
_symmetry_cell_setting	triclinic
loop_
_symmetry_equiv_pos_as_xyz
  x,y,z
_cell_length_a	19.121063
_cell_length_b	12.827893
_cell_length_c	12.827885
_cell_angle_alpha	89.980728
_cell_angle_beta	87.596033
_cell_angle_gamma	87.531122
loop_
_atom_site_label
_atom_site_type_symbol
_atom_site_fract_x
_atom_site_fract_y
_atom_site_fract_z
Zn1	Zn	-0.279579	-1.579835	0.608539
Zn2	Zn	-0.397046	-1.572236	0.441232
Zn3	Zn	-0.279614	-1.405075	0.433815
Zn4	Zn	-0.396994	-1.397572	0.615928
O5	O	-0.338308	-1.488680	0.524878
O6	O	-0.295169	-1.725063	0.586357
O7	O	-0.381505	-1.550022	0.294014
O8	O	-0.181325	-1.434577	0.450796
O9	O	-0.381471	-1.719480	0.463437
O10	O	-0.181300	-1.562973	0.579165
O11	O	-0.295227	-1.427209	0.288565
O12	O	-0.295177	-1.257844	0.457961
O13	O	-0.381382	-1.421790	0.761182
O14	O	-0.381415	-1.252332	0.591759
O15	O	-0.295118	-1.555698	0.755753
O16	O	-0.495323	-1.542747	0.470602
O17	O	-0.495285	-1.414422	0.598951
C18	C	-0.338295	-1.217171	0.524858
C19	C	-0.338306	-1.101017	0.524875
C20	C	-0.520788	-1.476974	0.536406
C21	C	-0.598854	-1.472062	0.541373
C22	C	-0.338241	-1.488755	0.797445
C23	C	-0.338212	-1.488787	0.913596
C24	C	-0.635526	-1.536618	0.476937
C25	C	-0.708877	-1.532005	0.481615
C26	C	-0.745554	-1.462829	0.550723
C27	C	-0.708877	-1.398270	0.615166
C28	C	-0.635528	-1.402890	0.610493
C29	C	-0.967023	-1.445540	0.568177
C30	C	-1.040378	-1.440923	0.572842
C31	C	-1.040373	-1.574660	0.439292
C32	C	-0.967021	-1.579269	0.434621
C33	C	-0.930351	-1.514714	0.499067
C34	C	-0.820531	-1.458109	0.555503
C35	C	-0.855375	-1.519440	0.494292
C36	C	-0.155116	-1.500460	0.513328
C37	C	-0.077050	-1.505479	0.508407
C38	C	-0.338322	-1.761249	0.524900
C39	C	-0.338328	-1.877402	0.524909
C40	C	-0.381046	-1.046528	0.590989
C41	C	-0.381059	-0.926477	0.591008
C42	C	-0.338325	-1.488668	0.253370
C43	C	-0.338156	-1.488851	0.137206
C44	C	-0.295518	-1.555057	0.962694
C45	C	-0.295487	-1.555091	1.082742
H46	H	-0.605668	-1.592944	0.420657
O47	O	-0.294769	-0.933386	0.457330
C48	C	-0.334736	-0.993911	0.392292
H49	H	-0.388000	-1.006764	0.432396
H50	H	-0.342369	-0.951383	0.315282
C51	C	-0.230713	-1.084322	0.321847
C52	C	-0.296130	-1.100117	0.371107
H53	H	-0.206898	-1.149834	0.308774
H54	H	-0.203785	-1.043543	0.365661
H55	H	-0.237083	-1.048880	0.257677
H56	H	-0.289759	-1.135547	0.435281
H57	H	-0.323056	-1.140905	0.327303
O58	O	-0.381801	-1.421305	1.086723
C59	C	-0.427156	-1.477930	1.026473
H60	H	-0.402382	-1.558729	1.008677
H61	H	-0.479220	-1.486036	1.071758
C62	C	-0.470260	-1.320453	0.945385
C63	C	-0.439830	-1.419688	0.923520
H64	H	-0.478081	-1.284525	0.881881
H65	H	-0.439706	-1.282302	0.985979
H66	H	-0.513643	-1.327222	0.983125
H67	H	-0.396443	-1.412918	0.885793
H68	H	-0.470377	-1.457837	0.882918
O69	O	-0.294564	-1.050697	0.457466
C70	C	-0.224561	-1.081793	0.475998
H71	H	-0.221054	-1.112135	0.559235
H72	H	-0.206112	-1.146213	0.418777
C73	C	-0.182060	-0.950485	0.358865
C74	C	-0.177752	-0.987744	0.461101
H75	H	-0.153184	-0.892473	0.349671
H76	H	-0.229222	-0.929537	0.346376
H77	H	-0.166687	-1.004178	0.311193
H78	H	-0.193133	-0.934056	0.508770
H79	H	-0.130591	-1.008680	0.473597
O80	O	-0.744395	-1.331047	0.682392
C81	C	-0.696295	-1.275042	0.738246
H82	H	-0.643984	-1.321139	0.738569
H83	H	-0.688558	-1.196183	0.699417
C84	C	-0.789120	-1.201505	0.850877
C85	C	-0.724872	-1.258127	0.851281
H86	H	-0.806748	-1.191066	0.920601
H87	H	-0.821526	-1.239234	0.813245
H88	H	-0.782663	-1.135795	0.818514
H89	H	-0.731331	-1.323840	0.883631
H90	H	-0.692467	-1.220409	0.888921
O91	O	-0.251904	-1.622574	0.906704
C92	C	-0.206579	-1.565920	0.840724
H93	H	-0.231357	-1.485110	0.826040
H94	H	-0.154492	-1.557843	0.879436
C95	C	-0.163528	-1.723357	0.754227
C96	C	-0.193963	-1.624108	0.736185
H97	H	-0.155742	-1.759251	0.689744
H98	H	-0.194061	-1.761527	0.798681
H99	H	-0.120125	-1.716612	0.786490
H100	H	-0.237368	-1.630854	0.703935
H101	H	-0.163436	-1.585940	0.691723
H102	H	-0.738732	-1.584572	0.429143
O103	O	-0.251898	-1.622678	1.133279
C104	C	-0.261579	-1.607677	1.241891
H105	H	-0.284586	-1.525543	1.258138
H106	H	-0.298992	-1.667240	1.275231
C107	C	-0.162278	-1.722657	1.273591
C108	C	-0.190530	-1.621776	1.293547
H109	H	-0.118452	-1.731359	1.305457
H110	H	-0.155757	-1.732768	1.200418
H111	H	-0.193462	-1.772282	1.301375
H112	H	-0.159349	-1.572154	1.265751
H113	H	-0.197043	-1.611658	1.366717
O114	O	-0.381720	-1.420986	0.969417
C115	C	-0.366403	-1.317787	0.941832
H116	H	-0.310320	-1.316077	0.908220
H117	H	-0.404113	-1.287972	0.880937
C118	C	-0.443370	-1.249740	1.080645
C119	C	-0.374486	-1.247639	1.039371
H120	H	-0.448359	-1.206468	1.140809
H121	H	-0.453692	-1.319267	1.099228
H122	H	-0.474788	-1.224897	1.029890
H123	H	-0.343071	-1.272494	1.090121
H124	H	-0.364159	-1.178115	1.020798
H125	H	-0.937160	-1.635597	0.378347
H126	H	-1.070238	-1.627218	0.386825
H127	H	-1.070239	-1.384604	0.629137
H128	H	-0.417652	-0.879628	0.647607
O129	O	-0.424788	-1.096772	0.658459
C130	C	-0.494791	-1.065711	0.639884
H131	H	-0.496272	-0.986324	0.599883
H132	H	-0.518360	-1.125586	0.587527
C133	C	-0.535598	-1.155642	0.793486
C134	C	-0.537418	-1.058134	0.744364
H135	H	-0.561894	-1.150973	0.857932
H136	H	-0.488436	-1.176573	0.805999
H137	H	-0.555238	-1.205528	0.749845
H138	H	-0.517770	-1.008253	0.787999
H139	H	-0.584578	-1.037195	0.731861
O140	O	-0.931516	-1.382713	0.630802
C141	C	-0.979620	-1.320680	0.692808
H142	H	-1.031931	-1.313806	0.653332
H143	H	-0.987355	-1.358404	0.772708
C144	C	-0.886804	-1.219685	0.754415
C145	C	-0.951052	-1.211235	0.705927
H146	H	-0.869181	-1.152176	0.762513
H147	H	-0.854394	-1.261480	0.712645
H148	H	-0.893258	-1.251126	0.820994
H149	H	-0.944595	-1.179808	0.639345
H150	H	-0.983460	-1.169432	0.747687
H151	H	-0.605670	-1.350322	0.662965
H152	H	-0.825511	-1.575767	0.438028
H153	H	-0.850402	-1.401784	0.611769
