data_functionalizedCrystal
_audit_creation_method	'MofGen! by Chris Wilmer'
_symmetry_space_group_name_H-M	'P1'
_symmetry_Int_Tables_number	1
_symmetry_cell_setting	triclinic
loop_
_symmetry_equiv_pos_as_xyz
  x,y,z
_cell_length_a	10.489741
_cell_length_b	14.971506
_cell_length_c	13.448316
_cell_angle_alpha	89.994977
_cell_angle_beta	89.995953
_cell_angle_gamma	84.080781
loop_
_atom_site_label
_atom_site_type_symbol
_atom_site_fract_x
_atom_site_fract_y
_atom_site_fract_z
O1	O	1.692610	0.126197	-0.082627
O2	O	1.321278	0.138042	-0.082642
O3	O	1.516883	0.001977	-0.082631
O4	O	1.497005	0.262262	-0.082637
O5	O	1.516859	0.001968	0.082753
O6	O	1.321254	0.138033	0.082742
O7	O	1.692585	0.126188	0.082757
Cu8	Cu	1.506917	0.132110	0.097851
Cu9	Cu	1.506946	0.132120	-0.097735
O10	O	1.496980	0.262253	0.082747
C11	C	1.273745	0.137143	0.000048
C12	C	1.132146	0.134466	0.000042
C13	C	1.515978	-0.031357	0.000059
C14	C	1.513300	-0.130668	0.000055
C15	C	1.617994	-0.568355	0.000060
C16	C	1.620501	-0.475040	0.000066
C17	C	1.505575	-0.418474	0.000058
C18	C	1.388136	-0.455227	0.000053
C19	C	1.385631	-0.548540	0.000054
C20	C	1.393365	-0.260735	0.000050
C21	C	1.395869	-0.167415	0.000047
C22	C	1.628234	-0.187235	0.000062
C23	C	1.625730	-0.280547	0.000062
C24	C	1.508290	-0.317294	0.000056
C25	C	1.064999	0.047892	0.000054
C26	C	0.972415	0.088793	-0.081488
C27	C	0.972425	0.088805	0.081568
C28	C	1.041427	0.175403	-0.081567
C29	C	1.041446	0.175403	0.081562
C30	C	0.948889	0.216367	0.000000
C31	C	1.740119	0.127087	0.000065
C32	C	1.881718	0.129764	0.000064
C33	C	1.497886	0.295587	0.000054
C34	C	1.500564	0.394898	0.000052
N35	N	1.506906	0.132102	0.235415
N36	N	1.506968	0.132121	-0.235299
C37	C	1.593547	0.071878	0.287460
C38	C	1.593555	0.071877	0.391563
C39	C	1.506927	0.132106	0.443619
C40	C	1.420277	0.192333	0.391567
C41	C	1.420264	0.192329	0.287466
C42	C	1.420313	0.192339	0.608547
C43	C	1.420327	0.192345	0.712656
C44	C	1.593604	0.071888	0.712645
C45	C	1.593590	0.071883	0.608543
C46	C	1.506942	0.132112	0.556498
H47	H	1.716124	-0.445126	0.000073
H48	H	1.302287	-0.121361	0.000047
H49	H	1.115505	-0.023277	-0.000047
O50	O	1.754907	-0.147610	0.000079
H51	H	1.737347	-0.073221	0.000092
H52	H	0.941831	0.052166	-0.150425
H53	H	1.349750	0.241381	0.566175
H54	H	1.711581	-0.614405	0.000058
H55	H	1.071845	0.212010	-0.150582
O56	O	1.749680	-0.341563	0.000079
H57	H	1.831764	-0.300337	0.000096
O58	O	1.266701	-0.300374	0.000038
H59	H	1.187206	-0.245365	0.000020
H60	H	1.349737	0.241370	0.433957
H61	H	1.664095	0.022837	0.245082
O62	O	0.931945	0.040263	0.172889
H63	H	0.826291	0.039267	0.172428
O64	O	1.687025	0.006938	0.447701
H65	H	1.747279	-0.034930	0.394014
H66	H	1.664155	0.022848	0.755026
H67	H	1.349784	0.241389	0.755035
H68	H	0.898648	0.287612	-0.000046
O69	O	1.082012	0.223879	0.172881
H70	H	1.129166	0.283655	0.149938
O71	O	1.264175	-0.394223	0.000052
H72	H	1.259761	-0.351237	-0.067361
H73	H	1.290007	-0.578457	0.000056
O74	O	1.326823	0.257289	0.231323
H75	H	1.266595	0.299177	0.285008
O76	O	1.687017	0.006922	0.552390
H77	H	1.747262	-0.034965	0.606067
