data_functionalizedCrystal
_audit_creation_method	'MofGen! by Chris Wilmer'
_symmetry_space_group_name_H-M	'P1'
_symmetry_Int_Tables_number	1
_symmetry_cell_setting	triclinic
loop_
_symmetry_equiv_pos_as_xyz
  x,y,z
_cell_length_a	10.686220
_cell_length_b	12.759400
_cell_length_c	10.686551
_cell_angle_alpha	94.405838
_cell_angle_beta	89.692081
_cell_angle_gamma	94.396503
loop_
_atom_site_label
_atom_site_type_symbol
_atom_site_fract_x
_atom_site_fract_y
_atom_site_fract_z
Zn1	Zn	1.972289	-0.256133	0.562391
Zn2	Zn	1.956061	-0.446293	0.352632
Zn3	Zn	1.746408	-0.283009	0.368708
Zn4	Zn	1.762491	-0.444164	0.578409
O5	O	1.859313	-0.357400	0.465535
O6	O	2.145679	-0.271001	0.521135
O7	O	1.914728	-0.436771	0.179219
O8	O	1.776432	-0.132417	0.394425
O9	O	2.133756	-0.410710	0.367026
O10	O	1.942386	-0.112671	0.536723
O11	O	1.760697	-0.316808	0.191030
O12	O	1.573000	-0.314744	0.409957
O13	O	1.803844	-0.407083	0.751830
O14	O	1.584816	-0.433144	0.564023
O15	O	1.957982	-0.268937	0.740062
O16	O	1.930323	-0.593037	0.382558
O17	O	1.788108	-0.591473	0.548435
C18	C	1.859236	-0.630373	0.465515
C19	C	1.859321	-0.747143	0.465539
C20	C	1.533392	-0.376630	0.490473
C21	C	1.393964	-0.384880	0.501172
C22	C	1.933468	-0.802773	0.379249
C23	C	1.933549	-0.912490	0.379281
C24	C	1.785324	-0.910937	0.551899
C25	C	1.785251	-0.801221	0.551871
C26	C	2.007538	-0.748694	0.292916
C27	C	2.081691	-0.804325	0.206618
C28	C	2.081771	-0.914041	0.206651
C29	C	2.007698	-0.968128	0.292982
C30	C	2.186506	-0.338095	0.440500
C31	C	2.325936	-0.329868	0.429832
C32	C	1.884517	-0.334774	0.792736
C33	C	1.895258	-0.325132	0.932169
C34	C	1.859426	-0.083356	0.465581
C35	C	1.859474	0.033425	0.465600
C36	C	1.834278	-0.379857	0.139602
C37	C	1.823781	-0.389188	0.000151
H38	H	1.345538	-0.438291	0.570432
C39	C	2.163341	-0.975236	0.111733
C40	C	2.244814	-0.915746	0.016779
C41	C	2.326384	-0.976939	-0.078145
C42	C	2.326480	-1.097621	-0.078114
C43	C	2.245003	-1.157117	0.016844
C44	C	2.163434	-1.095924	0.111768
H45	H	2.244746	-0.826404	0.016753
H46	H	2.386698	-0.932895	-0.148439
H47	H	2.386862	-1.142919	-0.148383
H48	H	2.245071	-1.246459	0.016870
H49	H	2.103119	-1.139968	0.182062
C50	C	1.730003	-0.473243	0.934684
C51	C	1.624675	-0.439684	0.852116
C52	C	1.530897	-0.523740	0.786640
C53	C	1.542446	-0.641354	0.803731
C54	C	1.647778	-0.674918	0.886302
C55	C	1.741557	-0.590862	0.951778
H56	H	1.616122	-0.352615	0.839461
H57	H	1.452923	-0.498893	0.725515
H58	H	1.473025	-0.703577	0.755261
H59	H	1.656332	-0.761988	0.898957
H60	H	1.819531	-0.615709	1.012903
H61	H	1.964680	-0.262915	0.980643
H62	H	1.374367	-0.276461	0.360560
H63	H	2.007478	-0.659358	0.292877
C64	C	1.703841	-0.970430	0.646852
C65	C	1.703915	-1.091113	0.646881
C66	C	1.622428	-1.150605	0.741832
C67	C	1.540867	-1.089414	0.836754
C68	C	1.540789	-0.968723	0.836729
C69	C	1.622277	-0.909232	0.741777
H70	H	1.764295	-1.136417	0.576611
H71	H	1.622486	-1.239948	0.741850
H72	H	1.480545	-1.133453	0.907043
H73	H	1.480410	-0.923420	0.906999
H74	H	1.622219	-0.819889	0.741759
H75	H	2.007780	-1.057465	0.293011
C76	C	2.163171	-0.744833	0.111663
C77	C	2.101250	-0.679503	0.017260
C78	C	2.182735	-0.620014	-0.077696
C79	C	2.326141	-0.625855	-0.078249
C80	C	2.388070	-0.691188	0.016158
C81	C	2.306585	-0.750677	0.111113
H82	H	1.995086	-0.675177	0.017666
H83	H	2.136890	-0.571651	-0.147581
H84	H	2.386461	-0.581818	-0.148540
H85	H	2.494234	-0.695514	0.015751
H86	H	2.352430	-0.799041	0.180999
H87	H	1.724875	-0.755927	0.622138
