data_functionalizedCrystal
_audit_creation_method	'MofGen! by Chris Wilmer'
_symmetry_space_group_name_H-M	'P1'
_symmetry_Int_Tables_number	1
_symmetry_cell_setting	triclinic
loop_
_symmetry_equiv_pos_as_xyz
  x,y,z
_cell_length_a	15.995292
_cell_length_b	15.944564
_cell_length_c	15.021413
_cell_angle_alpha	89.999215
_cell_angle_beta	90.006408
_cell_angle_gamma	96.513725
loop_
_atom_site_label
_atom_site_type_symbol
_atom_site_fract_x
_atom_site_fract_y
_atom_site_fract_z
O1	O	1.111013	-0.108030	-0.074059
O2	O	0.867232	-0.121451	-0.074055
O3	O	0.995774	0.007535	-0.074048
O4	O	0.982471	-0.237016	-0.074065
O5	O	0.995791	0.007526	0.074016
O6	O	0.867249	-0.121460	0.074009
O7	O	1.111030	-0.108039	0.074006
Zn8	Zn	0.989142	-0.114751	0.097516
Zn9	Zn	0.989120	-0.114739	-0.097565
O10	O	0.982488	-0.237025	0.073999
C11	C	0.836045	-0.120909	-0.000023
C12	C	0.743092	-0.119272	-0.000021
C13	C	0.405353	-0.113251	-0.000031
C14	C	0.428675	-0.206350	-0.000368
C15	C	0.525350	-0.208120	-0.000030
C16	C	0.572909	-0.116239	-0.000027
C17	C	0.543812	-0.069699	0.084526
C18	C	0.447021	-0.068578	0.084593
C19	C	0.447147	-0.066667	-0.083784
C20	C	0.543640	-0.070116	-0.084898
C21	C	0.667605	-0.117922	-0.000021
C22	C	0.310657	-0.111565	-0.000030
C23	C	0.995228	0.038825	-0.000016
C24	C	0.993567	0.132070	-0.000015
C25	C	0.909917	0.346903	-0.000025
C26	C	0.948762	0.407925	0.072979
C27	C	0.990562	0.302794	-0.000021
C28	C	0.948765	0.407918	-0.073001
C29	C	0.987652	0.467705	-0.000031
C30	C	1.029429	0.362588	0.073043
C31	C	1.029420	0.362574	-0.073002
C32	C	1.068324	0.423579	0.000020
C33	C	0.992235	0.207792	-0.000015
C34	C	0.985985	0.562705	-0.000031
C35	C	1.142217	-0.108581	-0.000029
C36	C	1.235170	-0.110218	-0.000036
C37	C	0.983022	0.731684	-0.000034
C38	C	0.984649	0.638435	-0.000038
N39	N	0.989163	-0.114759	0.230653
C40	C	1.048615	-0.055104	0.470316
C41	C	0.972954	-0.038807	0.529647
C42	C	0.989146	-0.114750	0.412260
C43	C	1.064791	-0.130998	0.529671
C44	C	0.989136	-0.114739	0.587684
C45	C	0.913446	-0.098415	0.470285
C46	C	1.005333	-0.190640	0.470303
C47	C	0.929617	-0.174375	0.529608
C48	C	0.989153	-0.114754	0.311203
C49	C	0.989120	-0.114736	0.688739
N50	N	0.989117	-0.114733	0.769297
H51	H	0.575674	-0.002087	0.087672
C52	C	1.158826	0.468406	0.000073
C53	C	1.174077	0.565516	-0.000647
C54	C	1.264577	0.610344	-0.000589
C55	C	1.339826	0.558062	0.000189
C56	C	1.324577	0.460947	0.000910
C57	C	1.234077	0.416119	0.000851
H58	H	1.118372	0.604223	-0.001224
H59	H	1.275865	0.682235	-0.001122
H60	H	1.406819	0.591246	0.000233
H61	H	1.380282	0.422239	0.001486
H62	H	1.222789	0.344227	0.001385
C63	C	0.902664	0.435049	-0.156379
C64	C	0.823655	0.481174	-0.146403
C65	C	0.777548	0.508301	-0.229777
C66	C	0.810452	0.489303	-0.323127
C67	C	0.889466	0.443176	-0.333107
C68	C	0.935572	0.416049	-0.249733
H69	H	0.799294	0.495239	-0.077297
H70	H	0.719057	0.542447	-0.222389
H71	H	0.776321	0.509384	-0.384845
H72	H	0.913827	0.429111	-0.402214
H73	H	0.994063	0.381903	-0.257122
H74	H	0.576602	-0.003052	-0.090002
C75	C	0.902697	0.435079	0.156359
C76	C	0.949338	0.496449	0.223695
C77	C	0.903268	0.523596	0.307073
C78	C	0.810557	0.489374	0.323113
C79	C	0.763911	0.428001	0.255775
C80	C	0.809981	0.400853	0.172398
H81	H	1.017972	0.521785	0.211823
H82	H	0.937798	0.569029	0.356920
H83	H	0.776453	0.509471	0.384834
H84	H	0.695276	0.402665	0.267648
H85	H	0.775450	0.355420	0.122550
C86	C	0.550236	-0.257661	0.081985
C87	C	0.482099	-0.295730	0.147381
C88	C	0.506984	-0.345274	0.229400
C89	C	0.600006	-0.356749	0.246023
C90	C	0.668149	-0.318679	0.180625
C91	C	0.643264	-0.269135	0.098606
H92	H	0.413233	-0.287236	0.135078
H93	H	0.456539	-0.373456	0.277812
H94	H	0.618427	-0.393425	0.306738
H95	H	0.737014	-0.327173	0.192928
H96	H	0.693709	-0.240953	0.050194
H97	H	0.544374	-0.244563	-0.060643
C98	C	1.116483	0.013070	0.435134
C99	C	1.129445	0.025076	0.334158
C100	C	1.197308	0.093251	0.298975
C101	C	1.252209	0.149420	0.364768
C102	C	1.239248	0.137416	0.465751
C103	C	1.171386	0.069242	0.500934
H104	H	1.088803	-0.016506	0.285449
H105	H	1.206902	0.102136	0.224221
H106	H	1.302445	0.199887	0.338723
H107	H	1.279890	0.178998	0.514460
H108	H	1.161792	0.060356	0.575688
H109	H	0.418815	-0.095762	-0.147869
C110	C	0.570914	-0.113370	0.169532
C111	C	0.504121	-0.150703	0.236756
C112	C	0.531220	-0.194379	0.321760
C113	C	0.625111	-0.200723	0.339539
C114	C	0.691910	-0.163389	0.272312
C115	C	0.664811	-0.119713	0.187309
H116	H	0.434612	-0.146008	0.223597
H117	H	0.481770	-0.222017	0.371525
H118	H	0.645171	-0.233056	0.402463
H119	H	0.761419	-0.168084	0.285472
H120	H	0.714260	-0.092075	0.137544
C121	C	0.410801	-0.112140	0.169967
C122	C	0.346055	-0.191106	0.163503
C123	C	0.309839	-0.234673	0.248878
C124	C	0.338369	-0.199273	0.340715
C125	C	0.403119	-0.120302	0.347182
C126	C	0.439334	-0.076735	0.261808
H127	H	0.324932	-0.217315	0.095516
H128	H	0.261907	-0.293132	0.244090
H129	H	0.311561	-0.231523	0.403914
H130	H	0.424242	-0.094093	0.415169
H131	H	0.487266	-0.018276	0.266596
H132	H	0.849456	-0.084595	0.444309
H133	H	0.562206	-0.104002	-0.147449
C134	C	0.954444	0.047895	0.564874
C135	C	0.876542	0.054785	0.623492
C136	C	0.858039	0.141488	0.658717
C137	C	0.917438	0.221301	0.635323
C138	C	0.995345	0.214413	0.576702
C139	C	1.013848	0.127710	0.541477
H140	H	0.832566	-0.004299	0.640813
H141	H	0.800367	0.146587	0.702112
H142	H	0.903741	0.285484	0.661398
H143	H	1.039320	0.273498	0.559381
H144	H	1.071520	0.122612	0.498082
H145	H	0.842981	0.313578	0.000048
H146	H	1.063517	0.342603	0.134830
C147	C	0.861602	-0.242513	0.564570
C148	C	0.768491	-0.238325	0.540903
C149	C	0.700474	-0.306457	0.575868
C150	C	0.725568	-0.378777	0.634501
C151	C	0.818683	-0.382968	0.658171
C152	C	0.886700	-0.314836	0.623205
H153	H	0.749911	-0.184787	0.497497
H154	H	0.631544	-0.303354	0.558346
H155	H	0.675218	-0.429213	0.660385
H156	H	0.837262	-0.436507	0.701577
H157	H	0.955629	-0.317939	0.640728
H158	H	1.063494	0.342457	-0.134725
H159	H	1.128766	-0.144747	0.555756
H160	H	1.019057	-0.254802	0.444217
C161	C	0.427348	0.023632	0.089803
C162	C	0.499681	0.096014	0.093894
C163	C	0.480011	0.188222	0.099116
C164	C	0.388009	0.208047	0.100249
C165	C	0.315669	0.135662	0.096158
C166	C	0.335339	0.043455	0.090936
H167	H	0.567792	0.081341	0.093056
H168	H	0.533562	0.241805	0.102144
H169	H	0.373448	0.276304	0.104115
H170	H	0.247558	0.150336	0.096996
H171	H	0.281788	-0.010128	0.087908
H172	H	0.400675	-0.242231	-0.061005
C173	C	0.428236	0.025909	-0.084561
C174	C	0.501029	0.097893	-0.081943
C175	C	0.482112	0.190465	-0.082713
C176	C	0.390404	0.211051	-0.086101
C177	C	0.317605	0.139064	-0.088720
C178	C	0.336521	0.046493	-0.087950
H179	H	0.568923	0.082656	-0.079434
H180	H	0.536004	0.243754	-0.080774
H181	H	0.376401	0.279578	-0.086671
H182	H	0.249711	0.154302	-0.091229
H183	H	0.282630	-0.006796	-0.089889
H184	H	0.399666	-0.242039	0.059923
