data_functionalizedCrystal
_audit_creation_method	'MofGen! by Chris Wilmer'
_symmetry_space_group_name_H-M	'P1'
_symmetry_Int_Tables_number	1
_symmetry_cell_setting	triclinic
loop_
_symmetry_equiv_pos_as_xyz
  x,y,z
_cell_length_a	12.759395
_cell_length_b	25.639239
_cell_length_c	25.639233
_cell_angle_alpha	89.981253
_cell_angle_beta	89.988988
_cell_angle_gamma	90.040223
loop_
_atom_site_label
_atom_site_type_symbol
_atom_site_fract_x
_atom_site_fract_y
_atom_site_fract_z
Zn1	Zn	1.605995	-0.208193	-0.295587
Zn2	Zn	1.605841	-0.295612	-0.208151
Zn3	Zn	1.430322	-0.208195	-0.208168
Zn4	Zn	1.430212	-0.295602	-0.295558
O5	O	1.518093	-0.251900	-0.251866
O6	O	1.752996	-0.219793	-0.283993
O7	O	1.582540	-0.284021	-0.134988
O8	O	1.453736	-0.135029	-0.219783
O9	O	1.752883	-0.284019	-0.219755
O10	O	1.582802	-0.135028	-0.284009
O11	O	1.453587	-0.219796	-0.135000
O12	O	1.283287	-0.219786	-0.219755
O13	O	1.453548	-0.284002	-0.368727
O14	O	1.283206	-0.284003	-0.283960
O15	O	1.582695	-0.219783	-0.368748
O16	O	1.582433	-0.368776	-0.219727
O17	O	1.453399	-0.368768	-0.283944
C18	C	1.245125	-0.251894	-0.251857
C19	C	1.128348	-0.251904	-0.251865
C20	C	1.128303	-0.318882	-0.318614
C21	C	1.073419	-0.352375	-0.351990
C22	C	0.963697	-0.352381	-0.351996
C23	C	0.908857	-0.318890	-0.318624
C24	C	0.963741	-0.285397	-0.285249
C25	C	1.073465	-0.285395	-0.285245
C26	C	0.963786	-0.218417	-0.218503
C27	C	1.073508	-0.218412	-0.218493
C28	C	0.908946	-0.184925	-0.185131
C29	C	0.963830	-0.151434	-0.151752
C30	C	1.073558	-0.151430	-0.151747
C31	C	1.128392	-0.184919	-0.185118
C32	C	1.517916	-0.387743	-0.251842
C33	C	1.517936	-0.445857	-0.251849
C34	C	1.585456	-0.806211	-0.218485
C35	C	1.585497	-0.860815	-0.218492
O36	O	1.642721	-0.889045	-0.190098
N37	N	1.518277	-0.888139	-0.251900
C38	C	1.451020	-0.860856	-0.285308
O39	O	1.393849	-0.889111	-0.313726
C40	C	1.450986	-0.806253	-0.285303
C41	C	1.518202	-0.778932	-0.251889
C42	C	1.652668	-0.778890	-0.185073
C43	C	1.652625	-0.724290	-0.185066
C44	C	1.585371	-0.697010	-0.218470
C45	C	1.518160	-0.724331	-0.251881
C46	C	1.383735	-0.778970	-0.318713
C47	C	1.383707	-0.724363	-0.318706
C48	C	1.450923	-0.697042	-0.285291
C49	C	1.450863	-0.642451	-0.285278
N50	N	1.518083	-0.615127	-0.251869
C51	C	1.585337	-0.642407	-0.218465
C52	C	1.451100	-0.975526	-0.285316
C53	C	1.451128	-1.030129	-0.285319
C54	C	1.585606	-1.030085	-0.218503
C55	C	1.585571	-0.975481	-0.218498
C56	C	1.518319	-0.948203	-0.251907
C57	C	1.585242	-0.527742	-0.218451
C58	C	1.585190	-0.473136	-0.218445
C59	C	1.450717	-0.473185	-0.285263
C60	C	1.450764	-0.527786	-0.285267
C61	C	1.518035	-0.555063	-0.251860
O62	O	1.393671	-0.614187	-0.313659
O63	O	1.642508	-0.614145	-0.190057
C64	C	1.792126	-0.251907	-0.251875
C65	C	1.908903	-0.251910	-0.251879
C66	C	1.518127	-0.251891	-0.388239
C67	C	1.518141	-0.251887	-0.446353
C68	C	1.518299	-0.115527	-0.251901
C69	C	1.518386	-0.057413	-0.251916
C70	C	1.585473	-0.218349	-0.806733
C71	C	1.585486	-0.218335	-0.861337
O72	O	1.642649	-0.189881	-0.889588
N73	N	1.518257	-0.251765	-0.888636
C74	C	1.451003	-0.285207	-0.861327
O75	O	1.393819	-0.313640	-0.889560
C76	C	1.450985	-0.285219	-0.806724
C77	C	1.518226	-0.251790	-0.779428
C78	C	1.652708	-0.184923	-0.779437
C79	C	1.652696	-0.184938	-0.724837
C80	C	1.585449	-0.218380	-0.697532
C81	C	1.518215	-0.251806	-0.724827
C82	C	1.383727	-0.318659	-0.779416
C83	C	1.383714	-0.318667	-0.724809
C84	C	1.450955	-0.285238	-0.697513
C85	C	1.450956	-0.285262	-0.642922
N86	N	1.518185	-0.251832	-0.615623
C87	C	1.585432	-0.218391	-0.642928
C88	C	1.451043	-0.285180	-0.975998
C89	C	1.451065	-0.285172	-1.030600
C90	C	1.585548	-0.218298	-1.030606
C91	C	1.585530	-0.218310	-0.976003
C92	C	1.518273	-0.251750	-0.948699
C93	C	1.585403	-0.218426	-0.528263
C94	C	1.585388	-0.218446	-0.473658
C95	C	1.450902	-0.285317	-0.473656
C96	C	1.450920	-0.285300	-0.528257
C97	C	1.518174	-0.251850	-0.555559
O98	O	1.393819	-0.313700	-0.614636
O99	O	1.642596	-0.189958	-0.614688
C100	C	1.518119	-0.251872	-0.116023
C101	C	1.518309	-0.251728	-0.057910
H102	H	1.118082	-0.379642	-0.379161
C103	C	1.376741	-0.443169	-0.322005
C104	C	1.257313	-0.450733	-0.317691
C105	C	1.183343	-0.420715	-0.354436
C106	C	1.228800	-0.383133	-0.395495
C107	C	1.348234	-0.375568	-0.399810
C108	C	1.422204	-0.405586	-0.363065
H109	H	1.223658	-0.478555	-0.287296
H110	H	1.094930	-0.426316	-0.351241
H111	H	1.174042	-0.360912	-0.422695
H112	H	1.381889	-0.347746	-0.430206
H113	H	1.510617	-0.399985	-0.366260
H114	H	1.640305	-0.953240	-0.191289
H115	H	1.640282	-0.191088	-0.953782
C116	C	1.659595	-1.060099	-0.181760
C117	C	1.659633	-1.120160	-0.181773
C118	C	1.733617	-1.150176	-0.145033
C119	C	1.807562	-1.120130	-0.108280
C120	C	1.807527	-1.060065	-0.108266
C121	C	1.733543	-1.030050	-0.145006
H122	H	1.604892	-1.142405	-0.208981
H123	H	1.733642	-1.194640	-0.145043
H124	H	1.862329	-1.142350	-0.081082
H125	H	1.862268	-1.037821	-0.081058
H126	H	1.733518	-0.985586	-0.144995
H127	H	1.640301	-0.191067	-1.052848
H128	H	1.328995	-0.801206	-0.345921
H129	H	1.396322	-0.312398	-1.052820
H130	H	1.328943	-0.702155	-0.345914
H131	H	1.396177	-0.312525	-0.550482
C132	C	1.133926	-0.114585	-0.115032
C133	C	1.209302	-0.137170	-0.073934
C134	C	1.269664	-0.100325	-0.037218
C135	C	1.254650	-0.040895	-0.041601
C136	C	1.179271	-0.018307	-0.082701
C137	C	1.118908	-0.055153	-0.119417
H138	H	1.220419	-0.181166	-0.070687
H139	H	1.325465	-0.117046	-0.006793
H140	H	1.299334	-0.013620	-0.014422
H141	H	1.168153	0.025689	-0.085947
H142	H	1.063107	-0.038432	-0.149842
H143	H	1.396034	-0.550032	-0.312478
C144	C	0.903319	-0.389223	-0.388709
C145	C	0.963630	-0.426061	-0.425417
C146	C	0.903251	-0.462903	-0.462129
C147	C	0.782560	-0.462907	-0.462132
C148	C	0.722243	-0.426068	-0.425423
C149	C	0.782622	-0.389226	-0.388711
H150	H	1.052978	-0.426060	-0.425416
H151	H	0.947902	-0.490174	-0.489304
H152	H	0.737864	-0.490180	-0.489309
H153	H	0.632895	-0.426069	-0.425424
H154	H	0.737970	-0.361955	-0.361536
H155	H	1.396384	-1.052369	-0.312523
H156	H	1.639926	-0.450893	-0.191233
H157	H	1.217644	-0.318884	-0.318608
H158	H	0.819516	-0.318893	-0.318637
C159	C	1.659232	-0.557741	-0.181700
C160	C	1.650721	-0.550258	-0.122259
C161	C	1.724704	-0.580258	-0.085506
C162	C	1.807198	-0.617741	-0.108193
C163	C	1.815713	-0.625225	-0.167637
C164	C	1.741730	-0.595226	-0.204390
H165	H	1.589651	-0.522510	-0.105462
H166	H	1.718400	-0.574717	-0.041501
H167	H	1.861965	-0.639948	-0.080985
H168	H	1.876783	-0.652974	-0.184434
H169	H	1.748034	-0.600767	-0.248395
H170	H	1.640147	-0.191224	-0.451436
H171	H	0.819605	-0.184931	-0.185141
C172	C	1.659387	-0.181634	-0.558290
C173	C	1.613952	-0.140568	-0.595827
C174	C	1.687942	-0.103779	-0.625853
C175	C	1.807367	-0.108057	-0.618342
C176	C	1.852808	-0.149126	-0.580803
C177	C	1.778818	-0.185914	-0.550777
H178	H	1.525541	-0.137399	-0.601389
H179	H	1.654302	-0.073378	-0.653642
H180	H	1.862138	-0.080824	-0.640570
H181	H	1.941219	-0.152294	-0.575242
H182	H	1.812458	-0.216316	-0.522988
H183	H	1.396273	-0.312414	-0.953770
H184	H	0.919170	-0.124166	-0.124586
H185	H	1.328971	-0.345879	-0.801631
C186	C	1.726691	-0.148135	-0.809466
C187	C	1.846115	-0.152413	-0.801949
C188	C	1.920110	-0.115625	-0.831972
C189	C	1.874683	-0.074560	-0.869513
C190	C	1.755253	-0.070280	-0.877031
C191	C	1.681257	-0.107068	-0.847008
H192	H	1.879749	-0.182814	-0.774158
H193	H	2.008520	-0.118794	-0.826406
H194	H	1.929459	-0.047327	-0.891738
H195	H	1.721619	-0.039879	-0.904823
H196	H	1.592847	-0.103899	-0.852574
H197	H	1.396326	-0.953319	-0.312521
H198	H	1.707449	-0.157717	-0.702617
C199	C	1.309734	-0.355455	-0.694774
C200	C	1.190306	-0.351183	-0.702278
C201	C	1.116331	-0.387971	-0.672243
C202	C	1.161783	-0.429032	-0.634704
C203	C	1.281217	-0.433305	-0.627198
C204	C	1.355193	-0.396517	-0.657233
H205	H	1.156654	-0.320786	-0.730068
H206	H	1.027918	-0.384808	-0.677799
H207	H	1.107022	-0.456265	-0.612470
H208	H	1.314869	-0.463702	-0.599408
H209	H	1.443606	-0.399681	-0.651677
C210	C	1.726653	-0.808891	-0.148323
C211	C	1.718145	-0.801401	-0.088883
C212	C	1.792130	-0.831397	-0.052127
C213	C	1.874624	-0.868882	-0.074811
C214	C	1.883135	-0.876373	-0.134255
C215	C	1.809150	-0.846377	-0.171011
H216	H	1.657076	-0.773651	-0.072088
H217	H	1.785829	-0.825851	-0.008123
H218	H	1.929392	-0.891086	-0.047603
H219	H	1.944205	-0.904123	-0.151050
H220	H	1.815451	-0.851923	-0.215015
H221	H	1.217733	-0.184920	-0.185115
H222	H	1.707361	-0.702048	-0.157858
H223	H	1.396155	-0.312546	-0.451415
