data_functionalizedCrystal
_audit_creation_method	'MofGen! by Chris Wilmer'
_symmetry_space_group_name_H-M	'P1'
_symmetry_Int_Tables_number	1
_symmetry_cell_setting	triclinic
loop_
_symmetry_equiv_pos_as_xyz
  x,y,z
_cell_length_a	6.817900
_cell_length_b	17.078472
_cell_length_c	11.102193
_cell_angle_alpha	95.114488
_cell_angle_beta	108.604059
_cell_angle_gamma	99.306020
loop_
_atom_site_label
_atom_site_type_symbol
_atom_site_fract_x
_atom_site_fract_y
_atom_site_fract_z
V1	V	-4.064552	-0.109773	-0.396130
O2	O	-4.072802	0.005269	-0.388720
O3	O	-3.995176	-0.217656	-0.393294
O4	O	-4.042048	-0.108087	-0.568953
O5	O	-4.025605	-0.105058	-0.211845
V6	V	-4.547543	-0.096012	-0.374103
O7	O	-4.326979	-0.139958	-0.444447
O8	O	-4.735314	-0.065827	-0.325786
O9	O	-4.393713	0.011870	-0.376939
O10	O	-4.656690	-0.211054	-0.381513
O11	O	-4.703887	-0.100727	-0.558388
O12	O	-4.346841	-0.097698	-0.201280
C13	C	-3.834236	-0.243955	-0.387013
C14	C	-3.858972	-0.332151	-0.385846
C15	C	-4.052871	-0.377626	-0.391633
C16	C	-4.076105	-0.460496	-0.390544
C17	C	-3.905433	-0.497887	-0.383660
C18	C	-3.711520	-0.452406	-0.377877
C19	C	-3.688293	-0.369539	-0.378975
C20	C	-3.955357	-0.745291	-0.379706
C21	C	-3.978598	-0.828164	-0.378605
C22	C	-4.343183	-0.836248	-0.391275
C23	C	-4.319935	-0.753378	-0.392364
C24	C	-4.126029	-0.707905	-0.386588
N25	N	-3.929175	-0.582593	-0.382543
N26	N	-4.102293	-0.623202	-0.387714
C27	C	-3.894025	-0.104188	-0.611082
C28	C	-3.956769	-0.103524	-0.752365
C29	C	-4.014932	-0.248835	-0.788523
C30	C	-4.073484	-0.321175	-0.872975
C31	C	-4.132439	-0.320546	-1.005721
C32	C	-4.132847	-0.247569	-1.054017
C33	C	-4.074295	-0.175229	-0.969566
C34	C	-4.015336	-0.175866	-0.836818
C35	C	-4.016148	-0.029920	-0.933408
C36	C	-3.957177	-0.030547	-0.800661
C37	C	-4.016556	0.043057	-0.981705
C38	C	-3.957989	0.115399	-0.897252
C39	C	-3.899029	0.114767	-0.764498
C40	C	-3.898626	0.041793	-0.716209
C41	C	-4.217994	0.038166	-0.383217
C42	C	-4.172497	0.126360	-0.384392
C43	C	-4.158205	-0.101600	-0.159145
C44	C	-4.074699	-0.102260	-0.017860
H45	H	-3.797466	-0.708276	-0.374995
C46	C	-3.958514	0.195663	-0.950376
H47	H	-3.915226	0.238657	-0.881071
H48	H	-3.863704	0.201483	-0.997295
H49	H	-4.096985	0.196370	-1.005525
H50	H	-3.851366	0.173676	-0.695743
H51	H	-4.064578	0.043564	-1.089796
H52	H	-3.850608	0.041272	-0.608121
C53	C	-4.197683	-0.246874	-1.200034
H54	H	-4.189541	-0.193054	-1.216702
H55	H	-4.105120	-0.271030	-1.232598
H56	H	-4.338412	-0.276099	-1.240882
C57	C	-4.507670	-0.712249	-0.399938
H58	H	-4.466059	-0.656382	-0.399750
H59	H	-4.621775	-0.734738	-0.476808
H60	H	-4.550972	-0.720242	-0.327901
C61	C	-4.073051	-0.401446	-0.819854
H62	H	-4.116388	-0.444438	-0.889164
H63	H	-3.934630	-0.402181	-0.764680
H64	H	-4.167921	-0.407247	-0.772964
C65	C	-3.523783	-0.493535	-0.370303
H66	H	-3.565377	-0.549400	-0.370464
H67	H	-3.480461	-0.485543	-0.442326
H68	H	-3.409688	-0.471040	-0.293420
H69	H	-4.191849	-0.347187	-0.397226
C70	C	-4.556472	-0.886267	-0.397642
H71	H	-4.654785	-0.852128	-0.401891
H72	H	-4.608503	-0.926012	-0.471925
H73	H	-4.537721	-0.911510	-0.323019
C74	C	-3.950093	-0.249530	-0.642507
H75	H	-3.958251	-0.303351	-0.625839
H76	H	-3.809385	-0.220299	-0.601654
H77	H	-4.042685	-0.225382	-0.609948
C78	C	-4.196857	-0.400118	-1.098621
H79	H	-4.188167	-0.443670	-1.050851
H80	H	-4.337700	-0.405424	-1.155294
H81	H	-4.104411	-0.400353	-1.147018
H82	H	-3.530404	-0.332514	-0.374268
H83	H	-3.839619	-0.858609	-0.373029
H84	H	-4.233996	-0.497519	-0.395258
