data_functionalizedCrystal
_audit_creation_method	'MofGen! by Chris Wilmer'
_symmetry_space_group_name_H-M	'P1'
_symmetry_Int_Tables_number	1
_symmetry_cell_setting	triclinic
loop_
_symmetry_equiv_pos_as_xyz
  x,y,z
_cell_length_a	11.026607
_cell_length_b	10.065918
_cell_length_c	11.026607
_cell_angle_alpha	82.346549
_cell_angle_beta	71.413983
_cell_angle_gamma	97.708363
loop_
_atom_site_label
_atom_site_type_symbol
_atom_site_fract_x
_atom_site_fract_y
_atom_site_fract_z
O1	O	1.747087	0.113491	-0.553904
O2	O	1.380508	0.113493	-0.493141
O3	O	1.533415	0.113487	-0.340232
O4	O	1.594180	0.113497	-0.706814
O5	O	1.492688	-0.113502	-0.299659
O6	O	1.339781	-0.113496	-0.452569
O7	O	1.706360	-0.113498	-0.513332
Zn8	Zn	1.516604	-0.149536	-0.476508
Zn9	Zn	1.570264	0.149532	-0.529965
O10	O	1.553453	-0.113492	-0.666241
C11	C	1.312485	-0.000001	-0.461645
C12	C	1.170471	-0.000000	-0.428228
C13	C	1.116822	0.000003	-0.520499
C14	C	0.970043	0.000004	-0.485963
N15	N	1.479992	-0.353642	-0.440027
C16	C	1.557517	-0.421420	-0.517270
C17	C	1.529347	-0.578588	-0.489184
C18	C	1.774384	-0.000001	-0.544828
C19	C	1.916399	0.000007	-0.578247
C20	C	1.501842	-0.000005	-0.272286
C21	C	1.468426	-0.000000	-0.130273
N22	N	1.606884	0.353637	-0.566438
C23	C	1.585027	0.000004	-0.734187
C24	C	1.618444	0.000008	-0.876202
C25	C	1.560696	0.000001	-0.076624
C26	C	1.526161	0.000006	0.070153
H27	H	1.107743	0.000032	-0.323671
H28	H	1.694119	-0.588041	-0.653366
C29	C	1.362148	-0.432434	-0.322595
N30	N	1.273385	-0.491779	-0.234143
H31	H	1.421593	0.000016	0.132881
C32	C	0.885303	0.000000	-0.344692
N33	N	0.821475	-0.000000	-0.238289
C34	C	1.759715	0.000005	0.039061
N35	N	1.866118	0.000001	-0.024763
H36	H	1.179554	-0.000002	-0.625061
C37	C	1.327162	-0.000001	-0.045529
N38	N	1.220758	-0.000006	0.018300
H39	H	0.979125	0.000001	-0.682816
H40	H	1.644748	-0.363092	-0.604190
C41	C	1.411498	-0.657375	-0.371745
N42	N	1.322735	-0.716719	-0.283294
H43	H	1.665257	-0.000008	-0.139356
