data_functionalizedCrystal
_audit_creation_method	'MofGen! by Chris Wilmer'
_symmetry_space_group_name_H-M	'P1'
_symmetry_Int_Tables_number	1
_symmetry_cell_setting	triclinic
loop_
_symmetry_equiv_pos_as_xyz
  x,y,z
_cell_length_a	15.944551
_cell_length_b	17.699083
_cell_length_c	16.776229
_cell_angle_alpha	90.000273
_cell_angle_beta	90.004368
_cell_angle_gamma	96.609123
loop_
_atom_site_label
_atom_site_type_symbol
_atom_site_fract_x
_atom_site_fract_y
_atom_site_fract_z
O1	O	0.106218	-1.004259	0.066178
O2	O	0.606218	-0.504259	0.566178
O3	O	0.120038	-0.783904	0.066204
O4	O	0.620038	-0.283904	0.566204
O5	O	-0.009160	-0.900099	0.066183
O6	O	0.490840	-0.400099	0.566183
O7	O	0.235415	-0.888064	0.066199
O8	O	0.735415	-0.388064	0.566199
O9	O	-0.009160	-0.900086	-0.066393
O10	O	0.490840	-0.400086	0.433607
O11	O	0.120037	-0.783891	-0.066372
O12	O	0.620037	-0.283891	0.433628
O13	O	0.106218	-1.004246	-0.066398
O14	O	0.606218	-0.504246	0.433602
Zn15	Zn	0.113128	-0.894066	-0.087435
Zn16	Zn	0.613128	-0.394066	0.412565
Zn17	Zn	0.113128	-0.894083	0.087241
Zn18	Zn	0.613128	-0.394083	0.587241
O19	O	0.235415	-0.888051	-0.066377
O20	O	0.735415	-0.388051	0.433623
C21	C	-0.040453	-0.899593	-0.000105
C22	C	0.459547	-0.399593	0.499895
C23	C	-0.133696	-0.898095	-0.000105
C24	C	0.366304	-0.398095	0.499895
C25	C	0.119542	-0.755700	-0.000080
C26	C	0.619542	-0.255700	0.499920
C27	C	0.118057	-0.671679	-0.000071
C28	C	0.618057	-0.171679	0.499929
C29	C	0.106713	-1.032450	-0.000112
C30	C	0.606713	-0.532450	0.499888
C31	C	0.108199	-1.116471	-0.000116
C32	C	0.608199	-0.616471	0.499884
C33	C	-0.348393	-0.822492	-0.000085
C34	C	0.151607	-0.322492	0.499915
C35	C	-0.409484	-0.857593	-0.065458
C36	C	0.090516	-0.357593	0.434542
C37	C	-0.304416	-0.895385	-0.000099
C38	C	0.195584	-0.395385	0.499901
C39	C	-0.409468	-0.857623	0.065252
C40	C	0.090532	-0.357623	0.565252
C41	C	-0.469323	-0.892762	-0.000089
C42	C	0.030677	-0.392762	0.499911
C43	C	-0.364279	-0.930506	-0.065525
C44	C	0.135721	-0.430506	0.434475
C45	C	-0.364256	-0.930526	0.065244
C46	C	0.135744	-0.430526	0.565244
C47	C	-0.425329	-0.965680	-0.000145
C48	C	0.074671	-0.465680	0.499855
C49	C	-0.209417	-0.896894	-0.000105
C50	C	0.290583	-0.396894	0.499895
C51	C	-0.564321	-0.891259	-0.000089
C52	C	-0.064321	-0.391259	0.499911
C53	C	0.266708	-0.888557	-0.000087
C54	C	0.766708	-0.388557	0.499913
C55	C	0.359951	-0.890055	-0.000082
C56	C	0.859951	-0.390055	0.499918
N57	N	0.113127	-0.894060	-0.206646
N58	N	0.613127	-0.394060	0.293354
C59	C	0.193893	-0.623187	-0.000066
C60	C	0.693893	-0.123187	0.499934
C61	C	0.192492	-0.544242	-0.000076
C62	C	0.692492	-0.044242	0.499924
C63	C	0.115254	-0.513789	-0.000086
C64	C	0.615254	-0.013789	0.499914
C65	C	0.039412	-0.562287	-0.000093
C66	C	0.539412	-0.062287	0.499907
C67	C	0.040814	-0.641231	-0.000088
C68	C	0.540814	-0.141231	0.499912
C69	C	0.033758	-0.243914	-0.000113
C70	C	0.533758	0.256086	0.499887
C71	C	0.032362	-0.164964	-0.000115
C72	C	0.532362	0.335036	0.499885
C73	C	0.185436	-0.146925	-0.000101
C74	C	0.685436	0.353075	0.499899
C75	C	0.186837	-0.225869	-0.000096
C76	C	0.686837	0.274131	0.499904
C77	C	0.110996	-0.274360	-0.000108
C78	C	0.610996	0.225640	0.499892
C79	C	0.112516	-0.359962	-0.000098
C80	C	0.612516	0.140038	0.499902
C81	C	0.113733	-0.428189	-0.000090
C82	C	0.613733	0.071811	0.499910
C83	C	0.164009	-0.939962	-0.248362
C84	C	0.664009	-0.439962	0.251638
C85	C	0.164006	-0.939970	-0.331814
C86	C	0.664006	-0.439970	0.168186
C87	C	0.113124	-0.894072	-0.373549
C88	C	0.613124	-0.394072	0.126451
C89	C	0.062236	-0.848168	-0.331827
C90	C	0.562236	-0.348168	0.168173
C91	C	0.062235	-0.848164	-0.248376
C92	C	0.562235	-0.348164	0.251624
C93	C	0.062237	-0.848184	-0.668374
C94	C	0.562237	-0.348184	-0.168374
C95	C	0.062243	-0.848189	-0.751831
C96	C	0.562243	-0.348189	-0.251831
C97	C	0.164008	-0.939989	-0.751812
C98	C	0.664008	-0.439989	-0.251812
C99	C	0.164007	-0.939985	-0.668361
C100	C	0.664007	-0.439985	-0.168361
C101	C	0.113116	-0.894085	-0.626647
C102	C	0.613116	-0.394085	-0.126647
C103	C	0.113119	-0.894077	-0.536158
C104	C	0.613119	-0.394077	-0.036158
C105	C	0.113125	-0.894075	-0.464036
C106	C	0.613125	-0.394075	0.035964
N107	N	0.113122	-0.894096	0.206452
N108	N	0.613122	-0.394096	0.706452
H109	H	-0.314958	-0.761987	-0.000143
H110	H	0.185042	-0.261987	0.499857
Cl111	Cl	0.290998	-0.661462	-0.000049
Cl112	Cl	0.790998	-0.161462	0.499951
H113	H	0.205444	-0.977366	-0.785786
H114	H	0.705444	-0.477366	-0.285786
Cl115	Cl	0.227978	-0.997676	-0.384253
Cl116	Cl	0.727978	-0.497676	0.115747
Cl117	Cl	-0.061587	-0.304864	-0.000126
Cl118	Cl	0.438413	0.195136	0.499874
H119	H	0.020803	-0.810801	-0.365814
H120	H	0.520803	-0.310801	0.134186
H121	H	-0.344353	-0.961306	-0.120853
H122	H	0.155647	-0.461306	0.379147
H123	H	-0.458615	-1.026238	-0.000189
H124	H	0.041385	-0.526238	0.499811
Cl125	Cl	-0.440432	-0.809986	-0.150775
Cl126	Cl	0.059568	-0.309986	0.349225
Cl127	Cl	-0.333272	-0.978095	0.150566
Cl128	Cl	0.166728	-0.478095	0.650566
H129	H	-0.429480	-0.826788	0.120524
H130	H	0.070520	-0.326788	0.620524
Cl131	Cl	-0.054527	-0.702192	-0.000097
Cl132	Cl	0.445473	-0.202192	0.499903
H133	H	-0.023476	-0.537486	-0.000112
H134	H	0.476524	-0.037486	0.499888
H135	H	0.205444	-0.977357	-0.634385
H136	H	0.705444	-0.477357	-0.134385
Cl137	Cl	0.287834	-0.483284	-0.000066
Cl138	Cl	0.787834	0.016716	0.499934
H139	H	-0.030538	-0.140173	-0.000124
H140	H	0.469462	0.359827	0.499876
H141	H	0.249732	-0.250659	-0.000085
H142	H	0.749732	0.249341	0.499915
H143	H	0.247189	-0.107434	-0.000096
H144	H	0.747189	0.392566	0.499904
Cl145	Cl	-0.001729	-0.790485	-0.804296
Cl146	Cl	0.498271	-0.290485	-0.304296
H147	H	0.020798	-0.810809	-0.634420
H148	H	0.520798	-0.310809	-0.134420
Cl149	Cl	0.227980	-0.997665	-0.195903
Cl150	Cl	0.727980	-0.497665	0.304097
H151	H	0.020801	-0.810786	-0.214412
H152	H	0.520801	-0.310786	0.285588
