data_functionalizedCrystal
_audit_creation_method	'MofGen! by Chris Wilmer'
_symmetry_space_group_name_H-M	'P1'
_symmetry_Int_Tables_number	1
_symmetry_cell_setting	triclinic
loop_
_symmetry_equiv_pos_as_xyz
  x,y,z
_cell_length_a	17.077404
_cell_length_b	19.077068
_cell_length_c	17.077396
_cell_angle_alpha	87.732878
_cell_angle_beta	90.019501
_cell_angle_gamma	92.327269
loop_
_atom_site_label
_atom_site_type_symbol
_atom_site_fract_x
_atom_site_fract_y
_atom_site_fract_z
Zn1	Zn	1.187475	-0.280197	0.456376
Zn2	Zn	1.520808	0.053136	0.789709
Zn3	Zn	1.854141	0.386470	1.123042
Zn4	Zn	1.182097	-0.397901	0.330375
Zn5	Zn	1.515430	-0.064568	0.663708
Zn6	Zn	1.848764	0.268766	0.997041
Zn7	Zn	1.056205	-0.280222	0.325125
Zn8	Zn	1.389539	0.053112	0.658458
Zn9	Zn	1.722872	0.386445	0.991792
Zn10	Zn	1.050892	-0.397859	0.461596
Zn11	Zn	1.384225	-0.064526	0.794930
Zn12	Zn	1.717558	0.268808	1.128263
O13	O	1.119167	-0.339045	0.393368
O14	O	1.452500	-0.005711	0.726701
O15	O	1.785834	0.327622	1.060035
O16	O	1.296608	-0.295818	0.439674
O17	O	1.629941	0.037515	0.773007
O18	O	1.963275	0.370849	1.106340
O19	O	1.165371	-0.382318	0.219833
O20	O	1.498704	-0.048985	0.553166
O21	O	1.832037	0.284348	0.886499
O22	O	1.078093	-0.181727	0.338154
O23	O	1.411426	0.151606	0.671487
O24	O	1.744759	0.484939	1.004820
O25	O	1.292657	-0.382294	0.347101
O26	O	1.625990	-0.048961	0.680435
O27	O	1.959324	0.284372	1.013768
O28	O	1.174536	-0.181709	0.434583
O29	O	1.507869	0.151624	0.767917
O30	O	1.841202	0.484957	1.101250
O31	O	1.072878	-0.295860	0.215976
O32	O	1.406212	0.037473	0.549309
O33	O	1.739545	0.370807	0.882642
O34	O	0.945654	-0.295819	0.343216
O35	O	1.278987	0.037514	0.676549
O36	O	1.612321	0.370847	1.009883
O37	O	1.069036	-0.382223	0.570750
O38	O	1.402370	-0.048890	0.904083
O39	O	1.735703	0.284444	1.237416
O40	O	0.941750	-0.382247	0.443481
O41	O	1.275083	-0.048914	0.776814
O42	O	1.608417	0.284420	1.110148
O43	O	1.169383	-0.295777	0.566914
O44	O	1.502717	0.037556	0.900247
O45	O	1.836050	0.370889	1.233581
O46	O	1.160218	-0.496386	0.352163
O47	O	1.493552	-0.163053	0.685497
O48	O	1.826885	0.170280	1.018830
O49	O	1.063822	-0.496356	0.448571
O50	O	1.397155	-0.163022	0.781905
O51	O	1.730489	0.170311	1.115238
C52	C	0.915220	-0.339032	0.393346
C53	C	1.248553	-0.005699	0.726679
C54	C	1.581887	0.327635	1.060012
C55	C	0.827970	-0.339043	0.393356
C56	C	1.161303	-0.005710	0.726689
C57	C	1.494636	0.327623	1.060022
C58	C	1.110881	-0.521909	0.401521
C59	C	1.444215	-0.188575	0.734854
C60	C	1.777548	0.144758	1.068187
C61	C	1.107408	-0.600139	0.405035
C62	C	1.440742	-0.266805	0.738368
C63	C	1.774075	0.066528	1.071701
C64	C	0.784964	-0.384114	0.445486
C65	C	1.118297	-0.050781	0.778819
C66	C	1.451631	0.282552	1.112153
C67	C	0.702984	-0.384116	0.445499
C68	C	1.036317	-0.050782	0.778832
C69	C	1.369650	0.282551	1.112165
C70	C	0.664010	-0.339050	0.393376
C71	C	0.997343	-0.005716	0.726710
C72	C	1.330677	0.327617	1.060043
C73	C	0.707021	-0.293974	0.341243
C74	C	1.040355	0.039360	0.674577
C75	C	1.373688	0.372693	1.007910
C76	C	0.789000	-0.293969	0.341235
C77	C	1.122334	0.039364	0.674569
C78	C	1.455667	0.372697	1.007902
C79	C	0.536151	-0.293988	0.341263
C80	C	0.869484	0.039346	0.674596
C81	C	1.202817	0.372679	1.007930
C82	C	0.454166	-0.293993	0.341270
C83	C	0.787499	0.039340	0.674603
C84	C	1.120832	0.372674	1.007937
C85	C	0.450134	-0.384134	0.445526
C86	C	0.783467	-0.050801	0.778860
C87	C	1.116800	0.282533	1.112193
C88	C	0.532113	-0.384130	0.445518
C89	C	0.865446	-0.050796	0.778852
C90	C	1.198780	0.282537	1.112185
C91	C	0.575119	-0.339055	0.393384
C92	C	0.908452	-0.005721	0.726717
C93	C	1.241785	0.327612	1.060051
C94	C	1.156004	-0.636884	0.356533
C95	C	1.489337	-0.303551	0.689866
C96	C	1.822671	0.029783	1.023199
C97	C	1.152742	-0.710389	0.359843
C98	C	1.486076	-0.377056	0.693176
C99	C	1.819409	-0.043723	1.026509
C100	C	1.100880	-0.747148	0.411651
C101	C	1.434214	-0.413815	0.744984
C102	C	1.767547	-0.080481	1.078317
C103	C	1.052283	-0.710398	0.460158
C104	C	1.385616	-0.377064	0.793491
C105	C	1.718949	-0.043731	1.126825
C106	C	1.055549	-0.636894	0.456852
C107	C	1.388882	-0.303560	0.790185
C108	C	1.722216	0.029773	1.123518
C109	C	1.085729	-0.966982	0.426921
C110	C	1.419063	-0.633649	0.760254
C111	C	1.752396	-0.300316	1.093588
C112	C	1.082465	-1.040491	0.430222
C113	C	1.415798	-0.707158	0.763555
C114	C	1.749132	-0.373825	1.096889
C115	C	1.182926	-1.040478	0.329907
C116	C	1.516259	-0.707145	0.663240
C117	C	1.849593	-0.373811	0.996574
C118	C	1.186184	-0.966973	0.326602
C119	C	1.519518	-0.633639	0.659935
C120	C	1.852851	-0.300306	0.993269
C121	C	1.137590	-0.930229	0.375112
C122	C	1.470923	-0.596895	0.708445
C123	C	1.804256	-0.263562	1.041779
N124	N	1.097543	-0.822282	0.415033
N125	N	1.430877	-0.488949	0.748367
N126	N	1.764210	-0.155616	1.081700
N127	N	1.140931	-0.855096	0.371733
N128	N	1.474265	-0.521762	0.705066
N129	N	1.807598	-0.188429	1.038400
C130	C	1.323911	-0.339058	0.393391
C131	C	1.657244	-0.005725	0.726724
C132	C	1.990577	0.327609	1.060057
C133	C	1.411160	-0.339064	0.393400
C134	C	1.744494	-0.005730	0.726734
C135	C	2.077827	0.327603	1.060067
C136	C	1.119217	-0.338993	0.598110
C137	C	1.452550	-0.005660	0.931443
C138	C	1.785884	0.327674	1.264777
C139	C	1.119238	-0.338971	0.685359
C140	C	1.452572	-0.005637	1.018692
C141	C	1.785905	0.327696	1.352026
C142	C	1.127507	-0.155467	0.385201
C143	C	1.460840	0.177867	0.718534
C144	C	1.794173	0.511200	1.051867
C145	C	1.131061	-0.077237	0.381720
C146	C	1.464394	0.256097	0.715053
C147	C	1.797727	0.589430	1.048387
C148	C	1.119165	-0.339046	0.189420
C149	C	1.452498	-0.005712	0.522753
C150	C	1.785832	0.327621	0.856087
C151	C	1.119305	-0.338869	0.102163
C152	C	1.452638	-0.005536	0.435496
C153	C	1.785971	0.327797	0.768830
C154	C	1.171491	-0.293955	0.724353
C155	C	1.504824	0.039379	1.057686
C156	C	1.838157	0.372712	1.391020
C157	C	1.171501	-0.293931	0.806332
C158	C	1.504835	0.039402	1.139666
C159	C	1.838168	0.372735	1.472999
C160	C	1.119262	-0.338928	0.849316
C161	C	1.452596	-0.005595	1.182650
C162	C	1.785929	0.327739	1.515983
C163	C	1.067004	-0.383946	0.810317
C164	C	1.400338	-0.050613	1.143650
C165	C	1.733671	0.282721	1.476983
C166	C	1.066990	-0.383965	0.728339
C167	C	1.400324	-0.050632	1.061672
C168	C	1.733657	0.282701	1.395005
C169	C	1.067038	-0.383904	0.981185
C170	C	1.400371	-0.050570	1.314518
C171	C	1.733704	0.282763	1.647852
C172	C	1.067052	-0.383885	1.063169
C173	C	1.400385	-0.050552	1.396502
C174	C	1.733719	0.282781	1.729835
C175	C	1.171549	-0.293870	1.059179
C176	C	1.504882	0.039464	1.392512
C177	C	1.838215	0.372797	1.725845
C178	C	1.171535	-0.293889	0.977201
C179	C	1.504868	0.039444	1.310534
C180	C	1.838201	0.372778	1.643867
C181	C	1.119277	-0.338908	0.938207
C182	C	1.452611	-0.005575	1.271540
C183	C	1.785944	0.327759	1.604873
H184	H	0.816690	-0.420815	0.487928
H185	H	1.150024	-0.087481	0.821261
H186	H	1.483357	0.245852	1.154594
H187	H	1.024472	-0.420552	0.949438
H188	H	1.357806	-0.087219	1.282772
H189	H	1.691139	0.246115	1.616105
O190	O	1.026520	-1.080146	0.486095
O191	O	1.359853	-0.746812	0.819428
O192	O	1.693186	-0.413479	1.152761
H193	H	1.060141	-1.113595	0.527558
H194	H	1.393475	-0.780261	0.860891
H195	H	1.726808	-0.446928	1.194225
H196	H	1.214077	-0.257253	0.942205
H197	H	1.547410	0.076081	1.275539
H198	H	1.880743	0.409414	1.608872
H199	H	1.024468	-0.420581	0.845321
H200	H	1.357801	-0.087247	1.178654
H201	H	1.691134	0.246086	1.511987
O202	O	1.010629	-0.432519	0.686281
O203	O	1.343962	-0.099185	1.019614
O204	O	1.677295	0.234148	1.352947
H205	H	1.019388	-0.424967	0.622055
H206	H	1.352721	-0.091634	0.955388
H207	H	1.686055	0.241699	1.288722
H208	H	1.010059	-0.740332	0.502345
H209	H	1.343392	-0.406999	0.835678
H210	H	1.676726	-0.073666	1.169012
H211	H	0.422436	-0.257288	0.298836
H212	H	0.755769	0.076046	0.632170
H213	H	1.089103	0.409379	0.965503
O214	O	0.656590	-0.432862	0.501580
O215	O	0.989923	-0.099528	0.834913
O216	O	1.323257	0.233805	1.168246
H217	H	0.697461	-0.464253	0.537762
H218	H	1.030794	-0.130920	0.871096
H219	H	1.364128	0.202414	1.204429
H220	H	1.214052	-0.257276	0.838078
H221	H	1.547386	0.076057	1.171411
H222	H	1.880719	0.409390	1.504744
O223	O	1.227908	-0.245304	1.101229
O224	O	1.561241	0.088029	1.434562
O225	O	1.894574	0.421362	1.767895
H226	H	1.219135	-0.252841	1.165454
H227	H	1.552469	0.080493	1.498787
H228	H	1.885802	0.413826	1.832121
O229	O	1.211948	-0.597235	0.300662
O230	O	1.545281	-0.263902	0.633996
O231	O	1.878615	0.069432	0.967329
H232	H	1.197904	-0.611392	0.239676
H233	H	1.531238	-0.278058	0.573009
H234	H	1.864571	0.055275	0.906342
O235	O	1.010701	-0.432404	1.109537
O236	O	1.344034	-0.099071	1.442870
O237	O	1.677367	0.234262	1.776204
H238	H	1.021632	-0.487652	1.096265
H239	H	1.354965	-0.154319	1.429598
H240	H	1.688298	0.179014	1.762931
O241	O	0.574154	-0.432732	0.501736
O242	O	0.907488	-0.099399	0.835070
O243	O	1.240821	0.233934	1.168403
H244	H	0.530479	-0.464071	0.537996
H245	H	0.863813	-0.130738	0.871330
H246	H	1.197146	0.202596	1.204663
H247	H	0.571164	-0.257277	0.298816
H248	H	0.904497	0.076057	0.632150
H249	H	1.237830	0.409390	0.965483
H250	H	0.415115	-0.420834	0.487978
H251	H	0.748448	-0.087500	0.821312
H252	H	1.081781	0.245833	1.154645
H253	H	0.675282	-0.257277	0.298808
H254	H	1.008616	0.076056	0.632141
H255	H	1.341949	0.409390	0.965474
O256	O	1.227841	-0.245427	0.677995
O257	O	1.561175	0.087907	1.011328
O258	O	1.894508	0.421240	1.344661
H259	H	1.194332	-0.209628	0.639040
H260	H	1.527665	0.123706	0.972373
H261	H	1.860998	0.457039	1.305706
H262	H	1.192313	-0.740304	0.320346
H263	H	1.525647	-0.406971	0.653680
H264	H	1.858980	-0.073637	0.987013
O265	O	1.242128	-0.927325	0.270731
O266	O	1.575461	-0.593991	0.604064
O267	O	1.908795	-0.260658	0.937397
H268	H	1.275379	-0.965226	0.237565
H269	H	1.608712	-0.631892	0.570898
H270	H	1.942046	-0.298559	0.904232
H271	H	1.015978	-0.606976	0.496348
H272	H	1.349312	-0.273643	0.829681
H273	H	1.682645	0.059690	1.163015
O274	O	0.835391	-0.245366	0.285001
O275	O	1.168724	0.087967	0.618334
O276	O	1.502058	0.421301	0.951667
H277	H	0.794519	-0.214036	0.248750
H278	H	1.127852	0.119298	0.582083
H279	H	1.461185	0.452631	0.915417
O280	O	1.235360	-1.080107	0.277610
O281	O	1.568694	-0.746773	0.610943
O282	O	1.902027	-0.413440	0.944276
H283	H	1.224390	-1.137394	0.288620
H284	H	1.557723	-0.804061	0.621954
H285	H	1.891056	-0.470728	0.955287
O286	O	1.033295	-0.927355	0.479216
O287	O	1.366628	-0.594021	0.812549
O288	O	1.699962	-0.260688	1.145882
H289	H	0.996672	-0.965266	0.515781
H290	H	1.330005	-0.631933	0.849114
H291	H	1.663339	-0.298600	1.182448
