data_functionalizedCrystal
_audit_creation_method	'MofGen! by Chris Wilmer'
_symmetry_space_group_name_H-M	'P1'
_symmetry_Int_Tables_number	1
_symmetry_cell_setting	triclinic
loop_
_symmetry_equiv_pos_as_xyz
  x,y,z
_cell_length_a	10.540539
_cell_length_b	10.540539
_cell_length_c	9.016244
_cell_angle_alpha	89.999933
_cell_angle_beta	89.994699
_cell_angle_gamma	84.525492
loop_
_atom_site_label
_atom_site_type_symbol
_atom_site_fract_x
_atom_site_fract_y
_atom_site_fract_z
O1	O	1.685893	0.178895	-0.123263
O2	O	1.316480	0.195751	-0.123280
O3	O	1.509614	0.002617	-0.123269
O4	O	1.492759	0.372030	-0.123274
O5	O	1.509586	0.002621	0.123411
O6	O	1.316452	0.195755	0.123400
O7	O	1.685865	0.178900	0.123418
Cu8	Cu	1.501156	0.187328	0.145933
Cu9	Cu	1.501189	0.187323	-0.145795
O10	O	1.492730	0.372034	0.123407
C11	C	1.269163	0.194489	0.000058
C12	C	1.128215	0.190707	0.000051
C13	C	0.944788	0.045790	0.000628
C14	C	1.091406	0.049624	0.000057
C15	C	1.066558	0.258600	-0.140811
C16	C	0.920014	0.253785	-0.140914
C17	C	0.919493	0.256660	0.139608
C18	C	1.066475	0.257960	0.141455
C19	C	1.508336	-0.044684	0.000068
C20	C	1.504554	-0.185632	0.000060
C21	C	1.359637	-0.369059	-0.000500
C22	C	1.363471	-0.222441	0.000055
C23	C	1.572434	-0.247287	0.140930
C24	C	1.567619	-0.393832	0.141049
C25	C	1.570520	-0.394355	-0.139473
C26	C	1.571820	-0.247373	-0.141336
C27	C	1.733182	0.180161	0.000077
C28	C	1.874130	0.183943	0.000074
C29	C	1.494008	0.419335	0.000066
C30	C	1.497790	0.560283	0.000064
N31	N	1.501141	0.187331	0.351119
N32	N	1.501213	0.187310	-0.350982
C33	C	1.397510	0.290298	0.586146
C34	C	1.397739	0.290684	0.414255
C35	C	1.633864	0.217464	0.413464
C36	C	1.633298	0.218193	0.585409
C37	C	1.473367	0.053892	0.585663
C38	C	1.470322	0.054757	0.413709
H39	H	0.891816	0.203602	-0.246209
C40	C	1.667502	0.347474	0.355286
H41	H	1.600844	0.383557	0.293021
H42	H	1.744650	0.336215	0.300332
H43	H	1.677735	0.402872	0.436627
C44	C	1.124095	0.194893	-0.282438
H45	H	1.086177	0.236657	-0.367090
H46	H	1.108193	0.107696	-0.283704
H47	H	1.213421	0.201042	-0.283901
H48	H	1.303918	-0.397661	-0.101521
C49	C	1.121763	0.190949	0.282240
H50	H	1.084037	0.232063	0.367402
H51	H	1.211358	0.195161	0.284840
H52	H	1.103984	0.104275	0.281343
H53	H	1.415639	0.389668	0.373108
H54	H	0.916191	-0.009944	0.101649
C55	C	0.876876	0.194985	0.283854
H56	H	0.905212	0.240302	0.366700
H57	H	0.912575	0.108843	0.288181
H58	H	0.786538	0.197777	0.285675
H59	H	1.304121	-0.399265	0.099949
C60	C	1.504826	-0.192072	-0.282125
H61	H	1.436153	-0.131603	-0.254865
H62	H	1.473050	-0.258915	-0.337438
H63	H	1.563949	-0.151552	-0.340917
C64	C	1.565604	-0.053752	0.355679
H65	H	1.625701	-0.019469	0.292245
H66	H	1.521019	-0.113086	0.301999
H67	H	1.608906	-0.095629	0.437010
C68	C	1.740672	0.118911	0.358214
H69	H	1.820081	0.138924	0.397228
H70	H	1.743712	0.120735	0.252945
H71	H	1.724121	0.036269	0.390413
C72	C	1.290785	-0.166015	0.136689
H73	H	1.292870	-0.076108	0.137487
H74	H	1.329813	-0.201256	0.224319
H75	H	1.204811	-0.185852	0.132540
C76	C	1.264498	0.266281	0.357300
H77	H	1.264456	0.266503	0.251931
H78	H	1.203453	0.331401	0.392634
H79	H	1.243386	0.185887	0.392187
H80	H	1.372684	0.031916	0.372962
H81	H	1.676041	-0.224933	0.146173
H82	H	1.657653	0.315531	0.625498
H83	H	1.088912	0.362208	-0.146054
H84	H	1.090700	0.360819	0.149959
H85	H	0.872266	0.358564	0.140559
C86	C	0.903995	-0.029198	-0.135067
H87	H	0.844094	0.023325	-0.192061
H88	H	0.866119	-0.102607	-0.102669
H89	H	0.976612	-0.054552	-0.194207
C90	C	1.147824	-0.023040	-0.136594
H91	H	1.081120	-0.055010	-0.191983
H92	H	1.206278	-0.091975	-0.105190
H93	H	1.190863	0.033050	-0.196939
H94	H	1.674681	-0.223152	-0.149837
H95	H	1.378630	0.025213	0.629106
C96	C	1.708177	-0.458161	-0.140763
H97	H	1.721314	-0.512190	-0.056726
H98	H	1.766101	-0.394476	-0.137671
H99	H	1.722026	-0.507211	-0.228678
H100	H	1.525258	-0.204686	0.245756
C101	C	1.499802	-0.431930	0.283282
H102	H	1.475443	-0.357876	0.340444
H103	H	1.555985	-0.488983	0.339609
H104	H	1.426115	-0.472413	0.257536
H105	H	1.134008	-0.003797	0.101034
H106	H	1.548979	-0.022762	0.626319
H107	H	1.712941	0.146204	0.626995
H108	H	1.310059	-0.179839	-0.100926
C109	C	0.855206	0.390846	-0.149592
H110	H	0.918474	0.449220	-0.153049
H111	H	0.803024	0.407899	-0.064655
H112	H	0.804156	0.399979	-0.236464
H113	H	1.669083	-0.441800	0.147444
C114	C	1.508860	-0.436975	-0.283716
H115	H	1.554185	-0.408640	-0.366564
H116	H	1.422718	-0.401277	-0.288050
H117	H	1.511653	-0.527313	-0.285526
H118	H	1.298584	0.272446	0.627535
H119	H	1.415177	0.388722	0.629339
