data_functionalizedCrystal
_audit_creation_method	'MofGen! by Chris Wilmer'
_symmetry_space_group_name_H-M	'P1'
_symmetry_Int_Tables_number	1
_symmetry_cell_setting	triclinic
loop_
_symmetry_equiv_pos_as_xyz
  x,y,z
_cell_length_a	10.540535
_cell_length_b	10.540539
_cell_length_c	9.616153
_cell_angle_alpha	90.000094
_cell_angle_beta	90.004501
_cell_angle_gamma	84.524567
loop_
_atom_site_label
_atom_site_type_symbol
_atom_site_fract_x
_atom_site_fract_y
_atom_site_fract_z
O1	O	1.685895	0.178868	0.115562
O2	O	1.316482	0.195730	0.115581
O3	O	1.509617	0.002592	0.115570
O4	O	1.492761	0.372006	0.115574
O5	O	1.509590	0.002596	-0.115722
O6	O	1.316455	0.195734	-0.115710
O7	O	1.685869	0.178872	-0.115729
Zn8	Zn	1.501158	0.187304	-0.152442
Zn9	Zn	1.501193	0.187298	0.152294
O10	O	1.492734	0.372010	-0.115717
C11	C	1.269165	0.194469	-0.000062
C12	C	1.128217	0.190689	-0.000055
C13	C	1.091546	0.049675	-0.000062
C14	C	0.944946	0.045698	-0.000601
C15	C	0.918866	0.255062	-0.131892
C16	C	1.065631	0.258062	-0.131989
C17	C	1.065545	0.260109	0.131042
C18	C	0.919199	0.253588	0.132760
C19	C	1.508339	-0.044709	-0.000073
C20	C	1.504557	-0.185657	-0.000066
C21	C	1.359640	-0.369081	0.000461
C22	C	1.363474	-0.222463	-0.000060
C23	C	1.572438	-0.247313	-0.132148
C24	C	1.567623	-0.393858	-0.132259
C25	C	1.570523	-0.394380	0.130762
C26	C	1.571822	-0.247399	0.132509
C27	C	1.733185	0.180133	-0.000083
C28	C	1.874134	0.183913	-0.000081
C29	C	1.494011	0.419311	-0.000071
C30	C	1.497793	0.560259	-0.000070
N31	N	1.501143	0.187307	-0.360417
C32	C	1.397513	0.290276	-0.580780
C33	C	1.397741	0.290661	-0.419613
C34	C	1.633867	0.217438	-0.418872
C35	C	1.633302	0.218167	-0.580090
C36	C	1.473371	0.053868	-0.580328
C37	C	1.470324	0.054733	-0.419101
N38	N	1.501218	0.187285	0.360269
H39	H	0.870152	0.354461	0.141131
H40	H	1.133526	-0.004477	0.094449
H41	H	1.415180	0.388699	-0.621279
O42	O	0.906086	-0.028039	0.124506
H43	H	0.992076	-0.061173	0.185937
O44	O	1.506132	-0.193181	0.261952
H45	H	1.511117	-0.088502	0.264717
O46	O	1.708080	-0.215334	0.143078
H47	H	1.730088	-0.154628	0.053599
H48	H	1.303919	-0.397682	0.095179
H49	H	1.298588	0.272424	-0.619587
H50	H	0.887952	0.206251	-0.230366
H51	H	1.540851	-0.025589	-0.378810
H52	H	1.134993	-0.003567	-0.094449
O53	O	1.340992	0.024465	-0.368504
H54	H	1.277879	0.012987	-0.459133
O55	O	1.510106	-0.436246	0.263369
H56	H	1.563125	-0.403135	0.354069
O57	O	1.292208	-0.167130	-0.125680
H58	H	1.357796	-0.116847	-0.191705
H59	H	1.108016	0.216105	0.230985
H60	H	1.304124	-0.399286	-0.093722
H61	H	1.310061	-0.179861	0.094622
H62	H	1.105791	0.210016	-0.230899
O63	O	1.573473	-0.047717	-0.630835
H64	H	1.668799	-0.025001	-0.594934
H65	H	1.299124	0.272532	-0.380093
H66	H	1.672427	-0.441608	0.131645
O67	O	0.907221	-0.027622	-0.126510
H68	H	0.993736	-0.060362	-0.187259
O69	O	1.347863	0.015896	-0.634247
H70	H	1.330431	-0.078469	-0.590872
O71	O	1.421458	0.421770	-0.368489
H72	H	1.432821	0.485142	-0.458917
O73	O	0.856137	0.389862	-0.137900
H74	H	0.889347	0.438017	-0.231945
H75	H	1.712922	0.144473	-0.380525
O76	O	1.709676	-0.217701	-0.138672
H77	H	1.755446	-0.262342	-0.232901
H78	H	1.657657	0.315504	-0.617679
O79	O	0.881317	0.185028	0.261945
H80	H	0.831311	0.101211	0.231667
O81	O	1.666853	0.344922	-0.365400
H82	H	1.588934	0.387018	-0.297207
H83	H	1.712945	0.146176	-0.619083
H84	H	1.088661	0.361437	-0.137620
H85	H	1.087730	0.363861	0.132318
H86	H	1.525262	-0.204711	-0.230434
O87	O	1.501129	-0.431223	-0.263023
H88	H	1.472704	-0.344660	-0.325582
O89	O	1.702014	-0.457415	-0.140237
H90	H	1.770153	-0.383443	-0.144010
