data_functionalizedCrystal
_audit_creation_method	'MofGen! by Chris Wilmer'
_symmetry_space_group_name_H-M	'P1'
_symmetry_Int_Tables_number	1
_symmetry_cell_setting	triclinic
loop_
_symmetry_equiv_pos_as_xyz
  x,y,z
_cell_length_a	17.077404
_cell_length_b	16.959454
_cell_length_c	16.959447
_cell_angle_alpha	89.976829
_cell_angle_beta	89.981478
_cell_angle_gamma	90.020300
loop_
_atom_site_label
_atom_site_type_symbol
_atom_site_fract_x
_atom_site_fract_y
_atom_site_fract_z
Zn1	Zn	1.200062	-0.314689	-0.446950
Zn2	Zn	1.199978	-0.446873	-0.314780
Zn3	Zn	1.068796	-0.314713	-0.314785
Zn4	Zn	1.068769	-0.446830	-0.446916
O5	O	1.134401	-0.380776	-0.380858
O6	O	1.309898	-0.332232	-0.429429
O7	O	1.182553	-0.429370	-0.204170
O8	O	1.086256	-0.204099	-0.332334
O9	O	1.309836	-0.429347	-0.332324
O10	O	1.182697	-0.204081	-0.429435
O11	O	1.086174	-0.332273	-0.204174
O12	O	0.958946	-0.332231	-0.332301
O13	O	1.086209	-0.429273	-0.557531
O14	O	0.958925	-0.429296	-0.429377
O15	O	1.182670	-0.332190	-0.557557
O16	O	1.182526	-0.557478	-0.332291
O17	O	1.086127	-0.557447	-0.429371
C18	C	0.930454	-0.380762	-0.380836
C19	C	0.843204	-0.380775	-0.380845
C20	C	0.802223	-0.431393	-0.431312
C21	C	0.720243	-0.431395	-0.431324
C22	C	0.679244	-0.380782	-0.380866
C23	C	0.720230	-0.330158	-0.330398
C24	C	0.802209	-0.330153	-0.330389
C25	C	0.549360	-0.330173	-0.330417
C26	C	0.467376	-0.330179	-0.330423
C27	C	0.467394	-0.431416	-0.431351
C28	C	0.549373	-0.431410	-0.431343
C29	C	0.590353	-0.380787	-0.380874
C30	C	1.134336	-0.586143	-0.380844
C31	C	1.134379	-0.673999	-0.380865
C32	C	1.084279	-1.045488	-0.431402
C33	C	1.184742	-1.045461	-0.330394
C34	C	1.184715	-0.962915	-0.330387
C35	C	1.134468	-0.921652	-0.380887
C36	C	1.084249	-0.962935	-0.431394
C37	C	1.234928	-0.921627	-0.279875
C38	C	1.234902	-0.839076	-0.279865
C39	C	1.184658	-0.797811	-0.330370
C40	C	1.134437	-0.839099	-0.380880
C41	C	1.084191	-0.797835	-0.431380
C42	C	1.033973	-0.839121	-0.481895
C43	C	1.034005	-0.921670	-0.481899
C44	C	1.184626	-0.715263	-0.330365
C45	C	1.084160	-0.715282	-0.431372
C46	C	1.339146	-0.380791	-0.380880
C47	C	1.426395	-0.380798	-0.380890
C48	C	1.134445	-0.380724	-0.587026
C49	C	1.134464	-0.380701	-0.674883
C50	C	1.134489	-0.174608	-0.380889
C51	C	1.134526	-0.086751	-0.380902
C52	C	1.084251	-0.431238	-0.716145
C53	C	1.184690	-0.330138	-0.716174
C54	C	1.184707	-0.330112	-0.798720
C55	C	1.134494	-0.380649	-0.839982
C56	C	1.084264	-0.431212	-0.798699
C57	C	1.234929	-0.279544	-0.840009
C58	C	1.234947	-0.279516	-0.922560
C59	C	1.184737	-0.330058	-0.963824
C60	C	1.134507	-0.380623	-0.922536
C61	C	1.084294	-0.431160	-0.963798
C62	C	1.034066	-0.481731	-0.922511
C63	C	1.034055	-0.481754	-0.839963
C64	C	1.184749	-0.330034	-1.046373
C65	C	1.084307	-0.431134	-1.046352
C66	C	1.134403	-0.380772	-0.175492
C67	C	1.134536	-0.380571	-0.087635
H68	H	0.686843	-0.288944	-0.289317
H69	H	1.275792	-0.805466	-0.238734
H70	H	1.225637	-0.288855	-1.079985
C71	C	1.023065	-1.014470	-0.588210
C72	C	0.978805	-0.967056	-0.537413
H73	H	0.988985	-1.042495	-0.622476
H74	H	1.057226	-0.982230	-0.618479
H75	H	1.052994	-1.050851	-0.558124
H76	H	0.948881	-0.930671	-0.567500
H77	H	0.944631	-0.999299	-0.507142
C78	C	0.793999	-0.531452	-0.531083
C79	C	0.847285	-0.487027	-0.486781
H80	H	0.821818	-0.565794	-0.565332
H81	H	0.762004	-0.561645	-0.496597
H82	H	0.762044	-0.497044	-0.561375
H83	H	0.879236	-0.521435	-0.456484
H84	H	0.879294	-0.456832	-0.521271
C85	C	1.283922	-0.723532	-0.230515
C86	C	1.239817	-0.669881	-0.274843
H87	H	1.317999	-0.695514	-0.196240
H88	H	1.249747	-0.755766	-0.200256
H89	H	1.313942	-0.755692	-0.264989
H90	H	1.209792	-0.637724	-0.240369
H91	H	1.273996	-0.637633	-0.305104
C92	C	0.985023	-0.531073	-1.038031
C93	C	1.029108	-0.486686	-1.091705
H94	H	0.950943	-0.565364	-1.066032
H95	H	1.019210	-0.561318	-1.005842
H96	H	0.955007	-0.496638	-1.005828
H97	H	1.059129	-0.521122	-1.123905
H98	H	0.994917	-0.456440	-1.123907
H99	H	0.686881	-0.472614	-0.472418
H100	H	0.434024	-0.472632	-0.472448
H101	H	0.582752	-0.472629	-0.472427
H102	H	1.043396	-1.079107	-0.472532
H103	H	0.835574	-0.288930	-0.289299
H104	H	1.275846	-0.238340	-0.956169
H105	H	0.433997	-0.288956	-0.289345
C106	C	0.541112	-0.230119	-0.230635
C107	C	0.594408	-0.274537	-0.274931
H108	H	0.568924	-0.195781	-0.196375
H109	H	0.509167	-0.199924	-0.265125
H110	H	0.509108	-0.264533	-0.200355
H111	H	0.626407	-0.240123	-0.305216
H112	H	0.626366	-0.304734	-0.240437
C113	C	1.340482	-1.014476	-0.268901
C114	C	1.290078	-0.967025	-0.224323
H115	H	1.374511	-1.042514	-0.234591
H116	H	1.310579	-1.050838	-0.299018
H117	H	1.370551	-0.982252	-0.303319
H118	H	1.260005	-0.999250	-0.189910
H119	H	1.319985	-0.930659	-0.194193
H120	H	0.993178	-0.522874	-0.956118
C121	C	0.989429	-0.526672	-0.713410
C122	C	0.978841	-0.537329	-0.794579
H123	H	0.955337	-0.560977	-0.685392
H124	H	1.042157	-0.538249	-0.699892
H125	H	0.977960	-0.473563	-0.699899
H126	H	0.990316	-0.590437	-0.808091
H127	H	0.926101	-0.525758	-0.808103
C128	C	0.984860	-0.723600	-0.531221
C129	C	1.028927	-0.669928	-0.486886
H130	H	0.950760	-0.695599	-0.565489
H131	H	1.019058	-0.755754	-0.561488
H132	H	0.954867	-0.755840	-0.496751
H133	H	1.058924	-0.637692	-0.521356
H134	H	0.994724	-0.637761	-0.456617
H135	H	0.993058	-0.805515	-0.523009
H136	H	1.043359	-0.472414	-0.682526
C137	C	1.229274	-0.285302	-0.589646
C138	C	1.239890	-0.274598	-0.670820
H139	H	1.263362	-0.251018	-0.561646
H140	H	1.176544	-0.273726	-0.576113
H141	H	1.240732	-0.338420	-0.576126
H142	H	1.228427	-0.221481	-0.684341
H143	H	1.292633	-0.286169	-0.684358
H144	H	1.275807	-0.238397	-0.806407
H145	H	1.225646	-1.079063	-0.289275
