data_functionalizedCrystal
_audit_creation_method	'MofGen! by Chris Wilmer'
_symmetry_space_group_name_H-M	'P1'
_symmetry_Int_Tables_number	1
_symmetry_cell_setting	triclinic
loop_
_symmetry_equiv_pos_as_xyz
  x,y,z
_cell_length_a	10.654583
_cell_length_b	10.654548
_cell_length_c	9.130313
_cell_angle_alpha	90.004205
_cell_angle_beta	90.005937
_cell_angle_gamma	84.491279
loop_
_atom_site_label
_atom_site_type_symbol
_atom_site_fract_x
_atom_site_fract_y
_atom_site_fract_z
O1	O	-1.667808	-0.176592	-0.122004
O2	O	-1.302335	-0.193355	-0.121965
O3	O	-1.493476	-0.002235	-0.121965
O4	O	-1.476667	-0.367712	-0.122004
O5	O	-1.493474	-0.002240	0.121634
O6	O	-1.302333	-0.193360	0.121634
O7	O	-1.667806	-0.176598	0.121595
Cu8	Cu	-1.485069	-0.184979	0.143857
Cu9	Cu	-1.485072	-0.184973	-0.144227
O10	O	-1.476665	-0.367717	0.121595
C11	C	-1.255537	-0.192118	-0.000161
C12	C	-1.116095	-0.188409	-0.000145
C13	C	-1.050564	-0.186682	0.132633
C14	C	-0.919543	-0.183208	0.132617
C15	C	-0.919596	-0.183193	-0.132968
C16	C	-1.050615	-0.186658	-0.132950
C17	C	-1.050532	-0.186696	0.285967
C18	C	-0.919511	-0.183222	0.285950
C19	C	-1.492241	0.044560	-0.000163
C20	C	-1.488551	0.184004	-0.000156
C21	C	-1.483338	0.380555	0.132615
C22	C	-1.486810	0.249533	0.132626
C23	C	-1.486807	0.249502	-0.132958
C24	C	-1.483326	0.380520	-0.132968
C25	C	-1.483346	0.380573	0.285949
C26	C	-1.486817	0.249551	0.285960
C27	C	-0.714607	-0.177816	-0.000198
C28	C	-0.854055	-0.181469	-0.000180
C29	C	-1.477902	0.585487	-0.000198
C30	C	-1.481599	0.446044	-0.000177
N31	N	-1.485076	-0.184983	0.346479
N32	N	-1.485075	-0.184960	-0.346850
C33	C	-1.569735	-0.100384	0.423132
C34	C	-1.569732	-0.100369	0.576468
C35	C	-1.400406	-0.269563	0.576487
C36	C	-1.400405	-0.269571	0.423153
C37	C	-1.667498	-0.002705	0.423122
C38	C	-1.667495	-0.002690	0.576459
H39	H	-1.080105	-0.278295	0.333531
H40	H	-1.481897	0.433835	-0.241100
O41	O	-1.782670	-0.028152	0.626182
C42	C	-1.835502	0.073586	0.711950
H43	H	-1.791028	0.162863	0.680276
H44	H	-1.816646	0.052141	0.832724
C45	C	-2.033389	-0.016559	0.724184
C46	C	-1.978772	0.093095	0.685272
H47	H	-2.121766	-0.004527	0.707734
H48	H	-1.997795	-0.085104	0.666404
H49	H	-2.017663	-0.034419	0.824826
H50	H	-1.994486	0.110944	0.584627
H51	H	-2.014373	0.161644	0.743034
H52	H	-1.103968	-0.188045	-0.241071
H53	H	-1.758680	-0.033304	0.375550
O54	O	-0.864032	-0.286664	0.356131
C55	C	-0.781851	-0.356990	0.259048
H56	H	-0.752393	-0.292863	0.167876
H57	H	-0.832047	-0.436761	0.209563
C58	C	-0.700247	-0.491439	0.454980
C59	C	-0.664057	-0.412674	0.343009
H60	H	-0.627588	-0.525793	0.506771
H61	H	-0.755617	-0.444062	0.520387
H62	H	-0.742078	-0.557904	0.413726
H63	H	-0.622241	-0.346203	0.384265
H64	H	-0.608677	-0.460041	0.277611
O65	O	-1.642121	0.112493	0.373391
C66	C	-1.743877	0.165249	0.287591
H67	H	-1.833120	0.120710	0.319251
H68	H	-1.722401	0.146395	0.166826
C69	C	-1.653878	0.363213	0.275351
C70	C	-1.763490	0.308517	0.314245
H71	H	-1.665974	0.451589	0.291786
H72	H	-1.585320	0.327670	0.333151
H73	H	-1.635992	0.347489	0.174715
H74	H	-1.781365	0.324229	0.414883
H75	H	-1.832051	0.344067	0.256462
O76	O	-1.318215	-0.351902	0.650808
C77	C	-1.339718	-0.476428	0.613370
H78	H	-1.388130	-0.476741	0.502038
H79	H	-1.402557	-0.515854	0.699667
C80	C	-1.153462	-0.558387	0.743033
C81	C	-1.212913	-0.558773	0.606287
H82	H	-1.075245	-0.609184	0.738670
H83	H	-1.138977	-0.474492	0.768261
H84	H	-1.205841	-0.591239	0.814933
H85	H	-1.160541	-0.525907	0.534393
H86	H	-1.227386	-0.642665	0.581046
H87	H	-0.866266	-0.181767	-0.241093
H88	H	-1.488211	0.196136	-0.241072
H89	H	-1.096791	-0.099907	0.344857
H90	H	-1.394672	0.405410	0.344834
H91	H	-0.889923	-0.091626	0.333541
O92	O	-1.379993	0.188004	0.342603
C93	C	-1.275256	0.216168	0.258612
H94	H	-1.298841	0.309358	0.198779
H95	H	-1.251262	0.137809	0.175319
C96	C	-1.132433	0.112442	0.433692
C97	C	-1.161397	0.226905	0.360214
H98	H	-1.062197	0.119059	0.496362
H99	H	-1.202996	0.093463	0.490276
H100	H	-1.112446	0.047155	0.364267
H101	H	-1.181399	0.292186	0.429637
H102	H	-1.090835	0.245895	0.303643
H103	H	-1.572785	0.432283	0.333513
H104	H	-1.575496	0.224724	0.344824
H105	H	-1.331458	-0.338446	0.360744
H106	H	-1.636983	0.088536	0.624019
