data_functionalizedCrystal
_audit_creation_method	'MofGen! by Chris Wilmer'
_symmetry_space_group_name_H-M	'P1'
_symmetry_Int_Tables_number	1
_symmetry_cell_setting	triclinic
loop_
_symmetry_equiv_pos_as_xyz
  x,y,z
_cell_length_a	19.851628
_cell_length_b	18.426585
_cell_length_c	19.851628
_cell_angle_alpha	59.992605
_cell_angle_beta	89.998786
_cell_angle_gamma	60.000264
loop_
_atom_site_label
_atom_site_type_symbol
_atom_site_fract_x
_atom_site_fract_y
_atom_site_fract_z
Zr1	Zr	0.649010	0.794276	-0.088328
O2	O	0.541452	0.945702	-0.195908
O3	O	0.681978	0.642869	-0.055349
O4	O	0.681988	0.794285	-0.195890
O5	O	0.541439	0.794271	0.055496
O6	O	0.792849	0.794271	-0.195877
O7	O	0.541442	0.794285	-0.055366
O8	O	0.792833	0.523415	0.055527
O9	O	0.541456	1.065128	-0.195908
O10	O	0.778779	0.705127	-0.041273
O11	O	0.696042	0.705127	0.041451
O12	O	0.696053	0.883401	-0.124019
O13	O	0.613316	0.883401	-0.041294
Zr14	Zr	0.825817	0.794231	0.088506
Zr15	Zr	0.825822	0.794253	-0.088306
Zr16	Zr	0.649005	0.794253	0.088484
Zr17	Zr	0.649017	0.984746	-0.088328
Zr18	Zr	0.825810	0.603760	0.088506
O19	O	0.792849	0.945638	0.055526
O20	O	0.792855	0.945670	-0.195877
O21	O	0.541445	0.945670	0.055496
O22	O	0.933375	0.642805	0.196086
O23	O	0.933382	0.642837	-0.055318
O24	O	0.681972	0.642837	0.196055
O25	O	0.933388	0.794236	-0.055318
O26	O	0.792839	0.794222	0.196068
O27	O	0.681978	0.794236	0.196055
O28	O	0.933385	0.794222	0.055544
O29	O	0.681998	1.065110	-0.195891
O30	O	0.792829	0.523397	0.196069
O31	O	0.933371	0.523379	0.196086
O32	O	0.933374	0.523397	0.055544
O33	O	0.541453	1.065110	-0.055366
O34	O	0.681994	1.065092	-0.055349
O35	O	0.778774	0.705106	0.124196
O36	O	0.861511	0.705106	0.041472
O37	O	0.778785	0.883380	-0.041274
O38	O	0.696048	0.883380	0.041451
C39	C	0.737404	0.556004	0.000089
C40	C	0.737401	0.475144	0.000089
C41	C	0.516249	0.794281	0.000062
C42	C	0.441188	0.794291	0.000053
C43	C	0.737400	0.409475	0.000091
C44	C	0.737405	0.327087	0.000093
C45	C	0.737413	0.261421	0.000091
C46	C	0.737418	0.179029	0.000091
C47	C	0.214737	0.891470	-0.045036
C48	C	0.192375	0.842889	-0.077726
C49	C	0.303781	0.794264	0.000077
C50	C	0.192403	0.842852	0.032752
C51	C	0.171049	0.794246	0.000099
C52	C	0.282407	0.745682	-0.032659
C53	C	0.282433	0.745659	0.077862
C54	C	0.260124	0.697007	0.045191
C55	C	0.380243	0.794278	0.000062
C56	C	0.094592	0.794225	0.000113
C57	C	0.958578	0.794225	0.000116
C58	C	1.033639	0.794216	0.000125
C59	C	0.737419	0.794281	-0.221076
C60	C	0.737421	0.794291	-0.296137
C61	C	0.737423	1.032503	0.000089
C62	C	0.737426	1.113363	0.000089
C63	C	0.692303	0.891470	-0.522598
C64	C	0.770091	0.842875	-0.544953
C65	C	0.737418	0.794264	-0.433544
C66	C	0.659635	0.842866	-0.544929
C67	C	0.737408	0.794246	-0.566276
C68	C	0.815252	0.745668	-0.454910
C69	C	0.704739	0.745673	-0.454889
C70	C	0.782574	0.697007	-0.477190
C71	C	0.737422	0.794278	-0.357081
C72	C	0.737412	0.794225	-0.642733
C73	C	0.737408	0.794225	0.221254
C74	C	0.737406	0.794216	0.296315
C75	C	0.958569	0.555976	0.000116
C76	C	1.033627	0.475106	0.000125
C77	C	0.737399	0.555976	0.221254
C78	C	0.737394	0.475106	0.296315
C79	C	0.958563	0.555948	0.221281
C80	C	1.033620	0.475069	0.296351
C81	C	0.516264	1.032559	-0.221103
C82	C	0.441208	1.113438	-0.296173
C83	C	0.516258	1.032531	0.000062
C84	C	0.441200	1.113400	0.000053
C85	C	0.737428	1.032531	-0.221076
C86	C	0.737433	1.113400	-0.296137
C87	C	1.025689	0.437140	-0.043070
C88	C	1.096208	0.361165	-0.043078
C89	C	1.174663	0.323153	0.000115
C90	C	1.182599	0.361127	0.043311
C91	C	1.112081	0.437105	0.043314
C92	C	0.780577	0.437118	0.374764
C93	C	0.780569	0.361144	0.445299
C94	C	0.737382	0.323153	0.437383
C95	C	0.694194	0.361149	0.358926
C96	C	0.694197	0.437127	0.288393
C97	C	1.112062	0.437087	0.288423
C98	C	1.182592	0.361104	0.358953
C99	C	1.174678	0.323098	0.437410
C100	C	1.096227	0.361087	0.445336
C101	C	1.025699	0.437074	0.374807
C102	C	0.362765	1.151429	-0.288245
C103	C	0.292235	1.227436	-0.358775
C104	C	0.300149	1.265446	-0.437232
C105	C	0.378600	1.227452	-0.445158
C106	C	0.449128	1.151451	-0.374629
C107	C	0.449138	1.151375	0.043240
C108	C	0.378619	1.227370	0.043229
C109	C	0.300164	1.265385	0.000034
C110	C	0.292228	1.227408	-0.043159
C111	C	0.362746	1.151419	-0.043152
C112	C	0.780629	1.151367	-0.288195
C113	C	0.780649	1.227342	-0.358716
C114	C	0.737470	1.265355	-0.437179
C115	C	0.694273	1.227381	-0.445120
C116	C	0.694258	1.151402	-0.374599
H117	H	0.153568	0.883978	-0.143499
N118	N	1.120652	0.478049	0.089905
H119	H	1.064080	0.531954	0.083356
H120	H	1.151843	0.509508	0.067222
H121	H	0.820775	0.614748	-0.458579
H122	H	0.242751	1.327261	0.000035
N123	N	0.387185	1.268336	0.089806
H124	H	0.359841	1.255134	0.133260
H125	H	0.359872	1.344594	0.050126
N126	N	0.647702	1.268385	-0.529750
H127	H	0.654269	1.322281	-0.573212
H128	H	0.587306	1.299870	-0.536296
H129	H	0.228364	1.258358	-0.352306
H130	H	1.232113	0.261224	0.494833
N131	N	1.120621	0.478057	0.203812
H132	H	1.151774	0.509579	0.197210
H133	H	1.064019	0.531918	0.160374
N134	N	0.827152	0.478091	0.383318
H135	H	0.820608	0.531990	0.326736
H136	H	0.887544	0.420056	0.414519
H137	H	0.677081	0.704631	-0.416082
H138	H	0.356305	1.120485	-0.224368
H139	H	0.815741	0.330217	0.509175
H140	H	0.321101	0.704634	-0.060360
N141	N	0.284759	0.588049	0.095731
H142	H	0.318158	0.551477	0.070963
H143	H	0.233578	0.588716	0.095846
H144	H	0.356271	1.120503	-0.078318
H145	H	1.089795	0.330131	0.509225
H146	H	0.961830	0.467989	0.381273
H147	H	0.321238	0.704606	0.143621
N148	N	0.224078	1.347406	-0.513302
H149	H	0.224038	1.410462	-0.547252
H150	H	0.173227	1.365612	-0.496303
N151	N	0.647664	1.110458	-0.383172
H152	H	0.620314	1.146075	-0.443580
H153	H	0.604239	1.123691	-0.355805
N154	N	1.087628	0.320217	-0.089665
H155	H	1.114962	0.243942	-0.050056
H156	H	1.114939	0.333520	-0.133135
N157	N	0.827203	1.110378	-0.203572
H158	H	0.854569	1.145964	-0.209254
H159	H	0.870614	1.034100	-0.172425
N160	N	1.267220	0.320124	0.089895
H161	H	1.310682	0.266229	0.083336
H162	H	1.273757	0.288638	0.150294
H163	H	0.737386	0.261287	0.494822
N164	N	0.647621	0.320163	0.350394
H165	H	0.654182	0.266263	0.406985
H166	H	0.670306	0.288687	0.319219
N167	N	0.827229	1.268301	-0.350137
H168	H	0.820695	1.322200	-0.406713
H169	H	0.887620	1.210260	-0.318930
H170	H	0.196290	0.973663	-0.083240
H171	H	0.881059	0.704603	-0.416206
N172	N	0.387130	1.268452	-0.529781
H173	H	0.330543	1.322358	-0.573251
H174	H	0.418305	1.210430	-0.536318
N175	N	0.647569	0.478149	0.203781
H176	H	0.620198	0.442565	0.209477
H177	H	0.687181	0.464958	0.172597
H178	H	0.797729	0.883953	-0.583765
H179	H	1.232076	0.261285	0.000107
H180	H	0.153602	0.883948	0.060377
N181	N	1.267199	0.320138	0.350394
H182	H	1.261504	0.355741	0.289989
H183	H	1.298344	0.243862	0.377780
H184	H	0.654219	0.973662	-0.541053
H185	H	0.512998	1.120520	-0.381094
N186	N	0.572507	0.897304	-0.596320
H187	H	0.538486	0.970729	-0.614082
H188	H	0.547551	0.861258	-0.562526
N189	N	0.533751	1.110383	0.089832
H190	H	0.528067	1.145984	0.117182
H191	H	0.564894	1.123604	0.050178
N192	N	0.207607	1.268398	-0.089730
H193	H	0.164145	1.322288	-0.083168
H194	H	0.201079	1.210363	-0.067037
H195	H	0.961814	0.468089	-0.078253
H196	H	0.737489	1.327222	-0.494595
