data_functionalizedCrystal
_audit_creation_method	'MofGen! by Chris Wilmer'
_symmetry_space_group_name_H-M	'P1'
_symmetry_Int_Tables_number	1
_symmetry_cell_setting	triclinic
loop_
_symmetry_equiv_pos_as_xyz
  x,y,z
_cell_length_a	17.699083
_cell_length_b	9.065218
_cell_length_c	8.140239
_cell_angle_alpha	90.002802
_cell_angle_beta	89.995596
_cell_angle_gamma	95.850550
loop_
_atom_site_label
_atom_site_type_symbol
_atom_site_fract_x
_atom_site_fract_y
_atom_site_fract_z
O1	O	0.110973	-1.957109	-0.136622
O2	O	0.610973	-1.457109	0.363378
O3	O	0.120075	-1.527555	-0.136624
O4	O	0.620075	-1.027555	0.363376
O5	O	0.005429	-1.754468	-0.136608
O6	O	0.505429	-1.254468	0.363392
O7	O	0.225619	-1.730196	-0.136637
O8	O	0.725619	-1.230196	0.363363
O9	O	0.005428	-1.754455	0.136619
O10	O	0.505428	-1.254455	0.636619
O11	O	0.120074	-1.527542	0.136603
O12	O	0.620074	-1.027542	0.636603
O13	O	0.110971	-1.957097	0.136605
O14	O	0.610971	-1.457097	0.636605
Zn15	Zn	0.115522	-1.742317	0.179985
Zn16	Zn	0.615522	-1.242317	0.679985
Zn17	Zn	0.115524	-1.742334	-0.180004
Zn18	Zn	0.615524	-1.242334	0.319996
O19	O	0.225617	-1.730183	0.136590
O20	O	0.725617	-1.230183	0.636590
C21	C	0.119200	-1.472588	-0.000011
C22	C	0.619200	-0.972588	0.499989
C23	C	0.116584	-1.308822	-0.000011
C24	C	0.616584	-0.808822	0.499989
C25	C	-0.022775	-1.753592	0.000005
C26	C	0.477225	-1.253592	0.500005
C27	C	-0.106813	-1.750983	0.000006
C28	C	0.393187	-1.250983	0.500006
C29	C	0.111847	-2.012064	-0.000012
C30	C	0.611847	-1.512064	0.499988
C31	C	0.114463	-2.175829	-0.000022
C32	C	0.614463	-1.675829	0.499978
C33	C	-0.154396	-1.884176	0.000009
C34	C	0.345604	-1.384176	0.500009
C35	C	-0.233358	-1.881716	-0.000005
C36	C	0.266642	-1.381716	0.499995
C37	C	-0.264737	-1.746060	-0.000011
C38	C	0.235263	-1.246060	0.499989
C39	C	-0.217149	-1.612857	-0.000019
C40	C	0.282851	-1.112857	0.499981
C41	C	-0.138188	-1.615319	-0.000017
C42	C	0.361812	-1.115319	0.499983
C43	C	-0.535589	-1.602925	-0.000033
C44	C	-0.035589	-1.102925	0.499967
C45	C	-0.614556	-1.600474	-0.000031
C46	C	-0.114556	-1.100474	0.499969
C47	C	-0.630760	-1.869322	-0.000022
C48	C	-0.130760	-1.369322	0.499978
C49	C	-0.551799	-1.871784	-0.000019
C50	C	-0.051799	-1.371784	0.499981
C51	C	-0.504217	-1.738581	-0.000036
C52	C	-0.004217	-1.238581	0.499964
C53	C	-0.418597	-1.741251	-0.000023
C54	C	0.081403	-1.241251	0.499977
C55	C	-0.350355	-1.743390	-0.000012
C56	C	0.149645	-1.243390	0.499988
C57	C	0.253822	-1.731059	-0.000028
C58	C	0.753822	-1.231059	0.499972
C59	C	0.337860	-1.733669	-0.000039
C60	C	0.837860	-1.233669	0.499961
N61	N	0.115521	-1.742317	0.425667
N62	N	0.615521	-1.242317	0.925667
N63	N	0.115520	-1.742346	-0.425686
N64	N	0.615520	-1.242346	0.074314
H65	H	-0.128854	-1.994642	0.000024
H66	H	0.371146	-1.494642	0.500024
H67	H	-0.496857	-1.494463	-0.000046
H68	H	0.003143	-0.994463	0.499954
H69	H	-0.272097	-1.990175	0.000001
H70	H	0.227903	-1.490175	0.500001
H71	H	-0.669510	-1.977782	-0.000016
H72	H	-0.169510	-1.477782	0.499984
O73	O	-0.521443	-2.003689	-0.000087
O74	O	-0.021443	-1.503689	0.499913
C75	C	-0.580374	-2.120725	-0.000049
C76	C	-0.080374	-1.620725	0.499951
H77	H	-0.634283	-2.079565	-0.051776
H78	H	-0.134283	-1.579565	0.448224
H79	H	-0.563224	-2.215454	-0.079376
H80	H	-0.063224	-1.715454	0.420624
H81	H	-0.591267	-2.161794	0.131031
H82	H	-0.091267	-1.661794	0.631031
O83	O	-0.247502	-1.480951	-0.000104
O84	O	0.252498	-0.980951	0.499896
C85	C	-0.188570	-1.363918	-0.000069
C86	C	0.311430	-0.863918	0.499931
H87	H	-0.134658	-1.405087	-0.051794
H88	H	0.365342	-0.905087	0.448206
H89	H	-0.205713	-1.269196	-0.079400
H90	H	0.294287	-0.769196	0.420600
H91	H	-0.177685	-1.322836	0.131009
H92	H	0.322315	-0.822836	0.631009
O93	O	-0.645127	-1.468782	-0.000270
O94	O	-0.145127	-0.968782	0.499730
C95	C	-0.690299	-1.459328	-0.141798
C96	C	-0.190299	-0.959328	0.358202
H97	H	-0.709159	-1.575683	-0.188957
H98	H	-0.209159	-1.075683	0.311043
H99	H	-0.742398	-1.400707	-0.109979
H100	H	-0.242398	-0.900707	0.390021
H101	H	-0.655869	-1.393950	-0.240897
H102	H	-0.155869	-0.893950	0.259103
H103	H	-0.099446	-1.506859	-0.000019
H104	H	0.400554	-1.006859	0.499981
