data_functionalizedCrystal
_audit_creation_method	'MofGen! by Chris Wilmer'
_symmetry_space_group_name_H-M	'P1'
_symmetry_Int_Tables_number	1
_symmetry_cell_setting	triclinic
loop_
_symmetry_equiv_pos_as_xyz
  x,y,z
_cell_length_a	11.169417
_cell_length_b	16.625545
_cell_length_c	11.169409
_cell_angle_alpha	90.036260
_cell_angle_beta	89.980487
_cell_angle_gamma	89.974714
loop_
_atom_site_label
_atom_site_type_symbol
_atom_site_fract_x
_atom_site_fract_y
_atom_site_fract_z
Zn1	Zn	1.834848	0.320909	-0.678500
Zn2	Zn	2.168181	0.654243	-0.345167
Zn3	Zn	2.501515	0.987576	-0.011833
Zn4	Zn	1.834689	0.455771	-0.477803
Zn5	Zn	2.168023	0.789105	-0.144470
Zn6	Zn	2.501356	1.122438	0.188863
Zn7	Zn	1.634134	0.320959	-0.477835
Zn8	Zn	1.967467	0.654293	-0.144502
Zn9	Zn	2.300801	0.987626	0.188831
Zn10	Zn	1.634094	0.455707	-0.678449
Zn11	Zn	1.967427	0.789040	-0.345116
Zn12	Zn	2.300760	1.122373	-0.011782
O13	O	1.734441	0.388337	-0.578147
O14	O	2.067775	0.721670	-0.244814
O15	O	2.401108	1.055003	0.088520
O16	O	2.002777	0.338805	-0.651885
O17	O	2.336110	0.672139	-0.318552
O18	O	2.669443	1.005472	0.014782
O19	O	1.808036	0.437936	-0.309858
O20	O	2.141369	0.771270	0.023476
O21	O	2.474703	1.104603	0.356809
O22	O	1.660842	0.208120	-0.504489
O23	O	1.994176	0.541454	-0.171156
O24	O	2.327509	0.874787	0.162178
O25	O	2.002660	0.437888	-0.504434
O26	O	2.335994	0.771221	-0.171101
O27	O	2.669327	1.104555	0.162233
O28	O	1.808306	0.208084	-0.651916
O29	O	2.141640	0.541417	-0.318583
O30	O	2.474973	0.874750	0.014750
O31	O	1.660689	0.338891	-0.309881
O32	O	1.994022	0.672224	0.023452
O33	O	2.327355	1.005557	0.356785
O34	O	1.466179	0.338828	-0.504440
O35	O	1.799512	0.672161	-0.171106
O36	O	2.132846	1.005495	0.162227
O37	O	1.660773	0.437778	-0.846406
O38	O	1.994107	0.771111	-0.513072
O39	O	2.327440	1.104444	-0.179739
O40	O	1.466149	0.437826	-0.651830
O41	O	1.799483	0.771159	-0.318496
O42	O	2.132816	1.104493	0.014837
O43	O	1.808267	0.338743	-0.846443
O44	O	2.141600	0.672076	-0.513110
O45	O	2.474934	1.005409	-0.179776
O46	O	1.807997	0.568595	-0.504384
O47	O	2.141330	0.901929	-0.171051
O48	O	2.474663	1.235262	0.162282
O49	O	1.660620	0.568548	-0.651798
O50	O	1.993953	0.901881	-0.318465
O51	O	2.327286	1.235214	0.014868
C52	C	1.422617	0.388326	-0.578133
C53	C	1.755950	0.721659	-0.244800
C54	C	2.089283	1.054993	0.088533
C55	C	1.289217	0.388341	-0.578156
C56	C	1.622550	0.721674	-0.244822
C57	C	1.955883	1.055007	0.088511
C58	C	1.734319	0.597828	-0.578109
C59	C	2.067652	0.931161	-0.244775
C60	C	2.400986	1.264494	0.088558
C61	C	1.734377	0.687449	-0.578132
C62	C	2.067710	1.020782	-0.244799
C63	C	2.401043	1.354115	0.088535
C64	C	1.734573	1.015624	-0.578276
C65	C	2.067906	1.348958	-0.244942
C66	C	2.401239	1.682291	0.088391
C67	C	1.734514	0.924316	-0.578239
C68	C	2.067848	1.257649	-0.244906
C69	C	2.401181	1.590983	0.088428
C70	C	1.734474	0.851539	-0.578203
C71	C	2.067807	1.184873	-0.244870
C72	C	2.401140	1.518206	0.088463
C73	C	1.734417	0.760225	-0.578168
C74	C	2.067751	1.093559	-0.244835
C75	C	2.401084	1.426892	0.088499
C76	C	2.047484	0.388348	-0.578161
C77	C	2.380817	0.721682	-0.244828
C78	C	2.714150	1.055015	0.088505
C79	C	2.180884	0.388353	-0.578168
C80	C	2.514217	0.721687	-0.244834
C81	C	2.847550	1.055020	0.088499
C82	C	1.734533	0.388247	-0.891190
C83	C	2.067867	0.721581	-0.557856
C84	C	2.401200	1.054914	-0.224523
C85	C	1.734573	0.388209	-1.024590
C86	C	2.067906	0.721542	-0.691256
C87	C	2.401239	1.054876	-0.357923
C88	C	1.734586	1.178028	-0.578226
C89	C	2.067920	1.511361	-0.244893
C90	C	2.401253	1.844695	0.088441
C91	C	1.734622	1.088407	-0.578296
C92	C	2.067955	1.421740	-0.244962
C93	C	2.401289	1.755073	0.088371
C94	C	1.734419	0.388368	-0.266322
C95	C	2.067752	0.721701	0.067011
C96	C	2.401085	1.055034	0.400344
C97	C	1.734612	0.388179	-0.132923
C98	C	2.067945	0.721512	0.200411
C99	C	2.401278	1.054845	0.533744
