data_functionalizedCrystal
_audit_creation_method	'MofGen! by Chris Wilmer'
_symmetry_space_group_name_H-M	'P1'
_symmetry_Int_Tables_number	1
_symmetry_cell_setting	triclinic
loop_
_symmetry_equiv_pos_as_xyz
  x,y,z
_cell_length_a	10.968094
_cell_length_b	19.188924
_cell_length_c	9.482900
_cell_angle_alpha	99.300357
_cell_angle_beta	92.548310
_cell_angle_gamma	83.943566
loop_
_atom_site_label
_atom_site_type_symbol
_atom_site_fract_x
_atom_site_fract_y
_atom_site_fract_z
O1	O	1.609534	0.123208	0.282284
O2	O	1.260318	0.124743	0.194802
O3	O	1.445005	0.022615	0.241085
O4	O	1.424847	0.225335	0.236001
O5	O	1.407491	0.043447	0.473476
O6	O	1.222803	0.145575	0.427193
O7	O	1.572020	0.144040	0.514675
Cu8	Cu	1.393986	0.146709	0.492153
Cu9	Cu	1.438352	0.122073	0.217324
O10	O	1.387332	0.246167	0.468392
C11	C	1.196883	0.133474	0.299806
C12	C	1.063758	0.128445	0.266457
C13	C	0.847376	0.131790	0.337499
C14	C	0.984964	0.136993	0.371980
C15	C	1.425596	0.007001	0.357119
C16	C	1.423640	-0.070560	0.356632
C17	C	1.443176	-0.118341	0.229727
C18	C	1.441323	-0.191219	0.229252
C19	C	1.419956	-0.216314	0.355695
C20	C	1.400411	-0.168522	0.482616
C21	C	1.402252	-0.095645	0.483084
N22	N	1.470089	-0.325617	0.466346
N23	N	1.468344	-0.394848	0.465893
C24	C	1.414404	-0.435886	0.354290
N25	N	1.362293	-0.405082	0.243140
N26	N	1.364045	-0.335845	0.243590
C27	C	1.417956	-0.295335	0.355201
C28	C	1.431930	-0.562690	0.226860
C29	C	1.430069	-0.635569	0.226388
C30	C	1.389168	-0.612871	0.479759
C31	C	1.391018	-0.539993	0.480224
C32	C	1.412405	-0.514908	0.353772
C33	C	1.635455	0.135308	0.409668
C34	C	1.768582	0.140336	0.443007
C35	C	1.406742	0.261781	0.352355
C36	C	1.408700	0.339342	0.352832
N37	N	1.362791	0.164037	0.685456
N38	N	1.469557	0.104741	0.024024
C39	C	1.429142	0.127180	0.774283
C40	C	1.403195	0.141603	0.935198
H41	H	0.812975	0.120616	0.221643
H42	H	1.505153	0.084946	0.731203
H43	H	1.445972	-0.674472	0.123041
H44	H	1.375119	-0.501089	0.583567
C45	C	0.815043	0.155426	0.599522
H46	H	0.901422	0.156949	0.602164
H47	H	0.795551	0.118891	0.648837
H48	H	0.776827	0.199760	0.644121
H49	H	1.019361	0.148160	0.487845
H50	H	1.286771	0.206266	0.728535
H51	H	1.029364	0.117276	0.150593
H52	H	1.460588	-0.097922	0.126759
C53	C	1.572281	0.047703	0.965855
H54	H	1.576264	0.045501	0.865338
H55	H	1.555478	0.002905	0.986513
H56	H	1.648494	0.059530	1.009818
H57	H	1.457225	-0.230130	0.125905
C58	C	1.300482	0.198648	0.993366
H59	H	1.262208	0.219895	0.916767
H60	H	1.334444	0.233922	1.061251
H61	H	1.241406	0.177309	1.037945
C62	C	1.376911	-0.196123	0.621700
H63	H	1.378624	-0.246370	0.603250
H64	H	1.298891	-0.176111	0.656313
H65	H	1.438737	-0.182924	0.691344
H66	H	1.386338	-0.056741	0.586428
H67	H	1.449338	-0.542265	0.123894
H68	H	1.371762	-0.633301	0.582709
