data_functionalizedCrystal
_audit_creation_method	'MofGen! by Chris Wilmer'
_symmetry_space_group_name_H-M	'P1'
_symmetry_Int_Tables_number	1
_symmetry_cell_setting	triclinic
loop_
_symmetry_equiv_pos_as_xyz
  x,y,z
_cell_length_a	16.959455
_cell_length_b	13.897447
_cell_length_c	16.959447
_cell_angle_alpha	90.028096
_cell_angle_beta	90.014322
_cell_angle_gamma	90.016477
loop_
_atom_site_label
_atom_site_type_symbol
_atom_site_fract_x
_atom_site_fract_y
_atom_site_fract_z
Zn1	Zn	1.208387	-0.384074	0.446921
Zn2	Zn	1.708387	0.115926	0.946921
Zn3	Zn	1.208311	-0.545393	0.314747
Zn4	Zn	1.708311	-0.045393	0.814747
Zn5	Zn	1.076215	-0.384105	0.314758
Zn6	Zn	1.576215	0.115895	0.814758
Zn7	Zn	1.076181	-0.545321	0.446886
Zn8	Zn	1.576181	-0.045321	0.946886
O9	O	1.142273	-0.464723	0.380828
O10	O	1.642273	0.035277	0.880828
O11	O	1.318988	-0.405491	0.429398
O12	O	1.818988	0.094509	0.929398
O13	O	1.190770	-0.524040	0.204138
O14	O	1.690770	-0.024040	0.704138
O15	O	1.093794	-0.249119	0.332309
O16	O	1.593794	0.250881	0.832309
O17	O	1.318931	-0.524011	0.332291
O18	O	1.818931	-0.024011	0.832291
O19	O	1.190900	-0.249097	0.429408
O20	O	1.690900	0.250903	0.929408
O21	O	1.093720	-0.405543	0.204146
O22	O	1.593720	0.094457	0.704146
O23	O	0.965600	-0.405473	0.332275
O24	O	1.465600	0.094527	0.832275
O25	O	1.093736	-0.523888	0.557502
O26	O	1.593736	-0.023888	1.057502
O27	O	0.965575	-0.523917	0.429349
O28	O	1.465575	-0.023917	0.929349
O29	O	1.190867	-0.405421	0.557527
O30	O	1.690867	0.094579	1.057527
O31	O	1.190737	-0.680365	0.332257
O32	O	1.690737	-0.180365	0.832257
O33	O	1.093662	-0.680312	0.429338
O34	O	1.593662	-0.180312	0.929338
C35	C	0.936907	-0.464691	0.380810
C36	C	1.436907	0.035309	0.880810
C37	C	0.849051	-0.464701	0.380821
C38	C	1.349051	0.035299	0.880821
C39	C	0.477564	-0.402998	0.330388
C40	C	0.977564	0.097002	0.830388
C41	C	0.477586	-0.526527	0.431314
C42	C	0.977586	-0.026527	0.931314
C43	C	0.560132	-0.526513	0.431309
C44	C	1.060132	-0.026513	0.931309
C45	C	0.601398	-0.464742	0.380842
C46	C	1.101398	0.035258	0.880842
C47	C	0.560117	-0.402985	0.330379
C48	C	1.060117	0.097015	0.830379
C49	C	0.601419	-0.588276	0.481765
C50	C	1.101419	-0.088276	0.981765
C51	C	0.683970	-0.588266	0.481762
C52	C	1.183970	-0.088266	0.981762
C53	C	0.725237	-0.526489	0.431298
C54	C	1.225237	-0.026489	0.931298
C55	C	0.683951	-0.464728	0.380834
C56	C	1.183951	0.035272	0.880834
C57	C	0.725217	-0.402957	0.330367
C58	C	1.225217	0.097043	0.830367
C59	C	0.683932	-0.341191	0.279906
C60	C	1.183932	0.158809	0.779906
C61	C	0.601384	-0.341208	0.279916
C62	C	1.101384	0.158792	0.779916
C63	C	0.807785	-0.526472	0.431288
C64	C	1.307785	-0.026472	0.931288
C65	C	0.807770	-0.402944	0.330359
C66	C	1.307770	0.097056	0.830359
C67	C	1.142209	-0.715337	0.380810
C68	C	1.642209	-0.215337	0.880810
C69	C	1.142254	-0.822551	0.380828
C70	C	1.642254	-0.322551	0.880828
C71	C	1.142292	-0.909621	0.380846
C72	C	1.642292	-0.409621	0.880846
C73	C	1.142348	-1.018854	0.380867
C74	C	1.642348	-0.518854	0.880867
C75	C	1.348442	-0.464756	0.380847
C76	C	1.848442	0.035244	0.880847
C77	C	1.436298	-0.464770	0.380855
C78	C	1.936298	0.035230	0.880855
C79	C	1.142306	-0.464643	0.586997
C80	C	1.642306	0.035357	1.086997
C81	C	1.142320	-0.464609	0.674853
C82	C	1.642320	0.035391	1.174853
C83	C	1.142359	-0.213130	0.380864
C84	C	1.642359	0.286870	0.880864
C85	C	1.142396	-0.105916	0.380879
C86	C	1.642396	0.394084	0.880879
C87	C	1.142286	-0.464733	0.175462
C88	C	1.642286	0.035267	0.675462
C89	C	1.142425	-0.464495	0.087606
C90	C	1.642425	0.035505	0.587606
C91	C	1.091843	-0.526188	1.046318
C92	C	1.591843	-0.026188	1.546318
C93	C	1.192986	-0.402827	1.046340
C94	C	1.692986	0.097173	1.546340
C95	C	1.192965	-0.402848	0.963794
C96	C	1.692965	0.097152	1.463794
C97	C	1.142383	-0.464540	0.922506
C98	C	1.642383	0.035460	1.422506
C99	C	1.091822	-0.526212	0.963765
C100	C	1.591822	-0.026212	1.463765
C101	C	1.243531	-0.341184	0.922529
C102	C	1.743531	0.158816	1.422529
C103	C	1.243513	-0.341203	0.839978
C104	C	1.743513	0.158797	1.339978
C105	C	1.192926	-0.402891	0.798689
C106	C	1.692926	0.097109	1.298689
C107	C	1.142362	-0.464564	0.839953
C108	C	1.642362	0.035436	1.339953
C109	C	1.091780	-0.526257	0.798665
C110	C	1.591780	-0.026257	1.298665
C111	C	1.041212	-0.587926	0.839927
C112	C	1.541212	-0.087926	1.339927
C113	C	1.041235	-0.587900	0.922475
C114	C	1.541235	-0.087900	1.422475
C115	C	1.192902	-0.402917	0.716141
C116	C	1.692902	0.097083	1.216141
C117	C	1.091759	-0.526281	0.716111
C118	C	1.591759	-0.026281	1.216111
H119	H	0.717541	-0.290901	0.238812
H120	H	1.217541	0.209099	0.738812
H121	H	0.443983	-0.576824	0.472398
H122	H	0.943983	-0.076824	0.972398
F123	F	0.987425	-0.653531	0.966394
F124	F	1.487425	-0.153531	1.466394
F125	F	1.246821	-0.337180	1.090283
F126	F	1.746821	0.162820	1.590283
H127	H	0.567815	-0.638574	0.522847
H128	H	1.067815	-0.138574	1.022847
H129	H	0.841363	-0.352635	0.289266
H130	H	1.341363	0.147365	0.789266
H131	H	0.567763	-0.290922	0.238832
H132	H	1.067763	0.209078	0.738832
H133	H	1.284717	-0.290963	0.956152
H134	H	1.784717	0.209037	1.456152
H135	H	0.443946	-0.352707	0.289306
H136	H	0.943946	0.147293	0.789306
F137	F	0.727900	-0.654000	0.535467
F138	F	1.227900	-0.154000	1.035467
H139	H	1.050669	-0.576395	1.079917
H140	H	1.550669	-0.076395	1.579917
F141	F	0.987384	-0.653586	0.795976
F142	F	1.487384	-0.153586	1.295976
H143	H	0.841395	-0.576764	0.472370
H144	H	1.341395	-0.076764	0.972370
F145	F	1.246722	-0.337295	0.672231
F146	F	1.746722	0.162705	1.172231
F147	F	1.037917	-0.591939	0.672176
F148	F	1.537917	-0.091939	1.172176
F149	F	1.297329	-0.275567	0.796072
F150	F	1.797329	0.224433	1.296072
