data_functionalizedCrystal
_audit_creation_method	'MofGen! by Chris Wilmer'
_symmetry_space_group_name_H-M	'P1'
_symmetry_Int_Tables_number	1
_symmetry_cell_setting	triclinic
loop_
_symmetry_equiv_pos_as_xyz
  x,y,z
_cell_length_a	19.188933
_cell_length_b	19.188924
_cell_length_c	17.666332
_cell_angle_alpha	89.991448
_cell_angle_beta	89.992061
_cell_angle_gamma	83.143767
loop_
_atom_site_label
_atom_site_type_symbol
_atom_site_fract_x
_atom_site_fract_y
_atom_site_fract_z
O1	O	0.926147	0.087175	-0.062927
O2	O	0.722835	0.098908	-0.062934
O3	O	0.830360	-0.008614	-0.062921
O4	O	0.818621	0.194698	-0.062939
O5	O	0.830342	-0.008620	0.062976
O6	O	0.722816	0.098903	0.062963
O7	O	0.926128	0.087170	0.062970
Cu8	Cu	0.824470	0.093036	0.074462
Cu9	Cu	0.824493	0.093042	-0.074426
O10	O	0.818602	0.194692	0.062957
C11	C	0.696815	0.098525	0.000013
C12	C	0.619310	0.097384	0.000011
C13	C	0.829972	-0.034628	0.000028
C14	C	0.828833	-0.112133	0.000030
C15	C	0.066065	0.089242	-0.068606
C16	C	0.138890	0.090310	-0.068610
C17	C	0.175296	0.090844	0.000017
C18	C	0.138875	0.090292	0.068651
C19	C	0.066053	0.089217	0.068652
N20	N	0.284308	0.132261	0.051094
N21	N	0.353485	0.133284	0.051089
C22	C	0.394705	0.094082	0.000017
N23	N	0.364132	0.053828	-0.051059
N24	N	0.294948	0.052808	-0.051056
C25	C	0.254260	0.092010	0.000023
C26	C	0.510082	0.095787	-0.068616
C27	C	0.582908	0.096851	-0.068616
C28	C	0.582892	0.096840	0.068646
C29	C	0.510068	0.095770	0.068645
C30	C	0.473667	0.095246	0.000011
C31	C	0.828312	-0.148529	-0.068597
C32	C	0.827232	-0.221351	-0.068602
C33	C	0.826687	-0.257777	0.000022
C34	C	0.827205	-0.221372	0.068658
C35	C	0.828277	-0.148550	0.068662
N36	N	0.864727	-0.377442	0.051099
N37	N	0.863710	-0.446621	0.051091
C38	C	0.823453	-0.477186	0.000015
N39	N	0.784262	-0.435962	-0.051064
N40	N	0.785282	-0.366777	-0.051058
C41	C	0.825523	-0.336741	0.000026
C42	C	0.821760	-0.592545	-0.068623
C43	C	0.820676	-0.665368	-0.068626
C44	C	0.820655	-0.665389	0.068637
C45	C	0.821733	-0.592566	0.068637
C46	C	0.822288	-0.556149	0.000006
C47	C	0.952148	0.087553	0.000021
C48	C	1.029653	0.088694	0.000019
C49	C	0.818991	0.220706	0.000007
C50	C	0.820130	0.298211	-0.000000
N51	N	0.824460	0.093031	0.179181
N52	N	0.824509	0.093042	-0.179145
C53	C	0.872087	0.045443	0.218797
C54	C	0.872091	0.045439	0.298044
C55	C	0.824475	0.093036	0.337673
C56	C	0.776838	0.140627	0.298048
C57	C	0.776831	0.140625	0.218802
N58	N	0.815397	0.154843	0.462086
N59	N	0.815408	0.154844	0.537367
C60	C	0.824493	0.093046	0.576437
N61	N	0.833580	0.031245	0.537384
N62	N	0.833572	0.031246	0.462096
C63	C	0.824477	0.093044	0.423603
C64	C	0.872128	0.045450	0.701982
C65	C	0.872127	0.045446	0.781231
C66	C	0.776877	0.140640	0.781234
C67	C	0.776874	0.140638	0.701986
C68	C	0.824503	0.093044	0.662365
H69	H	0.036433	0.088813	-0.124493
H70	H	0.168522	0.090726	0.124526
H71	H	0.826803	-0.250990	-0.124488
O72	O	0.730487	0.186793	0.336508
C73	C	0.608964	0.228027	0.360748
C74	C	0.661384	0.175697	0.317160
H75	H	0.553082	0.219084	0.345109
H76	H	0.617091	0.219856	0.424201
H77	H	0.617917	0.283922	0.345161
H78	H	0.652462	0.119781	0.332683
H79	H	0.653244	0.183929	0.253717
H80	H	0.738046	0.179377	0.186547
H81	H	0.820207	-0.695045	0.124512
O82	O	0.474600	0.095334	0.135258
C83	C	0.384299	0.154601	0.214935
C84	C	0.424400	0.155179	0.139458
H85	H	0.343713	0.202987	0.218362
H86	H	0.356697	0.105277	0.218374
H87	H	0.422842	0.155130	0.263975
H88	H	0.385904	0.154674	0.090375
H89	H	0.452013	0.204498	0.136085
O90	O	0.828811	-0.113257	-0.135331
C91	C	0.828762	-0.120931	-0.271474
C92	C	0.828181	-0.160963	-0.195953
H93	H	0.828268	-0.159486	-0.320506
H94	H	0.780401	-0.080317	-0.274959
H95	H	0.878104	-0.093355	-0.274860
H96	H	0.778872	-0.188581	-0.192515
H97	H	0.876575	-0.201538	-0.192499
H98	H	0.612555	0.097292	-0.124501
O99	O	0.474780	0.095369	-0.135329
C100	C	0.444378	0.155549	-0.252623
C101	C	0.484400	0.156102	-0.177108
H102	H	0.452129	0.204653	-0.286416
H103	H	0.465244	0.106945	-0.286519
H104	H	0.386082	0.154659	-0.240813
H105	H	0.542702	0.157016	-0.188849
H106	H	0.463477	0.204701	-0.143235
O107	O	0.618337	0.097264	0.135263
C108	C	0.708610	0.037968	0.214945
C109	C	0.668531	0.037414	0.139465
H110	H	0.749191	-0.010423	0.218374
H111	H	0.736216	0.087288	0.218389
H112	H	0.670052	0.037428	0.263982
H113	H	0.707042	0.037928	0.090385
H114	H	0.640914	-0.011901	0.136087
H115	H	0.822208	-0.562892	-0.124507
H116	H	0.910868	0.006688	0.186540
H117	H	0.826759	-0.251035	0.124532
O118	O	0.918413	-0.000853	0.663606
C119	C	1.012912	-0.095244	0.671966
C120	C	0.960522	-0.042855	0.715517
H121	H	1.046981	-0.129207	0.713917
H122	H	0.982912	-0.130098	0.634898
H123	H	1.047662	-0.065173	0.634831
H124	H	0.925758	-0.072870	0.752693
H125	H	0.990566	-0.008002	0.752537
O126	O	0.820263	-0.700818	-0.135243
C127	C	0.879566	-0.791099	-0.214909
C128	C	0.880110	-0.751016	-0.139431
H129	H	0.927955	-0.831683	-0.218326
H130	H	0.830245	-0.818701	-0.218360
H131	H	0.880115	-0.752544	-0.263948
H132	H	0.879586	-0.789523	-0.090349
H133	H	0.929428	-0.723402	-0.136046
H134	H	0.828699	-0.118916	0.124547
O135	O	0.822280	-0.557320	0.135370
C136	C	0.822113	-0.565023	0.271512
C137	C	0.821509	-0.605027	0.195989
H138	H	0.821474	-0.603575	0.320542
H139	H	0.871478	-0.537493	0.274996
H140	H	0.773777	-0.524371	0.274905
H141	H	0.869811	-0.645713	0.192546
H142	H	0.772111	-0.632508	0.192537
O143	O	0.918328	-0.000885	0.336458
C144	C	0.959592	-0.122389	0.360772
C145	C	0.907206	-0.070004	0.317210
H146	H	0.950609	-0.178283	0.345238
H147	H	1.015498	-0.113487	0.345166
H148	H	0.951420	-0.114171	0.424212
H149	H	0.915314	-0.078190	0.253760
H150	H	0.851319	-0.078919	0.332879
O151	O	0.730524	0.186807	0.819685
C152	C	0.609000	0.228047	0.843915
C153	C	0.661421	0.175714	0.800332
H154	H	0.553119	0.219107	0.828272
H155	H	0.617123	0.219876	0.907370
H156	H	0.617958	0.283941	0.828329
H157	H	0.652495	0.119799	0.815855
H158	H	0.653286	0.183946	0.736888
O159	O	0.730683	0.186969	0.663535
C160	C	0.689365	0.308477	0.639314
C161	C	0.741731	0.256083	0.682892
H162	H	0.698269	0.364367	0.654960
H163	H	0.697536	0.300363	0.575859
H164	H	0.633482	0.299481	0.654903
H165	H	0.797635	0.265047	0.667366
H166	H	0.733499	0.264209	0.746336
H167	H	0.168542	0.090760	-0.124494
H168	H	0.910909	0.006691	0.813487
H169	H	0.036406	0.088774	0.124536
