data_functionalizedCrystal
_audit_creation_method	'MofGen! by Chris Wilmer'
_symmetry_space_group_name_H-M	'P1'
_symmetry_Int_Tables_number	1
_symmetry_cell_setting	triclinic
loop_
_symmetry_equiv_pos_as_xyz
  x,y,z
_cell_length_a	12.376457
_cell_length_b	11.026607
_cell_length_c	10.967829
_cell_angle_alpha	83.619437
_cell_angle_beta	90.447946
_cell_angle_gamma	76.186286
loop_
_atom_site_label
_atom_site_type_symbol
_atom_site_fract_x
_atom_site_fract_y
_atom_site_fract_z
O1	O	0.188665	-1.660922	0.485934
O2	O	0.688665	-1.160922	0.985934
O3	O	0.177488	-1.304370	0.428548
O4	O	0.677488	-0.804370	0.928548
O5	O	0.149352	-1.482512	0.284141
O6	O	0.649352	-0.982512	0.784141
O7	O	0.216802	-1.482781	0.630341
O8	O	0.716802	-0.982781	1.130341
O9	O	-0.031638	-1.437990	0.320184
O10	O	0.468362	-0.937990	0.820184
O11	O	-0.003502	-1.259848	0.464591
O12	O	0.496498	-0.759848	0.964591
O13	O	0.007676	-1.616400	0.521977
O14	O	0.507676	-1.116400	1.021977
Zn15	Zn	-0.026649	-1.431055	0.499006
Zn16	Zn	0.473351	-0.931055	0.999006
Zn17	Zn	0.211813	-1.489715	0.451519
Zn18	Zn	0.711813	-0.989715	0.951519
O19	O	0.035812	-1.438259	0.666384
O20	O	0.535812	-0.938259	1.166384
C21	C	0.084931	-1.236300	0.435983
C22	C	0.584931	-0.736300	0.935983
C23	C	0.078784	-1.099801	0.404423
C24	C	0.578784	-0.599801	0.904423
N25	N	-0.189392	-1.391031	0.531416
N26	N	0.310608	-0.891031	1.031416
C27	C	0.050090	-1.456906	0.257152
C28	C	0.550090	-0.956906	0.757152
C29	C	0.023967	-1.446927	0.123032
C30	C	0.523967	-0.946927	0.623032
C31	C	-0.580924	-1.622658	0.343843
C32	C	-0.080924	-1.122658	0.843843
C33	C	-0.467004	-1.650665	0.321158
C34	C	0.032996	-1.150665	0.821158
C35	C	-0.397596	-1.585758	0.373720
C36	C	0.102404	-1.085758	0.873720
C37	C	-0.442118	-1.492841	0.448973
C38	C	0.057882	-0.992841	0.948973
C39	C	-0.556048	-1.464839	0.471668
C40	C	-0.056048	-0.964839	0.971668
C41	C	-0.372719	-1.427939	0.501545
C42	C	0.127281	-0.927939	1.001545
C43	C	-0.417242	-1.335022	0.576797
C44	C	0.082758	-0.835022	1.076797
C45	C	-0.531160	-1.307023	0.599489
C46	C	-0.031160	-0.807023	1.099489
C47	C	-0.600569	-1.371930	0.546926
C48	C	-0.100569	-0.871930	1.046926
C49	C	-0.258790	-1.455941	0.478849
C50	C	0.241210	-0.955941	0.978849
C51	C	-0.233914	-1.298122	0.606674
C52	C	0.266086	-0.798122	1.106674
C53	C	-0.347833	-1.270115	0.629360
C54	C	0.152167	-0.770115	1.129360
N55	N	0.374555	-1.529749	0.419101
N56	N	0.874555	-1.029749	0.919101
C57	C	0.100235	-1.684471	0.514542
C58	C	0.600235	-1.184471	1.014542
C59	C	0.106389	-1.820972	0.546100
C60	C	0.606389	-1.320972	1.046100
C61	C	0.095762	-1.030925	0.491563
C62	C	0.595762	-0.530925	0.991563
C63	C	0.089409	-0.889846	0.458947
C64	C	0.589409	-0.389846	0.958947
C65	C	0.106080	-1.465542	0.044571
C66	C	0.606080	-0.965542	0.544571
C67	C	0.079082	-1.455228	-0.094049
C68	C	0.579082	-0.955228	0.405951
C69	C	0.135076	-1.463865	0.693373
C70	C	0.635076	-0.963865	1.193373
C71	C	0.161206	-1.473846	0.827492
C72	C	0.661206	-0.973846	1.327492
H73	H	-0.222550	-1.531595	0.417579
H74	H	0.277450	-1.031595	0.917579
Br75	Br	-0.071414	-1.415922	-0.153119
Br76	Br	0.428586	-0.915922	0.346881
H77	H	0.059572	-1.054330	0.305668
H78	H	0.559572	-0.554330	0.805668
Br79	Br	0.256570	-1.504860	0.103649
Br80	Br	0.756570	-1.004860	0.603649
Br81	Br	0.057327	-0.814063	0.294347
Br82	Br	0.557327	-0.314063	0.794347
H83	H	-0.567408	-1.231375	0.660774
H84	H	-0.067408	-0.731375	1.160774
Br85	Br	0.311702	-1.513081	-0.113448
Br86	Br	0.811702	-1.013081	0.386552
Br87	Br	-0.139723	-1.210037	0.678023
Br88	Br	0.360277	-0.710037	1.178023
Br89	Br	-0.126523	-1.407622	0.063955
Br90	Br	0.373477	-0.907622	0.563955
H91	H	0.114995	-1.076401	0.590314
H92	H	0.614995	-0.576401	1.090314
Br93	Br	-0.242988	-1.623766	0.342931
Br94	Br	0.257012	-1.123766	0.842931
H95	H	-0.430758	-1.726318	0.259889
H96	H	0.069242	-1.226318	0.759889
H97	H	-0.637441	-1.675504	0.301061
H98	H	-0.137441	-1.175504	0.801061
Br99	Br	0.138438	-0.896744	0.710707
Br100	Br	0.638438	-0.396744	1.210707
Br101	Br	-0.755183	-1.333909	0.577706
Br102	Br	-0.255183	-0.833909	1.077706
H103	H	-0.384098	-1.194460	0.690633
H104	H	0.115902	-0.694460	1.190633
