data_functionalizedCrystal
_audit_creation_method	'MofGen! by Chris Wilmer'
_symmetry_space_group_name_H-M	'P1'
_symmetry_Int_Tables_number	1
_symmetry_cell_setting	triclinic
loop_
_symmetry_equiv_pos_as_xyz
  x,y,z
_cell_length_a	13.339070
_cell_length_b	17.699083
_cell_length_c	12.376458
_cell_angle_alpha	78.753537
_cell_angle_beta	104.418073
_cell_angle_gamma	99.456154
loop_
_atom_site_label
_atom_site_type_symbol
_atom_site_fract_x
_atom_site_fract_y
_atom_site_fract_z
O1	O	-1.321884	-0.389651	0.094057
O2	O	-1.027480	-0.339872	0.094049
O3	O	-1.183002	-0.256329	0.094043
O4	O	-1.166362	-0.473194	0.094062
O5	O	-1.221902	-0.235513	-0.093971
O6	O	-1.066380	-0.319056	-0.093965
O7	O	-1.360783	-0.368834	-0.093957
Zn8	Zn	-1.219758	-0.340640	-0.123812
Zn9	Zn	-1.168506	-0.368067	0.123904
O10	O	-1.205262	-0.452377	-0.093951
C11	C	-1.009262	-0.321055	0.000041
C12	C	-0.897023	-0.295992	0.000037
C13	C	-1.201856	-0.217598	0.000036
C14	C	-1.200067	-0.133202	0.000035
C15	C	-1.379001	-0.387651	0.000053
C16	C	-1.491239	-0.412716	0.000064
C17	C	-0.531743	-0.490876	0.000073
C18	C	-0.637197	-0.514427	0.000080
C19	C	-0.702158	-0.459820	0.000069
C20	C	-0.661656	-0.381658	0.000052
C21	C	-0.556191	-0.358105	0.000054
C22	C	-0.726606	-0.327050	0.000050
C23	C	-0.686104	-0.248887	0.000033
C24	C	-0.580648	-0.225338	0.000034
C25	C	-0.515687	-0.279945	0.000045
C26	C	-0.832071	-0.350602	0.000048
C27	C	-0.856519	-0.217832	0.000029
C28	C	-0.751065	-0.194280	0.000022
C29	C	-1.186408	-0.491109	0.000058
C30	C	-1.188194	-0.575506	0.000066
N31	N	-1.254744	-0.321923	-0.292872
C32	C	-1.291354	-0.103877	0.000036
C33	C	-1.289666	-0.024578	0.000046
C34	C	-1.196691	0.025395	0.000047
C35	C	-1.105397	-0.003935	0.000050
C36	C	-1.107085	-0.083233	0.000048
C37	C	-1.098588	0.315866	0.000059
C38	C	-1.096908	0.395169	0.000057
C39	C	-1.281170	0.374521	0.000057
C40	C	-1.282857	0.295223	0.000055
C41	C	-1.191562	0.265899	0.000064
C42	C	-1.193393	0.179914	0.000055
C43	C	-1.194861	0.111379	0.000048
N44	N	-1.133528	-0.386780	0.292963
C45	C	-1.052278	-0.430179	0.352151
C46	C	-1.027767	-0.443243	0.470491
C47	C	-1.084509	-0.412914	0.529656
C48	C	-1.165766	-0.369519	0.470469
C49	C	-1.190274	-0.356448	0.352117
C50	C	-1.222506	-0.339183	0.529623
C51	C	-1.303763	-0.295788	0.470435
C52	C	-1.328267	-0.282720	0.352095
C53	C	-1.271525	-0.313049	0.292930
C54	C	-1.197998	-0.352254	0.647975
C55	C	-1.335994	-0.278523	0.647941
C56	C	-1.360505	-0.265459	0.529600
H57	H	-0.865038	-0.414242	0.000057
O58	O	-0.541209	-0.149420	-0.000120
C59	C	-0.501100	-0.121038	-0.097505
H60	H	-0.481407	-0.171553	-0.129964
H61	H	-0.427581	-0.078810	-0.075603
H62	H	-0.561877	-0.089802	-0.165694
H63	H	-1.426666	-0.230125	0.481395
H64	H	-0.670164	-0.578067	0.000102
O65	O	-0.919528	-0.164773	0.000216
C66	C	-0.881041	-0.129401	0.097572
H67	H	-0.830818	-0.169303	0.165636
H68	H	-0.949181	-0.118398	0.130252
H69	H	-0.832004	-0.071900	0.075555
O70	O	-0.711804	-0.118326	-0.000184
C71	C	-0.765168	-0.072910	-0.097548
H72	H	-0.801089	-0.110688	-0.165604
H73	H	-0.708117	-0.023694	-0.130234
H74	H	-0.829448	-0.047622	-0.075537
H75	H	-1.367066	-0.144560	0.000028
O76	O	-0.804583	-0.482820	0.000018
C77	C	-0.826397	-0.563519	0.000061
H78	H	-0.766059	-0.583600	-0.035520
H79	H	-0.907497	-0.577267	-0.054528
H80	H	-0.823276	-0.594946	0.090264
O81	O	-1.378381	0.003797	0.000192
C82	C	-1.414688	-0.032638	0.097574
H83	H	-1.382995	-0.090872	0.130036
H84	H	-1.503561	-0.042372	0.075668
H85	H	-1.386870	0.005868	0.165763
H86	H	-1.131838	-0.387587	0.696155
O87	O	-1.060602	-0.425711	0.644612
C88	C	-0.976701	-0.470501	0.684166
H89	H	-0.972955	-0.504282	0.615988
H90	H	-0.988640	-0.512837	0.763363
H91	H	-0.900666	-0.430605	0.705131
O92	O	-0.997149	-0.459506	0.294551
C93	C	-0.949162	-0.398223	0.226075
H94	H	-0.993397	-0.345616	0.208331
H95	H	-0.950246	-0.417203	0.142863
H96	H	-0.865040	-0.382294	0.271656
O97	O	-1.390911	-0.248896	0.705445
C98	C	-1.322753	-0.198289	0.773719
H99	H	-1.239881	-0.213720	0.791520
H100	H	-1.347771	-0.204299	0.856915
H101	H	-1.325494	-0.135926	0.727934
O102	O	-1.373251	0.246781	0.000105
C103	C	-1.453469	0.289672	0.000081
H104	H	-1.417893	0.345283	0.035675
H105	H	-1.507097	0.253494	0.054670
H106	H	-1.500283	0.304921	-0.090117
H107	H	-1.291484	-0.302415	0.196567
H108	H	-1.355505	0.398405	0.000056
O109	O	-0.468508	-0.543808	0.000036
C110	C	-0.366737	-0.506261	0.000068
H111	H	-0.370208	-0.442053	-0.035536
H112	H	-0.330133	-0.533660	-0.054507
H113	H	-0.317575	-0.512707	0.090271
O114	O	-1.006617	0.443773	0.000219
C115	C	-0.979983	0.479460	0.097607
H116	H	-1.053014	0.478778	0.130061
H117	H	-0.944338	0.542018	0.075711
H118	H	-0.921063	0.446442	0.165798
O119	O	-1.407130	-0.240465	0.294726
C120	C	-1.385091	-0.165305	0.323567
H121	H	-1.328334	-0.166630	0.409480
H122	H	-1.460423	-0.144608	0.327616
H123	H	-1.348697	-0.123899	0.256927
H124	H	-0.429817	-0.260773	0.000039
O125	O	-1.009811	0.287465	0.000205
C126	C	-0.933210	0.302326	0.097588
H127	H	-0.951475	0.353366	0.130055
H128	H	-0.853402	0.316917	0.075680
H129	H	-0.932812	0.248712	0.165773
O130	O	-1.015179	0.044719	0.000001
C131	C	-1.033257	0.120996	0.000027
H132	H	-1.119571	0.126899	-0.035566
H133	H	-0.985069	0.163771	-0.054560
H134	H	-1.009749	0.134000	0.090226
H135	H	-1.032749	-0.107108	0.000047
O136	O	-0.948841	-0.485442	0.527807
C137	C	-0.903997	-0.509393	0.450214
H138	H	-0.962903	-0.509714	0.365867
H139	H	-0.881182	-0.570300	0.484446
H140	H	-0.831646	-0.467536	0.437586
