data_functionalizedCrystal
_audit_creation_method	'MofGen! by Chris Wilmer'
_symmetry_space_group_name_H-M	'P1'
_symmetry_Int_Tables_number	1
_symmetry_cell_setting	triclinic
loop_
_symmetry_equiv_pos_as_xyz
  x,y,z
_cell_length_a	18.215407
_cell_length_b	18.050589
_cell_length_c	18.215399
_cell_angle_alpha	90.025811
_cell_angle_beta	89.985640
_cell_angle_gamma	89.967859
loop_
_atom_site_label
_atom_site_type_symbol
_atom_site_fract_x
_atom_site_fract_y
_atom_site_fract_z
Zn1	Zn	1.125000	0.295700	-0.416091
Zn2	Zn	1.458333	0.629033	-0.082757
Zn3	Zn	1.791667	0.962367	0.250576
Zn4	Zn	1.124894	0.419900	-0.293034
Zn5	Zn	1.458227	0.753234	0.040299
Zn6	Zn	1.791560	1.086567	0.373633
Zn7	Zn	1.001939	0.295723	-0.293043
Zn8	Zn	1.335272	0.629056	0.040290
Zn9	Zn	1.668606	0.962390	0.373623
Zn10	Zn	1.001877	0.419847	-0.416064
Zn11	Zn	1.335211	0.753181	-0.082731
Zn12	Zn	1.668544	1.086514	0.250602
O13	O	1.063427	0.357793	-0.354558
O14	O	1.396761	0.691126	-0.021225
O15	O	1.730094	1.024459	0.312109
O16	O	1.227970	0.312188	-0.399774
O17	O	1.561303	0.645521	-0.066441
O18	O	1.894637	0.978855	0.266893
O19	O	1.108565	0.403460	-0.190051
O20	O	1.441898	0.736793	0.143282
O21	O	1.775231	1.070126	0.476616
O22	O	1.018333	0.191795	-0.309381
O23	O	1.351667	0.525129	0.023953
O24	O	1.685000	0.858462	0.357286
O25	O	1.227892	0.403437	-0.309365
O26	O	1.561225	0.736771	0.023968
O27	O	1.894559	1.070104	0.357302
O28	O	1.108746	0.191779	-0.399783
O29	O	1.442079	0.525112	-0.066450
O30	O	1.775413	0.858445	0.266884
O31	O	1.018230	0.312227	-0.190058
O32	O	1.351564	0.645561	0.143276
O33	O	1.684897	0.978894	0.476609
O34	O	0.898946	0.312176	-0.309355
O35	O	1.232280	0.645509	0.023978
O36	O	1.565613	0.978843	0.357311
O37	O	1.018228	0.403347	-0.519052
O38	O	1.351562	0.736680	-0.185719
O39	O	1.684895	1.070014	0.147615
O40	O	0.898901	0.403369	-0.399738
O41	O	1.232235	0.736703	-0.066405
O42	O	1.565568	1.070036	0.266928
O43	O	1.108686	0.312137	-0.519072
O44	O	1.442019	0.645470	-0.185738
O45	O	1.775353	0.978803	0.147595
O46	O	1.108505	0.523818	-0.309340
O47	O	1.441838	0.857151	0.023994
O48	O	1.775172	1.190485	0.357327
O49	O	1.018125	0.523779	-0.399729
O50	O	1.351459	0.857112	-0.066396
O51	O	1.684792	1.190446	0.266937
C52	C	0.872221	0.357770	-0.354545
C53	C	1.205555	0.691103	-0.021212
C54	C	1.538888	1.024437	0.312121
C55	C	0.790422	0.357778	-0.354557
C56	C	1.123756	0.691111	-0.021224
C57	C	1.457089	1.024445	0.312109
C58	C	0.602268	0.310362	-0.401708
C59	C	0.935601	0.643696	-0.068374
C60	C	1.268935	0.977029	0.264959
C61	C	0.525409	0.310369	-0.401710
C62	C	0.858743	0.643702	-0.068377
C63	C	1.192076	0.977035	0.264957
C64	C	0.525339	0.405244	-0.307422
C65	C	0.858672	0.738577	0.025912
C66	C	1.192006	1.071911	0.359245
C67	C	0.602196	0.405233	-0.307416
C68	C	0.935530	0.738567	0.025917
C69	C	1.268863	1.071900	0.359251
C70	C	0.640659	0.357794	-0.354563
C71	C	0.973992	0.691127	-0.021230
C72	C	1.307325	1.024460	0.312104
C73	C	0.486943	0.357811	-0.354571
C74	C	0.820276	0.691144	-0.021238
C75	C	1.153609	1.024477	0.312095
C76	C	0.403609	0.357818	-0.354574
C77	C	0.736942	0.691151	-0.021240
C78	C	1.070276	1.024485	0.312093
C79	C	0.723998	0.357785	-0.354560
C80	C	1.057331	0.691118	-0.021227
C81	C	1.390664	1.024452	0.312107
C82	C	1.063317	0.550745	-0.354547
C83	C	1.396650	0.884078	-0.021213
C84	C	1.729984	1.217412	0.312120
C85	C	1.063337	0.633291	-0.354566
C86	C	1.396670	0.966624	-0.021233
C87	C	1.730004	1.299957	0.312100
C88	C	1.014215	0.832747	-0.403704
C89	C	1.347548	1.166080	-0.070370
C90	C	1.680881	1.499414	0.262963
C91	C	0.996273	0.882189	-0.336550
C92	C	1.329606	1.215523	-0.003217
C93	C	1.662940	1.548856	0.330116
C94	C	1.063392	0.784421	-0.354576
C95	C	1.396726	1.117754	-0.021243
C96	C	1.730059	1.451088	0.312090
C97	C	1.081354	0.882060	-0.421738
C98	C	1.414687	1.215394	-0.088405
C99	C	1.748020	1.548727	0.244929
C100	C	1.063445	0.930406	-0.354592
C101	C	1.396778	1.263739	-0.021259
C102	C	1.730111	1.597073	0.312075
C103	C	1.045416	0.832776	-0.287388
C104	C	1.378749	1.166110	0.045946
C105	C	1.712082	1.499443	0.379279
C106	C	1.130528	0.832643	-0.372620
C107	C	1.463861	1.165976	-0.039287
C108	C	1.797194	1.499309	0.294046
C109	C	1.112611	0.882063	-0.305421
C110	C	1.445945	1.215396	0.027913
C111	C	1.779278	1.548729	0.361246
C112	C	1.063361	0.700323	-0.354568
C113	C	1.396694	1.033656	-0.021235
C114	C	1.730027	1.366989	0.312098
C115	C	1.063477	1.014503	-0.354593
C116	C	1.396810	1.347836	-0.021259
C117	C	1.730143	1.681169	0.312074
C118	C	1.255380	0.357816	-0.354572
C119	C	1.588714	0.691149	-0.021238
C120	C	1.922047	1.024483	0.312095
C121	C	1.337179	0.357826	-0.354577
C122	C	1.670513	0.691159	-0.021244
C123	C	2.003846	1.024493	0.312089
C124	C	1.063462	0.357733	-0.546511
C125	C	1.396796	0.691067	-0.213178
C126	C	1.730129	1.024400	0.120156
C127	C	1.063477	0.357708	-0.628310
C128	C	1.396810	0.691041	-0.294977
C129	C	1.730144	1.024375	0.038357
C130	C	1.063530	1.164087	-0.354587
C131	C	1.396864	1.497420	-0.021253
C132	C	1.730197	1.830754	0.312080
C133	C	1.063502	1.081541	-0.354601
C134	C	1.396835	1.414875	-0.021268
C135	C	1.730169	1.748208	0.312066
C136	C	1.016480	0.310171	-0.816509
C137	C	1.349813	0.643505	-0.483175
C138	C	1.683146	0.976838	-0.149842
C139	C	1.016493	0.310156	-0.893367
C140	C	1.349826	0.643490	-0.560034
C141	C	1.683159	0.976823	-0.226701
C142	C	1.110562	0.405156	-0.893350
C143	C	1.443896	0.738490	-0.560016
C144	C	1.777229	1.071823	-0.226683
C145	C	1.110545	0.405174	-0.816492
C146	C	1.443879	0.738508	-0.483159
C147	C	1.777212	1.071841	-0.149826
C148	C	1.063505	0.357678	-0.778074
C149	C	1.396838	0.691011	-0.444740
C150	C	1.730172	1.024344	-0.111407
C151	C	1.063535	0.357645	-0.931790
C152	C	1.396868	0.690978	-0.598456
C153	C	1.730202	1.024311	-0.265123
C154	C	1.063549	0.357629	-1.015124
C155	C	1.396882	0.690962	-0.681790
C156	C	1.730216	1.024295	-0.348457
C157	C	1.063490	0.357694	-0.694735
C158	C	1.396823	0.691028	-0.361401
C159	C	1.730156	1.024361	-0.028068
C160	C	1.063435	0.357798	-0.163352
C161	C	1.396769	0.691132	0.169981
C162	C	1.730102	1.024465	0.503315
C163	C	1.063563	0.357614	-0.081553
C164	C	1.396896	0.690948	0.251780
C165	C	1.730230	1.024281	0.585113
H166	H	0.494013	0.443868	-0.269037
H167	H	0.827347	0.777202	0.064296
H168	H	1.160680	1.110535	0.397630
O169	O	1.198269	0.806747	-0.390761
O170	O	1.531603	1.140080	-0.057427
O171	O	1.864936	1.473413	0.275906
C172	C	1.250227	0.832952	-0.339616
C173	C	1.583560	1.166285	-0.006283
C174	C	1.916893	1.499619	0.327050
H175	H	1.228444	0.885372	-0.312290
H176	H	1.561777	1.218705	0.021043
H177	H	1.895110	1.552039	0.354377
H178	H	1.303901	0.845918	-0.369121
H179	H	1.637234	1.179252	-0.035788
H180	H	1.970567	1.512585	0.297546
H181	H	1.260350	0.788758	-0.296082
H182	H	1.593683	1.122091	0.037251
H183	H	1.927017	1.455424	0.370584
H184	H	0.494155	0.271744	-0.440099
H185	H	0.827488	0.605077	-0.106765
H186	H	1.160821	0.938411	0.226568
O187	O	1.099501	0.907763	-0.489522
O188	O	1.432834	1.241097	-0.156189
O189	O	1.766167	1.574430	0.177144
C190	C	1.111503	0.847426	-0.537229
C191	C	1.444836	1.180759	-0.203896
C192	C	1.778170	1.514093	0.129438
H193	H	1.126109	0.796157	-0.503744
H194	H	1.459443	1.129490	-0.170411
H195	H	1.792776	1.462823	0.162922
H196	H	1.158565	0.861042	-0.576212
H197	H	1.491898	1.194375	-0.242879
H198	H	1.825232	1.527709	0.090454
H199	H	1.059542	0.836289	-0.570307
H200	H	1.392875	1.169622	-0.236974
H201	H	1.726208	1.502956	0.096359
O202	O	0.970914	0.263975	-0.930786
O203	O	1.304247	0.597308	-0.597453
O204	O	1.637580	0.930641	-0.264119
C205	C	1.012849	0.215991	-0.975248
C206	C	1.346183	0.549324	-0.641914
C207	C	1.679516	0.882658	-0.308581
H208	H	1.068607	0.242184	-0.986758
H209	H	1.401941	0.575517	-0.653424
H210	H	1.735274	0.908850	-0.320091
H211	H	0.982889	0.206030	-1.029295
H212	H	1.316222	0.539363	-0.695961
H213	H	1.649555	0.872697	-0.362628
H214	H	1.020962	0.160960	-0.945645
H215	H	1.354296	0.494293	-0.612311
H216	H	1.687629	0.827627	-0.278978
O217	O	0.970886	0.263961	-0.779156
O218	O	1.304220	0.597295	-0.445823
O219	O	1.637553	0.930628	-0.112489
C220	C	1.012800	0.216018	-0.734696
C221	C	1.346134	0.549351	-0.401362
C222	C	1.679467	0.882684	-0.068029
H223	H	1.070771	0.211426	-0.757858
H224	H	1.404104	0.544759	-0.424525
H225	H	1.737438	0.878093	-0.091191
H226	H	0.986216	0.158864	-0.733837
H227	H	1.319549	0.492198	-0.400504
H228	H	1.652882	0.825531	-0.067171
H229	H	1.015307	0.238992	-0.676442
H230	H	1.348640	0.572325	-0.343108
H231	H	1.681974	0.905659	-0.009775
O232	O	1.156235	0.451219	-0.930785
O233	O	1.489568	0.784552	-0.597451
O234	O	1.822901	1.117885	-0.264118
C235	C	1.146155	0.441029	-1.006863
C236	C	1.479488	0.774363	-0.673530
C237	C	1.812822	1.107696	-0.340197
H238	H	1.122093	0.383712	-1.017372
H239	H	1.455426	0.717045	-0.684039
H240	H	1.788759	1.050378	-0.350705
H241	H	1.201283	0.446065	-1.036073
H242	H	1.534616	0.779399	-0.702740
H243	H	1.867950	1.112732	-0.369406
H244	H	1.106941	0.485071	-1.028664
H245	H	1.440274	0.818404	-0.695330
H246	H	1.773608	1.151738	-0.361997
H247	H	0.633455	0.443858	-0.269021
H248	H	0.966788	0.777192	0.064312
H249	H	1.300122	1.110525	0.397645
H250	H	0.972572	0.811093	-0.445190
H251	H	1.305906	1.144426	-0.111857
H252	H	1.639239	1.477759	0.221477
O253	O	0.928525	0.908121	-0.318465
O254	O	1.261858	1.241455	0.014868
O255	O	1.595192	1.574788	0.348202
C256	C	0.876811	0.882985	-0.370377
C257	C	1.210144	1.216318	-0.037044
C258	C	1.543477	1.549651	0.296290
H259	H	0.906038	0.869068	-0.423988
H260	H	1.239371	1.202402	-0.090655
H261	H	1.572704	1.535735	0.242678
H262	H	0.834337	0.928211	-0.380661
H263	H	1.167671	1.261545	-0.047328
H264	H	1.501004	1.594878	0.286006
H265	H	0.848239	0.831351	-0.348459
H266	H	1.181572	1.164684	-0.015126
H267	H	1.514906	1.498017	0.318207
H268	H	1.030179	0.811217	-0.230581
H269	H	1.363512	1.144550	0.102753
H270	H	1.696845	1.477884	0.436086
H271	H	0.633582	0.271731	-0.440096
H272	H	0.966915	0.605065	-0.106762
H273	H	1.300249	0.938398	0.226571
H274	H	1.154222	0.903580	-0.263834
H275	H	1.487555	1.236913	0.069499
H276	H	1.820889	1.570247	0.402833
O277	O	1.156298	0.451349	-0.779265
O278	O	1.489632	0.784682	-0.445932
O279	O	1.822965	1.118015	-0.112599
C280	C	1.197812	0.493275	-0.829654
C281	C	1.531145	0.826609	-0.496320
C282	C	1.864479	1.159942	-0.162987
H283	H	1.200396	0.462845	-0.884447
H284	H	1.533730	0.796179	-0.551114
H285	H	1.867063	1.129512	-0.217781
H286	H	1.255784	0.501209	-0.807443
H287	H	1.589117	0.834542	-0.474110
H288	H	1.922451	1.167876	-0.140776
H289	H	1.170827	0.549674	-0.837815
H290	H	1.504160	0.883007	-0.504482
H291	H	1.837494	1.216340	-0.171148
