data_functionalizedCrystal
_audit_creation_method	'MofGen! by Chris Wilmer'
_symmetry_space_group_name_H-M	'P1'
_symmetry_Int_Tables_number	1
_symmetry_cell_setting	triclinic
loop_
_symmetry_equiv_pos_as_xyz
  x,y,z
_cell_length_a	15.298708
_cell_length_b	16.959453
_cell_length_c	15.298259
_cell_angle_alpha	80.286568
_cell_angle_beta	110.755097
_cell_angle_gamma	99.714353
loop_
_atom_site_label
_atom_site_type_symbol
_atom_site_fract_x
_atom_site_fract_y
_atom_site_fract_z
Zn1	Zn	1.330666	-0.070143	-0.280183
Zn2	Zn	1.357469	-0.221850	-0.124688
Zn3	Zn	1.202064	-0.109208	-0.151557
Zn4	Zn	1.175141	-0.221828	-0.307006
O5	O	1.266335	-0.155757	-0.215858
O6	O	1.464347	-0.073927	-0.237087
O7	O	1.359339	-0.223265	0.001880
O8	O	1.219173	0.006595	-0.168639
O9	O	1.484039	-0.185385	-0.122844
O10	O	1.313657	0.035296	-0.263141
O11	O	1.245163	-0.140508	-0.017861
O12	O	1.068367	-0.140487	-0.194647
O13	O	1.173287	-0.185349	-0.433579
O14	O	1.048587	-0.223229	-0.308855
O15	O	1.287550	-0.073906	-0.413873
O16	O	1.333232	-0.332468	-0.148853
O17	O	1.199276	-0.332452	-0.282801
C18	C	1.024737	-0.186095	-0.257578
C19	C	0.921376	-0.199090	-0.275448
C20	C	0.671046	-0.063050	-0.088368
C21	C	0.768158	-0.050835	-0.071580
C22	C	0.806467	-0.087898	-0.122545
C23	C	0.747655	-0.137177	-0.190302
C24	C	0.650532	-0.149387	-0.207098
C25	C	0.785954	-0.174236	-0.241274
C26	C	0.727141	-0.223515	-0.309032
C27	C	0.630029	-0.235723	-0.325823
C28	C	0.591719	-0.198660	-0.274858
C29	C	0.883077	-0.162026	-0.224479
C30	C	0.862563	-0.248363	-0.343208
C31	C	0.765451	-0.260578	-0.359997
C32	C	1.266263	-0.361138	-0.215838
C33	C	1.266312	-0.448986	-0.215845
C34	C	1.315589	-0.805429	-0.265164
C35	C	1.217316	-0.835432	-0.166646
C36	C	1.217286	-0.752894	-0.166630
C37	C	1.266406	-0.696618	-0.215884
C38	C	1.315557	-0.722882	-0.265153
C39	C	1.168128	-0.726624	-0.117370
C40	C	1.168094	-0.644080	-0.117353
C41	C	1.217220	-0.587803	-0.166602
C42	C	1.266374	-0.614071	-0.215872
C43	C	1.315495	-0.557796	-0.265126
C44	C	1.364655	-0.584062	-0.314391
C45	C	1.364684	-0.666605	-0.314402
C46	C	1.217192	-0.505261	-0.166592
C47	C	1.315463	-0.475249	-0.265114
C48	C	1.508876	-0.125301	-0.173976
C49	C	1.612233	-0.112323	-0.156129
C50	C	1.224425	-0.125268	-0.458411
C51	C	1.206566	-0.112275	-0.561773
C52	C	1.266428	0.050431	-0.215895
C53	C	1.266468	0.138296	-0.215911
C54	C	1.394008	-0.248006	-0.812012
C55	C	1.410783	-0.260219	-0.714899
C56	C	1.359730	-0.223234	-0.676613
C57	C	1.291900	-0.174034	-0.735448
C58	C	1.275118	-0.161825	-0.832571
C59	C	1.240840	-0.137053	-0.697172
C60	C	1.173010	-0.087853	-0.756008
C61	C	1.156232	-0.075645	-0.853121
C62	C	1.207284	-0.112631	-0.891407
C63	C	1.257622	-0.149262	-0.600049
C64	C	1.138732	-0.063080	-0.620609
C65	C	1.121957	-0.050867	-0.717721
C66	C	1.308135	-0.186064	0.025760
C67	C	1.326174	-0.198812	0.129152
H68	H	0.816037	-0.010715	-0.016409
Br69	Br	0.619048	-0.012743	-0.019223
Br70	Br	1.502835	-0.326987	-0.635058
H71	H	0.512644	-0.208607	-0.288520
H72	H	1.177320	-0.881256	-0.126550
H73	H	0.582144	-0.275843	-0.381003
Br74	Br	1.101442	-0.802998	-0.050556
H75	H	1.435561	-0.278121	-0.843196
H76	H	1.193632	-0.102687	-0.970483
Br77	Br	1.101374	-0.608439	-0.050500
Br78	Br	1.150476	-0.469615	-0.099742
H79	H	0.717552	-0.300700	-0.415166
Br80	Br	0.914544	-0.298655	-0.412391
H81	H	1.355617	-0.826819	-0.305272
H82	H	1.100990	-0.035592	-0.901025
H83	H	1.066728	-0.010808	-0.765639
H84	H	1.355468	-0.429433	-0.305219
H85	H	1.312856	-0.189316	-0.552153
Br86	Br	0.962881	-0.095149	-0.132527
Br87	Br	1.431302	-0.507680	-0.381246
Br88	Br	1.069426	-0.012898	-0.568660
H89	H	1.404706	-0.687999	-0.354512
H90	H	0.885541	-0.077950	-0.108872
Br91	Br	1.382500	-0.239807	-0.544814
