data_functionalizedCrystal
_audit_creation_method	'MofGen! by Chris Wilmer'
_symmetry_space_group_name_H-M	'P1'
_symmetry_Int_Tables_number	1
_symmetry_cell_setting	triclinic
loop_
_symmetry_equiv_pos_as_xyz
  x,y,z
_cell_length_a	27.354012
_cell_length_b	27.353283
_cell_length_c	27.349551
_cell_angle_alpha	60.005606
_cell_angle_beta	60.011434
_cell_angle_gamma	59.993282
loop_
_atom_site_label
_atom_site_type_symbol
_atom_site_fract_x
_atom_site_fract_y
_atom_site_fract_z
O1	O	0.067635	-0.714267	0.597330
O2	O	0.025429	-0.556105	0.481282
O3	O	0.125575	-0.656186	0.481214
O4	O	-0.032512	-0.614186	0.597397
O5	O	0.158797	-0.622968	0.514367
O6	O	0.058650	-0.522887	0.514434
O7	O	0.100856	-0.681048	0.630482
Zn8	Zn	0.085028	-0.596693	0.577722
Zn9	Zn	0.041257	-0.640460	0.534042
O10	O	0.000709	-0.580967	0.630549
N11	N	0.114901	-0.566828	0.607534
N12	N	0.011389	-0.670331	0.504229
C13	C	0.179404	-0.338196	0.672015
C14	C	0.179501	-0.502386	0.836160
C15	C	0.179415	-0.502363	0.671996
C16	C	0.343611	-0.502373	0.671960
C17	C	0.197478	-0.392371	0.690061
C18	C	0.197534	-0.484321	0.781984
C19	C	0.289434	-0.484312	0.690032
C20	C	0.197486	-0.484308	0.690051
C21	C	0.156398	-0.269238	0.649045
C22	C	0.156418	-0.525342	0.649015
C23	C	0.220484	-0.461329	0.713032
C24	C	0.443889	-0.485097	0.619172
C25	C	0.506571	-0.505993	0.598266
C26	C	0.506589	-0.607412	0.636940
C27	C	0.443909	-0.586515	0.657848
C28	C	0.171510	-0.237888	0.587422
C29	C	0.150593	-0.175201	0.566543
C30	C	0.099458	-0.175218	0.668913
C31	C	0.120375	-0.237905	0.689792
C32	C	0.094789	-0.510201	0.664176
C33	C	0.073888	-0.531091	0.643278
C34	C	0.176239	-0.582263	0.592072
C35	C	0.197142	-0.561373	0.612963
C36	C	0.094933	-0.510244	0.936476
C37	C	0.074073	-0.531151	0.999161
C38	C	0.176453	-0.582335	0.999126
C39	C	0.197312	-0.561429	0.936439
C40	C	0.156551	-0.525382	0.905116
C41	C	0.412561	-0.525357	0.648961
C42	C	-0.098513	-0.688235	0.485867
C43	C	-0.006461	-0.688368	0.394066
C44	C	-0.006645	-0.780264	0.486040
C45	C	-0.006630	-0.688361	0.486097
C46	C	-0.029562	-0.711308	0.463018
N47	N	0.537030	-0.566846	0.607436
O48	O	0.741877	-0.576849	0.459995
O49	O	0.742050	-0.693241	0.618010
O50	O	0.741986	-0.692977	0.517791
O51	O	0.741941	-0.577114	0.560214
O52	O	0.642405	-0.659839	0.551046
O53	O	0.642469	-0.660104	0.651265
O54	O	0.642296	-0.543712	0.493251
Zn55	Zn	0.626572	-0.596646	0.577538
Zn56	Zn	0.757774	-0.640307	0.533723
O57	O	0.642360	-0.543976	0.593469
N58	N	0.847316	-0.670107	0.503818
N59	N	0.114877	-0.144758	0.607577
O60	O	-0.032498	0.060193	0.597441
O61	O	0.125523	0.060193	0.481067
O62	O	0.025289	0.060179	0.481345
O63	O	0.067736	0.060207	0.597163
O64	O	0.058511	-0.039410	0.514543
O65	O	0.158745	-0.039397	0.514265
O66	O	0.000724	-0.039396	0.630638
Zn67	Zn	0.085009	-0.055208	0.577722
Zn68	Zn	0.041238	0.076005	0.533983
O69	O	0.100958	-0.039382	0.630360
N70	N	0.011362	0.165555	0.504130
N71	N	0.115121	-0.566884	1.029592
O72	O	0.104990	-0.714248	1.234528
O73	O	-0.011371	-0.556177	1.234539
O74	O	-0.011103	-0.656395	1.234497
O75	O	0.104722	-0.614030	1.234569
O76	O	0.022090	-0.623190	1.134913
O77	O	0.021822	-0.522972	1.134954
O78	O	0.138182	-0.681044	1.134943
Zn79	Zn	0.085272	-0.596736	1.119137
Zn80	Zn	0.041539	-0.640484	1.250344
O81	O	0.137914	-0.580826	1.134984
N82	N	0.011689	-0.670343	1.339890
C83	C	0.038085	-0.519567	0.481870
C84	C	0.162104	-0.643505	0.481786
C85	C	0.088200	-0.717587	0.629893
C86	C	-0.035819	-0.593649	0.629977
C87	C	0.692280	-0.692701	0.654545
C88	C	0.692203	-0.692374	0.530435
C89	C	0.692063	-0.544251	0.456717
C90	C	0.692144	-0.544580	0.580825
C91	C	0.162000	0.010521	0.481600
C92	C	0.037914	0.010381	0.481984
C93	C	-0.035795	0.010399	0.630065
C94	C	0.088333	0.010415	0.629722
C95	C	-0.010799	-0.519660	1.184747
C96	C	-0.010461	-0.643761	1.184677
C97	C	0.137610	-0.717561	1.184734
C98	C	0.137280	-0.593452	1.184783
H99	H	0.023897	-0.518815	1.024687
O100	O	-0.054326	-0.465477	1.184776
C101	C	-0.032770	-0.428217	1.184785
H102	H	0.005665	-0.457017	1.203649
H103	H	-0.016144	-0.397979	1.137015
C104	C	-0.130806	-0.354086	1.200672
C105	C	-0.083603	-0.389459	1.223847
H106	H	-0.162162	-0.330176	1.224765
H107	H	-0.145329	-0.379188	1.200664
H108	H	-0.116943	-0.328893	1.160864
H109	H	-0.097464	-0.414657	1.263651
H110	H	-0.069083	-0.364361	1.223863
O111	O	-0.090013	-0.583036	0.673488
C112	C	-0.116558	-0.624161	0.689614
H113	H	-0.096748	-0.641634	0.651203
H114	H	-0.107457	-0.663186	0.731232
C115	C	-0.208937	-0.571302	0.750072
C116	C	-0.184610	-0.592759	0.702893
H117	H	-0.250915	-0.551933	0.758266
H118	H	-0.191053	-0.543596	0.739210
H119	H	-0.201347	-0.603827	0.784749
H120	H	-0.192193	-0.560233	0.668216
H121	H	-0.202496	-0.620458	0.713750
O122	O	0.027227	-0.465343	0.438442
C123	C	-0.031612	-0.428192	0.460164
H124	H	-0.059990	-0.457082	0.498615
H125	H	-0.030710	-0.397968	0.476818
C126	C	-0.023913	-0.353929	0.362226
C127	C	-0.058769	-0.389412	0.409449
H128	H	-0.040665	-0.330005	0.330943
H129	H	0.015729	-0.378957	0.347592
H130	H	-0.023165	-0.328747	0.376113
H131	H	-0.059511	-0.414598	0.395564
H132	H	-0.098412	-0.364387	0.424080
O133	O	-0.089936	0.010484	0.673676
C134	C	-0.116436	0.062077	0.689727
H135	H	-0.080122	0.079275	0.677579
H136	H	-0.149122	0.098189	0.664596
C137	C	-0.194883	0.025298	0.772541
C138	C	-0.150282	0.046419	0.757625
H139	H	-0.215764	0.015641	0.814423
H140	H	-0.177032	-0.009460	0.761726
H141	H	-0.222116	0.055395	0.751594
H142	H	-0.123047	0.016319	0.778566
H143	H	-0.168130	0.081172	0.768445
H144	H	0.692005	-0.507708	0.411338
H145	H	0.692323	-0.729239	0.699929
H146	H	0.418366	-0.435297	0.611936
H147	H	0.207509	-0.652460	0.445301
O148	O	0.098940	-0.771833	0.673322
C149	C	0.113020	-0.816929	0.652763
H150	H	0.093732	-0.796500	0.615553
H151	H	0.163723	-0.837990	0.634764
C152	C	0.109651	-0.890427	0.750586
C153	C	0.085957	-0.865337	0.704887
H154	H	0.092961	-0.920289	0.782738
H155	H	0.100168	-0.860046	0.764437
H156	H	0.151904	-0.907974	0.735579
H157	H	0.043707	-0.847784	0.719892
H158	H	0.095433	-0.895716	0.691040
O159	O	0.181270	-0.771677	1.184705
C160	C	0.232796	-0.771682	1.184746
H161	H	0.232086	-0.723651	1.165907
H162	H	0.233495	-0.793089	1.232527
C163	C	0.289969	-0.866643	1.168830
C164	C	0.289099	-0.807651	1.145687
H165	H	0.324699	-0.888833	1.144739
H166	H	0.255254	-0.866641	1.168805
H167	H	0.290549	-0.884474	1.208647
H168	H	0.288511	-0.789819	1.105873
H169	H	0.323815	-0.807651	1.145704
O170	O	0.692194	-0.735723	0.519519
C171	C	0.692159	-0.713915	0.460662
H172	H	0.673266	-0.662911	0.444924
H173	H	0.739923	-0.729035	0.429662
C174	C	0.676323	-0.801212	0.478836
C175	C	0.653114	-0.738568	0.459508
H176	H	0.652241	-0.816420	0.478122
H177	H	0.676349	-0.815906	0.518488
H178	H	0.716126	-0.813804	0.452999
H179	H	0.613315	-0.725977	0.485348
H180	H	0.653080	-0.723872	0.419860
H181	H	0.692134	-0.508185	0.589902
H182	H	0.207290	0.010797	0.444973
H183	H	0.173667	-0.584388	1.184797
H184	H	0.532110	-0.657210	0.644171
H185	H	0.028825	0.010378	0.445599
O186	O	0.099280	0.010386	0.673077
C187	C	0.158134	0.010401	0.651260
H188	H	0.186449	-0.008448	0.612820
H189	H	0.157247	0.058179	0.634562
C190	C	0.150594	-0.005509	0.749125
C191	C	0.185373	-0.028665	0.701914
H192	H	0.167397	-0.029604	0.780370
H193	H	0.110943	-0.005517	0.763823
H194	H	0.149858	0.034305	0.735202
H195	H	0.186103	-0.068475	0.715836
H196	H	0.225026	-0.028665	0.687219
O197	O	-0.053833	-0.654647	1.184680
C198	C	-0.067622	-0.703124	1.236235
H199	H	-0.028067	-0.731811	1.253473
H200	H	-0.108777	-0.685365	1.272338
C201	C	-0.129104	-0.706082	1.199322
C202	C	-0.080520	-0.741319	1.220491
H203	H	-0.137063	-0.729641	1.189612
H204	H	-0.119817	-0.673420	1.164589
H205	H	-0.163395	-0.691285	1.229412
H206	H	-0.046229	-0.756108	1.190398
H207	H	-0.089802	-0.773984	1.255218
O208	O	0.055311	-0.475314	0.906079
C209	C	0.019063	-0.506958	0.921415
H210	H	0.043281	-0.557111	0.938631
H211	H	-0.024962	-0.493616	0.957815
C212	C	-0.023524	-0.430197	0.844597
C213	C	0.006224	-0.491797	0.865737
H214	H	-0.031446	-0.420844	0.810254
H215	H	0.000896	-0.408877	0.834266
H216	H	-0.060208	-0.419086	0.874935
H217	H	0.042910	-0.502905	0.835402
H218	H	-0.018189	-0.513119	0.876062
O219	O	0.216070	-0.617431	1.029529
C220	C	0.252320	-0.669993	1.014183
H221	H	0.228108	-0.678701	0.996951
H222	H	0.296348	-0.664297	0.977792
C223	C	0.294891	-0.712647	1.091019
C224	C	0.265150	-0.723345	1.069859
H225	H	0.302807	-0.745557	1.125362
H226	H	0.270470	-0.677234	1.101357
H227	H	0.331577	-0.707899	1.060688
H228	H	0.228461	-0.728086	1.100187
H229	H	0.289565	-0.758761	1.059528
O230	O	0.257166	-0.576206	0.905951
C231	C	0.272299	-0.607744	0.869675
H232	H	0.236967	-0.628956	0.888570
H233	H	0.274357	-0.575506	0.822173
C234	C	0.377172	-0.631039	0.845485
C235	C	0.333780	-0.657095	0.868695
H236	H	0.415098	-0.661479	0.844878
H237	H	0.366977	-0.609789	0.869923
H238	H	0.378880	-0.604174	0.805902
H239	H	0.332067	-0.683953	0.908279
H240	H	0.343976	-0.678351	0.844263
H241	H	0.023705	-0.518748	0.655609
O242	O	0.055204	-0.475111	0.699101
C243	C	0.018934	-0.422540	0.667466
H244	H	0.043119	-0.413820	0.617314
H245	H	-0.025104	-0.428233	0.680818
C246	C	-0.023573	-0.379914	0.744219
C247	C	0.006134	-0.369201	0.682621
H248	H	-0.031471	-0.347012	0.753569
H249	H	0.000862	-0.415333	0.765534
H250	H	-0.060267	-0.384659	0.755338
H251	H	0.042831	-0.364464	0.671505
H252	H	-0.018294	-0.333780	0.661305
O253	O	0.215884	-0.617241	0.557038
C254	C	0.274760	-0.626139	0.548156
H255	H	0.274650	-0.588351	0.555164
H256	H	0.292739	-0.670800	0.581510
C257	C	0.315071	-0.672989	0.475323
C258	C	0.314936	-0.626574	0.483926
H259	H	0.339854	-0.673260	0.435704
H260	H	0.275405	-0.666997	0.481309
H261	H	0.330052	-0.710201	0.503122
H262	H	0.299948	-0.589362	0.456133
H263	H	0.354600	-0.632560	0.477935
H264	H	0.247325	-0.573698	0.600612
H265	H	0.418403	-0.619300	0.682106
H266	H	0.200842	-0.263395	0.554238
O267	O	0.536916	-0.466801	0.569314
C268	C	0.495808	-0.408341	0.565966
H269	H	0.451118	-0.405895	0.570086
H270	H	0.489163	-0.396639	0.603941
C271	C	0.575135	-0.366599	0.500386
C272	C	0.520248	-0.363593	0.505440
H273	H	0.590212	-0.338995	0.463052
H274	H	0.602831	-0.405984	0.502643
H275	H	0.569591	-0.356848	0.532036
H276	H	0.525795	-0.373351	0.473796
H277	H	0.492554	-0.324208	0.503177
H278	H	0.162897	-0.149674	0.516363
H279	H	0.070133	-0.149706	0.702094
H280	H	0.108067	-0.263426	0.739970
