data_functionalizedCrystal
_audit_creation_method	'MofGen! by Chris Wilmer'
_symmetry_space_group_name_H-M	'P1'
_symmetry_Int_Tables_number	1
_symmetry_cell_setting	triclinic
loop_
_symmetry_equiv_pos_as_xyz
  x,y,z
_cell_length_a	15.944493
_cell_length_b	15.944564
_cell_length_c	9.730217
_cell_angle_alpha	90.003793
_cell_angle_beta	89.998688
_cell_angle_gamma	96.510511
loop_
_atom_site_label
_atom_site_type_symbol
_atom_site_fract_x
_atom_site_fract_y
_atom_site_fract_z
O1	O	0.108386	-1.114490	0.114128
O2	O	0.121732	-0.869939	0.114160
O3	O	-0.007219	-0.998918	0.114155
O4	O	0.237337	-0.985511	0.114134
O5	O	-0.007224	-0.998917	-0.114425
O6	O	0.121727	-0.869938	-0.114420
O7	O	0.108382	-1.114488	-0.114452
Zn8	Zn	0.115054	-0.992213	-0.150728
Zn9	Zn	0.115060	-0.992215	0.150436
O10	O	0.237332	-0.985509	-0.114446
C11	C	0.121173	-0.838645	-0.000125
C12	C	0.119507	-0.745400	-0.000112
C13	C	0.035590	-0.530562	-0.000131
C14	C	0.074553	-0.469535	0.112567
C15	C	0.116492	-0.574675	-0.000128
C16	C	0.074568	-0.469555	-0.112795
C17	C	0.113573	-0.409764	-0.000150
C18	C	0.155477	-0.514877	0.112664
C19	C	0.155480	-0.514903	-0.112800
C20	C	0.194502	-0.453894	-0.000073
C21	C	0.118171	-0.669677	-0.000115
C22	C	0.111901	-0.314764	-0.000153
C23	C	-0.038516	-0.998369	-0.000129
C24	C	-0.131765	-0.996727	-0.000111
C25	C	-0.367521	-1.072647	-0.000147
C26	C	-0.418089	-1.031707	0.112559
C27	C	-0.302486	-0.993683	-0.000128
C28	C	-0.418069	-1.031687	-0.112803
C29	C	-0.467396	-0.990748	-0.000150
C30	C	-0.351825	-0.952764	0.112672
C31	C	-0.351803	-0.952755	-0.112792
C32	C	-0.402337	-0.911757	-0.000058
C33	C	-0.207486	-0.995375	-0.000114
C34	C	-0.562393	-0.989049	-0.000154
C35	C	0.268629	-0.986058	-0.000159
C36	C	0.361878	-0.987701	-0.000168
N37	N	0.115049	-0.992217	-0.356264
C38	C	0.108928	-0.145785	-0.000163
C39	C	0.110561	-0.239034	-0.000167
N40	N	0.115058	-0.992217	0.355973
C41	C	0.001083	-1.106652	0.355959
C42	C	-0.055911	-1.163867	0.427892
C43	C	-0.055920	-1.163866	0.571771
C44	C	0.001072	-1.106647	0.643722
C45	C	0.058065	-1.049432	0.571789
C46	C	0.058067	-1.049437	0.427906
C47	C	0.172042	-0.935003	0.571803
C48	C	0.172049	-0.934998	0.427923
C49	C	0.229034	-0.877783	0.643753
C50	C	0.286025	-0.820563	0.571820
C51	C	0.286032	-0.820566	0.427932
C52	C	0.229043	-0.877783	0.355990
H53	H	0.189668	-0.535027	-0.208089
H54	H	0.001078	-1.106651	0.238804
O55	O	0.229052	-0.877795	0.200806
H56	H	0.215457	-0.815095	0.162855
H57	H	-0.102311	-1.210456	0.369297
H58	H	-0.447031	-1.065055	0.207837
O59	O	-0.456376	-1.075875	-0.239025
H60	H	-0.428788	-1.043715	-0.332467
H61	H	0.332446	-0.773978	0.369372
O62	O	-0.313436	-0.908624	-0.239001
H63	H	-0.243967	-0.909750	-0.237283
O64	O	-0.053368	-0.574666	-0.000032
H65	H	-0.086755	-0.556606	0.093653
H66	H	0.040337	-0.449433	0.207852
O67	O	-0.117392	-1.225570	0.649370
H68	H	-0.157024	-1.265355	0.575174
O69	O	0.001064	-1.106641	0.798907
H70	H	-0.048144	-1.156035	0.836838
O71	O	-0.313663	-0.908627	0.239038
H72	H	-0.244255	-0.910244	0.238083
O73	O	-0.422813	-0.821586	-0.000002
H74	H	-0.396024	-0.789010	0.093635
O75	O	0.229022	-0.877770	0.798938
H76	H	0.179810	-0.927158	0.836873
O77	O	0.347472	-0.758845	0.649435
H78	H	0.388389	-0.794107	0.715002
O79	O	0.200740	-0.541336	0.239044
H80	H	0.201579	-0.610846	0.238097
H81	H	0.261709	-0.420722	-0.000016
O82	O	0.029233	-0.442961	-0.239011
H83	H	-0.036704	-0.473978	-0.238759
O84	O	-0.346794	-1.162736	-0.000013
H85	H	-0.373466	-1.195324	0.093685
