data_functionalizedCrystal
_audit_creation_method	'MofGen! by Chris Wilmer'
_symmetry_space_group_name_H-M	'P1'
_symmetry_Int_Tables_number	1
_symmetry_cell_setting	triclinic
loop_
_symmetry_equiv_pos_as_xyz
  x,y,z
_cell_length_a	27.732048
_cell_length_b	15.944493
_cell_length_c	14.421503
_cell_angle_alpha	89.992936
_cell_angle_beta	89.999321
_cell_angle_gamma	83.058849
loop_
_atom_site_label
_atom_site_type_symbol
_atom_site_fract_x
_atom_site_fract_y
_atom_site_fract_z
O1	O	0.062200	1.113746	-0.077110
O2	O	0.069916	0.869089	-0.077115
O3	O	-0.004307	0.999016	-0.077095
O4	O	0.136423	0.983819	-0.077130
O5	O	-0.004296	0.998995	0.077129
O6	O	0.069927	0.869067	0.077108
O7	O	0.062211	1.113725	0.077114
Cu8	Cu	0.066070	0.991394	0.091193
Cu9	Cu	0.066057	0.991420	-0.091194
O10	O	0.136434	0.983798	0.077093
C11	C	0.069606	0.837788	-0.000004
C12	C	0.068660	0.744551	-0.000006
C13	C	0.112349	0.508220	-0.000017
C14	C	0.088795	0.457959	0.076033
C15	C	0.066909	0.573853	-0.000003
C16	C	0.088773	0.457985	-0.076019
C17	C	0.065220	0.408966	-0.000005
C18	C	0.043367	0.524820	0.076109
C19	C	0.043352	0.524850	-0.076011
C20	C	0.019764	0.474622	0.000058
C21	C	0.067883	0.668840	-0.000002
C22	C	0.064242	0.313981	-0.000001
C23	C	-0.022310	0.998686	0.000020
C24	C	-0.075968	0.997726	0.000027
C25	C	-0.414486	1.068457	-0.000019
C26	C	-0.616160	1.064893	-0.000032
O27	O	-0.647144	1.129571	-0.000071
N28	N	-0.635608	0.987851	-0.000033
C29	C	-0.604635	0.911696	-0.000037
O30	O	-0.625804	0.846085	-0.000047
C31	C	-0.402961	0.915260	-0.000030
C32	C	-0.383516	0.992307	-0.000020
C33	C	-0.395040	1.145497	-0.000009
C34	C	-0.344624	1.146387	-0.000001
C35	C	-0.313654	1.070237	-0.000002
C36	C	-0.333100	0.993197	-0.000011
C37	C	-0.371988	0.839106	-0.000041
C38	C	-0.321567	0.840004	-0.000041
C39	C	-0.302122	0.917050	-0.000031
C40	C	-0.251714	0.917937	-0.000004
N41	N	-0.232266	0.994979	-0.000003
C42	C	-0.263236	1.071129	-0.000002
C43	C	-0.710516	0.909829	-0.000038
C44	C	-0.760935	0.908938	-0.000038
C45	C	-0.772457	1.062135	-0.000035
C46	C	-0.722038	1.063026	-0.000028
C47	C	-0.691068	0.986871	-0.000037
C48	C	-0.157359	1.072992	0.000016
C49	C	-0.106938	1.073876	0.000028
C50	C	-0.095421	0.920679	0.000020
C51	C	-0.145837	0.919795	0.000013
C52	C	-0.176805	0.995958	0.000008
O53	O	-0.220703	0.853293	0.000024
O54	O	-0.242057	1.136729	-0.000012
C55	C	-0.464901	1.067567	-0.000027
C56	C	-0.484347	0.990526	-0.000036
C57	C	-0.453377	0.914377	-0.000037
C58	C	-0.534765	0.989635	-0.000036
C59	C	-0.565735	1.065785	-0.000035
C60	C	-0.546287	1.142826	-0.000034
C61	C	-0.495871	1.143717	-0.000026
C62	C	-0.472825	0.837335	-0.000038
C63	C	-0.523241	0.836451	-0.000046
C64	C	-0.554211	0.912601	-0.000045
C65	C	0.154436	0.984127	-0.000023
C66	C	0.208095	0.985088	-0.000037
C67	C	0.062521	1.145026	0.000001
C68	C	0.063467	1.238262	-0.000004
N69	N	0.066079	0.991382	0.219474
N70	N	0.066044	0.991438	-0.219476
C71	C	0.100384	0.931294	0.469118
C72	C	0.109759	1.007073	0.530920
C73	C	0.066067	0.991403	0.408635
C74	C	0.056704	0.915643	0.530928
C75	C	0.066057	0.991416	0.591357
C76	C	0.075464	1.067220	0.469076
C77	C	0.022390	0.975740	0.469079
C78	C	0.031746	1.051575	0.530852
C79	C	0.066074	0.991394	0.303374
C80	C	0.066050	0.991433	0.696616
H81	H	-0.019408	0.459669	0.000112
O82	O	0.138851	0.864028	0.433198
H83	H	0.175068	0.877245	0.457966
H84	H	-0.014531	0.962457	0.441894
O85	O	0.017948	0.563547	-0.161166
H86	H	-0.013412	0.609378	-0.139769
H87	H	0.024192	0.553890	0.140468
O88	O	0.046213	0.830774	0.566922
H89	H	0.041334	0.788304	0.507563
O90	O	-0.062010	0.838550	0.000016
H91	H	-0.068918	0.801637	0.062874
H92	H	0.107968	0.428805	-0.140305
H93	H	-0.571512	1.204830	-0.000029
O94	O	0.114215	0.419280	0.161187
H95	H	0.145147	0.372552	0.139764
O96	O	-0.085964	1.156978	0.000025
H97	H	-0.115973	1.209778	0.000010
O98	O	-0.781902	0.825835	-0.000031
H99	H	-0.822164	0.837999	-0.000022
H100	H	-0.182568	1.135012	0.000008
O101	O	-0.288165	0.757861	-0.000037
H102	H	-0.295080	0.720966	-0.062895
O103	O	-0.323653	1.229487	-0.000017
H104	H	-0.353665	1.282282	-0.000033
H105	H	-0.480044	1.206456	-0.000018
H106	H	-0.706209	1.125764	-0.000021
O107	O	-0.428440	1.227637	0.000005
H108	H	-0.406440	1.281348	0.000021
H109	H	-0.387811	0.776366	-0.000055
O110	O	-0.805864	1.144272	-0.000041
H111	H	-0.844188	1.130701	-0.000050
H112	H	-0.685305	0.847811	-0.000045
O113	O	-0.166815	0.836698	0.000005
H114	H	-0.136807	0.783897	0.000001
H115	H	-0.539068	0.773706	-0.000046
H116	H	-0.447614	0.775323	-0.000041
O117	O	0.158673	1.024614	0.566960
H118	H	0.187101	0.974620	0.542260
H119	H	0.083424	1.131308	0.442022
H120	H	0.002720	1.102468	0.557788
H121	H	0.151492	0.523332	0.000044
