data_functionalizedCrystal
_audit_creation_method	'MofGen! by Chris Wilmer'
_symmetry_space_group_name_H-M	'P1'
_symmetry_Int_Tables_number	1
_symmetry_cell_setting	triclinic
loop_
_symmetry_equiv_pos_as_xyz
  x,y,z
_cell_length_a	12.759401
_cell_length_b	12.827892
_cell_length_c	12.759393
_cell_angle_alpha	90.029782
_cell_angle_beta	90.020938
_cell_angle_gamma	90.016917
loop_
_atom_site_label
_atom_site_type_symbol
_atom_site_fract_x
_atom_site_fract_y
_atom_site_fract_z
Zn1	Zn	1.606261	-0.415940	0.594025
Zn2	Zn	1.606150	-0.590717	0.418348
Zn3	Zn	1.430560	-0.415996	0.418361
Zn4	Zn	1.430550	-0.590644	0.593985
O5	O	1.518380	-0.503324	0.506180
O6	O	1.753268	-0.439132	0.570733
O7	O	1.582816	-0.567594	0.271328
O8	O	1.453918	-0.269752	0.441685
O9	O	1.753186	-0.567540	0.441663
O10	O	1.583005	-0.269711	0.570745
O11	O	1.453810	-0.439227	0.271338
O12	O	1.283538	-0.439156	0.441646
O13	O	1.453900	-0.567416	0.741011
O14	O	1.283530	-0.567469	0.570676
O15	O	1.582995	-0.439061	0.741041
O16	O	1.582806	-0.736944	0.441624
O17	O	1.453793	-0.736890	0.570664
C18	C	1.245413	-0.503312	0.506159
C19	C	1.128636	-0.503331	0.506175
C20	C	1.073798	-0.570246	0.573255
C21	C	0.964074	-0.570250	0.573276
C22	C	0.964036	-0.436422	0.439127
C23	C	1.073758	-0.436413	0.439112
C24	C	1.518315	-0.774834	0.506161
C25	C	1.518383	-0.890987	0.506188
C26	C	1.582298	-0.942764	0.442406
C27	C	1.582370	-1.062814	0.442433
C28	C	1.792414	-0.503338	0.506201
C29	C	1.909190	-0.503344	0.506210
C30	C	1.518459	-0.503224	0.780213
C31	C	1.518492	-0.503181	0.896990
C32	C	1.518475	-0.230754	0.506221
C33	C	1.518515	-0.114601	0.506239
C34	C	1.518363	-0.503349	0.233212
C35	C	1.518533	-0.503097	0.116436
C36	C	1.585717	-0.436336	0.951869
C37	C	1.585735	-0.436291	1.061593
C38	C	1.451301	-0.569945	1.061549
C39	C	1.451278	-0.569984	0.951827
H40	H	1.118476	-0.624732	0.627864
H41	H	1.637087	-1.107341	0.387824
C42	C	1.659645	-0.362842	0.891552
N43	N	1.715326	-0.307480	0.846124
C44	C	1.444525	-0.951166	0.579987
N45	N	1.388892	-0.996491	0.635572
H46	H	0.919429	-0.624737	0.627901
C47	C	1.134084	-0.362798	0.365314
N48	N	1.179521	-0.307353	0.309734
C49	C	1.659690	-0.362759	1.121955
N50	N	1.715396	-0.307371	1.167419
H51	H	1.396580	-0.624336	1.106211
H52	H	0.919341	-0.381941	0.384525
C53	C	1.377319	-0.643519	0.891457
N54	N	1.321612	-0.698901	0.845985
C55	C	1.656153	-0.882586	0.368605
N56	N	1.711781	-0.837261	0.313014
H57	H	1.463788	-1.070082	0.560844
