data_functionalizedCrystal
_audit_creation_method	'MofGen! by Chris Wilmer'
_symmetry_space_group_name_H-M	'P1'
_symmetry_Int_Tables_number	1
_symmetry_cell_setting	triclinic
loop_
_symmetry_equiv_pos_as_xyz
  x,y,z
_cell_length_a	6.817900
_cell_length_b	17.078472
_cell_length_c	11.102193
_cell_angle_alpha	95.114488
_cell_angle_beta	108.604059
_cell_angle_gamma	99.306020
loop_
_atom_site_label
_atom_site_type_symbol
_atom_site_fract_x
_atom_site_fract_y
_atom_site_fract_z
V1	V	-4.064552	-0.109773	-0.396130
O2	O	-4.072802	0.005269	-0.388720
O3	O	-3.995176	-0.217656	-0.393294
O4	O	-4.042048	-0.108087	-0.568953
O5	O	-4.025605	-0.105058	-0.211845
V6	V	-4.547543	-0.096012	-0.374103
O7	O	-4.326979	-0.139958	-0.444447
O8	O	-4.735314	-0.065827	-0.325786
O9	O	-4.393713	0.011870	-0.376939
O10	O	-4.656690	-0.211054	-0.381513
O11	O	-4.703887	-0.100727	-0.558388
O12	O	-4.346841	-0.097698	-0.201280
C13	C	-3.834236	-0.243955	-0.387013
C14	C	-3.858972	-0.332151	-0.385846
C15	C	-4.052871	-0.377626	-0.391633
C16	C	-4.076105	-0.460496	-0.390544
C17	C	-3.905433	-0.497887	-0.383660
C18	C	-3.711520	-0.452406	-0.377877
C19	C	-3.688293	-0.369539	-0.378975
C20	C	-3.955357	-0.745291	-0.379706
C21	C	-3.978598	-0.828164	-0.378605
C22	C	-4.343183	-0.836248	-0.391275
C23	C	-4.319935	-0.753378	-0.392364
C24	C	-4.126029	-0.707905	-0.386588
N25	N	-3.929175	-0.582593	-0.382543
N26	N	-4.102293	-0.623202	-0.387714
C27	C	-3.894025	-0.104188	-0.611082
C28	C	-3.956769	-0.103524	-0.752365
C29	C	-4.014932	-0.248835	-0.788523
C30	C	-4.073484	-0.321175	-0.872975
C31	C	-4.132439	-0.320546	-1.005721
C32	C	-4.132847	-0.247569	-1.054017
C33	C	-4.074295	-0.175229	-0.969566
C34	C	-4.015336	-0.175866	-0.836818
C35	C	-4.016148	-0.029920	-0.933408
C36	C	-3.957177	-0.030547	-0.800661
C37	C	-4.016556	0.043057	-0.981705
C38	C	-3.957989	0.115399	-0.897252
C39	C	-3.899029	0.114767	-0.764498
C40	C	-3.898626	0.041793	-0.716209
C41	C	-4.217994	0.038166	-0.383217
C42	C	-4.172497	0.126360	-0.384392
C43	C	-4.158205	-0.101600	-0.159145
C44	C	-4.074699	-0.102260	-0.017860
H45	H	-4.458923	-0.722941	-0.397979
H46	H	-3.797466	-0.708276	-0.374995
H47	H	-3.839619	-0.858609	-0.373029
H48	H	-3.572561	-0.482858	-0.372279
H49	H	-3.958341	0.174811	-0.936587
H50	H	-3.966899	-0.249354	-0.680434
H51	H	-4.501055	-0.873281	-0.395978
C52	C	-3.833775	0.041099	-0.570192
H53	H	-3.798950	0.094632	-0.526808
H54	H	-3.947811	0.011581	-0.550978
H55	H	-3.714520	0.016663	-0.542704
H56	H	-3.530404	-0.332514	-0.374268
H57	H	-4.073151	-0.380592	-0.833638
H58	H	-4.064578	0.043564	-1.089796
H59	H	-4.233996	-0.497519	-0.395258
C60	C	-4.240611	-0.336502	-0.399198
H61	H	-4.359422	-0.375458	-0.402497
H62	H	-4.203738	-0.297095	-0.325440
H63	H	-4.274527	-0.311593	-0.474346
H64	H	-4.180119	-0.379452	-1.074484
C65	C	-4.197683	-0.246874	-1.200034
H66	H	-4.189541	-0.193054	-1.216702
H67	H	-4.105120	-0.271030	-1.232598
H68	H	-4.338412	-0.276099	-1.240882
H69	H	-3.851366	0.173676	-0.695743
