data_functionalizedCrystal
_audit_creation_method	'MofGen! by Chris Wilmer'
_symmetry_space_group_name_H-M	'P1'
_symmetry_Int_Tables_number	1
_symmetry_cell_setting	triclinic
loop_
_symmetry_equiv_pos_as_xyz
  x,y,z
_cell_length_a	23.096457
_cell_length_b	14.809436
_cell_length_c	14.809374
_cell_angle_alpha	60.797024
_cell_angle_beta	89.998277
_cell_angle_gamma	67.422835
loop_
_atom_site_label
_atom_site_type_symbol
_atom_site_fract_x
_atom_site_fract_y
_atom_site_fract_z
Zr1	Zr	0.639521	0.955191	-0.203712
O2	O	0.568592	1.113117	-0.350873
O3	O	0.651225	0.777420	-0.145631
O4	O	0.674907	0.926569	-0.332175
O5	O	0.537650	0.993465	-0.031931
O6	O	0.770189	0.926565	-0.332178
O7	O	0.544911	0.963968	-0.164329
O8	O	0.727827	0.659765	0.001515
O9	O	0.580012	1.260265	-0.365624
O10	O	0.739454	0.857886	-0.136530
O11	O	0.662927	0.879902	-0.037721
O12	O	0.690809	1.055506	-0.257353
O13	O	0.614283	1.077522	-0.158544
Zr14	Zr	0.779905	1.002228	0.007443
Zr15	Zr	0.791485	0.955184	-0.203716
Zr16	Zr	0.627941	1.002234	0.007447
Zr17	Zr	0.657734	1.189875	-0.227239
Zr18	Zr	0.761692	0.767543	0.030970
O19	O	0.768201	1.179998	-0.050638
O20	O	0.784666	1.113108	-0.350878
O21	O	0.552127	1.180007	-0.050632
O22	O	0.850834	0.844301	0.154604
O23	O	0.867299	0.777411	-0.145637
O24	O	0.634760	0.844310	0.154610
O25	O	0.881776	0.963954	-0.164338
O26	O	0.744519	1.030849	0.135906
O27	O	0.649237	1.030853	0.135909
O28	O	0.874515	0.993450	-0.031940
O29	O	0.700803	1.260260	-0.365628
O30	O	0.718623	0.697158	0.169359
O31	O	0.839414	0.697153	0.169355
O32	O	0.848619	0.659759	0.001512
O33	O	0.570807	1.297659	-0.197781
O34	O	0.691599	1.297654	-0.197784
O35	O	0.728617	0.901912	0.061084
O36	O	0.805144	0.879896	-0.037725
O37	O	0.756499	1.077516	-0.158548
O38	O	0.679972	1.099532	-0.059739
C39	C	0.686932	0.685155	-0.068706
C40	C	0.679200	0.585525	-0.058718
C41	C	0.705715	0.427230	-0.092983
C42	C	0.713715	0.530190	-0.103292
C43	C	0.519629	0.978717	-0.098130
C44	C	0.455116	0.978720	-0.098128
C45	C	0.428814	0.962478	-0.171072
C46	C	0.368201	0.962467	-0.171071
C47	C	0.333887	0.978721	-0.098135
C48	C	0.360197	0.994958	-0.025177
C49	C	0.420812	0.994958	-0.025173
N50	N	0.219879	1.055231	-0.083231
N51	N	0.162297	1.055233	-0.083241
C52	C	0.151258	0.978721	-0.098140
N53	N	0.199972	0.902218	-0.113050
N54	N	0.257558	0.902221	-0.113046
C55	C	0.268160	0.978722	-0.098131
C56	C	0.059233	0.962464	-0.171088
C57	C	-0.001380	0.962446	-0.171079
C58	C	-0.009386	0.994949	-0.025190
C59	C	0.051228	0.994955	-0.025193
C60	C	0.085533	0.978717	-0.098148
C61	C	0.899797	0.978701	-0.098139
C62	C	0.964310	0.978698	-0.098141
C63	C	0.724198	0.919865	-0.362262
C64	C	0.729114	0.899893	-0.451904
C65	C	0.732495	1.272263	-0.127563
C66	C	0.740226	1.371893	-0.137551
C67	C	0.707174	0.989023	-0.551806
C68	C	0.712255	0.968383	-0.644458
C69	C	0.695228	1.037553	0.165993
C70	C	0.690312	1.057525	0.255635
C71	C	0.877015	0.685147	-0.068711
C72	C	0.933796	0.585514	-0.058724
C73	C	0.672447	0.743999	0.195422
C74	C	0.659799	0.664341	0.295052
C75	C	0.862531	0.743991	0.195417
C76	C	0.914396	0.664330	0.295046
C77	C	0.556895	1.213427	-0.391686
C78	C	0.505030	1.293088	-0.491314
C79	C	0.542411	1.272271	-0.127558
C80	C	0.485630	1.371904	-0.137545
C81	C	0.746979	1.213419	-0.391691
C82	C	0.759627	1.293077	-0.491321
C83	C	0.926173	0.527235	-0.105619
C84	C	0.979520	0.433628	-0.096257
C85	C	1.040491	0.398298	-0.039994
C86	C	1.048114	0.456587	0.006902
C87	C	0.994767	0.550197	-0.002467
C88	C	0.688148	0.638424	0.393424
C89	C	0.676262	0.563591	0.487044
C90	C	0.636030	0.514671	0.482290
C91	C	0.607678	0.540595	0.383908
C92	C	0.619560	0.615433	0.290290
C93	C	0.978704	0.615428	0.290255
C94	C	1.027444	0.540589	0.383857
C95	C	1.011873	0.514647	0.482250
C96	C	0.947558	0.563558	0.487037
C97	C	0.898820	0.638402	0.393435
C98	C	0.440723	1.342001	-0.486525
C99	C	0.391985	1.416869	-0.580130
C100	C	0.407556	1.442816	-0.678523
C101	C	0.471871	1.393900	-0.683310
C102	C	0.520607	1.319039	-0.589707
C103	C	0.493255	1.430191	-0.090660
C104	C	0.439910	1.523818	-0.100048
C105	C	0.378940	1.559152	-0.156314
C106	C	0.371316	1.500859	-0.203205
C107	C	0.424661	1.407239	-0.193823
C108	C	0.799862	1.341975	-0.486533
C109	C	0.811759	1.416812	-0.580137
C110	C	0.783416	1.442756	-0.678528
C111	C	0.743179	1.393849	-0.683313
C112	C	0.731287	1.319008	-0.589710
H113	H	0.749189	0.559029	-0.149079
H114	H	0.339621	1.456686	-0.576212
H115	H	0.335509	1.635385	-0.163946
H116	H	0.698521	1.279202	-0.593623
H117	H	0.367865	1.503773	-0.754733
N118	N	0.729250	0.688370	0.398315
N119	N	0.754551	0.665210	0.486165
H120	H	0.783578	0.700484	0.489628
N121	N	1.110397	0.420495	0.064362
N122	N	1.155777	0.420935	0.018417
H123	H	1.199766	0.395439	0.059003
N124	N	0.931650	0.537063	0.587539
N125	N	0.904326	0.615784	0.605363
H126	H	0.893091	0.597065	0.676346
N127	N	0.833125	0.688321	0.398323
N128	N	0.789606	0.755126	0.314754
H129	H	0.743207	0.790373	0.318211
N130	N	0.661208	0.391066	-0.035559
N131	N	0.602627	0.459284	-0.064751
H132	H	0.571191	0.433748	-0.024195
H133	H	0.442227	1.008184	0.034228
H134	H	0.626360	0.453735	0.558529
H135	H	0.684633	1.080609	-0.568743
H136	H	1.051565	0.453703	0.558458
N137	N	0.487760	1.420426	-0.783829
N138	N	0.444233	1.487265	-0.867387
H139	H	0.455452	1.506000	-0.938381
N140	N	0.424796	1.315516	-0.386036
N141	N	0.367371	1.359213	-0.381795
H142	H	0.356117	1.340516	-0.310827
N143	N	0.586293	1.269088	-0.594626
N144	N	0.600179	1.292270	-0.682489
H145	H	0.646570	1.256996	-0.685972
N146	N	0.309031	1.536976	-0.260677
N147	N	0.261412	1.620565	-0.269034
H148	H	0.217421	1.646073	-0.309620
N149	N	0.416852	1.347702	-0.241704
N150	N	0.379964	1.300367	-0.214587
H151	H	0.374443	1.258322	-0.248407
N152	N	0.971737	0.374085	-0.144154
N153	N	1.001800	0.369413	-0.213131
H154	H	0.996303	0.327361	-0.246958
H155	H	0.643728	0.556683	-0.012926
N156	N	0.662039	1.172433	-0.765639
N157	N	0.694408	1.205844	-0.732648
H158	H	0.674441	1.286997	-0.747673
N159	N	0.447718	1.583339	-0.052142
N160	N	0.502159	1.551764	-0.001899
H161	H	0.507676	1.593798	0.031936
N162	N	0.590595	0.641888	0.189817
N163	N	0.554678	0.598193	0.185600
H164	H	0.534218	0.616873	0.114643
H165	H	0.775698	0.400737	-0.183335
N166	N	0.757384	0.784995	-0.430645
N167	N	0.733281	0.717994	-0.379065
H168	H	0.753246	0.636843	-0.364047
N169	N	0.795554	1.519225	-0.774141
N170	N	0.749827	1.610204	-0.845235
H171	H	0.758401	1.664214	-0.912760
N172	N	0.705244	0.537092	0.587531
N173	N	0.741993	0.435201	0.657557
H174	H	0.762464	0.416484	0.728525
H175	H	0.822945	1.320865	-0.406428
N176	N	0.852862	1.466748	-0.575216
N177	N	0.878155	1.443578	-0.487357
H178	H	0.907184	1.478843	-0.483877
H179	H	1.000983	0.597638	0.035727
N180	N	0.714237	1.420366	-0.783830
N181	N	0.724863	1.487196	-0.867388
H182	H	0.704421	1.505932	-0.938382
N183	N	1.094960	0.302589	-0.030332
N184	N	1.088127	0.250510	-0.072138
H185	H	1.126588	0.182880	-0.065275
H186	H	1.079809	0.500772	0.379941
H187	H	0.456745	0.949253	-0.230474
H188	H	0.542894	1.401433	-0.044836
H189	H	0.346782	0.949240	-0.230473
N190	N	0.566585	0.490610	0.379081
N191	N	0.555989	0.423788	0.462685
H192	H	0.526970	0.388478	0.459281
N193	N	0.863900	0.563288	-0.163087
N194	N	0.857114	0.511229	-0.204947
H195	H	0.813136	0.536686	-0.245538
N196	N	0.994617	0.641903	0.189759
N197	N	1.021946	0.563161	0.171962
H198	H	1.033189	0.581857	0.100988
N199	N	0.325133	1.011576	0.049306
N200	N	0.270780	1.094975	0.016800
H201	H	0.246016	1.106709	0.069407
N202	N	0.094288	0.945826	-0.245575
N203	N	0.109840	0.855156	-0.245614
H204	H	0.134602	0.843394	-0.298212
N205	N	-0.028236	0.945839	-0.245593
N206	N	0.002404	0.931340	-0.310718
H207	H	-0.016563	0.919610	-0.363346
H208	H	0.734803	0.876791	-0.627513
H209	H	-0.037324	1.008177	0.034200
H210	H	0.072643	1.008187	0.034201
