data_functionalizedCrystal
_audit_creation_method	'MofGen! by Chris Wilmer'
_symmetry_space_group_name_H-M	'P1'
_symmetry_Int_Tables_number	1
_symmetry_cell_setting	triclinic
loop_
_symmetry_equiv_pos_as_xyz
  x,y,z
_cell_length_a	18.215407
_cell_length_b	18.050590
_cell_length_c	18.215399
_cell_angle_alpha	89.971265
_cell_angle_beta	89.980167
_cell_angle_gamma	90.019000
loop_
_atom_site_label
_atom_site_type_symbol
_atom_site_fract_x
_atom_site_fract_y
_atom_site_fract_z
Zn1	Zn	1.125104	-0.295658	-0.416112
Zn2	Zn	1.375104	-0.045658	-0.166112
Zn3	Zn	1.625104	0.204342	0.083888
Zn4	Zn	1.875104	0.454342	0.333888
Zn5	Zn	1.125026	-0.419853	-0.293044
Zn6	Zn	1.375026	-0.169853	-0.043044
Zn7	Zn	1.625026	0.080147	0.206956
Zn8	Zn	1.875026	0.330147	0.456956
Zn9	Zn	1.002037	-0.295682	-0.293059
Zn10	Zn	1.252037	-0.045682	-0.043059
Zn11	Zn	1.502037	0.204318	0.206941
Zn12	Zn	1.752037	0.454318	0.456941
Zn13	Zn	1.002016	-0.419812	-0.416069
Zn14	Zn	1.252016	-0.169812	-0.166069
Zn15	Zn	1.502016	0.080188	0.083931
Zn16	Zn	1.752016	0.330188	0.333931
O17	O	1.063546	-0.357751	-0.354571
O18	O	1.313546	-0.107751	-0.104571
O19	O	1.563546	0.142249	0.145429
O20	O	1.813546	0.392249	0.395429
O21	O	1.228078	-0.312140	-0.399798
O22	O	1.478078	-0.062140	-0.149798
O23	O	1.728078	0.187860	0.100202
O24	O	1.978078	0.437860	0.350202
O25	O	1.108687	-0.403409	-0.190062
O26	O	1.358687	-0.153409	0.059938
O27	O	1.608687	0.096591	0.309938
O28	O	1.858687	0.346591	0.559938
O29	O	1.018403	-0.191755	-0.309407
O30	O	1.268403	0.058245	-0.059407
O31	O	1.518403	0.308245	0.190593
O32	O	1.768403	0.558245	0.440593
O33	O	1.228021	-0.403386	-0.309381
O34	O	1.478021	-0.153386	-0.059381
O35	O	1.728021	0.096614	0.190619
O36	O	1.978021	0.346614	0.440619
O37	O	1.108820	-0.191737	-0.399813
O38	O	1.358820	0.058263	-0.149813
O39	O	1.608820	0.308263	0.100187
O40	O	1.858820	0.558263	0.350187
O41	O	1.018328	-0.312181	-0.190073
O42	O	1.268328	-0.062181	0.059927
O43	O	1.518328	0.187819	0.309927
O44	O	1.768328	0.437819	0.559927
O45	O	0.899050	-0.312141	-0.309365
O46	O	1.149050	-0.062141	-0.059365
O47	O	1.399050	0.187859	0.190635
O48	O	1.649050	0.437859	0.440635
O49	O	1.018368	-0.403315	-0.519059
O50	O	1.268368	-0.153315	-0.269059
O51	O	1.518368	0.096685	-0.019059
O52	O	1.768368	0.346685	0.230941
O53	O	0.899035	-0.403339	-0.399740
O54	O	1.149035	-0.153339	-0.149740
O55	O	1.399035	0.096661	0.100260
O56	O	1.649035	0.346661	0.350260
O57	O	1.108801	-0.312100	-0.519090
O58	O	1.358801	-0.062100	-0.269090
O59	O	1.608801	0.187900	-0.019090
O60	O	1.858801	0.437900	0.230910
O61	O	1.108668	-0.523772	-0.309339
O62	O	1.358668	-0.273772	-0.059339
O63	O	1.608668	-0.023772	0.190661
O64	O	1.858668	0.226228	0.440661
O65	O	1.018293	-0.523742	-0.399725
O66	O	1.268293	-0.273742	-0.149725
O67	O	1.518293	-0.023742	0.100275
O68	O	1.768293	0.226258	0.350275
C69	C	0.872340	-0.357739	-0.354550
C70	C	1.122340	-0.107739	-0.104550
C71	C	1.372340	0.142261	0.145450
C72	C	1.622340	0.392261	0.395450
C73	C	0.790541	-0.357751	-0.354558
C74	C	1.040541	-0.107751	-0.104558
C75	C	1.290541	0.142249	0.145442
C76	C	1.540541	0.392249	0.395442
C77	C	1.063489	-0.550704	-0.354542
C78	C	1.313489	-0.300704	-0.104542
C79	C	1.563489	-0.050704	0.145458
C80	C	1.813489	0.199296	0.395458
C81	C	1.063533	-0.633249	-0.354554
C82	C	1.313533	-0.383249	-0.104554
C83	C	1.563533	-0.133249	0.145446
C84	C	1.813533	0.116751	0.395446
C85	C	0.602358	-0.405312	-0.401557
C86	C	0.852358	-0.155312	-0.151557
C87	C	1.102358	0.094688	0.098443
C88	C	1.352358	0.344688	0.348443
C89	C	0.525500	-0.405315	-0.401566
C90	C	0.775500	-0.155315	-0.151566
C91	C	1.025500	0.094685	0.098434
C92	C	1.275500	0.344685	0.348434
C93	C	0.525486	-0.310204	-0.307601
C94	C	0.775486	-0.060204	-0.057601
C95	C	1.025486	0.189796	0.192399
C96	C	1.275486	0.439796	0.442399
C97	C	0.602343	-0.310199	-0.307596
C98	C	0.852343	-0.060199	-0.057596
C99	C	1.102343	0.189801	0.192404
C100	C	1.352343	0.439801	0.442404
C101	C	0.640777	-0.357757	-0.354573
C102	C	0.890777	-0.107757	-0.104573
C103	C	1.140777	0.142243	0.145427
C104	C	1.390777	0.392243	0.395427
C105	C	0.487061	-0.357765	-0.354587
C106	C	0.737061	-0.107765	-0.104587
C107	C	0.987061	0.142235	0.145413
C108	C	1.237061	0.392235	0.395413
C109	C	0.403728	-0.357767	-0.354597
C110	C	0.653728	-0.107767	-0.104597
C111	C	0.903728	0.142233	0.145403
C112	C	1.153728	0.392233	0.395403
C113	C	0.724116	-0.357754	-0.354565
C114	C	0.974116	-0.107754	-0.104565
C115	C	1.224116	0.142246	0.145435
C116	C	1.474116	0.392246	0.395435
C117	C	1.112781	-0.832689	-0.305470
C118	C	1.362781	-0.582689	-0.055470
C119	C	1.612781	-0.332689	0.194530
C120	C	1.862781	-0.082689	0.444530
C121	C	1.130758	-0.882022	-0.372637
C122	C	1.380758	-0.632022	-0.122637
C123	C	1.630758	-0.382022	0.127363
C124	C	1.880758	-0.132022	0.377363
C125	C	1.063574	-0.784380	-0.354583
C126	C	1.313574	-0.534380	-0.104583
C127	C	1.563574	-0.284380	0.145417
C128	C	1.813574	-0.034380	0.395417
C129	C	1.045672	-0.882129	-0.287446
C130	C	1.295672	-0.632129	-0.037446
C131	C	1.545672	-0.382129	0.212554
C132	C	1.795672	-0.132129	0.462554
C133	C	1.063616	-0.930365	-0.354605
C134	C	1.313616	-0.680365	-0.104605
C135	C	1.563616	-0.430365	0.145395
C136	C	1.813616	-0.180365	0.395395
C137	C	1.081586	-0.832624	-0.421785
C138	C	1.331586	-0.582624	-0.171785
C139	C	1.581586	-0.332624	0.078215
C140	C	1.831586	-0.082624	0.328215
C141	C	0.996469	-0.832728	-0.336549
C142	C	1.246469	-0.582728	-0.086549
C143	C	1.496469	-0.332728	0.163451
C144	C	1.746469	-0.082728	0.413451
C145	C	1.014421	-0.882038	-0.403762
C146	C	1.264421	-0.632038	-0.153762
C147	C	1.514421	-0.382038	0.096238
C148	C	1.764421	-0.132038	0.346238
C149	C	1.063552	-0.700281	-0.354569
C150	C	1.313552	-0.450281	-0.104569
C151	C	1.563552	-0.200281	0.145431
C152	C	1.813552	0.049719	0.395431
C153	C	1.063638	-1.014461	-0.354627
C154	C	1.313638	-0.764461	-0.104627
C155	C	1.563638	-0.514461	0.145373
C156	C	1.813638	-0.264461	0.395373
C157	C	1.255499	-0.357765	-0.354593
C158	C	1.505499	-0.107765	-0.104593
C159	C	1.755499	0.142235	0.145407
C160	C	2.005499	0.392235	0.395407
C161	C	1.337298	-0.357770	-0.354602
C162	C	1.587298	-0.107770	-0.104602
C163	C	1.837298	0.142230	0.145398
C164	C	2.087298	0.392230	0.395398
C165	C	1.063591	-0.357700	-0.546524
C166	C	1.313591	-0.107700	-0.296524
C167	C	1.563591	0.142300	-0.046524
C168	C	1.813591	0.392300	0.203476
C169	C	1.063610	-0.357678	-0.628323
C170	C	1.313610	-0.107678	-0.378323
C171	C	1.563610	0.142322	-0.128323
C172	C	1.813610	0.392322	0.121677
C173	C	1.063623	-0.164046	-0.354616
C174	C	1.313623	0.085954	-0.104616
C175	C	1.563623	0.335954	0.145384
C176	C	1.813623	0.585954	0.395384
C177	C	1.063656	-0.081500	-0.354636
C178	C	1.313656	0.168500	-0.104636
C179	C	1.563656	0.418500	0.145364
C180	C	1.813656	0.668500	0.395364
C181	C	1.110715	-0.310138	-0.816535
C182	C	1.360715	-0.060138	-0.566535
C183	C	1.610715	0.189862	-0.316535
C184	C	1.860715	0.439862	-0.066535
C185	C	1.110724	-0.310117	-0.893393
C186	C	1.360724	-0.060117	-0.643393
C187	C	1.610724	0.189883	-0.393393
C188	C	1.860724	0.439883	-0.143393
C189	C	1.016557	-0.405104	-0.893349
C190	C	1.266557	-0.155104	-0.643349
C191	C	1.516557	0.094896	-0.393349
C192	C	1.766557	0.344896	-0.143349
C193	C	1.016545	-0.405121	-0.816492
C194	C	1.266545	-0.155121	-0.566492
C195	C	1.516545	0.094879	-0.316492
C196	C	1.766545	0.344879	-0.066492
C197	C	1.063628	-0.357639	-0.778086
C198	C	1.313628	-0.107639	-0.528086
C199	C	1.563628	0.142361	-0.278086
C200	C	1.813628	0.392361	-0.028086
C201	C	1.063649	-0.357600	-0.931803
C202	C	1.313649	-0.107600	-0.681803
C203	C	1.563649	0.142400	-0.431803
C204	C	1.813649	0.392400	-0.181803
C205	C	1.063658	-0.357577	-1.015136
C206	C	1.313658	-0.107577	-0.765136
C207	C	1.563658	0.142423	-0.515136
C208	C	1.813658	0.392423	-0.265136
C209	C	1.063618	-0.357661	-0.694747
C210	C	1.313618	-0.107661	-0.444747
C211	C	1.563618	0.142339	-0.194747
C212	C	1.813618	0.392339	0.055253
C213	C	1.063544	-0.357749	-0.163365
C214	C	1.313544	-0.107749	0.086635
C215	C	1.563544	0.142251	0.336635
C216	C	1.813544	0.392251	0.586635
C217	C	1.063667	-0.357561	-0.081566
C218	C	1.313667	-0.107561	0.168434
C219	C	1.563667	0.142439	0.418434
C220	C	1.813667	0.392439	0.668434
H221	H	0.494222	-0.444038	-0.439827
H222	H	0.744222	-0.194038	-0.189827
H223	H	0.994222	0.055962	0.060173
H224	H	1.244222	0.305962	0.310173
N225	N	0.643778	-0.258901	-0.256913
N226	N	0.893778	-0.008901	-0.006913
N227	N	1.143778	0.241099	0.243087
N228	N	1.393778	0.491099	0.493087
H229	H	0.675646	-0.289034	-0.222754
H230	H	0.925646	-0.039034	0.027246
H231	H	1.175646	0.210966	0.277246
H232	H	1.425646	0.460966	0.527246
H233	H	0.675642	-0.224529	-0.286931
H234	H	0.925642	0.025471	-0.036931
H235	H	1.175642	0.275471	0.213069
H236	H	1.425642	0.525471	0.463069
H237	H	0.494183	-0.271485	-0.269352
H238	H	0.744183	-0.021485	-0.019352
H239	H	0.994183	0.228515	0.230648
H240	H	1.244183	0.478515	0.480648
H241	H	0.939718	-0.811057	-0.321261
H242	H	1.189718	-0.561057	-0.071261
H243	H	1.439718	-0.311057	0.178739
H244	H	1.689718	-0.061057	0.428739
H245	H	1.154407	-0.811021	-0.263980
H246	H	1.404407	-0.561021	-0.013980
H247	H	1.654407	-0.311021	0.236020
H248	H	1.904407	-0.061021	0.486020
H249	H	1.187525	-0.903676	-0.387905
H250	H	1.437525	-0.653676	-0.137905
H251	H	1.687525	-0.403676	0.112095
H252	H	1.937525	-0.153676	0.362095
H253	H	1.096688	-0.810972	-0.478620
H254	H	1.346688	-0.560972	-0.228620
H255	H	1.596688	-0.310972	0.021380
H256	H	1.846688	-0.060972	0.271380
H257	H	0.972826	-0.903569	-0.445353
H258	H	1.222826	-0.653569	-0.195353
H259	H	1.472826	-0.403569	0.054647
H260	H	1.722826	-0.153569	0.304647
H261	H	1.149051	-0.271474	-0.785267
H262	H	1.399051	-0.021474	-0.535267
H263	H	1.649051	0.228526	-0.285267
H264	H	1.899051	0.478526	-0.035267
N265	N	1.025588	-0.910936	-0.212231
N266	N	1.275588	-0.660936	0.037769
N267	N	1.525588	-0.410936	0.287769
N268	N	1.775588	-0.160936	0.537769
H269	H	1.062778	-0.892985	-0.175168
H270	H	1.312778	-0.642985	0.074832
H271	H	1.562778	-0.392985	0.324832
H272	H	1.812778	-0.142985	0.574832
H273	H	0.975233	-0.892229	-0.198283
H274	H	1.225233	-0.642229	0.051717
H275	H	1.475233	-0.392229	0.301717
H276	H	1.725233	-0.142229	0.551717
N277	N	1.161501	-0.258875	-0.934863
N278	N	1.411501	-0.008875	-0.684863
N279	N	1.661501	0.241125	-0.434863
N280	N	1.911501	0.491125	-0.184863
H281	H	1.191322	-0.228798	-0.898869
H282	H	1.441322	0.021202	-0.648869
H283	H	1.691322	0.271202	-0.398869
H284	H	1.941322	0.521202	-0.148869
H285	H	1.195554	-0.289091	-0.966756
H286	H	1.445554	-0.039091	-0.716756
H287	H	1.695554	0.210909	-0.466756
H288	H	1.945554	0.460909	-0.216756
H289	H	0.978225	-0.443763	-0.924628
H290	H	1.228225	-0.193763	-0.674628
H291	H	1.478225	0.056237	-0.424628
H292	H	1.728225	0.306237	-0.174628
H293	H	0.633649	-0.444035	-0.439811
H294	H	0.883649	-0.194035	-0.189811
H295	H	1.133649	0.055965	0.060189
H296	H	1.383649	0.305965	0.310189
H297	H	0.978196	-0.443802	-0.785186
H298	H	1.228196	-0.193802	-0.535186
H299	H	1.478196	0.056198	-0.285186
H300	H	1.728196	0.306198	-0.035186
