data_functionalizedCrystal
_audit_creation_method	'MofGen! by Chris Wilmer'
_symmetry_space_group_name_H-M	'P1'
_symmetry_Int_Tables_number	1
_symmetry_cell_setting	triclinic
loop_
_symmetry_equiv_pos_as_xyz
  x,y,z
_cell_length_a	12.811457
_cell_length_b	14.853567
_cell_length_c	11.892095
_cell_angle_alpha	93.898435
_cell_angle_beta	91.498327
_cell_angle_gamma	83.839833
loop_
_atom_site_label
_atom_site_type_symbol
_atom_site_fract_x
_atom_site_fract_y
_atom_site_fract_z
O1	O	1.389381	0.124378	0.048441
O2	O	1.889381	0.624378	0.548441
O3	O	1.086037	0.135686	0.017342
O4	O	1.586037	0.635686	0.517342
O5	O	1.245812	-0.001126	0.033719
O6	O	1.745812	0.498874	0.533719
O7	O	1.229606	0.261189	0.032064
O8	O	1.729606	0.761189	0.532064
O9	O	1.232491	0.010264	0.220361
O10	O	1.732491	0.510264	0.720361
O11	O	1.072716	0.147075	0.203984
O12	O	1.572716	0.647075	0.703984
O13	O	1.376060	0.135767	0.235083
O14	O	1.876060	0.635767	0.735083
Zn15	Zn	1.222273	0.143229	0.249167
Zn16	Zn	1.722273	0.643229	0.749167
Zn17	Zn	1.239824	0.128223	0.003258
Zn18	Zn	1.739824	0.628223	0.503258
O19	O	1.216285	0.272579	0.218706
O20	O	1.716285	0.772579	0.718706
C21	C	1.040556	0.140398	0.106683
C22	C	1.540556	0.640398	0.606683
C23	C	0.924881	0.137459	0.094824
C24	C	1.424881	0.637459	0.594824
C25	C	0.692993	0.144338	0.276038
C26	C	1.192993	0.644338	0.776038
C27	C	0.584307	0.141576	0.264901
C28	C	1.084307	0.641576	0.764901
C29	C	0.598821	0.129169	0.061413
C30	C	1.098821	0.629169	0.561413
C31	C	0.707507	0.131930	0.072550
C32	C	1.207507	0.631930	0.572550
C33	C	0.754589	0.139516	0.179866
C34	C	1.254589	0.639516	0.679866
C35	C	0.863277	0.142284	0.191003
C36	C	1.363277	0.642284	0.691003
C37	C	0.877790	0.129870	-0.012485
C38	C	1.377790	0.629870	0.487515
C39	C	0.769103	0.127108	-0.023622
C40	C	1.269103	0.627108	0.476378
C41	C	1.238417	-0.029027	0.126961
C42	C	1.738417	0.470973	0.626961
C43	C	1.236218	-0.129130	0.126726
C44	C	1.736218	0.370870	0.626726
C45	C	1.132005	-0.542595	0.116064
C46	C	1.632005	-0.042595	0.616064
C47	C	1.321821	-0.562178	0.135524
C48	C	1.821821	-0.062178	0.635524
C49	C	1.323891	-0.468126	0.135729
C50	C	1.823891	0.031874	0.635729
C51	C	1.230016	-0.411304	0.126103
C52	C	1.730016	0.088696	0.626103
C53	C	1.134071	-0.448534	0.116272
C54	C	1.634071	0.051466	0.616272
C55	C	1.419832	-0.430889	0.145572
C56	C	1.919832	0.069111	0.645572
C57	C	1.421906	-0.336831	0.145779
C58	C	1.921906	0.163169	0.645779
C59	C	1.328030	-0.280008	0.136145
C60	C	1.828030	0.219992	0.636145
C61	C	1.232082	-0.317243	0.126312
C62	C	1.732082	0.182757	0.626312
C63	C	1.138207	-0.260421	0.116686
C64	C	1.638207	0.239579	0.616686
C65	C	1.042258	-0.297655	0.106845
C66	C	1.542258	0.202345	0.606845
C67	C	1.040196	-0.391711	0.106638
C68	C	1.540196	0.108289	0.606638
C69	C	1.330093	-0.185952	0.136352
C70	C	1.830093	0.314048	0.636352
C71	C	1.140273	-0.166360	0.116895
C72	C	1.640273	0.333640	0.616895
C73	C	1.421542	0.131055	0.145740
C74	C	1.921542	0.631055	0.645740
C75	C	1.537216	0.133993	0.157592
C76	C	2.037216	0.633993	0.657592
C77	C	1.223680	0.300479	0.125461
C78	C	1.723680	0.800479	0.625461
C79	C	1.225880	0.400583	0.125689
C80	C	1.725880	0.900583	0.625689
N81	N	1.210301	0.153470	0.416994
N82	N	1.710301	0.653470	0.916994
N83	N	1.251804	0.117976	-0.164568
N84	N	1.751804	0.617976	0.335432
C85	C	1.335105	0.046665	0.666434
C86	C	1.835105	0.546665	1.166434
C87	C	1.326744	0.053830	0.783919
C88	C	1.826744	0.553830	1.283919
C89	C	1.185216	0.174959	0.769451
C90	C	1.685216	0.674959	1.269451
C91	C	1.193577	0.167795	0.651966
C92	C	1.693577	0.667795	1.151966
C93	C	1.268524	0.103646	0.600462
C94	C	1.768524	0.603646	1.100462
C95	C	1.276889	0.096486	0.482975
C96	C	1.776889	0.596486	0.982975
C97	C	1.135356	0.217611	0.468509
C98	C	1.635356	0.717611	0.968509
C99	C	1.126996	0.224776	0.585994
C100	C	1.626996	0.724776	1.085994
H101	H	0.534158	0.145507	0.343215
H102	H	1.034158	0.645507	0.843215
H103	H	1.081145	0.264012	0.414780
H104	H	1.581145	0.764012	0.914780
H105	H	1.500033	-0.306524	0.153790
H106	H	2.000033	0.193476	0.653790
H107	H	1.063828	-0.120102	0.109051
H108	H	1.563828	0.379898	0.609051
H109	H	0.731326	0.150526	0.363419
H110	H	1.231326	0.650526	0.863419
H111	H	1.396137	-0.005561	0.624500
H112	H	1.896137	0.494439	1.124500
H113	H	1.398249	-0.608447	0.143369
H114	H	1.898249	-0.108447	0.643369
H115	H	0.962080	-0.422036	0.098628
H116	H	1.462080	0.077964	0.598628
H117	H	1.337917	0.044256	0.441043
H118	H	1.837917	0.544256	0.941043
H119	H	1.380960	0.007429	0.837631
H120	H	1.880960	0.507429	1.337631
H121	H	0.560470	0.122977	-0.025959
H122	H	1.060470	0.622977	0.474041
H123	H	1.124189	0.227181	0.811400
H124	H	1.624189	0.727181	1.311400
H125	H	1.053886	-0.572916	0.108047
H126	H	1.553886	-0.072916	0.608047
H127	H	1.496259	-0.477159	0.153419
H128	H	1.996259	0.022841	0.653419
H129	H	0.927953	0.125949	-0.090795
H130	H	1.427953	0.625949	0.409205
H131	H	0.730755	0.120928	-0.110996
H132	H	1.230755	0.620928	0.389004
H133	H	1.408212	-0.155640	0.144371
H134	H	1.908212	0.344360	0.644371
H135	H	0.965825	-0.251378	0.099016
H136	H	1.465825	0.248622	0.599016
H137	H	0.901608	0.148466	0.278385
H138	H	1.401608	0.648466	0.778385
H139	H	1.065973	0.277002	0.627941
H140	H	1.565973	0.777002	1.127941
