data_functionalizedCrystal
_audit_creation_method	'MofGen! by Chris Wilmer'
_symmetry_space_group_name_H-M	'P1'
_symmetry_Int_Tables_number	1
_symmetry_cell_setting	triclinic
loop_
_symmetry_equiv_pos_as_xyz
  x,y,z
_cell_length_a	18.215407
_cell_length_b	12.759399
_cell_length_c	18.215398
_cell_angle_alpha	89.978345
_cell_angle_beta	89.983001
_cell_angle_gamma	90.012850
loop_
_atom_site_label
_atom_site_type_symbol
_atom_site_fract_x
_atom_site_fract_y
_atom_site_fract_z
Zn1	Zn	1.125118	-0.418375	-0.416087
Zn2	Zn	1.625118	0.081625	0.083913
Zn3	Zn	1.125047	-0.594065	-0.293029
Zn4	Zn	1.625047	-0.094065	0.206971
Zn5	Zn	1.002051	-0.418392	-0.293039
Zn6	Zn	1.502051	0.081608	0.206961
Zn7	Zn	1.002037	-0.594005	-0.416059
Zn8	Zn	1.502037	-0.094005	0.083941
O9	O	1.063563	-0.506209	-0.354553
O10	O	1.563563	-0.006209	0.145447
O11	O	1.228093	-0.441698	-0.399770
O12	O	1.728093	0.058302	0.100230
O13	O	1.108708	-0.570794	-0.190046
O14	O	1.608708	-0.070794	0.309954
O15	O	1.018412	-0.271369	-0.309378
O16	O	1.518412	0.228631	0.190622
O17	O	1.228041	-0.570777	-0.309360
O18	O	1.728041	-0.070777	0.190640
O19	O	1.108828	-0.271356	-0.399780
O20	O	1.608828	0.228644	0.100220
O21	O	1.018343	-0.441728	-0.190054
O22	O	1.518343	0.058272	0.309946
O23	O	0.899065	-0.441670	-0.309351
O24	O	1.399065	0.058330	0.190649
O25	O	1.018387	-0.570675	-0.519047
O26	O	1.518387	-0.070675	-0.019047
O27	O	0.899054	-0.570691	-0.399733
O28	O	1.399054	-0.070691	0.100267
O29	O	1.108814	-0.441640	-0.519067
O30	O	1.608814	0.058360	-0.019067
O31	O	1.108694	-0.741078	-0.309333
O32	O	1.608694	-0.241078	0.190667
O33	O	1.018319	-0.741034	-0.399722
O34	O	1.518319	-0.241034	0.100278
C35	C	0.872357	-0.506177	-0.354540
C36	C	1.372357	-0.006177	0.145460
C37	C	0.790558	-0.506188	-0.354552
C38	C	1.290558	-0.006188	0.145448
C39	C	0.602390	-0.439116	-0.401703
C40	C	1.102390	0.060884	0.098297
C41	C	0.525531	-0.439125	-0.401706
C42	C	1.025531	0.060875	0.098294
C43	C	0.525488	-0.573332	-0.307416
C44	C	1.025488	-0.073332	0.192584
C45	C	0.602346	-0.573317	-0.307411
C46	C	1.102346	-0.073317	0.192589
C47	C	0.640795	-0.506210	-0.354558
C48	C	1.140795	-0.006210	0.145442
C49	C	0.487078	-0.506234	-0.354566
C50	C	0.987078	-0.006234	0.145434
C51	C	0.403745	-0.506245	-0.354569
C52	C	0.903745	-0.006245	0.145431
C53	C	0.724133	-0.506198	-0.354555
C54	C	1.224133	-0.006198	0.145445
C55	C	1.063517	-0.779177	-0.354539
C56	C	1.563517	-0.279177	0.145461
C57	C	1.063565	-0.895953	-0.354558
C58	C	1.563565	-0.395953	0.145442
C59	C	1.110728	-1.060528	-0.307566
C60	C	1.610728	-0.560528	0.192434
C61	C	1.110679	-0.950804	-0.307545
C62	C	1.610679	-0.450804	0.192455
C63	C	1.016490	-0.950832	-0.401590
C64	C	1.516490	-0.450832	0.098410
C65	C	1.016535	-1.060554	-0.401607
C66	C	1.516535	-0.560554	0.098393
C67	C	1.157851	-1.115373	-0.260555
C68	C	1.657851	-0.615373	0.239445
C69	C	1.204925	-1.060502	-0.213522
C70	C	1.704925	-0.560502	0.286478
C71	C	1.204877	-0.950778	-0.213500
C72	C	1.704877	-0.450778	0.286500
C73	C	1.157754	-0.895925	-0.260512
C74	C	1.657754	-0.395925	0.239488
C75	C	1.255516	-0.506242	-0.354567
C76	C	1.755516	-0.006242	0.145433
C77	C	1.337315	-0.506256	-0.354572
C78	C	1.837315	-0.006256	0.145428
C79	C	1.063607	-0.506149	-0.546506
C80	C	1.563607	-0.006149	-0.046506
C81	C	1.063625	-0.506123	-0.628305
C82	C	1.563625	-0.006123	-0.128305
C83	C	1.063629	-0.232176	-0.354584
C84	C	1.563629	0.267824	0.145416
C85	C	1.063658	-0.115399	-0.354597
C86	C	1.563658	0.384601	0.145403
C87	C	1.110712	-0.573198	-0.893363
C88	C	1.610712	-0.073198	-0.393363
C89	C	1.110701	-0.573234	-0.816504
C90	C	1.610701	-0.073234	-0.316504
C91	C	1.016594	-0.438845	-0.816496
C92	C	1.516594	0.061155	-0.316496
C93	C	1.016602	-0.438815	-0.893353
C94	C	1.516602	0.061185	-0.393353
C95	C	1.063665	-0.505990	-0.931785
C96	C	1.563665	-0.005990	-0.431785
C97	C	1.063646	-0.506057	-0.778069
C98	C	1.563646	-0.006057	-0.278069
C99	C	1.063634	-0.506096	-0.694735
C100	C	1.563634	-0.006096	-0.194735
C101	C	1.063677	-0.505952	-1.015124
C102	C	1.563677	-0.005952	-0.515124
C103	C	1.063562	-0.506193	-0.163347
C104	C	1.563562	-0.006193	0.336653
C105	C	1.063686	-0.505923	-0.081549
C106	C	1.563686	-0.005923	0.418451
H107	H	1.243286	-1.105170	-0.175243
H108	H	1.743286	-0.605170	0.324757
H109	H	1.243201	-0.906103	-0.175199
H110	H	1.743201	-0.406103	0.324801
H111	H	0.978288	-0.384085	-0.924637
H112	H	1.478288	0.115915	-0.424637
H113	H	0.978278	-0.384153	-0.785196
H114	H	1.478278	0.115847	-0.285196
H115	H	0.633693	-0.384470	-0.440092
H116	H	1.133693	0.115530	0.059908
H117	H	0.494174	-0.627969	-0.269031
H118	H	0.994174	-0.127969	0.230969
H119	H	0.978213	-1.105231	-0.439911
H120	H	1.478213	-0.605231	0.060089
H121	H	0.633615	-0.627955	-0.269015
H122	H	1.133615	-0.127955	0.230985
C123	C	1.209200	-1.272538	-0.209382
C124	C	1.709200	-0.772538	0.290618
C125	C	1.157902	-1.235982	-0.260575
C126	C	1.657902	-0.735982	0.239425
H127	H	1.209228	-1.346996	-0.209394
H128	H	1.709228	-0.846996	0.290606
H129	H	1.256665	-1.247651	-0.222152
H130	H	1.756665	-0.747651	0.277848
H131	H	1.196490	-1.247769	-0.161876
H132	H	1.696490	-0.747769	0.338124
H133	H	1.170616	-1.260745	-0.308082
H134	H	1.670616	-0.760745	0.191918
H135	H	1.110427	-1.260880	-0.247809
H136	H	1.610427	-0.760880	0.252191
H137	H	1.157711	-0.806580	-0.260483
H138	H	1.657711	-0.306580	0.239517
C139	C	0.533299	-0.306478	-0.494913
C140	C	1.033299	0.193522	0.005087
C141	C	0.483317	-0.365377	-0.453533
C142	C	0.983317	0.134623	0.046467
H143	H	0.507236	-0.260953	-0.526913
H144	H	1.007236	0.239047	-0.026913
H145	H	0.563266	-0.266226	-0.462896
H146	H	1.063266	0.233774	0.037104
H147	H	0.563284	-0.352315	-0.523004
H148	H	1.063284	0.147685	-0.023004
H149	H	0.453336	-0.319540	-0.425438
H150	H	0.953336	0.180460	0.074562
H151	H	0.453338	-0.405632	-0.485554
H152	H	0.953338	0.094368	0.014446
C153	C	1.235321	-0.624384	-0.917040
C154	C	1.735321	-0.124384	-0.417040
C155	C	1.162438	-0.647044	-0.935606
C156	C	1.662438	-0.147044	-0.435606
H157	H	1.267253	-0.669983	-0.943114
H158	H	1.767253	-0.169983	-0.443114
H159	H	1.246104	-0.553800	-0.929648
H160	H	1.746104	-0.053800	-0.429648
H161	H	1.242037	-0.634021	-0.865765
H162	H	1.742037	-0.134021	-0.365765
H163	H	1.155721	-0.637400	-0.986880
H164	H	1.655721	-0.137400	-0.486880
H165	H	1.151652	-0.717645	-0.923003
H166	H	1.651652	-0.217645	-0.423003
H167	H	0.978125	-0.906164	-0.439866
H168	H	1.478125	-0.406164	0.060134
H169	H	1.149011	-0.627962	-0.785225
H170	H	1.649011	-0.127962	-0.285225
