data_functionalizedCrystal
_audit_creation_method	'MofGen! by Chris Wilmer'
_symmetry_space_group_name_H-M	'P1'
_symmetry_Int_Tables_number	1
_symmetry_cell_setting	triclinic
loop_
_symmetry_equiv_pos_as_xyz
  x,y,z
_cell_length_a	12.759401
_cell_length_b	12.759393
_cell_length_c	12.759399
_cell_angle_alpha	89.968020
_cell_angle_beta	90.016641
_cell_angle_gamma	89.980119
loop_
_atom_site_label
_atom_site_type_symbol
_atom_site_fract_x
_atom_site_fract_y
_atom_site_fract_z
Zn1	Zn	1.606252	-0.594017	-0.418162
Zn2	Zn	1.606145	-0.418336	-0.593880
Zn3	Zn	1.430554	-0.418352	-0.418221
Zn4	Zn	1.430542	-0.593973	-0.593804
O5	O	1.518373	-0.506170	-0.506017
O6	O	1.753259	-0.570724	-0.441478
O7	O	1.582813	-0.271317	-0.570636
O8	O	1.453911	-0.441680	-0.271192
O9	O	1.753181	-0.441652	-0.570578
O10	O	1.582996	-0.570740	-0.271148
O11	O	1.453807	-0.271329	-0.441579
O12	O	1.283532	-0.441637	-0.441505
O13	O	1.453890	-0.741000	-0.570448
O14	O	1.283522	-0.570665	-0.570505
O15	O	1.582983	-0.741032	-0.441404
O16	O	1.582801	-0.441609	-0.740891
O17	O	1.453786	-0.570649	-0.740835
C18	C	1.245406	-0.506149	-0.506004
C19	C	1.128629	-0.506165	-0.506024
C20	C	1.073790	-0.573244	-0.573296
C21	C	0.964066	-0.573265	-0.573300
C22	C	0.964030	-0.439118	-0.438756
C23	C	1.073752	-0.439104	-0.438748
C24	C	1.518447	-0.780203	-0.505911
C25	C	1.518478	-0.896980	-0.505865
C26	C	1.585707	-0.951860	-0.438666
C27	C	1.585732	-1.061585	-0.438628
C28	C	1.451297	-1.061538	-0.572998
C29	C	1.451267	-0.951816	-0.573030
C30	C	1.652918	-0.897024	-0.371502
C31	C	1.720152	-0.951905	-0.304298
C32	C	1.720177	-1.061629	-0.304260
C33	C	1.652968	-1.116473	-0.371426
C34	C	1.792407	-0.506191	-0.506030
C35	C	1.909183	-0.506200	-0.506036
C36	C	1.518309	-0.506146	-0.778984
C37	C	1.518378	-0.506171	-0.895761
C38	C	1.518361	-0.233202	-0.506046
C39	C	1.518533	-0.116426	-0.505796
C40	C	1.585633	-0.439056	-0.950617
C41	C	1.585700	-0.439091	-1.060341
C42	C	1.451249	-0.573359	-1.060343
C43	C	1.451187	-0.573328	-0.950621
C44	C	1.518467	-0.506217	-0.231983
C45	C	1.518506	-0.506237	-0.115207
H46	H	1.652907	-0.807682	-0.371527
H47	H	1.774865	-0.907244	-0.249607
C48	C	1.134079	-0.365307	-0.364739
N49	N	1.179517	-0.309727	-0.308997
H50	H	1.118468	-0.627852	-0.628074
C51	C	1.652994	-1.237173	-0.371375
N52	N	1.653018	-1.328084	-0.371339
C53	C	1.377331	-0.647216	-1.120699
N54	N	1.321651	-0.702843	-1.166158
C55	C	0.903748	-0.647047	-0.647315
N56	N	0.858317	-0.702621	-0.703069
H57	H	1.640345	-0.384374	-0.905953
C58	C	1.659682	-0.365255	-1.120678
N59	N	1.715407	-0.309638	-1.166123
H60	H	1.774915	-1.106310	-0.249531
H61	H	1.396578	-1.106200	-0.627681
C62	C	1.377318	-0.891444	-0.646958
N63	N	1.321617	-0.845971	-0.702642
C64	C	1.377219	-0.647185	-0.890275
N65	N	1.321518	-0.702821	-0.844823
C66	C	0.903655	-0.365349	-0.364762
N67	N	0.858182	-0.309782	-0.309031
