data_functionalizedCrystal
_audit_creation_method	'MofGen! by Chris Wilmer'
_symmetry_space_group_name_H-M	'P1'
_symmetry_Int_Tables_number	1
_symmetry_cell_setting	triclinic
loop_
_symmetry_equiv_pos_as_xyz
  x,y,z
_cell_length_a	12.759395
_cell_length_b	21.295417
_cell_length_c	21.295411
_cell_angle_alpha	89.971282
_cell_angle_beta	89.985961
_cell_angle_gamma	90.032044
loop_
_atom_site_label
_atom_site_type_symbol
_atom_site_fract_x
_atom_site_fract_y
_atom_site_fract_z
Zn1	Zn	1.606086	-0.250611	-0.355871
Zn2	Zn	1.605948	-0.355876	-0.250596
Zn3	Zn	1.430404	-0.250627	-0.250620
Zn4	Zn	1.430328	-0.355849	-0.355833
O5	O	1.518192	-0.303241	-0.303230
O6	O	1.753089	-0.264579	-0.341912
O7	O	1.582636	-0.341933	-0.162510
O8	O	1.453798	-0.162536	-0.264608
O9	O	1.752988	-0.341917	-0.264567
O10	O	1.582871	-0.162524	-0.341935
O11	O	1.453665	-0.264607	-0.162528
O12	O	1.283373	-0.264581	-0.264571
O13	O	1.453669	-0.341871	-0.443927
O14	O	1.283317	-0.341887	-0.341870
O15	O	1.582797	-0.264553	-0.443955
O16	O	1.582562	-0.443962	-0.264530
O17	O	1.453535	-0.443942	-0.341847
C18	C	1.245224	-0.303233	-0.303219
C19	C	1.128448	-0.303245	-0.303230
C20	C	1.518054	-0.466793	-0.303195
C21	C	1.518091	-0.536761	-0.303201
C22	C	1.128428	-0.383874	-0.383591
C23	C	1.073557	-0.424194	-0.423773
C24	C	0.963836	-0.424201	-0.423781
C25	C	0.908982	-0.383884	-0.383603
C26	C	0.963853	-0.343564	-0.343421
C27	C	1.073577	-0.343562	-0.343416
C28	C	0.963872	-0.262933	-0.263064
C29	C	1.073594	-0.262928	-0.263052
C30	C	0.909019	-0.222616	-0.222886
C31	C	0.963889	-0.182299	-0.182700
C32	C	1.073618	-0.182293	-0.182693
C33	C	1.128465	-0.222608	-0.222870
C34	C	1.585335	-0.569617	-0.262984
C35	C	1.585385	-0.635359	-0.262998
C36	C	1.518171	-0.668243	-0.303223
C37	C	1.450922	-0.635379	-0.343448
C38	C	1.450882	-0.569638	-0.343438
N39	N	1.426263	-0.771511	-0.308018
N40	N	1.426304	-0.833962	-0.308025
C41	C	1.518289	-0.866318	-0.303259
N42	N	1.610233	-0.833863	-0.298474
N43	N	1.610191	-0.771406	-0.298464
C44	C	1.518207	-0.739529	-0.303240
C45	C	1.585592	-0.970459	-0.263055
C46	C	1.585643	-1.036203	-0.263073
C47	C	1.451171	-1.036222	-0.343520
C48	C	1.451129	-0.970480	-0.343505
C49	C	1.518338	-0.937602	-0.303269
C50	C	1.792225	-0.303249	-0.303241
C51	C	1.909002	-0.303253	-0.303246
C52	C	1.518240	-0.303207	-0.467420
C53	C	1.518261	-0.303193	-0.537389
C54	C	1.518359	-0.139051	-0.303279
C55	C	1.518430	-0.069083	-0.303300
C56	C	1.585533	-0.343326	-1.036838
C57	C	1.585514	-0.343346	-0.971096
C58	C	1.518360	-0.303095	-0.938228
C59	C	1.451201	-0.262832	-0.971109
C60	C	1.451214	-0.262818	-1.036850
N61	N	1.510335	-0.248016	-0.835023
N62	N	1.510328	-0.248031	-0.772572
C63	C	1.518314	-0.303137	-0.740153
N64	N	1.526327	-0.358229	-0.772546
N65	N	1.526339	-0.358212	-0.835003
C66	C	1.518338	-0.303107	-0.866943
C67	C	1.585443	-0.343423	-0.635995
C68	C	1.585417	-0.343444	-0.570251
C69	C	1.451109	-0.262924	-0.570266
C70	C	1.451129	-0.262909	-0.636008
C71	C	1.518302	-0.303157	-0.668869
C72	C	1.518204	-0.303229	-0.139679
C73	C	1.518387	-0.303066	-0.069711
H74	H	1.217769	-0.383877	-0.383584
H75	H	1.118231	-0.457018	-0.456486
H76	H	0.919160	-0.457030	-0.456504
H77	H	1.640137	-0.376197	-0.662752
C78	C	0.788292	-0.383890	-0.383615
H79	H	0.763469	-0.413678	-0.413299
H80	H	0.763509	-0.343284	-0.394579
H81	H	0.763438	-0.394724	-0.342971
H82	H	1.396428	-0.230152	-0.543506
C83	C	1.659379	-0.387633	-0.934928
H84	H	1.699389	-0.411599	-0.963914
H85	H	1.619162	-0.415066	-0.909270
H86	H	1.705173	-0.363551	-0.909294
H87	H	1.396123	-0.542886	-0.376188
H88	H	1.640408	-1.062953	-0.230325
H89	H	1.396198	-0.662158	-0.376201
H90	H	0.819678	-0.222622	-0.222898
H91	H	1.640147	-0.662116	-0.230248
H92	H	0.919219	-0.149472	-0.149993
C93	C	1.377343	-0.218536	-1.073014
H94	H	1.386963	-0.224296	-1.116874
H95	H	1.392739	-0.176241	-1.062256
H96	H	1.306742	-0.227764	-1.062231
C97	C	1.377238	-1.072383	-0.387770
H98	H	1.337185	-1.043397	-0.411723
H99	H	1.331503	-1.098073	-0.363673
H100	H	1.417424	-1.097985	-0.415227
C101	C	1.133967	-0.137939	-0.138493
H102	H	1.085581	-0.113934	-0.114567
H103	H	1.176807	-0.110546	-0.162624
H104	H	1.176732	-0.161979	-0.111010
H105	H	1.640090	-0.376235	-0.543487
H106	H	1.640321	-0.943690	-0.230294
C107	C	1.249155	-0.222602	-0.222862
H108	H	1.273981	-0.192818	-0.193175
H109	H	1.274007	-0.211777	-0.263504
H110	H	1.273935	-0.263210	-0.211890
C111	C	1.377147	-0.934336	-0.387737
H112	H	1.337116	-0.963335	-0.411692
H113	H	1.417286	-0.908648	-0.415182
H114	H	1.331377	-0.908735	-0.363622
C115	C	1.659404	-0.387607	-1.072981
H116	H	1.699383	-0.411593	-1.043984
H117	H	1.705211	-0.363528	-1.098641
H118	H	1.619180	-0.415032	-1.098611
H119	H	1.396522	-0.230060	-0.944344
H120	H	1.640063	-0.542850	-0.230223
C121	C	1.377280	-0.218615	-0.672170
H122	H	1.337287	-0.194641	-0.643182
H123	H	1.331485	-0.242686	-0.697808
H124	H	1.417511	-0.191180	-0.697824
