data_functionalizedCrystal
_audit_creation_method	'MofGen! by Chris Wilmer'
_symmetry_space_group_name_H-M	'P1'
_symmetry_Int_Tables_number	1
_symmetry_cell_setting	triclinic
loop_
_symmetry_equiv_pos_as_xyz
  x,y,z
_cell_length_a	27.731994
_cell_length_b	27.731996
_cell_length_c	26.210047
_cell_angle_alpha	89.998501
_cell_angle_beta	89.997128
_cell_angle_gamma	82.620961
loop_
_atom_site_label
_atom_site_type_symbol
_atom_site_fract_x
_atom_site_fract_y
_atom_site_fract_z
O1	O	0.640938	0.057387	-0.042363
O2	O	0.890938	0.307387	0.207637
O3	O	1.140938	0.557387	0.457637
O4	O	1.390938	0.807387	0.707637
O5	O	0.500139	0.066160	-0.042381
O6	O	0.750139	0.316160	0.207619
O7	O	1.000139	0.566160	0.457619
O8	O	1.250139	0.816160	0.707619
O9	O	0.574924	-0.008626	-0.042360
O10	O	0.824924	0.241374	0.207640
O11	O	1.074924	0.491374	0.457640
O12	O	1.324924	0.741374	0.707640
O13	O	0.566152	0.132173	-0.042383
O14	O	0.816152	0.382173	0.207617
O15	O	1.066152	0.632173	0.457617
O16	O	1.316152	0.882173	0.707617
O17	O	0.574910	-0.008614	0.042498
O18	O	0.824910	0.241386	0.292498
O19	O	1.074910	0.491386	0.542498
O20	O	1.324910	0.741386	0.792498
O21	O	0.500124	0.066172	0.042477
O22	O	0.750124	0.316172	0.292477
O23	O	1.000124	0.566172	0.542477
O24	O	1.250124	0.816172	0.792477
O25	O	0.640923	0.057398	0.042495
O26	O	0.890923	0.307398	0.292495
O27	O	1.140923	0.557398	0.542495
O28	O	1.390923	0.807398	0.792495
Cu29	Cu	0.570522	0.061786	0.050235
Cu30	Cu	0.820522	0.311786	0.300235
Cu31	Cu	1.070522	0.561786	0.550235
Cu32	Cu	1.320522	0.811786	0.800235
Cu33	Cu	0.570540	0.061772	-0.050120
Cu34	Cu	0.820540	0.311772	0.199880
Cu35	Cu	1.070540	0.561772	0.449880
Cu36	Cu	1.320540	0.811772	0.699880
O37	O	0.566138	0.132184	0.042475
O38	O	0.816138	0.382184	0.292475
O39	O	1.066138	0.632184	0.542475
O40	O	1.316138	0.882184	0.792475
C41	C	0.482124	0.065986	0.000046
C42	C	0.732124	0.315986	0.250046
C43	C	0.982124	0.565986	0.500046
C44	C	1.232124	0.815986	0.750046
C45	C	0.428468	0.065443	0.000040
C46	C	0.678468	0.315443	0.250040
C47	C	0.928468	0.565443	0.500040
C48	C	1.178468	0.815443	0.750040
C49	C	0.095742	0.062034	0.046316
C50	C	0.345742	0.312034	0.296316
C51	C	0.595742	0.562034	0.546316
C52	C	0.845742	0.812034	0.796316
C53	C	-0.105915	0.059972	0.046322
C54	C	0.144085	0.309972	0.296322
C55	C	0.394085	0.559972	0.546322
C56	C	0.644085	0.809972	0.796322
O57	O	-0.131995	0.059690	0.085661
O58	O	0.118005	0.309690	0.335661
O59	O	0.368005	0.559690	0.585661
O60	O	0.618005	0.809690	0.835661
N61	N	-0.131122	0.059710	0.000066
N62	N	0.118878	0.309710	0.250066
N63	N	0.368878	0.559710	0.500066
N64	N	0.618878	0.809710	0.750066
C65	C	-0.105911	0.059960	-0.046195
C66	C	0.144089	0.309960	0.203805
C67	C	0.394089	0.559960	0.453805
C68	C	0.644089	0.809960	0.703805
O69	O	-0.131978	0.059684	-0.085538
O70	O	0.118022	0.309684	0.164462
O71	O	0.368022	0.559684	0.414462
O72	O	0.618022	0.809684	0.664462
C73	C	0.095746	0.062018	-0.046200
C74	C	0.345746	0.312018	0.203800
C75	C	0.595746	0.562018	0.453800
C76	C	0.845746	0.812018	0.703800
C77	C	0.120950	0.062285	0.000059
C78	C	0.370950	0.312285	0.250059
C79	C	0.620950	0.562285	0.500059
C80	C	0.870950	0.812285	0.750059
C81	C	0.120946	0.062301	0.092572
C82	C	0.370946	0.312301	0.342572
C83	C	0.620946	0.562301	0.592572
C84	C	0.870946	0.812301	0.842572
C85	C	0.171357	0.062819	0.092570
C86	C	0.421357	0.312819	0.342570
C87	C	0.671357	0.562819	0.592570
C88	C	0.921357	0.812819	0.842570
C89	C	0.196564	0.063070	0.046312
C90	C	0.446564	0.313070	0.296312
C91	C	0.696564	0.563070	0.546312
C92	C	0.946564	0.813070	0.796312
C93	C	0.171361	0.062803	0.000057
C94	C	0.421361	0.312803	0.250057
C95	C	0.671361	0.562803	0.500057
C96	C	0.921361	0.812803	0.750057
C97	C	0.120957	0.062264	-0.092460
C98	C	0.370957	0.312264	0.157540
C99	C	0.620957	0.562264	0.407540
C100	C	0.870957	0.812264	0.657540
C101	C	0.171374	0.062777	-0.092458
C102	C	0.421374	0.312777	0.157542
C103	C	0.671374	0.562777	0.407542
C104	C	0.921374	0.812777	0.657542
C105	C	0.196578	0.063045	-0.046199
C106	C	0.446578	0.313045	0.203801
C107	C	0.696578	0.563045	0.453801
C108	C	0.946578	0.813045	0.703801
C109	C	0.246979	0.063572	-0.046202
C110	C	0.496979	0.313572	0.203798
C111	C	0.746979	0.563572	0.453798
C112	C	0.996979	0.813572	0.703798
N113	N	0.272186	0.063835	0.000054
N114	N	0.522186	0.313835	0.250054
N115	N	0.772186	0.563835	0.500054
N116	N	1.022186	0.813835	0.750054
C117	C	0.246979	0.063584	0.046311
C118	C	0.496979	0.313584	0.296311
C119	C	0.746979	0.563584	0.546311
C120	C	0.996979	0.813584	0.796311
C121	C	-0.211784	0.058880	-0.046188
C122	C	0.038216	0.308880	0.203812
C123	C	0.288216	0.558880	0.453812
C124	C	0.538216	0.808880	0.703812
C125	C	-0.262199	0.058366	-0.046187
C126	C	-0.012199	0.308366	0.203813
C127	C	0.237801	0.558366	0.453813
C128	C	0.487801	0.808366	0.703813
C129	C	-0.262199	0.058378	0.046330
C130	C	-0.012199	0.308378	0.296330
C131	C	0.237801	0.558378	0.546330
C132	C	0.487801	0.808378	0.796330
C133	C	-0.211785	0.058895	0.046328
C134	C	0.038215	0.308895	0.296328
C135	C	0.288215	0.558895	0.546328
C136	C	0.538215	0.808895	0.796328
C137	C	-0.186578	0.059142	0.000068
C138	C	0.063422	0.309142	0.250068
C139	C	0.313422	0.559142	0.500068
C140	C	0.563422	0.809142	0.750068
C141	C	0.352845	0.064672	0.046303
C142	C	0.602845	0.314672	0.296303
C143	C	0.852845	0.564672	0.546303
C144	C	1.102845	0.814672	0.796303
C145	C	0.403261	0.065192	0.046297
C146	C	0.653261	0.315192	0.296297
C147	C	0.903261	0.565192	0.546297
C148	C	1.153261	0.815192	0.796297
C149	C	0.403257	0.065178	-0.046220
C150	C	0.653257	0.315178	0.203780
C151	C	0.903257	0.565178	0.453780
C152	C	1.153257	0.815178	0.703780
C153	C	0.352846	0.064660	-0.046214
C154	C	0.602846	0.314660	0.203786
C155	C	0.852846	0.564660	0.453786
C156	C	1.102846	0.814660	0.703786
C157	C	0.327642	0.064406	0.000052
C158	C	0.577642	0.314406	0.250052
C159	C	0.827642	0.564406	0.500052
C160	C	1.077642	0.814406	0.750052
O161	O	0.273090	0.063849	-0.085521
O162	O	0.523090	0.313849	0.164479
O163	O	0.773090	0.563849	0.414479
O164	O	1.023090	0.813849	0.664479
O165	O	0.273055	0.063848	0.085649
O166	O	0.523055	0.313848	0.335649
O167	O	0.773055	0.563848	0.585649
O168	O	1.023055	0.813848	0.835649
C169	C	0.045331	0.061516	0.046318
C170	C	0.295331	0.311516	0.296318
C171	C	0.545331	0.561516	0.546318
C172	C	0.795331	0.811516	0.796318
C173	C	0.020127	0.061249	0.000063
C174	C	0.270127	0.311249	0.250063
C175	C	0.520127	0.561249	0.500063
C176	C	0.770127	0.811249	0.750063
C177	C	0.045335	0.061500	-0.046194
C178	C	0.295335	0.311500	0.203806
C179	C	0.545335	0.561500	0.453806
C180	C	0.795335	0.811500	0.703806
C181	C	-0.030287	0.060735	0.000064
C182	C	0.219713	0.310735	0.250064
C183	C	0.469713	0.560735	0.500064
C184	C	0.719713	0.810735	0.750064
C185	C	-0.055494	0.060484	0.046322
C186	C	0.194506	0.310484	0.296322
C187	C	0.444506	0.560484	0.546322
C188	C	0.694506	0.810484	0.796322
C189	C	-0.030287	0.060746	0.092578
C190	C	0.219713	0.310746	0.342578
C191	C	0.469713	0.560746	0.592578
C192	C	0.719713	0.810746	0.842578
C193	C	0.020124	0.061264	0.092576
C194	C	0.270124	0.311264	0.342576
C195	C	0.520124	0.561264	0.592576
C196	C	0.770124	0.811264	0.842576
C197	C	0.020128	0.061238	-0.092450
C198	C	0.270128	0.311238	0.157550
C199	C	0.520128	0.561238	0.407550
C200	C	0.770128	0.811238	0.657550
C201	C	-0.030283	0.060720	-0.092445
C202	C	0.219717	0.310720	0.157555
C203	C	0.469717	0.560720	0.407555
C204	C	0.719717	0.810720	0.657555
C205	C	-0.055491	0.060469	-0.046187
C206	C	0.194509	0.310469	0.203813
C207	C	0.444509	0.560469	0.453813
C208	C	0.694509	0.810469	0.703813
C209	C	0.574737	-0.026628	0.000071
C210	C	0.824737	0.223372	0.250071
C211	C	1.074737	0.473372	0.500071
C212	C	1.324737	0.723372	0.750071
C213	C	0.574194	-0.080284	0.000076
C214	C	0.824194	0.169716	0.250076
C215	C	1.074194	0.419716	0.500076
C216	C	1.324194	0.669716	0.750076
C217	C	0.570787	-0.413006	-0.046206
C218	C	0.820787	-0.163006	0.203794
C219	C	1.070787	0.086994	0.453794
C220	C	1.320787	0.336994	0.703794
C221	C	0.568726	-0.614664	-0.046215
C222	C	0.818726	-0.364664	0.203785
C223	C	1.068726	-0.114664	0.453785
C224	C	1.318726	0.135336	0.703785
O225	O	0.568445	-0.640740	-0.085554
O226	O	0.818445	-0.390740	0.164446
O227	O	1.068445	-0.140740	0.414446
O228	O	1.318445	0.109260	0.664446
N229	N	0.568462	-0.639874	0.000041
N230	N	0.818462	-0.389874	0.250041
N231	N	1.068462	-0.139874	0.500041
N232	N	1.318462	0.110126	0.750041
C233	C	0.568710	-0.614667	0.046302
C234	C	0.818710	-0.364667	0.296302
C235	C	1.068710	-0.114667	0.546302
C236	C	1.318710	0.135333	0.796302
O237	O	0.568434	-0.640737	0.085645
O238	O	0.818434	-0.390737	0.335645
O239	O	1.068434	-0.140737	0.585645
O240	O	1.318434	0.109263	0.835645
C241	C	0.570768	-0.413010	0.046311
C242	C	0.820768	-0.163010	0.296311
C243	C	1.070768	0.086990	0.546311
C244	C	1.320768	0.336990	0.796311
C245	C	0.571037	-0.387802	0.000052
C246	C	0.821037	-0.137802	0.250052
C247	C	1.071037	0.112198	0.500052
C248	C	1.321037	0.362198	0.750052
C249	C	0.571055	-0.387798	-0.092461
C250	C	0.821055	-0.137798	0.157539
C251	C	1.071055	0.112202	0.407539
C252	C	1.321055	0.362202	0.657539
C253	C	0.571573	-0.337387	-0.092458
C254	C	0.821573	-0.087387	0.157542
C255	C	1.071573	0.162613	0.407542
C256	C	1.321573	0.412613	0.657542
C257	C	0.571823	-0.312184	-0.046200
C258	C	0.821823	-0.062184	0.203800
C259	C	1.071823	0.187816	0.453800
C260	C	1.321823	0.437816	0.703800
C261	C	0.571555	-0.337391	0.000055
C262	C	0.821555	-0.087391	0.250055
C263	C	1.071555	0.162609	0.500055
C264	C	1.321555	0.412609	0.750055
C265	C	0.571013	-0.387803	0.092571
C266	C	0.821013	-0.137803	0.342571
C267	C	1.071013	0.112197	0.592571
C268	C	1.321013	0.362197	0.842571
C269	C	0.571526	-0.337385	0.092569
C270	C	0.821526	-0.087385	0.342569
C271	C	1.071526	0.162615	0.592569
C272	C	1.321526	0.412615	0.842569
C273	C	0.571795	-0.312178	0.046311
C274	C	0.821795	-0.062178	0.296311
C275	C	1.071795	0.187822	0.546311
C276	C	1.321795	0.437822	0.796311
C277	C	0.572322	-0.261777	0.046315
C278	C	0.822322	-0.011777	0.296315
C279	C	1.072322	0.238223	0.546315
C280	C	1.322322	0.488223	0.796315
N281	N	0.572586	-0.236566	0.000060
N282	N	0.822586	0.013434	0.250060
N283	N	1.072586	0.263434	0.500060
N284	N	1.322586	0.513434	0.750060
C285	C	0.572336	-0.261769	-0.046198
C286	C	0.822336	-0.011769	0.203802
C287	C	1.072336	0.238231	0.453802
C288	C	1.322336	0.488231	0.703802
C289	C	0.567631	-0.720540	0.046294
C290	C	0.817631	-0.470540	0.296294
C291	C	1.067631	-0.220540	0.546294
C292	C	1.317631	0.029460	0.796294
C293	C	0.567118	-0.770954	0.046292
C294	C	0.817118	-0.520954	0.296292
C295	C	1.067118	-0.270954	0.546292
C296	C	1.317118	-0.020954	0.796292
C297	C	0.567132	-0.770947	-0.046225
C298	C	0.817132	-0.520947	0.203775
C299	C	1.067132	-0.270947	0.453775
C300	C	1.317132	-0.020947	0.703775
C301	C	0.567649	-0.720533	-0.046222
C302	C	0.817649	-0.470533	0.203778
C303	C	1.067649	-0.220533	0.453778
C304	C	1.317649	0.029467	0.703778
C305	C	0.567895	-0.695329	0.000038
C306	C	0.817895	-0.445329	0.250038
C307	C	1.067895	-0.195329	0.500038
C308	C	1.317895	0.054671	0.750038
C309	C	0.573424	-0.155903	-0.046189
C310	C	0.823424	0.094097	0.203811
C311	C	1.073424	0.344097	0.453811
C312	C	1.323424	0.594097	0.703811
C313	C	0.573944	-0.105487	-0.046182
C314	C	0.823944	0.144513	0.203818
C315	C	1.073944	0.394513	0.453818
C316	C	1.323944	0.644513	0.703818
C317	C	0.573927	-0.105498	0.046335
C318	C	0.823927	0.144502	0.296335
C319	C	1.073927	0.394502	0.546335
C320	C	1.323927	0.644502	0.796335
C321	C	0.573410	-0.155910	0.046328
C322	C	0.823410	0.094090	0.296328
C323	C	1.073410	0.344090	0.546328
C324	C	1.323410	0.594090	0.796328
C325	C	0.573157	-0.181110	0.000062
C326	C	0.823157	0.068890	0.250062
C327	C	1.073157	0.318890	0.500062
C328	C	1.323157	0.568890	0.750062
O329	O	0.572598	-0.235669	0.085634
O330	O	0.822598	0.014331	0.335634
O331	O	1.072598	0.264331	0.585634
O332	O	1.322598	0.514331	0.835634
O333	O	0.572602	-0.235689	-0.085535
O334	O	0.822602	0.014311	0.164465
O335	O	1.072602	0.264311	0.414465
O336	O	1.322602	0.514311	0.664465
C337	C	0.570269	-0.463417	-0.046209
C338	C	0.820269	-0.213417	0.203791
C339	C	1.070269	0.036583	0.453791
C340	C	1.320269	0.286583	0.703791
C341	C	0.570001	-0.488624	0.000046
C342	C	0.820001	-0.238624	0.250046
C343	C	1.070001	0.011376	0.500046
C344	C	1.320001	0.261376	0.750046
C345	C	0.570251	-0.463421	0.046304
C346	C	0.820251	-0.213421	0.296304
C347	C	1.070251	0.036579	0.546304
C348	C	1.320251	0.286579	0.796304
C349	C	0.569487	-0.539039	0.000044
C350	C	0.819487	-0.289039	0.250044
C351	C	1.069487	-0.039039	0.500044
C352	C	1.319487	0.210961	0.750044
C353	C	0.569238	-0.564242	-0.046213
C354	C	0.819238	-0.314242	0.203787
C355	C	1.069238	-0.064242	0.453787
C356	C	1.319238	0.185758	0.703787
C357	C	0.569502	-0.539031	-0.092469
C358	C	0.819502	-0.289031	0.157531
C359	C	1.069502	-0.039031	0.407531
C360	C	1.319502	0.210969	0.657531
C361	C	0.570020	-0.488620	-0.092466
C362	C	0.820020	-0.238620	0.157534
C363	C	1.070020	0.011380	0.407534
C364	C	1.320020	0.261380	0.657534
C365	C	0.569987	-0.488632	0.092560
C366	C	0.819987	-0.238632	0.342560
C367	C	1.069987	0.011368	0.592560
C368	C	1.319987	0.261368	0.842560
C369	C	0.569469	-0.539043	0.092553
C370	C	0.819469	-0.289043	0.342553
C371	C	1.069469	-0.039043	0.592553
C372	C	1.319469	0.210957	0.842553
C373	C	0.569220	-0.564246	0.046296
C374	C	0.819220	-0.314246	0.296296
C375	C	1.069220	-0.064246	0.546296
C376	C	1.319220	0.185754	0.796296
C377	C	0.658938	0.057573	0.000067
C378	C	0.908938	0.307573	0.250067
C379	C	1.158938	0.557573	0.500067
C380	C	1.408938	0.807573	0.750067
C381	C	0.712594	0.058115	0.000070
C382	C	0.962594	0.308115	0.250070
C383	C	1.212594	0.558115	0.500070
C384	C	1.462594	0.808115	0.750070
C385	C	0.566325	0.150186	0.000043
C386	C	0.816325	0.400186	0.250043
C387	C	1.066325	0.650186	0.500043
C388	C	1.316325	0.900186	0.750043
C389	C	0.566868	0.203842	0.000034
C390	C	0.816868	0.453842	0.250034
C391	C	1.066868	0.703842	0.500034
C392	C	1.316868	0.953842	0.750034
N393	N	0.570514	0.061795	0.120818
N394	N	0.820514	0.311795	0.370818
N395	N	1.070514	0.561795	0.620818
N396	N	1.320514	0.811795	0.870818
N397	N	0.570552	0.061759	-0.120704
N398	N	0.820552	0.311759	0.129296
N399	N	1.070552	0.561759	0.379296
N400	N	1.320552	0.811759	0.629296
C401	C	0.603651	0.028664	0.473342
C402	C	0.853651	0.278664	0.723342
C403	C	1.103651	0.528664	0.973342
C404	C	1.353651	0.778664	1.223342
C405	C	0.603662	0.028658	0.687000
C406	C	0.853662	0.278658	0.937000
C407	C	1.103662	0.528658	1.187000
C408	C	1.353662	0.778658	1.437000
O409	O	0.631818	0.000491	0.714630
O410	O	0.881818	0.250491	0.964630
O411	O	1.131818	0.500491	1.214630
O412	O	1.381818	0.750491	1.464630
N413	N	0.570542	0.061762	0.713712
N414	N	0.820542	0.311762	0.963712
N415	N	1.070542	0.561762	1.213712
N416	N	1.320542	0.811762	1.463712
C417	C	0.537415	0.094867	0.687007
C418	C	0.787415	0.344867	0.937007
C419	C	1.037415	0.594867	1.187007
C420	C	1.287415	0.844867	1.437007
O421	O	0.509242	0.123021	0.714630
O422	O	0.759242	0.373021	0.964630
O423	O	1.009242	0.623021	1.214630
O424	O	1.259242	0.873021	1.464630
C425	C	0.537403	0.094872	0.473349
C426	C	0.787403	0.344872	0.723349
C427	C	1.037403	0.594872	0.973349
C428	C	1.287403	0.844872	1.223349
C429	C	0.570528	0.061769	0.446640
C430	C	0.820528	0.311769	0.696640
C431	C	1.070528	0.561769	0.946640
C432	C	1.320528	0.811769	1.196640
C433	C	0.636773	-0.004436	0.446632
C434	C	0.886773	0.245564	0.696632
C435	C	1.136773	0.495564	0.946632
C436	C	1.386773	0.745564	1.196632
C437	C	0.636772	-0.004432	0.393221
C438	C	0.886772	0.245568	0.643221
C439	C	1.136772	0.495568	0.893221
C440	C	1.386772	0.745568	1.143221
C441	C	0.603649	0.028672	0.366519
C442	C	0.853649	0.278672	0.616519
C443	C	1.103649	0.528672	0.866519
C444	C	1.353649	0.778672	1.116519
C445	C	0.570527	0.061773	0.393228
C446	C	0.820527	0.311773	0.643228
C447	C	1.070527	0.561773	0.893228
C448	C	1.320527	0.811773	1.143228
C449	C	0.504274	0.127975	0.446644
C450	C	0.754274	0.377975	0.696644
C451	C	1.004274	0.627975	0.946644
C452	C	1.254274	0.877975	1.196644
C453	C	0.504273	0.127972	0.393226
C454	C	0.754273	0.377972	0.643226
C455	C	1.004273	0.627972	0.893226
C456	C	1.254273	0.877972	1.143226
C457	C	0.537398	0.094869	0.366517
C458	C	0.787398	0.344869	0.616517
C459	C	1.037398	0.594869	0.866517
C460	C	1.287398	0.844869	1.116517
C461	C	0.537402	0.094881	0.313115
C462	C	0.787402	0.344881	0.563115
C463	C	1.037402	0.594881	0.813115
C464	C	1.287402	0.844881	1.063115
N465	N	0.570522	0.061777	0.286403
N466	N	0.820522	0.311777	0.536403
N467	N	1.070522	0.561777	0.786403
N468	N	1.320522	0.811777	1.036403
C469	C	0.603645	0.028672	0.313105
C470	C	0.853645	0.278672	0.563105
C471	C	1.103645	0.528672	0.813105
C472	C	1.353645	0.778672	1.063105
C473	C	0.537425	0.094864	0.799180
C474	C	0.787425	0.344864	1.049180
C475	C	1.037425	0.594864	1.299180
C476	C	1.287425	0.844864	1.549180
C477	C	0.537429	0.094863	0.852594
C478	C	0.787429	0.344863	1.102594
C479	C	1.037429	0.594863	1.352594
C480	C	1.287429	0.844863	1.602594
C481	C	0.603675	0.028653	0.852584
C482	C	0.853675	0.278653	1.102584
C483	C	1.103675	0.528653	1.352584
C484	C	1.353675	0.778653	1.602584
C485	C	0.603673	0.028656	0.799169
C486	C	0.853673	0.278656	1.049169
C487	C	1.103673	0.528656	1.299169
C488	C	1.353673	0.778656	1.549169
C489	C	0.570545	0.061760	0.772468
C490	C	0.820545	0.311760	1.022468
C491	C	1.070545	0.561760	1.272468
C492	C	1.320545	0.811760	1.522468
C493	C	0.603640	0.028683	0.200937
C494	C	0.853640	0.278683	0.450937
C495	C	1.103640	0.528683	0.700937
C496	C	1.353640	0.778683	0.950937
C497	C	0.603637	0.028691	0.147520
C498	C	0.853637	0.278691	0.397520
C499	C	1.103637	0.528691	0.647520
C500	C	1.353637	0.778691	0.897520
C501	C	0.537390	0.094900	0.147535
C502	C	0.787390	0.344900	0.397535
C503	C	1.037390	0.594900	0.647535
C504	C	1.287390	0.844900	0.897535
C505	C	0.537394	0.094894	0.200947
C506	C	0.787394	0.344894	0.450947
C507	C	1.037394	0.594894	0.700947
C508	C	1.287394	0.844894	0.950947
C509	C	0.570521	0.061781	0.227646
C510	C	0.820521	0.311781	0.477646
C511	C	1.070521	0.561781	0.727646
C512	C	1.320521	0.811781	0.977646
O513	O	0.509257	0.123029	0.285452
O514	O	0.759257	0.373029	0.535452
O515	O	1.009257	0.623029	0.785452
O516	O	1.259257	0.873029	1.035452
O517	O	0.631807	0.000516	0.285472
O518	O	0.881807	0.250516	0.535472
O519	O	1.131807	0.500516	0.785472
O520	O	1.381807	0.750516	1.035472
C521	C	0.603652	0.028661	0.526753
C522	C	0.853652	0.278661	0.776753
C523	C	1.103652	0.528661	1.026753
C524	C	1.353652	0.778661	1.276753
C525	C	0.570530	0.061761	0.553463
C526	C	0.820530	0.311761	0.803463
C527	C	1.070530	0.561761	1.053463
C528	C	1.320530	0.811761	1.303463
C529	C	0.537407	0.094865	0.526761
C530	C	0.787407	0.344865	0.776761
C531	C	1.037407	0.594865	1.026761
C532	C	1.287407	0.844865	1.276761
C533	C	0.570534	0.061761	0.606877
C534	C	0.820534	0.311761	0.856877
C535	C	1.070534	0.561761	1.106877
C536	C	1.320534	0.811761	1.356877
C537	C	0.603657	0.028657	0.633579
C538	C	0.853657	0.278657	0.883579
C539	C	1.103657	0.528657	1.133579
C540	C	1.353657	0.778657	1.383579
C541	C	0.636777	-0.004447	0.606867
C542	C	0.886777	0.245553	0.856867
C543	C	1.136777	0.495553	1.106867
C544	C	1.386777	0.745553	1.356867
C545	C	0.636776	-0.004444	0.553455
C546	C	0.886776	0.245556	0.803455
C547	C	1.136776	0.495556	1.053455
C548	C	1.386776	0.745556	1.303455
C549	C	0.504287	0.127969	0.553473
C550	C	0.754287	0.377969	0.803473
C551	C	1.004287	0.627969	1.053473
C552	C	1.254287	0.877969	1.303473
C553	C	0.504292	0.127963	0.606884
C554	C	0.754292	0.377963	0.856884
C555	C	1.004292	0.627963	1.106884
C556	C	1.254292	0.877963	1.356884
C557	C	0.537415	0.094859	0.633586
C558	C	0.787415	0.344859	0.883586
C559	C	1.037415	0.594859	1.133586
C560	C	1.287415	0.844859	1.383586
H561	H	-0.050820	0.060544	0.130242
H562	H	0.199180	0.310544	0.380242
H563	H	0.449180	0.560544	0.630242
H564	H	0.699180	0.810544	0.880242
H565	H	0.423790	0.065384	-0.083881
H566	H	0.673790	0.315384	0.166119
H567	H	0.923790	0.565384	0.416119
H568	H	1.173790	0.815384	0.666119
H569	H	0.663744	-0.031389	0.371477
H570	H	0.913744	0.218611	0.621477
H571	H	1.163744	0.468611	0.871477
H572	H	1.413744	0.718611	1.121477
H573	H	-0.050800	0.060507	-0.130117
H574	H	0.199200	0.310507	0.119883
H575	H	0.449200	0.560507	0.369883
H576	H	0.699200	0.810507	0.619883
H577	H	0.510425	0.121854	0.222694
H578	H	0.760425	0.371854	0.472694
H579	H	1.010425	0.621854	0.722694
H580	H	1.260425	0.871854	0.972694
H581	H	0.040647	0.061441	-0.130119
H582	H	0.290647	0.311441	0.119881
H583	H	0.540647	0.561441	0.369881
H584	H	0.790647	0.811441	0.619881
H585	H	0.663749	-0.031401	0.628616
H586	H	0.913749	0.218599	0.878616
H587	H	1.163749	0.468599	1.128616
H588	H	1.413749	0.718599	1.378616
H589	H	0.574164	-0.084966	-0.083853
H590	H	0.824164	0.165034	0.166147
H591	H	1.074164	0.415034	0.416147
H592	H	1.324164	0.665034	0.666147
H593	H	0.477301	0.154930	0.468384
H594	H	0.727301	0.404930	0.718384
H595	H	0.977301	0.654930	0.968384
H596	H	1.227301	0.904930	1.218384
H597	H	0.573216	-0.176415	-0.083863
H598	H	0.823216	0.073585	0.166137
H599	H	1.073216	0.323585	0.416137
H600	H	1.323216	0.573585	0.666137
H601	H	-0.191265	0.059081	-0.083861
H602	H	0.058735	0.309081	0.166139
H603	H	0.308735	0.559081	0.416139
H604	H	0.558735	0.809081	0.666139
H605	H	0.477295	0.154929	0.371489
H606	H	0.727295	0.404929	0.621489
H607	H	0.977295	0.654929	0.871489
H608	H	1.227295	0.904929	1.121489
H609	H	0.570191	-0.468116	0.130229
H610	H	0.820191	-0.218116	0.380229
H611	H	1.070191	0.031884	0.630229
H612	H	1.320191	0.281884	0.880229
H613	H	0.191874	0.063033	0.130239
H614	H	0.441874	0.313033	0.380239
H615	H	0.691874	0.563033	0.630239
H616	H	0.941874	0.813033	0.880239
H617	H	0.571790	-0.316867	-0.130126
H618	H	0.821790	-0.066867	0.119874
H619	H	1.071790	0.183133	0.369874
H620	H	1.321790	0.433133	0.619874
H621	H	0.100428	0.062095	0.130242
H622	H	0.350428	0.312095	0.380242
H623	H	0.600428	0.562095	0.630242
H624	H	0.850428	0.812095	0.880242
H625	H	0.630646	0.001700	0.777425
H626	H	0.880646	0.251700	1.027425
H627	H	1.130646	0.501700	1.277425
H628	H	1.380646	0.751700	1.527425
H629	H	0.630615	0.001719	0.222669
H630	H	0.880615	0.251719	0.472669
H631	H	1.130615	0.501719	0.722669
H632	H	1.380615	0.751719	0.972669
H633	H	0.663746	-0.031396	0.468368
H634	H	0.913746	0.218604	0.718368
H635	H	1.163746	0.468604	0.968368
H636	H	1.413746	0.718604	1.218368
H637	H	0.570795	-0.408318	0.130240
H638	H	0.820795	-0.158318	0.380240
H639	H	1.070795	0.091682	0.630240
H640	H	1.320795	0.341682	0.880240
H641	H	0.569254	-0.559563	0.130225
H642	H	0.819254	-0.309563	0.380225
H643	H	1.069254	-0.059563	0.630225
H644	H	1.319254	0.190437	0.880225
H645	H	0.573195	-0.176435	0.083996
H646	H	0.823195	0.073565	0.333996
H647	H	1.073195	0.323565	0.583996
H648	H	1.323195	0.573565	0.833996
H649	H	0.510447	0.121822	0.777444
H650	H	0.760447	0.371822	1.027444
H651	H	1.010447	0.621822	1.277444
H652	H	1.260447	0.871822	1.527444
H653	H	0.574133	-0.084969	0.083997
H654	H	0.824133	0.165031	0.333997
H655	H	1.074133	0.415031	0.583997
H656	H	1.324133	0.665031	0.833997
H657	H	0.332329	0.064469	0.083977
H658	H	0.582329	0.314469	0.333977
H659	H	0.832329	0.564469	0.583977
H660	H	1.082329	0.814469	0.833977
H661	H	0.570850	-0.408313	-0.130131
H662	H	0.820850	-0.158313	0.119869
H663	H	1.070850	0.091687	0.369869
H664	H	1.320850	0.341687	0.619869
H665	H	0.567867	-0.700012	-0.083890
H666	H	0.817867	-0.450012	0.166110
H667	H	1.067867	-0.200012	0.416110
H668	H	1.317867	0.049988	0.666110
H669	H	0.663749	-0.031399	0.531712
H670	H	0.913749	0.218601	0.781712
H671	H	1.163749	0.468601	1.031712
H672	H	1.413749	0.718601	1.281712
H673	H	0.510423	0.121854	0.125786
H674	H	0.760423	0.371854	0.375786
H675	H	1.010423	0.621854	0.625786
H676	H	1.260423	0.871854	0.875786
H677	H	0.630646	0.001699	0.874334
H678	H	0.880646	0.251699	1.124334
H679	H	1.130646	0.501699	1.374334
H680	H	1.380646	0.751699	1.624334
H681	H	0.630613	0.001735	0.125775
H682	H	0.880613	0.251735	0.375775
H683	H	1.130613	0.501735	0.625775
H684	H	1.380613	0.751735	0.875775
H685	H	-0.191267	0.059113	0.083997
H686	H	0.058733	0.309113	0.333997
H687	H	0.308733	0.559113	0.583997
H688	H	0.558733	0.809113	0.833997
H689	H	0.040640	0.061482	0.130245
H690	H	0.290640	0.311482	0.380245
H691	H	0.540640	0.561482	0.630245
H692	H	0.790640	0.811482	0.880245
H693	H	0.571719	-0.316866	0.130242
H694	H	0.821719	-0.066866	0.380242
H695	H	1.071719	0.183134	0.630242
H696	H	1.321719	0.433134	0.880242
H697	H	0.510460	0.121824	0.874337
H698	H	0.760460	0.371824	1.124337
H699	H	1.010460	0.621824	1.374337
H700	H	1.260460	0.871824	1.624337
H701	H	0.477318	0.154924	0.628627
H702	H	0.727318	0.404924	0.878627
H703	H	0.977318	0.654924	1.128627
H704	H	1.227318	0.904924	1.378627
H705	H	-0.282716	0.058156	-0.083856
H706	H	-0.032716	0.308156	0.166144
H707	H	0.217284	0.558156	0.416144
H708	H	0.467284	0.808156	0.666144
H709	H	0.423779	0.065411	0.083969
H710	H	0.673779	0.315411	0.333969
H711	H	0.923779	0.565411	0.583969
H712	H	1.173779	0.815411	0.833969
H713	H	-0.282732	0.058174	0.083995
H714	H	-0.032732	0.308174	0.333995
H715	H	0.217268	0.558174	0.583995
H716	H	0.467268	0.808174	0.833995
H717	H	0.477314	0.154926	0.531736
H718	H	0.727314	0.404926	0.781736
H719	H	0.977314	0.654926	1.031736
H720	H	1.227314	0.904926	1.281736
H721	H	0.566906	-0.791475	0.083961
H722	H	0.816906	-0.541475	0.333961
H723	H	1.066906	-0.291475	0.583961
H724	H	1.316906	-0.041475	0.833961
H725	H	0.100445	0.062046	-0.130130
H726	H	0.350445	0.312046	0.119870
H727	H	0.600445	0.562046	0.369870
H728	H	0.850445	0.812046	0.619870
H729	H	0.191895	0.062979	-0.130130
H730	H	0.441895	0.312979	0.119870
H731	H	0.691895	0.562979	0.369870
H732	H	0.941895	0.812979	0.619870
H733	H	0.566929	-0.791477	-0.083890
H734	H	0.816929	-0.541477	0.166110
H735	H	1.066929	-0.291477	0.416110
H736	H	1.316929	-0.041477	0.666110
H737	H	0.332323	0.064450	-0.083882
H738	H	0.582323	0.314450	0.166118
H739	H	0.832323	0.564450	0.416118
H740	H	1.082323	0.814450	0.666118
H741	H	0.567833	-0.700025	0.083967
H742	H	0.817833	-0.450025	0.333967
H743	H	1.067833	-0.200025	0.583967
H744	H	1.317833	0.049975	0.833967
H745	H	0.570238	-0.468101	-0.130135
H746	H	0.820238	-0.218101	0.119865
H747	H	1.070238	0.031899	0.369865
H748	H	1.320238	0.281899	0.619865
H749	H	0.569301	-0.559561	-0.130134
H750	H	0.819301	-0.309561	0.119866
H751	H	1.069301	-0.059561	0.369866
H752	H	1.319301	0.190439	0.619866
