data_functionalizedCrystal
_audit_creation_method	'MofGen! by Chris Wilmer'
_symmetry_space_group_name_H-M	'P1'
_symmetry_Int_Tables_number	1
_symmetry_cell_setting	triclinic
loop_
_symmetry_equiv_pos_as_xyz
  x,y,z
_cell_length_a	12.503584
_cell_length_b	17.699083
_cell_length_c	17.699083
_cell_angle_alpha	96.716985
_cell_angle_beta	86.484170
_cell_angle_gamma	86.494770
loop_
_atom_site_label
_atom_site_type_symbol
_atom_site_fract_x
_atom_site_fract_y
_atom_site_fract_z
O1	O	-0.089171	1.008441	-0.091331
O2	O	0.160829	1.258441	0.158669
O3	O	0.410829	1.508441	0.408669
O4	O	0.660829	1.758441	0.658669
O5	O	-0.089207	0.788065	-0.103782
O6	O	0.160793	1.038065	0.146218
O7	O	0.410793	1.288065	0.396218
O8	O	0.660793	1.538065	0.646218
O9	O	-0.089179	0.904479	0.012632
O10	O	0.160821	1.154479	0.262632
O11	O	0.410821	1.404479	0.512632
O12	O	0.660821	1.654479	0.762632
O13	O	-0.089200	0.892027	-0.207745
O14	O	0.160800	1.142027	0.042255
O15	O	0.410800	1.392027	0.292255
O16	O	0.660800	1.642027	0.542255
O17	O	0.089461	0.895723	0.003861
O18	O	0.339461	1.145723	0.253861
O19	O	0.589461	1.395723	0.503861
O20	O	0.839461	1.645723	0.753861
O21	O	0.089433	0.779309	-0.112553
O22	O	0.339433	1.029309	0.137447
O23	O	0.589433	1.279309	0.387447
O24	O	0.839433	1.529309	0.637447
O25	O	0.089468	0.999686	-0.100102
O26	O	0.339468	1.249686	0.149898
O27	O	0.589468	1.499686	0.399898
O28	O	0.839468	1.749686	0.649898
Cu29	Cu	0.105762	0.888698	-0.107128
Cu30	Cu	0.355762	1.138698	0.142872
Cu31	Cu	0.605762	1.388698	0.392872
Cu32	Cu	0.855762	1.638698	0.642872
Cu33	Cu	-0.105500	0.899052	-0.096756
Cu34	Cu	0.144500	1.149052	0.153244
Cu35	Cu	0.394500	1.399052	0.403244
Cu36	Cu	0.644500	1.649052	0.653244
O37	O	0.089440	0.883272	-0.216516
O38	O	0.339440	1.133272	0.033484
O39	O	0.589440	1.383272	0.283484
O40	O	0.839440	1.633272	0.533484
C41	C	0.000109	0.755490	-0.107721
C42	C	0.250109	1.005490	0.142279
C43	C	0.500109	1.255490	0.392279
C44	C	0.750109	1.505490	0.642279
C45	C	0.000095	0.671473	-0.106382
C46	C	0.250095	0.921473	0.143618
C47	C	0.500095	1.171473	0.393618
C48	C	0.750095	1.421473	0.643618
N49	N	0.254352	0.881421	-0.114423
N50	N	0.504352	1.131421	0.135577
N51	N	0.754352	1.381421	0.385577
N52	N	1.004352	1.631421	0.635577
C53	C	0.000089	0.622852	-0.174715
C54	C	0.250089	0.872852	0.075285
C55	C	0.500089	1.122852	0.325285
C56	C	0.750089	1.372852	0.575285
C57	C	0.000103	0.543908	-0.173453
C58	C	0.250103	0.793908	0.076547
C59	C	0.500103	1.043908	0.326547
C60	C	0.750103	1.293908	0.576547
C61	C	0.000116	0.513587	-0.103857
C62	C	0.250116	0.763587	0.146143
C63	C	0.500116	1.013587	0.396143
C64	C	0.750116	1.263587	0.646143
C65	C	0.000125	0.562213	-0.035519
C66	C	0.250125	0.812213	0.214481
C67	C	0.500125	1.062213	0.464481
C68	C	0.750125	1.312213	0.714481
C69	C	0.000119	0.641155	-0.036782
C70	C	0.250119	0.891155	0.213218
C71	C	0.500119	1.141155	0.463218
C72	C	0.750119	1.391155	0.713218
C73	C	0.000152	0.243849	-0.030425
C74	C	0.250152	0.493849	0.219575
C75	C	0.500152	0.743849	0.469575
C76	C	0.750152	0.993849	0.719575
C77	C	0.000155	0.164901	-0.029168
C78	C	0.250155	0.414901	0.220832
C79	C	0.500155	0.664901	0.470832
C80	C	0.750155	0.914901	0.720832
C81	C	0.000137	0.146602	-0.167097
C82	C	0.250137	0.396602	0.082903
C83	C	0.500137	0.646602	0.332903
C84	C	0.750137	0.896602	0.582903
C85	C	0.000130	0.225544	-0.168359
C86	C	0.250130	0.475544	0.081641
C87	C	0.500130	0.725544	0.331641
C88	C	0.750130	0.975544	0.581641
C89	C	0.000145	0.274163	-0.100022
C90	C	0.250145	0.524163	0.149978
C91	C	0.500145	0.774163	0.399978
C92	C	0.750145	1.024163	0.649978
C93	C	0.000132	0.359763	-0.101391
C94	C	0.250132	0.609763	0.148609
C95	C	0.500132	0.859763	0.398609
C96	C	0.750132	1.109763	0.648609
C97	C	0.000121	0.427989	-0.102487
C98	C	0.250121	0.677989	0.147513
C99	C	0.500121	0.927989	0.397513
C100	C	0.750121	1.177989	0.647513
C101	C	0.473465	0.870716	-0.125161
C102	C	0.723465	1.120716	0.124839
C103	C	0.973465	1.370716	0.374839
C104	C	1.223465	1.620716	0.624839
C105	C	0.526803	0.917036	-0.078727
C106	C	0.776803	1.167036	0.171273
C107	C	1.026803	1.417036	0.421273
C108	C	1.276803	1.667036	0.671273
C109	C	0.648725	0.911079	-0.084702
C110	C	0.898725	1.161079	0.165298
C111	C	1.148725	1.411079	0.415298
C112	C	1.398725	1.661079	0.665298
C113	C	0.351532	0.876671	-0.119187
C114	C	0.601532	1.126671	0.130813
C115	C	0.851532	1.376671	0.380813
C116	C	1.101532	1.626671	0.630813
N117	N	0.745909	0.906333	-0.089463
N118	N	0.995909	1.156333	0.160537
N119	N	1.245909	1.406333	0.410537
N120	N	1.495909	1.656333	0.660537
C121	C	0.000141	0.899655	0.036444
C122	C	0.250141	1.149655	0.286444
C123	C	0.500141	1.399655	0.536444
C124	C	0.750141	1.649655	0.786444
C125	C	0.000142	0.898316	0.120462
C126	C	0.250142	1.148316	0.370462
C127	C	0.500142	1.398316	0.620462
C128	C	0.750142	1.648316	0.870462
C129	C	0.000151	1.032260	-0.096163
C130	C	0.250151	1.282260	0.153837
C131	C	0.500151	1.532260	0.403837
C132	C	0.750151	1.782260	0.653837
C133	C	0.000157	1.116278	-0.097502
C134	C	0.250157	1.366278	0.152498
C135	C	0.500157	1.616278	0.402498
C136	C	0.750157	1.866278	0.652498
C137	C	0.000118	0.888096	-0.240328
C138	C	0.250118	1.138096	0.009672
C139	C	0.500118	1.388096	0.259672
C140	C	0.750118	1.638096	0.509672
C141	C	0.000111	0.889435	-0.324345
C142	C	0.250111	1.139435	-0.074345
C143	C	0.500111	1.389435	0.175655
C144	C	0.750111	1.639435	0.425655
C145	C	0.000154	0.966649	0.169082
C146	C	0.250154	1.216649	0.419082
C147	C	0.500154	1.466649	0.669082
C148	C	0.750154	1.716649	0.919082
C149	C	0.000144	0.965387	0.248026
C150	C	0.250144	1.215387	0.498026
C151	C	0.500144	1.465387	0.748026
C152	C	0.750144	1.715387	0.998026
C153	C	0.000130	0.895791	0.278347
C154	C	0.250130	1.145791	0.528347
C155	C	0.500130	1.395791	0.778347
C156	C	0.750130	1.645791	1.028347
C157	C	0.000114	0.827453	0.229721
C158	C	0.250114	1.077453	0.479721
C159	C	0.500114	1.327453	0.729721
C160	C	0.750114	1.577453	0.979721
C161	C	0.000116	0.828716	0.150779
C162	C	0.250116	1.078716	0.400779
C163	C	0.500116	1.328716	0.650779
C164	C	0.750116	1.578716	0.900779
C165	C	0.000105	0.822359	0.548084
C166	C	0.250105	1.072359	0.798084
C167	C	0.500105	1.322359	1.048084
C168	C	0.750105	1.572359	1.298084
C169	C	0.000106	0.821101	0.627032
C170	C	0.250106	1.071101	0.877032
C171	C	0.500106	1.321101	1.127032
C172	C	0.750106	1.571101	1.377032
C173	C	0.000133	0.959029	0.645331
C174	C	0.250133	1.209029	0.895331
C175	C	0.500133	1.459029	1.145331
C176	C	0.750133	1.709029	1.395331
C177	C	0.000135	0.960292	0.566389
C178	C	0.250135	1.210292	0.816389
C179	C	0.500135	1.460292	1.066389
C180	C	0.750135	1.710292	1.316389
C181	C	0.000113	0.891955	0.517770
C182	C	0.250113	1.141955	0.767770
C183	C	0.500113	1.391955	1.017770
C184	C	0.750113	1.641955	1.267770
C185	C	0.000122	0.893324	0.432171
C186	C	0.250122	1.143324	0.682171
C187	C	0.500122	1.393324	0.932171
C188	C	0.750122	1.643324	1.182171
C189	C	0.000129	0.894421	0.363945
C190	C	0.250129	1.144421	0.613945
C191	C	0.500129	1.394421	0.863945
C192	C	0.750129	1.644421	1.113945
H193	H	0.000078	0.647533	-0.231388
H194	H	0.250078	0.897533	0.018612
H195	H	0.500078	1.147533	0.268612
H196	H	0.750078	1.397533	0.518612
Cl197	Cl	0.455940	0.985457	-0.010712
Cl198	Cl	0.705940	1.235457	0.239288
Cl199	Cl	0.955940	1.485457	0.489288
Cl200	Cl	1.205940	1.735457	0.739288
H201	H	0.519362	0.826590	-0.169399
H202	H	0.769362	1.076590	0.080601
H203	H	1.019362	1.326590	0.330601
H204	H	1.269362	1.576590	0.580601
Cl205	Cl	0.000183	1.054145	0.130971
Cl206	Cl	0.250183	1.304145	0.380971
Cl207	Cl	0.500183	1.554145	0.630971
Cl208	Cl	0.750183	1.804145	0.880971
Cl209	Cl	0.000155	1.044941	0.706458
Cl210	Cl	0.250155	1.294941	0.956458
Cl211	Cl	0.500155	1.544941	1.206458
Cl212	Cl	0.750155	1.794941	1.456458
H213	H	0.000087	0.766714	0.508508
H214	H	0.250087	1.016714	0.758508
H215	H	0.500087	1.266714	1.008508
H216	H	0.750087	1.516714	1.258508
H217	H	0.000157	1.021031	0.287610
H218	H	0.250157	1.271031	0.537610
H219	H	0.500157	1.521031	0.787610
H220	H	0.750157	1.771031	1.037610
H221	H	0.000095	0.770788	0.254415
H222	H	0.250095	1.020788	0.504415
H223	H	0.500095	1.270788	0.754415
H224	H	0.750095	1.520788	1.004415
H225	H	0.000152	1.016964	0.541706
H226	H	0.250152	1.266964	0.791706
H227	H	0.500152	1.516964	1.041706
H228	H	0.750152	1.766964	1.291706
Cl229	Cl	0.000096	0.742809	0.089656
Cl230	Cl	0.250096	0.992809	0.339656
Cl231	Cl	0.500096	1.242809	0.589656
Cl232	Cl	0.750096	1.492809	0.839656
H233	H	0.000096	0.764424	0.651716
H234	H	0.250096	1.014424	0.901716
H235	H	0.500096	1.264424	1.151716
H236	H	0.750096	1.514424	1.401716
H237	H	0.000130	0.107005	-0.222741
H238	H	0.250130	0.357005	0.027259
H239	H	0.500130	0.607005	0.277259
H240	H	0.750130	0.857005	0.527259
H241	H	0.000097	0.504324	-0.229097
H242	H	0.250097	0.754324	0.020903
H243	H	0.500097	1.004324	0.270903
H244	H	0.750097	1.254324	0.520903
H245	H	0.000165	0.283426	0.025219
H246	H	0.250165	0.533426	0.275219
H247	H	0.500165	0.783426	0.525219
H248	H	0.750165	1.033426	0.775219
Cl249	Cl	0.000108	0.263658	-0.255854
Cl250	Cl	0.250108	0.513658	-0.005854
Cl251	Cl	0.500108	0.763658	0.244146
Cl252	Cl	0.750108	1.013658	0.494146
H253	H	0.000151	0.537519	0.021146
H254	H	0.250151	0.787519	0.271146
H255	H	0.500151	1.037519	0.521146
H256	H	0.750151	1.287519	0.771146
Cl257	Cl	0.000172	0.126784	0.058331
Cl258	Cl	0.250172	0.376784	0.308331
Cl259	Cl	0.500172	0.626784	0.558331
Cl260	Cl	0.750172	0.876784	0.808331
H261	H	0.000123	0.680742	0.018862
H262	H	0.250123	0.930742	0.268862
H263	H	0.500123	1.180742	0.518862
H264	H	0.750123	1.430742	0.768862
