data_functionalizedCrystal
_audit_creation_method	'MofGen! by Chris Wilmer'
_symmetry_space_group_name_H-M	'P1'
_symmetry_Int_Tables_number	1
_symmetry_cell_setting	triclinic
loop_
_symmetry_equiv_pos_as_xyz
  x,y,z
_cell_length_a	15.297475
_cell_length_b	15.297327
_cell_length_c	15.297908
_cell_angle_alpha	110.755734
_cell_angle_beta	72.640407
_cell_angle_gamma	91.625546
loop_
_atom_site_label
_atom_site_type_symbol
_atom_site_fract_x
_atom_site_fract_y
_atom_site_fract_z
Zn1	Zn	1.401251	-0.754794	-0.882695
Zn2	Zn	1.356634	-0.874065	-0.744760
Zn3	Zn	1.228159	-0.691656	-0.691033
Zn4	Zn	1.228095	-0.873985	-0.873348
O5	O	1.303535	-0.798625	-0.797959
O6	O	1.521565	-0.797073	-0.890794
O7	O	1.320945	-0.823478	-0.603608
O8	O	1.269819	-0.573811	-0.697885
O9	O	1.488785	-0.884700	-0.789454
O10	O	1.396989	-0.620198	-0.838698
O11	O	1.226555	-0.689463	-0.564135
O12	O	1.101917	-0.689385	-0.688821
O13	O	1.269711	-0.884564	-1.008613
O14	O	1.101871	-0.823341	-0.822767
O15	O	1.396927	-0.796995	-1.015481
O16	O	1.320884	-1.000274	-0.780391
O17	O	1.226447	-1.000216	-0.874863
C18	C	1.069163	-0.749504	-0.748950
C19	C	0.968898	-0.728516	-0.728010
C20	C	0.686163	-0.948636	-0.947626
C21	C	0.780365	-0.968362	-0.967299
C22	C	0.827503	-0.908402	-0.907479
C23	C	0.780429	-0.828713	-0.827982
C24	C	0.686215	-0.808990	-0.808302
C25	C	0.827556	-0.768755	-0.768155
C26	C	0.780481	-0.689067	-0.688658
C27	C	0.686277	-0.669347	-0.668983
C28	C	0.639139	-0.729306	-0.728803
C29	C	0.921769	-0.788479	-0.787834
C30	C	0.921822	-0.648832	-0.648510
C31	C	0.827619	-0.629107	-0.628838
C32	C	1.268845	-1.032982	-0.832469
C33	C	1.254091	-1.133264	-0.847281
C34	C	1.409398	-1.416016	-0.692495
C35	C	1.423259	-1.321794	-0.678573
C36	C	1.380968	-1.274657	-0.720749
C37	C	1.324814	-1.321751	-0.776849
C38	C	1.310946	-1.415979	-0.790767
C39	C	1.282517	-1.274621	-0.819021
C40	C	1.226363	-1.321714	-0.875121
C41	C	1.212498	-1.415934	-0.889036
C42	C	1.254788	-1.463071	-0.846860
C43	C	1.296384	-1.180392	-0.805103
C44	C	1.197933	-1.180356	-0.903375
C45	C	1.184072	-1.274577	-0.917297
C46	C	1.538821	-0.847939	-0.847160
C47	C	1.639087	-0.868953	-0.868127
C48	C	1.338289	-0.847814	-1.047770
C49	C	1.353099	-0.868775	-1.154225
C50	C	1.338388	-0.563362	-0.763341
C51	C	1.353240	-0.463107	-0.748589
C52	C	1.198279	-0.648768	-1.372107
C53	C	1.184367	-0.629066	-1.272086
C54	C	1.226548	-0.688991	-1.242616
C55	C	1.282645	-0.768623	-1.313176
C56	C	1.296564	-0.788324	-1.413206
C57	C	1.324833	-0.828547	-1.283715
C58	C	1.380930	-0.908178	-1.354275
C59	C	1.394846	-0.927876	-1.454295
C60	C	1.352665	-0.867950	-1.483766
C61	C	1.310914	-0.808846	-1.183685
C62	C	1.409200	-0.948401	-1.224784
C63	C	1.423112	-0.968104	-1.324805
C64	C	1.268977	-0.749573	-0.549121
C65	C	1.254379	-0.728395	-0.442666
H66	H	0.647949	-0.604466	-0.604242
O67	O	0.537531	-0.708032	-0.707589
H68	H	0.512714	-0.642547	-0.642263
O69	O	1.123868	-0.543185	-1.195983
H70	H	1.164713	-0.496788	-1.152116
O71	O	1.455011	-1.466842	-0.647003
H72	H	1.530761	-1.466760	-0.675606
H73	H	1.265241	-0.744008	-1.126244
H74	H	0.789277	-0.564224	-0.564110
H75	H	1.215217	-0.672945	-1.161173
O76	O	0.972650	-0.584149	-0.583984
H77	H	1.046069	-0.611244	-0.611030
H78	H	1.342105	-1.142057	-0.759426
O79	O	1.152815	-0.584119	-1.403891
H80	H	1.171926	-0.611194	-1.485299
H81	H	1.392256	-1.197937	-0.709409
O82	O	1.239838	-1.564700	-0.861883
H83	H	1.165446	-1.571536	-0.831931
H84	H	1.363983	-0.883992	-1.565209
O85	O	1.151928	-1.466731	-0.949536
H86	H	1.124856	-1.418130	-0.976534
H87	H	1.468978	-1.283454	-0.632896
H88	H	0.647773	-0.997451	-0.996318
O89	O	0.831138	-1.054306	-1.053033
H90	H	0.886826	-1.032604	-1.104860
O91	O	1.123492	-1.325374	-0.977785
H92	H	1.164300	-1.386313	-1.041308
H93	H	1.443550	-0.997196	-1.200791
O94	O	1.152317	-1.129531	-0.948876
H95	H	1.171403	-1.056104	-0.929784
H96	H	1.440532	-0.992711	-1.511745
O97	O	1.483617	-1.053991	-1.400907
H98	H	1.541839	-1.032218	-1.450133
O99	O	0.972547	-0.874411	-0.873583
H100	H	0.941694	-0.938142	-0.863691
O101	O	0.929108	-0.929671	-0.928691
H102	H	0.953925	-0.995152	-0.994023
