data_functionalizedCrystal
_audit_creation_method	'MofGen! by Chris Wilmer'
_symmetry_space_group_name_H-M	'P1'
_symmetry_Int_Tables_number	1
_symmetry_cell_setting	triclinic
loop_
_symmetry_equiv_pos_as_xyz
  x,y,z
_cell_length_a	17.077404
_cell_length_b	17.077402
_cell_length_c	17.077396
_cell_angle_alpha	89.970216
_cell_angle_beta	90.021444
_cell_angle_gamma	89.978870
loop_
_atom_site_label
_atom_site_type_symbol
_atom_site_fract_x
_atom_site_fract_y
_atom_site_fract_z
Zn1	Zn	1.200055	0.312545	0.443876
Zn2	Zn	1.450055	0.562545	0.693876
Zn3	Zn	1.700055	0.812545	0.943876
Zn4	Zn	1.950055	1.062545	1.193876
Zn5	Zn	1.199962	0.443820	0.312607
Zn6	Zn	1.449962	0.693820	0.562607
Zn7	Zn	1.699962	0.943820	0.812607
Zn8	Zn	1.949962	1.193820	1.062607
Zn9	Zn	1.068786	0.312568	0.312620
Zn10	Zn	1.318786	0.562568	0.562620
Zn11	Zn	1.568786	0.812568	0.812620
Zn12	Zn	1.818786	1.062568	1.062620
Zn13	Zn	1.068754	0.443769	0.443826
Zn14	Zn	1.318754	0.693769	0.693826
Zn15	Zn	1.568754	0.943769	0.943826
Zn16	Zn	1.818754	1.193769	1.193826
O17	O	1.134389	0.378175	0.378232
O18	O	1.384389	0.628175	0.628232
O19	O	1.634389	0.878175	0.878232
O20	O	1.884389	1.128175	1.128232
O21	O	1.309889	0.329970	0.426479
O22	O	1.559889	0.579970	0.676479
O23	O	1.809889	0.829970	0.926479
O24	O	2.059889	1.079970	1.176479
O25	O	1.182536	0.426440	0.202762
O26	O	1.432536	0.676440	0.452762
O27	O	1.682536	0.926440	0.702762
O28	O	1.932536	1.176440	0.952762
O29	O	1.086252	0.202718	0.330057
O30	O	1.336252	0.452718	0.580057
O31	O	1.586252	0.702718	0.830057
O32	O	1.836252	0.952718	1.080057
O33	O	1.309821	0.426418	0.330036
O34	O	1.559821	0.676418	0.580036
O35	O	1.809821	0.926418	0.830036
O36	O	2.059821	1.176418	1.080036
O37	O	1.182694	0.202701	0.426491
O38	O	1.432694	0.452701	0.676491
O39	O	1.682694	0.702701	0.926491
O40	O	1.932694	0.952701	1.176491
O41	O	1.086162	0.330010	0.202771
O42	O	1.336162	0.580010	0.452771
O43	O	1.586162	0.830010	0.702771
O44	O	1.836162	1.080010	0.952771
O45	O	0.958935	0.329960	0.330009
O46	O	1.208935	0.579960	0.580009
O47	O	1.458935	0.829960	0.830009
O48	O	1.708935	1.079960	1.080009
O49	O	1.086197	0.426330	0.553680
O50	O	1.336197	0.676330	0.803680
O51	O	1.586197	0.926330	1.053680
O52	O	1.836197	1.176330	1.303680
O53	O	0.958912	0.426353	0.426406
O54	O	1.208912	0.676353	0.676406
O55	O	1.458912	0.926353	0.926406
O56	O	1.708912	1.176353	1.176406
O57	O	1.182663	0.329921	0.553717
O58	O	1.432663	0.579921	0.803717
O59	O	1.682663	0.829921	1.053717
O60	O	1.932663	1.079921	1.303717
O61	O	1.182505	0.553660	0.329988
O62	O	1.432505	0.803660	0.579988
O63	O	1.682505	1.053660	0.829988
O64	O	1.932505	1.303660	1.079988
O65	O	1.086107	0.553622	0.426394
O66	O	1.336107	0.803622	0.676394
O67	O	1.586107	1.053622	0.926394
O68	O	1.836107	1.303622	1.176394
C69	C	0.930441	0.378154	0.378204
C70	C	1.180441	0.628154	0.628204
C71	C	1.430441	0.878154	0.878204
C72	C	1.680441	1.128154	1.128204
C73	C	0.843192	0.378164	0.378210
C74	C	1.093192	0.628164	0.628210
C75	C	1.343192	0.878164	0.878210
C76	C	1.593192	1.128164	1.128210
C77	C	1.134314	0.582123	0.378201
C78	C	1.384314	0.832123	0.628201
C79	C	1.634314	1.082123	0.878201
C80	C	1.884314	1.332123	1.128201
C81	C	1.134353	0.669373	0.378214
C82	C	1.384353	0.919373	0.628214
C83	C	1.634353	1.169373	0.878214
C84	C	1.884353	1.419373	1.128214
C85	C	0.467410	0.328067	0.428559
C86	C	0.717410	0.578067	0.678559
C87	C	0.967410	0.828067	0.928559
C88	C	1.217410	1.078067	1.178559
C89	C	0.549390	0.328061	0.428550
C90	C	0.799390	0.578061	0.678550
C91	C	1.049390	0.828061	0.928550
C92	C	1.299390	1.078061	1.178550
C93	C	0.590343	0.378192	0.378252
C94	C	0.840343	0.628192	0.628252
C95	C	1.090343	0.878192	0.878252
C96	C	1.340343	1.128192	1.128252
C97	C	0.549310	0.428337	0.327965
C98	C	0.799310	0.678337	0.577965
C99	C	1.049310	0.928337	0.827965
C100	C	1.299310	1.178337	1.077965
C101	C	0.467332	0.428346	0.327978
C102	C	0.717332	0.678346	0.577978
C103	C	0.967332	0.928346	0.827978
C104	C	1.217332	1.178346	1.077978
C105	C	0.720181	0.428313	0.327940
C106	C	0.970181	0.678313	0.577940
C107	C	1.220181	0.928313	0.827940
C108	C	1.470181	1.178313	1.077940
C109	C	0.802165	0.428303	0.327925
C110	C	1.052165	0.678303	0.577925
C111	C	1.302165	0.928303	0.827925
C112	C	1.552165	1.178303	1.077925
C113	C	0.802239	0.328029	0.428512
C114	C	1.052239	0.578029	0.678512
C115	C	1.302239	0.828029	0.928512
C116	C	1.552239	1.078029	1.178512
C117	C	0.720260	0.328038	0.428525
C118	C	0.970260	0.578038	0.678525
C119	C	1.220260	0.828038	0.928525
C120	C	1.470260	1.078038	1.178525
C121	C	0.679234	0.378182	0.378237
C122	C	0.929234	0.628182	0.628237
C123	C	1.179234	0.878182	0.878237
C124	C	1.429234	1.128182	1.128237
C125	C	1.134437	0.378117	0.582977
C126	C	1.384437	0.628117	0.832977
C127	C	1.634437	0.878117	1.082977
C128	C	1.884437	1.128117	1.332977
C129	C	1.134457	0.378093	0.670227
C130	C	1.384457	0.628093	0.920227
C131	C	1.634457	0.878093	1.170227
C132	C	1.884457	1.128093	1.420227
C133	C	1.339134	0.378197	0.378262
C134	C	1.589134	0.628197	0.628262
C135	C	1.839134	0.878197	0.878262
C136	C	2.089134	1.128197	1.128262
C137	C	1.426383	0.378206	0.378274
C138	C	1.676383	0.628206	0.628274
C139	C	1.926383	0.878206	0.878274
C140	C	2.176383	1.128206	1.128274
C141	C	1.134487	0.173431	0.378281
C142	C	1.384487	0.423431	0.628281
C143	C	1.634487	0.673431	0.878281
C144	C	1.884487	0.923431	1.128281
C145	C	1.134528	0.086181	0.378302
C146	C	1.384528	0.336181	0.628302
C147	C	1.634528	0.586181	0.878302
C148	C	1.884528	0.836181	1.128302
C149	C	1.184598	0.710357	0.328069
C150	C	1.434598	0.960357	0.578069
C151	C	1.684598	1.210357	0.828069
C152	C	1.934598	1.460357	1.078069
C153	C	1.184637	0.792337	0.328089
C154	C	1.434637	1.042337	0.578089
C155	C	1.684637	1.292337	0.828089
C156	C	1.934637	1.542337	1.078089
C157	C	1.134425	0.833332	0.378251
C158	C	1.384425	1.083332	0.628251
C159	C	1.634425	1.333332	0.878251
C160	C	1.884425	1.583332	1.128251
C161	C	1.084178	0.792343	0.428401
C162	C	1.334178	1.042343	0.678401
C163	C	1.584178	1.292343	0.928401
C164	C	1.834178	1.542343	1.178401
C165	C	1.084144	0.710364	0.428384
C166	C	1.334144	0.960364	0.678384
C167	C	1.584144	1.210364	0.928384
C168	C	1.834144	1.460364	1.178384
C169	C	1.084250	0.963213	0.428431
C170	C	1.334250	1.213213	0.678431
C171	C	1.584250	1.463213	0.928431
C172	C	1.834250	1.713213	1.178431
C173	C	1.084283	1.045197	0.428447
C174	C	1.334283	1.295197	0.678447
C175	C	1.584283	1.545197	0.928447
C176	C	1.834283	1.795197	1.178447
C177	C	1.184743	1.045186	0.328136
C178	C	1.434743	1.295186	0.578136
C179	C	1.684743	1.545186	0.828136
C180	C	1.934743	1.795186	1.078136
C181	C	1.184709	0.963207	0.328119
C182	C	1.434709	1.213207	0.578119
C183	C	1.684709	1.463207	0.828119
C184	C	1.934709	1.713207	1.078119
C185	C	1.134461	0.922223	0.378269
C186	C	1.384461	1.172223	0.628269
C187	C	1.634461	1.422223	0.878269
C188	C	1.884461	1.672223	1.128269
C189	C	1.134387	0.378176	0.174285
C190	C	1.384387	0.628176	0.424285
C191	C	1.634387	0.878176	0.674285
C192	C	1.884387	1.128176	0.924285
C193	C	1.134519	0.377980	0.087035
C194	C	1.384519	0.627980	0.337035
C195	C	1.634519	0.877980	0.587035
C196	C	1.884519	1.127980	0.837035
C197	C	1.184689	0.327888	0.711237
C198	C	1.434689	0.577888	0.961237
C199	C	1.684689	0.827888	1.211237
C200	C	1.934689	1.077888	1.461237
C201	C	1.184698	0.327862	0.793218
C202	C	1.434698	0.577862	1.043218
C203	C	1.684698	0.827862	1.293218
C204	C	1.934698	1.077862	1.543218
C205	C	1.134479	0.378045	0.834186
C206	C	1.384479	0.628045	1.084186
C207	C	1.634479	0.878045	1.334186
C208	C	1.884479	1.128045	1.584186
C209	C	1.084242	0.428252	0.793170
C210	C	1.334242	0.678252	1.043170
C211	C	1.584242	0.928252	1.293170
C212	C	1.834242	1.178252	1.543170
C213	C	1.084229	0.428273	0.711191
C214	C	1.334229	0.678273	0.961191
C215	C	1.584229	0.928273	1.211191
C216	C	1.834229	1.178273	1.461191
C217	C	1.084274	0.428205	0.964040
C218	C	1.334274	0.678205	1.214040
C219	C	1.584274	0.928205	1.464040
C220	C	1.834274	1.178205	1.714040
C221	C	1.084288	0.428184	1.046025
C222	C	1.334288	0.678184	1.296025
C223	C	1.584288	0.928184	1.546025
C224	C	1.834288	1.178184	1.796025
C225	C	1.184742	0.327793	1.046067
C226	C	1.434742	0.577793	1.296067
C227	C	1.684742	0.827793	1.546067
C228	C	1.934742	1.077793	1.796067
C229	C	1.184730	0.327815	0.964088
C230	C	1.434730	0.577815	1.214088
C231	C	1.684730	0.827815	1.464088
C232	C	1.934730	1.077815	1.714088
C233	C	1.134493	0.378023	0.923077
C234	C	1.384493	0.628023	1.173077
C235	C	1.634493	0.878023	1.423077
C236	C	1.884493	1.128023	1.673077
H237	H	0.434072	0.287240	0.469513
H238	H	0.684072	0.537240	0.719513
H239	H	0.934072	0.787240	0.969513
H240	H	1.184072	1.037240	1.219513
H241	H	1.225591	0.929829	0.287270
H242	H	1.475591	1.179829	0.537270
H243	H	1.725591	1.429829	0.787270
H244	H	1.975591	1.679829	1.037270
H245	H	1.225645	0.286911	1.079462
H246	H	1.475645	0.536911	1.329462
H247	H	1.725645	0.786911	1.579462
H248	H	1.975645	1.036911	1.829462
H249	H	1.043298	0.825728	0.469247
H250	H	1.293298	1.075728	0.719247
H251	H	1.543298	1.325728	0.969247
H252	H	1.793298	1.575728	1.219247
Cl253	Cl	1.247906	1.096708	0.265083
Cl254	Cl	1.497906	1.346708	0.515083
Cl255	Cl	1.747906	1.596708	0.765083
Cl256	Cl	1.997906	1.846708	1.015083
Cl257	Cl	1.247808	0.843856	0.265050
Cl258	Cl	1.497808	1.093856	0.515050
Cl259	Cl	1.747808	1.343856	0.765050
Cl260	Cl	1.997808	1.593856	1.015050
H261	H	1.043411	1.078574	0.469307
H262	H	1.293411	1.328574	0.719307
H263	H	1.543411	1.578574	0.969307
H264	H	1.793411	1.828574	1.219307
H265	H	0.582791	0.287236	0.469500
H266	H	0.832791	0.537236	0.719500
H267	H	1.082791	0.787236	0.969500
H268	H	1.332791	1.037236	1.219500
H269	H	1.225585	0.287026	0.677886
H270	H	1.475585	0.537026	0.927886
H271	H	1.725585	0.787026	1.177886
H272	H	1.975585	1.037026	1.427886
Cl273	Cl	1.247720	0.658828	0.265000
Cl274	Cl	1.497720	0.908828	0.515000
Cl275	Cl	1.747720	1.158828	0.765000
Cl276	Cl	1.997720	1.408828	1.015000
Cl277	Cl	0.668778	0.265013	0.491755
Cl278	Cl	0.918778	0.515013	0.741755
Cl279	Cl	1.168778	0.765013	0.991755
Cl280	Cl	1.418778	1.015013	1.241755
H281	H	0.835647	0.287198	0.469457
H282	H	1.085647	0.537198	0.719457
H283	H	1.335647	0.787198	0.969457
H284	H	1.585647	1.037198	1.219457
H285	H	0.835506	0.469126	0.286970
H286	H	1.085506	0.719126	0.536970
H287	H	1.335506	0.969126	0.786970
H288	H	1.585506	1.219126	1.036970
H289	H	1.043354	0.469077	0.930652
H290	H	1.293354	0.719077	1.180652
H291	H	1.543354	0.969077	1.430652
H292	H	1.793354	1.219077	1.680652
H293	H	0.582660	0.469157	0.287014
H294	H	0.832660	0.719157	0.537014
H295	H	1.082660	0.969157	0.787014
H296	H	1.332660	1.219157	1.037014
H297	H	1.043350	0.469109	0.826533
H298	H	1.293350	0.719109	1.076533
H299	H	1.543350	0.969109	1.326533
H300	H	1.793350	1.219109	1.576533
H301	H	1.043335	0.929847	0.469271
H302	H	1.293335	1.179847	0.719271
H303	H	1.543335	1.429847	0.969271
H304	H	1.793335	1.679847	1.219271
Cl305	Cl	0.668605	0.491362	0.264728
Cl306	Cl	0.918605	0.741362	0.514728
Cl307	Cl	1.168605	0.991362	0.764728
Cl308	Cl	1.418605	1.241362	1.014728
H309	H	1.043318	0.469147	0.677801
H310	H	1.293318	0.719147	0.927801
H311	H	1.543318	0.969147	1.177801
H312	H	1.793318	1.219147	1.427801
H313	H	1.043230	0.676996	0.469218
H314	H	1.293230	0.926996	0.719218
H315	H	1.543230	1.176996	0.969218
H316	H	1.793230	1.426996	1.219218
Cl317	Cl	1.247884	0.264779	0.844770
Cl318	Cl	1.497884	0.514779	1.094770
Cl319	Cl	1.747884	0.764779	1.344770
Cl320	Cl	1.997884	1.014779	1.594770
Cl321	Cl	1.247867	0.264731	0.912585
Cl322	Cl	1.497867	0.514731	1.162585
Cl323	Cl	1.747867	0.764731	1.412585
Cl324	Cl	1.997867	1.014731	1.662585
H325	H	1.043393	0.469046	1.079379
H326	H	1.293393	0.719046	1.329379
H327	H	1.543393	0.969046	1.579379
H328	H	1.793393	1.219046	1.829379
H329	H	0.433929	0.469176	0.287032
H330	H	0.683929	0.719176	0.537032
H331	H	0.933929	0.969176	0.787032
H332	H	1.183929	1.219176	1.037032
