data_functionalizedCrystal
_audit_creation_method	'MofGen! by Chris Wilmer'
_symmetry_space_group_name_H-M	'P1'
_symmetry_Int_Tables_number	1
_symmetry_cell_setting	triclinic
loop_
_symmetry_equiv_pos_as_xyz
  x,y,z
_cell_length_a	19.805407
_cell_length_b	18.101395
_cell_length_c	19.805399
_cell_angle_alpha	89.973474
_cell_angle_beta	89.983114
_cell_angle_gamma	90.031104
loop_
_atom_site_label
_atom_site_type_symbol
_atom_site_fract_x
_atom_site_fract_y
_atom_site_fract_z
Zn1	Zn	1.034696	-0.294836	-0.382731
Zn2	Zn	1.534696	0.205164	0.117269
Zn3	Zn	1.034607	-0.418683	-0.269548
Zn4	Zn	1.534607	0.081317	0.230452
Zn5	Zn	0.921516	-0.294860	-0.269556
Zn6	Zn	1.421516	0.205140	0.230444
Zn7	Zn	0.921465	-0.418641	-0.382695
Zn8	Zn	1.421465	0.081359	0.117305
O9	O	0.978071	-0.356755	-0.326132
O10	O	1.478071	0.143245	0.173868
O11	O	1.129400	-0.311273	-0.367729
O12	O	1.629400	0.188727	0.132271
O13	O	1.019589	-0.402285	-0.174832
O14	O	1.519589	0.097715	0.325168
O15	O	0.936588	-0.191224	-0.284587
O16	O	1.436588	0.308776	0.215413
O17	O	1.129335	-0.402263	-0.284574
O18	O	1.629335	0.097737	0.215426
O19	O	1.019741	-0.191207	-0.367737
O20	O	1.519741	0.308793	0.132263
O21	O	0.936501	-0.311313	-0.174838
O22	O	1.436501	0.188687	0.325162
O23	O	0.826792	-0.311272	-0.284552
O24	O	1.326792	0.188728	0.215448
O25	O	0.936501	-0.402190	-0.477416
O26	O	1.436501	0.097810	0.022584
O27	O	0.826755	-0.402213	-0.367674
O28	O	1.326755	0.097787	0.132326
O29	O	1.019691	-0.311232	-0.477443
O30	O	1.519691	0.188768	0.022557
O31	O	1.019539	-0.522310	-0.284538
O32	O	1.519539	-0.022310	0.215462
O33	O	0.936414	-0.522279	-0.367667
O34	O	1.436414	-0.022279	0.132333
C35	C	0.802215	-0.356741	-0.326110
C36	C	1.302215	0.143259	0.173890
C37	C	0.726983	-0.356753	-0.326117
C38	C	1.226983	0.143247	0.173883
C39	C	0.691637	-0.404177	-0.369329
C40	C	1.191637	0.095823	0.130671
C41	C	0.620948	-0.404178	-0.369339
C42	C	1.120948	0.095822	0.130661
C43	C	0.585607	-0.356758	-0.326132
C44	C	1.085607	0.143242	0.173868
C45	C	0.620958	-0.309329	-0.282919
C46	C	1.120958	0.190671	0.217081
C47	C	0.691645	-0.309324	-0.282913
C48	C	1.191645	0.190676	0.217087
C49	C	0.335885	-0.309345	-0.282941
C50	C	0.835885	0.190655	0.217059
C51	C	0.265193	-0.309355	-0.282948
C52	C	0.765193	0.190645	0.217052
C53	C	0.265188	-0.404199	-0.369367
C54	C	0.765188	0.095801	0.130633
C55	C	0.335875	-0.404195	-0.369361
C56	C	0.835875	0.095805	0.130639
C57	C	0.371220	-0.356763	-0.326150
C58	C	0.871220	0.143237	0.173850
C59	C	0.447868	-0.356761	-0.326141
C60	C	0.947868	0.143239	0.173859
C61	C	0.508960	-0.356763	-0.326137
C62	C	1.008960	0.143237	0.173863
C63	C	0.977980	-0.549166	-0.326112
C64	C	1.477980	-0.049166	0.173888
C65	C	0.978003	-0.631480	-0.326127
C66	C	1.478003	-0.131480	0.173873
C67	C	0.978152	-0.930571	-0.326163
C68	C	1.478152	-0.430571	0.173837
C69	C	0.925973	-0.899257	-0.378595
C70	C	1.425973	-0.399257	0.121405
C71	C	0.925725	-0.813639	-0.378431
C72	C	1.425725	-0.313639	0.121569
C73	C	0.978078	-0.782188	-0.326146
C74	C	1.478078	-0.282188	0.173854
C75	C	0.958771	-0.813338	-0.254811
C76	C	1.458771	-0.313338	0.245189
C77	C	0.958434	-0.898984	-0.255125
C78	C	1.458434	-0.398984	0.244875
C79	C	1.049752	-0.898915	-0.344438
C80	C	1.549752	-0.398915	0.155562
C81	C	1.049331	-0.813264	-0.346002
C82	C	1.549331	-0.313264	0.153998
C83	C	0.978038	-0.698329	-0.326131
C84	C	1.478038	-0.198329	0.173869
C85	C	0.978191	-1.014430	-0.326173
C86	C	1.478191	-0.514430	0.173827
C87	C	1.154613	-0.356770	-0.326155
C88	C	1.654613	0.143230	0.173845
C89	C	1.229845	-0.356776	-0.326164
C90	C	1.729845	0.143224	0.173836
C91	C	0.978100	-0.356704	-0.502675
C92	C	1.478100	0.143296	-0.002675
C93	C	0.978113	-0.356682	-0.577907
C94	C	1.478113	0.143318	-0.077907
C95	C	0.978180	-0.163593	-0.326167
C96	C	1.478180	0.336407	0.173833
C97	C	0.978227	-0.081279	-0.326182
C98	C	1.478227	0.418721	0.173818
C99	C	0.934862	-0.309308	-0.613254
C100	C	1.434862	0.190692	-0.113254
C101	C	0.934871	-0.309294	-0.683942
C102	C	1.434871	0.190706	-0.183942
C103	C	0.978135	-0.356650	-0.719283
C104	C	1.478135	0.143350	-0.219283
C105	C	1.021389	-0.404029	-0.683931
C106	C	1.521389	0.095971	-0.183931
C107	C	1.021375	-0.404046	-0.613244
C108	C	1.521375	0.095954	-0.113244
C109	C	1.021442	-0.403959	-0.969005
C110	C	1.521442	0.096041	-0.469005
C111	C	1.021454	-0.403937	-1.039697
C112	C	1.521454	0.096063	-0.539697
C113	C	0.934938	-0.309207	-1.039703
C114	C	1.434938	0.190793	-0.539703
C115	C	0.934925	-0.309224	-0.969016
C116	C	1.434925	0.190776	-0.469016
C117	C	0.978175	-0.356606	-0.933670
C118	C	1.478175	0.143394	-0.433670
C119	C	0.978163	-0.356622	-0.857022
C120	C	1.478163	0.143378	-0.357022
C121	C	0.978151	-0.356631	-0.795930
C122	C	1.478151	0.143369	-0.295930
C123	C	0.978080	-0.356753	-0.150276
C124	C	1.478080	0.143247	0.349724
C125	C	0.978198	-0.356566	-0.075045
C126	C	1.478198	0.143434	0.424955
H127	H	0.592178	-0.270716	-0.247742
H128	H	1.092178	0.229284	0.252258
Br129	Br	0.876133	-0.245038	-0.731911
Br130	Br	1.376133	0.254962	-0.231911
H131	H	0.720423	-0.270703	-0.247729
H132	H	1.220423	0.229297	0.252271
Br133	Br	1.080100	-0.468306	-0.731892
Br134	Br	1.580100	0.031694	-0.231892
Br135	Br	0.217216	-0.468574	-0.428010
Br136	Br	0.717216	0.031426	0.071990
H137	H	1.088627	-0.919164	-0.306250
H138	H	1.588627	-0.419164	0.193750
H139	H	1.056600	-0.442617	-0.584466
H140	H	1.556600	0.057383	-0.084466
Br141	Br	0.876238	-0.244903	-1.087675
Br142	Br	1.376238	0.255097	-0.587675
Br143	Br	0.945856	-0.778527	-0.466591
Br144	Br	1.445856	-0.278527	0.033409
Br145	Br	0.383835	-0.468557	-0.427996
Br146	Br	0.883835	0.031443	0.072004
Br147	Br	1.117559	-0.777568	-0.286998
Br148	Br	1.617559	-0.277568	0.213002
Br149	Br	0.945901	-0.933506	-0.467045
Br150	Br	1.445901	-0.433506	0.032955
H151	H	0.364654	-0.270729	-0.247751
H152	H	0.864654	0.229271	0.252249
Br153	Br	0.739593	-0.468542	-0.427964
Br154	Br	1.239593	0.031458	0.072036
Br155	Br	0.871199	-0.932394	-0.229322
Br156	Br	1.371199	-0.432394	0.270678
Br157	Br	0.876147	-0.245030	-0.565299
Br158	Br	1.376147	0.254970	-0.065299
H159	H	1.056652	-0.442548	-0.940235
H160	H	1.556652	0.057452	-0.440235
H161	H	0.592173	-0.442797	-0.404525
H162	H	1.092173	0.057203	0.095475
H163	H	1.056687	-0.442503	-1.068469
H164	H	1.556687	0.057497	-0.568469
Br165	Br	0.217229	-0.244995	-0.224307
Br166	Br	0.717229	0.255005	0.275693
Br167	Br	0.838056	-0.935254	-0.358692
Br168	Br	1.338056	-0.435254	0.141308
Br169	Br	0.876210	-0.244949	-0.921057
Br170	Br	1.376210	0.255051	-0.421057
H171	H	0.994790	-0.919700	-0.214727
H172	H	1.494790	-0.419700	0.285273
Br173	Br	1.020120	-0.779391	-0.187919
Br174	Br	1.520120	-0.279391	0.312081
H175	H	1.067356	-0.920463	-0.395569
H176	H	1.567356	-0.420463	0.104431
Br177	Br	0.872457	-0.777701	-0.228544
Br178	Br	1.372457	-0.277701	0.271456
Br179	Br	0.837267	-0.779591	-0.358260
Br180	Br	1.337267	-0.279591	0.141740
Br181	Br	1.073602	-0.779328	-0.433504
Br182	Br	1.573602	-0.279328	0.066496
