data_functionalizedCrystal
_audit_creation_method	'MofGen! by Chris Wilmer'
_symmetry_space_group_name_H-M	'P1'
_symmetry_Int_Tables_number	1
_symmetry_cell_setting	triclinic
loop_
_symmetry_equiv_pos_as_xyz
  x,y,z
_cell_length_a	25.639242
_cell_length_b	25.639239
_cell_length_c	25.639233
_cell_angle_alpha	89.981253
_cell_angle_beta	90.022166
_cell_angle_gamma	89.965787
loop_
_atom_site_label
_atom_site_type_symbol
_atom_site_fract_x
_atom_site_fract_y
_atom_site_fract_z
Zn1	Zn	0.799225	0.208277	0.295742
Zn2	Zn	1.132558	0.541610	0.629076
Zn3	Zn	1.465892	0.874943	0.962409
Zn4	Zn	0.799149	0.295696	0.208307
Zn5	Zn	1.132482	0.629029	0.541640
Zn6	Zn	1.465815	0.962362	0.874973
Zn7	Zn	0.711801	0.208269	0.208306
Zn8	Zn	1.045135	0.541602	0.541640
Zn9	Zn	1.378468	0.874936	0.874973
Zn10	Zn	0.711746	0.295676	0.295696
Zn11	Zn	1.045080	0.629010	0.629030
Zn12	Zn	1.378413	0.962343	0.962363
O13	O	0.755480	0.251979	0.252013
O14	O	1.088814	0.585313	0.585346
O15	O	1.422147	0.918646	0.918680
O16	O	0.872380	0.219884	0.284163
O17	O	1.205713	0.553218	0.617496
O18	O	1.539047	0.886551	0.950830
O19	O	0.787553	0.284103	0.135141
O20	O	1.120886	0.617437	0.468475
O21	O	1.454219	0.950770	0.801808
O22	O	0.723453	0.135105	0.219924
O23	O	1.056787	0.468438	0.553257
O24	O	1.390120	0.801772	0.886591
O25	O	0.872324	0.284111	0.219924
O26	O	1.205657	0.617444	0.553258
O27	O	1.538991	0.950777	0.886591
O28	O	0.787683	0.135111	0.284163
O29	O	1.121016	0.468444	0.617496
O30	O	1.454350	0.801777	0.950829
O31	O	0.723379	0.219871	0.135141
O32	O	1.056712	0.553205	0.468474
O33	O	1.390046	0.886538	0.801808
O34	O	0.638629	0.219853	0.219880
O35	O	0.971962	0.553186	0.553213
O36	O	1.305296	0.886519	0.886546
O37	O	0.723360	0.284078	0.368868
O38	O	1.056693	0.617411	0.702201
O39	O	1.390026	0.950744	1.035534
O40	O	0.638589	0.284070	0.284085
O41	O	0.971922	0.617403	0.617418
O42	O	1.305255	0.950737	0.950751
O43	O	0.787630	0.219866	0.368901
O44	O	1.120963	0.553199	0.702235
O45	O	1.454297	0.886532	1.035568
O46	O	0.787499	0.368858	0.219880
O47	O	1.120833	0.702192	0.553213
O48	O	1.454166	1.035525	0.886547
O49	O	0.723286	0.368844	0.284085
O50	O	1.056619	0.702177	0.617418
O51	O	1.389952	1.035511	0.950752
C52	C	0.619638	0.251959	0.251977
C53	C	0.952971	0.585292	0.585311
C54	C	1.286304	0.918625	0.918644
C55	C	0.561524	0.251963	0.251975
C56	C	0.894857	0.585296	0.585308
C57	C	1.228190	0.918629	0.918641
C58	C	0.755392	0.387822	0.251989
C59	C	1.088726	0.721155	0.585322
C60	C	1.422059	1.054489	0.918656
C61	C	0.755403	0.445936	0.251996
C62	C	1.088736	0.779269	0.585330
C63	C	1.422069	1.112603	0.918663
C64	C	0.201149	0.285473	0.285413
C65	C	0.534482	0.618807	0.618746
C66	C	0.867815	0.952140	0.952080
C67	C	0.146544	0.285477	0.285421
C68	C	0.479878	0.618810	0.618754
C69	C	0.813211	0.952143	0.952088
O70	O	0.118297	0.313943	0.313821
O71	O	0.451631	0.647276	0.647155
O72	O	0.784964	0.980610	0.980488
N73	N	0.119241	0.251994	0.252047
N74	N	0.452575	0.585327	0.585380
N75	N	0.785908	0.918660	0.918714
C76	C	0.146545	0.218502	0.218666
C77	C	0.479879	0.551835	0.552000
C78	C	0.813212	0.885169	0.885333
O79	O	0.118308	0.190022	0.190280
O80	O	0.451641	0.523356	0.523613
O81	O	0.784975	0.856689	0.856947
C82	C	0.201149	0.218496	0.218661
C83	C	0.534482	0.551830	0.551994
C84	C	0.867815	0.885163	0.885328
C85	C	0.228449	0.251985	0.252034
C86	C	0.561782	0.585319	0.585367
C87	C	0.895116	0.918652	0.918700
C88	C	0.228449	0.318959	0.318783
C89	C	0.561782	0.652292	0.652116
C90	C	0.895115	0.985626	0.985450
C91	C	0.283049	0.318956	0.318774
C92	C	0.616383	0.652290	0.652107
C93	C	0.949716	0.985623	0.985441
C94	C	0.310350	0.285468	0.285395
C95	C	0.643683	0.618801	0.618728
C96	C	0.977016	0.952135	0.952061
C97	C	0.283049	0.251983	0.252024
C98	C	0.616383	0.585316	0.585358
C99	C	0.949716	0.918649	0.918691
C100	C	0.228452	0.185002	0.185283
C101	C	0.561785	0.518336	0.518617
C102	C	0.895119	0.851669	0.851950
C103	C	0.283059	0.185000	0.185281
C104	C	0.616392	0.518333	0.518615
C105	C	0.949726	0.851666	0.851948
C106	C	0.310359	0.218488	0.218654
C107	C	0.643692	0.551822	0.551987
C108	C	0.977026	0.885155	0.885320
C109	C	0.364950	0.218492	0.218636
C110	C	0.698284	0.551825	0.551969
C111	C	1.031617	0.885158	0.885303
N112	N	0.392253	0.251974	0.252010
N113	N	0.725587	0.585308	0.585344
N114	N	1.058920	0.918641	0.918677
C115	C	0.364953	0.285463	0.285389
C116	C	0.698286	0.618796	0.618723
C117	C	1.031620	0.952129	0.952056
C118	C	0.031875	0.218515	0.218680
C119	C	0.365208	0.551849	0.552014
C120	C	0.698541	0.885182	0.885347
C121	C	-0.022728	0.218523	0.218683
C122	C	0.310606	0.551856	0.552016
C123	C	0.643939	0.885190	0.885349
C124	C	-0.022725	0.285497	0.285438
C125	C	0.310608	0.618830	0.618772
C126	C	0.643942	0.952164	0.952105
C127	C	0.031878	0.285492	0.285433
C128	C	0.365212	0.618825	0.618766
C129	C	0.698545	0.952158	0.952100
C130	C	0.059178	0.251998	0.252054
C131	C	0.392511	0.585331	0.585388
C132	C	0.725844	0.918665	0.918721
C133	C	0.479618	0.285455	0.285368
C134	C	0.812951	0.618788	0.618701
C135	C	1.146285	0.952122	0.952034
C136	C	0.534223	0.285451	0.285354
C137	C	0.867557	0.618784	0.618687
C138	C	1.200890	0.952117	0.952021
C139	C	0.534216	0.218475	0.218601
C140	C	0.867549	0.551808	0.551934
C141	C	1.200883	0.885142	0.885267
C142	C	0.479615	0.218481	0.218612
C143	C	0.812949	0.551814	0.551945
C144	C	1.146282	0.885147	0.885279
C145	C	0.452318	0.251972	0.252000
C146	C	0.785651	0.585306	0.585333
C147	C	1.118984	0.918639	0.918666
O148	O	0.393232	0.190038	0.190252
O149	O	0.726565	0.523372	0.523585
O150	O	1.059899	0.856705	0.856918
O151	O	0.393197	0.313933	0.313776
O152	O	0.726530	0.647266	0.647109
O153	O	1.059864	0.980599	0.980442
C154	C	0.755497	0.251970	0.388386
C155	C	1.088831	0.585304	0.721719
C156	C	1.422164	0.918637	1.055053
C157	C	0.755504	0.251966	0.446500
C158	C	1.088838	0.585300	0.779833
C159	C	1.422171	0.918633	1.113167
C160	C	0.891853	0.252000	0.252049
C161	C	1.225187	0.585334	0.585382
C162	C	1.558520	0.918667	0.918715
C163	C	0.949967	0.252009	0.252064
C164	C	1.283301	0.585343	0.585397
C165	C	1.616634	0.918676	0.918731
C166	C	0.755583	0.115606	0.252048
C167	C	1.088916	0.448940	0.585382
C168	C	1.422250	0.782273	0.918715
C169	C	0.755627	0.057492	0.252064
C170	C	1.088960	0.390826	0.585397
C171	C	1.422293	0.724159	0.918730
C172	C	0.789004	0.806294	0.218638
C173	C	1.122337	1.139627	0.551972
C174	C	1.455670	1.472961	0.885305
C175	C	0.789024	0.860898	0.218645
C176	C	1.122357	1.194232	0.551979
C177	C	1.455691	1.527565	0.885312
O178	O	0.817502	0.889131	0.190257
O179	O	1.150835	1.222464	0.523590
O180	O	1.484168	1.555797	0.856924
N181	N	0.755572	0.888218	0.252048
N182	N	1.088906	1.221552	0.585381
N183	N	1.422239	1.554885	0.918714
C184	C	0.722102	0.860932	0.285449
C185	C	1.055435	1.194265	0.618782
C186	C	1.388768	1.527598	0.952115
O187	O	0.693651	0.889184	0.313861
O188	O	1.026984	1.222517	0.647194
O189	O	1.360317	1.555850	0.980528
C190	C	0.722085	0.806328	0.285444
C191	C	1.055418	1.139662	0.618777
C192	C	1.388751	1.472995	0.952111
C193	C	0.755535	0.779011	0.252036
C194	C	1.088868	1.112344	0.585369
C195	C	1.422201	1.445678	0.918702
C196	C	0.822452	0.778976	0.185233
C197	C	1.155785	1.112310	0.518567
C198	C	1.489118	1.445643	0.851900
C199	C	0.822431	0.724376	0.185226
C200	C	1.155764	1.057709	0.518559
C201	C	1.489097	1.391043	0.851892
C202	C	0.788962	0.697093	0.218623
C203	C	1.122295	1.030426	0.551957
C204	C	1.455628	1.363760	0.885290
C205	C	0.755514	0.724410	0.252028
C206	C	1.088847	1.057744	0.585362
C207	C	1.422180	1.391077	0.918695
C208	C	0.688617	0.779042	0.318847
C209	C	1.021950	1.112376	0.652181
C210	C	1.355284	1.445709	0.985514
C211	C	0.688603	0.724435	0.318840
C212	C	1.021936	1.057769	0.652173
C213	C	1.355270	1.391102	0.985507
C214	C	0.722053	0.697118	0.285432
C215	C	1.055387	1.030451	0.618765
C216	C	1.388720	1.363785	0.952099
C217	C	0.722024	0.642527	0.285418
C218	C	1.055357	0.975860	0.618751
C219	C	1.388690	1.309193	0.952085
N220	N	0.755475	0.615206	0.252016
N221	N	1.088809	0.948540	0.585349
N222	N	1.422142	1.281873	0.918683
C223	C	0.788944	0.642490	0.218618
C224	C	1.122278	0.975823	0.551952
C225	C	1.455611	1.309156	0.885285
C226	C	0.722141	0.975602	0.285457
C227	C	1.055474	1.308936	0.618790
C228	C	1.388808	1.642269	0.952123
C229	C	0.722155	1.030204	0.285459
C230	C	1.055489	1.363538	0.618793
C231	C	1.388822	1.696871	0.952126
C232	C	0.789078	1.030167	0.218656
C233	C	1.122412	1.363501	0.551990
C234	C	1.455745	1.696834	0.885323
C235	C	0.789061	0.975564	0.218652
C236	C	1.122395	1.308897	0.551985
C237	C	1.455728	1.642231	0.885318
C238	C	0.755593	0.948282	0.252055
C239	C	1.088926	1.281615	0.585388
C240	C	1.422260	1.614949	0.918721
C241	C	0.788897	0.527824	0.218605
C242	C	1.122231	0.861158	0.551938
C243	C	1.455564	1.194491	0.885272
C244	C	0.788872	0.473219	0.218599
C245	C	1.122205	0.806552	0.551932
C246	C	1.455538	1.139886	0.885265
C247	C	0.721951	0.473261	0.285403
C248	C	1.055284	0.806594	0.618737
C249	C	1.388617	1.139928	0.952070
C250	C	0.721974	0.527862	0.285408
C251	C	1.055307	0.861195	0.618741
C252	C	1.388641	1.194528	0.952074
C253	C	0.755452	0.555142	0.252007
C254	C	1.088785	0.888475	0.585340
C255	C	1.422118	1.221809	0.918673
O256	O	0.693562	0.614260	0.313793
O257	O	1.026895	0.947593	0.647127
O258	O	1.360229	1.280926	0.980460
O259	O	0.817396	0.614231	0.190216
O260	O	1.150729	0.947564	0.523549
O261	O	1.484062	1.280898	0.856883
C262	C	0.755494	0.251951	0.116170
C263	C	1.088827	0.585284	0.449504
C264	C	1.422160	0.918617	0.782837
C265	C	0.755588	0.251807	0.058057
C266	C	1.088921	0.585141	0.391390
C267	C	1.422254	0.918474	0.724723
C268	C	0.789012	0.218432	0.806886
C269	C	1.122346	0.551765	1.140220
C270	C	1.455679	0.885098	1.473553
C271	C	0.789019	0.218417	0.861491
C272	C	1.122352	0.551751	1.194824
C273	C	1.455685	0.885084	1.528157
O274	O	0.817466	0.189967	0.889747
O275	O	1.150799	0.523300	1.223080
O276	O	1.484133	0.856633	1.556414
N277	N	0.755562	0.251844	0.888783
N278	N	1.088895	0.585177	1.222116
N279	N	1.422229	0.918510	1.555449
C280	C	0.722093	0.285283	0.861468
C281	C	1.055426	0.618616	1.194801
C282	C	1.388760	0.951950	1.528134
O283	O	0.693636	0.313713	0.889695
O284	O	1.026969	0.647046	1.223029
O285	O	1.360302	0.980380	1.556362
C286	C	0.722084	0.285294	0.806864
C287	C	1.055418	0.618628	1.140198
C288	C	1.388751	0.951961	1.473531
C289	C	0.755547	0.251870	0.779575
C290	C	1.088880	0.585203	1.112908
C291	C	1.422214	0.918536	1.446242
C292	C	0.822472	0.185009	0.779597
C293	C	1.155805	0.518343	1.112930
C294	C	1.489138	0.851676	1.446264
C295	C	0.822466	0.185025	0.724997
C296	C	1.155799	0.518358	1.058330
C297	C	1.489133	0.851691	1.391663
C298	C	0.789000	0.218462	0.697685
C299	C	1.122334	0.551796	1.031019
C300	C	1.455667	0.885129	1.364352
C301	C	0.755541	0.251885	0.724974
C302	C	1.088874	0.585218	1.058308
C303	C	1.422208	0.918552	1.391641
C304	C	0.688613	0.318731	0.779550
C305	C	1.021946	0.652064	1.112883
C306	C	1.355280	0.985397	1.446217
C307	C	0.688607	0.318739	0.724943
C308	C	1.021940	0.652072	1.058276
C309	C	1.355273	0.985406	1.391610
C310	C	0.722069	0.285314	0.697654
C311	C	1.055403	0.618648	1.030987
C312	C	1.388736	0.951981	1.364320
C313	C	0.722070	0.285338	0.643063
C314	C	1.055403	0.618671	0.976396
C315	C	1.388736	0.952005	1.309729
N316	N	0.755526	0.251912	0.615771
N317	N	1.088860	0.585245	0.949104
N318	N	1.422193	0.918578	1.282437
C319	C	0.788992	0.218474	0.643082
C320	C	1.122325	0.551807	0.976415
C321	C	1.455658	0.885140	1.309749
C322	C	0.722113	0.285256	0.976138
C323	C	1.055446	0.618589	1.309472
C324	C	1.388780	0.951923	1.642805
C325	C	0.722124	0.285247	1.030741
C326	C	1.055457	0.618581	1.364074
C327	C	1.388791	0.951914	1.697407
C328	C	0.789049	0.218381	1.030760
C329	C	1.122383	0.551714	1.364093
C330	C	1.455716	0.885048	1.697427
C331	C	0.789041	0.218392	0.976157
C332	C	1.122374	0.551726	1.309490
C333	C	1.455707	0.885059	1.642823
C334	C	0.755570	0.251829	0.948846
C335	C	1.088903	0.585163	1.282180
C336	C	1.422237	0.918496	1.615513
C337	C	0.788977	0.218509	0.528417
C338	C	1.122311	0.551842	0.861750
C339	C	1.455644	0.885175	1.195083
C340	C	0.788970	0.218529	0.473811
C341	C	1.122303	0.551862	0.807145
C342	C	1.455636	0.885195	1.140478
C343	C	0.722043	0.285393	0.473797
C344	C	1.055376	0.618726	0.807130
C345	C	1.388710	0.952060	1.140463
C346	C	0.722052	0.285375	0.528397
C347	C	1.055385	0.618709	0.861731
C348	C	1.388719	0.952042	1.195064
C349	C	0.755521	0.251929	0.555706
C350	C	1.088854	0.585262	0.889039
C351	C	1.422187	0.918596	1.222373
O352	O	0.693635	0.313773	0.614771
O353	O	1.026969	0.647106	0.948105
O354	O	1.360302	0.980439	1.281438
O355	O	0.817439	0.190044	0.614847
O356	O	1.150773	0.523377	0.948181
O357	O	1.484106	0.856710	1.281514
H358	H	0.556449	0.312723	0.312530
H359	H	0.889782	0.646057	0.645864
H360	H	1.223115	0.979390	0.979197
Br361	Br	0.676642	0.330742	0.565434
Br362	Br	1.009975	0.664075	0.898767
Br363	Br	1.343309	0.997408	1.232101
H364	H	0.054099	0.191241	0.191496
H365	H	0.387432	0.524575	0.524829
H366	H	0.720765	0.857908	0.858162
H367	H	0.694881	0.312471	1.052955
H368	H	1.028214	0.645804	1.386288
H369	H	1.361548	0.979138	1.719621
Br370	Br	0.442580	0.330908	0.330680
Br371	Br	0.775913	0.664241	0.664013
Br372	Br	1.109246	0.997575	0.997347
H373	H	0.661376	0.801275	0.346049
H374	H	0.994709	1.134608	0.679383
H375	H	1.328042	1.467942	1.012716
H376	H	0.694798	0.312619	0.451550
H377	H	1.028131	0.645952	0.784883
H378	H	1.361464	0.979285	1.118217
H379	H	0.661364	0.345949	0.801759
H380	H	0.994697	0.679282	1.135093
H381	H	1.328031	1.012615	1.468426
Br382	Br	0.834456	0.173029	0.939127
Br383	Br	1.167789	0.506362	1.272460
Br384	Br	1.501122	0.839695	1.605794
Br385	Br	0.320091	0.364405	0.364070
Br386	Br	0.653424	0.697739	0.697403
Br387	Br	0.986758	1.031072	1.030737
Br388	Br	0.442564	0.173042	0.173310
Br389	Br	0.775897	0.506375	0.506644
Br390	Br	1.109231	0.839708	0.839977
H391	H	0.556454	0.191211	0.191422
H392	H	0.889787	0.524545	0.524756
H393	H	1.223121	0.857878	0.858089
Br394	Br	0.643181	0.687413	0.364177
Br395	Br	0.976514	1.020746	0.697511
Br396	Br	1.309848	1.354079	1.030844
H397	H	0.816111	0.450979	0.191392
H398	H	1.149444	0.784312	0.524725
H399	H	1.482777	1.117646	0.858059
Br400	Br	0.834396	0.173113	0.565470
Br401	Br	1.167729	0.506447	0.898803
Br402	Br	1.501063	0.839780	1.232137
Br403	Br	0.834459	0.938496	0.173310
Br404	Br	1.167792	1.271830	0.506644
Br405	Br	1.501126	1.605163	0.839977
Br406	Br	0.676687	0.330642	0.939080
Br407	Br	1.010021	0.663976	1.272413
Br408	Br	1.343354	0.997309	1.605746
Br409	Br	0.068923	0.330942	0.330726
Br410	Br	0.402256	0.664275	0.664059
Br411	Br	0.735589	0.997609	0.997393
H412	H	0.694883	0.953392	0.312656
H413	H	1.028216	1.286725	0.645989
H414	H	1.361550	1.620058	0.979323
H415	H	0.661345	0.345963	0.702710
H416	H	0.994678	0.679296	1.036043
H417	H	1.328011	1.012629	1.369376
H418	H	0.816159	0.550030	0.191408
H419	H	1.149492	0.883363	0.524741
H420	H	1.482826	1.216696	0.858074
H421	H	0.206227	0.346229	0.345967
H422	H	0.539560	0.679563	0.679301
H423	H	0.872893	1.012896	1.012634
H424	H	0.694738	0.550105	0.312613
H425	H	1.028071	0.883438	0.645946
H426	H	1.361405	1.216771	0.979280
Br427	Br	0.676533	0.436224	0.330728
Br428	Br	1.009866	0.769557	0.664062
Br429	Br	1.343199	1.102890	0.997395
H430	H	0.849670	0.702137	0.158024
H431	H	1.183003	1.035471	0.491357
H432	H	1.516337	1.368804	0.824690
Br433	Br	0.320105	0.139540	0.139981
Br434	Br	0.653438	0.472873	0.473314
Br435	Br	0.986772	0.806206	0.806647
Br436	Br	-0.059771	0.173081	0.173381
Br437	Br	0.273562	0.506414	0.506714
Br438	Br	0.606896	0.839747	0.840048
Br439	Br	0.191416	0.139547	0.139992
Br440	Br	0.524749	0.472881	0.473325
Br441	Br	0.858082	0.806214	0.806659
H442	H	0.849709	0.801185	0.158037
H443	H	1.183042	1.134518	0.491370
H444	H	1.516376	1.467851	0.824704
Br445	Br	-0.059786	0.330941	0.330744
Br446	Br	0.273547	0.664275	0.664077
Br447	Br	0.606881	0.997608	0.997410
Br448	Br	0.834499	1.067205	0.173328
Br449	Br	1.167832	1.400538	0.506662
Br450	Br	1.501166	1.733872	0.839995
H451	H	0.816298	0.191153	1.053007
H452	H	1.149631	0.524486	1.386340
H453	H	1.482964	0.857819	1.719673
Br454	Br	0.834389	0.173165	0.436779
Br455	Br	1.167722	0.506499	0.770113
Br456	Br	1.501055	0.839832	1.103446
Br457	Br	0.676749	1.067271	0.330793
Br458	Br	1.010082	1.400605	0.664126
Br459	Br	1.343416	1.733938	0.997460
Br460	Br	0.867879	0.139657	0.687970
Br461	Br	1.201212	0.472990	1.021303
Br462	Br	1.534546	0.806323	1.354636
H463	H	0.849723	0.157777	0.801828
H464	H	1.183057	0.491111	1.135162
H465	H	1.516390	0.824444	1.468495
