data_functionalizedCrystal
_audit_creation_method	'MofGen! by Chris Wilmer'
_symmetry_space_group_name_H-M	'P1'
_symmetry_Int_Tables_number	1
_symmetry_cell_setting	triclinic
loop_
_symmetry_equiv_pos_as_xyz
  x,y,z
_cell_length_a	12.759401
_cell_length_b	16.120484
_cell_length_c	12.759393
_cell_angle_alpha	92.864619
_cell_angle_beta	89.979541
_cell_angle_gamma	92.926992
loop_
_atom_site_label
_atom_site_type_symbol
_atom_site_fract_x
_atom_site_fract_y
_atom_site_fract_z
Zn1	Zn	1.584979	-0.331838	-0.615183
Zn2	Zn	2.084979	0.168162	-0.115183
Zn3	Zn	1.575929	-0.471272	-0.448396
Zn4	Zn	2.075929	0.028728	0.051604
Zn5	Zn	1.409276	-0.331880	-0.439521
Zn6	Zn	1.909276	0.168120	0.060479
Zn7	Zn	1.400331	-0.471215	-0.624029
Zn8	Zn	1.900331	0.028785	-0.124029
O9	O	1.492629	-0.401551	-0.531782
O10	O	1.992629	0.098449	-0.031782
O11	O	1.730799	-0.350340	-0.593070
O12	O	2.230799	0.149660	-0.093070
O13	O	1.553779	-0.452823	-0.300200
O14	O	2.053779	0.047177	0.199800
O15	O	1.440115	-0.215209	-0.455407
O16	O	1.940115	0.284791	0.044593
O17	O	1.724150	-0.452781	-0.470532
O18	O	2.224150	0.047219	0.029468
O19	O	1.569203	-0.215178	-0.584465
O20	O	2.069203	0.284822	-0.084465
O21	O	1.431340	-0.350413	-0.293680
O22	O	1.931340	0.149587	0.206320
O23	O	1.261069	-0.350358	-0.463984
O24	O	1.761069	0.149642	0.036016
O25	O	1.424868	-0.452685	-0.769874
O26	O	1.924868	0.047315	-0.269874
O27	O	1.254497	-0.452726	-0.599542
O28	O	1.754497	0.047274	-0.099542
O29	O	1.560529	-0.350285	-0.763375
O30	O	2.060529	0.149715	-0.263375
O31	O	1.545104	-0.587930	-0.479110
O32	O	2.045104	-0.087930	0.020890
O33	O	1.416093	-0.587888	-0.608147
O34	O	1.916093	-0.087888	-0.108147
C35	C	1.219662	-0.401541	-0.531761
C36	C	1.719662	0.098459	-0.031761
C37	C	1.102884	-0.401557	-0.531778
C38	C	1.602884	0.098443	-0.031778
C39	C	1.044623	-0.454941	-0.602262
C40	C	1.544623	0.045059	-0.102262
C41	C	0.934898	-0.454944	-0.602283
C42	C	1.434898	0.045056	-0.102283
C43	C	0.941708	-0.348176	-0.461326
C44	C	1.441708	0.151824	0.038674
C45	C	1.051430	-0.348170	-0.461311
C46	C	1.551430	0.151830	0.038689
C47	C	1.478674	-0.618159	-0.545574
C48	C	1.978674	-0.118159	-0.045574
C49	C	1.472801	-0.710824	-0.551510
C50	C	1.972801	-0.210824	-0.051510
C51	C	1.462083	-0.880486	-0.562368
C52	C	1.962083	-0.380486	-0.062368
C53	C	1.523363	-0.921776	-0.501214
C54	C	2.023363	-0.421776	-0.001214
C55	C	1.517400	-1.016181	-0.507255
C56	C	2.017400	-0.516181	-0.007255
C57	C	1.468045	-0.786072	-0.556328
C58	C	1.968045	-0.286072	-0.056328
C59	C	1.766661	-0.401562	-0.531804
C60	C	2.266661	0.098438	-0.031804
C61	C	1.883438	-0.401567	-0.531814
C62	C	2.383438	0.098433	-0.031814
C63	C	1.492710	-0.401473	-0.805811
C64	C	1.992710	0.098527	-0.305811
C65	C	1.492745	-0.401440	-0.922585
C66	C	1.992745	0.098560	-0.422585
C67	C	1.506666	-0.184098	-0.517959
C68	C	2.006666	0.315902	-0.017959
C69	C	1.512648	-0.091432	-0.512069
C70	C	2.012648	0.408568	-0.012069
C71	C	1.556530	-0.454703	-1.090574
C72	C	2.056530	0.045297	-0.590574
C73	C	1.556502	-0.454743	-0.980852
C74	C	2.056502	0.045257	-0.480852
C75	C	1.429003	-0.348101	-0.974046
C76	C	1.929003	0.151899	-0.474046
C77	C	1.429026	-0.348067	-1.083766
C78	C	1.929026	0.151933	-0.583766
C79	C	1.492612	-0.401568	-0.258816
C80	C	1.992612	0.098432	0.241184
C81	C	1.492796	-0.401366	-0.142027
C82	C	1.992796	0.098634	0.357973
H83	H	1.086513	-0.498410	-0.659643
H84	H	1.586513	0.001590	-0.159643
H85	H	0.887466	-0.498414	-0.659680
H86	H	1.387466	0.001586	-0.159680
H87	H	0.899800	-0.304712	-0.403954
H88	H	1.399800	0.195288	0.096046
H89	H	1.377086	-0.304705	-0.926596
H90	H	1.877086	0.195295	-0.426596
H91	H	1.608454	-0.498105	-1.138007
H92	H	2.108454	0.001895	-0.638007
H93	H	1.377121	-0.304632	-1.125659
H94	H	1.877121	0.195368	-0.625659
O95	O	1.114282	-0.290601	-0.385271
O96	O	1.614282	0.209399	0.114729
H97	H	1.060070	-0.253492	-0.336258
H98	H	1.560070	0.246508	0.163742
O99	O	1.598792	-0.874694	-0.425848
O100	O	2.098792	-0.374694	0.074152
H101	H	1.554246	-0.835095	-0.369865
H102	H	2.054246	-0.335095	0.130135
O103	O	1.386639	-0.927566	-0.637710
O104	O	1.886639	-0.427566	-0.137710
H105	H	1.393726	-0.995401	-0.630672
H106	H	1.893726	-0.495401	-0.130672
O107	O	1.625259	-0.512258	-0.925351
O108	O	2.125259	-0.012258	-0.425351
H109	H	1.669612	-0.549305	-0.984300
H110	H	2.169612	-0.049305	-0.484300
