data_functionalizedCrystal
_audit_creation_method	'MofGen! by Chris Wilmer'
_symmetry_space_group_name_H-M	'P1'
_symmetry_Int_Tables_number	1
_symmetry_cell_setting	triclinic
loop_
_symmetry_equiv_pos_as_xyz
  x,y,z
_cell_length_a	19.121063
_cell_length_b	18.215407
_cell_length_c	18.215399
_cell_angle_alpha	90.019833
_cell_angle_beta	92.409843
_cell_angle_gamma	87.530554
loop_
_atom_site_label
_atom_site_type_symbol
_atom_site_fract_x
_atom_site_fract_y
_atom_site_fract_z
Zn1	Zn	-0.279613	-1.112559	-0.428596
Zn2	Zn	-0.397068	-1.107212	-0.310772
Zn3	Zn	-0.279636	-0.989491	-0.305544
Zn4	Zn	-0.397029	-0.984203	-0.433795
O5	O	-0.338336	-1.048366	-0.369677
O6	O	-0.295200	-1.214834	-0.412978
O7	O	-0.381516	-1.091570	-0.207095
O8	O	-0.181348	-1.010267	-0.317504
O9	O	-0.381494	-1.210905	-0.326414
O10	O	-0.181331	-1.100685	-0.407909
O11	O	-0.295240	-1.005081	-0.203255
O12	O	-0.295202	-0.885805	-0.322545
O13	O	-0.381427	-1.001255	-0.536089
O14	O	-0.381450	-0.881921	-0.416771
O15	O	-0.295162	-1.095558	-0.532269
O16	O	-0.495348	-1.086443	-0.331455
O17	O	-0.495319	-0.996070	-0.421840
C18	C	-0.338324	-0.857160	-0.369655
C19	C	-0.338336	-0.775361	-0.369664
C20	C	-0.520817	-1.040122	-0.377795
C21	C	-0.598883	-1.036663	-0.381293
C22	C	-0.338288	-1.048413	-0.561628
C23	C	-0.338267	-1.048433	-0.643426
C24	C	-0.635551	-1.082127	-0.335916
C25	C	-0.708902	-1.078878	-0.339210
C26	C	-0.745585	-1.030161	-0.387877
C27	C	-0.708912	-0.984695	-0.433258
C28	C	-0.635562	-0.987948	-0.429968
C29	C	-0.967055	-1.017985	-0.400168
C30	C	-1.040410	-1.014733	-0.403454
C31	C	-1.040394	-1.108918	-0.309406
C32	C	-0.967043	-1.112164	-0.306117
C33	C	-0.930377	-1.066701	-0.351501
C34	C	-0.820561	-1.026837	-0.391243
C35	C	-0.855401	-1.070029	-0.348138
C36	C	-0.155143	-1.056662	-0.361543
C37	C	-0.077077	-1.060197	-0.358077
C38	C	-0.338349	-1.240319	-0.369699
C39	C	-0.338354	-1.322117	-0.369709
C40	C	-0.383316	-0.585160	-0.418671
C41	C	-0.383318	-0.508302	-0.418681
C42	C	-0.293369	-0.512323	-0.320699
C43	C	-0.293364	-0.589181	-0.320694
C44	C	-0.338342	-0.625597	-0.369679
C45	C	-0.338349	-0.471881	-0.369694
C46	C	-0.338351	-0.388547	-0.369703
C47	C	-0.338339	-0.708936	-0.369671
C48	C	-0.293307	-1.097555	-0.829630
C49	C	-0.293287	-1.097565	-0.906488
C50	C	-0.383119	-0.999368	-0.910455
C51	C	-0.383135	-0.999355	-0.833598
C52	C	-0.338231	-1.048453	-0.793188
C53	C	-0.338194	-1.048476	-0.946902
C54	C	-0.338172	-1.048486	-1.030235
C55	C	-0.338251	-1.048442	-0.709850
C56	C	-0.338334	-1.048364	-0.178471
C57	C	-0.338157	-1.048495	-0.096664
H58	H	-0.738753	-1.115899	-0.302259
H59	H	-0.419680	-0.959396	-0.943366
N60	N	-0.927516	-0.968943	-0.449110
H61	H	-0.897129	-0.936206	-0.417806
H62	H	-0.897079	-1.000230	-0.481870
H63	H	-0.419717	-0.959365	-0.803926
N64	N	-0.596006	-0.938913	-0.478905
H65	H	-0.608727	-0.949748	-0.532069
H66	H	-0.608832	-0.885788	-0.467941
N67	N	-0.244876	-0.473038	-0.267857
H68	H	-0.194702	-0.488673	-0.277130
H69	H	-0.251772	-0.418225	-0.275322
N70	N	-0.927479	-1.164720	-0.253637
H71	H	-0.961839	-1.193034	-0.225395
H72	H	-0.897005	-1.200107	-0.282270
N73	N	-0.244845	-0.632802	-0.267859
H74	H	-0.216354	-0.598072	-0.236826
H75	H	-0.273385	-0.663394	-0.235021
N76	N	-0.595991	-1.134679	-0.283430
H77	H	-0.543959	-1.129843	-0.288228
H78	H	-0.608856	-1.122688	-0.231436
N79	N	-0.244876	-1.150507	-0.786043
H80	H	-0.216414	-1.181613	-0.820795
H81	H	-0.212379	-1.122017	-0.752706
H82	H	-0.256705	-1.137548	-0.936156
H83	H	-1.070256	-1.145933	-0.272458
N84	N	-1.079977	-0.962185	-0.455946
H85	H	-1.045620	-0.933879	-0.484199
H86	H	-1.110367	-0.990778	-0.491389
H87	H	-0.825532	-1.109698	-0.308516
N88	N	-0.748473	-0.932151	-0.485752
H89	H	-0.800504	-0.936985	-0.480950
H90	H	-0.735698	-0.880165	-0.473675
H91	H	-0.850437	-0.987169	-0.430866
N92	N	-0.431825	-0.624436	-0.471506
H93	H	-0.420980	-0.611573	-0.523624
H94	H	-0.424979	-0.679249	-0.464005
N95	N	-0.431830	-0.464687	-0.471519
H96	H	-0.460321	-0.499421	-0.502547
H97	H	-0.464296	-0.431321	-0.442950
