data_functionalizedCrystal
_audit_creation_method	'MofGen! by Chris Wilmer'
_symmetry_space_group_name_H-M	'P1'
_symmetry_Int_Tables_number	1
_symmetry_cell_setting	triclinic
loop_
_symmetry_equiv_pos_as_xyz
  x,y,z
_cell_length_a	14.908571
_cell_length_b	16.625546
_cell_length_c	14.908308
_cell_angle_alpha	86.735930
_cell_angle_beta	89.824947
_cell_angle_gamma	86.718495
loop_
_atom_site_label
_atom_site_type_symbol
_atom_site_fract_x
_atom_site_fract_y
_atom_site_fract_z
Zn1	Zn	1.345280	-0.420778	0.587557
Zn2	Zn	1.353856	-0.548312	0.437189
Zn3	Zn	1.203596	-0.405291	0.428555
Zn4	Zn	1.194884	-0.547354	0.578841
O5	O	1.274404	-0.480434	0.508036
O6	O	1.472243	-0.444578	0.574871
O7	O	1.341159	-0.523260	0.310220
O8	O	1.222448	-0.294517	0.449681
O9	O	1.478544	-0.538277	0.464397
O10	O	1.326543	-0.305896	0.566499
O11	O	1.230763	-0.418182	0.303876
O12	O	1.076615	-0.417254	0.441230
O13	O	1.207599	-0.536644	0.705821
O14	O	1.070214	-0.521627	0.551644
O15	O	1.318095	-0.443649	0.712225
O16	O	1.332711	-0.661013	0.455945
O17	O	1.215914	-0.660309	0.560016
C18	C	1.040789	-0.467656	0.494555
C19	C	0.940846	-0.462211	0.488810
C20	C	0.746435	-0.560814	0.592833
C21	C	0.652530	-0.555700	0.587437
C22	C	0.659128	-0.446865	0.472629
C23	C	0.753033	-0.451979	0.478024
C24	C	0.796683	-0.508956	0.538127
C25	C	0.890591	-0.514074	0.543517
C26	C	0.897187	-0.405236	0.428714
C27	C	0.803282	-0.400121	0.423318
C28	C	1.274321	-0.689918	0.507993
C29	C	1.274366	-0.779542	0.508010
C30	C	1.274517	-1.107731	0.508112
C31	C	1.274472	-1.016419	0.508086
C32	C	1.274441	-0.943640	0.508060
C33	C	1.274397	-0.852322	0.508035
C34	C	1.508931	-0.493262	0.521569
C35	C	1.608873	-0.498728	0.527336
C36	C	1.260918	-0.491767	0.742560
C37	C	1.255172	-0.496597	0.842501
C38	C	1.274511	-0.270134	0.508099
C39	C	1.274556	-0.180516	0.508127
C40	C	1.287889	-0.469089	0.274426
C41	C	1.293810	-0.464042	0.174497
C42	C	1.359429	-0.408817	1.036969
C43	C	1.354033	-0.413353	1.130872
C44	C	1.238977	-0.510198	1.124211
C45	C	1.244374	-0.505662	1.030308
C46	C	1.304603	-0.454971	0.986690
C47	C	1.310004	-0.450441	0.892786
C48	C	1.194945	-0.547281	0.886127
C49	C	1.189548	-0.551817	0.980030
H50	H	0.623571	-0.400472	0.423701
H51	H	0.781976	-0.607211	0.641766
H52	H	0.767729	-0.353730	0.374387
O53	O	1.130971	-0.601072	1.022260
C54	C	1.017470	-0.696696	1.005745
C55	C	1.083752	-0.640930	0.957807
H56	H	0.979289	-0.728949	0.953656
H57	H	0.967881	-0.659271	1.046977
H58	H	1.056223	-0.743198	1.052104
H59	H	1.045074	-0.594418	0.911403
H60	H	1.133340	-0.678408	0.916632
H61	H	1.150303	-0.584866	0.845180
O62	O	0.946134	-0.354895	0.375660
C63	C	1.093726	-0.314580	0.333038
C64	C	1.038403	-0.371620	0.393190
H65	H	1.168337	-0.328093	0.347176
H66	H	1.074439	-0.249334	0.347896
H67	H	1.079351	-0.324123	0.259455
H68	H	1.052749	-0.362150	0.466792
H69	H	1.057699	-0.436846	0.378255
H70	H	1.408475	-0.367547	1.001455
H71	H	0.611620	-0.597926	0.631986
H72	H	1.359047	-0.409167	0.857274
H73	H	1.398676	-0.375767	1.171805
O74	O	1.180594	-0.559518	1.166643
C75	C	1.162328	-0.672776	1.272009
C76	C	1.228551	-0.616998	1.223998
H77	H	1.201074	-0.719252	1.318405
H78	H	1.124071	-0.705051	1.219993
H79	H	1.112796	-0.635274	1.313219
H80	H	1.278138	-0.654441	1.182789
H81	H	1.266742	-0.584720	1.276058
O82	O	0.932851	-0.569439	0.601977
C83	C	0.916392	-0.676874	0.715252
C84	C	0.868422	-0.614199	0.649096
H85	H	0.864323	-0.713090	0.753351
H86	H	0.957641	-0.644627	0.764923
H87	H	0.962740	-0.719343	0.676405
H88	H	0.822030	-0.571712	0.687867
H89	H	0.827230	-0.646499	0.599425
