data_functionalizedCrystal
_audit_creation_method	'MofGen! by Chris Wilmer'
_symmetry_space_group_name_H-M	'P1'
_symmetry_Int_Tables_number	1
_symmetry_cell_setting	triclinic
loop_
_symmetry_equiv_pos_as_xyz
  x,y,z
_cell_length_a	12.827893
_cell_length_b	13.032721
_cell_length_c	12.827885
_cell_angle_alpha	97.148846
_cell_angle_beta	89.980728
_cell_angle_gamma	97.204267
loop_
_atom_site_label
_atom_site_type_symbol
_atom_site_fract_x
_atom_site_fract_y
_atom_site_fract_z
Zn1	Zn	1.544798	-0.415985	-0.643643
Zn2	Zn	2.044798	0.084015	-0.143643
Zn3	Zn	1.522478	-0.590764	-0.491086
Zn4	Zn	2.022478	-0.090764	0.008914
Zn5	Zn	1.370033	-0.416036	-0.468924
Zn6	Zn	1.870033	0.083964	0.031076
Zn7	Zn	1.347821	-0.590686	-0.665776
Zn8	Zn	1.847821	-0.090686	-0.165776
O9	O	1.446283	-0.503368	-0.567357
O10	O	1.946283	-0.003368	-0.067357
O11	O	1.688072	-0.439181	-0.623419
O12	O	2.188072	0.060819	-0.123419
O13	O	1.502211	-0.567641	-0.341917
O14	O	2.002211	-0.067641	0.158083
O15	O	1.411853	-0.269792	-0.473563
O16	O	1.911853	0.230208	0.026437
O17	O	1.671674	-0.567591	-0.511335
O18	O	2.171674	-0.067591	-0.011335
O19	O	1.540253	-0.269754	-0.601929
O20	O	2.040253	0.230246	-0.101929
O21	O	1.390210	-0.439269	-0.325634
O22	O	1.890210	0.060731	0.174366
O23	O	1.220852	-0.439193	-0.495024
O24	O	1.720852	0.060807	0.004976
O25	O	1.373995	-0.567457	-0.809069
O26	O	1.873995	-0.067457	-0.309069
O27	O	1.204533	-0.567507	-0.639651
O28	O	1.704533	-0.067507	-0.139651
O29	O	1.518714	-0.439105	-0.792809
O30	O	2.018714	0.060895	-0.292809
O31	O	1.480673	-0.736991	-0.532796
O32	O	1.980673	-0.236991	-0.032796
O33	O	1.352352	-0.736934	-0.661140
O34	O	1.852352	-0.236934	-0.161140
C35	C	1.174775	-0.503348	-0.567335
C36	C	1.674775	-0.003348	-0.067335
C37	C	1.058620	-0.503364	-0.567353
C38	C	1.558620	-0.003364	-0.067353
C39	C	0.998775	-0.566958	-0.638834
C40	C	1.498775	-0.066958	-0.138834
C41	C	0.878722	-0.566976	-0.638854
C42	C	1.378722	-0.066976	-0.138854
C43	C	1.411708	-0.774880	-0.601798
C44	C	1.911708	-0.274880	-0.101798
C45	C	1.397013	-0.891034	-0.616566
C46	C	1.897013	-0.391034	-0.116566
C47	C	1.454008	-0.942814	-0.559696
C48	C	1.954008	-0.442814	-0.059696
C49	C	1.438821	-1.062865	-0.574959
C50	C	1.938821	-0.562865	-0.074959
C51	C	1.718850	-0.503389	-0.567380
C52	C	2.218850	-0.003389	-0.067380
C53	C	1.835002	-0.503398	-0.567390
C54	C	2.335002	-0.003398	-0.067390
C55	C	1.446367	-0.503267	-0.839915
C56	C	1.946367	-0.003267	-0.339915
C57	C	1.446402	-0.503224	-0.956062
C58	C	1.946402	-0.003224	-0.456062
C59	C	1.481020	-0.230795	-0.532805
C60	C	1.981020	0.269205	-0.032805
C61	C	1.495824	-0.114641	-0.518081
C62	C	1.995824	0.385359	-0.018081
C63	C	1.391041	-0.439646	-1.119827
C64	C	1.891041	0.060354	-0.619827
C65	C	1.391003	-0.439689	-0.999782
C66	C	1.891003	0.060311	-0.499782
C67	C	1.446269	-0.503393	-0.295850
C68	C	1.946269	-0.003393	0.204150
C69	C	1.446473	-0.503142	-0.179666
C70	C	1.946473	-0.003142	0.320334
H71	H	1.020978	-0.448930	-0.506175
H72	H	1.520978	0.051070	-0.006175
H73	H	0.886430	-0.448954	-0.506187
H74	H	1.386430	0.051046	-0.006187
H75	H	1.378782	-1.107408	-0.634956
H76	H	1.878782	-0.607408	-0.134956
H77	H	1.514051	-0.898268	-0.499711
H78	H	2.014051	-0.398268	0.000289
H79	H	1.555871	-1.070099	-0.458092
H80	H	2.055871	-0.570099	0.041908
C81	C	1.510423	-0.576756	-1.025542
C82	C	2.010423	-0.076756	-0.525542
N83	N	1.558609	-0.632171	-1.077886
N84	N	2.058609	-0.132171	-0.577886
C85	C	1.326967	-0.366157	-1.170675
C86	C	1.826967	0.133843	-0.670675
N87	N	1.278704	-0.310803	-1.208973
N88	N	1.778704	0.189197	-0.708973
C89	C	1.315900	-0.951211	-0.697609
C90	C	1.815900	-0.451211	-0.197609
N91	N	1.254801	-0.996535	-0.758650
N92	N	1.754801	-0.496535	-0.258650
C93	C	0.809240	-0.640531	-0.721532
C94	C	1.309240	-0.140531	-0.221532
N95	N	0.756902	-0.695934	-0.783808
N96	N	1.256902	-0.195934	-0.283808
H97	H	1.493906	-0.557532	-1.142023
H98	H	1.993906	-0.057532	-0.642023
C99	C	1.049623	-0.640496	-0.721489
C100	C	1.549623	-0.140496	-0.221489
N101	N	1.087920	-0.695890	-0.783745
N102	N	1.587920	-0.195890	-0.283745
C103	C	1.326892	-0.366242	-0.930307
C104	C	1.826892	0.133758	-0.430307
N105	N	1.278604	-0.310917	-0.877974
N106	N	1.778604	0.189083	-0.377974
