data_functionalizedCrystal
_audit_creation_method	'MofGen! by Chris Wilmer'
_symmetry_space_group_name_H-M	'P1'
_symmetry_Int_Tables_number	1
_symmetry_cell_setting	triclinic
loop_
_symmetry_equiv_pos_as_xyz
  x,y,z
_cell_length_a	14.446369
_cell_length_b	14.446369
_cell_length_c	18.760492
_cell_angle_alpha	59.996577
_cell_angle_beta	90.000866
_cell_angle_gamma	59.999699
loop_
_atom_site_label
_atom_site_type_symbol
_atom_site_fract_x
_atom_site_fract_y
_atom_site_fract_z
Zr1	Zr	0.891777	1.013197	-0.093554
O2	O	0.743966	1.206330	-0.207384
O3	O	0.937088	0.820074	-0.058655
O4	O	0.937085	1.013200	-0.207372
O5	O	0.743972	1.013198	0.058638
O6	O	1.089422	1.013192	-0.207367
O7	O	0.743969	1.013204	-0.058667
O8	O	1.089427	0.667724	0.058660
O9	O	0.743967	1.358665	-0.207389
O10	O	1.070101	0.899499	-0.043773
O11	O	0.956416	0.899501	0.043767
O12	O	0.956413	1.126882	-0.131328
O13	O	0.842728	1.126884	-0.043788
Zr14	Zr	1.134743	1.013175	0.093540
Zr15	Zr	1.134737	1.013184	-0.093548
Zr16	Zr	0.891783	1.013188	0.093533
Zr17	Zr	0.891779	1.256155	-0.093563
Zr18	Zr	1.134741	0.770217	0.093549
O19	O	1.089432	1.206298	0.058641
O20	O	1.089424	1.206311	-0.207374
O21	O	0.743974	1.206317	0.058631
O22	O	1.282554	0.820043	0.207370
O23	O	1.282546	0.820055	-0.058645
O24	O	0.937096	0.820061	0.207360
O25	O	1.282548	1.013174	-0.058652
O26	O	1.089435	1.013172	0.207357
O27	O	0.937098	1.013181	0.207353
O28	O	1.282551	1.013169	0.058653
O29	O	0.937088	1.358655	-0.207384
O30	O	1.089432	0.667717	0.207370
O31	O	1.282553	0.667707	0.207375
O32	O	1.282548	0.667714	0.058665
O33	O	0.743972	1.358659	-0.058679
O34	O	0.937093	1.358648	-0.058674
O35	O	1.070107	0.899490	0.131313
O36	O	1.183791	0.899488	0.043773
O37	O	1.070103	1.126872	-0.043781
O38	O	0.956419	1.126874	0.043759
C39	C	1.013257	0.709283	0.000004
C40	C	1.013256	0.606141	0.000007
C41	C	0.941899	0.459132	0.055472
C42	C	0.941511	0.566752	0.055247
C43	C	0.960947	0.655144	-0.095126
C44	C	0.960411	0.547911	-0.094838
C45	C	1.136974	0.372674	0.038857
C46	C	1.136792	0.478825	0.040798
C47	C	0.709354	1.013203	-0.000016
C48	C	0.606211	1.013208	-0.000019
C49	C	0.387842	1.156604	-0.054961
C50	C	0.495073	1.156701	-0.055270
C51	C	0.602885	0.941979	-0.040290
C52	C	0.495116	0.942889	-0.040693
C53	C	0.496484	0.939929	0.095265
C54	C	0.602453	0.942632	0.095115
C55	C	1.317166	1.013169	0.000002
C56	C	1.420309	1.013164	0.000004
C57	C	1.013253	1.013197	-0.234025
C58	C	1.013250	1.013201	-0.313449
C59	C	1.013263	1.317089	-0.000018
C60	C	1.013264	1.420231	-0.000021
C61	C	0.929320	1.013209	-0.350766
C62	C	1.097184	1.013185	-0.350757
C63	C	1.097188	1.013181	-0.425377
C64	C	1.013258	1.013190	-0.462694
C65	C	0.929324	1.013202	-0.425391
C66	C	1.181127	1.013156	-0.462681
C67	C	1.181135	1.013151	-0.537305
C68	C	1.097200	1.013169	-0.574627
C69	C	1.013262	1.013182	-0.537320
C70	C	0.929332	1.013191	-0.574637
C71	C	0.845388	1.013214	-0.537335
C72	C	0.845389	1.013220	-0.462713
C73	C	1.097199	1.013163	-0.649248
C74	C	0.929335	1.013184	-0.649262
C75	C	1.013267	1.013175	0.234011
C76	C	1.013270	1.013172	0.313435
C77	C	1.317163	0.709266	0.000012
C78	C	1.420305	0.606118	0.000019
C79	C	1.013264	0.709272	0.234022
C80	C	1.013266	0.606126	0.313449
C81	C	1.317170	0.709255	0.234030
C82	C	1.420315	0.606104	0.313461
C83	C	0.709349	1.317117	-0.234045
C84	C	0.606205	1.420268	-0.313475
C85	C	0.709357	1.317106	-0.000026
C86	C	0.606215	1.420254	-0.000033
C87	C	1.013255	1.317100	-0.234036
C88	C	1.013254	1.420246	-0.313463
C89	C	1.072612	0.557683	0.396455
C90	C	1.072609	0.460780	0.471093
C91	C	1.013266	0.412316	0.462722
C92	C	0.953913	0.460769	0.379707
C93	C	0.953910	0.557677	0.305072
C94	C	1.528105	0.557662	0.305067
C95	C	1.625030	0.460754	0.379693
C96	C	1.614161	0.412283	0.462712
C97	C	1.506360	0.460734	0.471104
C98	C	1.409438	0.557647	0.396479
C99	C	0.498415	1.468722	-0.305081
C100	C	0.401490	1.565661	-0.379707
C101	C	0.412358	1.614137	-0.462726
C102	C	0.520160	1.565679	-0.471118
C103	C	0.617082	1.468749	-0.396493
C104	C	1.072608	1.468679	-0.305065
C105	C	1.072629	1.565583	-0.379688
C106	C	1.013288	1.614058	-0.462709
C107	C	0.953932	1.565615	-0.471106
C108	C	0.953919	1.468707	-0.396483
C109	C	1.638674	0.459791	0.054955
C110	C	1.531444	0.566719	0.055265
C111	C	1.423634	0.479258	0.040295
C112	C	1.531402	0.371875	0.040698
C113	C	1.530026	0.546860	-0.095266
C114	C	1.424058	0.655338	-0.095116
H115	H	0.851185	0.494901	0.028744
Cl116	Cl	1.286641	1.013133	-0.415765
Cl117	Cl	1.492716	0.399783	0.575477
Cl118	Cl	0.879281	1.407843	-0.407057
Cl119	Cl	0.419251	1.010773	0.147211
Cl120	Cl	1.286658	1.013129	-0.584197
Cl121	Cl	1.541798	0.618585	0.200709
Cl122	Cl	0.739887	1.013212	-0.584250
Cl123	Cl	1.302793	0.513606	-0.018527
H124	H	1.165522	1.013168	-0.320368
Cl125	Cl	1.197132	0.417671	0.149005
Cl126	Cl	1.760537	0.399857	0.369123
Cl127	Cl	0.606175	1.018368	-0.147491
Cl128	Cl	0.723723	0.779085	0.018541
Cl129	Cl	0.601685	1.022793	0.141576
Cl130	Cl	1.736019	0.290445	0.556519
Cl131	Cl	1.037298	0.699661	-0.161740
H132	H	1.120945	0.421340	0.538680
Cl133	Cl	1.607242	0.607967	-0.147207
Cl134	Cl	1.301844	0.704943	-0.163661
H135	H	0.492625	1.212934	-0.125541
H136	H	0.528996	1.605160	-0.538721
Cl137	Cl	1.013312	1.735892	-0.556513
Cl138	Cl	0.879319	0.399826	0.369199
H139	H	1.421502	0.440695	0.109729
Cl140	Cl	1.273934	0.618526	0.407046
H141	H	1.502576	0.522074	-0.136408
Cl142	Cl	0.538868	0.776784	0.158789
Cl143	Cl	1.147220	1.407758	-0.200705
H144	H	0.870784	0.747458	-0.126462
H145	H	1.424578	0.745828	-0.125203
Cl146	Cl	0.823812	1.013204	-0.696173
H147	H	1.180677	0.278922	0.107831
Cl148	Cl	1.225807	0.512014	-0.015114
H149	H	0.976599	0.530037	0.125300
Cl150	Cl	0.879325	1.626582	-0.575482
H151	H	1.165549	1.013136	-0.679613
Cl152	Cl	0.752586	1.407838	-0.407061
Cl153	Cl	0.536261	0.780413	0.017107
Cl154	Cl	0.995803	0.321927	0.163907
Cl155	Cl	1.013284	0.290485	0.556560
H156	H	0.905587	0.597107	0.237487
Cl157	Cl	0.739871	1.013242	-0.415815
Cl158	Cl	1.533887	0.704714	0.013495
H159	H	1.120936	0.597131	0.403287
H160	H	1.120962	1.605015	-0.372834
H161	H	1.692631	0.497030	0.028077
H162	H	1.693662	0.370116	0.124803
H163	H	1.190395	0.346698	-0.001369
Cl164	Cl	0.492585	1.242983	-0.013568
Cl165	Cl	0.484722	1.407801	-0.200723
Cl166	Cl	1.535235	0.508874	0.163760
Cl167	Cl	0.823792	1.013245	-0.303879
Cl168	Cl	0.304533	1.243527	-0.013472
Cl169	Cl	0.265983	1.626554	-0.369137
Cl170	Cl	0.290501	1.735991	-0.556533
Cl171	Cl	1.609143	0.231744	0.148925
H172	H	0.332855	1.212628	-0.124808
H173	H	1.504747	0.341924	0.003251
H174	H	0.850259	0.655559	0.028294
H175	H	0.681612	0.837945	0.139514
Cl176	Cl	0.819863	0.610749	-0.142887
H177	H	1.009032	0.525942	-0.138431
H178	H	0.444771	0.993513	-0.110791
