data_functionalizedCrystal
_audit_creation_method	'MofGen! by Chris Wilmer'
_symmetry_space_group_name_H-M	'P1'
_symmetry_Int_Tables_number	1
_symmetry_cell_setting	triclinic
loop_
_symmetry_equiv_pos_as_xyz
  x,y,z
_cell_length_a	10.654545
_cell_length_b	17.000371
_cell_length_c	9.130313
_cell_angle_alpha	89.995069
_cell_angle_beta	89.996934
_cell_angle_gamma	80.041163
loop_
_atom_site_label
_atom_site_type_symbol
_atom_site_fract_x
_atom_site_fract_y
_atom_site_fract_z
O1	O	1.653971	0.111708	-0.121786
O2	O	1.287170	0.122356	-0.121792
O3	O	1.493346	0.001291	-0.121778
O4	O	1.447795	0.232773	-0.121800
O5	O	1.493333	0.001287	0.121821
O6	O	1.287157	0.122352	0.121807
O7	O	1.653958	0.111704	0.121813
Cu8	Cu	1.470557	0.117028	0.144053
Cu9	Cu	1.470572	0.117032	-0.144031
O10	O	1.447782	0.232769	0.121799
C11	C	1.240462	0.121573	0.000007
C12	C	1.101309	0.119236	0.000005
C13	C	1.495786	-0.028351	0.000021
C14	C	1.503061	-0.116670	0.000020
C15	C	1.035934	0.118134	0.132791
C16	C	0.905189	0.115925	0.132792
C17	C	0.905204	0.115924	-0.132793
C18	C	1.035949	0.118127	-0.132792
C19	C	1.391104	-0.149312	0.000011
C20	C	1.397947	-0.232297	0.000015
C21	C	1.516749	-0.282639	0.000017
C22	C	1.628715	-0.249991	0.000030
C23	C	1.621871	-0.167007	0.000036
C24	C	1.543188	-0.533639	0.000008
C25	C	1.550024	-0.616628	-0.000003
C26	C	1.319255	-0.598928	-0.000015
C27	C	1.312421	-0.515944	-0.000017
C28	C	1.424387	-0.483303	0.000003
C29	C	1.523747	-0.367463	0.000017
C30	C	1.417388	-0.398480	0.000014
C31	C	1.700666	0.112487	0.000011
C32	C	1.839819	0.114824	0.000004
C33	C	1.445342	0.262411	-0.000003
C34	C	1.438067	0.350730	-0.000011
N35	N	1.470555	0.117025	0.346675
N36	N	1.470584	0.117029	-0.346654
C37	C	1.561876	0.063440	0.423333
C38	C	1.561888	0.063440	0.576670
C39	C	1.379253	0.170617	0.576677
C40	C	1.379237	0.170612	0.423343
H41	H	1.089147	0.119037	0.240923
H42	H	0.851966	0.115028	0.240920
C43	C	1.662319	0.004486	0.339004
N44	N	1.737973	-0.039923	0.275491
C45	C	1.278825	0.229599	0.339015
N46	N	1.203215	0.274039	0.275498
C47	C	0.833293	0.114710	-0.278862
N48	N	0.779131	0.113799	-0.388884
H49	H	1.634358	-0.507074	0.000021
C50	C	1.662339	0.004486	0.660987
N51	N	1.737999	-0.039924	0.724493
C52	C	1.107867	0.119335	-0.278875
N53	N	1.162037	0.120241	-0.388901
H54	H	1.215680	-0.474960	-0.000023
C55	C	1.260411	-0.093943	0.000007
N56	N	1.161969	-0.052241	0.000010
C57	C	1.274785	-0.268199	0.000003
N58	N	1.182013	-0.295240	-0.000006
H59	H	1.228099	-0.625513	-0.000029
C60	C	1.278807	0.229558	0.661027
N61	N	1.203147	0.273954	0.724557
H62	H	1.646772	-0.657615	-0.000011
H63	H	1.725446	-0.290986	0.000041
H64	H	1.713038	-0.140432	0.000046
H65	H	1.320660	-0.357489	0.000021
C66	C	1.654427	-0.422847	0.000010
N67	N	1.752854	-0.464564	0.000006
