data_functionalizedCrystal
_audit_creation_method	'MofGen! by Chris Wilmer'
_symmetry_space_group_name_H-M	'P1'
_symmetry_Int_Tables_number	1
_symmetry_cell_setting	triclinic
loop_
_symmetry_equiv_pos_as_xyz
  x,y,z
_cell_length_a	16.625546
_cell_length_b	16.625548
_cell_length_c	16.625539
_cell_angle_alpha	90.022345
_cell_angle_beta	89.969603
_cell_angle_gamma	89.977673
loop_
_atom_site_label
_atom_site_type_symbol
_atom_site_fract_x
_atom_site_fract_y
_atom_site_fract_z
Zn1	Zn	-0.321003	-1.232680	-0.455936
Zn2	Zn	0.012330	-0.899347	-0.122603
Zn3	Zn	0.345663	-0.566014	0.210731
Zn4	Zn	-0.455846	-1.232584	-0.321098
Zn5	Zn	-0.122513	-0.899250	0.012235
Zn6	Zn	0.210820	-0.565917	0.345569
Zn7	Zn	-0.321031	-1.097842	-0.321112
Zn8	Zn	0.012302	-0.764509	0.012221
Zn9	Zn	0.345636	-0.431176	0.345554
Zn10	Zn	-0.455797	-1.097813	-0.455884
Zn11	Zn	-0.122464	-0.764479	-0.122550
Zn12	Zn	0.210869	-0.431146	0.210783
O13	O	-0.388419	-1.165230	-0.388507
O14	O	-0.055086	-0.831896	-0.055174
O15	O	0.278247	-0.498563	0.278159
O16	O	-0.338899	-1.345500	-0.438065
O17	O	-0.005566	-1.012167	-0.104732
O18	O	0.327767	-0.678833	0.228601
O19	O	-0.437995	-1.214682	-0.208268
O20	O	-0.104662	-0.881348	0.125066
O21	O	0.228672	-0.548015	0.458399
O22	O	-0.208195	-1.115782	-0.339024
O23	O	0.125138	-0.782448	-0.005691
O24	O	0.458472	-0.449115	0.327642
O25	O	-0.437968	-1.345429	-0.339001
O26	O	-0.104635	-1.012096	-0.005667
O27	O	0.228699	-0.678762	0.327666
O28	O	-0.208174	-1.214847	-0.438079
O29	O	0.125159	-0.881513	-0.104746
O30	O	0.458492	-0.548180	0.228588
O31	O	-0.338947	-1.115688	-0.208278
O32	O	-0.005613	-0.782355	0.125055
O33	O	0.327720	-0.449021	0.458389
O34	O	-0.338899	-0.985006	-0.338974
O35	O	-0.005566	-0.651673	-0.005641
O36	O	0.327767	-0.318339	0.327693
O37	O	-0.437884	-1.115731	-0.568723
O38	O	-0.104551	-0.782398	-0.235390
O39	O	0.228782	-0.449065	0.097943
O40	O	-0.437911	-0.984984	-0.437990
O41	O	-0.104578	-0.651651	-0.104657
O42	O	0.228755	-0.318318	0.228676
O43	O	-0.338852	-1.214818	-0.568761
O44	O	-0.005518	-0.881485	-0.235428
O45	O	0.327815	-0.548151	0.097905
O46	O	-0.568672	-1.214653	-0.338950
O47	O	-0.235339	-0.881320	-0.005617
O48	O	0.097994	-0.547986	0.327717
O49	O	-0.568636	-1.115637	-0.437977
O50	O	-0.235303	-0.782304	-0.104643
O51	O	0.098031	-0.448971	0.228690
C52	C	-0.388404	-0.955739	-0.388478
C53	C	-0.055070	-0.622406	-0.055145
C54	C	0.278263	-0.289072	0.278188
C55	C	-0.388416	-0.866118	-0.388485
C56	C	-0.055083	-0.532784	-0.055152
C57	C	0.278251	-0.199451	0.278181
C58	C	-0.388414	-0.537942	-0.388509
C59	C	-0.055081	-0.204609	-0.055176
C60	C	0.278252	0.128724	0.278157
C61	C	-0.388413	-0.629251	-0.388500
C62	C	-0.055079	-0.295917	-0.055167
C63	C	0.278254	0.037416	0.278167
C64	C	-0.388416	-0.702027	-0.388497
C65	C	-0.055082	-0.368694	-0.055163
C66	C	0.278251	-0.035360	0.278170
C67	C	-0.388413	-0.793341	-0.388489
C68	C	-0.055080	-0.460008	-0.055155
C69	C	0.278254	-0.126675	0.278178
C70	C	-0.597910	-1.165153	-0.388474
C71	C	-0.264577	-0.831820	-0.055140
C72	C	0.068756	-0.498487	0.278193
C73	C	-0.687531	-1.165195	-0.388486
C74	C	-0.354198	-0.831861	-0.055153
C75	C	-0.020865	-0.498528	0.278180
C76	C	-1.015707	-1.165335	-0.388570
C77	C	-0.682374	-0.832002	-0.055237
C78	C	-0.349040	-0.498669	0.278096
C79	C	-0.924399	-1.165294	-0.388549
C80	C	-0.591065	-0.831960	-0.055216
C81	C	-0.257732	-0.498627	0.278118
C82	C	-0.851622	-1.165264	-0.388528
C83	C	-0.518289	-0.831931	-0.055194
C84	C	-0.184955	-0.498598	0.278139
C85	C	-0.760308	-1.165224	-0.388508
C86	C	-0.426975	-0.831891	-0.055174
C87	C	-0.093641	-0.498557	0.278159
C88	C	-0.178111	-1.165328	-0.388559
C89	C	0.155223	-0.831995	-0.055226
C90	C	0.488556	-0.498662	0.278108
C91	C	-0.088489	-1.165370	-0.388581
C92	C	0.244844	-0.832037	-0.055248
C93	C	0.578177	-0.498704	0.278086
C94	C	-0.388359	-1.165282	-0.598816
C95	C	-0.055026	-0.831949	-0.265483
C96	C	0.278307	-0.498616	0.067850
C97	C	-0.388334	-1.165305	-0.688438
C98	C	-0.055000	-0.831971	-0.355104
C99	C	0.278333	-0.498638	-0.021771
C100	C	-0.388431	-0.375539	-0.388529
C101	C	-0.055097	-0.042205	-0.055196
C102	C	0.278236	0.291128	0.278137
C103	C	-0.388422	-0.465160	-0.388519
C104	C	-0.055089	-0.131826	-0.055185
C105	C	0.278245	0.201507	0.278148
C106	C	-0.388243	-1.165342	-1.016614
C107	C	-0.054910	-0.832008	-0.683280
C108	C	0.278423	-0.498675	-0.349947
C109	C	-0.388271	-1.165329	-0.925305
C110	C	-0.054938	-0.831996	-0.591972
C111	C	0.278395	-0.498662	-0.258638
C112	C	-0.388289	-1.165324	-0.852529
C113	C	-0.054956	-0.831990	-0.519195
C114	C	0.278377	-0.498657	-0.185862
C115	C	-0.388316	-1.165310	-0.761214
C116	C	-0.054982	-0.831977	-0.427881
C117	C	0.278351	-0.498643	-0.094548
C118	C	-0.388421	-1.165224	-0.179017
C119	C	-0.055088	-0.831891	0.154317
C120	C	0.278246	-0.498557	0.487650
C121	C	-0.388220	-1.165358	-0.089396
C122	C	-0.054886	-0.832025	0.243937
C123	C	0.278447	-0.498691	0.577271
