data_functionalizedCrystal
_audit_creation_method	'MofGen! by Chris Wilmer'
_symmetry_space_group_name_H-M	'P1'
_symmetry_Int_Tables_number	1
_symmetry_cell_setting	triclinic
loop_
_symmetry_equiv_pos_as_xyz
  x,y,z
_cell_length_a	14.519731
_cell_length_b	10.967870
_cell_length_c	13.596369
_cell_angle_alpha	102.133670
_cell_angle_beta	90.006374
_cell_angle_gamma	95.788657
loop_
_atom_site_label
_atom_site_type_symbol
_atom_site_fract_x
_atom_site_fract_y
_atom_site_fract_z
O1	O	1.224674	-0.163706	-0.109540
O2	O	1.724674	0.336294	0.390460
O3	O	0.956298	-0.182942	-0.112802
O4	O	1.456298	0.317058	0.387198
O5	O	1.096679	0.008313	-0.080379
O6	O	1.596679	0.508313	0.419621
O7	O	1.084293	-0.354961	-0.141964
O8	O	1.584293	0.145039	0.358036
O9	O	1.096697	0.008323	0.083206
O10	O	1.596697	0.508323	0.583206
O11	O	0.956315	-0.182931	0.050783
O12	O	1.456315	0.317069	0.550783
O13	O	1.224692	-0.163696	0.054044
O14	O	1.724692	0.336304	0.554044
Zn15	Zn	1.090506	-0.173312	0.078386
Zn16	Zn	1.590506	0.326688	0.578386
Zn17	Zn	1.090483	-0.173326	-0.137144
Zn18	Zn	1.590483	0.326674	0.362856
O19	O	1.084310	-0.354950	0.021621
O20	O	1.584310	0.145050	0.521621
C21	C	0.921943	-0.182035	-0.030857
C22	C	1.421943	0.317965	0.469143
C23	C	0.819549	-0.179335	-0.030400
C24	C	1.319549	0.320665	0.469600
C25	C	1.095788	0.054810	0.009293
C26	C	1.595788	0.554810	0.509293
C27	C	1.093094	0.193342	0.032772
C28	C	1.593094	0.693342	0.532772
C29	C	0.736393	-0.177140	-0.030032
C30	C	1.236393	0.322860	0.469968
C31	C	0.632071	-0.174398	-0.029567
C32	C	1.132071	0.325602	0.470433
C33	C	0.548921	-0.172221	-0.029198
C34	C	1.048921	0.327779	0.470802
C35	C	0.444591	-0.169480	-0.028736
C36	C	0.944591	0.330520	0.471264
C37	C	1.091884	0.255092	-0.041503
C38	C	1.591884	0.755092	0.458497
C39	C	1.089100	0.398272	-0.017239
C40	C	1.589100	0.898272	0.482761
C41	C	1.259047	-0.164602	-0.027903
C42	C	1.759047	0.335398	0.472097
C43	C	1.361441	-0.167303	-0.028367
C44	C	1.861441	0.332697	0.471633
C45	C	1.085201	0.598552	-0.068050
C46	C	1.585201	1.098552	0.431950
C47	C	1.087890	0.460019	-0.091525
C48	C	1.587890	0.960019	0.408475
N49	N	1.090468	-0.173326	-0.284236
N50	N	1.590468	0.326674	0.215764
C51	C	1.090472	-0.173327	-0.373234
C52	C	1.590472	0.326673	0.126766
C53	C	1.090485	-0.173324	-0.484885
C54	C	1.590485	0.326676	0.015115
C55	C	1.090501	-0.173315	-0.573874
C56	C	1.590501	0.326685	-0.073874
C57	C	1.090513	-0.173311	-0.685531
C58	C	1.590513	0.326689	-0.185531
N59	N	1.090529	-0.173302	0.225480
N60	N	1.590529	0.326698	0.725480
H61	H	1.092905	0.201958	-0.123057
H62	H	1.592905	0.701958	0.376943
H63	H	1.088905	0.406890	-0.173084
H64	H	1.588905	0.906890	0.326916
H65	H	1.088069	0.451400	0.064320
H66	H	1.588069	0.951400	0.564320
H67	H	1.092063	0.246474	0.114325
H68	H	1.592063	0.746474	0.614325
