data_functionalizedCrystal
_audit_creation_method	'MofGen! by Chris Wilmer'
_symmetry_space_group_name_H-M	'P1'
_symmetry_Int_Tables_number	1
_symmetry_cell_setting	triclinic
loop_
_symmetry_equiv_pos_as_xyz
  x,y,z
_cell_length_a	13.897449
_cell_length_b	19.120786
_cell_length_c	13.897441
_cell_angle_alpha	87.525635
_cell_angle_beta	89.976606
_cell_angle_gamma	92.465881
loop_
_atom_site_label
_atom_site_type_symbol
_atom_site_fract_x
_atom_site_fract_y
_atom_site_fract_z
Zn1	Zn	1.458269	-0.279593	-0.529041
Zn2	Zn	1.451259	-0.397064	-0.360848
Zn3	Zn	1.296957	-0.279626	-0.367749
Zn4	Zn	1.290039	-0.397017	-0.522096
O5	O	1.374131	-0.338325	-0.444933
O6	O	1.592321	-0.295182	-0.506747
O7	O	1.430752	-0.381519	-0.226779
O8	O	1.324184	-0.181331	-0.394940
O9	O	1.587170	-0.381488	-0.383177
O10	O	1.442700	-0.181307	-0.513440
O11	O	1.317387	-0.295238	-0.231850
O12	O	1.161058	-0.295192	-0.388206
O13	O	1.312394	-0.381407	-0.658000
O14	O	1.155975	-0.381439	-0.501603
O15	O	1.435992	-0.295137	-0.663103
O16	O	1.424044	-0.495349	-0.376443
O17	O	1.305596	-0.495314	-0.494911
C18	C	1.363335	-0.520817	-0.434195
C19	C	1.358804	-0.598888	-0.429633
C20	C	1.123517	-0.338314	-0.444900
C21	C	1.016303	-0.338327	-0.444908
C22	C	0.929233	-0.338329	-0.444924
C23	C	0.820000	-0.338334	-0.444953
C24	C	1.418334	-0.635493	-0.489237
C25	C	1.414074	-0.708849	-0.484953
C26	C	1.350287	-0.745598	-0.421059
C27	C	1.290750	-0.708988	-0.361453
C28	C	1.295006	-0.635634	-0.365743
C29	C	1.334345	-0.967085	-0.405021
C30	C	1.330095	-1.040445	-0.400734
C31	C	1.453419	-1.040300	-0.524235
C32	C	1.457674	-0.966944	-0.528515
C33	C	1.398133	-0.930341	-0.468913
C34	C	1.345932	-0.820580	-0.416676
C35	C	1.402484	-0.855361	-0.473302
C36	C	1.625723	-0.338337	-0.444967
C37	C	1.732937	-0.338341	-0.444981
C38	C	1.374203	-0.338263	-0.696530
C39	C	1.374234	-0.338237	-0.803746
C40	C	1.384996	-0.155121	-0.455735
C41	C	1.389626	-0.077050	-0.460337
C42	C	1.374263	-0.338189	-1.000044
C43	C	1.374244	-0.338218	-0.890809
C44	C	1.374118	-0.338336	-0.194318
C45	C	1.374285	-0.338165	-0.087115
H46	H	1.470281	-0.605576	-0.541262
H47	H	1.501892	-1.070111	-0.572761
Br48	Br	1.204168	-0.758862	-0.274752
Br49	Br	1.253528	-0.917418	-0.324144
H50	H	1.454415	-0.825437	-0.525328
H51	H	1.293999	-0.850509	-0.364651
Br52	Br	1.243528	-1.090319	-0.314009
H53	H	1.462557	-0.738649	-0.533481
Br54	Br	1.214208	-0.585954	-0.284853
H55	H	1.509614	-0.937024	-0.580543
