data_functionalizedCrystal
_audit_creation_method	'MofGen! by Chris Wilmer'
_symmetry_space_group_name_H-M	'P1'
_symmetry_Int_Tables_number	1
_symmetry_cell_setting	triclinic
loop_
_symmetry_equiv_pos_as_xyz
  x,y,z
_cell_length_a	20.875650
_cell_length_b	16.704495
_cell_length_c	20.875625
_cell_angle_alpha	97.134587
_cell_angle_beta	59.261080
_cell_angle_gamma	65.013319
loop_
_atom_site_label
_atom_site_type_symbol
_atom_site_fract_x
_atom_site_fract_y
_atom_site_fract_z
Zr1	Zr	0.701906	0.801633	-0.063087
O2	O	0.835685	0.672205	-0.177905
O3	O	0.568128	0.837218	-0.024752
O4	O	0.701908	0.834392	-0.163605
O5	O	0.701903	0.681915	0.066908
O6	O	0.701910	0.966981	-0.155892
O7	O	0.701904	0.675032	-0.039053
O8	O	0.462600	0.972037	0.092490
O9	O	0.941212	0.676859	-0.181474
O10	O	0.623153	0.956288	-0.006437
O11	O	0.623151	0.862475	0.066885
O12	O	0.780661	0.859147	-0.096596
O13	O	0.780658	0.765334	-0.023274
Zr14	Zr	0.701905	1.024076	0.118208
Zr15	Zr	0.701908	1.013098	-0.050787
Zr16	Zr	0.701903	0.812611	0.105908
Zr17	Zr	0.870209	0.809055	-0.068778
Zr18	Zr	0.533602	1.016654	0.123900
O19	O	0.835684	0.988490	0.079873
O20	O	0.835688	0.972881	-0.160416
O21	O	0.835681	0.687815	0.062384
O22	O	0.568126	1.153503	0.233027
O23	O	0.568130	1.137894	-0.007263
O24	O	0.568123	0.852828	0.215538
O25	O	0.701909	1.143793	-0.011787
O26	O	0.701903	0.991317	0.218726
O27	O	0.701902	0.858728	0.211014
O28	O	0.701907	1.150677	0.094174
O29	O	0.941214	0.844945	-0.171697
O30	O	0.462598	0.980764	0.226818
O31	O	0.462599	1.148850	0.236595
O32	O	0.462602	1.140123	0.102266
O33	O	0.941210	0.685586	-0.047145
O34	O	0.941211	0.853672	-0.037368
O35	O	0.623151	0.966562	0.151718
O36	O	0.623153	1.060375	0.078396
O37	O	0.780660	0.963234	-0.011763
O38	O	0.780658	0.869421	0.061559
C39	C	0.491384	0.903570	0.034680
C40	C	0.419935	0.900419	0.037096
C41	C	0.017466	0.877774	0.055138
C42	C	0.084644	0.880682	0.052815
C43	C	0.118236	0.931100	0.013374
C44	C	0.084640	0.978622	-0.023739
C45	C	0.017458	0.975719	-0.021410
C46	C	0.319157	0.945038	0.002311
C47	C	0.386345	0.947935	-0.000016
C48	C	0.386344	0.849996	0.076539
C49	C	0.319165	0.847093	0.078859
C50	C	0.285571	0.894619	0.041750
N51	N	0.186905	0.934071	0.010997
N52	N	0.216899	0.891653	0.044133
C53	C	0.701903	0.648345	0.012175
C54	C	0.701902	0.558572	0.006954
C55	C	0.701915	0.397454	0.113895
C56	C	0.701915	0.313105	0.108992
C57	C	0.701907	0.305520	-0.007759
C58	C	0.701907	0.389869	-0.002856
C59	C	0.701910	0.435834	0.057974
C60	C	0.701905	0.520188	0.062881
C61	C	0.701903	0.512598	-0.053874
C62	C	0.701902	0.428249	-0.058777
C63	C	0.912427	0.922139	0.020442
C64	C	0.983876	0.925290	0.018026
C65	C	0.701909	0.899122	-0.183827
C66	C	0.701911	0.894462	-0.255570
C67	C	0.701908	1.177364	0.042946
C68	C	0.701909	1.267137	0.048168
C69	C	0.701913	0.965316	-0.285026
C70	C	0.701906	0.960939	-0.352432
C71	C	0.701903	0.885703	-0.390384
C72	C	0.701899	0.814845	-0.360921
C73	C	0.701899	0.819227	-0.293513
C74	C	0.701896	0.864771	-0.592438
C75	C	0.701899	0.860393	-0.659853
C76	C	0.701904	1.006488	-0.651357
C77	C	0.701910	1.010860	-0.583951
C78	C	0.701900	0.940005	-0.554492
N79	N	0.701899	0.881226	-0.459285
N80	N	0.701898	0.944487	-0.485588
C81	C	0.701902	0.926587	0.238948
C82	C	0.701901	0.931247	0.310691
C83	C	0.491387	1.168080	0.050065
C84	C	0.419938	1.254701	0.057703
C85	C	0.491381	0.917302	0.246067
C86	C	0.419930	0.918812	0.320226
C87	C	0.491383	1.181812	0.261453
C88	C	0.419933	1.273094	0.340833
C89	C	0.912428	0.643896	-0.206331
C90	C	0.983878	0.552615	-0.285712
C91	C	0.912425	0.657629	0.005056
C92	C	0.983873	0.571007	-0.002581
C93	C	0.912431	0.908406	-0.190946
C94	C	0.983881	0.906897	-0.265105
C95	C	0.386386	1.241047	0.017001
C96	C	0.319262	1.322428	0.024161
C97	C	0.285687	1.417463	0.072028
C98	C	0.319246	1.431116	0.112731
C99	C	0.386374	1.349736	0.105566
C100	C	0.386376	0.973854	0.399341
C101	C	0.319251	0.975269	0.469028
C102	C	0.285675	0.921648	0.459598
C103	C	0.319236	0.866600	0.380474
C104	C	0.386365	0.865179	0.310789
C105	C	0.386381	1.364939	0.339839
C106	C	0.319256	1.450716	0.414419
C107	C	0.285680	1.444646	0.489993
C108	C	0.319239	1.352791	0.490986
C109	C	0.386367	1.267016	0.416406
C110	C	1.017438	0.460770	-0.284717
C111	C	1.084584	0.374994	-0.359299
C112	C	1.118164	0.381064	-0.434873
C113	C	1.084601	0.472919	-0.435865
C114	C	1.017461	0.558693	-0.361285
C115	C	1.017433	0.584662	0.038113
C116	C	1.084575	0.503280	0.030934
C117	C	1.118152	0.408245	-0.016935
C118	C	1.084590	0.394592	-0.057635
C119	C	1.017453	0.475973	-0.050460
C120	C	1.017435	0.960529	-0.255648
C121	C	1.084561	0.959130	-0.325321
C122	C	1.118137	0.904092	-0.404450
C123	C	1.084576	0.850459	-0.413904
C124	C	1.017447	0.851864	-0.344232
H125	H	0.413702	0.811305	0.106752
C126	C	0.352165	1.419525	0.253502
C127	C	0.423252	1.371575	0.256754
H128	H	0.374920	1.423615	0.202207
H129	H	0.325961	1.383720	0.258328
H130	H	0.307412	1.483767	0.297761
H131	H	0.468002	1.307331	0.212499
H132	H	0.449470	1.407380	0.251919
H133	H	0.413684	1.360867	0.138716
C134	C	0.216367	1.398898	-0.004189
C135	C	0.282373	1.307407	-0.020575
H136	H	0.193599	1.389620	-0.031811
H137	H	0.168175	1.435352	0.053777
H138	H	0.242568	1.433763	-0.023437
H139	H	0.256170	1.272545	-0.001322
H140	H	0.330573	1.270938	-0.078554
H141	H	0.701913	0.268079	-0.057291
C142	C	1.024238	0.744287	-0.438806
C143	C	0.980580	0.792892	-0.354637
H144	H	1.001483	0.707874	-0.445233
H145	H	1.013221	0.791088	-0.460156
H146	H	1.087619	0.700923	-0.468110
H147	H	0.917200	0.836263	-0.325334
H148	H	0.991590	0.746086	-0.333277
C149	C	0.914517	0.548756	-0.136389
C150	C	0.980539	0.454081	-0.201652
H151	H	0.891740	0.544617	-0.085111
H152	H	0.940701	0.584572	-0.141149
H153	H	0.866325	0.581278	-0.138640
H154	H	1.028734	0.421561	-0.199404
H155	H	0.954355	0.418250	-0.196890
H156	H	1.111938	0.317204	-0.096611
C157	C	0.379653	1.141811	-0.069835
C158	C	0.423285	1.136590	-0.035623
H159	H	0.402438	1.077324	-0.102330
H160	H	0.316280	1.176598	-0.026597
H161	H	0.390666	1.175039	-0.103792
H162	H	0.412267	1.103368	-0.001660
H163	H	0.486673	1.101788	-0.078867
H164	H	0.701903	0.390813	-0.108306
H165	H	0.413694	0.988993	-0.032137
H166	H	1.111950	0.477850	-0.497407
C167	C	0.489285	1.019940	0.331855
C168	C	0.423276	1.032797	0.409720
H169	H	0.512059	1.056334	0.338270
H170	H	0.537472	0.952300	0.298267
H171	H	0.463082	1.042484	0.306228
H172	H	0.449481	1.010246	0.435345
H173	H	0.375081	1.100451	0.443321
H174	H	0.291900	1.508504	0.151704
C175	C	-0.058009	1.128347	-0.025038
C176	C	-0.019465	1.027948	-0.062207
H177	H	-0.080799	1.160592	-0.050227
H178	H	-0.106178	1.155260	0.032382
H179	H	-0.013181	1.137276	-0.032076
H180	H	-0.064294	1.019018	-0.055164
H181	H	0.028710	1.001027	-0.119641
H182	H	0.701895	0.761531	-0.269530
H183	H	0.291933	1.020099	0.533447
C184	C	1.187494	0.200020	-0.439611
C185	C	1.121464	0.274035	-0.358195
H186	H	1.210263	0.137696	-0.438927
H187	H	1.161318	0.204433	-0.466309
H188	H	1.235689	0.207729	-0.468808
H189	H	1.073265	0.266331	-0.329000
H190	H	1.147639	0.269619	-0.331486
C191	C	1.024166	1.067816	-0.175104
C192	C	0.980533	1.021038	-0.168674
H193	H	1.001379	1.105181	-0.121410
H194	H	1.087538	1.019920	-0.208095
H195	H	1.013156	1.110086	-0.200156
H196	H	0.991549	0.978762	-0.143628
H197	H	0.917145	1.068940	-0.135671
C198	C	1.077781	0.618906	0.119227
C199	C	1.121448	0.518303	0.075686
H200	H	1.100540	0.628180	0.146859
H201	H	1.088786	0.647605	0.081585
H202	H	1.014402	0.649157	0.158777
H203	H	1.184826	0.488054	0.036131
H204	H	1.110450	0.489592	0.113331
C205	C	0.325931	1.042117	-0.073609
C206	C	0.282248	0.997262	-0.038492
H207	H	0.303147	1.074352	-0.098806
H208	H	0.314968	1.088731	-0.031609
H209	H	0.389303	0.993682	-0.114238
H210	H	0.218876	1.045699	0.002142
H211	H	0.293204	0.950644	-0.080496
H212	H	0.231015	0.922813	0.516347
C213	C	0.779454	0.245790	0.162612
C214	C	0.701917	0.270921	0.170465
H215	H	0.779451	0.219752	0.200568
H216	H	0.832039	0.197970	0.107720
H217	H	0.779445	0.302611	0.174236
H218	H	0.701929	0.214098	0.158835
H219	H	0.649318	0.318745	0.225370
H220	H	0.701904	0.557615	0.112414
C221	C	0.701948	1.105764	-0.337285
C222	C	0.701929	1.038812	-0.384822
H223	H	0.701972	1.153834	-0.357288
H224	H	0.649350	1.136885	-0.281065
H225	H	0.754546	1.071975	-0.341275
H226	H	0.649328	1.072600	-0.380827
H227	H	0.754533	1.007688	-0.441056
H228	H	0.291939	1.525500	0.413596
H229	H	0.990131	0.464842	-0.083598
C230	C	0.701885	0.638539	-0.098194
C231	C	0.701890	0.554792	-0.115344
H232	H	0.701876	0.664586	-0.136142
H233	H	0.649295	0.686345	-0.043299
H234	H	0.754491	0.621474	-0.103524
H235	H	0.649280	0.571858	-0.110008
H236	H	0.754485	0.506976	-0.170252
H237	H	1.172819	0.341988	-0.022771
H238	H	0.291889	0.822943	0.372808
C239	C	0.624312	1.102846	-0.159907
C240	C	0.701867	1.048059	-0.243299
H241	H	0.624272	1.153938	-0.134144
H242	H	0.571739	1.130485	-0.156300
H243	H	0.624338	1.061270	-0.132718
H244	H	0.701838	1.089634	-0.270490
H245	H	0.754454	1.020420	-0.246911
H246	H	0.291818	0.806039	0.110977
H247	H	0.701912	1.072123	-0.553052
H248	H	0.231027	1.483720	0.077856
H249	H	1.172833	0.311214	-0.495595
C250	C	1.187511	0.800047	-0.560036
C251	C	1.121498	0.789953	-0.500888
H252	H	1.210312	0.762684	-0.613737
H253	H	1.161310	0.867224	-0.549280
H254	H	1.235688	0.777062	-0.557211
H255	H	1.073318	0.812946	-0.503709
H256	H	1.147699	0.722762	-0.511648
H257	H	1.111879	1.002803	-0.317607
C258	C	0.914571	0.733666	-0.280972
C259	C	0.980587	0.659650	-0.362386
H260	H	0.891821	0.795991	-0.281658
H261	H	0.866370	0.725980	-0.251771
H262	H	0.940760	0.729234	-0.254277
H263	H	0.954397	0.664078	-0.389079
H264	H	1.028797	0.667339	-0.391599
C265	C	0.352162	0.838615	0.219743
C266	C	0.423233	0.804686	0.223827
H267	H	0.374923	0.801269	0.166055
H268	H	0.307389	0.831785	0.259896
H269	H	0.325983	0.905798	0.230496
H270	H	0.449408	0.737505	0.213080
H271	H	0.468022	0.811507	0.183662
H272	H	-0.009875	0.836713	0.087250
H273	H	0.111985	0.841997	0.083042
H274	H	0.990099	0.662037	0.077099
C275	C	0.701897	1.064650	-0.750912
C276	C	0.701902	1.084377	-0.683733
H277	H	0.701888	1.112744	-0.770892
H278	H	0.754493	1.001490	-0.793808
H279	H	0.649297	1.066356	-0.733588
H280	H	0.754506	1.082664	-0.701059
H281	H	0.649301	1.147554	-0.640828
H282	H	0.231020	1.514497	0.550715
C283	C	0.779431	0.722877	-0.784963
C284	C	0.701891	0.777687	-0.701565
H285	H	0.779428	0.671817	-0.810711
H286	H	0.779430	0.764444	-0.812152
H287	H	0.832020	0.695186	-0.788585
H288	H	0.649301	0.805384	-0.697943
H289	H	0.701883	0.736114	-0.674368
C290	C	0.187632	1.026548	-0.061309
C291	C	0.121565	1.034039	-0.067096
H292	H	0.210432	1.060755	-0.088084
H293	H	0.161477	1.054426	-0.004651
H294	H	0.235801	0.959380	-0.087283
H295	H	0.073393	1.101207	-0.041117
H296	H	0.147720	1.006165	-0.123765
H297	H	0.701909	0.434885	0.163431
C298	C	0.701902	0.719917	-0.607623
C299	C	0.701896	0.786881	-0.560069
H300	H	0.701909	0.671826	-0.587639
H301	H	0.649308	0.753684	-0.603631
H302	H	0.754504	0.688815	-0.663848
H303	H	0.649291	0.817988	-0.503844
H304	H	0.754496	0.753109	-0.564053
H305	H	0.701891	0.753589	-0.391823
H306	H	0.291891	1.347863	0.552528
H307	H	0.413677	1.192235	0.417227
H308	H	1.172798	0.902956	-0.461174
