data_functionalizedCrystal
_audit_creation_method	'MofGen! by Chris Wilmer'
_symmetry_space_group_name_H-M	'P1'
_symmetry_Int_Tables_number	1
_symmetry_cell_setting	triclinic
loop_
_symmetry_equiv_pos_as_xyz
  x,y,z
_cell_length_a	18.050591
_cell_length_b	25.639239
_cell_length_c	18.050582
_cell_angle_alpha	89.975362
_cell_angle_beta	89.979078
_cell_angle_gamma	90.034692
loop_
_atom_site_label
_atom_site_type_symbol
_atom_site_fract_x
_atom_site_fract_y
_atom_site_fract_z
Zn1	Zn	1.135238	-0.208240	-0.420021
Zn2	Zn	1.468572	0.125094	-0.086687
Zn3	Zn	1.801905	0.458427	0.246646
Zn4	Zn	1.135126	-0.295667	-0.295826
Zn5	Zn	1.468460	0.037666	0.037507
Zn6	Zn	1.801793	0.370999	0.370840
Zn7	Zn	1.011058	-0.208242	-0.295832
Zn8	Zn	1.344391	0.125092	0.037502
Zn9	Zn	1.677724	0.458425	0.370835
Zn10	Zn	1.010983	-0.295640	-0.419962
Zn11	Zn	1.344316	0.037693	-0.086628
Zn12	Zn	1.677650	0.371027	0.246705
O13	O	1.073101	-0.251947	-0.357910
O14	O	1.406435	0.081386	-0.024577
O15	O	1.739768	0.414719	0.308757
O16	O	1.239148	-0.219848	-0.403568
O17	O	1.572482	0.113485	-0.070235
O18	O	1.905815	0.446819	0.263098
O19	O	1.118653	-0.284083	-0.191902
O20	O	1.451986	0.049251	0.141431
O21	O	1.785320	0.382584	0.474764
O22	O	1.027609	-0.135076	-0.312333
O23	O	1.360942	0.198257	0.021001
O24	O	1.694275	0.531590	0.354334
O25	O	1.239066	-0.284081	-0.312323
O26	O	1.572399	0.049253	0.021010
O27	O	1.905733	0.382586	0.354343
O28	O	1.118844	-0.135075	-0.403574
O29	O	1.452177	0.198259	-0.070241
O30	O	1.785510	0.531592	0.263093
O31	O	1.027500	-0.219851	-0.191906
O32	O	1.360833	0.113482	0.141427
O33	O	1.694167	0.446815	0.474760
O34	O	0.907123	-0.219825	-0.312276
O35	O	1.240457	0.113509	0.021058
O36	O	1.573790	0.446842	0.354391
O37	O	1.027481	-0.284034	-0.523894
O38	O	1.360815	0.049300	-0.190561
O39	O	1.694148	0.382633	0.142772
O40	O	0.907068	-0.284036	-0.403473
O41	O	1.240402	0.049298	-0.070140
O42	O	1.573735	0.382631	0.263193
O43	O	1.118771	-0.219821	-0.523938
O44	O	1.452105	0.113512	-0.190604
O45	O	1.785438	0.446846	0.142729
O46	O	1.118580	-0.368829	-0.312266
O47	O	1.451914	-0.035496	0.021067
O48	O	1.785247	0.297838	0.354401
O49	O	1.027373	-0.368809	-0.403468
O50	O	1.360706	-0.035475	-0.070135
O51	O	1.694039	0.297858	0.263199
C52	C	0.880149	-0.251928	-0.357869
C53	C	1.213483	0.081406	-0.024536
C54	C	1.546816	0.414739	0.308798
C55	C	0.797604	-0.251932	-0.357869
C56	C	1.130937	0.081401	-0.024536
C57	C	1.464270	0.414735	0.308798
C58	C	1.072977	-0.387790	-0.357876
C59	C	1.406310	-0.054456	-0.024543
C60	C	1.739643	0.278877	0.308791
C61	C	1.072991	-0.445904	-0.357886
C62	C	1.406324	-0.112570	-0.024553
C63	C	1.739658	0.220763	0.308780
C64	C	0.598161	-0.216974	-0.308390
C65	C	0.931495	0.116360	0.024943
C66	C	1.264828	0.449693	0.358277
C67	C	0.548729	-0.264661	-0.290112
C68	C	0.882062	0.068672	0.043222
C69	C	1.215396	0.402006	0.376555
C70	C	0.646473	-0.251948	-0.357903
C71	C	0.979806	0.081385	-0.024569
C72	C	1.313140	0.414719	0.308764
C73	C	0.548824	-0.204277	-0.376179
C74	C	0.882157	0.129056	-0.042846
C75	C	1.215490	0.462390	0.290487
C76	C	0.500488	-0.251959	-0.357934
C77	C	0.833821	0.081374	-0.024600
C78	C	1.167155	0.414708	0.308733
C79	C	0.598128	-0.299660	-0.339589
C80	C	0.931462	0.033673	-0.006255
C81	C	1.264795	0.367006	0.327078
C82	C	0.598227	-0.239244	-0.425688
C83	C	0.931560	0.094089	-0.092355
C84	C	1.264894	0.427423	0.240979
C85	C	0.548817	-0.286965	-0.407435
C86	C	0.882151	0.046369	-0.074102
C87	C	1.215484	0.379702	0.259231
C88	C	0.730571	-0.251941	-0.357883
C89	C	1.063905	0.081393	-0.024550
C90	C	1.397238	0.414726	0.308784
C91	C	0.416392	-0.251971	-0.357954
C92	C	0.749725	0.081362	-0.024620
C93	C	1.083058	0.414695	0.308713
C94	C	1.120717	-0.806265	-0.310502
C95	C	1.454051	-0.472932	0.022831
C96	C	1.787384	-0.139598	0.356164
C97	C	1.120746	-0.860869	-0.310512
C98	C	1.454079	-0.527536	0.022821
C99	C	1.787413	-0.194202	0.356154
O100	O	1.161195	-0.889104	-0.270187
O101	O	1.494528	-0.555771	0.063146
O102	O	1.827862	-0.222438	0.396479
N103	N	1.073232	-0.888186	-0.357959
N104	N	1.406565	-0.554853	-0.024626
N105	N	1.739899	-0.221520	0.308707
C106	C	1.025691	-0.860896	-0.405405
C107	C	1.359025	-0.527563	-0.072072
C108	C	1.692358	-0.194230	0.261262
O109	O	0.985280	-0.889145	-0.445764
O110	O	1.318613	-0.555812	-0.112431
O111	O	1.651947	-0.222479	0.220903
C112	C	1.025667	-0.806293	-0.405398
C113	C	1.359000	-0.472960	-0.072065
C114	C	1.692334	-0.139626	0.261268
C115	C	1.073179	-0.778979	-0.357943
C116	C	1.406512	-0.445645	-0.024609
C117	C	1.739845	-0.112312	0.308724
C118	C	1.168226	-0.778951	-0.263051
C119	C	1.501559	-0.445617	0.070282
C120	C	1.834892	-0.112284	0.403615
C121	C	1.168196	-0.724350	-0.263040
C122	C	1.501529	-0.391017	0.070293
C123	C	1.834862	-0.057683	0.403626
C124	C	1.120657	-0.697064	-0.310481
C125	C	1.453991	-0.363730	0.022853
C126	C	1.787324	-0.030397	0.356186
C127	C	1.073149	-0.724378	-0.357932
C128	C	1.406482	-0.391045	-0.024599
C129	C	1.739815	-0.057711	0.308735
C130	C	0.978131	-0.779004	-0.452847
C131	C	1.311464	-0.445670	-0.119514
C132	C	1.644797	-0.112337	0.213820
C133	C	0.978111	-0.724397	-0.452837
C134	C	1.311444	-0.391063	-0.119503
C135	C	1.644777	-0.057730	0.213830
C136	C	1.025622	-0.697083	-0.405381
C137	C	1.358956	-0.363749	-0.072048
C138	C	1.692289	-0.030416	0.261286
C139	C	1.025580	-0.642491	-0.405362
C140	C	1.358914	-0.309158	-0.072028
C141	C	1.692247	0.024175	0.261305
N142	N	1.073094	-0.615174	-0.357914
N143	N	1.406428	-0.281841	-0.024581
N144	N	1.739761	0.051492	0.308752
C145	C	1.120633	-0.642460	-0.310474
C146	C	1.453966	-0.309127	0.022859
C147	C	1.787299	0.024206	0.356193
C148	C	1.025747	-0.975567	-0.405416
C149	C	1.359081	-0.642233	-0.072083
C150	C	1.692414	-0.308900	0.261250
C151	C	1.025768	-1.030169	-0.405420
C152	C	1.359101	-0.696836	-0.072087
C153	C	1.692434	-0.363502	0.261247
C154	C	1.120823	-1.030138	-0.310528
C155	C	1.454157	-0.696805	0.022805
C156	C	1.787490	-0.363472	0.356139
C157	C	1.120799	-0.975535	-0.310521
C158	C	1.454132	-0.642202	0.022812
C159	C	1.787465	-0.308868	0.356145
C160	C	1.073261	-0.948250	-0.357969
C161	C	1.406595	-0.614916	-0.024636
C162	C	1.739928	-0.281583	0.308697
C163	C	1.120566	-0.527795	-0.310455
C164	C	1.453899	-0.194462	0.022879
C165	C	1.787233	0.138871	0.356212
C166	C	1.120530	-0.473190	-0.310446
C167	C	1.453863	-0.139857	0.022887
C168	C	1.787196	0.193477	0.356221
C169	C	1.025477	-0.473226	-0.405340
C170	C	1.358810	-0.139892	-0.072007
C171	C	1.692144	0.193441	0.261326
C172	C	1.025510	-0.527826	-0.405347
C173	C	1.358843	-0.194493	-0.072013
C174	C	1.692177	0.138840	0.261320
C175	C	1.073061	-0.555110	-0.357901
C176	C	1.406394	-0.221776	-0.024568
C177	C	1.739727	0.111557	0.308765
O178	O	0.985154	-0.614222	-0.445668
O179	O	1.318488	-0.280888	-0.112335
O180	O	1.651821	0.052445	0.220999
O181	O	1.161044	-0.614205	-0.270129
O182	O	1.494377	-0.280871	0.063204
O183	O	1.827711	0.052462	0.396538
C184	C	1.266807	-0.251967	-0.357952
C185	C	1.600140	0.081366	-0.024618
C186	C	1.933474	0.414700	0.308715
C187	C	1.349353	-0.251976	-0.357970
C188	C	1.682686	0.081358	-0.024636
C189	C	2.016019	0.414691	0.308697
C190	C	1.073131	-0.251924	-0.551616
C191	C	1.406464	0.081409	-0.218282
C192	C	1.739797	0.414743	0.115051
C193	C	1.073143	-0.251914	-0.634162
C194	C	1.406476	0.081419	-0.300828
C195	C	1.739810	0.414753	0.032505
C196	C	1.073247	-0.115574	-0.357961
C197	C	1.406580	0.217759	-0.024627
C198	C	1.739914	0.551093	0.308706
C199	C	1.073309	-0.057460	-0.357982
C200	C	1.406642	0.275873	-0.024649
C201	C	1.739976	0.609207	0.308685
C202	C	1.023537	-0.286785	-0.833589
C203	C	1.356871	0.046548	-0.500256
C204	C	1.690204	0.379881	-0.166922
C205	C	1.091289	-0.299569	-0.882987
C206	C	1.424623	0.033764	-0.549653
C207	C	1.757956	0.367098	-0.216320
C208	C	1.073180	-0.251874	-0.785292
C209	C	1.406513	0.081459	-0.451959
C210	C	1.739846	0.414792	-0.118625
C211	C	1.005465	-0.239076	-0.882976
C212	C	1.338798	0.094257	-0.549643
C213	C	1.672132	0.427591	-0.216309
C214	C	1.073209	-0.251837	-0.931277
C215	C	1.406542	0.081497	-0.597944
C216	C	1.739876	0.414830	-0.264611
C217	C	1.140967	-0.264683	-0.833603
C218	C	1.474300	0.068650	-0.500269
C219	C	1.807634	0.401984	-0.166936
C220	C	1.055097	-0.204168	-0.833588
C221	C	1.388430	0.129166	-0.500254
C222	C	1.721764	0.462499	-0.166921
C223	C	1.122896	-0.216933	-0.882963
C224	C	1.456229	0.116400	-0.549630
C225	C	1.789562	0.449733	-0.216297
C226	C	1.073162	-0.251897	-0.701194
C227	C	1.406495	0.081436	-0.367860
C228	C	1.739828	0.414769	-0.034527
C229	C	1.073235	-0.251814	-1.015374
C230	C	1.406568	0.081520	-0.682041
C231	C	1.739901	0.414853	-0.348707
C232	C	1.073115	-0.251933	-0.164958
C233	C	1.406449	0.081401	0.168375
C234	C	1.739782	0.414734	0.501709
C235	C	1.073247	-0.251795	-0.082413
C236	C	1.406580	0.081538	0.250921
C237	C	1.739913	0.414871	0.584254
H238	H	0.619827	-0.187429	-0.266473
H239	H	0.953160	0.145905	0.066860
H240	H	1.286493	0.479238	0.400193
C241	C	1.111974	-0.354046	-0.912307
C242	C	1.445307	-0.020712	-0.578974
C243	C	1.778640	0.312621	-0.245640
H244	H	1.076645	-0.378825	-0.895406
H245	H	1.409978	-0.045491	-0.562073
H246	H	1.743311	0.287842	-0.228740
H247	H	1.159746	-0.363366	-0.894676
H248	H	1.493080	-0.030032	-0.561343
H249	H	1.826413	0.303301	-0.228010
H250	H	1.112273	-0.353557	-0.964932
H251	H	1.445607	-0.020224	-0.631599
H252	H	1.778940	0.313110	-0.298265
H253	H	0.619985	-0.228476	-0.482982
H254	H	0.953319	0.104857	-0.149649
H255	H	1.286652	0.438191	0.183684
H256	H	1.164937	-0.187394	-0.904505
H257	H	1.498271	0.145939	-0.571172
H258	H	1.831604	0.479272	-0.237839
H259	H	0.619696	-0.339992	-0.324080
H260	H	0.953030	-0.006659	0.009254
H261	H	1.286363	0.326675	0.342587
H262	H	0.986824	-0.550067	-0.443991
H263	H	1.320158	-0.216733	-0.110658
H264	H	1.653491	0.116600	0.222676
H265	H	0.527126	-0.163963	-0.391599
H266	H	0.860460	0.169371	-0.058266
H267	H	1.193793	0.502704	0.275068
H268	H	1.206941	-0.801161	-0.224419
H269	H	1.540275	-0.467828	0.108914
H270	H	1.873608	-0.134495	0.442247
C271	C	1.034385	-0.149705	-0.804246
C272	C	1.367719	0.183628	-0.470913
C273	C	1.701052	0.516961	-0.137579
H274	H	0.986222	-0.140676	-0.821121
H275	H	1.319555	0.192657	-0.487787
H276	H	1.652889	0.525991	-0.154454
H277	H	1.069168	-0.124805	-0.821887
H278	H	1.402501	0.208528	-0.488553
H279	H	1.735835	0.541862	-0.155220
H280	H	1.034970	-0.150039	-0.751621
H281	H	1.368303	0.183294	-0.418288
H282	H	1.701637	0.516627	-0.084955
C283	C	1.172798	-0.443147	-0.258246
C284	C	1.506131	-0.109814	0.075087
C285	C	1.839465	0.223519	0.408420
H286	H	1.201119	-0.467222	-0.230001
H287	H	1.534452	-0.133888	0.103332
H288	H	1.867786	0.199445	0.436665
H289	H	1.144404	-0.421878	-0.225853
H290	H	1.477737	-0.088545	0.107481
H291	H	1.811070	0.244789	0.440814
H292	H	1.205130	-0.421814	-0.286690
H293	H	1.538463	-0.088481	0.046644
H294	H	1.871796	0.244852	0.379977
C295	C	1.218376	-0.279324	-0.804433
C296	C	1.551709	0.054009	-0.471100
C297	C	1.885043	0.387343	-0.137766
H298	H	1.217889	-0.279257	-0.751803
H299	H	1.551223	0.054076	-0.418470
H300	H	1.884556	0.387409	-0.085137
H301	H	1.253652	-0.254654	-0.821744
H302	H	1.586985	0.078679	-0.488411
H303	H	1.920318	0.412013	-0.155077
H304	H	1.231338	-0.313094	-0.821747
H305	H	1.564671	0.020240	-0.488414
H306	H	1.898005	0.353573	-0.155080
C307	C	0.928090	-0.224470	-0.912273
C308	C	1.261424	0.108863	-0.578940
C309	C	1.594757	0.442196	-0.245607
H310	H	0.892873	-0.249323	-0.895358
H311	H	1.226206	0.084010	-0.562025
H312	H	1.559540	0.417344	-0.228691
H313	H	0.928764	-0.224249	-0.964894
H314	H	1.262098	0.109085	-0.631561
H315	H	1.595431	0.442418	-0.298228
H316	H	0.914893	-0.190832	-0.894626
H317	H	1.248226	0.142502	-0.561293
H318	H	1.581560	0.475835	-0.227959
H319	H	0.526989	-0.275415	-0.232800
H320	H	0.860322	0.057919	0.100533
H321	H	1.193655	0.391252	0.433867
C322	C	1.220445	-0.694309	-0.210827
C323	C	1.553778	-0.360975	0.122506
C324	C	1.887111	-0.027642	0.455840
H325	H	1.213618	-0.657880	-0.217600
H326	H	1.546951	-0.324546	0.115733
H327	H	1.880285	0.008787	0.449067
H328	H	1.270344	-0.703217	-0.221733
H329	H	1.603677	-0.369884	0.111600
H330	H	1.937011	-0.036550	0.444933
H331	H	1.209591	-0.703293	-0.160924
H332	H	1.542924	-0.369960	0.172410
H333	H	1.876258	-0.036627	0.505743
H334	H	0.939438	-0.801234	-0.491487
H335	H	1.272771	-0.467900	-0.158154
H336	H	1.606104	-0.134567	0.175180
C337	C	0.966878	-0.326715	-0.804295
C338	C	1.300211	0.006618	-0.470962
C339	C	1.633545	0.339952	-0.137628
H340	H	0.930598	-0.309269	-0.775333
H341	H	1.263931	0.024065	-0.441999
H342	H	1.597264	0.357398	-0.108666
H343	H	0.991564	-0.351887	-0.774613
H344	H	1.324898	-0.018554	-0.441280
H345	H	1.658231	0.314779	-0.107947
H346	H	0.943508	-0.343617	-0.844872
H347	H	1.276842	-0.010284	-0.511539
H348	H	1.610175	0.323049	-0.178205
C349	C	0.519727	-0.326967	-0.464019
C350	C	0.853060	0.006366	-0.130686
C351	C	1.186393	0.339700	0.202647
H352	H	0.490790	-0.309581	-0.500380
H353	H	0.824123	0.023752	-0.167046
H354	H	1.157456	0.357085	0.166287
H355	H	0.490061	-0.352164	-0.439299
H356	H	0.823394	-0.018830	-0.105966
H357	H	1.156727	0.314503	0.227367
H358	H	0.560389	-0.343829	-0.487298
H359	H	0.893722	-0.010496	-0.153964
H360	H	1.227055	0.322837	0.179369
C361	C	1.172864	-0.557800	-0.258261
C362	C	1.506198	-0.224466	0.075073
C363	C	1.839531	0.108867	0.408406
H364	H	1.201145	-0.533706	-0.229997
H365	H	1.534479	-0.200372	0.103336
H366	H	1.867812	0.132961	0.436669
H367	H	1.205221	-0.579069	-0.286697
H368	H	1.538554	-0.245735	0.046636
H369	H	1.871887	0.087598	0.379970
H370	H	1.144482	-0.579130	-0.225873
H371	H	1.477816	-0.245797	0.107461
H372	H	1.811149	0.087537	0.440794
C373	C	1.173067	-0.945494	-0.258327
C374	C	1.506400	-0.612161	0.075007
C375	C	1.839734	-0.278827	0.408340
H376	H	1.201383	-0.969570	-0.230079
H377	H	1.534716	-0.636237	0.103254
H378	H	1.868050	-0.302903	0.436587
H379	H	1.144676	-0.924221	-0.225935
H380	H	1.478009	-0.590888	0.107398
H381	H	1.811342	-0.257555	0.440732
H382	H	1.205403	-0.924165	-0.286771
H383	H	1.538736	-0.590832	0.046563
H384	H	1.872070	-0.257498	0.379896
H385	H	0.939401	-0.702184	-0.491477
H386	H	1.272734	-0.368850	-0.158144
H387	H	1.606067	-0.035517	0.175190
H388	H	1.159534	-1.052365	-0.271902
H389	H	1.492868	-0.719031	0.061431
H390	H	1.826201	-0.385698	0.394765
H391	H	0.987072	-1.052404	-0.444056
H392	H	1.320405	-0.719070	-0.110723
H393	H	1.653738	-0.385737	0.222611
H394	H	0.987030	-0.953354	-0.444052
H395	H	1.320364	-0.620020	-0.110719
H396	H	1.653697	-0.286687	0.222615
H397	H	0.986769	-0.451001	-0.443964
H398	H	1.320103	-0.117667	-0.110630
H399	H	1.653436	0.215666	0.222703
