data_functionalizedCrystal
_audit_creation_method	'MofGen! by Chris Wilmer'
_symmetry_space_group_name_H-M	'P1'
_symmetry_Int_Tables_number	1
_symmetry_cell_setting	triclinic
loop_
_symmetry_equiv_pos_as_xyz
  x,y,z
_cell_length_a	18.215407
_cell_length_b	21.295416
_cell_length_c	18.215399
_cell_angle_alpha	89.970321
_cell_angle_beta	90.019833
_cell_angle_gamma	89.969221
loop_
_atom_site_label
_atom_site_type_symbol
_atom_site_fract_x
_atom_site_fract_y
_atom_site_fract_z
Zn1	Zn	1.125044	0.250608	0.416107
Zn2	Zn	1.124941	0.355879	0.293037
Zn3	Zn	1.001977	0.250629	0.293054
Zn4	Zn	1.001931	0.355844	0.416062
O5	O	1.063473	0.303240	0.354565
O6	O	1.228015	0.264579	0.399793
O7	O	1.108605	0.341941	0.190055
O8	O	1.018364	0.162537	0.309404
O9	O	1.227939	0.341921	0.309374
O10	O	1.108781	0.162521	0.399810
O11	O	1.018264	0.264614	0.190068
O12	O	0.898986	0.264580	0.309360
O13	O	1.018286	0.341861	0.519052
O14	O	0.898953	0.341881	0.399733
O15	O	1.108737	0.264545	0.519085
O16	O	1.108561	0.443964	0.309330
O17	O	1.018186	0.443938	0.399716
C18	C	0.872267	0.303229	0.354544
C19	C	0.790468	0.303240	0.354552
C20	C	1.063377	0.466792	0.354533
C21	C	1.063404	0.536760	0.354543
C22	C	0.602276	0.343554	0.401551
C23	C	0.525417	0.343556	0.401560
C24	C	0.525422	0.262938	0.307596
C25	C	0.602280	0.262933	0.307591
C26	C	0.640704	0.303245	0.354567
C27	C	0.486988	0.303251	0.354581
C28	C	0.403655	0.303253	0.354591
C29	C	0.724043	0.303242	0.354559
C30	C	1.110504	0.569619	0.307529
C31	C	1.110538	0.635361	0.307549
C32	C	1.063460	0.668242	0.354575
C33	C	1.016356	0.635375	0.401598
C34	C	1.016328	0.569634	0.401582
N35	N	0.999082	0.771508	0.360184
N36	N	0.999110	0.833960	0.360195
C37	C	1.063543	0.866317	0.354627
N38	N	1.127947	0.833863	0.349035
N39	N	1.127917	0.771406	0.349020
C40	C	1.063485	0.739528	0.354598
C41	C	1.110685	0.970462	0.307632
C42	C	1.110721	1.036205	0.307658
C43	C	1.016532	1.036218	0.401703
C44	C	1.016503	0.970475	0.401682
C45	C	1.063578	0.937601	0.354643
C46	C	1.255426	0.303251	0.354587
C47	C	1.337225	0.303256	0.354596
C48	C	1.063518	0.303197	0.546518
C49	C	1.063537	0.303178	0.628317
C50	C	1.063590	1.139050	0.354626
C51	C	1.063643	1.069082	0.354685
C52	C	1.063471	0.303238	0.163359
C53	C	1.063594	0.303079	0.081560
C54	C	1.110652	0.262882	0.816529
C55	C	1.110660	0.262863	0.893388
C56	C	1.016474	0.343377	0.893343
C57	C	1.016463	0.343392	0.816485
C58	C	1.063555	0.303145	0.778081
C59	C	1.063576	0.303112	0.931797
C60	C	1.063585	0.303093	1.015130
C61	C	1.063545	0.303164	0.694742
H62	H	0.633559	0.376377	0.439804
F63	F	0.643181	0.220025	0.257586
F64	F	0.966361	0.386211	0.934222
H65	H	1.149080	1.062958	0.269374
H66	H	0.494132	0.376379	0.439820
H67	H	0.978106	0.376179	0.785179
F68	F	0.484522	0.220038	0.257602
F69	F	1.160785	0.935472	0.257570
H70	H	1.148896	0.662121	0.269265
H71	H	0.978203	1.062989	0.439996
H72	H	1.148837	0.542855	0.269229
H73	H	0.978026	0.662151	0.439889
H74	H	0.978146	0.943720	0.439962
F75	F	1.160792	0.220014	0.934305
H76	H	0.977973	0.542879	0.439868
F77	F	1.160770	0.220046	0.775659
