data_functionalizedCrystal
_audit_creation_method	'MofGen! by Chris Wilmer'
_symmetry_space_group_name_H-M	'P1'
_symmetry_Int_Tables_number	1
_symmetry_cell_setting	triclinic
loop_
_symmetry_equiv_pos_as_xyz
  x,y,z
_cell_length_a	12.827892
_cell_length_b	19.077241
_cell_length_c	19.076919
_cell_angle_alpha	90.113904
_cell_angle_beta	92.275535
_cell_angle_gamma	87.692554
loop_
_atom_site_label
_atom_site_type_symbol
_atom_site_fract_x
_atom_site_fract_y
_atom_site_fract_z
Zn1	Zn	-0.379366	-1.058330	-0.440583
Zn2	Zn	-0.546835	-1.062988	-0.323084
Zn3	Zn	-0.378815	-0.945546	-0.318360
Zn4	Zn	-0.560774	-0.940809	-0.435820
O5	O	-0.466447	-1.001918	-0.379462
O6	O	-0.395978	-1.157281	-0.428966
O7	O	-0.518483	-1.051341	-0.224126
O8	O	-0.232651	-0.960540	-0.334590
O9	O	-0.519017	-1.160703	-0.342641
O10	O	-0.233055	-1.043402	-0.424386
O11	O	-0.395039	-0.965056	-0.220656
O12	O	-0.408555	-0.846584	-0.329972
O13	O	-0.542773	-0.952466	-0.534783
O14	O	-0.542239	-0.843104	-0.416269
O15	O	-0.409494	-1.038809	-0.538282
O16	O	-0.694921	-1.046747	-0.338022
O17	O	-0.705162	-0.956983	-0.420849
C18	C	-0.476851	-0.819347	-0.372091
C19	C	-0.481328	-0.741242	-0.368955
C20	C	-0.419481	-0.702765	-0.412495
C21	C	-0.423682	-0.629377	-0.409542
C22	C	-0.489736	-0.594468	-0.363051
C23	C	-0.551585	-0.632951	-0.319506
C24	C	-0.547377	-0.706337	-0.322456
C25	C	-0.509171	-0.375177	-0.349398
C26	C	-0.513376	-0.301785	-0.346453
C27	C	-0.385472	-0.298216	-0.436488
C28	C	-0.381275	-0.371604	-0.439437
C29	C	-0.443119	-0.410080	-0.395889
N30	N	-0.494034	-0.519453	-0.360033
N31	N	-0.438815	-0.485093	-0.398904
C32	C	-0.737959	-1.001875	-0.379448
C33	C	-0.854111	-1.001919	-0.379468
C34	C	-0.900793	-1.046386	-0.338532
C35	C	-1.020842	-1.046434	-0.338552
C36	C	-0.193875	-1.001980	-0.379492
C37	C	-0.077721	-1.002007	-0.379505
C38	C	-0.477750	-0.994590	-0.562741
C39	C	-0.482566	-0.991467	-0.640844
C40	C	-0.455998	-0.185202	-0.386856
C41	C	-0.451530	-0.263307	-0.389993
C42	C	-0.415440	-1.034951	-0.679360
C43	C	-0.419962	-1.032008	-0.752746
C44	C	-0.491616	-0.985584	-0.787614
C45	C	-0.558745	-0.942095	-0.749093
C46	C	-0.554217	-0.945035	-0.675709
C47	C	-0.512594	-0.971968	-1.006894
C48	C	-0.517119	-0.969033	-1.080284
C49	C	-0.378334	-1.058946	-1.083931
C50	C	-0.373817	-1.061885	-1.010546
C51	C	-0.440942	-1.018393	-0.972031
N52	N	-0.496242	-0.982576	-0.862626
N53	N	-0.436310	-1.021397	-0.897020
C54	C	-0.455111	-1.009258	-0.196897
C55	C	-0.449993	-1.012517	-0.118800
H56	H	-0.373322	-0.598051	-0.444998
N57	N	-0.584956	-0.925038	-0.965358
H58	H	-0.631025	-0.895178	-0.998584
H59	H	-0.629824	-0.954824	-0.936045
N60	N	-0.918876	-0.951533	-0.425915
H61	H	-0.964484	-0.978805	-0.459636
H62	H	-0.964247	-0.920192	-0.395951
H63	H	-0.335120	-0.266880	-0.471941
H64	H	-0.315472	-1.099690	-0.982161
H65	H	-0.617083	-0.904292	-0.777489
H66	H	-0.357095	-1.072757	-0.650976
N67	N	-0.575869	-0.416671	-0.302429
H68	H	-0.618352	-0.383418	-0.272533
H69	H	-0.624312	-0.445983	-0.332196
N70	N	-0.584617	-0.264123	-0.296309
H71	H	-0.659246	-0.276456	-0.307643
H72	H	-0.564352	-0.278900	-0.246652
N73	N	-1.074034	-1.096859	-0.292118
H74	H	-1.152252	-1.089742	-0.298711
H75	H	-1.052755	-1.146603	-0.305104
H76	H	-0.851887	-1.084425	-0.303473
H77	H	-0.608868	-0.909618	-0.644350
N78	N	-0.305924	-1.105840	-1.125473
H79	H	-0.259844	-1.135693	-1.092248
H80	H	-0.348480	-1.137132	-1.157234
H81	H	-0.365304	-1.067420	-0.784102
N82	N	-0.310018	-0.409239	-0.489582
H83	H	-0.235396	-0.396898	-0.478235
H84	H	-0.316813	-0.461558	-0.484830
N85	N	-0.348244	-0.740414	-0.462643
H86	H	-0.309702	-0.704900	-0.489776
H87	H	-0.296311	-0.772004	-0.435321
N88	N	-1.024527	-0.951576	-0.425931
H89	H	-1.045900	-0.960435	-0.476600
H90	H	-1.045747	-0.901833	-0.412905
N91	N	-0.594389	-0.918958	-1.117909
H92	H	-0.667654	-0.930354	-1.105578
H93	H	-0.580133	-0.869285	-1.103105
N94	N	-0.622818	-0.595303	-0.269355
H95	H	-0.616101	-0.542974	-0.274092
H96	H	-0.697413	-0.607693	-0.280717
H97	H	-0.597739	-0.737665	-0.287001
