data_functionalizedCrystal
_audit_creation_method	'MofGen! by Chris Wilmer'
_symmetry_space_group_name_H-M	'P1'
_symmetry_Int_Tables_number	1
_symmetry_cell_setting	triclinic
loop_
_symmetry_equiv_pos_as_xyz
  x,y,z
_cell_length_a	16.992694
_cell_length_b	9.798715
_cell_length_c	16.992695
_cell_angle_alpha	89.996314
_cell_angle_beta	89.331777
_cell_angle_gamma	89.998094
loop_
_atom_site_label
_atom_site_type_symbol
_atom_site_fract_x
_atom_site_fract_y
_atom_site_fract_z
O1	O	1.050850	0.113321	-0.166915
O2	O	0.822450	0.113361	-0.165084
O3	O	0.935734	0.113331	-0.051799
O4	O	0.937565	0.113352	-0.280200
O5	O	0.935725	-0.113652	-0.051798
O6	O	0.822441	-0.113621	-0.165082
O7	O	1.050841	-0.113661	-0.166914
Zn8	Zn	0.936639	-0.149679	-0.165998
Zn9	Zn	0.936651	0.149380	-0.166000
O10	O	0.937556	-0.113630	-0.280198
C11	C	0.793085	-0.000125	-0.162727
C12	C	0.705600	-0.000110	-0.155699
N13	N	0.936637	-0.353779	-0.165997
C14	C	0.659610	-0.000104	-0.223517
C15	C	0.577409	-0.000124	-0.216908
C16	C	0.541201	-0.000139	-0.142480
C17	C	0.587198	-0.000148	-0.074657
C18	C	0.669397	-0.000138	-0.081267
C19	C	0.295886	-0.000178	-0.115086
C20	C	0.213681	-0.000183	-0.108481
C21	C	0.203898	-0.000162	-0.250732
C22	C	0.286099	-0.000144	-0.257336
C23	C	0.332089	-0.000160	-0.189512
N24	N	0.457178	-0.000154	-0.135723
N25	N	0.416110	-0.000154	-0.196270
C26	C	0.984986	-0.421561	-0.214105
C27	C	0.984998	-0.578723	-0.214104
C28	C	1.080205	-0.000172	-0.169270
C29	C	1.167690	-0.000178	-0.176299
C30	C	0.933374	-0.000160	-0.022439
C31	C	0.926345	-0.000158	0.065046
N32	N	0.936659	0.353479	-0.165995
C33	C	0.939917	-0.000137	-0.309559
C34	C	0.946945	-0.000129	-0.397044
C35	C	0.994163	-0.000172	0.111037
C36	C	0.987554	-0.000158	0.193238
C37	C	0.913127	-0.000140	0.229446
C38	C	0.845303	-0.000122	0.183449
C39	C	0.851913	-0.000127	0.101250
C40	C	0.885732	-0.000116	0.474760
C41	C	0.879127	-0.000116	0.556966
C42	C	1.021379	-0.000149	0.566749
C43	C	1.027982	-0.000161	0.484547
C44	C	0.960159	-0.000136	0.438558
N45	N	0.906369	-0.000130	0.313468
N46	N	0.966917	-0.000137	0.354537
H47	H	0.539966	-0.000118	-0.272133
H48	H	0.333322	-0.000192	-0.059859
H49	H	0.689084	-0.000091	-0.284124
C50	C	1.040922	-0.657458	-0.269749
C51	C	1.096915	-0.579038	-0.325476
C52	C	1.152840	-0.657776	-0.381123
C53	C	1.152773	-0.814932	-0.381043
C54	C	1.096778	-0.893360	-0.325315
C55	C	1.040852	-0.814623	-0.269668
H56	H	1.096966	-0.462694	-0.325537
H57	H	1.194291	-0.599717	-0.422377
H58	H	1.194172	-0.873218	-0.422237
H59	H	1.096726	-1.009704	-0.325254
H60	H	0.999401	-0.872681	-0.228414
C61	C	0.811125	-0.000114	0.424182
C62	C	0.751538	0.117751	0.431449
C63	C	0.676926	0.117746	0.380869
C64	C	0.661902	-0.000124	0.323022
C65	C	0.721491	-0.117997	0.315753
C66	C	0.796103	-0.117992	0.366333
H67	H	0.762658	0.205013	0.474273
H68	H	0.632814	0.205004	0.386251
H69	H	0.606670	-0.000127	0.285580
H70	H	0.710371	-0.205259	0.272929
H71	H	0.840215	-0.205251	0.360952
H72	H	1.042779	-0.000171	0.230680
C73	C	0.880734	-0.567795	-0.110348
C74	C	0.914448	-0.469529	-0.048575
C75	C	0.858522	-0.390792	0.007072
C76	C	0.768882	-0.410321	0.000946
C77	C	0.735163	-0.508592	-0.060829
C78	C	0.791089	-0.587329	-0.116476
H79	H	0.980809	-0.455069	-0.044038
H80	H	0.883484	-0.318046	0.052802
H81	H	0.727483	-0.352036	0.042139
H82	H	0.668802	-0.523052	-0.065366
H83	H	0.766127	-0.660075	-0.162207
C84	C	1.109854	-0.000154	0.444721
C85	C	1.184455	-0.000149	0.495309
C86	C	1.266328	-0.000139	0.455482
C87	C	1.273600	-0.000133	0.365067
C88	C	1.198996	-0.000139	0.314473
C89	C	1.117123	-0.000149	0.354300
H90	H	1.179074	-0.000153	0.562245
H91	H	1.321554	-0.000135	0.492936
H92	H	1.334207	-0.000126	0.335584
H93	H	1.204377	-0.000135	0.247537
H94	H	1.061897	-0.000153	0.316846
C95	C	0.325917	-0.000143	-0.339212
C96	C	0.310575	-0.118011	-0.396973
C97	C	0.350389	-0.118008	-0.478852
C98	C	0.405543	-0.000137	-0.502971
C99	C	0.420887	0.117740	-0.445208
C100	C	0.381074	0.117737	-0.363329
H101	H	0.269744	-0.205273	-0.379121
H102	H	0.339030	-0.205268	-0.521612
H103	H	0.435015	-0.000135	-0.563583
H104	H	0.461718	0.205002	-0.463061
H105	H	0.392433	0.204997	-0.320569
H106	H	0.166444	-0.000151	-0.305950
H107	H	0.796688	-0.000116	0.063804
H108	H	0.184203	-0.000194	-0.047870
H109	H	0.557710	-0.000180	-0.014056
H110	H	1.026373	-0.363239	-0.255289
H111	H	0.706842	-0.000142	-0.026042
H112	H	0.784703	-0.000099	0.212936
H113	H	0.895255	-0.412101	-0.124807
H114	H	1.054770	-0.000194	0.081563
H115	H	1.076596	-0.000166	0.604202
H116	H	0.818517	-0.000124	0.586443
