data_functionalizedCrystal
_audit_creation_method	'MofGen! by Chris Wilmer'
_symmetry_space_group_name_H-M	'P1'
_symmetry_Int_Tables_number	1
_symmetry_cell_setting	triclinic
loop_
_symmetry_equiv_pos_as_xyz
  x,y,z
_cell_length_a	22.010155
_cell_length_b	15.944551
_cell_length_c	15.944551
_cell_angle_alpha	96.501262
_cell_angle_beta	90.003301
_cell_angle_gamma	90.003973
loop_
_atom_site_label
_atom_site_type_symbol
_atom_site_fract_x
_atom_site_fract_y
_atom_site_fract_z
O1	O	-0.050463	-1.114530	0.108320
O2	O	-0.050478	-0.869981	0.121677
O3	O	-0.050465	-0.998934	-0.007276
O4	O	-0.050477	-0.985577	0.237273
O5	O	0.050585	-0.998910	-0.007257
O6	O	0.050572	-0.869957	0.121696
O7	O	0.050587	-1.114507	0.108340
Cu8	Cu	0.059806	-0.992230	0.115020
Cu9	Cu	-0.059697	-0.992258	0.114997
O10	O	0.050574	-0.985554	0.237293
C11	C	0.000045	-0.838675	0.121132
C12	C	0.000039	-0.745429	0.119470
N13	N	0.143859	-0.992217	0.115035
N14	N	-0.143750	-0.992278	0.114975
C15	C	0.563644	-1.049361	0.057905
C16	C	0.627252	-1.049365	0.057899
O17	O	0.660148	-1.097918	0.009335
N18	N	0.659066	-0.992257	0.114979
C19	C	0.627269	-0.935136	0.172063
O20	O	0.660170	-0.886561	0.220614
C21	C	0.563663	-0.935128	0.172064
C22	C	0.531852	-0.992246	0.114986
C23	C	0.531833	-1.106474	0.000830
C24	C	0.468230	-1.106471	0.000837
C25	C	0.436438	-1.049355	0.057919
C26	C	0.468249	-0.992243	0.114993
C27	C	0.531867	-0.878004	0.229144
C28	C	0.468256	-0.878001	0.229140
C29	C	0.436445	-0.935118	0.172061
C30	C	0.372853	-0.935125	0.172082
N31	N	0.341039	-0.992233	0.115001
C32	C	0.372831	-1.049348	0.057920
C33	C	0.760847	-0.935154	0.172056
C34	C	0.824452	-0.935165	0.172059
C35	C	0.824430	-1.049394	0.057893
C36	C	0.760824	-1.049386	0.057895
C37	C	0.729033	-0.992262	0.114975
C38	C	0.239260	-1.049338	0.057939
C39	C	0.175651	-1.049332	0.057954
C40	C	0.175678	-0.935101	0.172116
C41	C	0.239282	-0.935109	0.172105
C42	C	0.271071	-0.992231	0.115010
O43	O	0.339916	-0.886594	0.220618
O44	O	0.339922	-1.097907	0.009370
C45	C	0.000060	-0.998367	-0.038561
C46	C	0.000061	-0.996705	-0.131807
C47	C	0.000063	-1.145813	0.108885
C48	C	0.000064	-1.239059	0.110547
C49	C	0.000055	-0.530572	0.035565
C50	C	-0.049770	-0.469564	0.074518
C51	C	0.000047	-0.574703	0.116462
C52	C	0.049858	-0.469563	0.074556
C53	C	0.000056	-0.409790	0.113551
C54	C	-0.049820	-0.514923	0.155437
C55	C	0.049853	-0.514928	0.155464
C56	C	0.000016	-0.453937	0.194476
C57	C	0.000040	-0.669705	0.118137
C58	C	0.000058	-0.314789	0.111883
C59	C	0.000047	-0.912801	-0.346663
C60	C	0.049873	-0.951752	-0.407671
C61	C	0.000056	-0.993698	-0.302533
C62	C	-0.049754	-0.951794	-0.407674
C63	C	0.000048	-0.990787	-0.467445
C64	C	0.049923	-1.032671	-0.362312
C65	C	-0.049749	-1.032702	-0.362308
C66	C	0.000089	-1.071711	-0.423298
C67	C	0.000061	-0.995372	-0.207530
C68	C	0.000048	-0.989119	-0.562446
C69	C	0.000047	-0.986120	0.268577
C70	C	0.000043	-0.987782	0.361823
H71	H	0.265136	-1.095850	0.011446
H72	H	0.265183	-0.888607	0.218592
H73	H	0.091993	-0.917526	-0.427771
C74	C	0.566850	-0.815168	0.291926
C75	C	0.558104	-0.719526	0.290438
C76	C	0.593087	-0.656685	0.353221
C77	C	0.636816	-0.689486	0.417493
C78	C	0.645564	-0.785133	0.418983
C79	C	0.610581	-0.847974	0.356200
H80	H	0.525732	-0.695240	0.242858
H81	H	0.586611	-0.585880	0.352118
H82	H	0.662712	-0.642967	0.463969
H83	H	0.677937	-0.809418	0.466563
H84	H	0.617057	-0.918778	0.357303
C85	C	0.106896	-1.078842	-0.335305
C86	C	0.170552	-1.045275	-0.353735
C87	C	0.227524	-1.091442	-0.326726
C88	C	0.220840	-1.171177	-0.281287
C89	C	0.157181	-1.204748	-0.262855
C90	C	0.100209	-1.158581	-0.289864
H91	H	0.175502	-0.986246	-0.387373
H92	H	0.274648	-1.066590	-0.340371
H93	H	0.263014	-1.205352	-0.261294
H94	H	0.152231	-1.263776	-0.229217
H95	H	0.053085	-1.183433	-0.276219
C96	C	0.859440	-0.872341	0.234853
C97	C	0.903169	-0.808104	0.201991
C98	C	0.938155	-0.745275	0.264783
C99	C	0.929412	-0.746683	0.360436
C100	C	0.885682	-0.810922	0.393303
C101	C	0.850696	-0.873751	0.330511
H102	H	0.909643	-0.807060	0.131179
H103	H	0.970527	-0.697721	0.240453
H104	H	0.955311	-0.700172	0.406918
H105	H	0.879208	-0.811966	0.464115
H106	H	0.818323	-0.921306	0.354841
H107	H	0.557713	-1.152984	-0.045656
H108	H	0.000122	-1.138919	-0.456457
H109	H	0.091975	-0.535050	0.189660
H110	H	-0.091871	-1.066898	-0.342186
C111	C	0.725835	-1.112211	-0.004897
C112	C	0.734584	-1.110802	-0.100549
C113	C	0.699599	-1.173628	-0.163346
C114	C	0.655866	-1.237863	-0.130491
C115	C	0.647116	-1.239275	-0.034834
C116	C	0.682100	-1.176449	0.027963
H117	H	0.766959	-1.063248	-0.124875
H118	H	0.706077	-1.172582	-0.234158
H119	H	0.629968	-1.284370	-0.176976
H120	H	0.614740	-1.286828	-0.010508
H121	H	0.675623	-1.177494	0.098774
C122	C	0.859411	-1.112217	-0.004904
C123	C	0.903138	-1.079389	-0.069159
C124	C	0.938120	-1.142208	-0.131951
C125	C	0.929376	-1.237855	-0.130488
C126	C	0.885647	-1.270688	-0.066230
C127	C	0.850665	-1.207869	-0.003438
H128	H	0.909612	-1.008580	-0.070244
H129	H	0.970491	-1.117902	-0.179519
H130	H	0.955272	-1.284357	-0.176971
H131	H	0.879173	-1.341496	-0.065145
H132	H	0.818294	-1.232175	0.044130
C133	C	0.140701	-0.872272	0.234902
C134	C	0.070736	-0.872267	0.234899
C135	C	0.035757	-0.809433	0.297681
C136	C	0.070743	-0.746604	0.360465
C137	C	0.140712	-0.746606	0.360470
C138	C	0.175690	-0.809441	0.297689
H139	H	0.044834	-0.918780	0.188420
H140	H	-0.016038	-0.809432	0.297676
H141	H	0.044850	-0.700090	0.406940
H142	H	0.166614	-0.700094	0.406949
H143	H	0.227486	-0.809442	0.297693
C144	C	0.106765	-0.442415	0.028331
C145	C	0.117700	-0.476626	-0.064674
C146	C	0.174603	-0.449483	-0.110906
C147	C	0.220571	-0.388129	-0.064133
C148	C	0.209637	-0.353915	0.028877
C149	C	0.152734	-0.381058	0.075109
H150	H	0.083670	-0.522046	-0.099302
H151	H	0.182697	-0.474810	-0.179758
H152	H	0.262695	-0.368036	-0.098357
H153	H	0.243667	-0.308495	0.063505
H154	H	0.144640	-0.355731	0.143961
H155	H	-0.091882	-0.917577	-0.427759
C156	C	0.433241	-1.169292	-0.061958
C157	C	0.441988	-1.167873	-0.157609
C158	C	0.407004	-1.230695	-0.220410
C159	C	0.363272	-1.294935	-0.187560
C160	C	0.354523	-1.296356	-0.091904
C161	C	0.389508	-1.233534	-0.029103
H162	H	0.474363	-1.120317	-0.181931
H163	H	0.413481	-1.229642	-0.291221
H164	H	0.337374	-1.341439	-0.234049
H165	H	0.322148	-1.343912	-0.067583
H166	H	0.383031	-1.234587	0.041708
H167	H	0.734966	-0.888639	0.218545
H168	H	0.149753	-1.095847	0.011474
H169	H	0.442375	-0.831481	0.275621
H170	H	-0.000003	-0.563905	-0.031573
C171	C	0.000105	-0.822092	-0.301659
C172	C	0.052885	-0.761898	-0.315893
C173	C	0.052946	-0.671192	-0.270887
C174	C	0.000227	-0.640680	-0.211649
C175	C	-0.052557	-0.700875	-0.197413
C176	C	-0.052618	-0.791581	-0.242418
H177	H	0.091914	-0.784484	-0.359747
H178	H	0.092021	-0.626632	-0.281426
H179	H	0.000272	-0.573534	-0.178333
H180	H	-0.091586	-0.678289	-0.153559
H181	H	-0.091693	-0.836141	-0.231879
H182	H	-0.091989	-0.534920	0.189620
C183	C	-0.106627	-0.442307	0.028253
C184	C	-0.117536	-0.476435	-0.064782
C185	C	-0.174369	-0.449137	-0.111070
C186	C	-0.220293	-0.387713	-0.064323
C187	C	-0.209385	-0.353581	0.028718
C188	C	-0.152552	-0.380879	0.075005
H189	H	-0.083539	-0.521908	-0.099392
H190	H	-0.182443	-0.474404	-0.179945
H191	H	-0.262364	-0.367505	-0.098587
H192	H	-0.243381	-0.308108	0.063328
H193	H	-0.144477	-0.355612	0.143880
C194	C	-0.000028	-0.409124	0.285260
C195	C	-0.052780	-0.423542	0.345429
C196	C	-0.052829	-0.378721	0.436210
C197	C	-0.000125	-0.319483	0.466822
C198	C	0.052631	-0.305063	0.406652
C199	C	0.052680	-0.349883	0.315871
H200	H	-0.091798	-0.467396	0.322769
H201	H	-0.091883	-0.389397	0.480752
H202	H	-0.000161	-0.286305	0.534023
H203	H	0.091649	-0.261208	0.429312
H204	H	0.091734	-0.339207	0.271330
