data_functionalizedCrystal
_audit_creation_method	'MofGen! by Chris Wilmer'
_symmetry_space_group_name_H-M	'P1'
_symmetry_Int_Tables_number	1
_symmetry_cell_setting	triclinic
loop_
_symmetry_equiv_pos_as_xyz
  x,y,z
_cell_length_a	10.654550
_cell_length_b	15.944551
_cell_length_c	9.130313
_cell_angle_alpha	89.997799
_cell_angle_beta	89.996220
_cell_angle_gamma	83.991820
loop_
_atom_site_label
_atom_site_type_symbol
_atom_site_fract_x
_atom_site_fract_y
_atom_site_fract_z
O1	O	1.666308	0.117973	-0.121923
O2	O	1.300684	0.129213	-0.121900
O3	O	1.493480	0.001376	-0.121899
O4	O	1.473511	0.245810	-0.121924
O5	O	1.493478	0.001379	0.121700
O6	O	1.300681	0.129216	0.121699
O7	O	1.666305	0.117976	0.121676
Cu8	Cu	1.483493	0.123596	0.143930
Cu9	Cu	1.483496	0.123592	-0.144154
O10	O	1.473509	0.245813	0.121675
C11	C	1.253895	0.128389	-0.000098
C12	C	1.114484	0.125920	-0.000088
C13	C	1.034024	0.201188	-0.000117
C14	C	0.903034	0.198863	-0.000142
C15	C	0.932975	0.045995	-0.000116
C16	C	1.063963	0.048321	-0.000080
C17	C	1.084545	0.278788	-0.000126
C18	C	1.004084	0.354062	-0.000156
C19	C	0.873094	0.351737	-0.000182
C20	C	0.822564	0.274137	-0.000176
C21	C	1.492650	-0.029921	-0.000099
C22	C	1.490165	-0.123182	-0.000098
C23	C	1.364720	-0.338765	-0.000111
C24	C	1.422971	-0.399443	0.119995
C25	C	1.485668	-0.293934	-0.000109
C26	C	1.423002	-0.399430	-0.120175
C27	C	1.481317	-0.458872	-0.000126
C28	C	1.543953	-0.353384	0.120095
C29	C	1.543967	-0.353364	-0.120182
C30	C	1.602306	-0.414024	-0.000048
C31	C	1.488172	-0.198917	-0.000098
C32	C	1.478822	-0.553887	-0.000127
C33	C	1.713094	0.118800	-0.000130
C34	C	1.852505	0.121269	-0.000149
C35	C	1.474339	0.277110	-0.000128
C36	C	1.476824	0.370371	-0.000139
N37	N	1.483500	0.123599	0.346552
N38	N	1.483499	0.123583	-0.346777
C39	C	1.568892	0.067012	0.423205
C40	C	1.568889	0.067002	0.576542
C41	C	1.398098	0.180173	0.576560
C42	C	1.398096	0.180178	0.423226
C43	C	1.654296	0.010433	0.346531
C44	C	1.739696	-0.046158	0.423184
C45	C	1.739693	-0.046168	0.576520
C46	C	1.654290	0.010412	0.653205
H47	H	0.807585	0.413029	-0.000192
H48	H	1.654309	0.010437	0.221677
H49	H	1.045235	0.417241	-0.000149
H50	H	1.371814	-0.419846	0.221540
H51	H	0.891822	-0.017184	-0.000135
O52	O	1.822558	-0.101068	0.348473
C53	C	1.804209	-0.088957	0.196698
H54	H	1.757335	-0.022453	0.175746
H55	H	1.741165	-0.136866	0.153228
C56	C	1.990221	-0.182530	0.143665
C57	C	1.932658	-0.100845	0.117931
H58	H	2.069453	-0.189867	0.095075
H59	H	2.002581	-0.190692	0.245918
H60	H	1.937671	-0.222444	0.107440
H61	H	1.985201	-0.060933	0.154172
H62	H	1.920310	-0.092677	0.015681
O63	O	1.605116	-0.329103	-0.241284
C64	C	1.729653	-0.368952	-0.242317
H65	H	1.734772	-0.428688	-0.173021
H66	H	1.796172	-0.324324	-0.195155
C67	C	1.762632	-0.318701	-0.485874
C68	C	1.768916	-0.392075	-0.400773
H69	H	1.786855	-0.332961	-0.583616
H70	H	1.678731	-0.291852	-0.485177
H71	H	1.818065	-0.281518	-0.446555
H72	H	1.713473	-0.429251	-0.440082
H73	H	1.852810	-0.418931	-0.401481
H74	H	1.129476	-0.012970	-0.000060
H75	H	1.809220	-0.092252	0.638929
O76	O	1.315098	0.235020	0.651210
C77	C	1.237611	0.189549	0.739885
H78	H	1.287627	0.124130	0.762844
H79	H	1.144799	0.183268	0.680805
C80	C	1.149351	0.317082	0.857346
C81	C	1.210786	0.236736	0.885555
H82	H	1.132798	0.346191	0.947200
H83	H	1.201551	0.347718	0.797601
H84	H	1.072014	0.311837	0.808109
H85	H	1.288128	0.241983	0.934775
H86	H	1.158597	0.206102	0.945312
O87	O	1.315105	0.235230	0.348983
C88	C	1.239713	0.285158	0.449534
H89	H	1.291195	0.286427	0.558834
H90	H	1.146428	0.257303	0.465845
C91	C	1.150599	0.374054	0.255444
C92	C	1.213834	0.375619	0.389685
H93	H	1.134630	0.429854	0.218526
H94	H	1.201388	0.340415	0.187700
H95	H	1.072869	0.350837	0.269055
H96	H	1.291570	0.398825	0.376069
H97	H	1.163057	0.409264	0.457426
O98	O	1.361788	-0.423635	-0.241268
C99	C	1.236570	-0.384965	-0.240780
H100	H	1.230550	-0.325600	-0.170463
H101	H	1.171437	-0.430593	-0.193899
C102	C	1.203298	-0.434192	-0.484924
C103	C	1.195907	-0.361276	-0.398570
H104	H	1.178212	-0.419583	-0.582255
H105	H	1.287659	-0.460248	-0.485252
H106	H	1.149021	-0.472209	-0.445839
H107	H	1.250195	-0.323266	-0.437643
H108	H	1.111554	-0.335213	-0.398252
H109	H	0.715901	0.272250	-0.000174
H110	H	1.264327	-0.306038	0.000016
H111	H	1.595065	-0.333096	0.221746
H112	H	1.702787	-0.446602	0.000014
H113	H	1.654286	0.010394	0.778062
H114	H	1.191203	0.280689	-0.000112
