data_functionalizedCrystal
_audit_creation_method	'MofGen! by Chris Wilmer'
_symmetry_space_group_name_H-M	'P1'
_symmetry_Int_Tables_number	1
_symmetry_cell_setting	triclinic
loop_
_symmetry_equiv_pos_as_xyz
  x,y,z
_cell_length_a	12.759400
_cell_length_b	12.645331
_cell_length_c	12.759393
_cell_angle_alpha	89.977064
_cell_angle_beta	89.970195
_cell_angle_gamma	90.013624
loop_
_atom_site_label
_atom_site_type_symbol
_atom_site_fract_x
_atom_site_fract_y
_atom_site_fract_z
Zn1	Zn	-0.418244	1.620756	-0.594081
Zn2	Zn	-0.593960	1.620647	-0.418403
Zn3	Zn	-0.418292	1.443470	-0.418410
Zn4	Zn	-0.593878	1.443462	-0.594034
O5	O	-0.506094	1.532084	-0.506232
O6	O	-0.441567	1.769089	-0.570794
O7	O	-0.570711	1.597101	-0.271383
O8	O	-0.271265	1.467037	-0.441736
O9	O	-0.570664	1.769009	-0.441724
O10	O	-0.271229	1.597288	-0.570800
O11	O	-0.441649	1.466930	-0.271388
O12	O	-0.441570	1.295122	-0.441690
O13	O	-0.570526	1.467023	-0.741062
O14	O	-0.570573	1.295116	-0.570721
O15	O	-0.441488	1.597281	-0.741096
O16	O	-0.740970	1.597094	-0.441679
O17	O	-0.740910	1.466917	-0.570714
C18	C	-0.506069	1.256654	-0.506202
C19	C	-0.506083	1.138824	-0.506214
C20	C	-0.424554	0.971228	-0.425489
C21	C	-0.424765	1.093788	-0.425133
C22	C	-0.616761	1.094310	-0.475970
C23	C	-0.616316	0.971711	-0.475419
C24	C	-0.477988	0.971674	-0.617494
C25	C	-0.475515	1.094279	-0.616876
C26	C	-0.779061	1.532021	-0.506214
C27	C	-0.895838	1.532091	-0.506241
C28	C	-0.950591	1.599884	-0.573502
C29	C	-1.060315	1.599943	-0.573530
C30	C	-1.060522	1.464415	-0.439028
C31	C	-0.950800	1.464351	-0.439005
C32	C	-0.232060	1.532176	-0.506274
C33	C	-0.115284	1.532215	-0.506292
C34	C	-0.505993	1.532163	-0.780266
C35	C	-0.505950	1.532197	-0.897042
C36	C	-0.506119	1.808589	-0.506263
C37	C	-0.506130	1.926419	-0.506277
C38	C	-0.438749	1.600027	-0.951924
C39	C	-0.438704	1.600045	-1.061648
C40	C	-0.573069	1.464400	-1.061600
C41	C	-0.573108	1.464377	-0.951877
C42	C	-0.506118	1.532066	-0.233265
C43	C	-0.505865	1.532237	-0.116489
H44	H	-0.640181	0.943066	-0.394114
H45	H	-0.530596	1.124940	-0.680289
N46	N	-0.891739	1.391235	-0.366446
H47	H	-0.813891	1.401473	-0.376638
H48	H	-0.910965	1.315526	-0.382732
H49	H	-0.627749	1.409186	-1.106260
N50	N	-0.366232	1.673206	-1.120852
H51	H	-0.317522	1.630149	-1.166371
H52	H	-0.323764	1.716152	-1.069402
N53	N	-0.645571	1.391193	-0.892674
H54	H	-0.688109	1.348233	-0.944059
H55	H	-0.694217	1.434300	-0.847138
H56	H	-0.537404	0.942698	-0.677689
N57	N	-0.366317	1.673170	-0.892778
H58	H	-0.323738	1.716141	-0.944199
H59	H	-0.317708	1.630027	-0.847252
H60	H	-0.342236	0.941760	-0.444242
N61	N	-0.891308	1.672940	-0.646019
H62	H	-0.942648	1.715893	-0.688634
H63	H	-0.845782	1.629736	-0.694590
H64	H	-0.342694	1.123885	-0.444089
H65	H	-1.104891	1.655144	-0.628304
H66	H	-0.679154	0.942070	-0.531696
H67	H	-0.442950	0.940381	-0.343556
H68	H	-0.679166	1.123483	-0.532966
N69	N	-0.449397	1.132584	-0.315964
H70	H	-0.460168	1.070044	-0.267887
H71	H	-0.515284	1.176794	-0.317696
N72	N	-0.648931	1.134897	-0.369426
H73	H	-0.652019	1.214693	-0.370893
H74	H	-0.596051	1.111307	-0.315389
N75	N	-0.372953	0.930743	-0.653938
H76	H	-0.342547	0.882442	-0.598715
H77	H	-0.323896	0.992245	-0.666031
H78	H	-1.105286	1.409265	-0.384285
N79	N	-0.367626	1.132807	-0.647089
H80	H	-0.338663	1.178927	-0.589343
H81	H	-0.372262	1.175077	-0.714102
