data_functionalizedCrystal
_audit_creation_method	'MofGen! by Chris Wilmer'
_symmetry_space_group_name_H-M	'P1'
_symmetry_Int_Tables_number	1
_symmetry_cell_setting	triclinic
loop_
_symmetry_equiv_pos_as_xyz
  x,y,z
_cell_length_a	12.759400
_cell_length_b	12.759401
_cell_length_c	21.395355
_cell_angle_alpha	89.975178
_cell_angle_beta	90.013162
_cell_angle_gamma	89.989463
loop_
_atom_site_label
_atom_site_type_symbol
_atom_site_fract_x
_atom_site_fract_y
_atom_site_fract_z
Zn1	Zn	-0.418503	-1.606285	0.354289
Zn2	Zn	-0.594168	-1.606171	0.249522
Zn3	Zn	-0.418491	-1.430579	0.249525
Zn4	Zn	-0.594128	-1.430576	0.354261
O5	O	-0.506322	-1.518403	0.301899
O6	O	-0.441827	-1.753291	0.340402
O7	O	-0.570875	-1.582832	0.161844
O8	O	-0.271471	-1.453935	0.263436
O9	O	-0.570887	-1.753207	0.263429
O10	O	-0.271480	-1.583026	0.340405
O11	O	-0.441806	-1.453825	0.161847
O12	O	-0.441768	-1.283557	0.263409
O13	O	-0.570820	-1.453931	0.441943
O14	O	-0.570808	-1.283556	0.340358
O15	O	-0.441789	-1.583024	0.441963
O16	O	-0.741183	-1.582829	0.263402
O17	O	-0.741154	-1.453820	0.340354
C18	C	-0.506283	-1.245435	0.301881
C19	C	-0.506291	-1.128659	0.301888
C20	C	-0.439009	-1.073767	0.261893
C21	C	-0.439027	-0.964043	0.261898
C22	C	-0.573613	-0.964112	0.341900
C23	C	-0.573599	-1.073834	0.341891
C24	C	-0.401323	-0.814024	0.188057
C25	C	-0.334025	-0.759128	0.148067
C26	C	-0.231482	-0.794736	0.138550
C27	C	-0.196217	-0.885237	0.169032
C28	C	-0.263510	-0.940127	0.209026
C29	C	-0.366067	-0.904521	0.218531
C30	C	-0.611292	-1.223855	0.415733
C31	C	-0.678580	-1.278747	0.455731
C32	C	-0.781125	-1.243142	0.465255
C33	C	-0.816386	-1.152637	0.434784
C34	C	-0.749098	-1.097745	0.394786
C35	C	-0.646554	-1.133358	0.385261
C36	C	-0.779290	-1.518341	0.301888
C37	C	-0.896066	-1.518410	0.301904
C38	C	-0.950843	-1.585599	0.342017
C39	C	-1.060567	-1.585658	0.342034
C40	C	-1.060728	-1.451337	0.261821
C41	C	-0.951006	-1.451273	0.261808
C42	C	-1.210435	-1.623223	0.415965
C43	C	-1.265216	-1.690428	0.456072
C44	C	-1.229520	-1.792914	0.465743
C45	C	-1.139045	-1.828216	0.435298
C46	C	-1.084270	-1.761017	0.395186
C47	C	-1.119964	-1.658516	0.385527
C48	C	-0.801136	-1.413719	0.187875
C49	C	-0.746359	-1.346524	0.147761
C50	C	-0.782053	-1.244036	0.138083
C51	C	-0.872531	-1.208738	0.168517
C52	C	-0.927308	-1.275933	0.208632
C53	C	-0.891607	-1.378419	0.218310
C54	C	-0.232289	-1.518494	0.301924
C55	C	-0.115512	-1.518533	0.301935
C56	C	-0.506301	-1.518490	0.465323
C57	C	-0.506292	-1.518527	0.534964
C58	C	-0.506349	-0.792436	0.301912
C59	C	-0.506323	-0.909213	0.301903
C60	C	-0.506268	-1.518376	0.139112
C61	C	-0.505981	-1.518543	0.069471
C62	C	-0.439103	-1.585743	0.567689
C63	C	-0.439058	-1.585742	0.633124
C64	C	-0.506220	-1.518535	0.665832
C65	C	-0.573414	-1.451307	0.633100
C66	C	-0.573450	-1.451303	0.567665
C67	C	-0.600819	-1.510218	0.769503
C68	C	-0.600785	-1.510230	0.834936
C69	C	-0.506109	-1.518542	0.867653
C70	C	-0.411465	-1.526865	0.834929
C71	C	-0.411501	-1.526861	0.769495
C72	C	-0.506189	-1.518532	0.736785
C73	C	-0.438866	-1.585760	0.971331
C74	C	-0.438819	-1.585751	1.036767
C75	C	-0.573185	-1.451321	1.036741
C76	C	-0.573222	-1.451325	0.971306
C77	C	-0.506064	-1.518549	0.938605
H78	H	-0.835905	-1.287836	0.497833
H79	H	-0.777815	-1.024048	0.369977
F80	F	-0.645248	-0.905755	0.384468
F81	F	-0.641051	-1.375076	0.488158
F82	F	-0.159859	-0.736306	0.095991
H83	H	-1.109995	-1.911675	0.443170
H84	H	-0.899884	-1.123641	0.442543
H85	H	-0.527794	-1.252860	0.407977
H86	H	-0.737444	-1.189328	0.105416
F87	F	-0.371559	-0.662812	0.115628
F88	F	-0.650070	-1.384099	0.115364
F89	F	-1.023602	-1.238361	0.241025
F90	F	-0.892376	-1.657049	0.384693
H91	H	-0.384176	-1.640492	0.944704
F92	F	-0.367622	-1.657286	0.532889
H93	H	-0.384338	-1.640474	0.659774
H94	H	-0.334372	-1.533635	0.861566
H95	H	-0.772055	-1.497168	0.195760
F96	F	-0.987987	-1.798582	0.362785
H97	H	-0.628162	-1.396563	0.541021
F98	F	-1.287826	-1.864437	0.508426
F99	F	-0.510439	-0.776079	0.198217
H100	H	-0.628095	-1.396584	0.659735
F101	F	-1.248422	-1.514139	0.405685
F102	F	-0.310777	-1.535713	0.734670
H103	H	-0.384099	-1.640484	1.063411
F104	F	-1.119208	-1.379888	0.219150
F105	F	-0.910528	-1.099661	0.158214
H106	H	-0.384200	-1.118402	0.229321
H107	H	-0.627859	-1.396590	1.063372
F108	F	-0.644739	-1.379787	0.936476
H109	H	-0.677850	-1.503459	0.861575
H110	H	-1.338880	-1.661675	0.480860
H111	H	-0.234794	-1.013806	0.233848
F112	F	-0.087069	-0.923117	0.158909
F113	F	-0.701594	-1.501395	0.734690
