data_functionalizedCrystal
_audit_creation_method	'MofGen! by Chris Wilmer'
_symmetry_space_group_name_H-M	'P1'
_symmetry_Int_Tables_number	1
_symmetry_cell_setting	triclinic
loop_
_symmetry_equiv_pos_as_xyz
  x,y,z
_cell_length_a	25.639242
_cell_length_b	16.994747
_cell_length_c	25.639233
_cell_angle_alpha	89.993240
_cell_angle_beta	90.022166
_cell_angle_gamma	90.006589
loop_
_atom_site_label
_atom_site_type_symbol
_atom_site_fract_x
_atom_site_fract_y
_atom_site_fract_z
Zn1	Zn	0.799326	-0.314218	0.295835
Zn2	Zn	0.799291	-0.446103	0.208438
Zn3	Zn	0.711902	-0.314207	0.208399
Zn4	Zn	0.711889	-0.446074	0.295828
O5	O	0.755602	-0.380150	0.252125
O6	O	0.872486	-0.331730	0.284261
O7	O	0.787690	-0.428614	0.135268
O8	O	0.723518	-0.203827	0.219984
O9	O	0.872461	-0.428625	0.220051
O10	O	0.787748	-0.203835	0.284223
O11	O	0.723485	-0.331710	0.135239
O12	O	0.638735	-0.331682	0.219977
O13	O	0.723497	-0.428575	0.368994
O14	O	0.638726	-0.428564	0.284211
O15	O	0.787736	-0.331702	0.368999
O16	O	0.787677	-0.556480	0.220044
O17	O	0.723463	-0.556459	0.284249
C18	C	0.619759	-0.380119	0.252090
C19	C	0.561645	-0.380125	0.252087
C20	C	0.755572	-0.585090	0.252149
C21	C	0.755575	-0.674412	0.252147
Zn22	Zn	0.711917	-0.945293	0.208384
Zn23	Zn	0.799349	-0.945283	0.295812
Zn24	Zn	0.711907	-0.813466	0.295819
Zn25	Zn	0.799301	-0.813358	0.208421
O26	O	0.755618	-0.879350	0.252109
O27	O	0.723539	-1.055673	0.219963
O28	O	0.787765	-0.927838	0.368978
O29	O	0.638743	-0.831003	0.284209
O30	O	0.787775	-1.055666	0.284196
O31	O	0.638750	-0.927855	0.219971
O32	O	0.723522	-0.830993	0.368984
O33	O	0.723476	-0.703071	0.284244
O34	O	0.787693	-0.830819	0.135251
O35	O	0.787683	-0.702991	0.220033
O36	O	0.723492	-0.927751	0.135224
O37	O	0.872508	-0.927734	0.284232
O38	O	0.872472	-0.830809	0.220026
C39	C	0.201286	-0.430681	0.285540
C40	C	0.146682	-0.430686	0.285548
O41	O	0.118449	-0.473632	0.313961
N42	N	0.119363	-0.380172	0.252159
C43	C	0.146651	-0.329644	0.218764
O44	O	0.118400	-0.286678	0.190365
C45	C	0.201254	-0.329636	0.218758
C46	C	0.228570	-0.380159	0.252146
C47	C	0.228603	-0.481199	0.318925
C48	C	0.283203	-0.481195	0.318916
C49	C	0.310487	-0.430673	0.285522
C50	C	0.283171	-0.380155	0.252137
C51	C	0.228541	-0.279105	0.185366
C52	C	0.283148	-0.279101	0.185364
C53	C	0.310464	-0.329624	0.218751
C54	C	0.365056	-0.329629	0.218733
N55	N	0.392375	-0.380143	0.252122
C56	C	0.365091	-0.430665	0.285517
C57	C	0.031980	-0.329664	0.218778
C58	C	-0.022622	-0.329676	0.218780
C59	C	-0.022587	-0.430717	0.285565
C60	C	0.032016	-0.430709	0.285560
C61	C	0.059299	-0.380178	0.252167
C62	C	0.479756	-0.430653	0.285495
C63	C	0.534361	-0.430647	0.285481
C64	C	0.534321	-0.329604	0.218698
C65	C	0.479721	-0.329612	0.218709
C66	C	0.452439	-0.380140	0.252112
O67	O	0.393324	-0.286702	0.190336
O68	O	0.393348	-0.473617	0.313916
C69	C	0.891975	-0.380182	0.252161
C70	C	0.950089	-0.380196	0.252176
C71	C	0.755619	-0.380137	0.388498
C72	C	0.755626	-0.380131	0.446612
C73	C	0.755635	-0.174410	0.252098
C74	C	0.755651	-0.085088	0.252087
C75	C	0.755615	-0.380107	0.116283
C76	C	0.755709	-0.379891	0.058169
C77	C	0.789118	-0.329539	0.806984
C78	C	0.789124	-0.329517	0.861588
O79	O	0.817558	-0.286595	0.889832
N80	N	0.755684	-0.379946	0.888895
C81	C	0.722231	-0.430394	0.861595
O82	O	0.693787	-0.473285	0.889835
C83	C	0.722222	-0.430411	0.806991
C84	C	0.755668	-0.379985	0.779687
C85	C	0.822561	-0.279115	0.779680
C86	C	0.822555	-0.279139	0.725079
C87	C	0.789106	-0.329585	0.697783
C88	C	0.755662	-0.380008	0.725087
C89	C	0.688767	-0.480855	0.779692
C90	C	0.688761	-0.480868	0.725085
C91	C	0.722207	-0.430441	0.697781
C92	C	0.722207	-0.430477	0.643190
N93	N	0.755648	-0.380048	0.615883
C94	C	0.789097	-0.329602	0.643179
C95	C	0.722251	-0.430353	0.976265
C96	C	0.722262	-0.430340	1.030868
C97	C	0.789155	-0.329462	1.030857
C98	C	0.789146	-0.329479	0.976254
C99	C	0.755691	-0.379924	0.948958
C100	C	0.789083	-0.329655	0.528514
C101	C	0.789075	-0.329684	0.473909
C102	C	0.722181	-0.430560	0.473924
C103	C	0.722190	-0.430533	0.528524
C104	C	0.755642	-0.380074	0.555818
O105	O	0.693787	-0.473375	0.614911
O106	O	0.817531	-0.286711	0.614932
C107	C	0.891461	-0.879261	0.252133
C108	C	0.949575	-0.879245	0.252159
C109	C	0.755588	-0.879274	0.115736
C110	C	0.755576	-0.879241	0.057622
C111	C	0.619245	-0.879442	0.252086
C112	C	0.561131	-0.879481	0.252077
C113	C	0.755611	-0.879471	0.387952
C114	C	0.755477	-0.879654	0.446065
C115	C	0.976869	-0.929749	0.285572
C116	C	1.031473	-0.929750	0.285597
C117	C	1.058783	-0.879243	0.252210
C118	C	1.031485	-0.828737	0.218793
C119	C	0.976881	-0.828741	0.218766
C120	C	0.722140	-0.929694	0.030314
C121	C	0.722118	-0.929663	-0.024290
C122	C	0.755534	-0.879184	-0.051586
C123	C	0.788971	-0.828726	-0.024274
C124	C	0.788991	-0.828753	0.030330
C125	C	0.533834	-0.829068	0.285518
C126	C	0.479229	-0.829089	0.285509
C127	C	0.451924	-0.879529	0.252061
C128	C	0.479225	-0.929944	0.218616
C129	C	0.533828	-0.929919	0.218623
C130	C	0.722207	-0.828952	0.473337
C131	C	0.722071	-0.829124	0.527941
C132	C	0.755210	-0.879994	0.555273
C133	C	0.788482	-0.930701	0.527998
C134	C	0.788615	-0.930533	0.473394
H135	H	0.556600	-0.471792	0.312670
O136	O	0.689985	-0.779647	0.446735
C137	C	0.619564	-0.768131	0.384937
C138	C	0.656035	-0.824056	0.415017
H139	H	0.592099	-0.804014	0.359295
H140	H	0.643783	-0.727059	0.359457
H141	H	0.595786	-0.731913	0.413824
H142	H	0.679820	-0.860325	0.386167
H143	H	0.631787	-0.865075	0.440505
H144	H	0.849800	-0.238032	0.801899
O145	O	0.656251	-0.529956	0.698652
C146	C	0.589890	-0.629990	0.704430
C147	C	0.626683	-0.574445	0.734428
H148	H	0.565967	-0.665963	0.733342
H149	H	0.613864	-0.671304	0.678902
H150	H	0.562575	-0.593779	0.678831
H151	H	0.654006	-0.610594	0.760056
H152	H	0.602677	-0.533130	0.759923
O153	O	0.755178	-0.880143	0.608314
C154	C	0.805196	-0.860558	0.686836
C155	C	0.805309	-0.860389	0.626767
H156	H	0.845720	-0.844573	0.701773
H157	H	0.794066	-0.921573	0.701590
H158	H	0.775703	-0.815598	0.701614
H159	H	0.834803	-0.905311	0.611945
H160	H	0.816416	-0.799346	0.612048
H161	H	0.694978	-0.787829	0.550140
O162	O	0.453203	-0.479776	0.317868
C163	C	0.391591	-0.586342	0.324818
C164	C	0.421619	-0.530743	0.288100
H165	H	0.366056	-0.627574	0.300765
H166	H	0.366008	-0.550243	0.352191
H167	H	0.420513	-0.622406	0.348685
H168	H	0.392734	-0.494667	0.264200
H169	H	0.447210	-0.566887	0.260763
H170	H	0.816221	-0.787670	0.052560
H171	H	0.816390	-0.288384	1.053092
O172	O	1.057936	-0.779653	0.186312
C173	C	1.052200	-0.679426	0.120072
C174	C	1.022178	-0.734987	0.156819
H175	H	1.023303	-0.643287	0.096225
H176	H	1.077752	-0.715555	0.092688
H177	H	1.077778	-0.638262	0.144131
H178	H	0.996572	-0.776162	0.132802
H179	H	0.996660	-0.698809	0.184205
O180	O	0.950428	-0.978887	0.318025
C181	C	0.956197	-1.079043	0.384310
C182	C	0.986201	-1.023443	0.347574
H183	H	0.985106	-1.115070	0.408217
H184	H	0.930647	-1.120303	0.360292
H185	H	0.930619	-1.042870	0.411643
H186	H	1.011806	-1.059553	0.320233
H187	H	1.011718	-0.982181	0.371623
O188	O	0.820747	-0.980071	0.554495
C189	C	0.909468	-1.019270	0.571439
C190	C	0.872986	-0.963329	0.541387
H191	H	0.951711	-1.005743	0.560861
H192	H	0.900071	-1.082763	0.560594
H193	H	0.903628	-1.010681	0.615146
H194	H	0.878806	-0.971847	0.497674
H195	H	0.882392	-0.899856	0.552276
H196	H	0.305439	-0.522335	0.346105
H197	H	1.053692	-0.970877	0.312811
H198	H	0.206394	-0.522341	0.346122
O199	O	0.950353	-0.779792	0.186245
C200	C	0.888711	-0.769056	0.115634
C201	C	0.918723	-0.824577	0.152432
H202	H	0.863122	-0.805241	0.088294
H203	H	0.917596	-0.732983	0.091743
H204	H	0.863167	-0.727828	0.139655
H205	H	0.944267	-0.865853	0.128452
H206	H	0.889810	-0.860594	0.176325
O207	O	0.689701	-0.479257	0.949730
C208	C	0.619115	-0.489900	0.888052
C209	C	0.655936	-0.434428	0.918075
H210	H	0.591814	-0.453679	0.862443
H211	H	0.595182	-0.525922	0.916930
H212	H	0.643119	-0.531177	0.862528
H213	H	0.631972	-0.393103	0.943599
H214	H	0.679871	-0.398461	0.889168
H215	H	-0.044858	-0.288543	0.191587
O216	O	0.820914	-0.979891	0.446964
C217	C	0.845711	-1.114270	0.430140
C218	C	0.809104	-1.058458	0.460111
H219	H	0.836168	-1.177805	0.440750
H220	H	0.887912	-1.100942	0.441028
H221	H	0.840128	-1.105378	0.386421
H222	H	0.814640	-1.067319	0.503837
H223	H	0.766917	-1.071801	0.449179
O224	O	0.560262	-0.978975	0.186124
C225	C	0.554479	-1.078989	0.119761
C226	C	0.524483	-1.023483	0.156550
H227	H	0.525566	-1.114977	0.095833
H228	H	0.580038	-1.120290	0.143738
H229	H	0.580048	-1.042746	0.092450
H230	H	0.498886	-1.059663	0.183869
H231	H	0.498958	-0.982180	0.132540
O232	O	0.656352	-0.529930	0.806226
C233	C	0.649294	-0.636397	0.867901
C234	C	0.686065	-0.580873	0.837878
H235	H	0.673303	-0.677587	0.893507
H236	H	0.625401	-0.672502	0.839022
H237	H	0.621949	-0.600162	0.893427
H238	H	0.713442	-0.617047	0.812351
H239	H	0.709922	-0.544765	0.866785
O240	O	0.452739	-0.780203	0.318077
C241	C	0.436085	-0.741958	0.407022
C242	C	0.466106	-0.797380	0.370198
H243	H	0.446890	-0.755815	0.449169
H244	H	0.392362	-0.750633	0.401321
H245	H	0.446808	-0.678348	0.397831
H246	H	0.455427	-0.861011	0.379366
H247	H	0.509822	-0.788637	0.375906
H248	H	1.103244	-0.879248	0.252237
H249	H	0.054253	-0.471848	0.312748
H250	H	-0.044812	-0.471852	0.312759
H251	H	0.556059	-0.787991	0.312755
O252	O	0.821629	-0.280617	0.554941
C253	C	0.887959	-0.180538	0.549154
C254	C	0.851134	-0.236040	0.519160
H255	H	0.911816	-0.144471	0.520238
H256	H	0.915332	-0.216709	0.574719
H257	H	0.863962	-0.139305	0.574715
H258	H	0.875089	-0.277284	0.493571
H259	H	0.823760	-0.199819	0.493628
H260	H	0.816313	-0.288620	0.451680
H261	H	0.694888	-0.970753	-0.046520
O262	O	0.058400	-0.280560	0.186281
C263	C	0.052591	-0.180317	0.120058
C264	C	0.022610	-0.235899	0.156824
H265	H	0.023668	-0.144183	0.096240
H266	H	0.078125	-0.216429	0.092647
H267	H	0.078183	-0.139150	0.144100
H268	H	-0.003010	-0.277077	0.132824
H269	H	-0.002891	-0.199738	0.184236
H270	H	0.694927	-0.970803	0.052531
O271	O	0.755472	-0.879300	-0.104627
C272	C	0.718752	-0.934654	-0.182987
C273	C	0.718775	-0.934602	-0.122919
H274	H	0.689078	-0.979349	-0.197794
H275	H	0.759227	-0.951042	-0.197830
H276	H	0.707910	-0.873558	-0.197808
H277	H	0.729595	-0.995680	-0.108054
H278	H	0.678296	-0.918169	-0.108111
O279	O	0.821419	-0.779775	-0.050873
C280	C	0.851001	-0.735005	-0.134993
C281	C	0.814232	-0.790485	-0.104932
H282	H	0.845196	-0.743633	-0.178705
H283	H	0.893177	-0.748848	-0.124295
H284	H	0.841826	-0.671415	-0.124226
H285	H	0.823360	-0.854095	-0.115683
H286	H	0.772068	-0.776575	-0.115632
H287	H	0.407462	-0.879539	0.252058
H288	H	0.456984	-0.971010	0.191383
O289	O	0.453130	-0.280488	0.186352
C290	C	0.391529	-0.173917	0.179446
C291	C	0.421592	-0.229529	0.216142
H292	H	0.366032	-0.132691	0.203517
H293	H	0.365905	-0.210005	0.152081
H294	H	0.420428	-0.137847	0.155571
H295	H	0.392731	-0.265611	0.240051
H296	H	0.447224	-0.193395	0.243472
O297	O	0.202096	-0.229948	0.152919
C298	C	0.207848	-0.129746	0.086666
C299	C	0.237861	-0.185369	0.123395
H300	H	0.236751	-0.093702	0.062779
H301	H	0.182314	-0.088503	0.110688
H302	H	0.182253	-0.165901	0.059314
H303	H	0.263484	-0.149278	0.150755
H304	H	0.263361	-0.226614	0.099341
H305	H	0.556546	-0.288472	0.191507
O306	O	0.309709	-0.230127	0.152897
C307	C	0.371293	-0.219350	0.082284
C308	C	0.341256	-0.274897	0.119028
H309	H	0.396797	-0.255525	0.054884
H310	H	0.396907	-0.178169	0.106292
H311	H	0.342377	-0.183227	0.058448
H312	H	0.370134	-0.311071	0.142871
H313	H	0.315634	-0.316025	0.094989
O314	O	0.854985	-0.230025	0.698590
C315	C	0.880393	-0.095848	0.681919
C316	C	0.843626	-0.151390	0.711932
H317	H	0.871230	-0.032261	0.692704
H318	H	0.874651	-0.104436	0.638194
H319	H	0.922547	-0.109740	0.692668
H320	H	0.801458	-0.137533	0.701227
H321	H	0.849413	-0.142792	0.755650
O322	O	0.821577	-0.280376	0.949758
C323	C	0.846998	-0.146210	0.933067
C324	C	0.810230	-0.201734	0.963092
H325	H	0.837845	-0.082617	0.943845
H326	H	0.841249	-0.154808	0.889344
H327	H	0.889153	-0.160110	0.943811
H328	H	0.768061	-0.187868	0.952392
H329	H	0.816024	-0.193125	1.006808
O330	O	0.689727	-0.479356	1.057307
C331	C	0.623400	-0.579449	1.051539
C332	C	0.660214	-0.523968	1.021535
H333	H	0.599538	-0.615543	1.022630
H334	H	0.596033	-0.543260	1.077071
H335	H	0.647407	-0.620658	1.077134
H336	H	0.636250	-0.482748	0.995911
H337	H	0.687583	-0.560206	0.996035
H338	H	0.694960	-0.471602	0.550757
H339	H	0.694949	-0.471634	0.451689
