data_functionalizedCrystal
_audit_creation_method	'MofGen! by Chris Wilmer'
_symmetry_space_group_name_H-M	'P1'
_symmetry_Int_Tables_number	1
_symmetry_cell_setting	triclinic
loop_
_symmetry_equiv_pos_as_xyz
  x,y,z
_cell_length_a	28.938199
_cell_length_b	28.937346
_cell_length_c	28.934044
_cell_angle_alpha	60.005004
_cell_angle_beta	60.009897
_cell_angle_gamma	59.994060
loop_
_atom_site_label
_atom_site_type_symbol
_atom_site_fract_x
_atom_site_fract_y
_atom_site_fract_z
O1	O	0.064043	-0.675186	0.564597
O2	O	0.564043	-0.175186	1.064597
O3	O	0.024124	-0.525682	0.454913
O4	O	0.524124	-0.025682	0.954913
O5	O	0.118795	-0.620275	0.454833
O6	O	0.618795	-0.120275	0.954833
O7	O	-0.030629	-0.580593	0.564678
O8	O	0.469371	-0.080593	1.064678
O9	O	0.150204	-0.588870	0.486157
O10	O	0.650204	-0.088870	0.986157
O11	O	0.055533	-0.494276	0.486238
O12	O	0.555533	0.005724	0.986238
O13	O	0.095452	-0.643780	0.595921
O14	O	0.595452	-0.143780	1.095921
Cu15	Cu	0.078360	-0.566161	0.543940
Cu16	Cu	0.578360	-0.066161	1.043940
Cu17	Cu	0.041215	-0.603301	0.506895
Cu18	Cu	0.541215	-0.103301	1.006895
O19	O	0.000780	-0.549187	0.596002
O20	O	0.500780	-0.049187	1.096002
N21	N	0.104487	-0.540042	0.569998
N22	N	0.604487	-0.040042	1.069998
N23	N	0.015094	-0.629425	0.480837
N24	N	0.515094	-0.129425	0.980837
C25	C	0.165467	-0.323909	0.630915
C26	C	0.665467	0.176091	1.130915
C27	C	0.165587	-0.479117	0.786068
C28	C	0.665587	0.020883	1.286068
C29	C	0.165481	-0.479095	0.630906
C30	C	0.665481	0.020905	1.130906
C31	C	0.320696	-0.479083	0.630835
C32	C	0.820696	0.020917	1.130835
C33	C	0.182557	-0.375118	0.647971
C34	C	0.682557	0.124882	1.147971
C35	C	0.182626	-0.462038	0.734858
C36	C	0.682626	0.037962	1.234858
C37	C	0.269485	-0.462018	0.647928
C38	C	0.769485	0.037982	1.147928
C39	C	0.182566	-0.462025	0.647966
C40	C	0.682566	0.037975	1.147966
C41	C	0.143714	-0.258726	0.609206
C42	C	0.643714	0.241274	1.109206
C43	C	0.143738	-0.500820	0.609192
C44	C	0.643738	-0.000820	1.109192
C45	C	0.204309	-0.440300	0.669680
C46	C	0.704309	0.059700	1.169680
C47	C	0.415481	-0.462740	0.580919
C48	C	0.915481	0.037260	1.080919
C49	C	0.474732	-0.482485	0.561145
C50	C	0.974732	0.017515	1.061145
C51	C	0.474757	-0.578356	0.597704
C52	C	0.974757	-0.078356	1.097704
C53	C	0.415508	-0.558609	0.617479
C54	C	0.915508	-0.058609	1.117479
C55	C	0.157989	-0.229089	0.550957
C56	C	0.657989	0.270911	1.050957
C57	C	0.138212	-0.169834	0.531225
C58	C	0.638212	0.330166	1.031225
C59	C	0.089890	-0.169857	0.627992
C60	C	0.589890	0.330143	1.127992
C61	C	0.109667	-0.229112	0.647725
C62	C	0.609667	0.270888	1.147725
C63	C	0.085482	-0.486515	0.623535
C64	C	0.585482	0.013485	1.123535
C65	C	0.065722	-0.506265	0.603789
C66	C	0.565722	-0.006265	1.103789
C67	C	0.162467	-0.554625	0.555370
C68	C	0.662467	-0.054625	1.055370
C69	C	0.182230	-0.534875	0.575110
C70	C	0.682230	-0.034875	1.075110
C71	C	0.085661	-0.486557	0.880902
C72	C	0.585661	0.013443	1.380902
C73	C	0.065952	-0.506323	0.940155
C74	C	0.565952	-0.006323	1.440155
C75	C	0.162734	-0.554693	0.940102
C76	C	0.662734	-0.054693	1.440102
C77	C	0.182441	-0.534928	0.880847
C78	C	0.682441	-0.034928	1.380847
C79	C	0.143904	-0.500859	0.851249
C80	C	0.643904	-0.000859	1.351249
C81	C	0.385871	-0.500801	0.609083
C82	C	0.885871	-0.000801	1.109083
C83	C	-0.110907	-0.668480	0.441278
C84	C	0.389093	-0.168480	0.941278
C85	C	-0.024049	-0.668588	0.441475
C86	C	0.475951	-0.168588	0.941475
C87	C	-0.045729	-0.690282	0.419668
C88	C	0.454271	-0.190282	0.919668
C89	C	-0.062146	-0.785032	0.469507
C90	C	0.437854	-0.285032	0.969507
C91	C	-0.042446	-0.844287	0.489286
C92	C	0.457554	-0.344287	0.989286
C93	C	0.053426	-0.844399	0.452899
C94	C	0.553426	-0.344399	0.952899
C95	C	0.033725	-0.785144	0.433120
C96	C	0.533725	-0.285144	0.933120
C97	C	-0.140617	-0.682751	0.499509
C98	C	0.359383	-0.182751	0.999509
C99	C	-0.199867	-0.662928	0.519152
C100	C	0.300133	-0.162928	1.019152
C101	C	-0.199694	-0.614571	0.422330
C102	C	0.300306	-0.114571	0.922330
C103	C	-0.140443	-0.634393	0.402687
C104	C	0.359557	-0.134393	0.902687
C105	C	-0.038320	-0.610337	0.427144
C106	C	0.461680	-0.110337	0.927144
C107	C	-0.018610	-0.590621	0.446974
C108	C	0.481390	-0.090621	0.946974
C109	C	0.029642	-0.687402	0.495454
C110	C	0.529642	-0.187402	0.995454
C111	C	0.009933	-0.707121	0.475630
C112	C	0.509933	-0.207121	0.975630
C113	C	-0.038148	-0.610347	0.324832
C114	C	0.461852	-0.110347	0.824832
C115	C	-0.018301	-0.590634	0.265579
C116	C	0.481699	-0.090634	0.765579
C117	C	0.030035	-0.687421	0.265643
C118	C	0.530035	-0.187421	0.765643
C119	C	0.010190	-0.707133	0.324897
C120	C	0.510190	-0.207133	0.824897
C121	C	-0.023903	-0.668595	0.354491
C122	C	0.476097	-0.168595	0.854491
C123	C	-0.024062	-0.755463	0.441426
C124	C	0.475938	-0.255463	0.941426
N125	N	0.503527	-0.540005	0.569810
N126	N	1.003527	-0.040005	1.069810
O127	O	0.684453	-0.545211	0.434650
O128	O	1.184453	-0.045211	0.934650
O129	O	0.684643	-0.655237	0.584005
O130	O	1.184643	-0.155237	1.084005
O131	O	0.684567	-0.654986	0.489282
O132	O	1.184567	-0.154986	0.989282
O133	O	0.684529	-0.545462	0.529373
O134	O	1.184529	-0.045462	1.029373
O135	O	0.590438	-0.623674	0.520735
O136	O	1.090438	-0.123674	1.020735
O137	O	0.590513	-0.623924	0.615457
O138	O	1.090513	-0.123924	1.115457
O139	O	0.590323	-0.513899	0.466102
O140	O	1.090323	-0.013899	0.966102
Cu141	Cu	0.581823	-0.566053	0.543652
Cu142	Cu	1.081823	-0.066053	1.043652
Cu143	Cu	0.693143	-0.603083	0.506456
Cu144	Cu	1.193143	-0.103083	1.006456
O145	O	0.590399	-0.514149	0.560825
O146	O	1.090399	-0.014149	1.060825
N147	N	0.771439	-0.629131	0.480292
N148	N	1.271439	-0.129131	0.980292
N149	N	0.104456	-0.141061	0.570015
N150	N	0.604456	0.358939	1.070015
O151	O	-0.030629	0.039964	0.564688
O152	O	0.469371	0.539964	1.064688
O153	O	0.118732	0.039984	0.454661
O154	O	0.618732	0.539984	0.954661
O155	O	0.023980	0.039958	0.454946
O156	O	0.523980	0.539958	0.954946
O157	O	0.064123	0.039990	0.564403
O158	O	0.564123	0.539990	1.064403
O159	O	0.055392	-0.054179	0.486321
O160	O	0.555392	0.445821	0.986321
O161	O	0.150144	-0.054153	0.486036
O162	O	0.650144	0.445847	0.986036
O163	O	0.000784	-0.054173	0.596063
O164	O	0.500784	0.445827	1.096063
Cu165	Cu	0.078332	-0.062759	0.543914
Cu166	Cu	0.578332	0.437241	1.043914
Cu167	Cu	0.041183	0.048570	0.506810
Cu168	Cu	0.541183	0.548570	1.006810
O169	O	0.095535	-0.054147	0.595778
O170	O	0.595535	0.445853	1.095778
N171	N	0.015053	0.126872	0.480710
N172	N	0.515053	0.626872	0.980710
N173	N	0.104760	-0.540096	0.968910
N174	N	0.604760	-0.040096	1.468910
O175	O	0.099447	-0.675167	1.149923
O176	O	0.599447	-0.175167	1.649923
O177	O	-0.010552	-0.525757	1.149951
O178	O	0.489448	-0.025757	1.649951
O179	O	-0.010297	-0.620493	1.149918
O180	O	0.489703	-0.120493	1.649918
O181	O	0.099192	-0.580431	1.149956
O182	O	0.599192	-0.080431	1.649956
O183	O	0.021064	-0.589100	1.055785
O184	O	0.521064	-0.089100	1.555785
O185	O	0.020809	-0.494365	1.055818
O186	O	0.520809	0.005635	1.555818
O187	O	0.130808	-0.643774	1.055790
O188	O	0.630808	-0.143774	1.555790
Cu189	Cu	0.078672	-0.566203	1.047209
Cu190	Cu	0.578672	-0.066203	1.547209
Cu191	Cu	0.041584	-0.603328	1.158532
Cu192	Cu	0.541584	-0.103328	1.658532
O193	O	0.130553	-0.549038	1.055823
O194	O	0.630553	-0.049038	1.555823
N195	N	0.015495	-0.629442	1.236831
N196	N	0.515495	-0.129442	1.736831
C197	C	0.036087	-0.491140	0.455465
C198	C	0.536087	0.008860	0.955465
C199	C	0.153325	-0.608283	0.455364
C200	C	0.653325	-0.108283	0.955364
C201	C	0.083488	-0.678322	0.595370
C202	C	0.583488	-0.178322	1.095370
C203	C	-0.033750	-0.561180	0.595470
C204	C	0.466250	-0.061180	1.095470
C205	C	0.637601	-0.654732	0.618548
C206	C	1.137601	-0.154732	1.118548
C207	C	0.637509	-0.654422	0.501245
C208	C	1.137509	-0.154422	1.001245
C209	C	0.637362	-0.514403	0.431560
C210	C	1.137362	-0.014403	0.931560
C211	C	0.637458	-0.514713	0.548862
C212	C	1.137458	-0.014713	1.048862
C213	C	0.153215	-0.006966	0.455158
C214	C	0.653215	0.493034	0.955158
C215	C	0.035916	-0.007114	0.455550
C216	C	0.535916	0.492886	0.955550
C217	C	-0.033739	-0.007106	0.595527
C218	C	0.466261	0.492894	1.095527
C219	C	0.083600	-0.007076	0.595174
C220	C	0.583600	0.492924	1.095174
C221	C	-0.010020	-0.491238	1.102888
C222	C	0.489980	0.008762	1.602888
C223	C	-0.009698	-0.608550	1.102828
C224	C	0.490302	-0.108550	1.602828
C225	C	0.130276	-0.678293	1.102853
C226	C	0.630276	-0.178293	1.602853
C227	C	0.129961	-0.560974	1.102892
C228	C	0.629961	-0.060974	1.602892
H229	H	0.018524	-0.494668	0.964293
H230	H	0.518524	0.005332	1.464293
O231	O	0.637519	-0.473735	0.559135
O232	O	1.137519	0.026265	1.059135
C233	C	0.686304	-0.493201	0.572402
C234	C	1.186304	0.006799	1.072402
H235	H	0.702601	-0.541450	0.588634
H236	H	1.202601	-0.041450	1.088634
H237	H	0.675360	-0.476852	0.606461
H238	H	1.175360	0.023148	1.106461
H239	H	0.720401	-0.477043	0.532839
H240	H	1.220401	0.022957	1.032839
H241	H	0.196022	-0.006699	0.420530
H242	H	0.696022	0.493301	0.920530
H243	H	-0.076633	-0.007113	0.630069
H244	H	0.423367	0.492887	1.130069
O245	O	0.056759	-0.141022	0.665352
O246	O	0.556759	0.358978	1.165352
C247	C	0.004053	-0.106763	0.656869
C248	C	0.504053	0.393237	1.156869
H249	H	0.008786	-0.097881	0.611914
H250	H	0.508786	0.402119	1.111914
H251	H	-0.011118	-0.065097	0.663461
H252	H	0.488882	0.434903	1.163461
H253	H	-0.028126	-0.129608	0.688373
H254	H	0.471874	0.370392	1.188373
H255	H	0.027560	-0.448192	0.421017
H256	H	0.527560	0.051808	0.921017
O257	O	0.171549	-0.729444	1.102819
O258	O	0.671549	-0.229444	1.602819
C259	C	0.220257	-0.729442	1.102845
C260	C	0.720257	-0.229442	1.602845
H261	H	0.219581	-0.684039	1.085037
H262	H	0.719581	-0.184039	1.585037
H263	H	0.259651	-0.754607	1.075510
H264	H	0.759651	-0.254607	1.575510
H265	H	0.220926	-0.749678	1.148007
H266	H	0.720926	-0.249678	1.648007
O267	O	0.025586	-0.007165	0.414600
O268	O	0.525586	0.492835	0.914600
C269	C	-0.030051	-0.007170	0.435229
C270	C	0.469949	0.492830	0.935229
H271	H	-0.044926	-0.024974	0.483440
H272	H	0.455074	0.475026	0.983440
H273	H	-0.030867	-0.034526	0.418021
H274	H	0.469133	0.465474	0.918021
H275	H	-0.059348	0.037984	0.420906
H276	H	0.440652	0.537984	0.920906
H277	H	0.092017	-0.721269	0.629819
H278	H	0.592017	-0.221269	1.129819
O279	O	0.093955	-0.007101	0.636150
O280	O	0.593955	0.492899	1.136150
C281	C	0.149586	-0.007080	0.615516
C282	C	0.649586	0.492920	1.115516
H283	H	0.176347	-0.024894	0.579178
H284	H	0.676347	0.475106	1.079178
H285	H	0.168653	-0.034413	0.650954
H286	H	0.668653	0.465587	1.150954
H287	H	0.148744	0.038084	0.599731
H288	H	0.648744	0.538084	1.099731
H289	H	-0.044554	-0.448327	1.102896
H290	H	0.455446	0.051673	1.602896
H291	H	-0.044080	-0.617108	1.102779
H292	H	0.455920	-0.117108	1.602779
H293	H	0.164358	-0.552401	1.102897
H294	H	0.664358	-0.052401	1.602897
H295	H	0.054276	-0.458811	0.856808
H296	H	0.554276	0.041189	1.356808
O297	O	0.637566	-0.695928	0.669743
O298	O	1.137566	-0.195928	1.169743
C299	C	0.588850	-0.711173	0.694812
C300	C	1.088850	-0.211173	1.194812
H301	H	0.554736	-0.674833	0.676124
H302	H	1.054736	-0.174833	1.176124
H303	H	0.572529	-0.720543	0.742442
H304	H	1.072529	-0.220543	1.242442
H305	H	0.599892	-0.750468	0.686143
H306	H	1.099892	-0.250468	1.186143
O307	O	-0.084971	-0.550992	0.636570
O308	O	0.415029	-0.050992	1.136570
C309	C	-0.120150	-0.495382	0.616107
C310	C	0.379850	0.004618	1.116107
H311	H	-0.092896	-0.468503	0.579754
H312	H	0.407104	0.031497	1.079754
H313	H	-0.147261	-0.476430	0.651626
H314	H	0.352739	0.023570	1.151626
H315	H	-0.148737	-0.496244	0.600393
H316	H	0.351263	0.003756	1.100393
H317	H	0.194117	-0.582425	0.964198
H318	H	0.694117	-0.082425	1.464198
H319	H	0.637300	-0.479859	0.388668
H320	H	1.137300	0.020141	0.888668
O321	O	0.239040	-0.548854	0.852130
O322	O	0.739040	-0.048854	1.352130
C323	C	0.268825	-0.583170	0.890963
C324	C	0.768825	-0.083170	1.390963
H325	H	0.240586	-0.575617	0.933209
H326	H	0.740586	-0.075617	1.433209
H327	H	0.308359	-0.572056	0.873827
H328	H	0.808359	-0.072056	1.373827
H329	H	0.281613	-0.629582	0.897253
H330	H	0.781613	-0.129582	1.397253
O331	O	0.637500	-0.695401	0.490929
O332	O	1.137500	-0.195401	0.990929
C333	C	0.637457	-0.674786	0.435299
C334	C	1.137457	-0.174786	0.935299
H335	H	0.619594	-0.626574	0.420426
H336	H	1.119594	-0.126574	0.920426
H337	H	0.610136	-0.692041	0.434499
H338	H	1.110136	-0.192041	0.934499
H339	H	0.682604	-0.689072	0.405988
H340	H	1.182604	-0.189072	0.905988
O341	O	0.095769	-0.257940	0.704300
O342	O	0.595769	0.242060	1.204300
C343	C	0.065975	-0.292255	0.718650
C344	C	0.565975	0.207745	1.218650
H345	H	0.045863	-0.274397	0.685290
H346	H	0.545863	0.225603	1.185290
H347	H	0.031497	-0.292968	0.761693
H348	H	0.531497	0.207032	1.261693
H349	H	0.096472	-0.337148	0.720573
H350	H	0.596472	0.162852	1.220573
H351	H	-0.223743	-0.586821	0.390905
H352	H	0.276257	-0.086821	0.890905
O353	O	0.048014	-0.453417	0.656611
O354	O	0.548014	0.046583	1.156611
C355	C	-0.007641	-0.445034	0.665040
C356	C	0.492359	0.054966	1.165040
H357	H	-0.007557	-0.451649	0.629322
H358	H	0.492443	0.048351	1.129322
H359	H	-0.035778	-0.400097	0.665364
H360	H	0.464222	0.099903	1.165364
H361	H	-0.024591	-0.476578	0.707251
H362	H	0.475409	0.023422	1.207251
H363	H	0.193817	-0.582360	0.527624
H364	H	0.693817	-0.082360	1.027624
O365	O	0.009146	-0.492474	0.617740
O366	O	0.509146	0.007526	1.117740
C367	C	-0.005145	-0.542268	0.647571
C368	C	0.494855	-0.042268	1.147571
H369	H	0.033909	-0.579491	0.636859
H370	H	0.533909	-0.079491	1.136859
H371	H	-0.039518	-0.536971	0.634980
H372	H	0.460482	-0.036971	1.134980
H373	H	-0.021381	-0.550609	0.694996
H374	H	0.478619	-0.050609	1.194996
H375	H	0.391402	-0.589605	0.640414
H376	H	0.891402	-0.089605	1.140414
O377	O	0.238839	-0.548834	0.561139
O378	O	0.738839	-0.048834	1.061139
C379	C	0.268575	-0.583110	0.526807
C380	C	0.768575	-0.083110	1.026807
H381	H	0.240323	-0.604664	0.534385
H382	H	0.740323	-0.104664	1.034385
H383	H	0.308142	-0.616626	0.537877
H384	H	0.808142	-0.116626	1.037877
H385	H	0.281305	-0.555758	0.480399
H386	H	0.781305	-0.055758	0.980399
H387	H	0.498841	-0.451490	0.538213
H388	H	0.998841	0.048510	1.038213
O389	O	0.503458	-0.634530	0.605924
O390	O	1.003458	-0.134530	1.105924
C391	C	0.464618	-0.663890	0.635011
C392	C	0.964618	-0.163890	1.135011
H393	H	0.422388	-0.638046	0.659304
H394	H	0.922388	-0.138046	1.159304
H395	H	0.481765	-0.706620	0.665932
H396	H	0.981765	-0.206620	1.165932
H397	H	0.458295	-0.670747	0.603318
H398	H	0.958295	-0.170747	1.103318
H399	H	0.057785	-0.718806	0.241554
H400	H	0.557785	-0.218806	0.741554
H401	H	0.185713	-0.253197	0.519589
H402	H	0.685713	0.246803	1.019589
O403	O	0.386753	-0.406561	0.572667
O404	O	0.886753	0.093439	1.072667
C405	C	0.401188	-0.375987	0.514164
C406	C	0.901188	0.124013	1.014164
H407	H	0.444202	-0.401875	0.490821
H408	H	0.944202	0.098125	0.990821
H409	H	0.403210	-0.334215	0.506335
H410	H	0.903210	0.165785	1.006335
H411	H	0.367825	-0.367148	0.498030
H412	H	0.867825	0.132852	0.998030
O413	O	0.152148	-0.141128	0.474621
O414	O	0.652148	0.358872	0.974621
C415	C	0.186429	-0.179973	0.444856
C416	C	0.686429	0.320027	0.944856
H417	H	0.208000	-0.222213	0.473098
H418	H	0.708000	0.277787	0.973098
H419	H	0.219927	-0.162838	0.405302
H420	H	0.719927	0.337162	0.905302
H421	H	0.159081	-0.186280	0.432099
H422	H	0.659081	0.313720	0.932099
O423	O	-0.032247	-0.534042	0.236801
O424	O	0.467753	-0.034042	0.736801
C425	C	-0.091585	-0.509379	0.251187
C426	C	0.408415	-0.009379	0.751187
H427	H	-0.110699	-0.543086	0.267430
H428	H	0.389301	-0.043086	0.767430
H429	H	-0.102857	-0.474448	0.212179
H430	H	0.397143	0.025552	0.712179
H431	H	-0.109181	-0.490660	0.285583
H432	H	0.390819	0.009340	0.785583
O433	O	0.024060	-0.763737	0.353618
O434	O	0.524060	-0.263737	0.853618
C435	C	0.058414	-0.793522	0.314790
C436	C	0.558414	-0.293522	0.814790
H437	H	0.050932	-0.765263	0.272511
H438	H	0.550932	-0.265263	0.772511
H439	H	0.047278	-0.833034	0.331880
H440	H	0.547278	-0.333034	0.831880
H441	H	0.104809	-0.806352	0.308583
H442	H	0.604809	-0.306352	0.808583
O443	O	-0.071346	-0.572830	0.393995
O444	O	0.428654	-0.072830	0.893995
C445	C	-0.079706	-0.517188	0.385593
C446	C	0.420294	-0.017188	0.885593
H447	H	-0.073151	-0.517301	0.421365
H448	H	0.426849	-0.017301	0.921365
H449	H	-0.124615	-0.489013	0.385196
H450	H	0.375385	0.010987	0.885196
H451	H	-0.048113	-0.500258	0.343425
H452	H	0.451887	-0.000258	0.843425
O453	O	-0.032363	-0.534050	0.433033
O454	O	0.467637	-0.034050	0.933033
C455	C	0.017454	-0.519813	0.403293
C456	C	0.517454	-0.019813	0.903293
H457	H	0.054634	-0.558900	0.414059
H458	H	0.554634	-0.058900	0.914059
H459	H	0.012151	-0.485461	0.415919
H460	H	0.512151	0.014539	0.915919
H461	H	0.025862	-0.503565	0.355852
H462	H	0.525862	-0.003565	0.855852
H463	H	-0.065911	-0.578960	0.348925
H464	H	0.434089	-0.078960	0.848925
O465	O	0.062711	-0.724889	0.528562
O466	O	0.562711	-0.224889	1.028562
C467	C	0.112430	-0.759186	0.498704
C468	C	0.612430	-0.259186	0.998704
H469	H	0.104544	-0.759757	0.464161
H470	H	0.604544	-0.259757	0.964161
H471	H	0.124864	-0.804120	0.529139
H472	H	0.624864	-0.304120	1.029139
H473	H	0.148085	-0.741417	0.478668
H474	H	0.648085	-0.241417	0.978668
O475	O	0.023770	-0.763716	0.489627
O476	O	0.523770	-0.263716	0.989627
C477	C	0.003407	-0.788313	0.548967
C478	C	0.503407	-0.288313	1.048967
H479	H	-0.002424	-0.760244	0.569749
H480	H	0.497576	-0.260244	1.069749
H481	H	0.035117	-0.831925	0.562860
H482	H	0.535117	-0.331925	1.062860
H483	H	-0.038939	-0.792659	0.562275
H484	H	0.461061	-0.292659	1.062275
H485	H	0.064741	-0.761071	0.410254
H486	H	0.564741	-0.261071	0.910254
H487	H	-0.073458	-0.868361	0.512142
H488	H	0.426542	-0.368361	1.012142
O489	O	0.109582	-0.873148	0.444765
O490	O	0.609582	-0.373148	0.944765
C491	C	0.138972	-0.834343	0.415749
C492	C	0.638972	-0.334343	0.915749
H493	H	0.113180	-0.792089	0.391419
H494	H	0.613180	-0.292089	0.891419
H495	H	0.181722	-0.851509	0.384869
H496	H	0.681722	-0.351509	0.884869
H497	H	0.145781	-0.828052	0.447496
H498	H	0.645781	-0.328052	0.947496
H499	H	-0.109200	-0.760870	0.476275
H500	H	0.390800	-0.260870	0.976275
O501	O	0.204520	-0.618461	0.414229
O502	O	0.704520	-0.118461	0.914229
C503	C	0.214634	-0.664258	0.401150
C504	C	0.714634	-0.164258	0.901150
H505	H	0.188185	-0.691452	0.438579
H506	H	0.688185	-0.191452	0.938579
H507	H	0.261424	-0.690914	0.391965
H508	H	0.761424	-0.190914	0.891965
H509	H	0.202471	-0.647440	0.362330
H510	H	0.702471	-0.147440	0.862330
O511	O	-0.111985	-0.715918	0.537048
O512	O	0.388015	-0.215918	1.037048
C513	C	-0.126514	-0.765582	0.571273
C514	C	0.373486	-0.265582	1.071273
H515	H	-0.169512	-0.757583	0.571767
H516	H	0.330488	-0.257583	1.071767
H517	H	-0.128616	-0.778069	0.616236
H518	H	0.371384	-0.278069	1.116236
H519	H	-0.093162	-0.801250	0.553493
H520	H	0.406838	-0.301250	1.053493
O521	O	-0.228796	-0.676812	0.575708
O522	O	0.271204	-0.176812	1.075708
C523	C	-0.263069	-0.706597	0.589942
C524	C	0.236931	-0.206597	1.089942
H525	H	-0.271867	-0.695902	0.550841
H526	H	0.228133	-0.195902	1.050841
H527	H	-0.304771	-0.693943	0.624247
H528	H	0.195229	-0.193943	1.124247
H529	H	-0.240284	-0.754031	0.606247
H530	H	0.259716	-0.254031	1.106247
H531	H	-0.116252	-0.622767	0.355267
H532	H	0.383748	-0.122767	0.855267
