data_functionalizedCrystal
_audit_creation_method	'MofGen! by Chris Wilmer'
_symmetry_space_group_name_H-M	'P1'
_symmetry_Int_Tables_number	1
_symmetry_cell_setting	triclinic
loop_
_symmetry_equiv_pos_as_xyz
  x,y,z
_cell_length_a	12.759395
_cell_length_b	21.295418
_cell_length_c	12.759387
_cell_angle_alpha	90.036848
_cell_angle_beta	90.019431
_cell_angle_gamma	90.027245
loop_
_atom_site_label
_atom_site_type_symbol
_atom_site_fract_x
_atom_site_fract_y
_atom_site_fract_z
Zn1	Zn	1.606176	-0.250579	0.593931
Zn2	Zn	1.606028	-0.355861	0.418233
Zn3	Zn	1.430474	-0.250610	0.418271
Zn4	Zn	1.430428	-0.355814	0.593875
O5	O	1.518276	-0.303216	0.506077
O6	O	1.753177	-0.264552	0.570631
O7	O	1.582697	-0.341933	0.271216
O8	O	1.453863	-0.162516	0.441612
O9	O	1.753068	-0.341902	0.441547
O10	O	1.582950	-0.162493	0.570668
O11	O	1.453719	-0.264605	0.271245
O12	O	1.283447	-0.264558	0.441558
O13	O	1.453784	-0.341821	0.740904
O14	O	1.283413	-0.341851	0.570573
O15	O	1.582905	-0.264505	0.740944
O16	O	1.582652	-0.443945	0.441493
O17	O	1.453640	-0.443909	0.570536
C18	C	1.245309	-0.303203	0.506064
C19	C	1.128532	-0.303213	0.506084
C20	C	1.128626	-0.222798	0.640717
C21	C	1.073813	-0.182598	0.708042
C22	C	0.964091	-0.182609	0.708055
C23	C	0.909181	-0.222823	0.640733
C24	C	0.963994	-0.263023	0.573408
C25	C	1.073718	-0.263009	0.573405
C26	C	0.963900	-0.343434	0.438772
C27	C	1.073622	-0.343427	0.438762
C28	C	0.908990	-0.383649	0.371450
C29	C	0.963803	-0.423853	0.304129
C30	C	1.073532	-0.423840	0.304120
C31	C	1.128435	-0.383627	0.371437
C32	C	1.518153	-0.466768	0.506027
C33	C	1.518197	-0.536736	0.506041
C34	C	1.585705	-1.036191	0.439054
C35	C	1.585665	-0.970448	0.439029
C36	C	1.518424	-0.937575	0.506151
C37	C	1.451199	-0.970450	0.573284
C38	C	1.451233	-1.036191	0.573299
N39	N	1.510262	-0.834316	0.598085
N40	N	1.510235	-0.771864	0.598067
C41	C	1.518315	-0.739500	0.506107
N42	N	1.526442	-0.771947	0.414163
N43	N	1.526474	-0.834404	0.414182
C44	C	1.518379	-0.866290	0.506141
C45	C	1.585487	-0.635348	0.438946
C46	C	1.585440	-0.569604	0.438919
C47	C	1.450979	-0.569607	0.573184
C48	C	1.451021	-0.635349	0.573201
C49	C	1.518281	-0.668216	0.506083
C50	C	1.792310	-0.303229	0.506091
C51	C	1.909086	-0.303234	0.506097
C52	C	1.518356	-0.303154	0.780111
C53	C	1.518390	-0.303128	0.896888
C54	C	1.518428	-0.139026	0.506151
C55	C	1.518493	-0.069057	0.506182
C56	C	1.518258	-0.303232	0.233110
C57	C	1.518427	-0.303081	0.116334
C58	C	1.652853	-0.222624	0.896950
C59	C	1.720099	-0.182363	0.951842
C60	C	1.720125	-0.182340	1.061564
C61	C	1.652895	-0.222581	1.116396
C62	C	1.585648	-0.262843	1.061504
C63	C	1.585632	-0.262863	0.951780
C64	C	1.451181	-0.343342	1.061442
C65	C	1.451159	-0.343369	0.951720
C66	C	1.383951	-0.383583	1.116274
C67	C	1.316708	-0.423849	1.061382
C68	C	1.316686	-0.423870	0.951653
C69	C	1.383913	-0.383630	0.896828
H70	H	1.217967	-0.222782	0.640708
H71	H	1.118533	-0.149855	0.762851
O72	O	1.378441	-0.534166	0.645580
H73	H	1.425408	-0.504169	0.699081
H74	H	1.396292	-0.662110	0.627867
H75	H	1.640169	-0.542844	0.384250
H76	H	1.774876	-0.149552	1.106257
O77	O	1.246778	-0.383609	0.371414
H78	H	1.275747	-0.348888	0.429526
O79	O	1.658234	-1.071642	0.366655
H80	H	1.704957	-1.037738	0.319964
H81	H	1.640399	-0.943683	0.384363
H82	H	1.396501	-1.062950	0.627967
O83	O	1.378676	-0.934999	0.645686
H84	H	1.389951	-0.883763	0.634407
H85	H	0.919087	-0.456589	0.249317
H86	H	0.919462	-0.149871	0.762870
H87	H	1.652849	-0.222645	0.807609
H88	H	1.640253	-0.662110	0.384293
O89	O	0.790838	-0.222832	0.640733
H90	H	0.761947	-0.188123	0.698857
O91	O	0.790647	-0.383660	0.371453
H92	H	0.761740	-0.396453	0.450653
H93	H	1.383972	-0.383559	1.205615
H94	H	1.774835	-0.149599	0.907186
H95	H	1.652913	-0.222554	1.205737
O96	O	1.244195	-0.467245	1.120516
H97	H	1.255508	-0.460463	1.206034
O98	O	1.132653	-0.467198	0.231502
H99	H	1.076033	-0.495162	0.184701
H100	H	1.261914	-0.456649	0.906967
H101	H	1.383906	-0.383647	0.807487
