data_functionalizedCrystal
_audit_creation_method	'MofGen! by Chris Wilmer'
_symmetry_space_group_name_H-M	'P1'
_symmetry_Int_Tables_number	1
_symmetry_cell_setting	triclinic
loop_
_symmetry_equiv_pos_as_xyz
  x,y,z
_cell_length_a	9.565339
_cell_length_b	10.540539
_cell_length_c	10.540539
_cell_angle_alpha	84.525492
_cell_angle_beta	90.003731
_cell_angle_gamma	89.995629
loop_
_atom_site_label
_atom_site_type_symbol
_atom_site_fract_x
_atom_site_fract_y
_atom_site_fract_z
O1	O	-0.116187	-1.685874	-0.178904
O2	O	-0.116203	-1.316461	-0.195760
O3	O	-0.116193	-1.509596	-0.002625
O4	O	-0.116197	-1.492740	-0.372038
O5	O	0.116327	-1.509605	-0.002612
O6	O	0.116317	-1.316470	-0.195747
O7	O	0.116333	-1.685883	-0.178891
Zn8	Zn	0.153243	-1.501178	-0.187317
Zn9	Zn	-0.153113	-1.501167	-0.187334
O10	O	0.116323	-1.492749	-0.372025
C11	C	0.000054	-1.269163	-0.194489
C12	C	0.000048	-1.128215	-0.190707
N13	N	-0.362192	-1.501159	-0.187336
C14	C	0.000064	-1.508336	0.044684
C15	C	0.000057	-1.504554	0.185632
C16	C	-0.453391	-1.411663	-0.276479
C17	C	-0.546574	-1.386285	-0.161451
C18	C	-0.546565	-1.526518	-0.302322
C19	C	-0.453323	-1.475724	-0.072249
C20	C	-0.453306	-1.616006	-0.213197
C21	C	-0.546446	-1.590676	-0.098086
N22	N	0.362322	-1.501195	-0.187305
C23	C	0.000072	-1.733182	-0.180161
C24	C	0.000070	-1.874130	-0.183943
C25	C	0.000592	-0.944788	-0.045790
C26	C	0.000054	-1.091406	-0.049624
C27	C	-0.132728	-1.066537	-0.258610
C28	C	-0.132825	-0.919993	-0.253795
C29	C	0.131594	-0.919514	-0.256651
C30	C	0.133335	-1.066496	-0.257950
C31	C	0.000062	-1.494008	-0.419335
C32	C	0.000061	-1.497790	-0.560283
C33	C	-0.000472	-1.359637	0.369059
C34	C	0.000052	-1.363471	0.222441
C35	C	0.132840	-1.572455	0.247297
C36	C	0.132952	-1.567640	0.393842
C37	C	-0.131467	-1.570499	0.394345
C38	C	-0.133222	-1.571799	0.247363
H39	H	-0.412531	-1.335913	-0.351790
N40	N	-0.256723	-1.119935	-0.199495
N41	N	-0.342631	-1.176782	-0.263231
H42	H	-0.430207	-1.214492	-0.221484
N43	N	0.118346	-1.290037	0.406914
N44	N	0.205816	-1.247630	0.325545
H45	H	0.289743	-1.198486	0.352276
N46	N	-0.597943	-1.553445	-0.424316
N47	N	-0.672653	-1.649364	-0.433839
H48	H	-0.708935	-1.668376	-0.519999
N49	N	-0.597373	-1.685642	-0.003388
N50	N	-0.567188	-1.679716	0.111278
H51	H	-0.603156	-1.746781	0.178162
N52	N	0.119452	-1.144860	0.017414
N53	N	0.203762	-1.073888	0.067369
H54	H	0.288087	-1.111634	0.114726
H55	H	-0.587551	-1.289178	-0.139560
H56	H	-0.095133	-1.310044	0.179832
N57	N	0.256802	-1.513277	0.193900
N58	N	0.342480	-1.464167	0.264235
H59	H	0.430027	-1.422365	0.226527
N60	N	0.139081	-1.702433	0.219273
N61	N	0.138660	-1.790114	0.307918
H62	H	0.143071	-1.881912	0.288125
H63	H	0.095390	-1.309676	0.180690
N64	N	0.120117	-0.909005	0.024086
N65	N	0.206308	-0.831001	-0.027110
H66	H	0.290752	-0.805752	0.022226
N67	N	-0.401883	-1.737790	-0.240719
N68	N	-0.431704	-1.780025	-0.344223
H69	H	-0.395386	-1.866036	-0.363675
N70	N	-0.402148	-1.448689	0.049780
N71	N	-0.273450	-1.444264	0.069445
H72	H	-0.237303	-1.425165	0.155623
N73	N	-0.118185	-0.906867	0.023826
N74	N	-0.203219	-0.828030	-0.027866
H75	H	-0.287109	-0.801245	0.021297
H76	H	-0.095289	-1.133148	0.004170
H77	H	-0.132355	-1.672403	0.441571
H78	H	-0.232075	-0.891778	-0.203619
N79	N	0.132748	-0.860248	-0.384477
N80	N	0.233111	-0.790954	-0.422844
H81	H	0.233919	-0.749090	-0.513117
N82	N	-0.140385	-0.859826	-0.381084
N83	N	-0.145582	-0.926103	-0.473188
H84	H	-0.150927	-0.883617	-0.563086
H85	H	0.232237	-0.887972	-0.210987
N86	N	-0.119939	-1.289731	0.404927
N87	N	-0.206083	-1.340906	0.482988
H88	H	-0.290465	-1.291536	0.508325
N89	N	-0.138915	-1.094579	-0.388585
N90	N	-0.045313	-1.160494	-0.432724
H91	H	-0.049678	-1.180301	-0.524520
N92	N	0.257454	-1.504672	0.429210
N93	N	0.281010	-1.392380	0.385168
H94	H	0.368941	-1.347903	0.410139
N95	N	-0.257727	-1.513238	0.433937
N96	N	-0.281158	-1.506910	0.549827
H97	H	-0.370325	-1.466460	0.577792
N98	N	-0.143294	-1.700847	0.217014
N99	N	-0.243390	-1.768915	0.258428
H100	H	-0.250494	-1.860062	0.237000
H101	H	0.231562	-1.107462	-0.208345
H102	H	0.141350	-1.090723	-0.360808
H103	H	0.138980	-1.669105	0.441811
H104	H	-0.231452	-1.522116	0.206500
