data_functionalizedCrystal
_audit_creation_method	'MofGen! by Chris Wilmer'
_symmetry_space_group_name_H-M	'P1'
_symmetry_Int_Tables_number	1
_symmetry_cell_setting	triclinic
loop_
_symmetry_equiv_pos_as_xyz
  x,y,z
_cell_length_a	19.805407
_cell_length_b	21.295416
_cell_length_c	19.805399
_cell_angle_alpha	89.971630
_cell_angle_beta	90.019573
_cell_angle_gamma	89.969669
loop_
_atom_site_label
_atom_site_type_symbol
_atom_site_fract_x
_atom_site_fract_y
_atom_site_fract_z
Zn1	Zn	1.034717	0.250624	0.382716
Zn2	Zn	1.034624	0.355893	0.269526
Zn3	Zn	0.921532	0.250641	0.269541
Zn4	Zn	0.921488	0.355859	0.382673
O5	O	0.978090	0.303254	0.326114
O6	O	1.129421	0.264595	0.367713
O7	O	1.019602	0.341952	0.174811
O8	O	0.936604	0.162549	0.284578
O9	O	1.129353	0.341935	0.284553
O10	O	1.019760	0.162537	0.367727
O11	O	0.936513	0.264624	0.174822
O12	O	0.826809	0.264592	0.284536
O13	O	0.936528	0.341878	0.477395
O14	O	0.826777	0.341895	0.367654
O15	O	1.019717	0.264562	0.477427
O16	O	1.019559	0.443977	0.284511
O17	O	0.936438	0.443953	0.367640
C18	C	0.802234	0.303242	0.326092
C19	C	0.727002	0.303252	0.326099
C20	C	0.978002	0.466806	0.326084
C21	C	0.978026	0.536774	0.326094
C22	C	0.691659	0.343564	0.369308
C23	C	0.620970	0.343566	0.369318
C24	C	0.585627	0.303257	0.326114
C25	C	0.620975	0.262940	0.282903
C26	C	0.691662	0.262936	0.282897
C27	C	0.335902	0.262954	0.282925
C28	C	0.265210	0.262962	0.282932
C29	C	0.265210	0.343583	0.369346
C30	C	0.335897	0.343579	0.369340
C31	C	0.371239	0.303261	0.326132
C32	C	0.447888	0.303259	0.326123
C33	C	0.508980	0.303261	0.326119
C34	C	1.021346	0.569632	0.282855
C35	C	1.021378	0.635375	0.282873
C36	C	0.978078	0.668256	0.326123
C37	C	0.934755	0.635390	0.369371
C38	C	0.934729	0.569649	0.369356
N39	N	0.918868	0.771522	0.331281
N40	N	0.918895	0.833974	0.331291
C41	C	0.978155	0.866331	0.326171
N42	N	1.037388	0.833878	0.321028
N43	N	1.037361	0.771421	0.321015
C44	C	0.978102	0.739542	0.326144
C45	C	1.021513	0.970475	0.282950
C46	C	1.021546	1.036219	0.282973
C47	C	0.934917	1.036233	0.369467
C48	C	0.934890	0.970490	0.369447
C49	C	0.978187	0.937615	0.326185
C50	C	1.154633	0.303267	0.326136
C51	C	1.229865	0.303272	0.326146
C52	C	0.978128	0.303214	0.502657
C53	C	0.978144	0.303198	0.577889
C54	C	0.978198	1.139064	0.326170
C55	C	0.978246	1.069096	0.326224
C56	C	0.978091	0.303248	0.150258
C57	C	0.978206	0.303088	0.075026
C58	C	1.021462	0.262937	0.613250
C59	C	1.021469	0.262919	0.683939
C60	C	0.978161	0.303165	0.719264
C61	C	0.934839	0.343427	0.683898
C62	C	0.934829	0.343442	0.613210
C63	C	0.934877	0.343368	0.968971
C64	C	0.934892	0.343352	1.039663
C65	C	1.021517	0.262846	1.039700
C66	C	1.021507	0.262860	0.969012
C67	C	0.978183	0.303120	0.933652
C68	C	0.978175	0.303138	0.857003
C69	C	0.978172	0.303150	0.795912
H70	H	0.720431	0.376391	0.404487
H71	H	0.592197	0.376393	0.404502
H72	H	1.056730	0.230166	0.584493
Br73	Br	1.080115	0.525019	0.224151
Br74	Br	1.080291	0.208307	0.731928
Br75	Br	1.080269	0.925855	0.224236
Br76	Br	0.217242	0.398304	0.427986
Br77	Br	0.383857	0.208232	0.224289
Br78	Br	0.217243	0.208255	0.224294
H79	H	1.056775	0.230090	0.940254
Br80	Br	0.876094	0.925893	0.428131
H81	H	0.899622	0.376126	1.068423
H82	H	1.056792	0.230062	1.068499
H83	H	0.899548	0.376219	0.584420
H84	H	1.056826	1.062971	0.247764
H85	H	0.592192	0.230118	0.247728
Br86	Br	0.739629	0.208221	0.224257
Br87	Br	0.876059	0.398043	0.731839
Br88	Br	0.383860	0.398290	0.427972
Br89	Br	0.875996	0.680013	0.428073
Br90	Br	1.080173	0.679979	0.224187
H91	H	0.899609	0.376159	0.940189
H92	H	0.899453	0.542895	0.404567
Br93	Br	0.876159	1.080850	0.428172
