data_functionalizedCrystal
_audit_creation_method	'MofGen! by Chris Wilmer'
_symmetry_space_group_name_H-M	'P1'
_symmetry_Int_Tables_number	1
_symmetry_cell_setting	triclinic
loop_
_symmetry_equiv_pos_as_xyz
  x,y,z
_cell_length_a	21.395364
_cell_length_b	21.395361
_cell_length_c	21.395356
_cell_angle_alpha	90.028219
_cell_angle_beta	89.976233
_cell_angle_gamma	89.971134
loop_
_atom_site_label
_atom_site_type_symbol
_atom_site_fract_x
_atom_site_fract_y
_atom_site_fract_z
Zn1	Zn	0.957854	0.249482	-0.354262
Zn2	Zn	1.457854	0.749482	0.145738
Zn3	Zn	0.957758	0.354259	-0.249484
Zn4	Zn	1.457758	0.854259	0.250516
Zn5	Zn	0.853071	0.249496	-0.249498
Zn6	Zn	1.353071	0.749496	0.250502
Zn7	Zn	0.853038	0.354223	-0.354223
Zn8	Zn	1.353038	0.854223	0.145777
O9	O	0.905430	0.301865	-0.301867
O10	O	1.405430	0.801865	0.198133
O11	O	1.045519	0.263390	-0.340373
O12	O	1.545519	0.763390	0.159627
O13	O	0.943845	0.340383	-0.161808
O14	O	1.443845	0.840383	0.338192
O15	O	0.867024	0.161816	-0.263418
O16	O	1.367024	0.661816	0.236582
O17	O	1.045449	0.340369	-0.263393
O18	O	1.545449	0.840369	0.236607
O19	O	0.944008	0.161806	-0.340387
O20	O	1.444008	0.661806	0.159613
O21	O	0.866931	0.263414	-0.161819
O22	O	1.366931	0.763414	0.338181
O23	O	0.765388	0.263379	-0.263380
O24	O	1.265388	0.763379	0.236620
O25	O	0.866969	0.340308	-0.441906
O26	O	1.366969	0.840308	0.058094
O27	O	0.765365	0.340321	-0.340321
O28	O	1.265365	0.840321	0.159679
O29	O	0.943976	0.263356	-0.441935
O30	O	1.443976	0.763356	0.058065
O31	O	0.943814	0.441932	-0.263355
O32	O	1.443814	0.941932	0.236645
O33	O	0.866876	0.441906	-0.340307
O34	O	1.366876	0.941906	0.159693
C35	C	0.742643	0.301848	-0.301849
C36	C	1.242643	0.801848	0.198151
C37	C	0.673001	0.301856	-0.301856
C38	C	1.173001	0.801856	0.198144
C39	C	0.171209	0.342002	-0.341891
C40	C	0.671209	0.842002	0.158109
C41	C	0.236645	0.342002	-0.341885
C42	C	0.736645	0.842002	0.158115
C43	C	0.269363	0.301879	-0.301887
C44	C	0.769363	0.801879	0.198113
C45	C	0.236641	0.261763	-0.261881
C46	C	0.736641	0.761763	0.238119
C47	C	0.171207	0.261769	-0.261884
C48	C	0.671207	0.761769	0.238116
C49	C	0.373052	0.245414	-0.297036
C50	C	0.873052	0.745414	0.202964
C51	C	0.438485	0.245408	-0.297037
C52	C	0.938485	0.745408	0.202963
C53	C	0.471184	0.301862	-0.301873
C54	C	0.971184	0.801862	0.198127
C55	C	0.438442	0.358325	-0.306721
C56	C	0.938442	0.858325	0.193279
C57	C	0.373008	0.358330	-0.306724
C58	C	0.873008	0.858330	0.193276
C59	C	0.340316	0.301869	-0.301878
C60	C	0.840316	0.801869	0.198122
C61	C	0.574851	0.341978	-0.341866
C62	C	1.074851	0.841978	0.158134
C63	C	0.640288	0.341980	-0.341855
C64	C	1.140288	0.841980	0.158145
C65	C	0.640282	0.261735	-0.261855
C66	C	1.140282	0.761735	0.238145
C67	C	0.574847	0.261739	-0.261862
C68	C	1.074847	0.761739	0.238138
C69	C	0.542135	0.301860	-0.301871
C70	C	1.042135	0.801860	0.198129
C71	C	0.905348	0.464653	-0.301839
C72	C	1.405348	0.964653	0.198161
C73	C	0.905370	0.534294	-0.301848
C74	C	1.405370	1.034294	0.198152
C75	C	0.945467	0.567000	-0.261822
C76	C	1.445467	1.067000	0.238178
C77	C	0.945496	0.632435	-0.261838
C78	C	1.445496	1.132435	0.238162
C79	C	0.905418	0.665162	-0.301875
C80	C	1.405418	1.165162	0.198125
C81	C	0.865318	0.632448	-0.341909
C82	C	1.365318	1.132448	0.158091
C83	C	0.865294	0.567014	-0.341896
C84	C	1.365294	1.067014	0.158104
C85	C	0.849003	0.768875	-0.306789
C86	C	1.349003	1.268875	0.193211
C87	C	0.849026	0.834308	-0.306798
C88	C	1.349026	1.334308	0.193202
C89	C	0.905491	0.866983	-0.301921
C90	C	1.405491	1.366983	0.198079
C91	C	0.961936	0.834217	-0.297020
C92	C	1.461936	1.334217	0.202980
C93	C	0.961912	0.768783	-0.297007
C94	C	1.461912	1.268783	0.202993
C95	C	0.905439	0.736115	-0.301895
C96	C	1.405439	1.236115	0.198105
C97	C	0.945623	0.970642	-0.261910
C98	C	1.445623	1.470642	0.238090
C99	C	0.945654	1.036078	-0.261931
C100	C	1.445654	1.536078	0.238069
C101	C	0.865470	1.036090	-0.341999
C102	C	1.365470	1.536090	0.158001
C103	C	0.865445	0.970654	-0.341981
C104	C	1.365445	1.470654	0.158019
C105	C	0.905521	0.937934	-0.301933
C106	C	1.405521	1.437934	0.198067
C107	C	1.068854	0.301882	-0.301885
C108	C	1.568854	0.801882	0.198115
C109	C	1.138495	0.301890	-0.301893
C110	C	1.638495	0.801890	0.198107
C111	C	0.905480	0.301826	-0.465290
C112	C	1.405480	0.801826	0.034710
C113	C	0.905501	0.301810	-0.534931
C114	C	1.405501	0.801810	-0.034931
C115	C	0.905531	1.138442	-0.301919
C116	C	1.405531	1.638442	0.198081
C117	C	0.905575	1.068800	-0.301969
C118	C	1.405575	1.568800	0.198031
C119	C	0.865462	0.261728	-0.567640
C120	C	1.365462	0.761728	-0.067640
C121	C	0.865460	0.261716	-0.633076
C122	C	1.365460	0.761716	-0.133076
C123	C	0.905508	0.301780	-0.665800
C124	C	1.405508	0.801780	-0.165800
C125	C	0.945549	0.341870	-0.633083
C126	C	1.445549	0.841870	-0.133083
C127	C	0.945545	0.341885	-0.567649
C128	C	1.445545	0.841885	-0.067649
C129	C	0.961960	0.306707	-0.769486
C130	C	1.461960	0.806707	-0.269486
C131	C	0.961964	0.306688	-0.834919
C132	C	1.461964	0.806688	-0.334919
C133	C	0.905518	0.301738	-0.867621
C134	C	1.405518	0.801738	-0.367621
C135	C	0.849065	0.296793	-0.834881
C136	C	1.349065	0.796793	-0.334881
C137	C	0.849062	0.296808	-0.769447
C138	C	1.349062	0.796808	-0.269447
C139	C	0.905515	0.301768	-0.736752
C140	C	1.405515	0.801768	-0.236752
C141	C	0.865474	0.261641	-0.971282
C142	C	1.365474	0.761641	-0.471282
C143	C	0.865471	0.261633	-1.036719
C144	C	1.365471	0.761633	-0.536719
C145	C	0.945565	0.341784	-1.036725
C146	C	1.445565	0.841784	-0.536725
C147	C	0.945562	0.341795	-0.971289
C148	C	1.445562	0.841795	-0.471289
C149	C	0.905518	0.301720	-0.938572
C150	C	1.405518	0.801720	-0.438572
C151	C	0.905417	0.301859	-0.139079
C152	C	1.405417	0.801859	0.360921
C153	C	0.905518	0.301699	-0.069438
C154	C	1.405518	0.801699	0.430562
H155	H	0.548216	0.374648	-0.374443
H156	H	1.048216	0.874648	0.125557
H157	H	0.978155	0.374490	-0.659731
H158	H	1.478155	0.874490	-0.159731
Cl159	Cl	0.681408	0.211299	-0.211565
Cl160	Cl	1.181408	0.711299	0.288435
Cl161	Cl	1.032925	0.875287	-0.290881
Cl162	Cl	1.532925	1.375287	0.209119
Cl163	Cl	0.815118	0.211351	-0.526513
Cl164	Cl	1.315118	0.711351	-0.026513
Cl165	Cl	0.778068	0.875493	-0.312957
Cl166	Cl	1.278068	1.375493	0.187043
H167	H	0.144571	0.229102	-0.229313
H168	H	0.644571	0.729102	0.270687
H169	H	0.978152	0.374524	-0.541018
H170	H	1.478152	0.874524	-0.041018
H171	H	0.548210	0.229073	-0.229294
H172	H	1.048210	0.729073	0.270706
H173	H	0.978101	0.540361	-0.229214
H174	H	1.478101	1.040361	0.270786
Cl175	Cl	0.778100	0.290566	-0.875984
Cl176	Cl	1.278100	0.790566	-0.375984
Cl177	Cl	1.032927	0.312936	-0.728383
Cl178	Cl	1.532927	0.812936	-0.228383
H179	H	0.346352	0.404304	-0.310670
H180	H	0.846352	0.904304	0.189330
H181	H	0.263284	0.229095	-0.229313
H182	H	0.763284	0.729095	0.270687
H183	H	0.144580	0.374674	-0.374468
H184	H	0.644580	0.874674	0.125532
Cl185	Cl	0.995904	0.392182	-0.930167
Cl186	Cl	1.495904	0.892182	-0.430167
Cl187	Cl	0.277780	0.392433	-0.392173
Cl188	Cl	0.777780	0.892433	0.107827
Cl189	Cl	0.815031	0.929536	-0.392300
Cl190	Cl	1.315031	1.429536	0.107700
Cl191	Cl	0.479639	0.174427	-0.290952
Cl192	Cl	0.979639	0.674427	0.209048
H193	H	0.346434	0.199440	-0.293088
H194	H	0.846434	0.699440	0.206912
H195	H	0.978173	0.374404	-1.063368
H196	H	1.478173	0.874404	-0.563368
H197	H	1.007931	0.310711	-0.861571
H198	H	1.507931	0.810711	-0.361571
Cl199	Cl	0.996071	1.077195	-0.211612
Cl200	Cl	1.496071	1.577195	0.288388
Cl201	Cl	0.778011	0.727805	-0.312922
Cl202	Cl	1.278011	1.227805	0.187078
H203	H	1.007870	0.742106	-0.293018
H204	H	1.507870	1.242106	0.206982
H205	H	0.978150	0.659070	-0.229244
H206	H	1.478150	1.159070	0.270756
H207	H	0.465064	0.404295	-0.310663
H208	H	0.965064	0.904295	0.189337
H209	H	0.832840	1.062735	-0.374600
H210	H	1.332840	1.562735	0.125400
Cl211	Cl	0.996003	0.929505	-0.211565
Cl212	Cl	1.496003	1.429505	0.288435
Cl213	Cl	0.815130	0.211266	-0.930149
Cl214	Cl	1.315130	0.711266	-0.430149
H215	H	0.832642	0.540384	-0.374491
H216	H	1.332642	1.040384	0.125509
Cl217	Cl	0.814936	0.673590	-0.392244
Cl218	Cl	1.314936	1.173590	0.107756
Cl219	Cl	0.815114	0.211257	-1.077839
Cl220	Cl	1.315114	0.711257	-0.577839
Cl221	Cl	0.681415	0.392416	-0.392139
Cl222	Cl	1.181415	0.892416	0.107861
H223	H	0.832857	0.229073	-0.659713
H224	H	1.332857	0.729073	-0.159713
Cl225	Cl	0.778097	0.290597	-0.728291
Cl226	Cl	1.278097	0.790597	-0.228291
