data_functionalizedCrystal
_audit_creation_method	'MofGen! by Chris Wilmer'
_symmetry_space_group_name_H-M	'P1'
_symmetry_Int_Tables_number	1
_symmetry_cell_setting	triclinic
loop_
_symmetry_equiv_pos_as_xyz
  x,y,z
_cell_length_a	10.654556
_cell_length_b	8.597304
_cell_length_c	9.130313
_cell_angle_alpha	82.295602
_cell_angle_beta	89.998135
_cell_angle_gamma	84.911270
loop_
_atom_site_label
_atom_site_type_symbol
_atom_site_fract_x
_atom_site_fract_y
_atom_site_fract_z
O1	O	1.669006	0.220512	-0.149565
O2	O	1.303640	0.241506	-0.152228
O3	O	1.493513	0.002620	-0.122072
O4	O	1.479133	0.459398	-0.179721
O5	O	1.493500	0.002613	0.121528
O6	O	1.303627	0.241499	0.091371
O7	O	1.668993	0.220505	0.094035
Cu8	Cu	1.486309	0.231002	0.114946
Cu9	Cu	1.486324	0.231010	-0.173139
O10	O	1.479120	0.459391	0.063879
C11	C	1.256827	0.239959	-0.030235
C12	C	1.117360	0.235341	-0.029658
C13	C	1.491962	-0.055872	0.007106
C14	C	1.487344	-0.230149	0.029091
C15	C	0.920787	0.228842	-0.161613
C16	C	1.051833	0.233172	-0.162168
C17	C	1.051837	0.233164	0.103418
C18	C	0.920795	0.228823	0.103973
C19	C	1.715805	0.222052	-0.027961
C20	C	1.855273	0.226671	-0.028547
C21	C	1.480671	0.517883	-0.065302
C22	C	1.485289	0.692161	-0.087297
N23	N	1.486307	0.230995	0.317569
N24	N	1.486336	0.231004	-0.375761
C25	C	1.570412	0.125261	0.407569
C26	C	1.570424	0.125261	0.560906
C27	C	1.402222	0.336743	0.534228
C28	C	1.402205	0.336734	0.380896
H29	H	0.867443	0.227088	-0.269519
C30	C	1.104664	0.099792	0.346614
C31	C	1.123866	0.235541	0.249076
H32	H	1.149138	0.101261	0.436533
H33	H	1.017254	0.096907	0.365987
H34	H	1.134599	0.009146	0.303474
H35	H	1.093922	0.326188	0.292210
H36	H	1.211294	0.238441	0.229704
C37	C	1.038655	0.232769	-0.424631
C38	C	1.123845	0.235571	-0.308440
H39	H	1.083114	0.234258	-0.514936
H40	H	0.995999	0.139711	-0.407364
H41	H	0.979088	0.322455	-0.430406
H42	H	1.183406	0.145878	-0.302658
H43	H	1.166521	0.328639	-0.325711
C44	C	0.785906	0.089226	0.275676
C45	C	0.848777	0.226425	0.250255
H46	H	0.741454	0.087737	0.365986
H47	H	0.728133	0.087329	0.196845
H48	H	0.845498	-0.000436	0.281461
H49	H	0.789183	0.316087	0.244459
H50	H	0.906555	0.228337	0.329106
H51	H	1.487058	-0.241026	-0.203771
C52	C	1.480654	-0.481316	0.178435
C53	C	1.484930	-0.320337	0.186342
H54	H	1.479168	-0.536991	0.275514
H55	H	1.406905	-0.496887	0.125808
H56	H	1.553004	-0.519247	0.128641
H57	H	1.412575	-0.282403	0.236127
H58	H	1.558687	-0.304757	0.238991
H59	H	1.638891	0.039160	0.356013
H60	H	1.333711	0.422836	0.307612
H61	H	1.638908	0.039162	0.634180
H62	H	1.333750	0.422836	0.585804
