data_functionalizedCrystal
_audit_creation_method	'MofGen! by Chris Wilmer'
_symmetry_space_group_name_H-M	'P1'
_symmetry_Int_Tables_number	1
_symmetry_cell_setting	triclinic
loop_
_symmetry_equiv_pos_as_xyz
  x,y,z
_cell_length_a	16.974829
_cell_length_b	10.065875
_cell_length_c	16.992700
_cell_angle_alpha	80.616320
_cell_angle_beta	87.024751
_cell_angle_gamma	102.336084
loop_
_atom_site_label
_atom_site_type_symbol
_atom_site_fract_x
_atom_site_fract_y
_atom_site_fract_z
O1	O	1.077671	0.232535	0.076321
O2	O	1.577671	0.732535	0.576321
O3	O	0.845823	0.206935	0.091645
O4	O	1.345823	0.706935	0.591645
O5	O	0.960815	0.219597	-0.030144
O6	O	1.460815	0.719597	0.469856
O7	O	0.962679	0.219872	0.198111
O8	O	1.462679	0.719872	0.698111
O9	O	0.938894	-0.009805	-0.006829
O10	O	1.438894	0.490195	0.493171
O11	O	0.823902	-0.022468	0.114961
O12	O	1.323902	0.477532	0.614961
O13	O	1.055749	0.003133	0.099637
O14	O	1.555749	0.503133	0.599637
Zn15	Zn	0.936345	-0.046090	0.111001
Zn16	Zn	1.436345	0.453910	0.611001
Zn17	Zn	0.965228	0.256158	0.080281
Zn18	Zn	1.465228	0.756158	0.580281
O19	O	0.940757	-0.009530	0.221427
O20	O	1.440757	0.490470	0.721427
C21	C	0.805059	0.088942	0.103153
C22	C	1.305059	0.588942	0.603153
C23	C	0.716254	0.079134	0.102695
C24	C	1.216254	0.579134	0.602695
N25	N	0.916639	-0.252366	0.131966
N26	N	1.416639	0.247634	0.631966
C27	C	0.215090	0.010505	0.101510
C28	C	0.715090	0.510505	0.601510
C29	C	0.298532	0.019723	0.101940
C30	C	0.798532	0.519723	0.601940
C31	C	0.352203	0.149382	0.089439
C32	C	0.852203	0.649382	0.589439
C33	C	0.322428	0.269830	0.076516
C34	C	0.822428	0.769830	0.576516
C35	C	0.238987	0.260611	0.076092
C36	C	0.738987	0.760611	0.576092
C37	C	0.603038	0.190364	0.089348
C38	C	1.103038	0.690364	0.589348
C39	C	0.686484	0.199574	0.089771
C40	C	1.186484	0.699574	0.589771
C41	C	0.662582	-0.050534	0.115196
C42	C	1.162582	0.449466	0.615196
C43	C	0.579141	-0.059742	0.114767
C44	C	1.079141	0.440258	0.614767
C45	C	0.549372	0.060706	0.101848
C46	C	1.049372	0.560706	0.601848
N47	N	0.437495	0.158807	0.089875
N48	N	0.937495	0.658807	0.589875
N49	N	0.464082	0.051280	0.101417
N50	N	0.964082	0.551280	0.601417
C51	C	0.958366	-0.315550	0.087571
C52	C	1.458366	0.184450	0.587571
C53	C	0.943207	-0.474386	0.103712
C54	C	1.443207	0.025614	0.603712
C55	C	1.096514	0.121128	0.088129
C56	C	1.596514	0.621128	0.588129
C57	C	1.185320	0.130945	0.088586
C58	C	1.685320	0.630945	0.588586
C59	C	0.947463	0.104626	-0.047669
C60	C	1.447463	0.604626	0.452331
C61	C	0.940327	0.103820	-0.134624
C62	C	1.440327	0.603820	0.365376
N63	N	0.984939	0.462434	0.059311
N64	N	1.484939	0.962434	0.559311
C65	C	0.892405	0.098653	-0.623009
C66	C	1.392405	0.598653	-0.123009
C67	C	0.899113	0.099380	-0.541303
C68	C	1.399113	0.599380	-0.041303
C69	C	0.974663	0.107704	-0.510684
C70	C	1.474663	0.607704	-0.010684
C71	C	1.043510	0.115315	-0.561778
C72	C	1.543510	0.615315	-0.061778
C73	C	1.036802	0.114597	-0.643483
C74	C	1.536802	0.614597	-0.143483
C75	C	1.002467	0.110713	-0.267422
C76	C	1.502467	0.610713	0.232578
C77	C	1.009169	0.111426	-0.185710
C78	C	1.509169	0.611426	0.314290
C79	C	0.864772	0.095494	-0.165241
C80	C	1.364772	0.595494	0.334759
C81	C	0.858070	0.094769	-0.246948
C82	C	1.358070	0.594769	0.253052
C83	C	0.926918	0.102387	-0.298035
C84	C	1.426918	0.602387	0.201965
N85	N	0.981521	0.108443	-0.427168
N86	N	1.481521	0.608443	0.072832
N87	N	0.920060	0.101658	-0.381551
N88	N	1.420060	0.601658	0.118449
C89	C	0.954110	0.105444	0.238951
C90	C	1.454110	0.605444	0.738951
C91	C	0.961247	0.106259	0.325905
C92	C	1.461247	0.606259	0.825905
H93	H	0.171395	-0.095077	0.111693
H94	H	0.671395	0.404923	0.611693
H95	H	1.092861	0.120797	-0.685078
H96	H	1.592861	0.620797	-0.185078
Cl97	Cl	0.844150	-0.350390	0.209095
Cl98	Cl	1.344150	0.149610	0.709095
H99	H	1.058527	0.116908	-0.309007
H100	H	1.558527	0.616908	0.190993
Cl101	Cl	0.335953	-0.131694	0.118193
Cl102	Cl	0.835953	0.368306	0.618193
Cl103	Cl	1.138488	0.125789	-0.523287
Cl104	Cl	1.638488	0.625789	-0.023287
H105	H	0.808720	0.089294	-0.123638
H106	H	1.308720	0.589294	0.376362
Cl107	Cl	0.565626	0.341786	0.073102
Cl108	Cl	1.065626	0.841786	0.573102
Cl109	Cl	0.797422	0.088178	-0.661491
Cl110	Cl	1.297422	0.588178	-0.161491
H111	H	0.843055	0.093191	-0.499711
H112	H	1.343055	0.593191	0.000289
Cl113	Cl	0.511672	-0.222748	0.130501
Cl114	Cl	1.011672	0.277252	0.630501
H115	H	0.686829	-0.148596	0.125716
H116	H	1.186829	0.351404	0.625716
Cl117	Cl	0.763090	0.084309	-0.285434
Cl118	Cl	1.263090	0.584309	0.214566
H119	H	0.896253	-0.537878	0.153670
H120	H	1.396253	-0.037878	0.653670
H121	H	0.730183	0.305163	0.079597
H122	H	1.230183	0.805163	0.579597
H123	H	1.070693	0.118204	-0.160785
H124	H	1.570693	0.618204	0.339215
H125	H	0.214751	0.358686	0.065570
H126	H	0.714751	0.858686	0.565570
Cl127	Cl	0.389901	0.432831	0.060801
Cl128	Cl	0.889901	0.932831	0.560801
Cl129	Cl	1.057609	-0.439532	-0.017662
Cl130	Cl	1.557609	0.060468	0.482338
Cl131	Cl	1.030659	-0.217548	0.010265
Cl132	Cl	1.530659	0.282452	0.510265
