data_functionalizedCrystal
_audit_creation_method	'MofGen! by Chris Wilmer'
_symmetry_space_group_name_H-M	'P1'
_symmetry_Int_Tables_number	1
_symmetry_cell_setting	triclinic
loop_
_symmetry_equiv_pos_as_xyz
  x,y,z
_cell_length_a	14.853566
_cell_length_b	23.532407
_cell_length_c	13.330367
_cell_angle_alpha	89.990692
_cell_angle_beta	89.995295
_cell_angle_gamma	83.241546
loop_
_atom_site_label
_atom_site_type_symbol
_atom_site_fract_x
_atom_site_fract_y
_atom_site_fract_z
O1	O	1.195556	0.074349	-0.083368
O2	O	0.933000	0.083207	-0.083386
O3	O	1.072195	-0.004119	-0.083358
O4	O	1.056361	0.161675	-0.083396
O5	O	1.072175	-0.004121	0.083489
O6	O	0.932980	0.083205	0.083461
O7	O	1.195536	0.074347	0.083479
Cu8	Cu	1.064256	0.078776	0.098705
Cu9	Cu	1.064280	0.078778	-0.098611
O10	O	1.056341	0.161673	0.083451
C11	C	0.899405	0.082805	0.000036
C12	C	0.799335	0.081603	0.000030
C13	C	0.376216	0.076518	-0.090900
C14	C	0.376216	0.076516	0.091003
C15	C	0.470238	0.077646	0.091000
C16	C	0.517253	0.078212	0.000045
C17	C	0.470247	0.077649	-0.090906
C18	C	0.517250	0.078214	0.181950
C19	C	0.611277	0.079344	0.181950
C20	C	0.658295	0.079906	0.090994
C21	C	0.611283	0.079343	0.000039
C22	C	0.658298	0.079909	-0.090915
C23	C	0.611289	0.079342	-0.181871
C24	C	0.517264	0.078211	-0.181862
C25	C	0.752320	0.081036	0.090985
C26	C	0.752328	0.081040	-0.090921
C27	C	1.071782	-0.025338	0.000068
C28	C	1.070570	-0.088560	0.000076
C29	C	1.145339	-0.487337	0.000026
C30	C	1.144213	-0.546742	0.000018
O31	O	1.213524	-0.583184	-0.000014
N32	N	1.061461	-0.569729	0.000013
C33	C	0.979830	-0.533308	0.000006
O34	O	0.909340	-0.558315	0.000000
C35	C	0.980957	-0.473904	0.000006
C36	C	1.063714	-0.450920	0.000022
C37	C	1.228089	-0.464353	0.000040
C38	C	1.229215	-0.404952	0.000049
C39	C	1.147591	-0.368535	0.000045
C40	C	1.064840	-0.391519	0.000031
C41	C	0.899327	-0.437483	-0.000008
C42	C	0.900462	-0.378076	-0.000008
C43	C	0.983219	-0.355092	0.000007
C44	C	0.984341	-0.295701	0.000036
N45	N	1.067093	-0.272714	0.000041
C46	C	1.148718	-0.309131	0.000046
C47	C	0.977469	-0.658060	0.000003
C48	C	0.976341	-0.717463	0.000010
C49	C	1.140724	-0.730894	0.000020
C50	C	1.141851	-0.671490	0.000021
C51	C	1.060221	-0.635073	0.000008
C52	C	1.151076	-0.184384	0.000067
C53	C	1.152194	-0.124977	0.000080
C54	C	0.987812	-0.111552	0.000065
C55	C	0.986693	-0.170953	0.000056
C56	C	1.068332	-0.207369	0.000054
O57	O	0.915066	-0.259224	0.000065
O58	O	1.219196	-0.284115	0.000038
C59	C	1.229131	0.074750	0.000056
C60	C	1.329201	0.075952	0.000055
C61	C	1.056754	0.182892	0.000023
C62	C	1.057966	0.246115	0.000009
N63	N	1.064246	0.078774	0.237486
N64	N	1.064297	0.078776	-0.237393
C65	C	1.002642	0.117431	0.710097
C66	C	1.125943	0.040121	0.710090
C67	C	1.125932	0.040119	0.605071
C68	C	1.064277	0.078775	0.552561
C69	C	1.002631	0.117432	0.605069
C70	C	1.187583	0.001467	0.552555
C71	C	1.187576	0.001464	0.447531
C72	C	1.125915	0.040117	0.395018
C73	C	1.064266	0.078775	0.447533
C74	C	1.002611	0.117431	0.395022
C75	C	0.940957	0.156087	0.447535
C76	C	0.940971	0.156085	0.552557
C77	C	1.125902	0.040119	0.289997
C78	C	1.002601	0.117431	0.289994
H79	H	0.478981	0.077749	-0.255913
H80	H	0.790602	0.081499	-0.164989
O81	O	1.307446	-0.499665	-0.000086
C82	C	1.357725	-0.489232	-0.086502
H83	H	1.335162	-0.444192	-0.115319
H84	H	1.432948	-0.493334	-0.067054
H85	H	1.345723	-0.521734	-0.147010
H86	H	0.952441	0.148903	0.752855
H87	H	0.833987	-0.348428	-0.000020
O88	O	0.906225	-0.193189	0.000001
C89	C	0.834424	-0.148305	0.000028
H90	H	0.859331	-0.107923	-0.031539
H91	H	0.776624	-0.160760	-0.048429
H92	H	0.809256	-0.139937	0.080071
O93	O	0.657047	0.079971	-0.270158
C94	C	0.700757	0.129918	-0.275619
H95	H	0.711276	0.146519	-0.196654
H96	H	0.769278	0.119633	-0.314102
H97	H	0.657064	0.163990	-0.320515
O98	O	0.330621	0.075870	-0.179278
C99	C	0.364272	0.026873	-0.234612
H100	H	0.397560	-0.007264	-0.181389
H101	H	0.306017	0.009588	-0.275867
H102	H	0.416446	0.038675	-0.291322
H103	H	0.790589	0.081504	0.165040
H104	H	0.337930	0.076059	0.165055
O105	O	0.471558	0.077568	0.270268
C106	C	0.427803	0.027638	0.275718
H107	H	0.463593	-0.006471	0.224125
H108	H	0.430297	0.011088	0.356167
H109	H	0.354139	0.037921	0.251270
O110	O	0.818856	-0.459705	-0.000072
C111	C	0.747067	-0.414814	-0.000057
H112	H	0.771987	-0.374438	-0.031634
H113	H	0.689264	-0.427266	-0.048512
H114	H	0.721899	-0.406437	0.079983
H115	H	0.921355	-0.081891	0.000065
H116	H	1.237785	-0.030002	0.595313
H117	H	0.649545	0.079805	0.256012
O118	O	1.232668	-0.102746	0.000046
C119	C	1.304467	-0.147632	0.000069
H120	H	1.279568	-0.188002	-0.031525
H121	H	1.362283	-0.135162	-0.048365
H122	H	1.329610	-0.156026	0.080115
H123	H	0.952390	0.148907	0.247247
H124	H	1.217555	-0.214027	0.000061
H125	H	1.176145	0.008652	0.752847
O126	O	1.309551	-0.382564	-0.000083
C127	C	1.315145	-0.348610	-0.086509
H128	H	1.243957	-0.333867	-0.115315
H129	H	1.350737	-0.309688	-0.067077
H130	H	1.355263	-0.374819	-0.147018
H131	H	1.237776	-0.030012	0.404781
H132	H	0.890760	0.187563	0.404769
O133	O	1.222320	-0.649260	-0.000019
C134	C	1.294116	-0.694148	0.000013
H135	H	1.269212	-0.734520	-0.031571
H136	H	1.351932	-0.681684	-0.048427
H137	H	1.319259	-0.702537	0.080060
O138	O	1.219934	-0.766357	-0.000032
C139	C	1.201184	-0.823714	-0.000017
H140	H	1.130394	-0.826044	-0.031602
H141	H	1.253242	-0.850578	-0.048464
H142	H	1.204756	-0.840902	0.080025
H143	H	0.890775	0.187558	0.595319
O144	O	0.895871	-0.739691	-0.000038
C145	C	0.824076	-0.694804	-0.000013
H146	H	0.848986	-0.654426	-0.031592
H147	H	0.766270	-0.707259	-0.048460
H148	H	0.798916	-0.686429	0.080032
H149	H	1.176103	0.008648	0.247246
H150	H	0.910992	-0.628413	0.000001
