data_functionalizedCrystal
_audit_creation_method	'MofGen! by Chris Wilmer'
_symmetry_space_group_name_H-M	'P1'
_symmetry_Int_Tables_number	1
_symmetry_cell_setting	triclinic
loop_
_symmetry_equiv_pos_as_xyz
  x,y,z
_cell_length_a	16.959454
_cell_length_b	12.827893
_cell_length_c	12.827885
_cell_angle_alpha	89.980538
_cell_angle_beta	89.970356
_cell_angle_gamma	90.020046
loop_
_atom_site_label
_atom_site_type_symbol
_atom_site_fract_x
_atom_site_fract_y
_atom_site_fract_z
Zn1	Zn	-0.314644	1.597638	-0.590850
Zn2	Zn	-0.446843	1.597517	-0.416110
Zn3	Zn	-0.314682	1.422878	-0.416123
Zn4	Zn	-0.446784	1.422850	-0.590810
O5	O	-0.380738	1.510221	-0.503473
O6	O	-0.332189	1.743858	-0.567681
O7	O	-0.429352	1.574312	-0.269876
O8	O	-0.204066	1.446123	-0.439323
O9	O	-0.429315	1.743769	-0.439301
O10	O	-0.204038	1.574518	-0.567694
O11	O	-0.332254	1.446006	-0.269885
O12	O	-0.332197	1.276639	-0.439285
O13	O	-0.429215	1.446075	-0.737052
O14	O	-0.429252	1.276618	-0.567627
O15	O	-0.332132	1.574490	-0.737081
O16	O	-0.557446	1.574284	-0.439263
O17	O	-0.557403	1.445957	-0.567614
C18	C	-0.380723	1.238711	-0.503454
C19	C	-0.380736	1.122558	-0.503470
C20	C	-0.332660	0.950711	-0.440093
C21	C	-0.332646	1.070762	-0.440075
C22	C	-0.586105	1.510133	-0.503456
C23	C	-0.673961	1.510191	-0.503483
C24	C	-1.045444	1.443498	-0.570299
C25	C	-1.045429	1.577235	-0.436755
C26	C	-0.962883	1.577198	-0.436745
C27	C	-0.921614	1.510309	-0.503512
C28	C	-0.962891	1.443457	-0.570289
C29	C	-0.921601	1.644042	-0.369962
C30	C	-0.839050	1.644007	-0.369949
C31	C	-0.797779	1.577123	-0.436722
C32	C	-0.839061	1.510269	-0.503502
C33	C	-0.797791	1.443380	-0.570270
C34	C	-0.839071	1.376530	-0.637056
C35	C	-0.921620	1.376573	-0.637062
C36	C	-0.715231	1.577080	-0.436716
C37	C	-0.715238	1.443339	-0.570260
C38	C	-0.174570	1.510337	-0.503514
C39	C	-0.086714	1.510387	-0.503532
C40	C	-0.380662	1.510293	-0.776044
C41	C	-0.380630	1.510323	-0.892197
C42	C	-0.380754	1.782791	-0.503494
C43	C	-0.380761	1.898944	-0.503503
C44	C	-0.332574	1.446854	-0.943986
C45	C	-0.332539	1.446884	-1.064037
C46	C	-0.380757	1.510209	-0.231964
C47	C	-0.380567	1.510381	-0.115811
H48	H	-0.421921	1.078046	-0.557757
C49	C	-0.966541	1.304161	-0.709619
C50	C	-1.013891	1.363313	-0.776635
C51	C	-1.055295	1.296641	-0.843474
H52	H	-0.930235	1.264293	-0.749486
H53	H	-0.998829	1.258686	-0.669628
H54	H	-0.981606	1.408770	-0.816623
H55	H	-1.050212	1.403179	-0.736798
H56	H	-1.087583	1.251166	-0.803483
H57	H	-1.018983	1.256777	-0.883333
H58	H	-1.087432	1.336766	-0.888946
H59	H	-0.291487	0.906155	-0.385823
H60	H	-0.421928	0.943501	-0.557781
H61	H	-0.291459	1.392489	-0.899448
H62	H	-0.421748	1.564683	-0.936735
C63	C	-0.277590	1.374384	-1.123225
C64	C	-0.233275	1.315817	-1.052186
C65	C	-0.182639	1.249027	-1.106673
H66	H	-0.307752	1.328793	-1.165800
H67	H	-0.243125	1.414405	-1.165790
H68	H	-0.267735	1.275799	-1.009639
H69	H	-0.203096	1.361381	-1.009608
H70	H	-0.148174	1.289048	-1.149238
H71	H	-0.212808	1.203442	-1.149246
H72	H	-0.152560	1.209288	-1.058482
C73	C	-0.435530	1.582667	-1.056385
C74	C	-0.486176	1.523394	-0.993728
C75	C	-0.536827	1.589946	-0.938973
H76	H	-0.405372	1.628189	-1.013730
H77	H	-0.465705	1.622489	-1.104407
H78	H	-0.456005	1.483589	-0.945711
H79	H	-0.516352	1.477874	-1.036357
H80	H	-0.567001	1.629768	-0.986995
H81	H	-0.506662	1.635465	-0.896324
H82	H	-0.571200	1.549738	-0.896461
H83	H	-0.681641	1.388874	-0.624634
C84	C	-0.277832	1.130059	-0.367507
C85	C	-0.294951	1.103548	-0.264053
C86	C	-0.244479	1.158165	-0.197172
H87	H	-0.224698	1.112293	-0.382767
H88	H	-0.285129	1.202867	-0.377045
H89	H	-0.287647	1.030756	-0.254520
H90	H	-0.348076	1.121317	-0.248761
H91	H	-0.251776	1.230973	-0.206710
H92	H	-0.191347	1.140394	-0.212441
H93	H	-0.256091	1.140192	-0.126971
C94	C	-0.794117	1.304022	-0.709504
C95	C	-0.712991	1.318315	-0.695208
C96	C	-0.671552	1.251551	-0.761935
H97	H	-0.807596	1.233780	-0.694221
H98	H	-0.807552	1.319296	-0.779758
H99	H	-0.699562	1.303033	-0.624970
H100	H	-0.699489	1.388543	-0.710498
H101	H	-0.684987	1.266825	-0.832189
H102	H	-0.685037	1.181312	-0.746647
H103	H	-0.616504	1.261246	-0.752251
C104	C	-1.090376	1.649767	-0.364335
C105	C	-1.171503	1.635489	-0.378631
C106	C	-1.212935	1.702281	-0.311923
H107	H	-1.076963	1.634531	-0.294078
H108	H	-1.076869	1.720005	-0.379659
H109	H	-1.185005	1.565267	-0.363299
H110	H	-1.184939	1.650732	-0.448873
H111	H	-1.199429	1.772519	-0.327247
H112	H	-1.199517	1.687040	-0.241671
H113	H	-1.267985	1.692609	-0.321621
C114	C	-1.090359	1.371089	-0.642866
C115	C	-1.137699	1.430246	-0.709890
C116	C	-1.179094	1.363579	-0.776744
H117	H	-1.054047	1.331224	-0.682726
H118	H	-1.122653	1.325612	-0.602886
H119	H	-1.105408	1.475705	-0.749867
H120	H	-1.174025	1.470109	-0.670059
H121	H	-1.211387	1.318101	-0.736763
H122	H	-1.142776	1.323716	-0.816596
H123	H	-1.211224	1.403706	-0.822221
H124	H	-0.955208	1.698491	-0.315596
H125	H	-0.805445	1.698440	-0.315569
H126	H	-0.681624	1.631503	-0.382334
