data_functionalizedCrystal
_audit_creation_method	'MofGen! by Chris Wilmer'
_symmetry_space_group_name_H-M	'P1'
_symmetry_Int_Tables_number	1
_symmetry_cell_setting	triclinic
loop_
_symmetry_equiv_pos_as_xyz
  x,y,z
_cell_length_a	12.594517
_cell_length_b	21.295417
_cell_length_c	21.295411
_cell_angle_alpha	89.978356
_cell_angle_beta	89.975147
_cell_angle_gamma	90.030306
loop_
_atom_site_label
_atom_site_type_symbol
_atom_site_fract_x
_atom_site_fract_y
_atom_site_fract_z
Zn1	Zn	1.627197	-0.250684	-0.355916
Zn2	Zn	1.627032	-0.355936	-0.250642
Zn3	Zn	1.449190	-0.250684	-0.250661
Zn4	Zn	1.449138	-0.355919	-0.355873
O5	O	1.538139	-0.303306	-0.303273
O6	O	1.776121	-0.264653	-0.341962
O7	O	1.603393	-0.341981	-0.162555
O8	O	1.472894	-0.162595	-0.264649
O9	O	1.776000	-0.341981	-0.264617
O10	O	1.603675	-0.162595	-0.341980
O11	O	1.472734	-0.264653	-0.162569
O12	O	1.300237	-0.264637	-0.264607
O13	O	1.472805	-0.341952	-0.443968
O14	O	1.300199	-0.341953	-0.341906
O15	O	1.603625	-0.264637	-0.444000
O16	O	1.603343	-0.444023	-0.264575
O17	O	1.472645	-0.444011	-0.341888
C18	C	1.261598	-0.303293	-0.303254
C19	C	1.143293	-0.303303	-0.303261
C20	C	1.074030	-0.261194	-0.261299
C21	C	1.003192	-0.318610	-0.245807
C22	C	1.003331	-0.245915	-0.318764
C23	C	1.074014	-0.360749	-0.287740
C24	C	1.074159	-0.288016	-0.360723
C25	C	1.003354	-0.345472	-0.345253
C26	C	1.538000	-0.466858	-0.303238
C27	C	1.538037	-0.536826	-0.303244
C28	C	1.606152	-0.569678	-0.263029
C29	C	1.606202	-0.635420	-0.263043
C30	C	1.538118	-0.668308	-0.303266
C31	C	1.469999	-0.635448	-0.343489
C32	C	1.469958	-0.569707	-0.343478
N33	N	1.445008	-0.771575	-0.308059
N34	N	1.445050	-0.834026	-0.308065
C35	C	1.538237	-0.866383	-0.303302
N36	N	1.631384	-0.833929	-0.298520
N37	N	1.631342	-0.771472	-0.298510
C38	C	1.538155	-0.739594	-0.303282
C39	C	1.606412	-0.970521	-0.263100
C40	C	1.606464	-1.036264	-0.263118
C41	C	1.470251	-1.036291	-0.343561
C42	C	1.470209	-0.970548	-0.343546
C43	C	1.538288	-0.937667	-0.303312
C44	C	1.815760	-0.303319	-0.303292
C45	C	1.934066	-0.303325	-0.303300
C46	C	1.538228	-0.303293	-0.467463
C47	C	1.538265	-0.303287	-0.537431
C48	C	1.538308	-0.139116	-0.303322
C49	C	1.538380	-0.069148	-0.303342
C50	C	1.606380	-0.263027	-0.570316
C51	C	1.606378	-0.263000	-0.636058
C52	C	1.538274	-0.303244	-0.668914
C53	C	1.470146	-0.343507	-0.636022
C54	C	1.470142	-0.343528	-0.570280
N55	N	1.530062	-0.358311	-0.772129
N56	N	1.530072	-0.358289	-0.834581
C57	C	1.538280	-0.303180	-0.866989
N58	N	1.546499	-0.248093	-0.834586
N59	N	1.546494	-0.248116	-0.772129
C60	C	1.538270	-0.303224	-0.740199
C61	C	1.606397	-0.262887	-0.971159
C62	C	1.606388	-0.262858	-1.036902
C63	C	1.470161	-0.343371	-1.036865
C64	C	1.470164	-0.343394	-0.971122
C65	C	1.538288	-0.303153	-0.938273
C66	C	1.538113	-0.303274	-0.139721
C67	C	1.538281	-0.303102	-0.069754
H68	H	1.105354	-0.275055	-0.409286
H69	H	1.105062	-0.225618	-0.225769
C70	C	1.395214	-0.387817	-0.534102
C71	C	1.441280	-0.437255	-0.488914
C72	C	1.366352	-0.481544	-0.452732
C73	C	1.245358	-0.476395	-0.461739
C74	C	1.199285	-0.426954	-0.506929
C75	C	1.274213	-0.382666	-0.543110
H76	H	1.530853	-0.441069	-0.482244
H77	H	1.400459	-0.518143	-0.419280
H78	H	1.189892	-0.509180	-0.434956
H79	H	1.109713	-0.423141	-0.513598
H80	H	1.240107	-0.346067	-0.576563
H81	H	1.661589	-0.542908	-0.230269
C82	C	1.395104	-0.671622	-0.387734
C83	C	1.274103	-0.662647	-0.382533
C84	C	1.199210	-0.698821	-0.426782
C85	C	1.245318	-0.743969	-0.476233
C86	C	1.366325	-0.752945	-0.481437
C87	C	1.441218	-0.716772	-0.437188
H88	H	1.239966	-0.629224	-0.345924
H89	H	1.109632	-0.692175	-0.422929
H90	H	1.189877	-0.770746	-0.508989
H91	H	1.400462	-0.786368	-0.518045
H92	H	1.530795	-0.723417	-0.441040
H93	H	1.414739	-0.943798	-0.376291
H94	H	1.414490	-0.542958	-0.376228
C95	C	1.681401	-1.072403	-0.218880
C96	C	1.672762	-1.063411	-0.147312
C97	C	1.747702	-1.099550	-0.103073
C98	C	1.831282	-1.144680	-0.130402
C99	C	1.839926	-1.153673	-0.201974
C100	C	1.764985	-1.117535	-0.246213
H101	H	1.610887	-1.030002	-0.127078
H102	H	1.741303	-1.092892	-0.050091
H103	H	1.886758	-1.171431	-0.097654
H104	H	1.901800	-1.187083	-0.222208
H105	H	1.771384	-1.124193	-0.299195
H106	H	1.661673	-0.662174	-0.230295
C107	C	0.961384	-0.180341	-0.336460
C108	C	0.989292	-0.123152	-0.295414
C109	C	0.947349	-0.057577	-0.313104
C110	C	0.877498	-0.049191	-0.371842
C111	C	0.849587	-0.106381	-0.412892
C112	C	0.891530	-0.171956	-0.395202
H113	H	1.041003	-0.129359	-0.251929
H114	H	0.968012	-0.015241	-0.282716
H115	H	0.846450	-0.000648	-0.384938
H116	H	0.797876	-0.100174	-0.456377
H117	H	0.870867	-0.214292	-0.425590
C118	C	1.395231	-0.387777	-0.672160
C119	C	1.395237	-0.387758	-0.744473
C120	C	1.320315	-0.432027	-0.780610
C121	C	1.245386	-0.476315	-0.744434
C122	C	1.245378	-0.476336	-0.672117
C123	C	1.320300	-0.432066	-0.635980
H124	H	1.450705	-0.354972	-0.771256
H125	H	1.320321	-0.432012	-0.834144
H126	H	1.189925	-0.509086	-0.771185
H127	H	1.189909	-0.509122	-0.645334
H128	H	1.320293	-0.432082	-0.582446
H129	H	1.661850	-0.943748	-0.230340
C130	C	1.395353	-1.072459	-0.387807
C131	C	1.395391	-1.144772	-0.387821
C132	C	1.320493	-1.180943	-0.432068
C133	C	1.245557	-1.144802	-0.476302
C134	C	1.245517	-1.072485	-0.476290
C135	C	1.320415	-1.036314	-0.432042
H136	H	1.450866	-1.171529	-0.355074
H137	H	1.320524	-1.234477	-0.432077
H138	H	1.190113	-1.171579	-0.509057
H139	H	1.190042	-1.045728	-0.509036
H140	H	1.320384	-0.982780	-0.432034
H141	H	1.661853	-0.230070	-1.063676
H142	H	1.661850	-0.230259	-0.543574
C143	C	1.681317	-0.218716	-0.672241
C144	C	1.756251	-0.174455	-0.636109
C145	C	1.831193	-0.130174	-0.672290
C146	C	1.831201	-0.130155	-0.744603
C147	C	1.756264	-0.174417	-0.780739
C148	C	1.681322	-0.218698	-0.744558
H149	H	1.756248	-0.174468	-0.582575
H150	H	1.886666	-0.097408	-0.645539
H151	H	1.886677	-0.097375	-0.771386
H152	H	1.756267	-0.174404	-0.834273
H153	H	1.625849	-0.251465	-0.771309
C154	C	1.681318	-0.218618	-0.935018
C155	C	1.672700	-0.147053	-0.944052
C156	C	1.747619	-0.102784	-0.907913
C157	C	1.831157	-0.130080	-0.862739
C158	C	1.839779	-0.201649	-0.853702
C159	C	1.764859	-0.245918	-0.889842
H160	H	1.610857	-0.126843	-0.977495
H161	H	1.741237	-0.049803	-0.914603
H162	H	1.886617	-0.097309	-0.835986
H163	H	1.901621	-0.221859	-0.820260
H164	H	1.771242	-0.298898	-0.883152
C165	C	1.395242	-0.387640	-1.072998
C166	C	1.395240	-0.387618	-1.145311
C167	C	1.320315	-0.431886	-1.181447
C168	C	1.245391	-0.476176	-1.145271
C169	C	1.245390	-0.476200	-1.072954
C170	C	1.320315	-0.431932	-1.036817
H171	H	1.450706	-0.354830	-1.172094
H172	H	1.320316	-0.431869	-1.234981
H173	H	1.189927	-0.508946	-1.172021
H174	H	1.189925	-0.508987	-1.046170
H175	H	1.320314	-0.431949	-0.983283
C176	C	1.115773	-0.426345	-0.269969
C177	C	1.037134	-0.479836	-0.255527
C178	C	1.078895	-0.545430	-0.237754
C179	C	1.199296	-0.557532	-0.234423
C180	C	1.277943	-0.504040	-0.248866
C181	C	1.236182	-0.438446	-0.266638
H182	H	0.947999	-0.470879	-0.257992
H183	H	1.020675	-0.585029	-0.227063
H184	H	1.230211	-0.606088	-0.221267
H185	H	1.367078	-0.512997	-0.246400
H186	H	1.294402	-0.398847	-0.277329
C187	C	1.395239	-0.387687	-0.934950
C188	C	1.274247	-0.382539	-0.943969
C189	C	1.199311	-0.426834	-0.907800
C190	C	1.245367	-0.476276	-0.862612
C191	C	1.366366	-0.481425	-0.853592
C192	C	1.441301	-0.437131	-0.889761
H193	H	1.240147	-0.345938	-0.977421
H194	H	1.109740	-0.423021	-0.914477
H195	H	1.189896	-0.509065	-0.835838
H196	H	1.400465	-0.518027	-0.820140
H197	H	1.530872	-0.440944	-0.883083
C198	C	0.961687	-0.393642	-0.393218
C199	C	0.989848	-0.463632	-0.385992
C200	C	0.948182	-0.511804	-0.433954
C201	C	0.878354	-0.489986	-0.489141
C202	C	0.850189	-0.419992	-0.496369
C203	C	0.891856	-0.371821	-0.448407
H204	H	1.041543	-0.479786	-0.345138
H205	H	0.969032	-0.563618	-0.428604
H206	H	0.847510	-0.525645	-0.524645
H207	H	0.798495	-0.403838	-0.537223
H208	H	0.871006	-0.320007	-0.453757
H209	H	0.972023	-0.331554	-0.197230
