data_functionalizedCrystal
_audit_creation_method	'MofGen! by Chris Wilmer'
_symmetry_space_group_name_H-M	'P1'
_symmetry_Int_Tables_number	1
_symmetry_cell_setting	triclinic
loop_
_symmetry_equiv_pos_as_xyz
  x,y,z
_cell_length_a	15.944493
_cell_length_b	9.065218
_cell_length_c	7.540329
_cell_angle_alpha	90.005135
_cell_angle_beta	90.002283
_cell_angle_gamma	95.754502
loop_
_atom_site_label
_atom_site_type_symbol
_atom_site_fract_x
_atom_site_fract_y
_atom_site_fract_z
O1	O	0.123164	-1.957474	-0.147547
O2	O	0.133267	-1.527950	-0.147528
O3	O	0.006027	-1.754486	-0.147553
O4	O	0.250404	-1.730938	-0.147522
O5	O	0.006025	-1.754473	0.147412
O6	O	0.133265	-1.527936	0.147437
O7	O	0.123163	-1.957461	0.147418
Cu8	Cu	0.128214	-1.742697	0.174360
Cu9	Cu	0.128216	-1.742713	-0.174470
O10	O	0.250403	-1.730925	0.147443
C11	C	0.132295	-1.472980	-0.000044
C12	C	0.129392	-1.309206	-0.000038
C13	C	-0.025276	-1.753517	-0.000078
C14	C	-0.118547	-1.750631	-0.000100
C15	C	-0.353296	-1.883976	-0.000072
C16	C	-0.404408	-1.812075	-0.145501
C17	C	-0.289308	-1.745285	-0.000078
C18	C	-0.404386	-1.812029	0.145311
C19	C	-0.454257	-1.740131	-0.000049
C20	C	-0.339192	-1.673421	-0.145627
C21	C	-0.339166	-1.673396	0.145316
C22	C	-0.390246	-1.601393	-0.000149
C23	C	-0.194286	-1.748258	-0.000096
C24	C	-0.549277	-1.737147	-0.000044
C25	C	0.281706	-1.731894	-0.000036
C26	C	0.374976	-1.734779	-0.000025
N27	N	0.128212	-1.742697	0.419709
C28	C	0.124134	-1.012431	-0.000059
C29	C	0.127037	-1.176205	-0.000044
N30	N	0.128211	-1.742726	-0.419819
H31	H	-0.336763	-2.003440	-0.000224
H32	H	-0.310815	-1.614889	-0.268708
H33	H	-0.406618	-1.481836	-0.000223
O34	O	-0.438452	-1.881709	0.292044
C35	C	-0.480307	-1.780919	0.393526
H36	H	-0.498148	-1.687252	0.304647
H37	H	-0.436864	-1.733101	0.503874
C38	C	-0.538698	-1.976986	0.584542
C39	C	-0.560617	-1.861950	0.475376
H40	H	-0.588235	-2.026969	0.635039
H41	H	-0.510497	-2.044891	0.516177
H42	H	-0.502495	-1.937121	0.676484
H43	H	-0.596811	-1.901818	0.383424
H44	H	-0.588826	-1.794054	0.543729
O45	O	-0.305192	-1.603789	0.292184
C46	C	-0.338570	-1.677293	0.445223
H47	H	-0.362271	-1.796599	0.410374
H48	H	-0.393079	-1.617857	0.498289
C49	C	-0.240269	-1.530176	0.630589
C50	C	-0.269372	-1.676714	0.587789
H51	H	-0.197587	-1.529814	0.718535
H52	H	-0.217783	-1.480650	0.527485
H53	H	-0.285700	-1.480662	0.674801
H54	H	-0.223944	-1.726219	0.543558
H55	H	-0.291849	-1.726248	0.690889
H56	H	-0.432910	-1.870652	-0.268458
