data_functionalizedCrystal
_audit_creation_method	'MofGen! by Chris Wilmer'
_symmetry_space_group_name_H-M	'P1'
_symmetry_Int_Tables_number	1
_symmetry_cell_setting	triclinic
loop_
_symmetry_equiv_pos_as_xyz
  x,y,z
_cell_length_a	19.077105
_cell_length_b	19.077068
_cell_length_c	18.215399
_cell_angle_alpha	92.268164
_cell_angle_beta	87.683200
_cell_angle_gamma	90.115316
loop_
_atom_site_label
_atom_site_type_symbol
_atom_site_fract_x
_atom_site_fract_y
_atom_site_fract_z
Zn1	Zn	1.062993	-0.322984	-0.474261
Zn2	Zn	1.396326	0.010349	-0.140927
Zn3	Zn	1.729659	0.343683	0.192406
Zn4	Zn	1.058179	-0.440492	-0.355921
Zn5	Zn	1.391512	-0.107159	-0.022588
Zn6	Zn	1.724846	0.226175	0.310745
Zn7	Zn	0.945484	-0.318278	-0.346081
Zn8	Zn	1.278818	0.015056	-0.012747
Zn9	Zn	1.612151	0.348389	0.320586
Zn10	Zn	0.940728	-0.435726	-0.473819
Zn11	Zn	1.274061	-0.102392	-0.140485
Zn12	Zn	1.607394	0.230941	0.192848
O13	O	1.001846	-0.379370	-0.412520
O14	O	1.335179	-0.046037	-0.079187
O15	O	1.668513	0.287297	0.254146
O16	O	1.160686	-0.342536	-0.462866
O17	O	1.494019	-0.009203	-0.129533
O18	O	1.827352	0.324130	0.203801
O19	O	1.043206	-0.424305	-0.251632
O20	O	1.376539	-0.090972	0.081702
O21	O	1.709872	0.242362	0.415035
O22	O	0.965077	-0.220572	-0.359151
O23	O	1.298411	0.112761	-0.025817
O24	O	1.631744	0.446095	0.307516
O25	O	1.157149	-0.428869	-0.375923
O26	O	1.490482	-0.095536	-0.042589
O27	O	1.823816	0.237798	0.290744
O28	O	1.051410	-0.224030	-0.453324
O29	O	1.384744	0.109304	-0.119991
O30	O	1.718077	0.442637	0.213343
O31	O	0.960409	-0.334515	-0.244402
O32	O	1.293743	-0.001181	0.088932
O33	O	1.627076	0.332152	0.422265
O34	O	0.846522	-0.329893	-0.358722
O35	O	1.179855	0.003440	-0.025389
O36	O	1.513189	0.336774	0.307945
O37	O	0.956970	-0.420745	-0.576862
O38	O	1.290304	-0.087412	-0.243528
O39	O	1.623637	0.245921	0.089805
O40	O	0.843027	-0.416182	-0.452571
O41	O	1.176361	-0.082848	-0.119237
O42	O	1.509694	0.250485	0.214096
O43	O	1.046798	-0.337914	-0.577186
O44	O	1.380131	-0.004581	-0.243853
O45	O	1.713465	0.328752	0.089480
O46	O	1.038594	-0.538190	-0.375494
O47	O	1.371927	-0.204856	-0.042161
O48	O	1.705260	0.128477	0.291173
O49	O	0.952303	-0.534688	-0.462113
O50	O	1.285636	-0.201355	-0.128779
O51	O	1.618969	0.131979	0.204554
C52	C	0.819278	-0.372010	-0.404531
C53	C	1.152612	-0.038676	-0.071198
C54	C	1.485945	0.294657	0.262136
C55	C	0.741174	-0.368878	-0.401131
C56	C	1.074508	-0.035545	-0.067798
C57	C	1.407841	0.297789	0.265536
C58	C	0.702677	-0.412400	-0.448325
C59	C	1.036011	-0.079067	-0.114991
C60	C	1.369344	0.254266	0.218342
C61	C	0.629291	-0.409448	-0.445133
C62	C	0.962624	-0.076115	-0.111800
C63	C	1.295957	0.257218	0.221533
C64	C	0.594402	-0.362977	-0.394744
C65	C	0.927736	-0.029644	-0.061411
C66	C	1.261069	0.303689	0.271922
C67	C	0.632905	-0.319450	-0.347549
C68	C	0.966238	0.013883	-0.014216
C69	C	1.299572	0.347216	0.319118
C70	C	0.706290	-0.322399	-0.350744
C71	C	1.039624	0.010934	-0.017411
C72	C	1.372957	0.344268	0.315922
C73	C	0.375117	-0.349330	-0.379959
C74	C	0.708451	-0.015997	-0.046626
C75	C	1.041784	0.317337	0.286707
C76	C	0.301727	-0.346386	-0.376766
C77	C	0.635060	-0.013052	-0.043433
C78	C	0.968393	0.320281	0.289901
C79	C	0.298118	-0.436383	-0.474352
C80	C	0.631451	-0.103050	-0.141018
C81	C	0.964784	0.230283	0.192315
C82	C	0.371504	-0.439331	-0.477539
C83	C	0.704838	-0.105998	-0.144206
C84	C	1.038171	0.227336	0.189127
C85	C	0.410001	-0.395801	-0.430347
C86	C	0.743334	-0.062468	-0.097013
C87	C	1.076667	0.270865	0.236320
N88	N	0.519390	-0.359960	-0.391480
N89	N	0.852723	-0.026627	-0.058146
N90	N	1.186056	0.306706	0.275187
N91	N	0.485012	-0.398815	-0.433616
N92	N	0.818346	-0.065482	-0.100282
N93	N	1.151679	0.267851	0.233051
C94	C	0.994429	-0.561935	-0.419840
C95	C	1.327762	-0.228602	-0.086507
C96	C	1.661095	0.104731	0.246827
C97	C	0.991320	-0.640040	-0.422999
C98	C	1.324653	-0.306707	-0.089665
C99	C	1.657987	0.026626	0.243668
C100	C	1.034821	-0.678535	-0.379426
C101	C	1.368155	-0.345202	-0.046092
C102	C	1.701488	-0.011869	0.287241
C103	C	1.031901	-0.751923	-0.382401
C104	C	1.365235	-0.418590	-0.049068
C105	C	1.698568	-0.085257	0.284266
C106	C	0.985476	-0.786815	-0.428946
C107	C	1.318809	-0.453481	-0.095613
C108	C	1.652143	-0.120148	0.237720
C109	C	0.941973	-0.748314	-0.472524
C110	C	1.275306	-0.414981	-0.139191
C111	C	1.608640	-0.081648	0.194142
C112	C	0.944897	-0.674928	-0.469552
C113	C	1.278230	-0.341595	-0.136219
C114	C	1.611564	-0.008261	0.197114
C115	C	0.971913	-1.006103	-0.442671
C116	C	1.305247	-0.672770	-0.109337
C117	C	1.638580	-0.339437	0.223996
C118	C	0.968991	-1.079495	-0.445638
C119	C	1.302325	-0.746162	-0.112305
C120	C	1.635658	-0.412828	0.221029
C121	C	1.058921	-1.083099	-0.355515
C122	C	1.392254	-0.749766	-0.022182
C123	C	1.725588	-0.416432	0.311151
C124	C	1.061838	-1.009711	-0.352544
C125	C	1.395171	-0.676378	-0.019211
C126	C	1.728504	-0.343044	0.314123
C127	C	1.018337	-0.971217	-0.396125
C128	C	1.351671	-0.637884	-0.062791
C129	C	1.685004	-0.304550	0.270542
N130	N	0.982489	-0.861829	-0.431987
N131	N	1.315822	-0.528495	-0.098654
N132	N	1.649156	-0.195162	0.234679
N133	N	1.021328	-0.896205	-0.393087
N134	N	1.354662	-0.562871	-0.059754
N135	N	1.687995	-0.229538	0.273579
C136	C	1.185126	-0.386759	-0.420541
C137	C	1.518460	-0.053426	-0.087208
C138	C	1.851793	0.279907	0.246125
C139	C	1.263230	-0.389908	-0.423959
C140	C	1.596563	-0.056575	-0.090626
C141	C	1.929896	0.276759	0.242707
C142	C	1.001891	-0.379323	-0.604473
C143	C	1.335224	-0.045990	-0.271140
C144	C	1.668557	0.287344	0.062193
C145	C	1.001910	-0.379303	-0.686272
C146	C	1.335243	-0.045970	-0.352939
C147	C	1.668576	0.287363	-0.019605
C148	C	1.009311	-0.196092	-0.405189
C149	C	1.342645	0.137241	-0.071856
C150	C	1.675978	0.470574	0.261478
C151	C	1.012493	-0.117990	-0.402065
C152	C	1.345826	0.215343	-0.068731
C153	C	1.679159	0.548677	0.264602
C154	C	1.048701	-0.336132	-0.874635
C155	C	1.382034	-0.002799	-0.541302
C156	C	1.715367	0.330535	-0.207969
C157	C	1.048710	-0.336112	-0.951494
C158	C	1.382043	-0.002778	-0.618160
C159	C	1.715377	0.330555	-0.284827
C160	C	0.955173	-0.422368	-0.951144
C161	C	1.288506	-0.089035	-0.617811
C162	C	1.621839	0.244299	-0.284478
C163	C	0.955161	-0.422384	-0.874287
C164	C	1.288494	-0.089051	-0.540954
C165	C	1.621827	0.244283	-0.207621
C166	C	1.001929	-0.379267	-0.836035
C167	C	1.335262	-0.045934	-0.502702
C168	C	1.668595	0.287400	-0.169368
C169	C	1.001950	-0.379231	-0.989751
C170	C	1.335283	-0.045898	-0.656417
C171	C	1.668617	0.287436	-0.323084
C172	C	1.001960	-0.379209	-1.073084
C173	C	1.335293	-0.045876	-0.739750
C174	C	1.668626	0.287457	-0.406417
C175	C	1.001918	-0.379287	-0.752696
C176	C	1.335252	-0.045954	-0.419363
C177	C	1.668585	0.287379	-0.086030
C178	C	1.001844	-0.379367	-0.221314
C179	C	1.335177	-0.046034	0.112019
C180	C	1.668510	0.287299	0.445353
C181	C	1.001969	-0.379195	-0.139513
C182	C	1.335302	-0.045861	0.193820
C183	C	1.668636	0.287472	0.527153
H184	H	0.731078	-0.450245	-0.489354
H185	H	1.064411	-0.116911	-0.156021
H186	H	1.397744	0.216422	0.177312
C187	C	1.106772	-1.125440	-0.307584
C188	C	1.440106	-0.792107	0.025749
C189	C	1.773439	-0.458774	0.359083
H190	H	1.134836	-1.094149	-0.279435
H191	H	1.468170	-0.760816	0.053899
H192	H	1.801503	-0.427482	0.387232
H193	H	1.136235	-1.155257	-0.338257
H194	H	1.469568	-0.821924	-0.004923
H195	H	1.802901	-0.488590	0.328410
H196	H	1.078764	-1.153029	-0.275477
H197	H	1.412097	-0.819695	0.057857
H198	H	1.745431	-0.486362	0.391190
H199	H	0.597949	-0.444890	-0.483563
H200	H	0.931283	-0.111556	-0.150229
H201	H	1.264616	0.221777	0.183104
C202	C	0.890905	-0.786693	-0.523721
C203	C	1.224238	-0.453359	-0.190388
C204	C	1.557571	-0.120026	0.142945
H205	H	0.895387	-0.835912	-0.519246
H206	H	1.228721	-0.502579	-0.185912
H207	H	1.562054	-0.169246	0.147421
H208	H	0.901639	-0.775039	-0.573138
H209	H	1.234973	-0.441706	-0.239805
H210	H	1.568306	-0.108372	0.093529
H211	H	0.844173	-0.772809	-0.510353
H212	H	1.177507	-0.439476	-0.177020
H213	H	1.510840	-0.106143	0.156314
C214	C	0.903713	-0.469840	-0.831824
C215	C	1.237047	-0.136506	-0.498491
C216	C	1.570380	0.196827	-0.165157
H217	H	0.875869	-0.495525	-0.865613
H218	H	1.209203	-0.162191	-0.532280
H219	H	1.542536	0.171142	-0.198946
H220	H	0.874186	-0.441736	-0.799423
H221	H	1.207519	-0.108402	-0.466090
H222	H	1.540852	0.224931	-0.132757
H223	H	0.929351	-0.501546	-0.804247
H224	H	1.262685	-0.168212	-0.470914
H225	H	1.596018	0.165121	-0.137580
H226	H	0.399905	-0.477174	-0.518570
H227	H	0.733238	-0.143841	-0.185236
H228	H	1.066572	0.189492	0.148097
H229	H	1.067324	-0.783263	-0.346919
H230	H	1.400658	-0.449930	-0.013585
H231	H	1.733991	-0.116596	0.319748
C232	C	0.903738	-0.469799	-0.993225
C233	C	1.237072	-0.136466	-0.659891
C234	C	1.570405	0.196868	-0.326558
H235	H	0.910449	-0.463618	-1.044527
H236	H	1.243782	-0.130284	-0.711194
H237	H	1.577115	0.203049	-0.377861
H238	H	0.856941	-0.457619	-0.978150
H239	H	1.190274	-0.124286	-0.644817
H240	H	1.523608	0.209048	-0.311483
H241	H	0.912105	-0.517430	-0.982965
H242	H	1.245439	-0.184096	-0.649632
H243	H	1.578772	0.149237	-0.316298
H244	H	1.086796	-0.300986	-0.982919
H245	H	1.420129	0.032348	-0.649586
H246	H	1.753462	0.365681	-0.316252
H247	H	0.266766	-0.471822	-0.512774
H248	H	0.600100	-0.138488	-0.179441
H249	H	0.933433	0.194845	0.153892
C250	C	0.263351	-0.295261	-0.321340
C251	C	0.596684	0.038072	0.011993
C252	C	0.930018	0.371406	0.345326
H253	H	0.296788	-0.269753	-0.293696
H254	H	0.630121	0.063580	0.039637
H255	H	0.963455	0.396914	0.372970
H256	H	0.233621	-0.320948	-0.289056
H257	H	0.566954	0.012385	0.044277
H258	H	0.900287	0.345719	0.377610
H259	H	0.235977	-0.263532	-0.347082
H260	H	0.569310	0.069801	-0.013749
H261	H	0.902643	0.403135	0.319584
H262	H	0.406452	-0.313890	-0.341526
H263	H	0.739785	0.019443	-0.008193
H264	H	1.073119	0.352776	0.325141
H265	H	0.737634	-0.286955	-0.312318
H266	H	1.070967	0.046378	0.021015
H267	H	1.404301	0.379712	0.354349
C268	C	0.594530	-0.268335	-0.292120
C269	C	0.927863	0.064998	0.041213
C270	C	1.261197	0.398331	0.374546
H271	H	0.545310	-0.272817	-0.296970
H272	H	0.878643	0.060516	0.036364
H273	H	1.211977	0.393849	0.369697
H274	H	0.608475	-0.221619	-0.301599
H275	H	0.941808	0.111715	0.031734
H276	H	1.275141	0.445048	0.365067
H277	H	0.606123	-0.279048	-0.243587
H278	H	0.939457	0.054286	0.089746
H279	H	1.272790	0.387619	0.423079
C280	C	1.085884	-0.640158	-0.328221
C281	C	1.419217	-0.306825	0.005112
C282	C	1.752550	0.026509	0.338445
H283	H	1.081390	-0.590938	-0.332684
H284	H	1.414724	-0.257604	0.000649
H285	H	1.748057	0.075729	0.333983
H286	H	1.132614	-0.654037	-0.341578
H287	H	1.465948	-0.320703	-0.008245
H288	H	1.799281	0.012630	0.325089
H289	H	1.075137	-0.651817	-0.278805
H290	H	1.408471	-0.318483	0.054529
H291	H	1.741804	0.014850	0.387862
C292	C	1.112910	-0.971336	-0.301349
C293	C	1.446243	-0.638002	0.031984
C294	C	1.779577	-0.304669	0.365318
H295	H	1.138405	-1.004774	-0.275829
H296	H	1.471738	-0.671440	0.057505
H297	H	1.805072	-0.338107	0.390838
H298	H	1.087188	-0.941669	-0.266928
H299	H	1.420522	-0.608335	0.066405
H300	H	1.753855	-0.275002	0.399739
H301	H	1.144655	-0.943897	-0.329712
H302	H	1.477988	-0.610564	0.003621
H303	H	1.811322	-0.277231	0.336955
H304	H	0.931195	-1.107902	-0.483554
H305	H	1.264528	-0.774568	-0.150221
H306	H	1.597861	-0.441235	0.183113
C307	C	1.100135	-0.288697	-0.832559
C308	C	1.433468	0.044637	-0.499226
C309	C	1.766801	0.377970	-0.165893
H310	H	1.127986	-0.262998	-0.866559
H311	H	1.461319	0.070335	-0.533225
H312	H	1.794652	0.403668	-0.199892
H313	H	1.129655	-0.316810	-0.804991
H314	H	1.462989	0.016524	-0.471658
H315	H	1.796322	0.349857	-0.138325
H316	H	1.074487	-0.257002	-0.800178
H317	H	1.407821	0.076331	-0.466845
H318	H	1.741154	0.409664	-0.133512
H319	H	0.936492	-0.974767	-0.478154
H320	H	1.269825	-0.641434	-0.144821
H321	H	1.603159	-0.308101	0.188512
H322	H	0.909474	-0.643586	-0.505035
H323	H	1.242808	-0.310252	-0.171702
H324	H	1.576141	0.023081	0.161632
