data_functionalizedCrystal
_audit_creation_method	'MofGen! by Chris Wilmer'
_symmetry_space_group_name_H-M	'P1'
_symmetry_Int_Tables_number	1
_symmetry_cell_setting	triclinic
loop_
_symmetry_equiv_pos_as_xyz
  x,y,z
_cell_length_a	14.519709
_cell_length_b	12.837943
_cell_length_c	11.892095
_cell_angle_alpha	94.310562
_cell_angle_beta	93.895429
_cell_angle_gamma	90.745458
loop_
_atom_site_label
_atom_site_type_symbol
_atom_site_fract_x
_atom_site_fract_y
_atom_site_fract_z
O1	O	0.234472	-1.382515	-0.093988
O2	O	0.222627	-1.080688	-0.093995
O3	O	0.095003	-1.239604	-0.093981
O4	O	0.362096	-1.223600	-0.094002
O5	O	0.105626	-1.226354	0.094025
O6	O	0.233250	-1.067438	0.094012
O7	O	0.245095	-1.369265	0.094018
Zn8	Zn	0.240859	-1.216248	0.123865
Zn9	Zn	0.226863	-1.233706	-0.123842
O10	O	0.372719	-1.210350	0.094005
C11	C	0.223937	-1.035435	0.000008
C12	C	0.212002	-0.920336	0.000006
C13	C	0.065890	-1.232233	0.000022
C14	C	-0.036684	-1.229998	0.000023
N15	N	0.250411	-1.204341	0.292918
C16	C	-0.412293	-1.221771	-0.000007
C17	C	-0.307787	-1.224055	0.000002
C18	C	-0.224492	-1.225884	0.000009
C19	C	-0.119979	-1.228169	0.000016
C20	C	0.401831	-1.217721	-0.000001
C21	C	0.504405	-1.219957	-0.000009
C22	C	0.243785	-1.414519	0.000013
C23	C	0.255719	-1.529618	0.000008
C24	C	0.355473	-0.679644	0.000011
C25	C	0.344264	-0.571497	0.000010
C26	C	0.178377	-0.595894	0.000010
C27	C	0.189586	-0.704041	0.000012
C28	C	0.278137	-0.745911	0.000010
C29	C	0.289344	-0.854060	0.000003
C30	C	0.123458	-0.878455	0.000012
C31	C	0.112249	-0.770308	0.000011
N32	N	0.217304	-1.245621	-0.292895
C33	C	0.150784	-1.328473	0.529576
C34	C	0.157468	-1.320158	0.647918
C35	C	0.270458	-1.179391	0.647944
C36	C	0.263774	-1.187707	0.529603
C37	C	0.203936	-1.262251	0.470423
C38	C	0.197257	-1.270570	0.352080
C39	C	0.310242	-1.129800	0.352108
C40	C	0.316926	-1.121484	0.470449
H41	H	0.361447	-0.888149	0.000004
H42	H	0.319170	-1.118692	0.696143
H43	H	0.353524	-1.075880	0.303932
H44	H	0.427575	-0.713735	0.000008
O45	O	0.419484	-0.507276	-0.000045
C46	C	0.500041	-0.567426	-0.000016
H47	H	0.481706	-0.650602	-0.035607
H48	H	0.551731	-0.531496	-0.054601
H49	H	0.531829	-0.568820	0.090180
H50	H	0.106288	-0.561777	0.000105
H51	H	0.102068	-1.389177	0.481392
H52	H	0.040154	-0.736201	0.000025
H53	H	0.114185	-1.374081	0.696077
O54	O	0.048428	-0.942973	0.000057
C55	C	0.077303	-1.047409	0.000021
H56	H	0.152124	-1.049192	0.035621
H57	H	0.031669	-1.092460	0.054595
H58	H	0.071466	-1.085024	-0.090178
H59	H	0.148537	-1.331271	0.303897
O60	O	0.374926	-1.049026	0.528068
C61	C	0.323742	-0.980145	0.596515
H62	H	0.256211	-1.020053	0.614233
H63	H	0.365491	-0.957972	0.679737
H64	H	0.308137	-0.906713	0.550925
