data_functionalizedCrystal
_audit_creation_method	'MofGen! by Chris Wilmer'
_symmetry_space_group_name_H-M	'P1'
_symmetry_Int_Tables_number	1
_symmetry_cell_setting	triclinic
loop_
_symmetry_equiv_pos_as_xyz
  x,y,z
_cell_length_a	27.732048
_cell_length_b	27.732048
_cell_length_c	15.186229
_cell_angle_alpha	89.991324
_cell_angle_beta	90.002148
_cell_angle_gamma	82.642655
loop_
_atom_site_label
_atom_site_type_symbol
_atom_site_fract_x
_atom_site_fract_y
_atom_site_fract_z
O1	O	0.640926	0.057516	-0.073124
O2	O	1.140926	0.557516	0.426876
O3	O	0.500133	0.066262	-0.073152
O4	O	1.000133	0.566262	0.426848
O5	O	0.574902	-0.008508	-0.073121
O6	O	1.074902	0.491492	0.426879
O7	O	0.566157	0.132286	-0.073156
O8	O	1.066157	0.632286	0.426844
O9	O	0.574897	-0.008509	0.073336
O10	O	1.074897	0.491491	0.573336
O11	O	0.500128	0.066261	0.073305
O12	O	1.000128	0.566261	0.573305
O13	O	0.640921	0.057515	0.073333
O14	O	1.140921	0.557515	0.573333
Zn15	Zn	0.570524	0.061888	0.096572
Zn16	Zn	1.070524	0.561888	0.596572
Zn17	Zn	0.570530	0.061889	-0.096392
Zn18	Zn	1.070530	0.561889	0.403608
O19	O	0.566152	0.132285	0.073301
O20	O	1.066152	0.632285	0.573301
C21	C	0.482124	0.066078	0.000073
C22	C	0.982124	0.566078	0.500073
C23	C	0.428469	0.065525	0.000063
C24	C	0.928469	0.565525	0.500063
C25	C	0.089654	0.106229	0.000091
C26	C	0.589654	0.606229	0.500091
C27	C	-0.112006	0.104178	0.000099
C28	C	0.387994	0.604178	0.500099
O29	O	-0.143262	0.141398	0.000128
O30	O	0.356738	0.641398	0.500128
N31	N	-0.131130	0.059843	0.000109
N32	N	0.368870	0.559843	0.500109
C33	C	-0.099835	0.016017	0.000122
C34	C	0.400165	0.516017	0.500122
O35	O	-0.120728	-0.021740	0.000139
O36	O	0.379272	0.478260	0.500139
C37	C	0.101824	0.018068	0.000120
C38	C	0.601824	0.518068	0.500120
C39	C	0.120944	0.062407	0.000101
C40	C	0.620944	0.562407	0.500101
C41	C	0.108775	0.150563	0.000073
C42	C	0.608775	0.650563	0.500073
C43	C	0.159187	0.151075	0.000066
C44	C	0.659187	0.651075	0.500066
C45	C	0.190477	0.107253	0.000077
C46	C	0.690477	0.607253	0.500077
C47	C	0.171356	0.062919	0.000095
C48	C	0.671356	0.562919	0.500095
C49	C	0.133117	-0.025757	0.000139
C50	C	0.633117	0.474243	0.500139
C51	C	0.183535	-0.025240	0.000141
C52	C	0.683535	0.474760	0.500141
C53	C	0.202655	0.019098	0.000123
C54	C	0.702655	0.519098	0.500123
C55	C	0.253059	0.019609	0.000098
C56	C	0.753059	0.519609	0.500098
N57	N	0.272183	0.063944	0.000089
N58	N	0.772183	0.563944	0.500089
C59	C	0.240892	0.107766	0.000078
C60	C	0.740892	0.607766	0.500078
C61	C	-0.205709	0.014943	0.000121
C62	C	0.294291	0.514943	0.500121
C63	C	-0.256124	0.014430	0.000120
C64	C	0.243876	0.514430	0.500120
C65	C	-0.268291	0.102591	0.000099
C66	C	0.231709	0.602591	0.500099
C67	C	-0.217876	0.103104	0.000094
C68	C	0.282124	0.603104	0.500094
C69	C	-0.186585	0.059278	0.000112
C70	C	0.313415	0.559278	0.500112
C71	C	0.346761	0.108839	0.000063
C72	C	0.846761	0.608839	0.500063
C73	C	0.397178	0.109347	0.000052
C74	C	0.897178	0.609347	0.500052
C75	C	0.409341	0.021186	0.000078
C76	C	0.909341	0.521186	0.500078
C77	C	0.358929	0.020678	0.000084
C78	C	0.858929	0.520678	0.500084
C79	C	0.327639	0.064508	0.000079
C80	C	0.827639	0.564508	0.500079
O81	O	0.284343	-0.017592	0.000079
O82	O	0.784343	0.482408	0.500079
O83	O	0.261794	0.145518	0.000080
O84	O	0.761794	0.645518	0.500080
C85	C	0.039242	0.105716	0.000098
C86	C	0.539242	0.605716	0.500098
C87	C	0.020120	0.061382	0.000115
C88	C	0.520120	0.561382	0.500115
C89	C	0.051411	0.017560	0.000126
C90	C	0.551411	0.517560	0.500126
C91	C	-0.030294	0.060869	0.000114
C92	C	0.469706	0.560869	0.500114
C93	C	-0.061585	0.104691	0.000104
C94	C	0.438415	0.604691	0.500104
C95	C	-0.042461	0.149026	0.000094
C96	C	0.457539	0.649026	0.500094
C97	C	0.007951	0.149539	0.000087
C98	C	0.507951	0.649539	0.500087
C99	C	0.032287	-0.026775	0.000135
C100	C	0.532287	0.473225	0.500135
C101	C	-0.018125	-0.027284	0.000141
C102	C	0.481875	0.472716	0.500141
C103	C	-0.049416	0.016538	0.000131
C104	C	0.450584	0.516538	0.500131
C105	C	0.574716	-0.026515	0.000110
C106	C	1.074716	0.473485	0.500110
C107	C	0.574164	-0.080170	0.000117
C108	C	1.074164	0.419830	0.500117
C109	C	0.614867	-0.418985	0.000080
C110	C	1.114867	0.081015	0.500080
C111	C	0.612816	-0.620645	0.000068
C112	C	1.112816	-0.120645	0.500068
O113	O	0.650037	-0.651900	0.000036
O114	O	1.150037	-0.151900	0.500036
N115	N	0.568481	-0.639768	0.000060
N116	N	1.068481	-0.139768	0.500060
C117	C	0.524656	-0.608474	0.000049
C118	C	1.024656	-0.108474	0.500049
O119	O	0.486899	-0.629367	0.000033
O120	O	0.986899	-0.129367	0.500033
C121	C	0.526707	-0.406815	0.000055
C122	C	1.026707	0.093185	0.500055
C123	C	0.571045	-0.387694	0.000072
C124	C	1.071045	0.112306	0.500072
C125	C	0.659202	-0.399864	0.000096
C126	C	1.159202	0.100136	0.500096
C127	C	0.659714	-0.349452	0.000104
C128	C	1.159714	0.150548	0.500104
C129	C	0.615892	-0.318161	0.000096
C130	C	1.115892	0.181839	0.500096
C131	C	0.571557	-0.337282	0.000080
C132	C	1.071557	0.162718	0.500080
C133	C	0.482882	-0.375521	0.000038
C134	C	0.982882	0.124479	0.500038
C135	C	0.483399	-0.325104	0.000038
C136	C	0.983399	0.174896	0.500038
C137	C	0.527737	-0.305983	0.000055
C138	C	1.027737	0.194017	0.500055
C139	C	0.528247	-0.255580	0.000080
C140	C	1.028247	0.244420	0.500080
N141	N	0.572583	-0.236456	0.000088
N142	N	1.072583	0.263544	0.500088
C143	C	0.616405	-0.267747	0.000096
C144	C	1.116405	0.232253	0.500096
C145	C	0.523582	-0.714348	0.000047
C146	C	1.023582	-0.214348	0.500047
C147	C	0.523069	-0.764762	0.000047
C148	C	1.023069	-0.264762	0.500047
C149	C	0.611230	-0.776930	0.000064
C150	C	1.111230	-0.276930	0.500064
C151	C	0.611742	-0.726514	0.000071
C152	C	1.111742	-0.226514	0.500071
C153	C	0.567917	-0.695224	0.000055
C154	C	1.067917	-0.195224	0.500055
C155	C	0.617477	-0.161878	0.000114
C156	C	1.117477	0.338122	0.500114
C157	C	0.617986	-0.111461	0.000125
C158	C	1.117986	0.388539	0.500125
C159	C	0.529825	-0.099298	0.000104
C160	C	1.029825	0.400702	0.500104
C161	C	0.529316	-0.149710	0.000097
C162	C	1.029316	0.350290	0.500097
C163	C	0.573147	-0.180999	0.000099
C164	C	1.073147	0.319001	0.500099
O165	O	0.491047	-0.224296	0.000101
O166	O	0.991047	0.275704	0.500101
O167	O	0.654156	-0.246844	0.000093
O168	O	1.154156	0.253156	0.500093
C169	C	0.614355	-0.469397	0.000072
C170	C	1.114355	0.030603	0.500072
C171	C	0.570021	-0.488518	0.000056
C172	C	1.070021	0.011482	0.500056
C173	C	0.526198	-0.457228	0.000048
C174	C	1.026198	0.042772	0.500048
C175	C	0.569508	-0.538933	0.000056
C176	C	1.069508	-0.038933	0.500056
C177	C	0.613330	-0.570223	0.000064
C178	C	1.113330	-0.070223	0.500064
C179	C	0.657665	-0.551100	0.000072
C180	C	1.157665	-0.051100	0.500072
C181	C	0.658177	-0.500688	0.000080
C182	C	1.158177	-0.000688	0.500080
C183	C	0.481863	-0.476351	0.000040
C184	C	0.981863	0.023649	0.500040
C185	C	0.481355	-0.526764	0.000033
C186	C	0.981355	-0.026764	0.500033
C187	C	0.525177	-0.558054	0.000041
C188	C	1.025177	-0.058054	0.500041
C189	C	0.658931	0.057699	0.000106
C190	C	1.158931	0.557699	0.500106
C191	C	0.712586	0.058252	0.000110
C192	C	1.212586	0.558252	0.500110
C193	C	0.566338	0.150292	0.000068
C194	C	1.066338	0.650292	0.500068
C195	C	0.566891	0.203947	0.000055
C196	C	1.066891	0.703947	0.500055
N197	N	0.570523	0.061887	0.228265
N198	N	1.070523	0.561887	0.728265
N199	N	0.570535	0.061887	-0.228084
N200	N	1.070535	0.561887	0.271916
C201	C	0.603642	0.028790	0.454002
C202	C	1.103642	0.528790	0.954002
C203	C	0.603644	0.028789	0.546191
C204	C	1.103644	0.528789	1.046191
C205	C	0.537413	0.094985	0.546172
C206	C	1.037413	0.594985	1.046172
C207	C	0.537409	0.094984	0.453984
C208	C	1.037409	0.594984	0.953984
C209	C	0.570527	0.061886	0.407901
C210	C	1.070527	0.561886	0.907901
C211	C	0.570532	0.061887	0.592279
C212	C	1.070532	0.561887	1.092279
C213	C	0.570533	0.061886	0.692235
C214	C	1.070533	0.561886	1.192235
C215	C	0.570525	0.061887	0.307939
C216	C	1.070525	0.561887	0.807939
H217	H	0.057760	-0.062462	0.000146
H218	H	0.557760	0.437538	0.500146
O219	O	0.501684	0.130679	0.404259
O220	O	1.001684	0.630679	0.904259
H221	H	0.507240	0.125111	0.332413
H222	H	1.007240	0.625111	0.832413
H223	H	0.630609	0.001838	0.583724
H224	H	1.130609	0.501838	1.083724
O225	O	0.501699	0.130688	0.595875
O226	O	1.001699	0.630688	1.095875
H227	H	0.507269	0.125133	0.667724
H228	H	1.007269	0.625133	1.167724
H229	H	0.693347	-0.576585	0.000083
H230	H	1.193347	-0.076585	0.500083
O231	O	0.436127	-0.291358	0.000026
O232	O	0.936127	0.208642	0.500026
H233	H	0.443928	-0.253088	0.000027
H234	H	0.943928	0.246912	0.500027
O235	O	0.475245	-0.785380	0.000046
O236	O	0.975245	-0.285380	0.500046
H237	H	0.482245	-0.825693	0.000056
H238	H	0.982245	-0.325693	0.500056
O239	O	0.443095	-0.026078	0.000090
O240	O	0.943095	0.473922	0.500090
H241	H	0.436336	-0.047312	0.059790
H242	H	0.936336	0.452688	0.559790
H243	H	-0.067947	0.184708	0.000082
H244	H	0.432053	0.684708	0.500082
H245	H	0.412743	0.145454	0.000037
H246	H	0.912743	0.645454	0.500037
O247	O	0.313021	0.156114	0.000054
O248	O	0.813021	0.656114	0.500054
H249	H	0.289767	0.157997	0.059753
H250	H	0.789767	0.657997	0.559753
O251	O	0.665809	-0.090836	0.000130
O252	O	1.165809	0.409164	0.500130
H253	H	0.696194	-0.121068	0.000121
H254	H	1.196194	0.378932	0.500121
O255	O	0.028572	0.197360	0.000085
O256	O	0.528572	0.697360	0.500085
H257	H	-0.001662	0.227742	0.000091
H258	H	0.498338	0.727742	0.500091
H259	H	0.174750	0.187180	0.000051
H260	H	0.674750	0.687180	0.500051
O261	O	-0.038742	-0.075111	0.000160
O262	O	0.461258	0.424889	0.500160
H263	H	-0.079056	-0.068111	0.000159
H264	H	0.420944	0.431889	0.500159
O265	O	0.664751	-0.195621	0.000132
O266	O	1.164751	0.304379	0.500132
H267	H	0.685993	-0.188851	-0.059548
H268	H	1.185993	0.311149	0.440452
O269	O	0.075029	0.197832	0.000058
O270	O	0.575029	0.697832	0.500058
H271	H	0.096803	0.228742	0.000041
H272	H	0.596803	0.728742	0.500041
H273	H	0.695819	-0.333889	0.000114
H274	H	1.195819	0.166111	0.500114
O275	O	0.433530	-0.547385	0.000017
O276	O	0.933530	-0.047385	0.500017
H277	H	0.403146	-0.517152	0.000005
H278	H	0.903146	-0.017152	0.500005
H279	H	0.487892	-0.688875	0.000035
H280	H	0.987892	-0.188875	0.500035
H281	H	-0.202311	0.139207	0.000084
H282	H	0.297689	0.639207	0.500084
H283	H	-0.293777	0.138273	0.000091
H284	H	0.206223	0.638273	0.500091
O285	O	-0.276742	-0.033393	0.000140
O286	O	0.223258	0.466607	0.500140
H287	H	-0.264145	-0.054434	-0.059542
H288	H	0.235855	0.445566	0.440458
O289	O	0.706471	-0.433610	0.000117
O290	O	1.206471	0.066390	0.500117
H291	H	0.737381	-0.411835	0.000137
H292	H	1.237381	0.088165	0.500137
H293	H	0.446177	-0.450879	0.000032
H294	H	0.946177	0.049121	0.500032
O295	O	-0.171962	-0.032328	0.000137
O296	O	0.328038	0.467672	0.500137
H297	H	-0.193735	-0.063239	0.000136
H298	H	0.306265	0.436761	0.500136
H299	H	0.117558	-0.061861	0.000155
H300	H	0.617558	0.438139	0.500155
H301	H	0.630608	0.001839	0.416483
H302	H	1.130608	0.501839	0.916483
H303	H	0.209009	-0.060929	0.000156
H304	H	0.709009	0.439071	0.500156
H305	H	0.647846	-0.710950	0.000084
H306	H	1.147846	-0.210950	0.500084
O307	O	0.338300	-0.027142	0.000101
O308	O	0.838300	0.472858	0.500101
H309	H	0.368531	-0.057528	0.000111
H310	H	0.868531	0.442472	0.500111
H311	H	0.446777	-0.391080	0.000019
H312	H	0.946777	0.108920	0.500019
O313	O	0.658497	-0.810683	0.000066
O314	O	1.158497	-0.310683	0.500066
H315	H	0.650687	-0.848950	0.000056
H316	H	1.150687	-0.348950	0.500056
H317	H	0.493213	-0.165279	0.000107
H318	H	0.993213	0.334721	0.500107
H319	H	0.494146	-0.073812	0.000100
H320	H	0.994146	0.426188	0.500100
H321	H	0.694282	-0.485125	0.000094
H322	H	1.194282	0.014875	0.500094
