data_functionalizedCrystal
_audit_creation_method	'MofGen! by Chris Wilmer'
_symmetry_space_group_name_H-M	'P1'
_symmetry_Int_Tables_number	1
_symmetry_cell_setting	triclinic
loop_
_symmetry_equiv_pos_as_xyz
  x,y,z
_cell_length_a	16.959455
_cell_length_b	19.121063
_cell_length_c	19.121175
_cell_angle_alpha	85.048230
_cell_angle_beta	92.455975
_cell_angle_gamma	92.465894
loop_
_atom_site_label
_atom_site_type_symbol
_atom_site_fract_x
_atom_site_fract_y
_atom_site_fract_z
Zn1	Zn	1.213747	-0.297163	0.409756
Zn2	Zn	1.202835	-0.409811	0.297106
Zn3	Zn	1.076168	-0.292158	0.292110
Zn4	Zn	1.076115	-0.414783	0.414729
O5	O	1.142216	-0.353479	0.353425
O6	O	1.322911	-0.312119	0.394822
O7	O	1.181488	-0.390028	0.197982
O8	O	1.099007	-0.194360	0.303544
O9	O	1.314894	-0.394881	0.312058
O10	O	1.200086	-0.198037	0.389978
O11	O	1.088426	-0.303590	0.194311
O12	O	0.965550	-0.308412	0.308366
O13	O	1.098916	-0.403356	0.512531
O14	O	0.965511	-0.398504	0.398454
O15	O	1.200035	-0.316941	0.508877
O16	O	1.181437	-0.508933	0.316881
O17	O	1.088335	-0.512586	0.403299
C18	C	0.936850	-0.353455	0.353408
C19	C	0.848994	-0.353462	0.353418
C20	C	1.133718	-0.536290	0.361187
C21	C	1.130156	-0.614499	0.364531
C22	C	0.477520	-0.306535	0.306609
C23	C	0.477515	-0.400482	0.400284
C24	C	0.560061	-0.400472	0.400280
C25	C	0.601340	-0.353493	0.353438
C26	C	0.560073	-0.306525	0.306601
C27	C	0.601334	-0.447444	0.447111
C28	C	0.683885	-0.447437	0.447108
C29	C	0.725166	-0.400454	0.400269
C30	C	0.683894	-0.353483	0.353430
C31	C	0.725173	-0.306504	0.306589
C32	C	0.683903	-0.259529	0.259753
C33	C	0.601355	-0.259542	0.259762
C34	C	0.807715	-0.400441	0.400260
C35	C	0.807727	-0.306494	0.306581
C36	C	1.176996	-0.649317	0.321146
C37	C	1.173651	-0.722803	0.324295
C38	C	1.123461	-0.761468	0.370826
C39	C	1.076619	-0.726645	0.414216
C40	C	1.079969	-0.653161	0.411070
C41	C	1.110923	-0.983439	0.382578
C42	C	1.107575	-1.056928	0.385719
C43	C	1.204608	-1.053081	0.295800
C44	C	1.207950	-0.979596	0.292655
C45	C	1.161111	-0.944779	0.336047
C46	C	1.120038	-0.836582	0.374045
C47	C	1.164539	-0.869666	0.332831
C48	C	1.348384	-0.353503	0.353443
C49	C	1.436241	-0.353514	0.353450
C50	C	1.150687	-0.361262	0.536948
C51	C	1.154296	-0.364578	0.615154
C52	C	1.150770	-0.169954	0.345649
C53	C	1.154415	-0.091747	0.342335
C54	C	1.133827	-0.345676	0.170615
C55	C	1.130379	-0.342161	0.092400
C56	C	1.107542	-0.321133	0.649984
C57	C	1.110930	-0.324255	0.723467
C58	C	1.161078	-0.370819	0.762119
C59	C	1.207834	-0.414269	0.727285
C60	C	1.204441	-0.411150	0.653803
C61	C	1.173743	-0.382491	0.984083
C62	C	1.177134	-0.385606	1.057570
C63	C	1.080229	-0.295593	1.053748
C64	C	1.076843	-0.292475	0.980265
C65	C	1.123597	-0.335927	0.945436
C66	C	1.164544	-0.374010	0.837231
C67	C	1.120125	-0.332739	0.870326
H68	H	0.841331	-0.268233	0.268441
N69	N	1.029789	-0.248744	1.091316
H70	H	1.064829	-0.217434	1.120432
H71	H	0.993246	-0.278689	1.122967
N72	N	0.728400	-0.498089	0.497626
H73	H	0.759817	-0.529433	0.470361
H74	H	0.689678	-0.527805	0.527290
H75	H	1.035756	-0.758132	0.452105
H76	H	0.443914	-0.268287	0.268478
N77	N	0.556822	-0.498108	0.497639
H78	H	0.568346	-0.547898	0.488763
H79	H	0.498281	-0.490926	0.490520
H80	H	1.242520	-0.446522	0.625445
N81	N	0.432997	-0.451156	0.450798
H82	H	0.374440	-0.444037	0.443694
H83	H	0.450256	-0.442413	0.500605
H84	H	1.066714	-1.088408	0.423623
H85	H	0.567745	-0.221298	0.221631
N86	N	0.728423	-0.208859	0.209229
H87	H	0.759834	-0.236017	0.177785
H88	H	0.765469	-0.177523	0.236542
N89	N	1.255136	-1.090629	0.249006
H90	H	1.241167	-1.075736	0.198178
H91	H	1.245383	-1.143038	0.258114
H92	H	1.205374	-0.411923	0.868710
H93	H	0.841313	-0.438689	0.438390
N94	N	1.261927	-0.464492	0.768965
H95	H	1.246715	-0.514220	0.758304
H96	H	1.256966	-0.459817	0.820786
N97	N	1.231227	-0.435827	1.099262
H98	H	1.260330	-0.462882	1.066049
H99	H	1.198942	-0.469675	1.131130
H100	H	1.211803	-0.417881	0.955735
H101	H	1.072783	-0.955097	0.417908
N102	N	1.066047	-0.282517	0.828634
H103	H	1.081262	-0.232788	0.839291
H104	H	1.009667	-0.294032	0.841892
N105	N	1.029450	-0.615598	0.457860
H106	H	1.043419	-0.630489	0.508688
H107	H	0.971909	-0.627974	0.447377
H108	H	1.205407	-0.838183	0.294948
H109	H	1.217863	-0.617841	0.283253
N110	N	1.262093	-0.937896	0.242473
H111	H	1.257106	-0.886061	0.247063
H112	H	1.246930	-0.948639	0.192763
N113	N	1.065898	-0.878284	0.424226
H114	H	1.098108	-0.910121	0.458162
H115	H	1.026597	-0.907553	0.396853
H116	H	1.066711	-0.283212	0.618518
N117	N	1.224171	-0.760358	0.277502
H118	H	1.256470	-0.724713	0.247545
H119	H	1.189128	-0.789503	0.246225
H120	H	1.072855	-0.288881	0.751823
H121	H	1.036006	-0.254559	0.948799
