data_functionalizedCrystal
_audit_creation_method	'MofGen! by Chris Wilmer'
_symmetry_space_group_name_H-M	'P1'
_symmetry_Int_Tables_number	1
_symmetry_cell_setting	triclinic
loop_
_symmetry_equiv_pos_as_xyz
  x,y,z
_cell_length_a	14.560438
_cell_length_b	16.704494
_cell_length_c	14.560438
_cell_angle_alpha	90.000000
_cell_angle_beta	60.003556
_cell_angle_gamma	56.631548
loop_
_atom_site_label
_atom_site_type_symbol
_atom_site_fract_x
_atom_site_fract_y
_atom_site_fract_z
Zr1	Zr	0.909210	0.815218	-0.072419
O2	O	1.116718	0.680104	-0.227007
O3	O	0.712740	0.856634	-0.025043
O4	O	0.904334	0.856638	-0.216629
O5	O	0.925121	0.680100	0.115720
O6	O	0.887932	0.995894	-0.208428
O7	O	0.925124	0.680100	-0.035421
O8	O	0.545205	0.995887	0.134284
O9	O	1.267848	0.680107	-0.226992
O10	O	0.777222	0.978227	0.001299
O11	O	0.789461	0.874301	0.107973
O12	O	1.015038	0.874306	-0.117595
O13	O	1.027277	0.770381	-0.010920
Zr14	Zr	0.883047	1.037315	0.181713
Zr15	Zr	0.883051	1.037315	-0.059340
Zr16	Zr	0.909206	0.815218	0.168633
Zr17	Zr	1.150245	0.815223	-0.072396
Zr18	Zr	0.642012	1.037310	0.181689
O19	O	1.079517	0.995899	0.134336
O20	O	1.079523	0.995898	-0.208409
O21	O	1.116712	0.680104	0.115738
O22	O	0.675539	1.172429	0.336300
O23	O	0.675545	1.172429	-0.006445
O24	O	0.712734	0.856635	0.317702
O25	O	0.867136	1.172433	-0.006426
O26	O	0.887923	0.995895	0.325922
O27	O	0.904325	0.856639	0.317721
O28	O	0.867133	1.172433	0.144714
O29	O	1.247055	0.856645	-0.216596
O30	O	0.545202	0.995888	0.325889
O31	O	0.524409	1.172426	0.336286
O32	O	0.524412	1.172426	0.144681
O33	O	1.267845	0.680107	-0.035388
O34	O	1.247052	0.856645	-0.024991
O35	O	0.777218	0.978227	0.226888
O36	O	0.764980	1.082152	0.120214
O37	O	1.002796	0.978232	0.001320
O38	O	1.015034	0.874306	0.107995
C39	C	0.594630	0.926260	0.054617
C40	C	0.492304	0.926258	0.054607
C41	C	0.440309	0.849555	-0.033112
C42	C	0.536487	0.849544	-0.033150
C43	C	0.351934	1.002982	0.142414
C44	C	0.255759	1.002988	0.142455
C45	C	0.546860	0.760971	-0.134475
C46	C	0.643038	0.760960	-0.134513
C47	C	0.928849	0.648456	0.038286
C48	C	0.939955	0.554170	0.032733
C49	C	0.712520	0.485497	0.146451
C50	C	0.722948	0.396910	0.141236
C51	C	0.971237	0.288406	0.017097
C52	C	0.960809	0.376994	0.022311
C53	C	0.831446	0.475538	0.086989
C54	C	0.821020	0.564127	0.092196
C55	C	1.069307	0.455622	-0.031936
C56	C	1.079735	0.367035	-0.037150
C57	C	1.197627	0.926273	0.054676
C58	C	1.299952	0.926275	0.054686
C59	C	0.896134	0.926266	-0.246873
C60	C	0.896135	0.926266	-0.349206
C61	C	0.863407	1.204077	0.071008
C62	C	0.852302	1.298363	0.076560
C63	C	1.020271	0.872016	-0.459343
C64	C	1.020265	0.872019	-0.555492
C65	C	0.771976	0.980523	-0.431352
C66	C	0.771983	0.980526	-0.335205
C67	C	1.163619	0.809369	-0.531016
C68	C	1.163613	0.809372	-0.627165
C69	C	0.896123	0.926267	0.356166
C70	C	0.896121	0.926267	0.458499
C71	C	0.561909	1.204071	0.070978
C72	C	0.448478	1.298355	0.076521
C73	C	0.594625	0.926260	0.356137
C74	C	0.492297	0.926258	0.458460
C75	C	0.561904	1.204071	0.372498
C76	C	0.448471	1.298355	0.480374
C77	C	1.230353	0.648462	-0.263205
C78	C	1.343786	0.554178	-0.371081
C79	C	1.230348	0.648462	0.038315
C80	C	1.343779	0.554178	0.032772
C81	C	1.197632	0.926273	-0.246844
C82	C	1.299959	0.926275	-0.349167
C83	C	0.401600	1.288383	0.017042
C84	C	0.295034	1.376965	0.022227
C85	C	0.235341	1.475517	0.086899
C86	C	0.282229	1.485486	0.146380
C87	C	0.388800	1.396905	0.141188
C88	C	0.388812	1.396889	0.475351
C89	C	0.282243	1.485488	0.576703
C90	C	0.235327	1.475550	0.683077
C91	C	0.294997	1.377005	0.688097
C92	C	0.401571	1.288409	0.586746
C93	C	1.403456	0.455644	-0.366058
C94	C	1.510056	0.367045	-0.467410
C95	C	1.556976	0.376983	-0.573783
C96	C	1.497301	0.475528	-0.578803
C97	C	1.390710	0.564124	-0.477452
C98	C	1.390667	0.564150	0.092242
C99	C	1.497259	0.475568	0.087030
C100	C	1.556956	0.377016	0.022355
C101	C	1.510063	0.367047	-0.037122
C102	C	1.403479	0.455628	-0.031916
C103	C	0.437828	0.980507	0.568604
C104	C	0.341687	0.980497	0.664743
C105	C	0.354488	0.871988	0.540580
C106	C	0.450635	0.871993	0.444443
C107	C	0.430432	1.043158	0.640290
C108	C	0.334291	1.043147	0.736429
H109	H	0.545011	0.776456	-0.210019
Br110	Br	1.560872	0.489122	0.167758
H111	H	1.076557	0.208160	-0.035544
Br112	Br	1.309734	0.697846	-0.484290
H113	H	1.185058	0.286790	-0.089804
Br114	Br	0.452466	1.410405	0.331001
H115	H	1.342070	0.644387	0.144914
H116	H	1.558627	0.286815	-0.463300
H117	H	0.375287	1.001820	0.784922
H118	H	1.558684	0.286795	-0.089780
H119	H	1.365307	0.447494	-0.080341
H120	H	1.200934	0.850705	-0.675649
Br121	Br	0.354476	1.176833	0.633595
Br122	Br	0.561542	0.410430	0.221944
H123	H	1.643742	0.304897	0.018126
H124	H	0.705127	0.768593	-0.216190
H125	H	0.494995	0.827806	0.354761
Br126	Br	0.201282	1.619213	0.569863
H127	H	1.166146	0.447519	-0.080357
H128	H	1.643770	0.304834	-0.656301
H129	H	0.670898	1.024713	-0.245528
H130	H	0.148546	1.547699	0.765594
H131	H	1.365261	0.447532	-0.279453
Br132	Br	0.587291	0.985094	0.636906
H133	H	0.715686	0.644364	0.144867
Br134	Br	1.560992	0.488997	-0.723178
Br135	Br	1.243803	0.867439	-0.527615
Br136	Br	0.297945	0.798342	0.521566
H137	H	0.256872	1.368828	-0.026211
Br138	Br	0.603492	1.054159	-0.412360
Br139	Br	0.452399	1.410457	0.221926
H140	H	1.225581	0.726423	-0.684239
H141	H	0.234501	1.126094	0.793504
H142	H	0.607188	0.565735	0.199120
Br143	Br	1.249559	0.675714	-0.524260
Br144	Br	0.482593	1.154646	-0.070740
H145	H	0.148564	1.547636	0.091118
H146	H	0.233611	1.565738	0.199034
Br147	Br	0.756329	0.643526	-0.113432
H148	H	0.256782	1.368929	0.774720
Br149	Br	0.482519	1.154687	0.593583
Br150	Br	0.579746	0.634870	-0.128078
H151	H	0.141476	1.065453	0.213956
H152	H	0.315967	1.065438	0.213874
