data_functionalizedCrystal
_audit_creation_method	'MofGen! by Chris Wilmer'
_symmetry_space_group_name_H-M	'P1'
_symmetry_Int_Tables_number	1
_symmetry_cell_setting	triclinic
loop_
_symmetry_equiv_pos_as_xyz
  x,y,z
_cell_length_a	14.395555
_cell_length_b	20.875641
_cell_length_c	20.875625
_cell_angle_alpha	59.251205
_cell_angle_beta	92.973129
_cell_angle_gamma	62.439513
loop_
_atom_site_label
_atom_site_type_symbol
_atom_site_fract_x
_atom_site_fract_y
_atom_site_fract_z
Zr1	Zr	0.923969	0.702083	-0.109903
O2	O	0.774682	0.835908	-0.217241
O3	O	0.965057	0.568262	-0.073593
O4	O	0.961740	0.702083	-0.212324
O5	O	0.785936	0.702085	0.027051
O6	O	1.114614	0.702079	-0.212319
O7	O	0.777999	0.702087	-0.078510
O8	O	1.120548	0.462697	0.035846
O9	O	0.780001	0.941467	-0.221114
O10	O	1.102319	0.623299	-0.062217
O11	O	0.994154	0.623301	0.016558
O12	O	0.990248	0.780858	-0.146780
O13	O	0.882082	0.780860	-0.068006
Zr14	Zr	1.180444	0.702072	0.058464
Zr15	Zr	1.167786	0.702075	-0.109894
Zr16	Zr	0.936627	0.702079	0.058454
Zr17	Zr	0.932453	0.870436	-0.116079
Zr18	Zr	1.171960	0.533718	0.064640
O19	O	1.139356	0.835892	0.022154
O20	O	1.121358	0.835897	-0.217228
O21	O	0.792680	0.835903	0.022141
O22	O	1.329731	0.568246	0.165802
O23	O	1.311733	0.568251	-0.073580
O24	O	0.983055	0.568257	0.165789
O25	O	1.318477	0.702070	-0.078490
O26	O	1.142673	0.702071	0.160885
O27	O	0.989799	0.702076	0.160880
O28	O	1.326414	0.702068	0.027071
O29	O	0.973803	0.941461	-0.221106
O30	O	1.130610	0.462694	0.169667
O31	O	1.324412	0.462688	0.169675
O32	O	1.314350	0.462690	0.035853
O33	O	0.790063	0.941464	-0.087292
O34	O	0.983864	0.941458	-0.087285
O35	O	1.114165	0.623296	0.095341
O36	O	1.222331	0.623294	0.016566
O37	O	1.110259	0.780853	-0.067997
O38	O	1.002094	0.780855	0.010778
C39	C	1.041594	0.491492	-0.017994
C40	C	1.037992	0.420022	-0.015372
C41	C	1.092758	0.386444	-0.055260
C42	C	1.089377	0.319285	-0.052788
C43	C	1.031223	0.285710	-0.010434
C44	C	0.976456	0.319291	0.029459
C45	C	0.979844	0.386444	0.026992
C46	C	1.015042	0.084866	0.001358
C47	C	1.011655	0.017710	0.003820
C48	C	1.124578	0.017708	-0.078426
C49	C	1.127956	0.084866	-0.080893
C50	C	1.073194	0.118438	-0.040997
N51	N	1.027763	0.217065	-0.007909
N52	N	1.076661	0.187077	-0.043518
C53	C	0.747229	0.702087	-0.025731
C54	C	0.643722	0.702090	-0.025735
C55	C	0.522028	0.787998	-0.071836
C56	C	0.486688	0.745053	-0.101386
C57	C	0.494638	0.745031	0.003810
C58	C	0.609742	0.659145	-0.055329
C59	C	0.617693	0.659135	0.049908
C60	C	0.582425	0.616127	0.020378
C61	C	1.357184	0.702068	-0.025708
C62	C	1.460691	0.702064	-0.025704
C63	C	1.036373	0.702081	-0.236309
C64	C	1.031000	0.702083	-0.307781
C65	C	1.062819	0.912662	-0.033445
C66	C	1.066421	0.984132	-0.036067
C67	C	1.112694	0.702082	-0.341355
C68	C	1.107648	0.702075	-0.408507
C69	C	1.020902	0.702076	-0.442086
C70	C	0.939203	0.702074	-0.408505
C71	C	0.944255	0.702075	-0.341352
C72	C	0.996766	0.702070	-0.642924
C73	C	0.991719	0.702072	-0.710084
C74	C	1.160166	0.702072	-0.710080
C75	C	1.165206	0.702077	-0.642928
C76	C	1.083511	0.702071	-0.609350
N77	N	1.015739	0.702072	-0.510727
N78	N	1.088678	0.702068	-0.540707
C79	C	1.068040	0.702073	0.184870
C80	C	1.073413	0.702071	0.256342
C81	C	1.346572	0.491483	-0.017982
C82	C	1.446477	0.420009	-0.015356
C83	C	1.057427	0.491488	0.192595
C84	C	1.059199	0.420016	0.266690
C85	C	1.362405	0.491479	0.192607
C86	C	1.467683	0.420003	0.266705
C87	C	0.742008	0.912676	-0.244046
C88	C	0.636730	0.984151	-0.318144
C89	C	0.757841	0.912671	-0.033457
C90	C	0.657936	0.984145	-0.036083
C91	C	1.046986	0.912666	-0.244035
C92	C	1.045214	0.984138	-0.318129
C93	C	1.430748	0.386447	-0.055254
C94	C	1.524609	0.319299	-0.052803
C95	C	1.634198	0.285710	-0.010449
C96	C	1.649925	0.319279	0.029450
C97	C	1.556065	0.386430	0.026994
C98	C	1.122676	0.386450	0.342616
C99	C	1.124338	0.319303	0.412241
C100	C	1.062528	0.285721	0.405939
C101	C	0.999043	0.319294	0.330004
C102	C	0.997376	0.386443	0.260380
C103	C	1.573595	0.386437	0.260383
C104	C	1.672524	0.319288	0.329999
C105	C	1.665540	0.285702	0.405937
C106	C	1.559617	0.319275	0.412257
C107	C	1.460690	0.386427	0.342642
C108	C	0.530819	1.017726	-0.311822
C109	C	0.431890	1.084896	-0.381439
C110	C	0.438875	1.118485	-0.457377
C111	C	0.544797	1.084908	-0.463697
C112	C	0.643723	1.017744	-0.394081
C113	C	0.673665	1.017714	0.003808
C114	C	0.579803	1.084881	0.001337
C115	C	0.470214	1.118472	-0.041019
C116	C	0.454487	1.084900	-0.080915
C117	C	0.548348	1.017740	-0.078449
C118	C	1.107036	1.017700	-0.311800
C119	C	1.105394	1.084846	-0.381413
C120	C	1.041922	1.118435	-0.457353
C121	C	0.980097	1.084867	-0.463680
C122	C	0.981747	1.017717	-0.394068
H123	H	1.169165	-0.009633	-0.110907
H124	H	1.374457	0.413749	0.347801
Br125	Br	1.271034	0.702078	-0.755650
H126	H	1.579303	0.413773	0.198557
H127	H	0.607150	0.543424	0.059371
H128	H	0.921074	0.702074	-0.737421
Br129	Br	0.893951	1.130468	-0.566749
Br130	Br	1.189300	1.130392	-0.372807
H131	H	1.158723	0.990362	-0.249972
Br132	Br	0.940730	0.130413	0.055510
H133	H	0.930245	0.702067	-0.615592
H134	H	0.592631	1.112204	0.033829
H135	H	1.511782	0.291976	-0.085294
Br136	Br	0.521308	0.972152	-0.208772
Br137	Br	0.932718	-0.027851	0.061300
Br138	Br	1.210503	0.273753	0.515284
Br139	Br	0.342842	1.209620	-0.044358
H140	H	1.040588	1.173113	-0.514029
Br141	Br	0.897826	0.972184	-0.402672
H142	H	1.746101	0.231022	0.462616
Br143	Br	0.911224	0.431986	0.157340
Br144	Br	0.905523	0.432010	0.081133
H145	H	1.553948	0.291919	0.474095
H146	H	0.444941	0.781355	0.028784
H147	H	1.710616	0.231030	-0.008454
H148	H	1.140108	0.413780	-0.089753
Br149	Br	0.915164	0.273707	0.321464
Br150	Br	0.288154	1.130449	-0.372842
Br151	Br	0.821479	0.702066	-0.454069
H152	H	1.758762	0.291959	0.324838
H153	H	0.358314	1.173174	-0.514057
H154	H	0.497510	0.860642	-0.110877
Br155	Br	0.554257	1.130501	-0.566763
H156	H	0.762890	0.990369	0.038305
H157	H	1.175310	0.112202	-0.115382
Br158	Br	1.163680	0.273735	-0.106943
H159	H	0.929112	0.291944	0.063950
H160	H	0.729958	0.990408	-0.399238
Br161	Br	0.392689	0.805568	-0.207984
Br162	Br	0.833384	0.702067	-0.295781
Br163	Br	1.206578	0.432007	0.351192
H164	H	0.535525	0.990410	-0.110931
Br165	Br	1.282030	0.432020	-0.112744
H166	H	0.674087	0.622857	0.113851
H167	H	0.365247	1.112261	-0.115401
H168	H	0.659290	0.622863	-0.080376
H169	H	1.183329	0.702087	-0.314023
Br170	Br	1.218524	0.702069	-0.454072
H171	H	1.739165	0.291921	0.063934
H172	H	1.568888	0.413748	0.059488
Br173	Br	1.282930	0.702081	-0.597358
H174	H	1.063895	0.231043	0.462637
