data_functionalizedCrystal
_audit_creation_method	'MofGen! by Chris Wilmer'
_symmetry_space_group_name_H-M	'P1'
_symmetry_Int_Tables_number	1
_symmetry_cell_setting	triclinic
loop_
_symmetry_equiv_pos_as_xyz
  x,y,z
_cell_length_a	13.262390
_cell_length_b	10.489716
_cell_length_c	12.376457
_cell_angle_alpha	101.395919
_cell_angle_beta	63.168449
_cell_angle_gamma	84.480389
loop_
_atom_site_label
_atom_site_type_symbol
_atom_site_fract_x
_atom_site_fract_y
_atom_site_fract_z
O1	O	1.512618	0.027045	-0.559072
O2	O	1.185849	0.071741	-0.458603
O3	O	1.356684	-0.136842	-0.511132
O4	O	1.341783	0.235628	-0.506543
O5	O	1.313990	-0.084764	-0.309993
O6	O	1.143155	0.123819	-0.257463
O7	O	1.469924	0.079123	-0.357932
Zn8	Zn	1.299761	0.109739	-0.275762
Zn9	Zn	1.356012	0.041124	-0.540773
O10	O	1.299089	0.287706	-0.305403
C11	C	1.122660	0.100064	-0.345169
C12	C	0.997982	0.106855	-0.306836
C13	C	0.739639	0.012424	-0.637365
C14	C	0.856781	0.006037	-0.673383
C15	C	0.892087	0.031241	-0.581749
C16	C	0.810240	0.062833	-0.454091
C17	C	0.693087	0.069211	-0.418070
C18	C	0.845536	0.088028	-0.362454
C19	C	0.763688	0.119620	-0.234797
C20	C	0.646548	0.125997	-0.198782
C21	C	0.611242	0.100792	-0.290415
C22	C	0.962688	0.081650	-0.398476
C23	C	0.916136	0.138437	-0.179181
C24	C	0.798994	0.144824	-0.143163
C25	C	1.334219	-0.158241	-0.410222
C26	C	1.330872	-0.299590	-0.409203
C27	C	1.435630	-0.406174	-0.441402
C28	C	1.401322	-0.504501	-0.523551
C29	C	1.359205	-0.453118	-0.325235
C30	C	1.296624	-0.396076	-0.491447
C31	C	1.254504	-0.344666	-0.293048
C32	C	1.220123	-0.442944	-0.375197
C33	C	1.533114	0.050799	-0.471369
C34	C	1.657793	0.044006	-0.509710
C35	C	1.321555	0.309104	-0.406316
C36	C	1.324904	0.450451	-0.407343
N37	N	1.261379	0.156566	-0.094902
N38	N	1.394403	-0.005713	-0.721636
C39	C	1.483499	-0.114437	0.191784
C40	C	1.510356	-0.147211	0.065186
C41	C	1.448114	-0.071270	0.025158
C42	C	1.359010	0.037451	0.111740
C43	C	1.332156	0.070234	0.238349
C44	C	1.296771	0.113402	0.071722
C45	C	1.207668	0.222123	0.158304
C46	C	1.180818	0.254900	0.284900
C47	C	1.243060	0.178959	0.324929
C48	C	1.323625	0.080619	-0.054887
C49	C	1.172283	0.265290	-0.008322
C50	C	1.145426	0.298064	0.118276
H51	H	0.923414	-0.019692	-0.777322
O52	O	1.111269	-0.462656	-0.341632
C53	C	0.910568	-0.400779	-0.183052
C54	C	1.033777	-0.378293	-0.220910
H55	H	0.847886	-0.332606	-0.085436
H56	H	0.883978	-0.377561	-0.253906
H57	H	0.908644	-0.508902	-0.181761
H58	H	1.035795	-0.270185	-0.222190
H59	H	1.060316	-0.401598	-0.150048
O60	O	1.596901	-0.252894	-0.018738
C61	C	1.744222	-0.432554	-0.051569
C62	C	1.646216	-0.312913	0.043615
H63	H	1.784137	-0.481096	-0.001199
H64	H	1.707859	-0.508081	-0.095756
H65	H	1.813283	-0.396993	-0.128249
H66	H	1.577121	-0.348351	0.120367
H67	H	1.682665	-0.237412	0.087704
O68	O	0.705257	-0.011818	-0.726309
C69	C	0.588095	0.073708	-0.809204
C70	C	0.626958	0.101354	-0.708416
H71	H	0.524766	0.165179	-0.794756
H72	H	0.666658	0.050112	-0.906664
H73	H	0.544029	-0.014686	-0.800753
H74	H	0.671003	0.189764	-0.716749
H75	H	0.548354	0.124871	-0.610997
O76	O	1.474310	-0.103325	-0.097852
C77	C	1.595929	-0.251647	-0.305091
C78	C	1.566365	-0.215499	-0.165810
H79	H	1.670373	-0.342325	-0.360080
H80	H	1.516978	-0.275213	-0.312988
H81	H	1.622374	-0.164090	-0.345332
H82	H	1.539946	-0.303005	-0.125480
H83	H	1.645341	-0.191884	-0.157997
H84	H	1.396174	-0.007902	-0.125372
H85	H	1.534174	-0.176253	0.224384
O86	O	1.180696	-0.262419	-0.176743
C87	C	1.130276	-0.197833	0.042308
C88	C	1.213953	-0.291041	-0.089351
H89	H	1.157119	-0.220959	0.113005
H90	H	1.132983	-0.090016	0.040197
H91	H	1.038715	-0.213581	0.071204
H92	H	1.305552	-0.275411	-0.118328
H93	H	1.211145	-0.398824	-0.087168
H94	H	1.221191	0.205639	0.428015
H95	H	1.463342	-0.573467	-0.620990
O96	O	1.265246	-0.365669	-0.575376
C97	C	1.233186	-0.197494	-0.670484
C98	C	1.268754	-0.231759	-0.575408
H99	H	1.235986	-0.089221	-0.670522
H100	H	1.295456	-0.264987	-0.768563
H101	H	1.141693	-0.212894	-0.642686
H102	H	1.360223	-0.216350	-0.603090
H103	H	1.206407	-0.164270	-0.477353
O104	O	1.094205	0.360525	0.368850
C105	C	0.946980	0.540288	0.401655
C106	C	1.045020	0.420683	0.306459
H107	H	0.907203	0.588977	0.351244
H108	H	0.877804	0.504816	0.478313
H109	H	0.983414	0.615677	0.445879
H110	H	1.008692	0.345247	0.262142
H111	H	1.114180	0.456255	0.229878
H112	H	0.944881	0.158958	-0.104564
O113	O	0.566913	0.156822	-0.074813
C114	C	0.395825	0.308312	0.096781
C115	C	0.485917	0.273547	-0.043633
H116	H	0.330331	0.402701	0.122039
H117	H	0.349303	0.222857	0.116212
H118	H	0.441202	0.325160	0.156067
H119	H	0.440631	0.256723	-0.103012
H120	H	0.532434	0.359021	-0.062964
O121	O	1.390914	-0.483460	-0.241521
C122	C	1.540337	-0.500241	-0.181909
C123	C	1.504553	-0.465809	-0.276779
H124	H	1.632225	-0.486010	-0.210395
H125	H	1.478734	-0.432098	-0.083929
H126	H	1.536562	-0.608210	-0.181215
H127	H	1.508335	-0.357870	-0.277584
H128	H	1.566161	-0.534040	-0.374713
H129	H	1.072876	0.386587	0.188786
O130	O	1.111731	0.339241	-0.046990
C131	C	0.958744	0.525821	0.012559
C132	C	1.027234	0.442210	0.056525
H133	H	0.890398	0.609073	0.096232
H134	H	1.020239	0.570667	-0.061735
H135	H	0.914840	0.459549	-0.029368
H136	H	1.071145	0.508393	0.098511
H137	H	0.965686	0.397350	0.130764
O138	O	1.544334	-0.385830	-0.475079
C139	C	1.708719	-0.318270	-0.622705
C140	C	1.585621	-0.341258	-0.584688
H141	H	1.742146	-0.282256	-0.711342
H142	H	1.707068	-0.240096	-0.543185
H143	H	1.768108	-0.415543	-0.641776
H144	H	1.526162	-0.244056	-0.565636
H145	H	1.587363	-0.419489	-0.664230
O146	O	1.042117	0.051199	-0.522481
C147	C	1.105851	0.111994	-0.717302
C148	C	1.015836	0.146647	-0.576869
H149	H	1.084621	0.189128	-0.761323
H150	H	1.195664	0.111829	-0.727385
H151	H	1.103865	0.009298	-0.767186
H152	H	1.017717	0.249349	-0.526896
H153	H	0.926064	0.146722	-0.566878
O154	O	0.719629	0.175576	-0.019103
C155	C	0.685818	0.231143	0.194607
C156	C	0.775816	0.196364	0.054159
H157	H	0.731213	0.247933	0.253879
H158	H	0.620258	0.325510	0.219964
H159	H	0.639355	0.145631	0.213949
H160	H	0.822363	0.281791	0.034715
H161	H	0.841300	0.101955	0.028873
H162	H	0.987471	0.026040	-0.611083
H163	H	0.515856	0.105996	-0.261096
