data_functionalizedCrystal
_audit_creation_method	'MofGen! by Chris Wilmer'
_symmetry_space_group_name_H-M	'P1'
_symmetry_Int_Tables_number	1
_symmetry_cell_setting	triclinic
loop_
_symmetry_equiv_pos_as_xyz
  x,y,z
_cell_length_a	16.120566
_cell_length_b	17.077402
_cell_length_c	17.077396
_cell_angle_alpha	90.029784
_cell_angle_beta	92.919707
_cell_angle_gamma	87.118933
loop_
_atom_site_label
_atom_site_type_symbol
_atom_site_fract_x
_atom_site_fract_y
_atom_site_fract_z
Zn1	Zn	-1.274550	0.373429	-0.504679
Zn2	Zn	-1.274451	0.504699	-0.373405
Zn3	Zn	-1.135133	0.366792	-0.366772
Zn4	Zn	-1.135099	0.497991	-0.497977
O5	O	-1.204808	0.435728	-0.435708
O6	O	-1.391202	0.396427	-0.492847
O7	O	-1.255943	0.486435	-0.262677
O8	O	-1.153682	0.257828	-0.385094
O9	O	-1.391130	0.492871	-0.396400
O10	O	-1.256111	0.262704	-0.486414
O11	O	-1.153587	0.385116	-0.257803
O12	O	-1.018463	0.378611	-0.378595
O13	O	-1.153624	0.481438	-0.608714
O14	O	-1.018438	0.475003	-0.474991
O15	O	-1.256078	0.389923	-0.613638
O16	O	-1.255910	0.613654	-0.389901
O17	O	-1.153529	0.608725	-0.481423
C18	C	-0.988200	0.425359	-0.425346
C19	C	-0.895534	0.420943	-0.420932
C20	C	-0.725872	0.412861	-0.412879
C21	C	-0.684584	0.458663	-0.458543
C22	C	-0.590179	0.454166	-0.454063
C23	C	-0.820286	0.417356	-0.417359
C24	C	-1.204728	0.639672	-0.435673
C25	C	-1.204770	0.726924	-0.435688
C26	C	-1.204859	0.435672	-0.640455
C27	C	-1.204880	0.435649	-0.727706
C28	C	-0.422262	0.446140	-0.446098
C29	C	-0.514928	0.450583	-0.450493
C30	C	-1.204912	0.230989	-0.435762
C31	C	-1.204956	0.143741	-0.435785
C32	C	-1.258134	0.770457	-0.388089
C33	C	-1.258175	0.852439	-0.388111
C34	C	-1.204846	0.890887	-0.435728
C35	C	-1.151479	0.847348	-0.483333
C36	C	-1.151443	0.765367	-0.483314
C37	C	-1.151557	1.018222	-0.483366
C38	C	-1.151591	1.100208	-0.483384
C39	C	-1.258288	1.105293	-0.388163
C40	C	-1.258252	1.023313	-0.388144
C41	C	-1.204884	0.979780	-0.435748
C42	C	-1.258230	0.387993	-0.771261
C43	C	-1.258240	0.387967	-0.853242
C44	C	-1.204904	0.435602	-0.891666
C45	C	-1.151548	0.483260	-0.848105
C46	C	-1.151535	0.483281	-0.766125
C47	C	-1.151582	0.483215	-1.018977
C48	C	-1.151596	0.483195	-1.100962
C49	C	-1.258287	0.387901	-1.106094
C50	C	-1.258273	0.387921	-1.024114
C51	C	-1.204919	0.435581	-0.980558
C52	C	-1.204806	0.435729	-0.231760
C53	C	-1.204946	0.435539	-0.144518
H54	H	-1.301557	0.739158	-0.349310
H55	H	-1.301665	0.349205	-0.739983
H56	H	-0.690321	0.370275	-0.370423
H57	H	-0.720138	0.501252	-0.501003
H58	H	-1.301629	0.887880	-0.349350
H59	H	-1.108163	0.521982	-1.132244
H60	H	-1.301672	0.992009	-0.349367
H61	H	-1.301745	1.140742	-0.349405
H62	H	-1.108182	1.131511	-0.522173
H63	H	-1.108101	0.982780	-0.522133
H64	H	-1.108062	0.878659	-0.522107
H65	H	-1.107990	0.729924	-0.522075
H66	H	-1.301684	0.349163	-0.888702
H67	H	-1.301709	0.349137	-0.992832
H68	H	-1.108083	0.522080	-0.730663
H69	H	-1.108122	0.522011	-0.983515
H70	H	-1.108118	0.522043	-0.879396
H71	H	-1.301729	0.349093	-1.141561
