data_functionalizedCrystal
_audit_creation_method	'MofGen! by Chris Wilmer'
_symmetry_space_group_name_H-M	'P1'
_symmetry_Int_Tables_number	1
_symmetry_cell_setting	triclinic
loop_
_symmetry_equiv_pos_as_xyz
  x,y,z
_cell_length_a	23.532407
_cell_length_b	23.532361
_cell_length_c	22.010155
_cell_angle_alpha	89.989489
_cell_angle_beta	89.997764
_cell_angle_gamma	82.839173
loop_
_atom_site_label
_atom_site_type_symbol
_atom_site_fract_x
_atom_site_fract_y
_atom_site_fract_z
O1	O	0.069001	0.755286	-0.050470
O2	O	0.569001	1.255286	0.449530
O3	O	0.079032	0.589419	-0.050486
O4	O	0.579032	1.089419	0.449514
O5	O	-0.008916	0.677354	-0.050466
O6	O	0.491084	1.177354	0.449534
O7	O	0.156949	0.667351	-0.050490
O8	O	0.656949	1.167351	0.449510
O9	O	-0.008904	0.677328	0.050584
O10	O	0.491096	1.177328	0.550584
O11	O	0.079044	0.589393	0.050565
O12	O	0.579044	1.089393	0.550565
O13	O	0.069013	0.755260	0.050580
O14	O	0.569013	1.255260	0.550580
Cu15	Cu	0.074029	0.672324	0.059799
Cu16	Cu	0.574029	1.172324	0.559799
Cu17	Cu	0.074016	0.672355	-0.059705
Cu18	Cu	0.574016	1.172355	0.440295
O19	O	0.156961	0.667325	0.050561
O20	O	0.656961	1.167325	0.550561
C21	C	0.078787	0.568189	0.000038
C22	C	0.578787	1.068189	0.500038
C23	C	0.078032	0.504971	0.000032
C24	C	0.578032	1.004971	0.500032
C25	C	0.074722	0.231741	-0.055046
C26	C	0.574722	0.731741	0.444954
C27	C	0.075437	0.291141	-0.055048
C28	C	0.575437	0.791141	0.444952
O29	O	0.075782	0.321879	-0.101892
O30	O	0.575782	0.821879	0.398108
N31	N	0.075804	0.320832	0.000035
N32	N	0.575804	0.820832	0.500035
C33	C	0.075451	0.291122	0.055123
C34	C	0.575451	0.791122	0.555123
O35	O	0.075829	0.321831	0.101975
O36	O	0.575829	0.821831	0.601975
C37	C	0.074732	0.231724	0.055124
C38	C	0.574732	0.731724	0.555124
C39	C	0.074370	0.202035	0.000037
C40	C	0.574370	0.702035	0.500037
C41	C	0.074360	0.202052	-0.110128
C42	C	0.574360	0.702052	0.389872
C43	C	0.073646	0.142657	-0.110126
C44	C	0.573646	0.642657	0.389874
C45	C	0.073294	0.112950	-0.055043
C46	C	0.573294	0.612950	0.444957
C47	C	0.073657	0.142639	0.000039
C48	C	0.573657	0.642639	0.500039
C49	C	0.074374	0.202015	0.110211
C50	C	0.574374	0.702015	0.610211
C51	C	0.073655	0.142612	0.110207
C52	C	0.573655	0.642612	0.610207
C53	C	0.073293	0.112923	0.055121
C54	C	0.573293	0.612923	0.555121
C55	C	0.072591	0.053536	0.055125
C56	C	0.572591	0.553536	0.555125
N57	N	0.072224	0.023845	0.000042
N58	N	0.572224	0.523845	0.500042
C59	C	0.072575	0.053552	-0.055042
C60	C	0.572575	0.553552	0.444958
C61	C	0.076960	0.415862	0.055117
C62	C	0.576960	0.915862	0.555117
C63	C	0.077683	0.475258	0.055116
C64	C	0.577683	0.975258	0.555116
C65	C	0.077668	0.475274	-0.055055
C66	C	0.577668	0.975274	0.444945
C67	C	0.076949	0.415876	-0.055054
C68	C	0.576949	0.915876	0.444946
C69	C	0.076593	0.386171	0.000034
C70	C	0.576593	0.886171	0.500034
C71	C	0.071077	-0.071184	-0.055034
C72	C	0.571077	0.428816	0.444966
C73	C	0.070365	-0.130585	-0.055027
C74	C	0.570365	0.369415	0.444973
C75	C	0.070377	-0.130595	0.055144
C76	C	0.570377	0.369405	0.555144
C77	C	0.071092	-0.071199	0.055137
C78	C	0.571092	0.428801	0.555137
C79	C	0.071440	-0.041495	0.000044
C80	C	0.571440	0.458505	0.500044
O81	O	0.072244	0.022761	0.101945
O82	O	0.572244	0.522761	0.601945
O83	O	0.072190	0.022836	-0.101886
O84	O	0.572190	0.522836	0.398114
C85	C	-0.030126	0.677086	0.000060
C86	C	0.469874	1.177086	0.500060
C87	C	-0.093343	0.676320	0.000065
C88	C	0.406657	1.176320	0.500065
C89	C	-0.492454	0.723555	0.000036
C90	C	0.007546	1.223555	0.500036
C91	C	-0.551854	0.722844	0.000031
C92	C	-0.051854	1.222844	0.500031
O93	O	-0.588606	0.766630	0.000013
O94	O	-0.088606	1.266630	0.500013
N95	N	-0.574471	0.670566	0.000027
N96	N	-0.074471	1.170566	0.500027
C97	C	-0.537685	0.618997	0.000021
C98	C	-0.037685	1.118997	0.500021
O99	O	-0.562377	0.574465	0.000016
O100	O	-0.062377	1.074465	0.500016
C101	C	-0.478286	0.619709	0.000021
C102	C	0.021714	1.119709	0.500021
C103	C	-0.455672	0.671990	0.000032
C104	C	0.044328	1.171990	0.500032
C105	C	-0.469839	0.775832	0.000046
C106	C	0.030161	1.275832	0.500046
C107	C	-0.410443	0.776543	0.000052
C108	C	0.089557	1.276543	0.500052
C109	C	-0.373662	0.724977	0.000048
C110	C	0.126338	1.224977	0.500048
C111	C	-0.396276	0.672701	0.000038
C112	C	0.103724	1.172701	0.500038
C113	C	-0.441501	0.568140	0.000011
C114	C	0.058499	1.068140	0.500011
C115	C	-0.382099	0.568857	0.000011
C116	C	0.117901	1.068857	0.500011
C117	C	-0.359485	0.621137	0.000021
C118	C	0.140515	1.121137	0.500021
C119	C	-0.300099	0.621847	0.000039
C120	C	0.199901	1.121847	0.500039
N121	N	-0.277481	0.674124	0.000044
N122	N	0.222519	1.174124	0.500044
C123	C	-0.314263	0.725690	0.000048
C124	C	0.185737	1.225690	0.500048
C125	C	-0.662427	0.617505	0.000019
C126	C	-0.162427	1.117505	0.500019
C127	C	-0.721825	0.616793	0.000023
C128	C	-0.221825	1.116793	0.500023
C129	C	-0.735990	0.720640	0.000032
C130	C	-0.235990	1.220640	0.500032
C131	C	-0.676591	0.721352	0.000033
C132	C	-0.176591	1.221352	0.500033
C133	C	-0.639810	0.669783	0.000024
C134	C	-0.139810	1.169783	0.500024
C135	C	-0.189526	0.727179	0.000061
C136	C	0.310474	1.227179	0.500061
C137	C	-0.130124	0.727886	0.000069
C138	C	0.369876	1.227886	0.500069
C139	C	-0.115965	0.624039	0.000057
C140	C	0.384035	1.124039	0.500057
C141	C	-0.175361	0.623332	0.000051
C142	C	0.324639	1.123332	0.500051
C143	C	-0.212141	0.674907	0.000051
C144	C	0.287859	1.174907	0.500051
O145	O	-0.263312	0.578083	0.000055
O146	O	0.236688	1.078083	0.500055
O147	O	-0.289562	0.770214	0.000045
O148	O	0.210438	1.270214	0.500045
C149	C	0.178171	0.667592	0.000033
C150	C	0.678171	1.167592	0.500033
C151	C	0.241388	0.668358	0.000024
C152	C	0.741388	1.168358	0.500024
C153	C	0.069258	0.776489	0.000055
C154	C	0.569258	1.276489	0.500055
C155	C	0.070014	0.839708	0.000057
C156	C	0.570014	1.339708	0.500057
N157	N	0.074039	0.672306	0.143851
N158	N	0.574039	1.172306	0.643851
C159	C	0.039656	0.637994	0.436458
C160	C	0.539656	1.137994	0.936458
C161	C	0.039658	0.637989	0.372851
C162	C	0.539658	1.137989	0.872851
O163	O	0.010423	0.608796	0.339955
O164	O	0.510423	1.108796	0.839955
N165	N	0.074023	0.672327	0.341036
N166	N	0.574023	1.172327	0.841036
C167	C	0.108384	0.706676	0.372832
C168	C	0.608384	1.206676	0.872832
O169	O	0.137614	0.735883	0.339930
O170	O	0.637614	1.235883	0.839930
C171	C	0.108379	0.706683	0.436438
C172	C	0.608379	1.206683	0.936438
C173	C	0.074016	0.672339	0.468250
C174	C	0.574016	1.172339	0.968250
C175	C	0.005296	0.603652	0.468270
C176	C	0.505296	1.103652	0.968270
C177	C	0.005295	0.603656	0.531873
C178	C	0.505295	1.103656	1.031873
C179	C	0.039654	0.638001	0.563665
C180	C	0.539654	1.138001	1.063665
C181	C	0.074015	0.672343	0.531853
C182	C	0.574015	1.172343	1.031853
C183	C	0.142737	0.741035	0.468233
C184	C	0.642737	1.241035	0.968233
C185	C	0.142728	0.741040	0.531844
C186	C	0.642728	1.241040	1.031844
C187	C	0.108365	0.706695	0.563655
C188	C	0.608365	1.206695	1.063655
C189	C	0.108374	0.706691	0.627248
C190	C	0.608374	1.206691	1.127248
N191	N	0.074009	0.672354	0.659063
N192	N	0.574009	1.172354	1.159063
C193	C	0.039649	0.638008	0.627271
C194	C	0.539649	1.138008	1.127271
C195	C	0.108392	0.706659	0.239254
C196	C	0.608392	1.206659	0.739254
C197	C	0.108401	0.706649	0.175649
C198	C	0.608401	1.206649	0.675649
C199	C	0.039674	0.637963	0.175672
C200	C	0.539674	1.137963	0.675672
C201	C	0.039668	0.637970	0.239278
C202	C	0.539668	1.137970	0.739278
C203	C	0.074027	0.672321	0.271069
C204	C	0.574027	1.172321	0.771069
C205	C	0.039650	0.638019	0.760842
C206	C	0.539650	1.138019	1.260842
C207	C	0.039654	0.638024	0.824451
C208	C	0.539654	1.138024	1.324451
C209	C	0.108379	0.706712	0.824422
C210	C	0.608379	1.206712	1.324422
C211	C	0.108377	0.706705	0.760819
C212	C	0.608377	1.206705	1.260819
C213	C	0.074008	0.672357	0.729031
C214	C	0.574008	1.172357	1.229031
O215	O	0.137592	0.735872	0.660184
O216	O	0.637592	1.235872	1.160184
O217	O	0.010418	0.608812	0.660180
O218	O	0.510418	1.108812	1.160180
N219	N	0.074014	0.672369	0.856243
N220	N	0.574014	1.172369	1.356243
H221	H	0.076654	0.391707	-0.099910
H222	H	0.576654	0.891707	0.400090
H223	H	-0.111716	0.770461	0.000079
H224	H	0.388284	1.270461	0.500079
N225	N	0.074742	0.232337	0.166478
N226	N	0.574742	0.732337	0.666478
N227	N	0.115289	0.260000	0.178780
N228	N	0.615289	0.760000	0.678780
H229	H	0.115548	0.281414	0.218522
H230	H	0.615548	0.781414	0.718522
H231	H	-0.022689	0.575691	0.557768
H232	H	0.477311	1.075691	1.057768
N233	N	0.073273	0.112324	-0.166390
N234	N	0.573273	0.612324	0.333610
N235	N	0.113019	0.073699	-0.178694
N236	N	0.613019	0.573699	0.321306
H237	H	0.112754	0.052278	-0.218432
H238	H	0.612754	0.552278	0.281568
H239	H	-0.499782	0.817825	0.000047
H240	H	0.000218	1.317825	0.500047
N241	N	0.177826	0.776136	0.564306
N242	N	0.677826	1.276136	1.064306
N243	N	0.208500	0.806796	0.535891
N244	N	0.708500	1.306796	1.035891
H245	H	0.233289	0.831583	0.558816
H246	H	0.733289	1.331583	1.058816
N247	N	0.004552	0.602922	0.728382
N248	N	0.504552	1.102922	1.228382
N249	N	0.026987	0.565133	0.692904
N250	N	0.526987	1.065133	1.192904
H251	H	0.002201	0.540342	0.669980
H252	H	0.502201	1.040342	1.169980
H253	H	-0.193774	0.580761	0.000060
H254	H	0.306226	1.080761	0.500060
H255	H	0.070093	-0.154793	0.099991
H256	H	0.570093	0.345207	0.599991
N257	N	-0.227082	0.779866	0.000059
N258	N	0.272918	1.279866	0.500059
N259	N	-0.206873	0.826534	0.000068
N260	N	0.293127	1.326534	0.500068
H261	H	-0.233396	0.863744	0.000070
H262	H	0.266604	1.363744	0.500070
H263	H	0.071361	-0.047006	-0.099896
H264	H	0.571361	0.452994	0.400104
H265	H	0.073370	0.118429	0.155067
H266	H	0.573370	0.618429	0.655067
N267	N	-0.029811	0.568565	0.435811
N268	N	0.470189	1.068565	0.935811
N269	N	-0.060486	0.537911	0.464234
N270	N	0.439514	1.037911	0.964234
H271	H	-0.085280	0.513125	0.441315
H272	H	0.414720	1.013125	0.941315
N273	N	0.004566	0.602883	0.271761
N274	N	0.504566	1.102883	0.771761
N275	N	-0.026105	0.572219	0.243360
N276	N	0.473895	1.072219	0.743360
H277	H	-0.050898	0.547437	0.266297
H278	H	0.449102	1.047437	0.766297
H279	H	-0.392037	0.819115	0.000058
H280	H	0.107963	1.319115	0.500058
N281	N	-0.344519	0.516184	-0.000003
N282	N	0.155481	1.016184	0.499997
N283	N	-0.309791	0.505010	-0.042598
N284	N	0.190209	1.005010	0.457402
H285	H	-0.283250	0.467811	-0.042607
H286	H	0.216750	0.967811	0.457393
H287	H	0.074644	0.226234	-0.154986
H288	H	0.574644	0.726234	0.345014
H289	H	-0.632483	0.575509	0.000017
H290	H	-0.132483	1.075509	0.500017
N291	N	0.078019	0.505635	-0.111318
N292	N	0.578019	1.005635	0.388682
N293	N	0.078652	0.558669	-0.111304
N294	N	0.578652	1.058669	0.388696
H295	H	0.078898	0.580115	-0.151037
H296	H	0.578898	1.080115	0.348963
N297	N	0.078066	0.505571	0.111391
N298	N	0.578066	1.005571	0.611391
N299	N	0.077756	0.479032	0.160566
N300	N	0.577756	0.979032	0.660566
H301	H	0.078025	0.500438	0.200313
H302	H	0.578025	1.000438	0.700313
H303	H	0.071398	-0.047027	0.099993
H304	H	0.571398	0.452973	0.599993
N305	N	-0.773560	0.773319	0.000024
N306	N	-0.273560	1.273319	0.500024
N307	N	-0.753367	0.819996	0.000025
N308	N	-0.253367	1.319996	0.500025
H309	H	-0.779901	0.857199	0.000018
H310	H	-0.279901	1.357199	0.500018
H311	H	0.011696	0.609997	0.149776
H312	H	0.511696	1.109997	0.649776
H313	H	0.070073	-0.154756	-0.099887
H314	H	0.570073	0.345244	0.400113
N315	N	0.177852	0.776111	0.435758
N316	N	0.677852	1.276111	0.935758
N317	N	0.208527	0.806768	0.464164
N318	N	0.708527	1.306768	0.964164
H319	H	0.233332	0.831540	0.441230
H320	H	0.733332	1.331540	0.941230
N321	N	-0.653504	0.774760	0.000046
N322	N	-0.153504	1.274760	0.500046
N323	N	-0.686358	0.820794	0.000055
N324	N	-0.186358	1.320794	0.500055
H325	H	-0.670056	0.858516	0.000064
H326	H	-0.170056	1.358516	0.500064
H327	H	0.136366	0.734663	0.734917
H328	H	0.636366	1.234663	1.234917
H329	H	0.076677	0.391679	0.099978
H330	H	0.576677	0.891679	0.599978
H331	H	-0.740232	0.574220	0.000025
H332	H	-0.240232	1.074220	0.500025
N333	N	-0.464581	0.514730	-0.000001
N334	N	0.035419	1.014730	0.499999
N335	N	-0.431723	0.468699	-0.000012
N336	N	0.068277	0.968699	0.499988
H337	H	-0.448021	0.430975	-0.000022
H338	H	0.051979	0.930975	0.499978
H339	H	-0.086007	0.582056	0.000055
H340	H	0.413993	1.082056	0.500055
N341	N	0.004551	0.602933	0.856936
N342	N	0.504551	1.102933	1.356936
N343	N	-0.026124	0.572272	0.828538
N344	N	0.473876	1.072272	1.328538
H345	H	-0.050915	0.547489	0.851477
H346	H	0.449085	1.047489	1.351477
H347	H	0.136390	0.734609	0.149753
H348	H	0.636390	1.234609	0.649753
N349	N	0.143497	0.741752	0.271715
N350	N	0.643497	1.241752	0.771715
N351	N	0.174174	0.772406	0.243296
N352	N	0.674174	1.272406	0.743296
H353	H	0.198967	0.797191	0.266218
H354	H	0.698967	1.297191	0.766218
N355	N	0.143472	0.741789	0.856913
N356	N	0.643472	1.241789	1.356913
N357	N	0.143459	0.741786	0.913704
N358	N	0.643459	1.241786	1.413704
H359	H	0.168241	0.766562	0.936653
H360	H	0.668241	1.266562	1.436653
