data_functionalizedCrystal
_audit_creation_method	'MofGen! by Chris Wilmer'
_symmetry_space_group_name_H-M	'P1'
_symmetry_Int_Tables_number	1
_symmetry_cell_setting	triclinic
loop_
_symmetry_equiv_pos_as_xyz
  x,y,z
_cell_length_a	19.288867
_cell_length_b	19.288865
_cell_length_c	17.766277
_cell_angle_alpha	89.988397
_cell_angle_beta	89.992126
_cell_angle_gamma	83.136658
loop_
_atom_site_label
_atom_site_type_symbol
_atom_site_fract_x
_atom_site_fract_y
_atom_site_fract_z
O1	O	0.921352	0.086655	-0.062576
O2	O	1.254685	0.419989	0.270757
O3	O	1.588019	0.753322	0.604090
O4	O	0.719092	0.098343	-0.062585
O5	O	1.052425	0.431676	0.270748
O6	O	1.385758	0.765009	0.604082
O7	O	0.826066	-0.008631	-0.062566
O8	O	1.159400	0.324702	0.270768
O9	O	1.492733	0.658035	0.604101
O10	O	0.814378	0.193629	-0.062596
O11	O	1.147711	0.526963	0.270738
O12	O	1.481044	0.860296	0.604071
O13	O	0.826048	-0.008637	0.062623
O14	O	1.159381	0.324697	0.395956
O15	O	1.492714	0.658030	0.729290
O16	O	0.719073	0.098337	0.062604
O17	O	1.052406	0.431671	0.395937
O18	O	1.385740	0.765004	0.729270
O19	O	0.921333	0.086650	0.062612
O20	O	1.254667	0.419983	0.395945
O21	O	1.588000	0.753317	0.729279
Cu22	Cu	0.820201	0.092493	0.074039
Cu23	Cu	1.153535	0.425826	0.407372
Cu24	Cu	1.486868	0.759160	0.740705
Cu25	Cu	0.820224	0.092500	-0.074011
Cu26	Cu	1.153557	0.425833	0.259322
Cu27	Cu	1.486890	0.759166	0.592655
O28	O	0.814359	0.193624	0.062593
O29	O	1.147692	0.526957	0.395926
O30	O	1.481025	0.860291	0.729259
C31	C	0.693206	0.097964	0.000009
C32	C	1.026539	0.431297	0.333342
C33	C	1.359873	0.764630	0.666675
C34	C	0.616102	0.096834	0.000006
C35	C	0.949436	0.430167	0.333339
C36	C	1.282769	0.763501	0.666673
C37	C	0.825681	-0.034510	0.000031
C38	C	1.159014	0.298823	0.333364
C39	C	1.492347	0.632156	0.666698
C40	C	0.824552	-0.111614	0.000038
C41	C	1.157885	0.221719	0.333371
C42	C	1.491218	0.555053	0.666704
C43	C	0.060547	0.088701	-0.068224
C44	C	0.393881	0.422034	0.265109
C45	C	0.727214	0.755367	0.598442
C46	C	0.132995	0.089758	-0.068227
C47	C	0.466328	0.423091	0.265106
C48	C	0.799661	0.756425	0.598439
C49	C	0.169213	0.090287	0.000013
C50	C	0.502546	0.423620	0.333346
C51	C	0.835880	0.756954	0.666679
C52	C	0.132980	0.089741	0.068261
C53	C	0.466314	0.423074	0.401594
C54	C	0.799647	0.756407	0.734927
C55	C	0.060535	0.088676	0.068262
C56	C	0.393868	0.422010	0.401595
C57	C	0.727202	0.755343	0.734928
C58	C	0.278533	0.132652	0.052287
C59	C	0.611866	0.465986	0.385620
C60	C	0.945199	0.799319	0.718954
C61	C	0.350976	0.133721	0.052283
C62	C	0.684309	0.467054	0.385617
C63	C	1.017643	0.800387	0.718950
C64	C	0.392659	0.093566	0.000012
C65	C	0.725992	0.426899	0.333346
C66	C	1.059325	0.760233	0.666679
C67	C	0.361888	0.052352	-0.052267
C68	C	0.695221	0.385685	0.281066
C69	C	1.028555	0.719018	0.614399
C70	C	0.289443	0.051288	-0.052266
C71	C	0.622776	0.384621	0.281067
C72	C	0.956110	0.717954	0.614400
C73	C	0.247768	0.091440	0.000019
C74	C	0.581101	0.424774	0.333352
C75	C	0.914435	0.758107	0.666686
C76	C	0.507439	0.095254	-0.068235
C77	C	0.840773	0.428587	0.265099
C78	C	1.174106	0.761920	0.598432
C79	C	0.579889	0.096306	-0.068235
C80	C	0.913222	0.429640	0.265099
C81	C	1.246556	0.762973	0.598432
C82	C	0.579872	0.096296	0.068255
C83	C	0.913205	0.429629	0.401589
C84	C	1.246539	0.762963	0.734922
C85	C	0.507425	0.095236	0.068253
C86	C	0.840758	0.428570	0.401587
C87	C	1.174092	0.761903	0.734920
C88	C	0.471213	0.094718	0.000006
C89	C	0.804546	0.428052	0.333340
C90	C	1.137879	0.761385	0.666673
C91	C	0.887320	-0.156310	0.000044
C92	C	1.220653	0.177024	0.333377
C93	C	1.553986	0.510357	0.666711
C94	C	0.886259	-0.228757	0.000032
C95	C	1.219592	0.104576	0.333365
C96	C	1.552926	0.437910	0.666699
C97	C	0.822427	-0.256505	0.000029
C98	C	1.155760	0.076828	0.333362
C99	C	1.489093	0.410162	0.666695
C100	C	0.759651	-0.211799	0.000018
C101	C	1.092984	0.121534	0.333352
C102	C	1.426317	0.454867	0.666685
C103	C	0.760713	-0.139354	0.000023
C104	C	1.094047	0.193980	0.333356
C105	C	1.427380	0.527313	0.666689
C106	C	0.772241	-0.364795	0.043877
C107	C	1.105574	-0.031461	0.377211
C108	C	1.438907	0.301872	0.710544
C109	C	0.771181	-0.437239	0.043878
C110	C	1.104514	-0.103906	0.377211
C111	C	1.437848	0.229428	0.710544
C112	C	0.819147	-0.479951	0.000012
C113	C	1.152481	-0.146617	0.333345
C114	C	1.485814	0.186716	0.666678
C115	C	0.868185	-0.450210	-0.043845
C116	C	1.201518	-0.116877	0.289489
C117	C	1.534852	0.216456	0.622822
C118	C	0.869248	-0.377765	-0.043840
C119	C	1.202581	-0.044431	0.289493
C120	C	1.535914	0.288902	0.622826
C121	C	0.821268	-0.335059	0.000024
C122	C	1.154601	-0.001726	0.333357
C123	C	1.487934	0.331608	0.666690
C124	C	0.880769	-0.603202	0.000004
C125	C	1.214103	-0.269869	0.333337
C126	C	1.547436	0.063464	0.666671
C127	C	0.879706	-0.675650	-0.000013
C128	C	1.213039	-0.342317	0.333321
C129	C	1.546373	-0.008984	0.666654
C130	C	0.753096	-0.658691	-0.000019
C131	C	1.086429	-0.325358	0.333315
C132	C	1.419763	0.007976	0.666648
C133	C	0.754161	-0.586245	-0.000010
C134	C	1.087494	-0.252911	0.333324
C135	C	1.420828	0.080422	0.666657
C136	C	0.818000	-0.558505	0.000005
C137	C	1.151333	-0.225172	0.333339
C138	C	1.484666	0.108162	0.666672
C139	C	0.947219	0.087029	0.000017
C140	C	1.280552	0.420362	0.333350
C141	C	1.613886	0.753696	0.666684
C142	C	1.024323	0.088159	0.000015
C143	C	1.357656	0.421492	0.333348
C144	C	1.690989	0.754825	0.666681
C145	C	0.814744	0.219503	-0.000005
C146	C	1.148078	0.552836	0.333328
C147	C	1.481411	0.886170	0.666661
C148	C	0.815873	0.296607	-0.000017
C149	C	1.149207	0.629940	0.333316
C150	C	1.482540	0.963273	0.666650
N151	N	0.820191	0.092488	0.178169
N152	N	1.153524	0.425822	0.511502
N153	N	1.486858	0.759155	0.844836
N154	N	0.820240	0.092499	-0.178142
N155	N	1.153573	0.425832	0.155192
N156	N	1.486906	0.759166	0.488525
C157	C	0.867575	0.045143	0.217564
C158	C	1.200908	0.378477	0.550898
C159	C	1.534241	0.711810	0.884231
C160	C	0.867579	0.045140	0.296366
C161	C	1.200912	0.378473	0.629700
C162	C	1.534245	0.711807	0.963033
C163	C	0.820206	0.092494	0.335769
C164	C	1.153539	0.425827	0.669103
C165	C	1.486872	0.759160	1.002436
C166	C	0.772813	0.139842	0.296364
C167	C	1.106146	0.473176	0.629698
C168	C	1.439480	0.806509	0.963031
C169	C	0.772806	0.139839	0.217564
C170	C	1.106139	0.473173	0.550898
C171	C	1.439472	0.806506	0.884231
C172	C	0.810907	0.155781	0.460598
C173	C	1.144240	0.489115	0.793931
C174	C	1.477573	0.822448	1.127264
C175	C	0.810919	0.155785	0.539397
C176	C	1.144252	0.489118	0.872730
C177	C	1.477586	0.822452	1.206063
C178	C	0.820224	0.092502	0.578816
C179	C	1.153557	0.425835	0.912149
C180	C	1.486891	0.759169	1.245482
C181	C	0.829532	0.029213	0.539426
C182	C	1.162865	0.362546	0.872760
C183	C	1.496199	0.695879	1.206093
C184	C	0.829525	0.029210	0.460626
C185	C	1.162858	0.362543	0.793960
C186	C	1.496191	0.695877	1.127293
C187	C	0.820208	0.092502	0.421215
C188	C	1.153541	0.425835	0.754548
C189	C	1.486875	0.759168	1.087882
C190	C	0.867615	0.045150	0.703657
C191	C	1.200948	0.378483	1.036991
C192	C	1.534281	0.711816	1.370324
C193	C	0.867614	0.045146	0.782460
C194	C	1.200947	0.378479	1.115794
C195	C	1.534281	0.711812	1.449127
C196	C	0.772852	0.139854	0.782457
C197	C	1.106185	0.473187	1.115791
C198	C	1.439518	0.806520	1.449124
C199	C	0.772849	0.139852	0.703655
C200	C	1.106183	0.473185	1.036989
C201	C	1.439516	0.806519	1.370322
C202	C	0.820234	0.092501	0.664260
C203	C	1.153568	0.425834	0.997594
C204	C	1.486901	0.759167	1.330927
H205	H	0.031068	0.088276	-0.123797
H206	H	0.364401	0.421610	0.209537
H207	H	0.697735	0.754943	0.542870
H208	H	0.703049	-0.549852	-0.000011
H209	H	1.036382	-0.216519	0.333323
H210	H	1.369715	0.116815	0.666656
H211	H	0.376021	0.167297	0.094837
H212	H	0.709355	0.500630	0.428170
H213	H	1.042688	0.833963	0.761503
Br214	Br	0.798295	0.241676	0.592846
Br215	Br	1.131628	0.575009	0.926179
Br216	Br	1.464962	0.908343	1.259512
H217	H	0.244600	0.165348	0.094861
H218	H	0.577934	0.498681	0.428194
H219	H	0.911267	0.832014	0.761527
H220	H	0.906197	0.006591	0.671580
H221	H	1.239530	0.339925	1.004914
H222	H	1.572863	0.673258	1.338247
Br223	Br	0.935792	-0.337403	-0.103360
Br224	Br	1.269125	-0.004070	0.229973
Br225	Br	1.602459	0.329263	0.563307
H226	H	0.733179	-0.330024	0.079602
H227	H	1.066512	0.003309	0.412936
H228	H	1.399846	0.336643	0.746269
H229	H	0.707678	-0.234396	0.000014
H230	H	1.041011	0.098937	0.333347
H231	H	1.374345	0.432270	0.666681
Br232	Br	0.458290	0.094547	-0.160853
Br233	Br	0.791623	0.427881	0.172481
Br234	Br	1.124957	0.761214	0.505814
H235	H	0.803317	0.207317	0.428509
H236	H	1.136651	0.540651	0.761842
H237	H	1.469984	0.873984	1.095176
H238	H	0.709598	-0.102962	0.000018
H239	H	1.042932	0.230372	0.333351
H240	H	1.376265	0.563705	0.666684
H241	H	0.162494	0.090203	-0.123798
H242	H	0.495827	0.423537	0.209536
H243	H	0.829161	0.756870	0.542869
H244	H	0.609382	0.096743	-0.123805
H245	H	0.942716	0.430076	0.209528
H246	H	1.276049	0.763409	0.542861
H247	H	0.734277	0.178407	0.814539
H248	H	1.067610	0.511741	1.147872
H249	H	1.400944	0.845074	1.481205
Br250	Br	0.247684	-0.004645	-0.123211
Br251	Br	0.581018	0.328689	0.210122
Br252	Br	0.914351	0.662022	0.543455
H253	H	0.731248	-0.461447	0.079584
H254	H	1.064582	-0.128114	0.412917
H255	H	1.397915	0.205219	0.746251
H256	H	0.162474	0.090170	0.123822
H257	H	0.495808	0.423503	0.457155
H258	H	0.829141	0.756837	0.790489
Br259	Br	0.708515	0.204104	0.349837
Br260	Br	1.041849	0.537437	0.683171
Br261	Br	1.375182	0.870771	1.016504
Br262	Br	0.931879	-0.019119	0.164099
Br263	Br	1.265212	0.314214	0.497432
Br264	Br	1.598545	0.647547	0.830765
H265	H	0.609361	0.096724	0.123818
H266	H	0.942694	0.430057	0.457151
H267	H	1.276027	0.763391	0.790484
H268	H	0.477930	0.094797	0.123821
H269	H	0.811264	0.428130	0.457154
H270	H	1.144597	0.761464	0.790488
H271	H	0.734220	0.178394	0.185488
H272	H	1.067553	0.511727	0.518821
H273	H	1.400886	0.845061	0.852154
H274	H	0.837109	-0.022318	0.571520
H275	H	1.170442	0.311015	0.904853
H276	H	1.503775	0.644348	1.238186
Br277	Br	0.418448	-0.002143	-0.123217
Br278	Br	0.751781	0.331190	0.210117
Br279	Br	1.085114	0.664524	0.543450
H280	H	0.907244	-0.484985	-0.079565
H281	H	1.240577	-0.151651	0.253768
H282	H	1.573910	0.181682	0.587102
Br283	Br	0.011369	0.087942	0.160879
Br284	Br	0.344703	0.421275	0.494213
Br285	Br	0.678036	0.754608	0.827546
H286	H	0.906165	0.006585	0.328448
H287	H	1.239498	0.339918	0.661781
H288	H	1.572832	0.673251	0.995115
H289	H	0.939302	-0.133729	0.000053
H290	H	1.272635	0.199604	0.333387
H291	H	1.605969	0.532937	0.666720
H292	H	0.937374	-0.265155	0.000034
H293	H	1.270707	0.068178	0.333367
H294	H	1.604040	0.401511	0.666701
Br295	Br	0.967405	-0.565551	0.000032
Br296	Br	1.300738	-0.232218	0.333365
Br297	Br	1.634071	0.101116	0.666699
H298	H	0.930821	-0.712042	-0.000012
H299	H	1.264155	-0.378709	0.333322
H300	H	1.597488	-0.045375	0.666655
Br301	Br	0.666465	-0.696341	-0.000031
Br302	Br	0.999798	-0.363008	0.333303
Br303	Br	1.333132	-0.029674	0.666636
Br304	Br	0.842149	-0.056678	0.407171
Br305	Br	1.175483	0.276656	0.740504
Br306	Br	1.508816	0.609989	1.073838
H307	H	0.906197	0.006588	0.814537
H308	H	1.239531	0.339921	1.147870
H309	H	1.572864	0.673255	1.481204
H310	H	0.734268	0.178407	0.671578
H311	H	1.067601	0.511741	1.004911
H312	H	1.400934	0.845074	1.338244
