data_functionalizedCrystal
_audit_creation_method	'MofGen! by Chris Wilmer'
_symmetry_space_group_name_H-M	'P1'
_symmetry_Int_Tables_number	1
_symmetry_cell_setting	triclinic
loop_
_symmetry_equiv_pos_as_xyz
  x,y,z
_cell_length_a	33.592126
_cell_length_b	33.591377
_cell_length_c	33.588093
_cell_angle_alpha	60.004089
_cell_angle_beta	60.008299
_cell_angle_gamma	59.994549
loop_
_atom_site_label
_atom_site_type_symbol
_atom_site_fract_x
_atom_site_fract_y
_atom_site_fract_z
O1	O	0.055297	-0.581666	0.486338
O2	O	0.388631	-0.248332	0.819672
O3	O	0.721964	0.085001	1.153005
O4	O	0.020882	-0.452873	0.391864
O5	O	0.354215	-0.119540	0.725197
O6	O	0.687549	0.213793	1.058531
O7	O	0.102445	-0.534352	0.391775
O8	O	0.435779	-0.201018	0.725109
O9	O	0.769112	0.132315	1.058442
O10	O	-0.026266	-0.500187	0.486427
O11	O	0.307067	-0.166854	0.819760
O12	O	0.640401	0.166479	1.153094
O13	O	0.129510	-0.507292	0.418747
O14	O	0.462843	-0.173959	0.752080
O15	O	0.796177	0.159375	1.085413
O16	O	0.047947	-0.425814	0.418835
O17	O	0.381280	-0.092481	0.752169
O18	O	0.714614	0.240853	1.085502
O19	O	0.082362	-0.554606	0.513309
O20	O	0.415695	-0.221273	0.846643
O21	O	0.749029	0.112060	1.179976
Cu22	Cu	0.067626	-0.487739	0.468535
Cu23	Cu	0.400959	-0.154406	0.801868
Cu24	Cu	0.734292	0.178927	1.135202
Cu25	Cu	0.035618	-0.519740	0.436638
Cu26	Cu	0.368952	-0.186407	0.769972
Cu27	Cu	0.702285	0.146926	1.103305
O28	O	0.000799	-0.473128	0.513398
O29	O	0.334132	-0.139795	0.846731
O30	O	0.667466	0.193539	1.180065
N31	N	0.090139	-0.465235	0.490972
N32	N	0.423472	-0.131902	0.824305
N33	N	0.756806	0.201432	1.157638
N34	N	0.013110	-0.542249	0.414202
N35	N	0.346443	-0.208916	0.747535
N36	N	0.679776	0.124418	1.080868
C37	C	0.124394	-0.431229	0.734914
C38	C	0.457728	-0.097895	1.068247
C39	C	0.791061	0.235438	1.401581
C40	C	0.334265	-0.431145	0.524799
C41	C	0.667598	-0.097812	0.858132
C42	C	1.000932	0.235522	1.191466
C43	C	0.124204	-0.431200	0.524965
C44	C	0.457538	-0.097867	0.858298
C45	C	0.790871	0.235466	1.191631
C46	C	0.124184	-0.221175	0.524955
C47	C	0.457517	0.112159	0.858289
C48	C	0.790850	0.445492	1.191622
C49	C	0.158017	-0.322536	0.558710
C50	C	0.491350	0.010797	0.892044
C51	C	0.824684	0.344130	1.225377
C52	C	0.158027	-0.397406	0.558711
C53	C	0.491360	-0.064073	0.892045
C54	C	0.824694	0.269260	1.225378
C55	C	0.176763	-0.378688	0.577408
C56	C	0.510096	-0.045354	0.910741
C57	C	0.843429	0.287979	1.244074
C58	C	0.258412	-0.364594	0.534386
C59	C	0.591745	-0.031261	0.867719
C60	C	0.925078	0.302072	1.201053
C61	C	0.309454	-0.381596	0.517340
C62	C	0.642788	-0.048263	0.850673
C63	C	0.976121	0.285071	1.184007
C64	C	0.309485	-0.464188	0.548836
C65	C	0.642818	-0.130855	0.882169
C66	C	0.976152	0.202478	1.215502
C67	C	0.258444	-0.447186	0.565883
C68	C	0.591777	-0.113852	0.899216
C69	C	0.925110	0.219481	1.232550
C70	C	0.170304	-0.297002	0.508532
C71	C	0.503637	0.036332	0.841866
C72	C	0.836970	0.369665	1.175199
C73	C	0.153260	-0.245956	0.491537
C74	C	0.486593	0.087377	0.824871
C75	C	0.819927	0.420710	1.158204
C76	C	0.111648	-0.245983	0.574901
C77	C	0.444981	0.087350	0.908234
C78	C	0.778314	0.420683	1.241567
C79	C	0.128691	-0.297029	0.591896
C80	C	0.462025	0.036304	0.925229
C81	C	0.795358	0.369638	1.258562
C82	C	0.107841	-0.385091	0.571080
C83	C	0.441174	-0.051757	0.904413
C84	C	0.774508	0.281576	1.237747
C85	C	0.090813	-0.402108	0.554078
C86	C	0.424147	-0.068774	0.887411
C87	C	0.757480	0.264559	1.220745
C88	C	0.174153	-0.443755	0.512351
C89	C	0.507487	-0.110422	0.845684
C90	C	0.840820	0.222911	1.179017
C91	C	0.191183	-0.426739	0.529347
C92	C	0.524516	-0.093405	0.862680
C93	C	0.857850	0.239928	1.196013
C94	C	0.107923	-0.385106	0.659111
C95	C	0.441256	-0.051773	0.992445
C96	C	0.774590	0.281561	1.325778
C97	C	0.090955	-0.402138	0.710156
C98	C	0.424288	-0.068804	1.043489
C99	C	0.757622	0.264529	1.376822
C100	C	0.174335	-0.443795	0.710087
C101	C	0.507669	-0.110462	1.043420
C102	C	0.841002	0.222872	1.376753
C103	C	0.191302	-0.426764	0.659041
C104	C	0.524635	-0.093431	0.992375
C105	C	0.857969	0.239902	1.325708
C106	C	0.158095	-0.397418	0.633555
C107	C	0.491428	-0.064085	0.966889
C108	C	0.824762	0.269248	1.300222
C109	C	0.232909	-0.397388	0.558656
C110	C	0.566242	-0.064055	0.891989
C111	C	0.899576	0.269279	1.225322
C112	C	0.105069	-0.449619	0.791057
C113	C	0.438403	-0.116286	1.124391
C114	C	0.771736	0.217047	1.457724
C115	C	0.390406	-0.449193	0.505789
C116	C	0.723740	-0.115859	0.839122
C117	C	1.057073	0.217474	1.172455
C118	C	0.104813	-0.449599	0.506607
C119	C	0.438147	-0.116266	0.839940
C120	C	0.771480	0.217068	1.173274
C121	C	0.105125	-0.165028	0.506915
C122	C	0.438458	0.168306	0.840248
C123	C	0.771792	0.501639	1.173581
C124	C	-0.020560	-0.576246	0.169890
C125	C	0.312774	-0.242913	0.503223
C126	C	0.646107	0.090420	0.836556
C127	C	-0.020889	-0.786183	0.379970
C128	C	0.312445	-0.452850	0.713303
C129	C	0.645778	-0.119517	1.046636
C130	C	-0.020859	-0.576235	0.380063
C131	C	0.312475	-0.242902	0.713397
C132	C	0.645808	0.090432	1.046730
C133	C	-0.230772	-0.576015	0.379658
C134	C	0.102561	-0.242682	0.712992
C135	C	0.435894	0.090652	1.046325
C136	C	-0.129417	-0.609898	0.346025
C137	C	0.203916	-0.276564	0.679359
C138	C	0.537249	0.056769	1.012692
C139	C	-0.054587	-0.609979	0.346172
C140	C	0.278746	-0.276645	0.679505
C141	C	0.612080	0.056688	1.012839
C142	C	-0.073269	-0.628671	0.327396
C143	C	0.260064	-0.295337	0.660729
C144	C	0.593397	0.037996	0.994062
C145	C	-0.087401	-0.710299	0.370335
C146	C	0.245933	-0.376966	0.703668
C147	C	0.579266	-0.043633	1.037001
C148	C	-0.070424	-0.761345	0.387369
C149	C	0.262909	-0.428012	0.720703
C150	C	0.596243	-0.094679	1.054036
C151	C	0.012165	-0.761428	0.356003
C152	C	0.345498	-0.428094	0.689336
C153	C	0.678831	-0.094761	1.022670
C154	C	-0.004813	-0.710383	0.338967
C155	C	0.328520	-0.377050	0.672300
C156	C	0.661854	-0.043716	1.005634
C157	C	-0.155001	-0.622196	0.396191
C158	C	0.178332	-0.288863	0.729525
C159	C	0.511665	0.044471	1.062858
C160	C	-0.206043	-0.605128	0.413125
C161	C	0.127290	-0.271794	0.746458
C162	C	0.460623	0.061539	1.079792
C163	C	-0.205914	-0.563467	0.329724
C164	C	0.127420	-0.230134	0.663057
C165	C	0.460753	0.103200	0.996391
C166	C	-0.154872	-0.580535	0.312790
C167	C	0.178462	-0.247202	0.646124
C168	C	0.511795	0.086131	0.979457
C169	C	-0.066886	-0.559797	0.333828
C170	C	0.266447	-0.226464	0.667161
C171	C	0.599780	0.106869	1.000495
C172	C	-0.049903	-0.542809	0.350903
C173	C	0.283431	-0.209476	0.684236
C174	C	0.616764	0.123857	1.017569
C175	C	-0.008321	-0.626180	0.392654
C176	C	0.325013	-0.292846	0.725987
C177	C	0.658346	0.040487	1.059321
C178	C	-0.025304	-0.643170	0.375585
C179	C	0.308029	-0.309837	0.708918
C180	C	0.641362	0.023497	1.042252
C181	C	-0.066758	-0.559805	0.245702
C182	C	0.266576	-0.226471	0.579036
C183	C	0.599909	0.106862	0.912369
C184	C	-0.049671	-0.542819	0.194658
C185	C	0.283662	-0.209485	0.527992
C186	C	0.616995	0.123848	0.861325
C187	C	-0.008026	-0.626194	0.194706
C188	C	0.325307	-0.292860	0.528040
C189	C	0.658640	0.040473	0.861373
C190	C	-0.025111	-0.643179	0.245752
C191	C	0.308222	-0.309845	0.579085
C192	C	0.641555	0.023488	0.912418
C193	C	-0.054479	-0.609983	0.271248
C194	C	0.278855	-0.276650	0.604582
C195	C	0.612188	0.056684	0.937915
C196	C	-0.054597	-0.684821	0.346135
C197	C	0.278737	-0.351487	0.679469
C198	C	0.612070	-0.018154	1.012802
C199	C	-0.002109	-0.556901	0.113746
C200	C	0.331224	-0.223568	0.447080
C201	C	0.664557	0.109765	0.780413
C202	C	-0.002869	-0.842328	0.398966
C203	C	0.330465	-0.508995	0.732300
C204	C	0.663798	-0.175661	1.065633
C205	C	-0.002496	-0.556887	0.398501
C206	C	0.330837	-0.223554	0.731834
C207	C	0.664171	0.109779	1.065167
C208	C	-0.286914	-0.556929	0.397631
C209	C	0.046419	-0.223595	0.730964
C210	C	0.379752	0.109738	1.064298
N211	N	0.436349	-0.465146	0.490703
N212	N	0.769682	-0.131813	0.824036
N213	N	1.103015	0.201520	1.157370
O214	O	0.592194	-0.469605	0.374236
O215	O	0.925527	-0.136272	0.707570
O216	O	1.258860	0.197061	1.040903
O217	O	0.592389	-0.564393	0.502890
O218	O	0.925722	-0.231060	0.836223
O219	O	1.259056	0.102274	1.169556
O220	O	0.592305	-0.564176	0.421300
O221	O	0.925639	-0.230843	0.754634
O222	O	1.258972	0.102490	1.087967
O223	O	0.592277	-0.469822	0.455826
O224	O	0.925611	-0.136489	0.789159
O225	O	1.258944	0.196845	1.122492
O226	O	0.511216	-0.537214	0.448415
O227	O	0.844549	-0.203881	0.781748
O228	O	1.177883	0.129452	1.115081
O229	O	0.511300	-0.537431	0.530004
O230	O	0.844633	-0.204098	0.863337
O231	O	1.177966	0.129236	1.196671
O232	O	0.511104	-0.442643	0.401350
O233	O	0.844438	-0.109310	0.734684
O234	O	1.177771	0.224023	1.068017
Cu235	Cu	0.503798	-0.487575	0.468153
Cu236	Cu	0.837131	-0.154242	0.801486
Cu237	Cu	1.170465	0.179091	1.134820
Cu238	Cu	0.599695	-0.519461	0.436087
Cu239	Cu	0.933029	-0.186128	0.769421
Cu240	Cu	1.266362	0.147206	1.102754
O241	O	0.511188	-0.442860	0.482940
O242	O	0.844521	-0.109527	0.816273
O243	O	1.177855	0.223807	1.149606
N244	N	0.667145	-0.541890	0.413532
N245	N	1.000478	-0.208557	0.746866
N246	N	1.333811	0.124777	1.080199
N247	N	0.090108	-0.119085	0.490958
N248	N	0.423442	0.214249	0.824291
N249	N	0.756775	0.547582	1.157625
O250	O	-0.026275	0.036848	0.486394
O251	O	0.307059	0.370182	0.819728
O252	O	0.640392	0.703515	1.153061
O253	O	0.102381	0.036888	0.391584
O254	O	0.435715	0.370221	0.724917
O255	O	0.769048	0.703555	1.058250
O256	O	0.020751	0.036852	0.391854
O257	O	0.354084	0.370186	0.725188
O258	O	0.687417	0.703519	1.058521
O259	O	0.055356	0.036884	0.486124
O260	O	0.388689	0.370217	0.819457
O261	O	0.722022	0.703551	1.152790
O262	O	0.047821	-0.044242	0.418876
O263	O	0.381155	0.289091	0.752210
O264	O	0.714488	0.622424	1.085543
O265	O	0.129452	-0.044207	0.418606
O266	O	0.462785	0.289127	0.751939
O267	O	0.796118	0.622460	1.085272
O268	O	0.000796	-0.044246	0.513417
O269	O	0.334129	0.289087	0.846750
O270	O	0.667463	0.622420	1.180083
Cu271	Cu	0.067596	-0.051631	0.468479
Cu272	Cu	0.400929	0.281702	0.801812
Cu273	Cu	0.734262	0.615036	1.135145
Cu274	Cu	0.035582	0.044273	0.436522
Cu275	Cu	0.368915	0.377606	0.769855
Cu276	Cu	0.702248	0.710939	1.103188
O277	O	0.082426	-0.044211	0.513146
O278	O	0.415760	0.289123	0.846479
O279	O	0.749093	0.622456	1.179813
N280	N	0.013063	0.111726	0.414043
N281	N	0.346396	0.445060	0.747376
N282	N	0.679729	0.778393	1.080710
N283	N	0.090453	-0.465282	0.837001
N284	N	0.423786	-0.131948	1.170334
N285	N	0.757119	0.201385	1.503668
O286	O	0.085913	-0.581648	0.992925
O287	O	0.419246	-0.248314	1.326259
O288	O	0.752580	0.085019	1.659592
O289	O	-0.008857	-0.452947	0.992970
O290	O	0.324477	-0.119614	1.326303
O291	O	0.657810	0.213719	1.659636
O292	O	-0.008635	-0.534562	0.992946
O293	O	0.324699	-0.201228	1.326280
O294	O	0.658032	0.132105	1.659613
O295	O	0.085691	-0.500033	0.992949
O296	O	0.419025	-0.166700	1.326282
O297	O	0.752358	0.166633	1.659615
O298	O	0.018365	-0.507512	0.911855
O299	O	0.351698	-0.174178	1.245188
O300	O	0.685031	0.159155	1.578522
O301	O	0.018143	-0.425898	0.911878
O302	O	0.351476	-0.092564	1.245212
O303	O	0.684810	0.240769	1.578545
O304	O	0.112912	-0.554598	0.911834
O305	O	0.446246	-0.221264	1.245167
O306	O	0.779579	0.112069	1.578501
Cu307	Cu	0.067993	-0.487778	0.904452
Cu308	Cu	0.401326	-0.154444	1.237785
Cu309	Cu	0.734660	0.178889	1.571119
Cu310	Cu	0.036063	-0.519767	1.000352
Cu311	Cu	0.369396	-0.186434	1.333685
Cu312	Cu	0.702730	0.146899	1.667018
O313	O	0.112691	-0.472984	0.911857
O314	O	0.446024	-0.139650	1.245191
O315	O	0.779357	0.193683	1.578524
N316	N	0.013602	-0.542269	1.067803
N317	N	0.346936	-0.208935	1.401136
N318	N	0.680269	0.124398	1.734469
C319	C	0.031188	-0.423114	0.392334
C320	C	0.364521	-0.089781	0.725667
C321	C	0.697855	0.243552	1.059000
C322	C	0.132194	-0.524016	0.392223
C323	C	0.465527	-0.190682	0.725557
C324	C	0.798860	0.142651	1.058890
C325	C	0.072056	-0.584366	0.512840
C326	C	0.405389	-0.251032	0.846173
C327	C	0.738723	0.082301	1.179506
C328	C	-0.028950	-0.483464	0.512950
C329	C	0.304384	-0.150131	0.846283
C330	C	0.637717	0.183202	1.179616
C331	C	0.551868	-0.563965	0.532655
C332	C	0.885201	-0.230632	0.865989
C333	C	1.218535	0.102702	1.199322
C334	C	0.551766	-0.563697	0.431617
C335	C	0.885099	-0.230364	0.764950
C336	C	1.218432	0.102970	1.098283
C337	C	0.551623	-0.443070	0.371586
C338	C	0.884956	-0.109737	0.704919
C339	C	1.218290	0.223596	1.038252
C340	C	0.551728	-0.443339	0.472623
C341	C	0.885062	-0.110006	0.805957
C342	C	1.218395	0.223327	1.139290
C343	C	0.132090	-0.003555	0.392006
C344	C	0.465424	0.329779	0.725339
C345	C	0.798757	0.663112	1.058672
C346	C	0.031035	-0.003698	0.392374
C347	C	0.364368	0.329635	0.725707
C348	C	0.697701	0.662968	1.059041
C349	C	-0.028947	-0.003703	0.512961
C350	C	0.304386	0.329630	0.846295
C351	C	0.637720	0.662963	1.179628
C352	C	0.072143	-0.003661	0.512626
C353	C	0.405476	0.329673	0.845960
C354	C	0.738809	0.663006	1.179293
C355	C	-0.008408	-0.423209	0.952430
C356	C	0.324925	-0.089875	1.285763
C357	C	0.658259	0.243458	1.619096
C358	C	-0.008128	-0.524272	0.952385
C359	C	0.325206	-0.190939	1.285718
C360	C	0.658539	0.142394	1.619052
C361	C	0.112464	-0.584336	0.952374
C362	C	0.445797	-0.251003	1.285707
C363	C	0.779130	0.082330	1.619041
C364	C	0.112190	-0.483267	0.952401
C365	C	0.445523	-0.149933	1.285734
C366	C	0.778856	0.183400	1.619067
H367	H	0.050098	-0.392105	0.730957
H368	H	0.383432	-0.058771	1.064290
H369	H	0.716765	0.274562	1.397624
F370	F	0.180284	-0.003246	0.353004
F371	F	0.513618	0.330087	0.686337
F372	F	0.846951	0.663421	1.019670
H373	H	-0.065895	-0.003715	0.542725
H374	H	0.267439	0.329618	0.876058
H375	H	0.600772	0.662951	1.209392
F376	F	0.551718	-0.404597	0.482276
F377	F	0.885052	-0.071264	0.815610
F378	F	1.218385	0.262069	1.148943
H379	H	0.141823	-0.475877	0.952395
H380	H	0.475157	-0.142543	1.285729
H381	H	0.808490	0.190790	1.619062
F382	F	0.551541	-0.404170	0.323293
F383	F	0.884875	-0.070837	0.656627
F384	F	1.218208	0.262496	0.989960
F385	F	0.551784	-0.602442	0.421961
F386	F	0.885117	-0.269108	0.755294
F387	F	1.218451	0.064225	1.088627
H388	H	0.201378	-0.467681	0.730833
H389	H	0.534711	-0.134347	1.064166
H390	H	0.868045	0.198986	1.397499
F391	F	0.551935	-0.602860	0.580953
F392	F	0.885268	-0.269527	0.914286
F393	F	1.218601	0.063807	1.247619
F394	F	0.021348	-0.003705	0.353660
F395	F	0.354681	0.329628	0.686994
F396	F	0.688014	0.662962	1.020327
F397	F	0.081828	-0.003649	0.551338
F398	F	0.415161	0.329684	0.884672
F399	F	0.748495	0.663017	1.218005
F400	F	-0.046846	-0.533913	0.952342
F401	F	0.286487	-0.200580	1.285675
F402	F	0.619821	0.132754	1.619009
F403	F	0.151355	-0.632647	0.952353
F404	F	0.484689	-0.299314	1.285687
F405	F	0.818022	0.034019	1.619020
H406	H	-0.065919	-0.476185	0.542670
H407	H	0.267415	-0.142852	0.876004
H408	H	0.600748	0.190482	1.209337
H409	H	0.080878	-0.361206	0.638363
H410	H	0.414211	-0.027873	0.971696
H411	H	0.747545	0.305461	1.305029
F412	F	0.072551	-0.353873	0.602331
F413	F	0.405884	-0.020540	0.935664
F414	F	0.739217	0.312793	1.268997
F415	F	0.244704	-0.439876	0.631846
F416	F	0.578037	-0.106543	0.965179
F417	F	0.911370	0.226791	1.298513
F418	F	0.037400	-0.389062	0.567300
F419	F	0.370734	-0.055729	0.900633
F420	F	0.704067	0.277605	1.233967
F421	F	-0.047297	-0.374896	0.952444
F422	F	0.286036	-0.041562	1.285777
F423	F	0.619370	0.291771	1.619110
H424	H	0.201155	-0.467643	0.488446
H425	H	0.534488	-0.134309	0.821780
H426	H	0.867822	0.199024	1.155113
F427	F	0.180511	-0.533531	0.353372
F428	F	0.513844	-0.200198	0.686705
F429	F	0.847178	0.133136	1.020039
F430	F	0.231302	-0.482092	0.591715
F431	F	0.564636	-0.148759	0.925048
F432	F	0.897969	0.184574	1.258382
F433	F	0.336663	-0.517188	0.556521
F434	F	0.669997	-0.183855	0.889854
F435	F	1.003330	0.149478	1.223187
F436	F	0.244596	-0.439851	0.516191
F437	F	0.577930	-0.106518	0.849524
F438	F	0.911263	0.226816	1.182858
H439	H	0.330218	-0.354891	0.497577
H440	H	0.663551	-0.021557	0.830910
H441	H	0.996884	0.311776	1.164243
H442	H	-0.134040	-0.570516	0.271939
H443	H	0.199293	-0.237183	0.605272
H444	H	0.532626	0.096151	0.938606
F445	F	0.231240	-0.311595	0.526693
F446	F	0.564573	0.021739	0.860026
F447	F	0.897906	0.355072	1.193359
F448	F	0.166334	-0.218779	0.438129
F449	F	0.499667	0.114555	0.771463
F450	F	0.833001	0.447888	1.104796
F451	F	0.080448	-0.218835	0.610220
F452	F	0.413781	0.114498	0.943553
F453	F	0.747114	0.447832	1.276886
F454	F	0.115613	-0.324206	0.645304
F455	F	0.448946	0.009127	0.978637
F456	F	0.782279	0.342460	1.311970
F457	F	-0.062749	-0.489410	0.167478
F458	F	0.270584	-0.156076	0.500811
F459	F	0.603918	0.177257	0.834144
F460	F	-0.098017	-0.524470	0.272836
F461	F	0.235316	-0.191137	0.606169
F462	F	0.568650	0.142197	0.939502
F463	F	0.023214	-0.661527	0.167577
F464	F	0.356547	-0.328194	0.500910
F465	F	0.689880	0.005140	0.834243
F466	F	0.201516	-0.324148	0.473214
F467	F	0.534849	0.009186	0.806547
F468	F	0.868183	0.342519	1.139880
F469	F	0.081667	-0.632723	0.551626
F470	F	0.415001	-0.299390	0.884959
F471	F	0.748334	0.033944	1.218292
H472	H	-0.090726	-0.532768	0.309877
H473	H	0.242607	-0.199435	0.643211
H474	H	0.575940	0.133898	0.976544
F475	F	-0.012035	-0.696587	0.272936
F476	F	0.321298	-0.363254	0.606270
F477	F	0.654631	-0.029921	0.939603
H478	H	-0.059919	-0.501948	0.340854
H479	H	0.273415	-0.168615	0.674187
H480	H	0.606748	0.164719	1.007520
H481	H	-0.015291	-0.684031	0.385637
H482	H	0.318043	-0.350698	0.718970
H483	H	0.651376	-0.017365	1.052304
F484	F	0.022848	-0.661509	0.423952
F485	F	0.356181	-0.328175	0.757285
F486	F	0.689514	0.005158	1.090619
H487	H	0.023834	-0.386116	0.362662
H488	H	0.357168	-0.052783	0.695995
H489	H	0.690501	0.280551	1.029329
H490	H	0.021903	-0.689639	0.319262
H491	H	0.355236	-0.356306	0.652595
H492	H	0.688570	-0.022972	0.985929
F493	F	0.065150	-0.788635	0.348380
F494	F	0.398483	-0.455302	0.681713
F495	F	0.731816	-0.121968	1.015046
H496	H	-0.127938	-0.689491	0.376175
H497	H	0.205396	-0.356157	0.709508
H498	H	0.538729	-0.022824	1.042842
F499	F	-0.105339	-0.788461	0.413122
F500	F	0.227994	-0.455128	0.746456
F501	F	0.561328	-0.121795	1.079789
H502	H	-0.226875	-0.615140	0.453976
H503	H	0.106459	-0.281806	0.787310
H504	H	0.439792	0.051527	1.120643
F505	F	-0.233006	-0.532221	0.294352
F506	F	0.100327	-0.198888	0.627686
F507	F	0.433661	0.134445	0.961019
F508	F	-0.127912	-0.653447	0.431563
F509	F	0.205422	-0.320114	0.764896
F510	F	0.538755	0.013219	1.098229
