data_functionalizedCrystal
_audit_creation_method	'MofGen! by Chris Wilmer'
_symmetry_space_group_name_H-M	'P1'
_symmetry_Int_Tables_number	1
_symmetry_cell_setting	triclinic
loop_
_symmetry_equiv_pos_as_xyz
  x,y,z
_cell_length_a	16.109301
_cell_length_b	16.109301
_cell_length_c	14.586319
_cell_angle_alpha	90.000846
_cell_angle_beta	90.000787
_cell_angle_gamma	96.538519
loop_
_atom_site_label
_atom_site_type_symbol
_atom_site_fract_x
_atom_site_fract_y
_atom_site_fract_z
O1	O	-1.103131	0.106866	-0.076173
O2	O	-0.861069	0.120165	-0.076186
O3	O	-0.988749	-0.007515	-0.076184
O4	O	-0.975450	0.234547	-0.076175
O5	O	-0.988741	-0.007517	0.076297
O6	O	-0.861060	0.120164	0.076295
O7	O	-1.103122	0.106864	0.076308
Cu8	Cu	-0.982090	0.113514	0.090224
Cu9	Cu	-0.982101	0.113516	-0.090102
O10	O	-0.975441	0.234545	0.076306
C11	C	-0.830090	0.119626	0.000052
C12	C	-0.737794	0.118011	0.000047
C13	C	-0.988206	-0.038491	0.000053
C14	C	-0.986591	-0.130786	0.000044
C15	C	-1.134101	0.107404	0.000067
C16	C	-1.226397	0.109019	0.000067
C17	C	-0.975984	0.265521	0.000066
C18	C	-0.977600	0.357816	0.000070
C19	C	-0.515522	0.190018	0.000060
C20	C	-0.428801	0.188494	0.000066
C21	C	-0.448676	0.037006	0.000057
C22	C	-0.535394	0.038530	0.000057
C23	C	-0.568815	0.115039	0.000054
C24	C	-0.395376	0.111990	0.000059
C25	C	-0.301350	0.110337	0.000066
C26	C	-0.662847	0.116693	0.000050
N27	N	-0.982089	0.113512	0.217056
C28	C	-0.905592	0.580088	0.000053
C29	C	-0.907116	0.666809	0.000046
C30	C	-1.058605	0.646934	0.000058
C31	C	-1.057080	0.560216	0.000059
C32	C	-0.980571	0.526795	0.000060
C33	C	-0.983620	0.700234	0.000053
C34	C	-0.985273	0.794260	0.000046
C35	C	-0.978917	0.432763	0.000066
N36	N	-0.982109	0.113511	-0.216934
C37	C	-1.038644	0.056994	0.452063
C38	C	-1.038647	0.056992	0.548044
C39	C	-0.925547	0.170032	0.548052
C40	C	-0.925541	0.170030	0.452072
C41	C	-0.982095	0.113511	0.404081
C42	C	-0.982103	0.113512	0.596041
C43	C	-0.982105	0.113510	0.700108
C44	C	-0.982092	0.113512	0.300007
H45	H	-0.542730	0.252317	0.000065
H46	H	-1.084694	0.010969	0.587109
Cl47	Cl	-0.812852	0.733803	0.000032
Cl48	Cl	-0.809410	0.538077	0.000050
H49	H	-0.385413	0.249550	0.000072
Cl50	Cl	-1.154782	0.688955	0.000060
Cl51	Cl	-0.406655	-0.059172	0.000054
H52	H	-0.879503	0.216049	0.587136
H53	H	-1.118140	0.516822	0.000061
Cl54	Cl	-0.854440	0.241082	0.391745
H55	H	-0.578788	-0.022530	0.000055
H56	H	-1.084693	0.010972	0.412990
