data_functionalizedCrystal
_audit_creation_method	'MofGen! by Chris Wilmer'
_symmetry_space_group_name_H-M	'P1'
_symmetry_Int_Tables_number	1
_symmetry_cell_setting	triclinic
loop_
_symmetry_equiv_pos_as_xyz
  x,y,z
_cell_length_a	12.784905
_cell_length_b	11.792241
_cell_length_c	11.892095
_cell_angle_alpha	93.915739
_cell_angle_beta	86.511728
_cell_angle_gamma	78.650367
loop_
_atom_site_label
_atom_site_type_symbol
_atom_site_fract_x
_atom_site_fract_y
_atom_site_fract_z
O1	O	1.417107	-0.000816	-0.094010
O2	O	1.107932	0.047762	-0.094011
O3	O	1.270021	-0.142486	-0.094002
O4	O	1.255017	0.189433	-0.094018
O5	O	1.256507	-0.126646	0.094004
O6	O	1.094417	0.063603	0.093996
O7	O	1.403592	0.015024	0.093997
Zn8	Zn	1.246859	0.041828	0.123846
Zn9	Zn	1.264665	0.020958	-0.123861
O10	O	1.241502	0.205273	0.093988
C11	C	1.061593	0.058842	-0.000008
C12	C	0.943654	0.068242	-0.000008
C13	C	0.746167	-0.123282	-0.000019
C14	C	0.635353	-0.114455	-0.000019
C15	C	0.611210	0.094722	-0.000017
C16	C	0.722024	0.085895	-0.000016
C17	C	0.789499	-0.023111	-0.000016
C18	C	0.900314	-0.031936	-0.000007
C19	C	0.876170	0.177239	-0.000013
C20	C	0.765356	0.186066	-0.000013
C21	C	1.262322	-0.176758	0.000001
C22	C	1.259500	-0.302475	-0.000001
C23	C	1.254314	-0.532643	-0.000019
C24	C	1.257196	-0.404560	-0.000009
C25	C	1.449931	0.003945	-0.000009
C26	C	1.567871	-0.005456	-0.000016
C27	C	1.249202	0.239545	-0.000017
C28	C	1.252024	0.365261	-0.000023
N29	N	1.234714	0.056070	0.292900
N30	N	1.276818	0.006707	-0.292914
C31	C	1.361326	-0.092460	0.529554
C32	C	1.352844	-0.082497	0.647896
C33	C	1.209266	0.085952	0.647926
C34	C	1.217747	0.075989	0.529585
C35	C	1.293781	-0.013218	0.470403
C36	C	1.302266	-0.023175	0.352060
C37	C	1.158683	0.145269	0.352092
C38	C	1.150202	0.155231	0.470434
H39	H	0.911462	0.258806	-0.000005
F40	F	1.086799	0.229612	0.289128
F41	F	1.424733	-0.166839	0.710845
F42	F	1.128341	0.180879	0.710925
H43	H	1.088294	0.227860	0.518633
H44	H	0.955251	-0.120694	-0.000005
F45	F	1.383190	-0.118114	0.289076
F46	F	0.693535	0.302070	-0.000021
H47	H	0.600077	-0.196024	-0.000024
F48	F	0.817979	-0.239290	-0.000004
H49	H	0.556255	0.183467	-0.000032
H50	H	1.423242	-0.165090	0.481368
