data_functionalizedCrystal
_audit_creation_method	'MofGen! by Chris Wilmer'
_symmetry_space_group_name_H-M	'P1'
_symmetry_Int_Tables_number	1
_symmetry_cell_setting	triclinic
loop_
_symmetry_equiv_pos_as_xyz
  x,y,z
_cell_length_a	14.971482
_cell_length_b	15.995362
_cell_length_c	14.048226
_cell_angle_alpha	90.001045
_cell_angle_beta	89.994098
_cell_angle_gamma	96.445006
loop_
_atom_site_label
_atom_site_type_symbol
_atom_site_fract_x
_atom_site_fract_y
_atom_site_fract_z
O1	O	1.186830	-0.109101	-0.079137
O2	O	0.926415	-0.122171	-0.079140
O3	O	1.063735	0.006244	-0.079145
O4	O	1.049509	-0.237516	-0.079132
O5	O	1.063719	0.006252	0.079176
O6	O	0.926398	-0.122163	0.079181
O7	O	1.186813	-0.109093	0.079185
Zn8	Zn	1.056603	-0.115627	0.104320
Zn9	Zn	1.056625	-0.115637	-0.104275
O10	O	1.049493	-0.237508	0.079190
C11	C	0.893082	-0.121583	0.000020
C12	C	0.793787	-0.119833	0.000018
C13	C	0.747134	-0.119005	0.086320
C14	C	0.653838	-0.117347	0.086321
C15	C	0.607195	-0.116524	0.000019
C16	C	0.653854	-0.117350	-0.086289
C17	C	0.747150	-0.119001	-0.086289
C18	C	0.459396	-0.113909	-0.086283
C19	C	0.366094	-0.112259	-0.086284
C20	C	0.366084	-0.112255	0.086327
C21	C	0.459379	-0.113907	0.086327
C22	C	0.506032	-0.114734	0.000018
C23	C	1.063137	0.037443	0.000012
C24	C	1.061368	0.130395	0.000001
C25	C	1.055015	0.468146	-0.000017
C26	C	0.957216	0.420809	-0.000371
C27	C	0.958985	0.324118	-0.000008
C28	C	1.058166	0.300584	-0.000009
C29	C	1.106394	0.341618	0.090397
C30	C	1.103932	0.438255	0.090466
C31	C	1.105971	0.438603	-0.089575
C32	C	1.105953	0.341658	-0.090763
C33	C	1.059952	0.205885	-0.000001
C34	C	1.053232	0.562845	-0.000019
C35	C	1.220145	-0.109681	0.000023
C36	C	1.319441	-0.111431	0.000018
N37	N	1.056595	-0.115620	0.246681
C38	C	1.050079	0.731291	0.000015
C39	C	1.051813	0.638336	-0.000027
N40	N	1.056640	-0.115638	-0.246636
C41	C	1.117419	-0.058781	0.296497
C42	C	1.117425	-0.058781	0.396154
C43	C	1.056610	-0.115623	0.445994
C44	C	0.995779	-0.172465	0.396171
C45	C	0.995770	-0.172461	0.296516
C46	C	0.995805	-0.172471	0.603886
C47	C	0.995816	-0.172476	0.703548
C48	C	1.117461	-0.058791	0.703524
C49	C	1.117451	-0.058787	0.603868
C50	C	1.056621	-0.115629	0.554053
H51	H	0.497378	-0.114583	-0.156565
Br52	Br	0.590559	-0.116196	-0.203415
Br53	Br	1.199993	0.018349	0.536225
H54	H	1.070692	0.314441	-0.157643
H55	H	0.785103	-0.119682	0.156598
Br56	Br	1.199965	0.018361	0.228867
H57	H	1.166990	-0.012508	0.744090
Br58	Br	0.913213	-0.249597	0.228908
Br59	Br	0.913244	-0.249612	0.536281
H60	H	0.918131	0.439376	-0.065206
H61	H	0.328119	-0.111590	-0.156559
H62	H	1.175735	0.470432	0.094565
Br63	Br	0.810467	-0.120118	-0.203418
Br64	Br	1.227842	0.317959	0.096005
Br65	Br	0.895798	0.276799	-0.108024
Br66	Br	0.913277	-0.249624	0.771181
Br67	Br	1.226504	0.315929	-0.099873
Br68	Br	0.892150	0.453935	0.106754
Br69	Br	0.913236	-0.249605	0.463808
Br70	Br	0.895344	0.277734	0.108192
H71	H	0.328094	-0.111582	0.156603
Br72	Br	0.522679	-0.115037	0.203452
Br73	Br	0.590524	-0.116237	0.203451
Br74	Br	1.045287	0.468827	0.203105
Br75	Br	1.199971	0.018361	0.463765
H76	H	1.072884	0.313273	0.157679
H77	H	1.178078	0.470292	-0.090186
Br78	Br	1.052678	0.472871	-0.203790
