data_functionalizedCrystal
_audit_creation_method	'MofGen! by Chris Wilmer'
_symmetry_space_group_name_H-M	'P1'
_symmetry_Int_Tables_number	1
_symmetry_cell_setting	triclinic
loop_
_symmetry_equiv_pos_as_xyz
  x,y,z
_cell_length_a	14.971482
_cell_length_b	15.711784
_cell_length_c	13.448316
_cell_angle_alpha	89.997651
_cell_angle_beta	89.993798
_cell_angle_gamma	101.600705
loop_
_atom_site_label
_atom_site_type_symbol
_atom_site_fract_x
_atom_site_fract_y
_atom_site_fract_z
O1	O	1.223691	0.112670	-0.082674
O2	O	0.967692	0.126167	-0.082678
O3	O	1.061626	-0.006448	-0.082675
O4	O	1.129757	0.245285	-0.082677
O5	O	1.061606	-0.006456	0.082709
O6	O	0.967672	0.126159	0.082706
O7	O	1.223671	0.112662	0.082710
Cu8	Cu	1.095670	0.119410	0.097809
Cu9	Cu	1.095693	0.119419	-0.097777
O10	O	1.129737	0.245277	0.082707
C11	C	0.934161	0.125560	0.000013
C12	C	0.834274	0.123753	0.000011
C13	C	0.787341	0.122897	0.090163
C14	C	0.693484	0.121186	0.090164
C15	C	0.646564	0.120335	0.000013
C16	C	0.693503	0.121189	-0.090146
C17	C	0.787356	0.122894	-0.090146
C18	C	0.497882	0.117636	-0.090140
C19	C	0.404022	0.115931	-0.090140
C20	C	0.404010	0.115927	0.090171
C21	C	0.497864	0.117633	0.090171
C22	C	0.544797	0.118487	0.000012
C23	C	1.050486	-0.038668	0.000015
C24	C	1.017312	-0.134660	0.000009
C25	C	0.892424	-0.259735	0.000001
C26	C	0.923605	-0.169537	0.000006
C27	C	1.079876	-0.189974	0.000013
C28	C	1.048708	-0.280176	0.000013
C29	C	0.954981	-0.315049	0.000006
C30	C	1.111265	-0.335490	0.000018
C31	C	1.080099	-0.425683	0.000013
C32	C	0.986376	-0.460563	0.000002
C33	C	0.923815	-0.405242	0.000001
C34	C	1.204991	-0.300615	0.000018
C35	C	1.267548	-0.355929	0.000022
C36	C	1.236382	-0.446124	0.000024
C37	C	1.142660	-0.481004	0.000014
C38	C	1.298943	-0.501445	0.000026
C39	C	1.267777	-0.591638	0.000021
C40	C	1.111494	-0.571198	0.000009
C41	C	1.257203	0.113269	0.000016
C42	C	1.357089	0.115076	0.000012
C43	C	1.140877	0.277497	0.000015
C44	C	1.174051	0.373489	0.000014
N45	N	1.095660	0.119402	0.235373
N46	N	1.095708	0.119420	-0.235341
C47	C	1.137280	0.060704	0.287415
C48	C	1.137286	0.060704	0.391518
C49	C	1.095675	0.119406	0.443578
C50	C	1.054049	0.178106	0.391529
C51	C	1.054039	0.178102	0.287427
C52	C	1.054076	0.178112	0.608509
C53	C	1.054088	0.178118	0.712617
C54	C	1.137323	0.060714	0.712599
C55	C	1.137312	0.060709	0.608498
C56	C	1.095687	0.119412	0.556456
H57	H	0.536092	0.118332	-0.163557
O58	O	0.358425	0.115252	-0.177683
C59	C	0.266763	0.188149	-0.282291
C60	C	0.318387	0.189036	-0.183126
H61	H	0.234363	0.247787	-0.286714
H62	H	0.316390	0.189100	-0.346775
H63	H	0.211261	0.126858	-0.286766
H64	H	0.373889	0.250317	-0.178553
H65	H	0.268704	0.188039	-0.118688
O66	O	1.358599	-0.322089	-0.000148
C67	C	1.501734	-0.311996	-0.085785
C68	C	1.398628	-0.350359	-0.085729
H69	H	1.534132	-0.334852	-0.154960
H70	H	1.513317	-0.238027	-0.085850
H71	H	1.534096	-0.334757	-0.016537
H72	H	1.366199	-0.327665	-0.154966
H73	H	1.387111	-0.424324	-0.085613
O74	O	0.832942	0.123884	-0.177745
C75	C	0.875988	0.199241	-0.331880
C76	C	0.824346	0.198241	-0.232699
H77	H	0.869040	0.259343	-0.376348
H78	H	0.951147	0.200661	-0.316452
H79	H	0.845951	0.138414	-0.376297
H80	H	0.854306	0.259056	-0.188233
H81	H	0.749191	0.196776	-0.248197
H82	H	0.536065	0.118330	0.163580
H83	H	1.035172	-0.599593	0.000026
O84	O	1.013772	0.235255	0.557997
C85	C	1.010493	0.385527	0.526178
C86	C	1.056225	0.320908	0.583427
H87	H	1.044785	0.454790	0.546733
H88	H	1.017657	0.375516	0.442821
H89	H	0.935127	0.374105	0.546651
H90	H	1.131604	0.332291	0.563038
H91	H	1.048988	0.330934	0.666771
H92	H	0.816103	-0.288130	0.000018
O93	O	1.328665	-0.645252	0.000070
C94	C	1.486964	-0.656016	0.000016
C95	C	1.418107	-0.595200	-0.000008
H96	H	1.559292	-0.615574	-0.000068
H97	H	1.476333	-0.698747	0.069241
H98	H	1.476232	-0.698762	-0.069185
H99	H	1.428797	-0.552400	0.069146
H100	H	1.428755	-0.552529	-0.069279
O101	O	0.862708	-0.115928	0.000044
C102	C	0.704406	-0.105175	-0.000044
C103	C	0.773269	-0.165986	-0.000056
H104	H	0.632080	-0.145622	-0.000145
H105	H	0.715005	-0.062457	0.069185
H106	H	0.715163	-0.062417	-0.069241
H107	H	0.762555	-0.208798	0.069094
H108	H	0.762653	-0.208645	-0.069330
O109	O	0.647914	0.120517	-0.177694
C110	C	0.556270	0.193427	-0.282307
C111	C	0.607879	0.194302	-0.183133
H112	H	0.523872	0.253066	-0.286728
H113	H	0.605906	0.194386	-0.346783
H114	H	0.500768	0.132137	-0.286799
H115	H	0.663380	0.255581	-0.178544
H116	H	0.558185	0.193297	-0.118704
O117	O	1.170887	-0.155951	0.000066
C118	C	1.288164	-0.026063	0.000021
C119	C	1.185069	-0.064475	-0.000020
H120	H	1.299662	0.047900	-0.000069
H121	H	1.320588	-0.048778	0.069256
H122	H	1.320567	-0.048884	-0.069170
H123	H	1.152587	-0.041672	0.069125
H124	H	1.152711	-0.041764	-0.069300
O125	O	1.177708	0.003597	0.237002
C126	C	1.260308	-0.112820	0.247985
C127	C	1.214541	-0.048203	0.305196
H128	H	1.290116	-0.154705	0.303094
H129	H	1.207563	-0.156141	0.199290
H130	H	1.317187	-0.075403	0.199204
H131	H	1.157668	-0.085549	0.354030
H132	H	1.267342	-0.004883	0.353828
H133	H	1.230363	-0.227173	0.000024
H134	H	0.847494	-0.433637	0.000017
H135	H	1.375256	-0.473037	0.000025
O136	O	0.358570	0.115133	0.177842
C137	C	0.368453	0.115262	0.356685
C138	C	0.420033	0.116178	0.257475
H139	H	0.418120	0.116089	0.421094
H140	H	0.336132	0.174943	0.361258
H141	H	0.312899	0.054009	0.361144
H142	H	0.475628	0.177391	0.252949
H143	H	0.452290	0.056456	0.252944
H144	H	0.825539	0.123597	0.163575
O145	O	1.177572	0.003601	0.442110
C146	C	1.158030	-0.114433	0.559688
C147	C	1.112284	-0.049822	0.502442
H148	H	1.105270	-0.157630	0.608496
H149	H	1.187739	-0.156444	0.504637
H150	H	1.214973	-0.077008	0.608366
H151	H	1.055305	-0.087177	0.453762
H152	H	1.082638	-0.007812	0.557547
H153	H	1.020146	0.225899	0.245056
O154	O	0.647977	0.120242	0.177805
C155	C	0.604870	0.044837	0.331898
C156	C	0.656455	0.045811	0.232685
H157	H	0.611691	-0.015343	0.376287
H158	H	0.634926	0.105599	0.376418
H159	H	0.529741	0.043509	0.316402
H160	H	0.731591	0.047109	0.248090
H161	H	0.626326	-0.014947	0.188195
O162	O	0.956206	-0.548191	-0.000136
C163	C	0.954314	-0.683219	-0.085853
C164	C	0.988562	-0.583993	-0.085808
H165	H	0.980444	-0.712192	-0.155122
H166	H	0.980496	-0.712298	-0.016686
H167	H	0.876582	-0.698617	-0.085810
H168	H	1.066290	-0.568517	-0.085885
H169	H	0.962310	-0.554966	-0.154968
O170	O	1.177682	0.003569	0.763035
C171	C	1.180920	-0.146699	0.794930
C172	C	1.135140	-0.082088	0.737730
H173	H	1.146530	-0.215967	0.774508
H174	H	1.256274	-0.135381	0.774421
H175	H	1.173808	-0.136576	0.878272
H176	H	1.142182	-0.092172	0.654375
H177	H	1.059804	-0.093422	0.758322
H178	H	1.171200	0.012914	0.566111
H179	H	1.020203	0.225918	0.754999
H180	H	1.020164	0.225900	0.433922
