data_functionalizedCrystal
_audit_creation_method	'MofGen! by Chris Wilmer'
_symmetry_space_group_name_H-M	'P1'
_symmetry_Int_Tables_number	1
_symmetry_cell_setting	triclinic
loop_
_symmetry_equiv_pos_as_xyz
  x,y,z
_cell_length_a	16.992694
_cell_length_b	15.500258
_cell_length_c	16.992695
_cell_angle_alpha	92.989501
_cell_angle_beta	89.331777
_cell_angle_gamma	86.999165
loop_
_atom_site_label
_atom_site_type_symbol
_atom_site_fract_x
_atom_site_fract_y
_atom_site_fract_z
O1	O	1.047381	0.071836	-0.163453
O2	O	0.818980	0.071862	-0.161621
O3	O	0.932265	0.071842	-0.048337
O4	O	0.934096	0.071856	-0.276736
O5	O	0.939204	-0.072046	-0.055270
O6	O	0.825918	-0.072026	-0.168554
O7	O	1.054320	-0.072052	-0.170386
Cu8	Cu	0.940753	-0.085177	-0.170103
Cu9	Cu	0.932547	0.084987	-0.161904
O10	O	0.941034	-0.072032	-0.283670
C11	C	0.793089	-0.000079	-0.162731
C12	C	0.705604	-0.000069	-0.155702
N13	N	0.946530	-0.204862	-0.175870
C14	C	0.659613	-0.000066	-0.223520
C15	C	0.577413	-0.000078	-0.216911
C16	C	0.541205	-0.000088	-0.142484
C17	C	0.587202	-0.000094	-0.074662
C18	C	0.669401	-0.000088	-0.081271
C19	C	0.295892	-0.000113	-0.115091
C20	C	0.213687	-0.000116	-0.108487
C21	C	0.203903	-0.000102	-0.250737
C22	C	0.286103	-0.000091	-0.257340
C23	C	0.332094	-0.000102	-0.189517
N24	N	0.457183	-0.000098	-0.135728
N25	N	0.416114	-0.000098	-0.196275
C26	C	0.975324	-0.750048	-0.204711
C27	C	0.970959	-0.659475	-0.200345
C28	C	0.918049	-0.614185	-0.147393
C29	C	0.869495	-0.659472	-0.098811
C30	C	0.873857	-0.750043	-0.103182
C31	C	0.902338	-0.340719	-0.131659
C32	C	0.897981	-0.250142	-0.127290
C33	C	0.999445	-0.250152	-0.228825
C34	C	1.003805	-0.340724	-0.233188
C35	C	0.955248	-0.386003	-0.184609
C36	C	0.913588	-0.521605	-0.142927
C37	C	0.959706	-0.478581	-0.189080
C38	C	1.080211	-0.000109	-0.169275
C39	C	1.167695	-0.000113	-0.176304
C40	C	0.933379	-0.000101	-0.022443
C41	C	0.926350	-0.000100	0.065041
N42	N	0.926776	0.204672	-0.156131
C43	C	0.939921	-0.000087	-0.309563
C44	C	0.946949	-0.000082	-0.397048
C45	C	0.994168	-0.000109	0.111032
C46	C	0.987559	-0.000100	0.193233
C47	C	0.913131	-0.000089	0.229442
C48	C	0.845307	-0.000078	0.183445
C49	C	0.851917	-0.000080	0.101246
C50	C	0.885736	-0.000074	0.474757
C51	C	0.879131	-0.000074	0.556962
C52	C	1.021383	-0.000094	0.566744
C53	C	1.027987	-0.000102	0.484542
C54	C	0.960163	-0.000087	0.438553
N55	N	0.906373	-0.000082	0.313464
N56	N	0.966921	-0.000087	0.354533
H57	H	0.689087	-0.000058	-0.284126
H58	H	0.870510	-0.484720	-0.099811
H59	H	1.088594	-0.000111	0.455067
F60	F	1.031643	-0.798241	-0.261066
H61	H	0.826412	-0.622589	-0.055700
H62	H	0.333327	-0.000122	-0.059865
H63	H	0.830508	-0.000061	0.437322
F64	F	0.324632	-0.000076	-0.336555
H65	H	0.784706	-0.000063	0.212933
H66	H	0.557716	-0.000114	-0.014062
H67	H	0.539970	-0.000075	-0.272136
F68	F	1.093561	-0.000110	0.615694
F69	F	0.154951	-0.000093	-0.322914
H70	H	0.706846	-0.000090	-0.026046
H71	H	0.818520	-0.000078	0.586439
F72	F	0.175154	-0.000141	-0.029268
F73	F	0.822183	-0.798233	-0.051478
H74	H	1.010493	-0.622612	-0.239903
H75	H	1.046891	-0.377594	-0.276305
F76	F	1.073386	-0.000129	0.072503
H77	H	1.038975	-0.213276	-0.268376
H78	H	1.042784	-0.000109	0.230675
F79	F	0.779735	-0.000069	0.052300
H80	H	0.854891	-0.213269	-0.084171
F81	F	0.850659	-0.388897	-0.079956
H82	H	1.002782	-0.515461	-0.232196
