data_functionalizedCrystal
_audit_creation_method	'MofGen! by Chris Wilmer'
_symmetry_space_group_name_H-M	'P1'
_symmetry_Int_Tables_number	1
_symmetry_cell_setting	triclinic
loop_
_symmetry_equiv_pos_as_xyz
  x,y,z
_cell_length_a	14.853567
_cell_length_b	10.489741
_cell_length_c	13.930277
_cell_angle_alpha	89.995758
_cell_angle_beta	89.995755
_cell_angle_gamma	84.087052
loop_
_atom_site_label
_atom_site_type_symbol
_atom_site_fract_x
_atom_site_fract_y
_atom_site_fract_z
O1	O	1.197302	0.166528	-0.079764
O2	O	0.934954	0.186365	-0.079780
O3	O	1.072098	-0.009218	-0.079766
O4	O	1.060158	0.362111	-0.079778
O5	O	1.072078	-0.009222	0.079896
O6	O	0.934935	0.186361	0.079881
O7	O	1.197283	0.166524	0.079898
Zn8	Zn	1.066106	0.176442	0.105239
Zn9	Zn	1.066131	0.176447	-0.105122
O10	O	1.060139	0.362107	0.079883
C11	C	0.901351	0.185464	0.000048
C12	C	0.801252	0.182771	0.000042
C13	C	1.071186	-0.056742	0.000064
C14	C	1.068488	-0.198341	0.000062
C15	C	0.388003	0.055204	0.000068
C16	C	0.368025	0.287562	0.000059
C17	C	0.462072	0.290094	0.000056
C18	C	0.519090	0.175180	0.000057
C19	C	0.482060	0.057733	0.000062
C20	C	0.499110	0.407539	0.000042
C21	C	0.593163	0.410077	0.000038
C22	C	0.650183	0.295161	0.000046
C23	C	0.613147	0.177709	0.000051
C24	C	0.670164	0.062795	0.000053
C25	C	0.633130	-0.054658	0.000065
C26	C	0.539079	-0.057183	0.000070
C27	C	0.744234	0.297685	0.000041
C28	C	0.764221	0.065324	0.000047
C29	C	0.981228	-0.265502	0.000050
C30	C	1.022439	-0.358089	0.078774
C31	C	1.022479	-0.358060	-0.078640
C32	C	1.109736	-0.289063	0.078851
C33	C	1.109763	-0.289024	-0.078633
C34	C	1.151038	-0.381585	0.000110
C35	C	1.230886	0.167425	0.000067
C36	C	1.330985	0.170118	0.000067
C37	C	1.061051	0.409631	0.000051
C38	C	1.063748	0.551230	0.000047
N39	N	1.066095	0.176437	0.248805
N40	N	1.066149	0.176442	-0.248688
C41	C	1.005401	0.263018	0.701068
C42	C	1.126886	0.089867	0.701050
C43	C	1.126875	0.089863	0.600555
C44	C	1.066127	0.176439	0.550311
C45	C	1.005390	0.263019	0.600563
C46	C	1.187617	0.003293	0.550295
C47	C	1.187609	0.003287	0.449793
C48	C	1.126857	0.089858	0.399548
C49	C	1.066117	0.176440	0.449806
C50	C	1.005369	0.263016	0.399563
C51	C	0.944624	0.349593	0.449819
C52	C	0.944638	0.349590	0.550318
C53	C	1.126843	0.089861	0.299049
C54	C	1.005358	0.263017	0.299058
H55	H	0.679566	-0.148221	0.000060
O56	O	0.973534	-0.398624	0.166935
H57	H	0.903060	-0.351687	0.166773
H58	H	0.909483	-0.215045	0.000125
O59	O	0.499138	-0.183857	0.000078
H60	H	0.424160	-0.166307	0.000071
H61	H	0.955886	0.333514	0.258155
O62	O	1.246170	-0.448079	0.000092
H63	H	1.243540	-0.553439	-0.000564
O64	O	0.879131	0.442970	0.604524
H65	H	0.891257	0.542432	0.585217
H66	H	0.357845	-0.040424	0.000082
H67	H	1.146618	-0.258647	0.145481
O68	O	0.437618	0.531478	0.000053
H69	H	0.365997	0.509985	0.000076
O70	O	1.192336	-0.003513	0.244829
H71	H	1.262726	0.012905	0.264092
O72	O	0.939896	0.356411	0.755266
H73	H	0.869510	0.339980	0.735995
O74	O	0.825716	-0.058624	0.000058
H75	H	0.869050	-0.063033	-0.065016
O76	O	0.633107	0.536749	0.000048
H77	H	0.577657	0.616229	0.000059
O78	O	1.192406	-0.003508	0.755234
H79	H	1.182207	0.011033	0.833560
H80	H	1.146662	-0.258392	-0.145188
O81	O	0.973574	-0.398547	-0.166804
H82	H	0.903107	-0.351589	-0.166635
O83	O	0.784183	0.424348	0.000034
H84	H	0.728734	0.503830	0.000038
O85	O	0.879088	0.442952	0.395626
H86	H	0.889284	0.428391	0.317301
H87	H	1.237080	-0.067188	0.591206
H88	H	1.237070	-0.067210	0.408880
H89	H	0.321596	0.381119	0.000050
