data_functionalizedCrystal
_audit_creation_method	'MofGen! by Chris Wilmer'
_symmetry_space_group_name_H-M	'P1'
_symmetry_Int_Tables_number	1
_symmetry_cell_setting	triclinic
loop_
_symmetry_equiv_pos_as_xyz
  x,y,z
_cell_length_a	19.188928
_cell_length_b	17.666332
_cell_length_c	14.971486
_cell_angle_alpha	90.006677
_cell_angle_beta	96.621030
_cell_angle_gamma	89.973946
loop_
_atom_site_label
_atom_site_type_symbol
_atom_site_fract_x
_atom_site_fract_y
_atom_site_fract_z
O1	O	-0.926510	0.063242	0.111660
O2	O	-0.723247	0.063179	0.126695
O3	O	-0.830326	0.063207	-0.011052
O4	O	-0.819431	0.063214	0.249406
O5	O	-0.830308	-0.062690	-0.011059
O6	O	-0.723228	-0.062718	0.126687
O7	O	-0.926491	-0.062655	0.111653
Cu8	Cu	-0.824858	-0.074182	0.119169
Cu9	Cu	-0.824880	0.074706	0.119178
O10	O	-0.819412	-0.062683	0.249399
C11	C	-0.697225	0.000223	0.126205
C12	C	-0.619716	0.000198	0.124744
C13	C	-0.575052	0.000210	0.205569
C14	C	-0.502223	0.000215	0.204197
C15	C	-0.474062	0.000222	0.121995
C16	C	-0.518736	0.000206	0.041160
C17	C	-0.591563	0.000194	0.042534
N18	N	-0.365886	0.043093	0.059166
N19	N	-0.296703	0.043106	0.057866
C20	C	-0.254640	0.000257	0.117849
N21	N	-0.284372	-0.042597	0.179196
N22	N	-0.353561	-0.042606	0.180499
C23	C	-0.395095	0.000235	0.120496
C24	C	-0.131007	0.000273	0.197192
C25	C	-0.058178	0.000272	0.195816
C26	C	-0.074692	0.000271	0.032777
C27	C	-0.147519	0.000264	0.034155
C28	C	-0.175672	0.000268	0.116365
N29	N	-0.824847	-0.178901	0.119163
C30	C	-0.872278	-0.218499	0.058199
C31	C	-0.872282	-0.297746	0.058194
C32	C	-0.824862	-0.337393	0.119170
C33	C	-0.777423	-0.297786	0.180139
C34	C	-0.777416	-0.218540	0.180135
N35	N	-0.816041	-0.461811	0.198350
N36	N	-0.816052	-0.537092	0.198350
C37	C	-0.824881	-0.576157	0.119182
N38	N	-0.833711	-0.537099	0.040011
N39	N	-0.833704	-0.461811	0.040011
C40	C	-0.824865	-0.423323	0.119180
C41	C	-0.872318	-0.701684	0.058208
C42	C	-0.872317	-0.780933	0.058202
C43	C	-0.777462	-0.780972	0.180155
C44	C	-0.777459	-0.701724	0.180152
C45	C	-0.824891	-0.662085	0.119180
C46	C	0.047487	0.000290	0.112146
C47	C	-0.030021	0.000279	0.113614
C48	C	-0.829830	0.000258	-0.044377
C49	C	-0.828370	0.000259	-0.143667
N50	N	-0.824896	0.179425	0.119177
C51	C	-0.891276	0.000277	-0.201225
C52	C	-0.889900	0.000285	-0.294517
C53	C	-0.825616	0.000267	-0.330249
C54	C	-0.762705	0.000251	-0.272684
C55	C	-0.764082	0.000249	-0.179393
C56	C	-0.759840	0.000253	-0.467131
C57	C	-0.758462	0.000253	-0.560428
C58	C	-0.885657	0.000288	-0.582255
C59	C	-0.887034	0.000286	-0.488964
C60	C	-0.824123	0.000268	-0.431405
C61	C	-0.819908	0.000267	0.282725
C62	C	-0.821369	0.000272	0.382014
H63	H	-0.183886	0.000258	-0.031661
H64	H	-0.712857	0.000234	-0.132529
Br65	Br	-0.974277	0.000312	-0.440471
Br66	Br	-0.936645	-0.164702	-0.024550
Br67	Br	-0.936656	-0.351496	-0.024551
H68	H	-0.738812	-0.330071	0.229784
H69	H	-0.738791	-0.186299	0.229781
Br70	Br	-0.713089	-0.647979	0.262896
H71	H	-0.710365	0.000242	-0.301784
H72	H	-0.738849	-0.813252	0.229799
H73	H	-0.495802	0.000223	-0.025769
H74	H	-0.708610	0.000240	-0.420268
Br75	Br	-0.978522	0.000290	-0.152741
H76	H	-0.910938	-0.669409	0.008558
H77	H	-0.910938	-0.813174	0.008553
H78	H	-0.936882	0.000305	-0.629124
Br79	Br	-0.613256	0.000215	0.317138
H80	H	-0.153930	0.000265	0.264132
H81	H	-0.021812	0.000278	0.261637
H82	H	-0.706117	0.000227	-0.589517
Br83	Br	-0.652182	0.000176	-0.067165
H84	H	-0.941124	0.000298	-0.341378
Br85	Br	-0.441596	0.000227	0.313895
H86	H	-0.051764	0.000324	-0.034153
