data_functionalizedCrystal
_audit_creation_method	'MofGen! by Chris Wilmer'
_symmetry_space_group_name_H-M	'P1'
_symmetry_Int_Tables_number	1
_symmetry_cell_setting	triclinic
loop_
_symmetry_equiv_pos_as_xyz
  x,y,z
_cell_length_a	19.188930
_cell_length_b	18.266242
_cell_length_c	15.995350
_cell_angle_alpha	89.997106
_cell_angle_beta	96.681422
_cell_angle_gamma	90.022820
loop_
_atom_site_label
_atom_site_type_symbol
_atom_site_fract_x
_atom_site_fract_y
_atom_site_fract_z
O1	O	0.926416	0.061113	-0.104533
O2	O	1.426416	0.561113	0.395467
O3	O	0.723140	0.061062	-0.118605
O4	O	1.223140	0.561062	0.381395
O5	O	0.830335	0.061088	0.010339
O6	O	1.330335	0.561088	0.510339
O7	O	0.819221	0.061087	-0.233477
O8	O	1.319221	0.561087	0.266523
O9	O	0.830316	-0.060674	0.010342
O10	O	1.330316	0.439326	0.510342
O11	O	0.723122	-0.060700	-0.118602
O12	O	1.223122	0.439300	0.381398
O13	O	0.926397	-0.060649	-0.104530
O14	O	1.426397	0.439351	0.395470
Zn15	Zn	0.824757	-0.080007	-0.111565
Zn16	Zn	1.324757	0.419993	0.388435
Zn17	Zn	0.824781	0.080420	-0.111570
Zn18	Zn	1.324781	0.580420	0.388430
O19	O	0.819203	-0.060675	-0.233474
O20	O	1.319203	0.439325	0.266526
C21	C	0.697119	0.000175	-0.118148
C22	C	1.197119	0.500175	0.381852
C23	C	0.619611	0.000156	-0.116780
C24	C	1.119611	0.500156	0.383220
N25	N	0.824745	-0.189494	-0.111561
N26	N	1.324745	0.310506	0.388439
C27	C	0.574880	0.000167	-0.192440
C28	C	1.074880	0.500167	0.307560
C29	C	0.502052	0.000175	-0.191155
C30	C	1.002052	0.500175	0.308845
C31	C	0.473960	0.000186	-0.114205
C32	C	0.973960	0.500186	0.385795
C33	C	0.518701	0.000171	-0.038535
C34	C	1.018701	0.500171	0.461465
C35	C	0.591526	0.000156	-0.039823
C36	C	1.091526	0.500156	0.460177
N37	N	0.365836	0.041657	-0.055388
N38	N	0.865836	0.541657	0.444612
N39	N	0.296654	0.041673	-0.054170
N40	N	0.796654	0.541673	0.445830
C41	C	0.254541	0.000231	-0.110322
C42	C	0.754541	0.500231	0.389678
N43	N	0.284222	-0.041219	-0.167750
N44	N	0.784222	0.458781	0.332250
N45	N	0.353410	-0.041232	-0.168970
N46	N	0.853410	0.458768	0.331030
C47	C	0.394994	0.000203	-0.112801
C48	C	0.894994	0.500203	0.387199
C49	C	0.130842	0.000250	-0.184594
C50	C	0.630842	0.500250	0.315406
C51	C	0.058014	0.000253	-0.183306
C52	C	0.558014	0.500253	0.316694
C53	C	0.074664	0.000257	-0.030684
C54	C	0.574664	0.500257	0.469316
C55	C	0.147491	0.000246	-0.031974
C56	C	0.647491	0.500246	0.468026
C57	C	0.175575	0.000246	-0.108932
C58	C	0.675575	0.500246	0.391068
C59	C	0.867084	-0.227786	-0.162223
C60	C	1.367084	0.272214	0.337777
C61	C	0.867095	-0.304431	-0.162221
C62	C	1.367095	0.195569	0.337779
C63	C	0.824755	-0.342781	-0.111566
C64	C	1.324755	0.157219	0.388434
C65	C	0.782415	-0.304480	-0.060894
C66	C	1.282415	0.195520	0.439106
C67	C	0.782410	-0.227836	-0.060892
C68	C	1.282410	0.272164	0.439108
N69	N	0.763602	-0.463148	-0.109504
N70	N	1.263602	0.036852	0.390496
N71	N	0.763609	-0.535956	-0.109511
N72	N	1.263609	-0.035956	0.390489
C73	C	0.824769	-0.573703	-0.111570
C74	C	1.324769	-0.073703	0.388430
N75	N	0.885923	-0.535891	-0.113637
N76	N	1.385923	-0.035891	0.386363
N77	N	0.885916	-0.463076	-0.113634
N78	N	1.385916	0.036924	0.386366
C79	C	0.824757	-0.425888	-0.111563
C80	C	1.324757	0.074112	0.388437
C81	C	0.867124	-0.695102	-0.162231
C82	C	1.367124	-0.195102	0.337769
C83	C	0.867137	-0.771748	-0.162223
C84	C	1.367137	-0.271748	0.337777
C85	C	0.782450	-0.771796	-0.060901
C86	C	1.282450	-0.271796	0.439099
C87	C	0.782443	-0.695151	-0.060905
C88	C	1.282443	-0.195151	0.439095
C89	C	0.824779	-0.656809	-0.111575
C90	C	1.324779	-0.156809	0.388425
C91	C	0.952419	0.000240	-0.104987
C92	C	1.452419	0.500240	0.395013
C93	C	1.029927	0.000264	-0.106355
C94	C	1.529927	0.500264	0.393645
C95	C	0.829866	0.000208	0.041533
C96	C	1.329866	0.500208	0.541533
C97	C	0.828489	0.000212	0.134479
C98	C	1.328489	0.500212	0.634479
N99	N	0.824798	0.189907	-0.111567
N100	N	1.324798	0.689907	0.388433
C101	C	0.819671	0.000206	-0.264669
C102	C	1.319671	0.500206	0.235331
C103	C	0.821049	0.000207	-0.357614
C104	C	1.321049	0.500207	0.142386
C105	C	0.823542	0.000209	0.472208
C106	C	1.323542	0.500209	0.972208
C107	C	0.747200	0.000463	0.424495
C108	C	1.247200	0.500463	0.924495
C109	C	0.748578	0.000189	0.327809
C110	C	1.248578	0.500189	0.827809
C111	C	0.825996	0.000211	0.304657
C112	C	1.325996	0.500211	0.804657
C113	C	0.863640	-0.069311	0.345874
C114	C	1.363640	0.430689	0.845874
C115	C	0.861722	-0.069369	0.442503
C116	C	1.361722	0.430631	0.942503
C117	C	0.863320	0.069097	0.442863
C118	C	1.363320	0.569097	0.942863
C119	C	0.863302	0.070016	0.345917
C120	C	1.363302	0.570016	0.845917
C121	C	0.827386	0.000210	0.209964
C122	C	1.327386	0.500210	0.709964
C123	C	0.822153	0.000205	0.566901
C124	C	1.322153	0.500205	1.066901
H125	H	0.597741	0.000168	-0.255105
H126	H	1.097741	0.500168	0.244895
C127	C	0.640733	0.000148	0.043413
C128	C	1.140733	0.500148	0.543413
N129	N	0.677797	0.000145	0.106108
N130	N	1.177797	0.500145	0.606108
H131	H	0.747942	-0.335709	-0.019650
H132	H	1.247942	0.164291	0.480350
C133	C	0.913672	-0.346560	-0.217955
C134	C	1.413672	0.153440	0.282045
N135	N	0.948754	-0.378290	-0.259935
N136	N	1.448754	0.121710	0.240065
C137	C	0.708595	0.067510	0.289261
C138	C	1.208595	0.567510	0.789261
N139	N	0.678475	0.118217	0.260230
N140	N	1.178475	0.618217	0.760230
H141	H	0.465625	0.000182	-0.252768
H142	H	0.965625	0.500182	0.247232
C143	C	0.735877	-0.813977	-0.005179
C144	C	1.235877	-0.313977	0.494821
N145	N	0.700798	-0.845751	0.036794
N146	N	1.200798	-0.345751	0.536794
H147	H	0.901618	-0.802924	-0.203476
H148	H	1.401618	-0.302924	0.296524
H149	H	0.834256	-0.121354	0.460705
H150	H	1.334256	0.378646	0.960705
H151	H	0.716694	0.050317	0.442913
H152	H	1.216694	0.550317	0.942913
C153	C	0.939358	0.069754	0.486053
C154	C	1.439358	0.569754	0.986053
N155	N	0.996628	0.070244	0.518590
N156	N	1.496628	0.570244	1.018590
C157	C	0.706158	-0.066549	0.450790
C158	C	1.206158	0.433451	0.950790
N159	N	0.675250	-0.117028	0.470589
N160	N	1.175250	0.382972	0.970589
H161	H	0.183912	0.000241	0.029637
H162	H	0.683912	0.500241	0.529637
H163	H	0.718772	-0.049746	0.299837
H164	H	1.218772	0.450254	0.799837
C165	C	0.008809	0.000255	-0.266542
C166	C	0.508809	0.500255	0.233458
N167	N	-0.028254	0.000254	-0.329238
N168	N	0.471746	0.500254	0.170762
C169	C	0.043767	0.000269	0.053962
C170	C	0.543767	0.500269	0.553962
N171	N	0.020491	0.000277	0.117720
N172	N	0.520491	0.500277	0.617720
C173	C	0.937439	-0.073621	0.486348
C174	C	1.437439	0.426379	0.986348
N175	N	0.994468	-0.076828	0.519368
N176	N	1.494468	0.423172	1.019368
C177	C	0.735828	-0.185714	-0.005163
C178	C	1.235828	0.314286	0.494837
N179	N	0.700740	-0.153986	0.036811
N180	N	1.200740	0.346014	0.536811
C181	C	0.735860	-0.653028	-0.005181
C182	C	1.235860	-0.153028	0.494819
N183	N	0.700771	-0.621302	0.036793
N184	N	1.200771	-0.121302	0.536793
C185	C	0.828294	-0.139225	0.307412
C186	C	1.328294	0.360775	0.807412
N187	N	0.801668	-0.191883	0.278444
N188	N	1.301668	0.308117	0.778444
H189	H	0.153710	0.000239	-0.247257
H190	H	0.653710	0.500239	0.252743
H191	H	0.919759	0.074231	0.330762
H192	H	1.419759	0.574231	0.830762
C193	C	0.913701	-0.652923	-0.217960
C194	C	1.413701	-0.152923	0.282040
N195	N	0.948784	-0.621156	-0.259934
N196	N	1.448784	-0.121156	0.240066
H197	H	0.495823	0.000191	0.024118
H198	H	0.995823	0.500191	0.524118
C199	C	0.940473	-0.072794	0.327056
C200	C	1.440473	0.427206	0.827056
N201	N	0.998342	-0.075419	0.312875
N202	N	1.498342	0.424581	0.812875
H203	H	0.901559	-0.196572	-0.203479
H204	H	1.401559	0.303428	0.296521
C205	C	0.829608	0.140285	0.470481
C206	C	1.329608	0.640285	0.970481
N207	N	0.804209	0.193900	0.491281
N208	N	1.304209	0.693900	0.991281
C209	C	0.826155	0.139499	0.308919
C210	C	1.326155	0.639499	0.808919
N211	N	0.798169	0.191832	0.281055
N212	N	1.298169	0.691832	0.781055
