data_functionalizedCrystal
_audit_creation_method	'MofGen! by Chris Wilmer'
_symmetry_space_group_name_H-M	'P1'
_symmetry_Int_Tables_number	1
_symmetry_cell_setting	triclinic
loop_
_symmetry_equiv_pos_as_xyz
  x,y,z
_cell_length_a	14.519731
_cell_length_b	23.532357
_cell_length_c	12.996460
_cell_angle_alpha	89.988323
_cell_angle_beta	89.994327
_cell_angle_gamma	83.258572
loop_
_atom_site_label
_atom_site_type_symbol
_atom_site_fract_x
_atom_site_fract_y
_atom_site_fract_z
O1	O	1.222951	0.074713	-0.085582
O2	O	1.722951	0.574713	0.414418
O3	O	0.954370	0.083492	-0.085585
O4	O	1.454370	0.583492	0.414415
O5	O	1.096784	-0.003794	-0.085562
O6	O	1.596784	0.496206	0.414438
O7	O	1.080538	0.162000	-0.085605
O8	O	1.580538	0.662000	0.414395
O9	O	1.096769	-0.003799	0.085571
O10	O	1.596769	0.496201	0.585571
O11	O	0.954356	0.083488	0.085549
O12	O	1.454356	0.583488	0.585549
O13	O	1.222936	0.074709	0.085552
O14	O	1.722936	0.574709	0.585552
Cu15	Cu	1.088645	0.079098	0.101176
Cu16	Cu	1.588645	0.579098	0.601176
Cu17	Cu	1.088662	0.079103	-0.101209
Cu18	Cu	1.588662	0.579103	0.398791
O19	O	1.080523	0.161995	0.085529
O20	O	1.580523	0.661995	0.585529
C21	C	0.920009	0.083079	-0.000018
C22	C	1.420009	0.583079	0.499982
C23	C	0.817643	0.081846	-0.000019
C24	C	1.317643	0.581846	0.499981
C25	C	0.734511	0.080844	-0.000022
C26	C	1.234511	0.580844	0.499978
C27	C	0.630218	0.079593	-0.000023
C28	C	1.130218	0.579593	0.499977
C29	C	0.547091	0.078600	-0.000022
C30	C	1.047091	0.578600	0.499978
C31	C	0.442790	0.077348	-0.000024
C32	C	0.942790	0.577348	0.499976
C33	C	1.096370	-0.025015	0.000008
C34	C	1.596370	0.474985	0.500008
C35	C	1.095148	-0.088239	0.000017
C36	C	1.595148	0.411761	0.500017
C37	C	1.087486	-0.480282	-0.093323
C38	C	1.587486	0.019718	0.406677
C39	C	1.086325	-0.539687	-0.093329
C40	C	1.586325	-0.039687	0.406671
O41	O	1.085700	-0.570404	-0.172664
O42	O	1.585700	-0.070404	0.327336
N43	N	1.085741	-0.569404	-0.000045
N44	N	1.585741	-0.069404	0.499955
C45	C	1.086309	-0.539711	0.093250
C46	C	1.586309	-0.039711	0.593250
O47	O	1.085705	-0.570442	0.172595
O48	O	1.585705	-0.070442	0.672595
C49	C	1.087464	-0.480307	0.093255
C50	C	1.587464	0.019693	0.593255
C51	C	1.088057	-0.450595	-0.000035
C52	C	1.588057	0.049405	0.499965
C53	C	1.088078	-0.450570	-0.186606
C54	C	1.588078	0.049430	0.313394
C55	C	1.089242	-0.391169	-0.186599
C56	C	1.589242	0.108831	0.313401
C57	C	1.089812	-0.361481	-0.093311
C58	C	1.589812	0.138519	0.406689
C59	C	1.089220	-0.391194	-0.000028
C60	C	1.589220	0.108806	0.499972
C61	C	1.088025	-0.450616	0.186550
C62	C	1.588025	0.049384	0.686550
C63	C	1.089179	-0.391207	0.186547
C64	C	1.589179	0.108793	0.686547
C65	C	1.089773	-0.361495	0.093257
C66	C	1.589773	0.138505	0.593257
C67	C	1.090954	-0.302106	0.093266
C68	C	1.590954	0.197894	0.593266
N69	N	1.091538	-0.272389	-0.000017
N70	N	1.591538	0.227611	0.499983
C71	C	1.090967	-0.302077	-0.093306
C72	C	1.590967	0.197923	0.406694
C73	C	1.083882	-0.664464	0.093233
C74	C	1.583882	-0.164464	0.593233
C75	C	1.082734	-0.723868	0.093229
C76	C	1.582734	-0.223868	0.593229
C77	C	1.082748	-0.723839	-0.093350
C78	C	1.582748	-0.223839	0.406650
C79	C	1.083903	-0.664435	-0.093346
C80	C	1.583903	-0.164435	0.406654
C81	C	1.084466	-0.634748	-0.000051
C82	C	1.584466	-0.134748	0.499949
C83	C	1.093410	-0.177332	-0.093286
C84	C	1.593410	0.322668	0.406714
C85	C	1.094577	-0.117926	-0.093271
C86	C	1.594577	0.382074	0.406729
C87	C	1.094558	-0.117960	0.093308
C88	C	1.594558	0.382040	0.593308
C89	C	1.093396	-0.177361	0.093294
C90	C	1.593396	0.322639	0.593294
C91	C	1.092819	-0.207045	-0.000011
C92	C	1.592819	0.292955	0.499989
O93	O	1.091576	-0.271351	0.172561
O94	O	1.591576	0.228649	0.672561
O95	O	1.091559	-0.271338	-0.172637
O96	O	1.591559	0.228662	0.327363
C97	C	1.257298	0.075122	-0.000017
C98	C	1.757298	0.575122	0.499983
C99	C	1.359663	0.076355	-0.000024
C100	C	1.859663	0.576355	0.499976
C101	C	1.080937	0.183216	-0.000043
C102	C	1.580937	0.683216	0.499957
C103	C	1.082158	0.246440	-0.000060
C104	C	1.582158	0.746440	0.499940
N105	N	1.088639	0.079093	0.243523
N106	N	1.588639	0.579093	0.743523
N107	N	1.088675	0.079103	-0.243557
N108	N	1.588675	0.579103	0.256443
C109	C	1.088661	0.079104	0.663337
C110	C	1.588661	0.579104	1.163337
C111	C	1.088652	0.079103	0.546532
C112	C	1.588652	0.579103	1.046532
C113	C	1.088650	0.079099	0.453434
C114	C	1.588650	0.579099	0.953434
C115	C	1.088641	0.079097	0.336621
C116	C	1.588641	0.579097	0.836621
H117	H	1.092936	-0.201494	-0.169264
H118	H	1.592936	0.298506	0.330736
H119	H	1.092922	-0.201554	0.169258
H120	H	1.592922	0.298446	0.669258
O121	O	1.095274	-0.089036	-0.183858
O122	O	1.595274	0.410964	0.316142
C123	C	1.176374	-0.028254	-0.292120
C124	C	1.676374	0.471746	0.207880
C125	C	1.175742	-0.060965	-0.189519
C126	C	1.675742	0.439035	0.310481
H127	H	1.241416	-0.005540	-0.296721
H128	H	1.741416	0.494460	0.203279
H129	H	1.175805	-0.059643	-0.358858
H130	H	1.675805	0.440357	0.141142
H131	H	1.112323	0.004672	-0.296708
H132	H	1.612323	0.504672	0.203292
H133	H	1.239782	-0.093891	-0.184831
H134	H	1.739782	0.406109	0.315169
H135	H	1.176264	-0.029541	-0.122830
H136	H	1.676264	0.470459	0.377170
O137	O	1.087579	-0.479513	0.277138
O138	O	1.587579	0.020487	0.777138
C139	C	1.166054	-0.553001	0.385433
C140	C	1.666054	-0.053001	0.885433
C141	C	1.166706	-0.520308	0.282815
C142	C	1.666706	-0.020308	0.782815
H143	H	1.230010	-0.585999	0.390047
H144	H	1.730010	-0.085999	0.890047
H145	H	1.166701	-0.521606	0.452154
H146	H	1.666701	-0.021606	0.952154
H147	H	1.100920	-0.575626	0.390039
H148	H	1.600920	-0.075626	0.890039
H149	H	1.231828	-0.497681	0.278109
H150	H	1.731828	0.002319	0.778109
H151	H	1.166010	-0.551729	0.216143
H152	H	1.666010	-0.051729	0.716143
H153	H	1.087610	-0.474735	-0.262576
H154	H	1.587610	0.025265	0.237424
O155	O	1.084330	-0.635506	-0.183907
O156	O	1.584330	-0.135506	0.316093
C157	C	1.005659	-0.562101	-0.292226
C158	C	1.505659	-0.062101	0.207774
C159	C	1.005088	-0.594802	-0.189610
C160	C	1.505088	-0.094802	0.310390
H161	H	0.941589	-0.529194	-0.296880
H162	H	1.441589	-0.029194	0.203120
H163	H	1.070694	-0.539385	-0.296938
H164	H	1.570694	-0.039385	0.203062
H165	H	1.005092	-0.593551	-0.358869
H166	H	1.505092	-0.093551	0.141131
H167	H	1.005622	-0.563391	-0.122909
H168	H	1.505622	-0.063391	0.377091
H169	H	0.940058	-0.617528	-0.184988
H170	H	1.440058	-0.117528	0.315012
O171	O	1.082022	-0.752695	-0.183949
O172	O	1.582022	-0.252695	0.316051
C173	C	1.000837	-0.813411	-0.292192
C174	C	1.500837	-0.313411	0.207808
C175	C	1.001532	-0.780746	-0.189572
C176	C	1.501532	-0.280746	0.310428
H177	H	0.935778	-0.836108	-0.296763
H178	H	1.435778	-0.336108	0.203237
H179	H	1.001394	-0.781994	-0.358912
H180	H	1.501394	-0.281994	0.141088
H181	H	1.064871	-0.846347	-0.296841
H182	H	1.564871	-0.346347	0.203159
H183	H	0.937510	-0.747810	-0.184822
H184	H	1.437510	-0.247810	0.315178
H185	H	1.001023	-0.812197	-0.122901
H186	H	1.501023	-0.312197	0.377099
H187	H	1.082265	-0.748056	0.169195
H188	H	1.582265	-0.248056	0.669195
H189	H	1.089624	-0.367038	0.262520
H190	H	1.589624	0.132962	0.762520
H191	H	1.089721	-0.366982	-0.262566
H192	H	1.589721	0.133018	0.237434
O193	O	1.084478	-0.635720	0.183959
O194	O	1.584478	-0.135720	0.683959
C195	C	1.084284	-0.642026	0.369018
C196	C	1.584284	-0.142026	0.869018
C197	C	1.083634	-0.674647	0.266348
C198	C	1.583634	-0.174647	0.766348
H199	H	1.083582	-0.673482	0.435656
H200	H	1.583582	-0.173482	0.935656
H201	H	1.149387	-0.619378	0.373764
H202	H	1.649387	-0.119378	0.873764
H203	H	1.020293	-0.609055	0.373634
H204	H	1.520293	-0.109055	0.873634
H205	H	1.147581	-0.707644	0.261663
H206	H	1.647581	-0.207644	0.761663
H207	H	1.018490	-0.697255	0.261645
H208	H	1.518490	-0.197255	0.761645
O209	O	1.094942	-0.089072	0.183893
O210	O	1.594942	0.410928	0.683893
C211	C	1.016339	-0.015606	0.292101
C212	C	1.516339	0.484394	0.792101
C213	C	1.015791	-0.048292	0.189491
C214	C	1.515791	0.451708	0.689491
H215	H	0.952363	0.017380	0.296651
H216	H	1.452363	0.517380	0.796651
H217	H	1.015654	-0.047007	0.358830
H218	H	1.515654	0.452993	0.858830
H219	H	1.081453	0.007034	0.296754
H220	H	1.581453	0.507034	0.796754
H221	H	0.950688	-0.070933	0.184737
H222	H	1.450688	0.429067	0.684737
H223	H	1.016525	-0.016865	0.122811
H224	H	1.516525	0.483135	0.622811
