data_functionalizedCrystal
_audit_creation_method	'MofGen! by Chris Wilmer'
_symmetry_space_group_name_H-M	'P1'
_symmetry_Int_Tables_number	1
_symmetry_cell_setting	triclinic
loop_
_symmetry_equiv_pos_as_xyz
  x,y,z
_cell_length_a	15.995300
_cell_length_b	15.995292
_cell_length_c	10.268362
_cell_angle_alpha	89.997908
_cell_angle_beta	89.993829
_cell_angle_gamma	83.470212
loop_
_atom_site_label
_atom_site_type_symbol
_atom_site_fract_x
_atom_site_fract_y
_atom_site_fract_z
O1	O	1.110989	0.107729	-0.108339
O2	O	0.867206	0.121101	-0.108330
O3	O	0.995787	-0.007477	-0.108336
O4	O	0.982408	0.236308	-0.108332
O5	O	0.995776	-0.007482	0.108264
O6	O	0.867194	0.121096	0.108271
O7	O	1.110978	0.107724	0.108262
Cu8	Cu	0.989085	0.114410	0.128044
Cu9	Cu	0.989098	0.114416	-0.128111
O10	O	0.982397	0.236302	0.108269
C11	C	0.836005	0.120553	-0.000028
C12	C	0.743052	0.118918	-0.000025
C13	C	0.572870	0.115899	-0.000035
C14	C	0.525385	0.207449	-0.000031
C15	C	0.428698	0.205779	-0.000526
C16	C	0.405314	0.112927	-0.000044
C17	C	0.446462	0.067508	-0.123490
C18	C	0.543095	0.069825	-0.123590
C19	C	0.543362	0.068464	0.122734
C20	C	0.446418	0.068472	0.124353
C21	C	0.310619	0.111242	-0.000053
C22	C	0.667565	0.117580	-0.000035
C23	C	0.995237	-0.038675	-0.000039
C24	C	0.993604	-0.131627	-0.000049
C25	C	0.987603	-0.469365	-0.000037
C26	C	1.080409	-0.446069	0.000444
C27	C	1.082173	-0.349394	-0.000049
C28	C	0.990581	-0.301809	-0.000042
C29	C	0.944188	-0.330899	-0.123726
C30	C	0.943071	-0.427689	-0.123825
C31	C	0.941163	-0.427552	0.122491
C32	C	0.944602	-0.331060	0.124121
C33	C	0.992259	-0.207114	-0.000049
C34	C	0.985922	-0.564060	-0.000038
C35	C	1.142179	0.108272	-0.000042
C36	C	1.235131	0.109907	-0.000054
C37	C	0.982947	0.267500	-0.000031
C38	C	0.984579	0.360453	-0.000030
N39	N	0.989082	0.114405	0.308210
N40	N	0.989108	0.114414	-0.308277
C41	C	0.989094	0.114414	0.573880
C42	C	0.989085	0.114411	0.426042
H43	H	0.575383	0.002599	-0.128866
N44	N	0.549957	0.252920	-0.110928
N45	N	0.496050	0.281214	-0.192568
H46	H	0.513404	0.313327	-0.270892
N47	N	0.392994	0.250569	0.110455
N48	N	0.402031	0.326594	0.125155
H49	H	0.376824	0.358236	0.203537
H50	H	0.876788	-0.299019	-0.128319
H51	H	0.970385	-0.455648	0.216243
N52	N	0.412111	0.110092	0.238915
N53	N	0.357589	0.172264	0.229085
H54	H	0.333358	0.201664	0.309992
N55	N	0.566103	0.110900	-0.239766
N56	N	0.615948	0.072521	-0.318964
H57	H	0.632198	0.101537	-0.401009
N58	N	0.428792	-0.018079	-0.128805
N59	N	0.385570	-0.046624	-0.041462
H60	H	0.373088	-0.107071	-0.045211
N61	N	0.984620	-0.305736	-0.239195
N62	N	1.047591	-0.266388	-0.230718
H63	H	1.076151	-0.248618	-0.312265
H64	H	0.978383	-0.312503	0.215621
N65	N	0.860756	-0.289638	0.133537
N66	N	0.833396	-0.237659	0.048505
H67	H	0.774183	-0.208387	0.055163
H68	H	0.400847	0.241318	-0.089532
N69	N	0.427180	-0.016447	0.134179
N70	N	0.352311	-0.031350	0.142102
H71	H	0.338723	-0.091327	0.149033
N72	N	1.125297	-0.481219	0.111690
N73	N	1.190102	-0.531848	0.096895
H74	H	1.221806	-0.556679	0.175465
H75	H	0.872851	-0.441530	0.123329
N76	N	0.583253	-0.016210	0.124212
N77	N	0.633209	-0.041608	0.035336
H78	H	0.661386	-0.101407	0.036369
H79	H	0.563851	0.098602	0.216329
N80	N	0.548569	0.253595	0.111011
N81	N	0.600362	0.219552	0.191442
H82	H	0.616741	0.252143	0.269870
H83	H	0.418075	0.098651	-0.215704
N84	N	1.127743	-0.325533	0.111180
N85	N	1.103071	-0.341036	0.223199
H86	H	1.135259	-0.324189	0.301758
N87	N	1.125048	-0.482483	-0.110196
N88	N	1.133798	-0.560523	-0.125403
H89	H	1.165322	-0.586243	-0.203543
N90	N	1.128036	-0.326317	-0.111475
N91	N	1.158833	-0.381646	-0.189124
H92	H	1.191224	-0.365350	-0.267826
H93	H	0.875025	-0.442227	-0.129424
N94	N	0.983388	-0.461328	-0.239821
N95	N	1.012155	-0.413295	-0.320137
H96	H	1.040631	-0.437047	-0.402062
