data_functionalizedCrystal
_audit_creation_method	'MofGen! by Chris Wilmer'
_symmetry_space_group_name_H-M	'P1'
_symmetry_Int_Tables_number	1
_symmetry_cell_setting	triclinic
loop_
_symmetry_equiv_pos_as_xyz
  x,y,z
_cell_length_a	12.827893
_cell_length_b	15.299816
_cell_length_c	12.827885
_cell_angle_alpha	80.348750
_cell_angle_beta	90.019272
_cell_angle_gamma	80.350491
loop_
_atom_site_label
_atom_site_type_symbol
_atom_site_fract_x
_atom_site_fract_y
_atom_site_fract_z
Zn1	Zn	1.669580	-0.359013	0.662876
Zn2	Zn	1.699687	-0.509854	0.518399
Zn3	Zn	1.494830	-0.359057	0.488159
Zn4	Zn	1.525006	-0.509787	0.693086
O5	O	1.597276	-0.434428	0.590630
O6	O	1.819811	-0.379032	0.643724
O7	O	1.672483	-0.489897	0.368161
O8	O	1.492782	-0.232842	0.486037
O9	O	1.841931	-0.489854	0.537577
O10	O	1.621170	-0.232810	0.614401
O11	O	1.521976	-0.379107	0.345943
O12	O	1.352595	-0.379042	0.515330
O13	O	1.544213	-0.489740	0.835305
O14	O	1.374765	-0.489782	0.665889
O15	O	1.650430	-0.378967	0.813110
O16	O	1.701744	-0.636053	0.566870
O17	O	1.573407	-0.636004	0.695212
C18	C	1.325762	-0.434410	0.590607
C19	C	1.209612	-0.434424	0.590626
C20	C	1.644146	-0.668753	0.637623
C21	C	1.664292	-0.768999	0.657762
C22	C	1.168843	-0.489308	0.665046
C23	C	1.048796	-0.489324	0.665068
C24	C	1.453969	-1.051940	0.447049
C25	C	1.435035	-0.957754	0.428130
C26	C	1.492348	-0.910561	0.485536
C27	C	1.568598	-0.957562	0.561865
C28	C	1.587528	-1.051757	0.580792
C29	C	1.625907	-0.910378	0.619279
C30	C	1.702157	-0.957379	0.695608
C31	C	1.721084	-1.051565	0.714531
C32	C	1.663771	-1.098758	0.657125
C33	C	1.606976	-0.816183	0.600352
C34	C	1.740535	-0.816000	0.734095
C35	C	1.759470	-0.910186	0.753014
C36	C	1.869849	-0.434446	0.590654
C37	C	1.986004	-0.434453	0.590664
C38	C	1.597329	-0.434341	0.863183
C39	C	1.597352	-0.434304	0.979329
C40	C	1.550251	-0.199187	0.543476
C41	C	1.530212	-0.098941	0.523381
C42	C	1.597269	-0.434449	0.319124
C43	C	1.597398	-0.434232	0.202928
C44	C	1.649917	-0.379479	1.020129
C45	C	1.649942	-0.379440	1.140171
H46	H	1.222812	-0.536281	0.728748
H47	H	1.552360	-0.481206	1.033268
H48	H	1.013693	-0.536315	0.728780
H49	H	1.155641	-0.387445	0.526931
C50	C	1.351167	-0.906055	0.344178
H51	H	1.348092	-0.843201	0.341137
H52	H	1.369599	-0.921523	0.277083
H53	H	1.284055	-0.921536	0.362535
H54	H	1.544893	-0.777923	0.538205
H55	H	1.787202	-0.777576	0.780843
C56	C	1.033404	-0.370969	0.504584
H57	H	0.978436	-0.336550	0.457904
H58	H	1.068152	-0.331742	0.536799
H59	H	1.082861	-0.405455	0.465929
H60	H	1.552398	-0.481175	1.167807
H61	H	1.407308	-1.090373	0.400322
C62	C	1.471529	-0.806959	0.464718
H63	H	1.417917	-0.785726	0.411031
H64	H	1.449141	-0.785613	0.527848
H65	H	1.534691	-0.785620	0.442404
H66	H	1.679187	-1.175452	0.672521
C67	C	1.804951	-1.103264	0.798495
H68	H	1.836380	-1.061671	0.829968
H69	H	1.772338	-1.140007	0.851375
H70	H	1.857890	-1.139999	0.765932
C71	C	1.843338	-0.961889	0.836974
H72	H	1.874770	-0.920299	0.868451
H73	H	1.810727	-0.998635	0.889853
H74	H	1.896275	-0.998622	0.804405
H75	H	1.694896	-0.332568	0.966187
H76	H	1.694948	-0.332505	1.175301
