data_functionalizedCrystal
_audit_creation_method	'MofGen! by Chris Wilmer'
_symmetry_space_group_name_H-M	'P1'
_symmetry_Int_Tables_number	1
_symmetry_cell_setting	triclinic
loop_
_symmetry_equiv_pos_as_xyz
  x,y,z
_cell_length_a	17.019284
_cell_length_b	17.019282
_cell_length_c	10.268362
_cell_angle_alpha	93.876638
_cell_angle_beta	86.122686
_cell_angle_gamma	96.874703
loop_
_atom_site_label
_atom_site_type_symbol
_atom_site_fract_x
_atom_site_fract_y
_atom_site_fract_z
O1	O	-0.100443	1.046563	0.020387
O2	O	-0.113271	0.816883	-0.003944
O3	O	0.007983	0.938136	-0.003939
O4	O	-0.221697	0.925311	0.020382
O5	O	0.007988	0.938125	0.212660
O6	O	-0.113266	0.816873	0.212655
O7	O	-0.100438	1.046553	0.236986
Cu8	Cu	-0.106851	0.931712	0.244597
Cu9	Cu	-0.106857	0.931724	-0.011556
O10	O	-0.221692	0.925300	0.236981
C11	C	-0.112784	0.787489	0.101003
C12	C	-0.111331	0.699921	0.091015
C13	C	-0.110644	0.658780	0.204394
C14	C	-0.109266	0.576501	0.195011
C15	C	-0.108582	0.535365	0.072249
C16	C	-0.109267	0.576511	-0.041138
C17	C	-0.110638	0.658789	-0.031754
C18	C	-0.104434	0.286940	0.038011
C19	C	-0.103065	0.204656	0.028636
C20	C	-0.103063	0.204652	0.264786
C21	C	-0.104440	0.286931	0.274159
C22	C	-0.105121	0.328071	0.160771
C23	C	-0.107176	0.451262	0.062656
C24	C	-0.106520	0.412172	0.170365
C25	C	-0.251083	0.925790	0.132031
C26	C	-0.338652	0.927244	0.142016
C27	C	-0.379791	0.927934	0.028637
C28	C	-0.462070	0.929310	0.038019
C29	C	-0.503208	0.929991	0.160781
C30	C	-0.462062	0.929304	0.274168
C31	C	-0.379785	0.927933	0.264785
C32	C	-0.751634	0.934134	0.195019
C33	C	-0.833917	0.935502	0.204393
C34	C	-0.833919	0.935510	-0.031757
C35	C	-0.751640	0.934134	-0.041129
C36	C	-0.710501	0.933452	0.072258
C37	C	-0.587311	0.931395	0.170374
C38	C	-0.626400	0.932053	0.062665
C39	C	0.037374	0.937646	0.101007
C40	C	0.124943	0.936192	0.091014
C41	C	-0.100925	1.075947	0.132035
C42	C	-0.102378	1.163515	0.142015
N43	N	-0.106847	0.931709	0.424762
N44	N	-0.106856	0.931733	-0.191721
C45	C	-0.106856	0.931720	0.690435
C46	C	-0.106853	0.931711	0.542596
H47	H	-0.104986	0.320427	-0.054318
H48	H	-0.495562	0.929873	-0.054305
H49	H	-0.346290	0.927371	0.357110
C50	C	-0.581145	0.931302	-0.072369
N51	N	-0.547053	0.930732	-0.174078
H52	H	-0.620815	0.931948	0.270326
H53	H	-0.106618	0.417760	-0.037297
H54	H	-0.111208	0.692266	0.304360
C55	C	-0.111396	0.704043	-0.156480
N56	N	-0.111965	0.738128	-0.250428
C57	C	-0.108529	0.531248	0.319739
N58	N	-0.107979	0.497162	0.413691
H59	H	-0.108703	0.543012	-0.141094
C60	C	-0.334546	0.927193	-0.106410
N61	N	-0.300468	0.926641	-0.208131
H62	H	-0.104994	0.320419	0.374124
H63	H	-0.102508	0.171147	0.357099
C64	C	-0.102311	0.159408	-0.106417
N65	N	-0.101744	0.125326	-0.208134
C66	C	-0.706383	0.933472	-0.176168
N67	N	-0.672291	0.933002	-0.277878
C68	C	-0.879177	0.936273	-0.156473
N69	N	-0.913265	0.936854	-0.250414
H70	H	-0.107074	0.445670	0.270317
C71	C	-0.507318	0.930049	0.409207
N72	N	-0.541404	0.930605	0.510920
H73	H	-0.867413	0.936033	0.304362
C74	C	-0.706393	0.933370	0.319748
N75	N	-0.672315	0.932791	0.413701
