data_functionalizedCrystal
_audit_creation_method	'MofGen! by Chris Wilmer'
_symmetry_space_group_name_H-M	'P1'
_symmetry_Int_Tables_number	1
_symmetry_cell_setting	triclinic
loop_
_symmetry_equiv_pos_as_xyz
  x,y,z
_cell_length_a	10.654556
_cell_length_b	15.538191
_cell_length_c	9.130313
_cell_angle_alpha	89.999886
_cell_angle_beta	90.002077
_cell_angle_gamma	65.879815
loop_
_atom_site_label
_atom_site_type_symbol
_atom_site_fract_x
_atom_site_fract_y
_atom_site_fract_z
O1	O	1.606156	0.131941	0.121730
O2	O	1.234807	0.144503	0.121744
O3	O	1.492768	0.001566	0.121741
O4	O	1.348195	0.274878	0.121733
O5	O	1.492753	0.001566	-0.121857
O6	O	1.234792	0.144503	-0.121855
O7	O	1.606142	0.131941	-0.121869
Cu8	Cu	1.420466	0.138222	-0.144104
Cu9	Cu	1.420483	0.138222	0.143980
O10	O	1.348181	0.274878	-0.121866
C11	C	1.188433	0.143579	-0.000053
C12	C	1.050282	0.140816	-0.000048
C13	C	0.855563	0.136925	0.132727
C14	C	0.985375	0.139516	0.132736
C15	C	0.985378	0.139516	-0.132849
C16	C	0.855573	0.136918	-0.132856
C17	C	1.507886	-0.033431	-0.000054
C18	C	1.552942	-0.137709	-0.000041
C19	C	1.105326	-0.428432	-0.000056
C20	C	1.147694	-0.526420	-0.000060
C21	C	1.386006	-0.547302	-0.000069
C22	C	1.343657	-0.449313	-0.000057
C23	C	1.203316	-0.389886	-0.000052
C24	C	1.441647	-0.410767	-0.000053
C25	C	1.399302	-0.312787	-0.000048
C26	C	1.258966	-0.253354	-0.000048
C27	C	1.160970	-0.291906	-0.000047
C28	C	1.581988	-0.470197	-0.000068
C29	C	1.679978	-0.431651	-0.000064
C30	C	1.637633	-0.333669	-0.000049
C31	C	1.497298	-0.274235	-0.000049
C32	C	1.735629	-0.295117	-0.000050
C33	C	1.693284	-0.197137	-0.000046
C34	C	1.454952	-0.176255	-0.000045
C35	C	1.652515	0.132865	-0.000068
C36	C	1.790666	0.135628	-0.000064
C37	C	1.333062	0.309874	-0.000068
C38	C	1.288006	0.414153	-0.000071
N39	N	1.420463	0.138221	-0.346727
C40	C	1.470416	0.195717	-0.423378
C41	C	1.470439	0.195711	-0.576715
C42	C	1.370545	0.080713	-0.576736
C43	C	1.370532	0.080714	-0.423402
N44	N	1.420499	0.138215	0.346602
H45	H	0.802721	0.135873	0.240855
Cl46	Cl	1.533200	0.268003	-0.326992
Cl47	Cl	1.635222	-0.593373	-0.000084
Cl48	Cl	0.773983	0.135285	-0.299808
Cl49	Cl	1.066957	0.141143	0.299681
Cl50	Cl	1.533243	0.267993	-0.673071
H51	H	1.329892	0.033894	-0.639183
H52	H	1.038239	0.140568	-0.240964
H53	H	1.340672	-0.127865	-0.000030
H54	H	0.991046	-0.380042	-0.000041
H55	H	1.773077	-0.165753	-0.000044
H56	H	1.329855	0.033890	-0.360990
Cl57	Cl	1.024490	-0.574874	-0.000075
Cl58	Cl	1.856401	-0.506368	-0.000082
H59	H	1.224491	-0.173572	-0.000053
Cl60	Cl	0.984537	-0.217189	-0.000026
Cl61	Cl	1.562428	-0.622019	-0.000086
H62	H	1.849895	-0.343517	-0.000069
