data_functionalizedCrystal
_audit_creation_method	'MofGen! by Chris Wilmer'
_symmetry_space_group_name_H-M	'P1'
_symmetry_Int_Tables_number	1
_symmetry_cell_setting	triclinic
loop_
_symmetry_equiv_pos_as_xyz
  x,y,z
_cell_length_a	13.033293
_cell_length_b	13.032868
_cell_length_c	13.032268
_cell_angle_alpha	103.285901
_cell_angle_beta	90.920818
_cell_angle_gamma	74.808508
loop_
_atom_site_label
_atom_site_type_symbol
_atom_site_fract_x
_atom_site_fract_y
_atom_site_fract_z
Zn1	Zn	1.451099	0.335779	0.818067
Zn2	Zn	1.951099	0.835779	1.318067
Zn3	Zn	1.450965	0.490877	0.662992
Zn4	Zn	1.950965	0.990877	1.162992
Zn5	Zn	1.301764	0.330079	0.623621
Zn6	Zn	1.801764	0.830079	1.123621
Zn7	Zn	1.250870	0.535869	0.817934
Zn8	Zn	1.750870	1.035869	1.317934
O9	O	1.363675	0.423151	0.730654
O10	O	1.863675	0.923151	1.230654
O11	O	1.597320	0.339909	0.814028
O12	O	2.097320	0.839909	1.314028
O13	O	1.452416	0.448333	0.511550
O14	O	1.952416	0.948333	1.011550
O15	O	1.342929	0.179802	0.632994
O16	O	1.842929	0.679802	1.132994
O17	O	1.597221	0.453859	0.700095
O18	O	2.097221	0.953859	1.200095
O19	O	1.452645	0.183990	0.775852
O20	O	1.952645	0.683990	1.275852
O21	O	1.342799	0.330195	0.482624
O22	O	1.842799	0.830195	0.982624
O23	O	1.148774	0.373821	0.632865
O24	O	1.648774	0.873821	1.132865
O25	O	1.256188	0.530541	0.964172
O26	O	1.756188	1.030541	1.464172
O27	O	1.111383	0.525014	0.775626
O28	O	1.611383	1.025014	1.275626
O29	O	1.403295	0.383535	0.964269
O30	O	1.903295	0.883535	1.464269
O31	O	1.403067	0.647878	0.699967
O32	O	1.903067	1.147878	1.199967
O33	O	1.256057	0.680933	0.813802
O34	O	1.756057	1.180933	1.313802
C35	C	1.092160	0.453682	0.699960
C36	C	1.592160	0.953682	1.199960
C37	C	0.975998	0.466773	0.686856
C38	C	1.475998	0.966773	1.186856
C39	C	0.924229	0.416346	0.737495
C40	C	1.424229	0.916346	1.237495
C41	C	0.804170	0.429875	0.723953
C42	C	1.304170	0.929875	1.223953
C43	C	1.324050	0.703567	0.761169
C44	C	1.824050	1.203567	1.261169
C45	C	1.307189	0.823525	0.774269
C46	C	1.807189	1.323525	1.274269
C47	C	1.372458	0.860616	0.723839
C48	C	1.872458	1.360616	1.223839
C49	C	1.355033	0.984598	0.737378
C50	C	1.855033	1.484598	1.237378
C51	C	1.636249	0.392501	0.761468
C52	C	2.136249	0.892501	1.261468
C53	C	1.752404	0.379440	0.774600
C54	C	2.252404	0.879440	1.274600
C55	C	1.324079	0.462692	1.003194
C56	C	1.824079	0.962692	1.503194
C57	C	1.307206	0.479543	1.119334
C58	C	1.807206	0.979543	1.619334
C59	C	1.403446	1.141642	0.700030
C60	C	1.903446	1.641642	1.200030
C61	C	1.420311	1.021686	0.686942
C62	C	1.920311	1.521686	1.186942
C63	C	1.403187	0.383679	0.459172
C64	C	1.903187	0.883679	0.959172
C65	C	1.420305	0.366502	0.343022
C66	C	1.920305	0.866502	0.843022
C67	C	1.372470	0.414320	1.171161
C68	C	1.872470	0.914320	1.671161
C69	C	1.355032	0.431734	1.291198
C70	C	1.855032	0.931734	1.791198
H71	H	0.796962	0.326241	0.827977
H72	H	1.296962	0.826241	1.327977
H73	H	1.441251	0.345585	1.126664
H74	H	1.941251	0.845585	1.626664
H75	H	1.441242	0.800587	0.670646
H76	H	1.941242	1.300587	1.170646
F77	F	1.510223	0.943230	0.617408
F78	F	2.010223	1.443230	1.117408
H79	H	1.489089	0.297759	1.298531
H80	H	1.989089	0.797759	1.798531
H81	H	1.286252	1.044627	0.790583
H82	H	1.786252	1.544627	1.290583
H83	H	0.968793	0.363152	0.790870
H84	H	1.468793	0.863152	1.290870
F85	F	1.217291	0.901986	0.843809
F86	F	1.717291	1.401986	1.343809
F87	F	1.217294	0.569377	1.177486
F88	F	1.717294	1.069377	1.677486
H89	H	0.759612	0.483065	0.670568
H90	H	1.259612	0.983065	1.170568
F91	F	0.917759	0.536291	0.617078
F92	F	1.417759	1.036291	1.117078
H93	H	1.286238	0.500464	1.335688
H94	H	1.786238	1.000464	1.835688
