data_functionalizedCrystal
_audit_creation_method	'MofGen! by Chris Wilmer'
_symmetry_space_group_name_H-M	'P1'
_symmetry_Int_Tables_number	1
_symmetry_cell_setting	triclinic
loop_
_symmetry_equiv_pos_as_xyz
  x,y,z
_cell_length_a	13.897449
_cell_length_b	18.050583
_cell_length_c	18.050589
_cell_angle_alpha	89.968090
_cell_angle_beta	90.029048
_cell_angle_gamma	89.982486
loop_
_atom_site_label
_atom_site_type_symbol
_atom_site_fract_x
_atom_site_fract_y
_atom_site_fract_z
Zn1	Zn	1.474576	-0.419965	-0.295590
Zn2	Zn	1.474457	-0.295784	-0.419803
Zn3	Zn	1.313282	-0.295786	-0.295633
Zn4	Zn	1.313217	-0.419929	-0.419744
O5	O	1.393883	-0.357866	-0.357692
O6	O	1.609542	-0.403506	-0.312073
O7	O	1.453054	-0.191860	-0.403374
O8	O	1.334755	-0.312274	-0.191703
O9	O	1.609454	-0.312271	-0.403332
O10	O	1.453257	-0.403507	-0.191671
O11	O	1.334639	-0.191861	-0.312147
O12	O	1.178292	-0.312239	-0.312090
O13	O	1.334645	-0.523859	-0.403232
O14	O	1.178244	-0.403447	-0.403274
O15	O	1.453194	-0.523885	-0.312017
O16	O	1.452991	-0.312237	-0.523720
O17	O	1.334529	-0.403446	-0.523677
C18	C	1.143269	-0.357840	-0.357681
C19	C	1.036055	-0.357847	-0.357694
C20	C	0.948985	-0.357859	-0.357696
C21	C	0.839753	-0.357882	-0.357702
C22	C	1.393926	-0.551572	-0.357613
C23	C	1.393944	-0.634117	-0.357579
C24	C	1.458476	-0.833582	-0.307952
C25	C	1.370500	-0.882974	-0.289777
C26	C	1.393983	-0.785248	-0.357567
C27	C	1.481993	-0.882938	-0.375695
C28	C	1.394028	-0.931233	-0.357553
C29	C	1.305961	-0.833552	-0.339356
C30	C	1.417513	-0.833512	-0.425306
C31	C	1.329477	-0.882881	-0.407156
C32	C	1.393958	-0.701150	-0.357573
C33	C	1.394042	-1.015330	-0.357547
C34	C	1.645476	-0.357892	-0.357704
C35	C	1.752690	-0.357904	-0.357710
C36	C	1.393767	-0.357854	-0.550645
C37	C	1.393805	-0.357873	-0.633190
C38	C	1.393896	-0.164914	-0.357718
C39	C	1.394065	-0.082368	-0.357542
C40	C	1.329449	-0.407455	-0.832645
C41	C	1.305941	-0.339688	-0.882095
C42	C	1.393900	-0.357883	-0.784321
C43	C	1.417455	-0.425658	-0.881952
C44	C	1.393990	-0.357898	-0.930306
C45	C	1.370346	-0.290079	-0.832684
C46	C	1.481901	-0.376096	-0.832536
C47	C	1.458426	-0.308281	-0.881965
C48	C	1.393846	-0.357875	-0.700222
C49	C	1.394044	-0.357898	-1.014402
C50	C	1.394026	-0.357895	-0.163987
C51	C	1.394087	-0.357907	-0.081441
H52	H	1.350612	-0.904701	-0.232486
H53	H	1.512926	-0.811933	-0.265969
C54	C	1.205409	-0.804377	-0.318535
C55	C	1.186816	-0.720362	-0.314660
C56	C	1.086269	-0.691185	-0.293833
C57	C	1.004314	-0.746023	-0.276881
C58	C	1.022904	-0.830043	-0.280755
C59	C	1.123452	-0.859220	-0.301582
H60	H	1.247486	-0.679763	-0.327209
H61	H	1.072507	-0.628987	-0.290965
H62	H	0.929883	-0.724424	-0.261464
H63	H	0.962234	-0.870642	-0.268206
H64	H	1.137213	-0.921418	-0.304450
C65	C	1.255744	-0.911951	-0.463828
C66	C	1.148476	-0.892269	-0.455457
C67	C	1.074741	-0.921342	-0.512124
C68	C	1.108275	-0.970097	-0.577163
C69	C	1.215549	-0.989782	-0.585537
C70	C	1.289284	-0.960709	-0.528870
H71	H	1.123647	-0.856176	-0.407309
H72	H	0.995329	-0.906770	-0.505924
H73	H	1.053692	-0.991619	-0.619111
H74	H	1.240377	-1.025876	-0.633685
H75	H	1.368695	-0.975281	-0.535069
H76	H	1.437428	-0.811771	-0.482581
H77	H	1.231563	-0.324297	-0.903880
H78	H	1.437343	-0.482969	-0.903594
C79	C	1.343365	-0.212630	-0.803579
C80	C	1.414357	-0.169571	-0.754229
C81	C	1.387378	-0.092123	-0.725125
C82	C	1.289406	-0.057736	-0.745370
C83	C	1.218408	-0.100796	-0.794723
C84	C	1.245388	-0.178243	-0.823828
H85	H	1.486887	-0.195026	-0.739240
H86	H	1.439936	-0.060247	-0.688590
H87	H	1.269435	-0.000404	-0.723826
H88	H	1.145878	-0.075340	-0.809713
H89	H	1.192830	-0.210119	-0.860362
C90	C	1.582515	-0.912243	-0.396424
C91	C	1.670079	-0.892784	-0.347887
C92	C	1.770602	-0.922086	-0.368609
C93	C	1.783561	-0.970846	-0.437869
C94	C	1.695993	-0.990307	-0.486410
C95	C	1.595471	-0.961005	-0.465688
H96	H	1.660489	-0.856687	-0.296613
H97	H	1.835425	-0.907679	-0.332675
H98	H	1.857974	-0.992537	-0.453208
H99	H	1.705584	-1.026404	-0.537684
H100	H	1.530648	-0.975412	-0.501622
C101	C	1.255715	-0.464008	-0.803379
C102	C	1.148418	-0.455530	-0.822978
C103	C	1.074684	-0.512078	-0.793710
C104	C	1.108246	-0.577102	-0.744842
C105	C	1.215549	-0.585582	-0.725240
C106	C	1.289283	-0.529035	-0.754508
H107	H	1.123569	-0.407393	-0.859156
H108	H	0.995252	-0.505800	-0.808222
H109	H	1.053664	-0.618962	-0.723176
H110	H	1.240398	-0.633720	-0.689063
H111	H	1.368716	-0.535313	-0.739997
H112	H	1.512969	-0.266318	-0.903484
H113	H	1.556262	-0.391519	-0.810754
