data_functionalizedCrystal
_audit_creation_method	'MofGen! by Chris Wilmer'
_symmetry_space_group_name_H-M	'P1'
_symmetry_Int_Tables_number	1
_symmetry_cell_setting	triclinic
loop_
_symmetry_equiv_pos_as_xyz
  x,y,z
_cell_length_a	23.532407
_cell_length_b	19.188905
_cell_length_c	17.666332
_cell_angle_alpha	90.012948
_cell_angle_beta	90.009215
_cell_angle_gamma	82.991616
loop_
_atom_site_label
_atom_site_type_symbol
_atom_site_fract_x
_atom_site_fract_y
_atom_site_fract_z
O1	O	0.071033	0.925931	0.063081
O2	O	0.571033	1.425931	0.563081
O3	O	0.080619	0.722586	0.063056
O4	O	0.580619	1.222586	0.563056
O5	O	-0.007093	0.830390	0.063055
O6	O	0.492907	1.330390	0.563055
O7	O	0.158745	0.818127	0.063081
O8	O	0.658745	1.318127	0.563081
O9	O	-0.007095	0.830378	-0.062842
O10	O	0.492905	1.330378	0.437158
O11	O	0.080617	0.722574	-0.062841
O12	O	0.580617	1.222574	0.437159
O13	O	0.071031	0.925919	-0.062816
O14	O	0.571031	1.425919	0.437184
Cu15	Cu	0.075824	0.824245	-0.074324
Cu16	Cu	0.575824	1.324245	0.425676
Cu17	Cu	0.075826	0.824260	0.074564
Cu18	Cu	0.575826	1.324260	0.574564
O19	O	0.158743	0.818115	-0.062815
O20	O	0.658743	1.318115	0.437185
C21	C	0.080310	0.696570	0.000104
C22	C	0.580310	1.196570	0.500104
C23	C	0.079385	0.619067	0.000094
C24	C	0.579385	1.119067	0.500094
C25	C	0.078942	0.582684	0.068722
C26	C	0.578942	1.082684	0.568722
C27	C	0.078067	0.509863	0.068732
C28	C	0.578067	1.009863	0.568732
C29	C	0.077623	0.473430	0.000109
C30	C	0.577623	0.973430	0.500109
C31	C	0.078070	0.509823	-0.068529
C32	C	0.578070	1.009823	0.431471
C33	C	0.078951	0.582641	-0.068536
C34	C	0.578951	1.082641	0.431464
N35	N	0.043830	0.364513	-0.050966
N36	N	0.543830	0.864513	0.449034
N37	N	0.042992	0.295339	-0.050954
N38	N	0.542992	0.795339	0.449046
C39	C	0.074970	0.254032	0.000127
C40	C	0.574970	0.754032	0.500127
N41	N	0.107811	0.284514	0.051207
N42	N	0.607811	0.784514	0.551207
N43	N	0.108647	0.353696	0.051197
N44	N	0.608647	0.853696	0.551197
C45	C	0.076668	0.394471	0.000109
C46	C	0.576668	0.894471	0.500109
C47	C	0.073579	0.138688	0.068770
C48	C	0.573579	0.638688	0.568770
C49	C	0.072707	0.065865	0.068776
C50	C	0.572707	0.565865	0.568776
C51	C	0.072704	0.065827	-0.068486
C52	C	0.572704	0.565827	0.431514
C53	C	0.073582	0.138647	-0.068491
C54	C	0.573582	0.638647	0.431509
C55	C	0.074016	0.175074	0.000139
C56	C	0.574016	0.675074	0.500139
C57	C	-0.028311	0.830072	0.000105
C58	C	0.471689	1.330072	0.500105
C59	C	-0.091530	0.829133	0.000099
C60	C	0.408470	1.329133	0.500099
C61	C	-0.490514	0.887040	0.000147
C62	C	0.009486	1.387040	0.500147
C63	C	-0.549916	0.886168	0.000153
C64	C	-0.049916	1.386168	0.500153
O65	O	-0.586551	0.939848	0.000188
O66	O	-0.086551	1.439848	0.500188
N67	N	-0.572674	0.822078	0.000145
N68	N	-0.072674	1.322078	0.500145
C69	C	-0.536026	0.758857	0.000138
C70	C	-0.036026	1.258857	0.500138
O71	O	-0.560837	0.704264	0.000132
O72	O	-0.060837	1.204264	0.500132
C73	C	-0.476625	0.759730	0.000138
C74	C	0.023375	1.259730	0.500138
C75	C	-0.453871	0.823824	0.000139
C76	C	0.046129	1.323824	0.500139
C77	C	-0.467759	0.951128	0.000149
C78	C	0.032241	1.451128	0.500149
C79	C	-0.408362	0.952000	0.000142
C80	C	0.091638	1.452000	0.500142
C81	C	-0.371718	0.888784	0.000133
C82	C	0.128282	1.388784	0.500133
C83	C	-0.394473	0.824696	0.000132
C84	C	0.105527	1.324696	0.500132
C85	C	-0.439978	0.696509	0.000137
C86	C	0.060022	1.196509	0.500137
C87	C	-0.380574	0.697388	0.000138
C88	C	0.119426	1.197388	0.500138
C89	C	-0.357820	0.761482	0.000138
C90	C	0.142180	1.261482	0.500138
C91	C	-0.298432	0.762351	0.000116
C92	C	0.201568	1.262351	0.500116
N93	N	-0.275674	0.826440	0.000125
N94	N	0.224326	1.326440	0.500125
C95	C	-0.312317	0.889657	0.000133
C96	C	0.187683	1.389657	0.500133
C97	C	-0.660772	0.757029	0.000140
C98	C	-0.160772	1.257029	0.500140
C99	C	-0.720172	0.756155	0.000135
C100	C	-0.220172	1.256155	0.500135
C101	C	-0.734058	0.883466	0.000151
C102	C	-0.234058	1.383466	0.500151
C103	C	-0.674657	0.884339	0.000151
C104	C	-0.174657	1.384339	0.500151
C105	C	-0.638014	0.821118	0.000149
C106	C	-0.138014	1.321118	0.500149
C107	C	-0.187577	0.891483	0.000118
C108	C	0.312423	1.391483	0.500118
C109	C	-0.128173	0.892350	0.000107
C110	C	0.371827	1.392350	0.500107
C111	C	-0.114292	0.765039	0.000095
C112	C	0.385708	1.265039	0.500095
C113	C	-0.173691	0.764172	0.000102
C114	C	0.326309	1.264172	0.500102
C115	C	-0.210332	0.827400	0.000115
C116	C	0.289668	1.327400	0.500115
O117	O	-0.261762	0.708699	0.000085
O118	O	0.238238	1.208699	0.500085
O119	O	-0.287498	0.944241	0.000149
O120	O	0.212502	1.444241	0.500149
C121	C	0.179961	0.818433	0.000137
C122	C	0.679961	1.318433	0.500137
C123	C	0.243180	0.819372	0.000148
C124	C	0.743180	1.319372	0.500148
C125	C	0.071340	0.951935	0.000137
C126	C	0.571340	1.451935	0.500137
C127	C	0.072265	1.029437	0.000152
C128	C	0.572265	1.529437	0.500152
N129	N	0.075822	0.824240	-0.179043
N130	N	0.575822	1.324240	0.320957
C131	C	0.036995	0.872007	-0.781094
C132	C	0.536995	1.372007	-0.281094
C133	C	0.036997	0.872008	-0.701846
C134	C	0.536997	1.372008	-0.201846
C135	C	0.075821	0.824260	-0.662225
C136	C	0.575821	1.324260	-0.162225
C137	C	0.114657	0.776520	-0.701858
C138	C	0.614657	1.276520	-0.201858
C139	C	0.114658	0.776525	-0.781104
C140	C	0.614658	1.276525	-0.281104
N141	N	0.083206	0.762424	-0.537819
N142	N	0.583206	1.262424	-0.037819
N143	N	0.083201	0.762422	-0.462539
N144	N	0.583201	1.262422	0.037461
C145	C	0.075820	0.824244	-0.423461
C146	C	0.575820	1.324244	0.076539
N147	N	0.068432	0.886070	-0.462507
N148	N	0.568432	1.386070	0.037493
N149	N	0.068434	0.886072	-0.537795
N150	N	0.568434	1.386072	-0.037795
C151	C	0.075824	0.824250	-0.576296
C152	C	0.575824	1.324250	-0.076296
C153	C	0.036991	0.871986	-0.297908
C154	C	0.536991	1.371986	0.202092
C155	C	0.036996	0.871988	-0.218659
C156	C	0.536996	1.371988	0.281341
C157	C	0.114654	0.776494	-0.218672
C158	C	0.614654	1.276494	0.281328
C159	C	0.114651	0.776498	-0.297920
C160	C	0.614651	1.276498	0.202080
C161	C	0.075817	0.824243	-0.337533
C162	C	0.575817	1.324243	0.162467
N163	N	0.075824	0.824270	0.179283
N164	N	0.575824	1.324270	0.679283
H165	H	-0.109650	0.944544	0.000106
H166	H	0.390350	1.444544	0.500106
H167	H	-0.084446	0.713570	0.000086
H168	H	0.415554	1.213570	0.500086
H169	H	0.072350	0.036242	0.124664
H170	H	0.572350	0.536242	0.624664
H171	H	0.146278	0.737651	-0.813366
H172	H	0.646278	1.237651	-0.313366
H173	H	0.072347	0.036164	-0.124360
H174	H	0.572347	0.536164	0.375640
H175	H	-0.763904	0.934940	0.000161
H176	H	-0.263904	1.434940	0.500161
O177	O	0.079419	0.621973	0.142741
O178	O	0.579419	1.121973	0.642741
H179	H	0.078969	0.584433	0.190464
H180	H	0.578969	1.084433	0.690464
H181	H	0.005371	0.910865	-0.330163
H182	H	0.505371	1.410865	0.169837
H183	H	0.073939	0.168272	-0.124375
H184	H	0.573939	0.668272	0.375625
O185	O	-0.227094	0.959677	0.000121
O186	O	0.272906	1.459677	0.500121
H187	H	-0.201283	1.004382	0.000112
H188	H	0.298717	1.504382	0.500112
H189	H	0.005377	0.910882	-0.669579
H190	H	0.505377	1.410882	-0.169579
H191	H	0.146266	0.737623	-0.330183
H192	H	0.646266	1.237623	0.169817
H193	H	0.005376	0.910885	-0.813345
H194	H	0.505376	1.410885	-0.313345
O195	O	-0.004887	0.923475	-0.175916
O196	O	0.495113	1.423475	0.324084
H197	H	-0.031893	0.956668	-0.216779
H198	H	0.468107	1.456668	0.283221
H199	H	0.146269	0.737644	-0.669594
H200	H	0.646269	1.237644	-0.169594
H201	H	0.077710	0.480154	-0.124402
H202	H	0.577710	0.980154	0.375598
O203	O	0.156526	0.724987	-0.175951
O204	O	0.656526	1.224987	0.324049
H205	H	0.150000	0.732998	-0.114188
H206	H	0.650000	1.232998	0.385812
H207	H	0.073939	0.168347	0.124652
H208	H	0.573939	0.668347	0.624652
O209	O	-0.744712	0.687026	0.000120
O210	O	-0.244712	1.187026	0.500120
H211	H	-0.729975	0.656677	0.051431
H212	H	-0.229975	1.156677	0.551431
O213	O	-0.507276	1.019320	0.000146
O214	O	-0.007276	1.519320	0.500146
H215	H	-0.499194	1.050023	0.051455
H216	H	0.000806	1.550023	0.551455
H217	H	0.077707	0.480233	0.124619
H218	H	0.577707	0.980233	0.624619
O219	O	-0.621250	0.688837	0.000117
O220	O	-0.121250	1.188837	0.500117
H221	H	-0.647059	0.644130	0.000102
H222	H	-0.147059	1.144130	0.500102
H223	H	-0.389841	1.004192	0.000146
H224	H	0.110159	1.504192	0.500146
H225	H	0.079312	0.612264	-0.124423
H226	H	0.579312	1.112264	0.375577
H227	H	-0.656135	0.936530	0.000152
H228	H	-0.156135	1.436530	0.500152
H229	H	-0.350741	0.645904	0.000137
H230	H	0.149259	1.145904	0.500137
O231	O	-0.464512	0.627380	0.000139
O232	O	0.035488	1.127380	0.500139
H233	H	-0.429044	0.583575	0.000143
H234	H	0.070956	1.083575	0.500143
O235	O	-0.198239	0.695046	0.000098
O236	O	0.301761	1.195046	0.500098
H237	H	-0.162776	0.651234	0.000094
H238	H	0.337224	1.151234	0.500094
