data_functionalizedCrystal
_audit_creation_method	'MofGen! by Chris Wilmer'
_symmetry_space_group_name_H-M	'P1'
_symmetry_Int_Tables_number	1
_symmetry_cell_setting	triclinic
loop_
_symmetry_equiv_pos_as_xyz
  x,y,z
_cell_length_a	19.288864
_cell_length_b	17.038278
_cell_length_c	18.366186
_cell_angle_alpha	89.986923
_cell_angle_beta	89.977106
_cell_angle_gamma	87.123372
loop_
_atom_site_label
_atom_site_type_symbol
_atom_site_fract_x
_atom_site_fract_y
_atom_site_fract_z
O1	O	0.927385	0.097514	-0.060796
O2	O	1.427385	0.597514	0.439204
O3	O	0.725938	0.110668	-0.060748
O4	O	1.225938	0.610668	0.439252
O5	O	0.825465	-0.009720	-0.060754
O6	O	1.325465	0.490280	0.439246
O7	O	0.827858	0.217903	-0.060791
O8	O	1.327858	0.717903	0.439209
O9	O	0.825447	-0.009726	0.060346
O10	O	1.325447	0.490274	0.560346
O11	O	0.725920	0.110662	0.060351
O12	O	1.225920	0.610662	0.560351
O13	O	0.927367	0.097508	0.060303
O14	O	1.427367	0.597508	0.560303
Zn15	Zn	0.826640	0.104084	0.079554
Zn16	Zn	1.326640	0.604084	0.579554
Zn17	Zn	0.826665	0.104092	-0.080000
Zn18	Zn	1.326665	0.604092	0.420000
O19	O	0.827840	0.217897	0.060308
O20	O	1.327840	0.717897	0.560308
C21	C	0.700027	0.110242	-0.000192
C22	C	1.200027	0.610242	0.499808
C23	C	0.622844	0.108972	-0.000173
C24	C	1.122844	0.608972	0.499827
C25	C	0.823279	-0.038845	-0.000200
C26	C	1.323279	0.461155	0.499800
C27	C	0.816782	-0.125616	-0.000189
C28	C	1.316782	0.374384	0.499811
C29	C	0.582518	0.179610	-0.000196
C30	C	1.082518	0.679610	0.499804
C31	C	0.509997	0.178417	-0.000204
C32	C	1.009997	0.678417	0.499796
C33	C	0.477805	0.106580	-0.000203
C34	C	0.977805	0.606580	0.499797
C35	C	0.518141	0.035932	-0.000176
C36	C	1.018141	0.535932	0.499824
C37	C	0.590661	0.037128	-0.000161
C38	C	1.090661	0.537128	0.499839
C39	C	0.366056	0.050111	-0.042645
C40	C	0.866056	0.550111	0.457355
C41	C	0.293538	0.048918	-0.042665
C42	C	0.793538	0.548918	0.457335
C43	C	0.254132	0.102889	-0.000247
C44	C	0.754132	0.602889	0.499753
C45	C	0.287251	0.158066	0.042181
C46	C	0.787251	0.658066	0.542181
C47	C	0.359771	0.159262	0.042197
C48	C	0.859771	0.659262	0.542197
C49	C	0.399171	0.105276	-0.000219
C50	C	0.899171	0.605276	0.499781
C51	C	0.135169	0.172239	-0.000277
C52	C	0.635169	0.672239	0.499723
C53	C	0.062647	0.171042	-0.000281
C54	C	0.562647	0.671042	0.499719
C55	C	0.070793	0.028556	-0.000260
C56	C	0.570793	0.528556	0.499740
C57	C	0.143314	0.029754	-0.000249
C58	C	0.643314	0.529754	0.499751
C59	C	0.175497	0.101598	-0.000262
C60	C	0.675497	0.601598	0.499738
C61	C	0.776868	-0.615899	-0.000246
C62	C	1.276868	-0.115899	0.499754
C63	C	0.782978	-0.534369	-0.000240
C64	C	1.282978	-0.034369	0.499760
C65	C	0.848744	-0.503147	-0.000246
C66	C	1.348744	-0.003147	0.499754
C67	C	0.908404	-0.553462	-0.000265
C68	C	1.408404	-0.053462	0.499735
C69	C	0.902294	-0.634991	-0.000276
C70	C	1.402294	-0.134991	0.499724
C71	C	0.870331	-0.257460	-0.000219
C72	C	1.370331	0.242540	0.499781
C73	C	0.876437	-0.175924	-0.000206
C74	C	1.376437	0.324076	0.499794
C75	C	0.751010	-0.156837	-0.000182
C76	C	1.251010	0.343163	0.499818
C77	C	0.744905	-0.238368	-0.000189
C78	C	1.244905	0.261632	0.499811
C79	C	0.804566	-0.288675	-0.000212
C80	C	1.304566	0.211325	0.499788
C81	C	0.854991	-0.419810	-0.000238
C82	C	1.354991	0.080190	0.499762
C83	C	0.798318	-0.372011	-0.000225
C84	C	1.298318	0.127989	0.499775
C85	C	0.953279	0.097934	-0.000255
C86	C	1.453279	0.597934	0.499745
C87	C	1.030461	0.099205	-0.000279
C88	C	1.530461	0.599205	0.499721
C89	C	0.830027	0.247021	-0.000247
C90	C	1.330027	0.747021	0.499753
C91	C	0.836523	0.333793	-0.000263
C92	C	1.336523	0.833793	0.499737
N93	N	0.826629	0.104079	0.188445
N94	N	1.326629	0.604079	0.688445
N95	N	0.826681	0.104092	-0.188891
N96	N	1.326681	0.604092	0.311109
C97	C	0.870716	0.050797	0.226543
C98	C	1.370716	0.550797	0.726543
C99	C	0.870721	0.050793	0.302771
C100	C	1.370721	0.550793	0.802771
C101	C	0.826645	0.104085	0.340898
C102	C	1.326645	0.604085	0.840898
C103	C	0.782548	0.157371	0.302791
C104	C	1.282548	0.657371	0.802791
C105	C	0.782540	0.157368	0.226564
C106	C	1.282540	0.657368	0.726564
C107	C	0.821753	0.175309	0.461648
C108	C	1.321753	0.675309	0.961648
C109	C	0.821765	0.175313	0.537873
C110	C	1.321765	0.675313	1.037873
C111	C	0.826665	0.104095	0.576006
C112	C	1.326665	0.604095	1.076006
C113	C	0.831566	0.032869	0.537904
C114	C	1.331566	0.532869	1.037904
C115	C	0.831558	0.032866	0.461677
C116	C	1.331558	0.532866	0.961677
C117	C	0.826648	0.104094	0.423553
C118	C	1.326648	0.604094	0.923553
C119	C	0.870759	0.050805	0.696759
C120	C	1.370759	0.550805	1.196759
C121	C	0.870759	0.050800	0.772988
C122	C	1.370759	0.550800	1.272988
C123	C	0.782590	0.157385	0.773006
C124	C	1.282590	0.657385	1.273006
C125	C	0.782587	0.157383	0.696778
C126	C	1.282587	0.657383	1.196778
C127	C	0.826676	0.104093	0.658659
C128	C	1.326676	0.604093	1.158659
H129	H	0.608717	0.238111	-0.000207
H130	H	1.108717	0.738111	0.499793
H131	H	0.950872	-0.675951	-0.000292
H132	H	1.450872	-0.175951	0.499708
H133	H	0.746690	0.200773	0.665757
H134	H	1.246690	0.700773	1.165757
H135	H	0.746660	0.200761	0.333837
H136	H	1.246660	0.700761	0.833837
H137	H	0.044583	-0.029935	-0.000305
H138	H	0.544583	0.470065	0.499695
H139	H	0.744772	-0.397435	-0.000224
H140	H	1.244772	0.102565	0.499776
H141	H	0.734399	-0.493411	-0.000229
H142	H	1.234399	0.006589	0.499771
H143	H	0.161375	0.230738	-0.000276
H144	H	0.661375	0.730738	0.499724
H145	H	0.255168	0.202015	0.076723
H146	H	0.755168	0.702015	0.576723
H147	H	0.691352	-0.263782	-0.000193
H148	H	1.191352	0.236218	0.499807
H149	H	0.477157	0.235941	-0.000221
H150	H	0.977157	0.735941	0.499779
H151	H	0.723314	-0.641313	-0.000233
H152	H	1.223314	-0.141313	0.499767
H153	H	0.908538	-0.394381	-0.000218
H154	H	1.408538	0.105619	0.499782
H155	H	0.702439	-0.115869	-0.000165
H156	H	1.202439	0.384131	0.499835
H157	H	0.029814	0.228567	-0.000295
H158	H	0.529814	0.728567	0.499705
H159	H	0.817779	0.233309	0.568889
H160	H	1.317779	0.733309	1.068889
H161	H	0.906657	0.007411	0.665721
H162	H	1.406657	0.507411	1.165721
H163	H	0.929995	-0.150508	-0.000210
H164	H	1.429995	0.349492	0.499790
H165	H	0.386734	0.204187	0.076745
H166	H	0.886734	0.704187	0.576745
H167	H	0.918911	-0.298411	-0.000233
H168	H	1.418911	0.201589	0.499767
H169	H	0.906614	0.007403	0.195509
H170	H	1.406614	0.507403	0.695509
H171	H	0.906623	0.007403	0.333796
H172	H	1.406623	0.507403	0.833796
H173	H	0.176148	-0.027768	-0.000235
H174	H	0.676148	0.472232	0.499765
H175	H	0.623494	-0.020396	-0.000142
H176	H	1.123494	0.479604	0.499858
H177	H	0.817751	0.233307	0.430607
H178	H	1.317751	0.733307	0.930607
H179	H	0.835547	-0.025128	0.430658
H180	H	1.335547	0.474872	0.930658
H181	H	0.746638	0.200757	0.195544
H182	H	1.246638	0.700757	0.695544
H183	H	0.961953	-0.528035	-0.000268
H184	H	1.461953	-0.028035	0.499732
H185	H	0.266578	0.003993	-0.077215
H186	H	0.766578	0.503993	0.422785
H187	H	0.746700	0.200773	0.804048
H188	H	1.246700	0.700773	1.304048
H189	H	0.398136	0.006159	-0.077191
H190	H	0.898136	0.506159	0.422809
H191	H	0.835556	-0.025124	0.568950
H192	H	1.335556	0.474876	1.068950
H193	H	0.491926	-0.022557	-0.000186
H194	H	0.991926	0.477443	0.499814
H195	H	0.906658	0.007407	0.804008
H196	H	1.406658	0.507407	1.304008
