data_functionalizedCrystal
_audit_creation_method	'MofGen! by Chris Wilmer'
_symmetry_space_group_name_H-M	'P1'
_symmetry_Int_Tables_number	1
_symmetry_cell_setting	triclinic
loop_
_symmetry_equiv_pos_as_xyz
  x,y,z
_cell_length_a	14.853566
_cell_length_b	19.188924
_cell_length_c	13.330367
_cell_angle_alpha	89.993282
_cell_angle_beta	89.995295
_cell_angle_gamma	83.388189
loop_
_atom_site_label
_atom_site_type_symbol
_atom_site_fract_x
_atom_site_fract_y
_atom_site_fract_z
O1	O	1.195860	0.091151	-0.083362
O2	O	1.695860	0.591151	0.416638
O3	O	0.933339	0.102011	-0.083379
O4	O	1.433339	0.602011	0.416621
O5	O	1.072179	-0.005050	-0.083358
O6	O	1.572179	0.494950	0.416642
O7	O	1.057021	0.198212	-0.083383
O8	O	1.557021	0.698212	0.416617
O9	O	1.072159	-0.005052	0.083489
O10	O	1.572159	0.494948	0.583489
O11	O	0.933319	0.102009	0.083468
O12	O	1.433319	0.602009	0.583468
O13	O	1.195840	0.091149	0.083485
O14	O	1.695840	0.591149	0.583485
Cu15	Cu	1.064578	0.096578	0.098711
Cu16	Cu	1.564578	0.596578	0.598711
Cu17	Cu	1.064601	0.096581	-0.098605
Cu18	Cu	1.564601	0.596581	0.401395
O19	O	1.057001	0.198209	0.083464
O20	O	1.557001	0.698209	0.583464
C21	C	0.899743	0.101518	0.000042
C22	C	1.399743	0.601518	0.500042
C23	C	0.799668	0.100044	0.000036
C24	C	1.299668	0.600044	0.500036
C25	C	0.376529	0.093810	-0.090894
C26	C	0.876529	0.593810	0.409106
C27	C	0.376528	0.093808	0.091010
C28	C	0.876528	0.593808	0.591010
C29	C	0.470555	0.095192	0.091006
C30	C	0.970555	0.595192	0.591006
C31	C	0.517572	0.095887	0.000052
C32	C	1.017572	0.595887	0.500052
C33	C	0.470564	0.095197	-0.090900
C34	C	0.970564	0.595197	0.409100
C35	C	0.517569	0.095889	0.181956
C36	C	1.017569	0.595889	0.681956
C37	C	0.611601	0.097275	0.181956
C38	C	1.111601	0.597275	0.681956
C39	C	0.658621	0.097964	0.091001
C40	C	1.158621	0.597964	0.591001
C41	C	0.611607	0.097273	0.000046
C42	C	1.111607	0.597273	0.500046
C43	C	0.658624	0.097967	-0.090909
C44	C	1.158624	0.597967	0.409091
C45	C	0.611613	0.097272	-0.181865
C46	C	1.111613	0.597272	0.318135
C47	C	0.517584	0.095886	-0.181855
C48	C	1.017584	0.595886	0.318145
C49	C	0.752650	0.099349	0.090991
C50	C	1.252650	0.599349	0.590991
C51	C	0.752659	0.099354	-0.090915
C52	C	1.252659	0.599354	0.409085
C53	C	1.071679	-0.031064	0.000066
C54	C	1.571679	0.468936	0.500066
C55	C	1.070208	-0.108573	0.000069
C56	C	1.570208	0.391427	0.500069
C57	C	1.069533	-0.144973	-0.090880
C58	C	1.569533	0.355027	0.409120
C59	C	1.068139	-0.217800	-0.090888
C60	C	1.568139	0.282200	0.409112
C61	C	1.067438	-0.254227	0.000059
C62	C	1.567438	0.245773	0.500059
C63	C	1.068108	-0.217818	0.091019
C64	C	1.568108	0.282182	0.591019
C65	C	1.069493	-0.144991	0.091024
C66	C	1.569493	0.355009	0.591024
N67	N	1.116558	-0.373728	0.067751
N68	N	1.616558	0.126272	0.567751
N69	N	1.115244	-0.442910	0.067740
N70	N	1.615244	0.057090	0.567740
C71	C	1.063262	-0.473650	0.000049
C72	C	1.563262	0.026350	0.500049
N73	N	1.012655	-0.432595	-0.067646
N74	N	1.512655	0.067405	0.432354
N75	N	1.013973	-0.363406	-0.067638
N76	N	1.513973	0.136594	0.432362
C77	C	1.065935	-0.333195	0.000063
C78	C	1.565935	0.166805	0.500063
C79	C	1.061073	-0.589018	-0.090915
C80	C	1.561073	-0.089018	0.409085
C81	C	1.059673	-0.661846	-0.090919
C82	C	1.559673	-0.161846	0.409081
C83	C	1.059652	-0.661863	0.090991
C84	C	1.559652	-0.161863	0.590991
C85	C	1.061043	-0.589035	0.090992
C86	C	1.561043	-0.089035	0.590992
C87	C	1.061758	-0.552617	0.000037
C88	C	1.561758	-0.052617	0.500037
C89	C	1.229436	0.091642	0.000061
C90	C	1.729436	0.591642	0.500061
C91	C	1.329511	0.093116	0.000061
C92	C	1.829511	0.593116	0.500061
C93	C	1.057500	0.224223	0.000038
C94	C	1.557500	0.724223	0.500038
C95	C	1.058971	0.301733	0.000028
C96	C	1.558971	0.801733	0.500028
N97	N	1.064568	0.096576	0.237493
N98	N	1.564568	0.596576	0.737493
N99	N	1.064619	0.096578	-0.237386
N100	N	1.564619	0.596578	0.262614
C101	C	1.003121	0.143969	0.710106
C102	C	1.503121	0.643969	1.210106
C103	C	1.126106	0.049188	0.710093
C104	C	1.626106	0.549188	1.210093
C105	C	1.126096	0.049186	0.605074
C106	C	1.626096	0.549186	1.105074
C107	C	1.064598	0.096577	0.552567
C108	C	1.564598	0.596577	1.052567
C109	C	1.003111	0.143970	0.605078
C110	C	1.503111	0.643970	1.105078
C111	C	1.187589	0.001798	0.552555
C112	C	1.687589	0.501798	1.052555
C113	C	1.187582	0.001795	0.447531
C114	C	1.687582	0.501795	0.947531
C115	C	1.126079	0.049183	0.395021
C116	C	1.626079	0.549183	0.895021
C117	C	1.064588	0.096577	0.447539
C118	C	1.564588	0.596577	0.947539
C119	C	1.003090	0.143968	0.395032
C120	C	1.503090	0.643968	0.895032
C121	C	0.941594	0.191360	0.447547
C122	C	1.441594	0.691360	0.947547
C123	C	0.941608	0.191358	0.552569
C124	C	1.441608	0.691358	1.052569
C125	C	1.126065	0.049185	0.290000
C126	C	1.626065	0.549185	0.790000
C127	C	1.003080	0.143969	0.290004
C128	C	1.503080	0.643969	0.790004
H129	H	0.479280	0.095329	0.256006
H130	H	0.979280	0.595329	0.756006
C131	C	1.140168	-0.514914	-0.196435
C132	C	1.640168	-0.014914	0.303565
C133	C	1.061874	-0.548994	-0.190898
C134	C	1.561874	-0.048994	0.309102
H135	H	1.140670	-0.490214	-0.258167
H136	H	1.640670	0.009786	0.241833
H137	H	1.140762	-0.482804	-0.142284
H138	H	1.640762	0.017196	0.357716
H139	H	1.192171	-0.548615	-0.192626
H140	H	1.692171	-0.048615	0.307374
H141	H	1.009871	-0.515292	-0.194700
H142	H	1.509871	-0.015292	0.305300
H143	H	1.061272	-0.581106	-0.245065
H144	H	1.561272	-0.081106	0.254935
H145	H	0.649906	0.097842	-0.255920
H146	H	1.149906	0.597842	0.244080
C147	C	0.886983	0.233441	0.286555
C148	C	1.386983	0.733441	0.786555
C149	C	0.873997	0.243451	0.389824
C150	C	1.373997	0.743451	0.889824
H151	H	0.845249	0.265597	0.250918
H152	H	1.345249	0.765597	0.750918
H153	H	0.947110	0.241113	0.269345
H154	H	1.447110	0.741113	0.769345
H155	H	0.877383	0.186826	0.269364
H156	H	1.377383	0.686826	0.769364
H157	H	0.883604	0.290065	0.407016
H158	H	1.383604	0.790065	0.907016
H159	H	0.813856	0.235785	0.407041
H160	H	1.313856	0.735785	0.907041
H161	H	1.176180	0.010607	0.752847
H162	H	1.676180	0.510607	1.252847
C163	C	1.207524	-0.093190	0.670673
C164	C	1.707524	0.406810	1.170673
C165	C	1.255177	-0.050291	0.610280
C166	C	1.755177	0.449709	1.110280
H167	H	1.249251	-0.125352	0.706310
H168	H	1.749251	0.374648	1.206310
H169	H	1.170908	-0.064963	0.716964
H170	H	1.670908	0.435037	1.216964
H171	H	1.170107	-0.118357	0.629697
H172	H	1.670107	0.381643	1.129697
H173	H	1.292589	-0.025120	0.651257
H174	H	1.792589	0.474880	1.151257
H175	H	1.291809	-0.078522	0.563983
H176	H	1.791809	0.421478	1.063983
C177	C	0.820026	0.285040	0.542033
C178	C	1.320026	0.785040	1.042033
C179	C	0.874015	0.243447	0.610294
C180	C	1.374015	0.743447	1.110294
H181	H	0.778294	0.317193	0.577675
H182	H	1.278294	0.817193	1.077675
H183	H	0.857440	0.310212	0.501061
H184	H	1.357440	0.810212	1.001061
H185	H	0.787717	0.255922	0.501080
H186	H	1.287717	0.755922	1.001080
H187	H	0.906329	0.272564	0.651243
H188	H	1.406329	0.772564	1.151243
H189	H	0.836595	0.218273	0.651284
H190	H	1.336595	0.718273	1.151284
H191	H	1.070039	-0.115354	0.165088
H192	H	1.570039	0.384646	0.665088
C193	C	0.992437	-0.114856	-0.245903
C194	C	1.492437	0.385144	0.254097
C195	C	1.070266	-0.104981	-0.190893
C196	C	1.570266	0.395019	0.309107
H197	H	0.992875	-0.090173	-0.307655
H198	H	1.492875	0.409827	0.192345
H199	H	0.991536	-0.163443	-0.258853
H200	H	1.491536	0.336557	0.241147
H201	H	0.940117	-0.097635	-0.208514
H202	H	1.440117	0.402365	0.291486
H203	H	1.122586	-0.122207	-0.228279
H204	H	1.622586	0.377793	0.271721
H205	H	1.071175	-0.056384	-0.177946
H206	H	1.571175	0.443616	0.322054
C207	C	1.309146	-0.091899	0.458078
C208	C	1.809146	0.408101	0.958078
C209	C	1.255168	-0.050302	0.389811
C210	C	1.755168	0.449698	0.889811
H211	H	1.350864	-0.124065	0.422441
H212	H	1.850864	0.375935	0.922441
H213	H	1.341462	-0.062789	0.499020
H214	H	1.841462	0.437211	0.999020
H215	H	1.271716	-0.117062	0.499060
H216	H	1.771716	0.382938	0.999060
H217	H	1.292597	-0.025136	0.348833
H218	H	1.792597	0.474864	0.848833
H219	H	1.222849	-0.079416	0.348851
H220	H	1.722849	0.420584	0.848851
H221	H	0.479298	0.095319	-0.255907
H222	H	0.979298	0.595319	0.244093
C223	C	0.743200	0.099211	0.270794
C224	C	1.243200	0.599211	0.770794
C225	C	0.804326	0.100111	0.190959
C226	C	1.304326	0.600111	0.690959
H227	H	0.775105	0.099675	0.332512
H228	H	1.275105	0.599675	0.832512
H229	H	0.699494	0.139353	0.267007
H230	H	1.199494	0.639353	0.767007
H231	H	0.713556	0.057986	0.267011
H232	H	1.213556	0.557986	0.767011
H233	H	0.833965	0.141338	0.194737
H234	H	1.333965	0.641338	0.694737
H235	H	0.848048	0.059965	0.194748
H236	H	1.348048	0.559965	0.694748
C237	C	0.848030	0.160888	-0.196461
C238	C	1.348030	0.660888	0.303539
C239	C	0.804341	0.100118	-0.190895
C240	C	1.304341	0.600118	0.309105
H241	H	0.879940	0.161356	-0.258182
H242	H	1.379940	0.661356	0.241818
H243	H	0.804308	0.201020	-0.192690
H244	H	1.304308	0.701020	0.307310
H245	H	0.889483	0.161493	-0.142292
H246	H	1.389483	0.661493	0.357708
H247	H	0.762883	0.099515	-0.245061
H248	H	1.262883	0.599515	0.254939
H249	H	0.848068	0.059975	-0.194676
H250	H	1.348068	0.559975	0.305324
H251	H	0.953049	0.182553	0.752867
H252	H	1.453049	0.682553	1.252867
C253	C	0.989110	-0.291929	-0.196400
C254	C	1.489110	0.208071	0.303600
C255	C	1.067390	-0.257834	-0.190855
C256	C	1.567390	0.242166	0.309145
H257	H	0.988645	-0.316642	-0.258116
H258	H	1.488645	0.183358	0.241884
H259	H	0.988498	-0.324029	-0.142228
H260	H	1.488498	0.175971	0.357772
H261	H	0.937097	-0.258235	-0.192634
H262	H	1.437097	0.241765	0.307366
H263	H	1.119403	-0.291529	-0.194614
H264	H	1.619403	0.208471	0.305386
H265	H	1.068010	-0.225731	-0.245042
H266	H	1.568010	0.274269	0.254958
C267	C	0.281153	0.032280	0.196547
C268	C	0.781153	0.532280	0.696547
C269	C	0.324848	0.093047	0.190983
C270	C	0.824848	0.593047	0.690983
H271	H	0.249250	0.031810	0.258272
H272	H	0.749250	0.531810	0.758272
H273	H	0.239702	0.031677	0.142387
H274	H	0.739702	0.531677	0.642387
H275	H	0.324879	-0.007858	0.192770
H276	H	0.824879	0.492142	0.692770
H277	H	0.281122	0.133186	0.194752
H278	H	0.781122	0.633186	0.694752
H279	H	0.366303	0.093657	0.245157
H280	H	0.866303	0.593657	0.745157
H281	H	1.067535	-0.247481	0.165068
H282	H	1.567535	0.252519	0.665068
H283	H	0.338248	0.093241	-0.164948
H284	H	0.838248	0.593241	0.335052
H285	H	1.176138	0.010603	0.247246
H286	H	1.676138	0.510603	0.747246
H287	H	1.059119	-0.691481	-0.164983
H288	H	1.559119	-0.191481	0.335017
C289	C	1.057484	-0.773501	0.171754
C290	C	1.557484	-0.273501	0.671754
C291	C	1.058855	-0.701892	0.190962
C292	C	1.558855	-0.201892	0.690962
H293	H	1.056987	-0.798213	0.233476
H294	H	1.556987	-0.298213	0.733476
H295	H	1.004712	-0.780146	0.134368
H296	H	1.504712	-0.280146	0.634368
H297	H	1.109833	-0.790710	0.134405
H298	H	1.609833	-0.290710	0.634405
H299	H	1.006502	-0.684682	0.228305
H300	H	1.506502	-0.184682	0.728305
H301	H	1.111633	-0.695242	0.228365
H302	H	1.611633	-0.195242	0.728365
H303	H	1.061600	-0.559399	0.165053
H304	H	1.561600	-0.059399	0.665053
H305	H	0.649870	0.097840	0.256018
H306	H	1.149870	0.597840	0.756018
H307	H	0.952997	0.182558	0.247259
H308	H	1.452997	0.682558	0.747259
