data_functionalizedCrystal
_audit_creation_method	'MofGen! by Chris Wilmer'
_symmetry_space_group_name_H-M	'P1'
_symmetry_Int_Tables_number	1
_symmetry_cell_setting	triclinic
loop_
_symmetry_equiv_pos_as_xyz
  x,y,z
_cell_length_a	10.686220
_cell_length_b	12.759400
_cell_length_c	10.686551
_cell_angle_alpha	85.594162
_cell_angle_beta	90.308082
_cell_angle_gamma	94.396325
loop_
_atom_site_label
_atom_site_type_symbol
_atom_site_fract_x
_atom_site_fract_y
_atom_site_fract_z
Zn1	Zn	1.972289	-0.256138	-0.562385
Zn2	Zn	1.956061	-0.446298	-0.352626
Zn3	Zn	1.746408	-0.283014	-0.368703
Zn4	Zn	1.762491	-0.444169	-0.578404
O5	O	1.859312	-0.357405	-0.465529
O6	O	2.145678	-0.271007	-0.521128
O7	O	1.914727	-0.436777	-0.179213
O8	O	1.776432	-0.132422	-0.394419
O9	O	2.133755	-0.410716	-0.367019
O10	O	1.942386	-0.112677	-0.536717
O11	O	1.760696	-0.316813	-0.191024
O12	O	1.572999	-0.314748	-0.409952
O13	O	1.803844	-0.407088	-0.751824
O14	O	1.584816	-0.433148	-0.564018
O15	O	1.957981	-0.268942	-0.740056
O16	O	1.930323	-0.593042	-0.382552
O17	O	1.788108	-0.591478	-0.548429
C18	C	1.533391	-0.376634	-0.490468
C19	C	1.393964	-0.384884	-0.501167
C20	C	1.859236	-0.630378	-0.465509
C21	C	1.859321	-0.747148	-0.465533
C22	C	1.933468	-0.802778	-0.379243
C23	C	1.933548	-0.912495	-0.379275
C24	C	1.785323	-0.910942	-0.551894
C25	C	1.785251	-0.801226	-0.551866
C26	C	2.007538	-0.748700	-0.292910
C27	C	2.081690	-0.804330	-0.206611
C28	C	2.081770	-0.914047	-0.206644
C29	C	2.007698	-0.968133	-0.292976
C30	C	2.186505	-0.338101	-0.440494
C31	C	2.325936	-0.329875	-0.429825
C32	C	1.884517	-0.334779	-0.792730
C33	C	1.895257	-0.325138	-0.932163
C34	C	1.859425	-0.083361	-0.465575
C35	C	1.859473	0.033420	-0.465594
C36	C	1.834278	-0.379862	-0.139596
C37	C	1.823780	-0.389193	-0.000145
H38	H	2.007477	-0.659363	-0.292870
O39	O	1.978002	-0.250773	-0.989845
C40	C	2.041990	-0.065699	-1.025603
C41	C	1.948219	-0.149808	-0.960185
H42	H	2.017928	0.015951	-1.001668
H43	H	2.141194	-0.079850	-0.992140
H44	H	2.036216	-0.070937	-1.131519
H45	H	1.953879	-0.144619	-0.854261
H46	H	1.849055	-0.135630	-0.993750
H47	H	1.725016	-0.954988	-0.622180
H48	H	1.374361	-0.276469	-0.360559
H49	H	1.345532	-0.438301	-0.570429
H50	H	1.724875	-0.755932	-0.622133
O51	O	2.153528	-0.751638	-0.122806
C52	C	2.219158	-0.583298	-0.046301
C53	C	2.137718	-0.642840	-0.141260
H54	H	2.206425	-0.495322	-0.061205
H55	H	2.189428	-0.613140	0.053211
H56	H	2.321995	-0.597354	-0.060665
H57	H	2.034861	-0.628811	-0.127010
H58	H	2.167555	-0.612988	-0.240737
O59	O	2.153832	-0.967931	-0.122702
C60	C	2.300895	-0.957879	0.048470
C61	C	2.219325	-0.896731	-0.046514
H62	H	2.353887	-0.900338	0.110075
H63	H	2.238386	-1.017220	0.109779
H64	H	2.370869	-1.001351	-0.004195
H65	H	2.149340	-0.853197	0.006048
H66	H	2.281912	-0.837452	-0.107821
O67	O	1.741113	-0.463562	-0.942374
C68	C	1.677048	-0.648629	-0.906725
C69	C	1.770766	-0.564515	-0.972211
H70	H	1.700973	-0.730267	-0.930845
H71	H	1.682858	-0.643533	-0.800787
H72	H	1.577864	-0.634344	-0.940134
H73	H	1.869992	-0.578745	-0.938904
H74	H	1.764846	-0.569633	-1.078139
O75	O	2.008010	-1.074698	-0.293002
C76	C	2.130835	-1.222706	-0.316255
C77	C	2.130669	-1.102014	-0.316233
H78	H	2.229989	-1.244827	-0.335061
H79	H	2.097502	-1.260856	-0.221073
H80	H	2.065101	-1.251782	-0.392742
H81	H	2.196409	-1.072844	-0.239807
H82	H	2.163950	-1.063936	-0.411463
