data_functionalizedCrystal
_audit_creation_method	'MofGen! by Chris Wilmer'
_symmetry_space_group_name_H-M	'P1'
_symmetry_Int_Tables_number	1
_symmetry_cell_setting	triclinic
loop_
_symmetry_equiv_pos_as_xyz
  x,y,z
_cell_length_a	10.686220
_cell_length_b	12.645330
_cell_length_c	10.686551
_cell_angle_alpha	94.406611
_cell_angle_beta	89.691918
_cell_angle_gamma	94.394340
loop_
_atom_site_label
_atom_site_type_symbol
_atom_site_fract_x
_atom_site_fract_y
_atom_site_fract_z
Zn1	Zn	1.972300	-0.258448	0.562381
Zn2	Zn	1.956079	-0.450323	0.352619
Zn3	Zn	1.746419	-0.285567	0.368698
Zn4	Zn	1.762509	-0.448175	0.578396
O5	O	1.859327	-0.360628	0.465524
O6	O	2.145689	-0.273451	0.521124
O7	O	1.914746	-0.440716	0.179206
O8	O	1.776437	-0.133617	0.394417
O9	O	2.133772	-0.414421	0.367012
O10	O	1.942391	-0.113693	0.536715
O11	O	1.760709	-0.319670	0.191019
O12	O	1.573012	-0.317587	0.409947
O13	O	1.803860	-0.410759	0.751818
O14	O	1.584834	-0.437055	0.564011
O15	O	1.957992	-0.271368	0.740051
O16	O	1.930347	-0.598391	0.382542
O17	O	1.788132	-0.596812	0.548420
C18	C	1.533407	-0.380031	0.490462
C19	C	1.393979	-0.388355	0.501161
C20	C	1.859262	-0.636064	0.465499
C21	C	1.859352	-0.753887	0.465521
C22	C	1.948649	-0.922422	0.360983
C23	C	1.948982	-0.799827	0.361196
C24	C	1.905354	-0.786941	0.595009
C25	C	1.906083	-0.909530	0.594435
C26	C	1.724115	-0.931468	0.441878
C27	C	1.724523	-0.809031	0.438864
C28	C	2.186519	-0.341150	0.440488
C29	C	2.325949	-0.332850	0.429820
C30	C	1.884531	-0.337799	0.792724
C31	C	1.895271	-0.328070	0.932158
C32	C	1.859429	-0.084113	0.465573
C33	C	1.859472	0.033721	0.465595
C34	C	1.834293	-0.383288	0.139590
C35	C	1.823796	-0.392704	0.000139
H36	H	1.374372	-0.278963	0.360555
O37	O	1.909327	-0.770866	0.233591
H38	H	1.889741	-0.844501	0.171171
H39	H	1.918949	-0.960130	0.264343
O40	O	1.329848	-0.459745	0.592920
H41	H	1.226727	-0.455300	0.587214
H42	H	1.964690	-0.265292	0.980632
O43	O	2.080460	-0.953343	0.380414
H44	H	2.082736	-0.999809	0.464257
H45	H	2.003537	-0.748408	0.616842
H46	H	2.049030	-0.763002	0.376077
H47	H	1.653672	-0.778379	0.510288
O48	O	1.824531	-0.947259	0.700485
H49	H	1.784755	-0.877946	0.751959
O50	O	2.037537	-0.937011	0.622593
H51	H	2.099991	-0.862791	0.636485
O52	O	1.822539	-0.746870	0.700458
H53	H	1.747537	-0.702860	0.661600
H54	H	1.690020	-0.788409	0.343621
O55	O	1.671292	-0.983817	0.319676
H56	H	1.740934	-1.035238	0.274477
O57	O	1.635855	-0.969285	0.542782
H58	H	1.688067	-1.012639	0.609533
H59	H	1.754390	-0.455484	0.951670
