data_functionalizedCrystal
_audit_creation_method	'MofGen! by Chris Wilmer'
_symmetry_space_group_name_H-M	'P1'
_symmetry_Int_Tables_number	1
_symmetry_cell_setting	triclinic
loop_
_symmetry_equiv_pos_as_xyz
  x,y,z
_cell_length_a	19.121112
_cell_length_b	29.839131
_cell_length_c	19.120904
_cell_angle_alpha	92.409150
_cell_angle_beta	90.088845
_cell_angle_gamma	87.595571
loop_
_atom_site_label
_atom_site_type_symbol
_atom_site_fract_x
_atom_site_fract_y
_atom_site_fract_z
Zn1	Zn	1.054748	-0.219753	-0.442024
Zn2	Zn	1.059636	-0.291815	-0.324779
Zn3	Zn	0.942520	-0.213363	-0.319810
Zn4	Zn	0.937447	-0.291513	-0.436983
O5	O	0.998588	-0.254111	-0.380899
O6	O	1.153501	-0.232113	-0.430661
O7	O	1.048269	-0.278861	-0.226015
O8	O	0.957484	-0.151347	-0.336052
O9	O	1.157092	-0.285057	-0.344521
O10	O	1.039938	-0.156041	-0.425842
O11	O	0.962224	-0.221222	-0.222364
O12	O	0.843743	-0.220930	-0.331164
O13	O	0.948839	-0.284542	-0.535756
O14	O	0.840016	-0.278346	-0.417250
O15	O	1.035020	-0.231820	-0.539460
O16	O	1.043350	-0.354639	-0.339633
O17	O	0.953579	-0.354418	-0.422068
C18	C	0.816442	-0.248912	-0.373121
C19	C	0.738519	-0.246699	-0.369810
C20	C	0.297896	-0.232660	-0.348841
C21	C	0.371113	-0.234742	-0.351956
C22	C	0.405800	-0.265722	-0.398261
C23	C	0.367267	-0.294619	-0.441459
C24	C	0.294051	-0.292534	-0.438348
C25	C	0.626769	-0.273511	-0.409897
C26	C	0.699990	-0.275595	-0.413004
C27	C	0.703832	-0.215717	-0.323501
C28	C	0.630614	-0.213637	-0.320391
C29	C	0.592087	-0.242532	-0.363592
C30	C	0.480640	-0.267852	-0.401444
C31	C	0.517248	-0.240400	-0.360412
C32	C	0.998463	-0.370829	-0.380859
C33	C	0.998472	-0.420764	-0.380868
C34	C	1.045410	-0.730519	-0.338044
C35	C	1.045496	-0.918195	-0.338075
O36	O	1.085305	-0.942550	-0.301633
N37	N	0.998731	-0.941559	-0.380958
C38	C	0.951945	-0.918001	-0.423840
O39	O	0.912175	-0.942180	-0.460321
C40	C	0.951863	-0.730326	-0.423812
C41	C	0.998626	-0.706964	-0.380921
C42	C	1.092170	-0.707157	-0.295156
C43	C	1.092146	-0.660240	-0.295146
C44	C	1.045362	-0.636686	-0.338023
C45	C	0.998602	-0.660048	-0.380911
C46	C	0.905081	-0.706769	-0.466698
C47	C	0.905066	-0.659848	-0.466688
C48	C	0.951829	-0.636486	-0.423797
C49	C	0.951793	-0.589577	-0.423778
N50	N	0.998558	-0.566213	-0.380895
C51	C	1.045342	-0.589767	-0.338017
C52	C	0.951990	-1.016533	-0.423851
C53	C	0.952009	-1.063452	-0.423857
C54	C	1.045561	-1.063642	-0.338092
C55	C	1.045538	-1.016723	-0.338083
C56	C	0.998755	-0.993169	-0.380967
C57	C	1.045287	-0.491239	-0.337999
C58	C	1.045257	-0.444319	-0.337990
C59	C	0.951707	-0.444133	-0.423758
C60	C	0.951735	-0.491049	-0.423764
C61	C	0.998531	-0.514601	-0.380882
O62	O	0.912010	-0.565193	-0.460206
O63	O	1.085116	-0.565581	-0.301553
C64	C	1.045435	-0.777435	-0.338054
C65	C	0.998675	-0.800797	-0.380941
C66	C	0.951891	-0.777242	-0.423818
C67	C	0.998694	-0.847715	-0.380947
C68	C	1.045479	-0.871270	-0.338070
C69	C	1.092243	-0.847906	-0.295187
C70	C	1.092219	-0.800989	-0.295176
C71	C	0.905126	-0.800607	-0.466702
C72	C	0.905154	-0.847523	-0.466708
C73	C	0.951938	-0.871077	-0.423831
C74	C	1.181445	-0.259331	-0.388707
C75	C	1.259367	-0.261556	-0.392035
C76	C	0.990818	-0.258860	-0.563757
C77	C	0.987508	-0.260884	-0.641680
C78	C	0.998732	-0.136938	-0.380955
C79	C	0.998793	-0.087006	-0.380979
C80	C	1.030819	-0.234386	-0.680218
C81	C	1.027700	-0.236286	-0.753434
C82	C	0.981272	-0.264685	-0.788112
C83	C	0.937955	-0.291184	-0.749569
C84	C	0.941072	-0.289282	-0.676353
C85	C	0.969614	-0.271800	-1.009079
C86	C	0.966502	-0.273701	-1.082299
C87	C	1.056246	-0.218802	-1.086160
C88	C	1.059362	-0.216904	-1.012943
C89	C	1.016043	-0.243401	-0.974406
C90	C	0.978084	-0.266629	-0.862951
C91	C	1.019228	-0.241455	-0.899568
C92	C	1.006367	-0.249350	-0.198754
C93	C	1.009814	-0.247203	-0.120837
H94	H	0.395515	-0.319842	-0.479165
F95	F	0.917082	-0.303927	-1.119204
F96	F	0.260986	-0.199689	-0.299553
H97	H	1.057026	-0.218330	-0.871330
F98	F	0.480330	-0.207428	-0.311135
H99	H	0.934351	-0.293382	-0.977711
F100	F	0.253046	-0.323288	-0.484323
F101	F	0.894972	-0.317483	-0.635339
H102	H	0.867029	-0.781432	-0.501619
H103	H	0.508891	-0.293077	-0.439144
F104	F	0.736906	-0.308570	-0.462290
F105	F	0.593703	-0.180662	-0.271110
F106	F	1.095030	-0.419458	-0.292337
F107	F	1.080238	-0.204162	-0.643318
F108	F	0.585774	-0.304266	-0.455873
F109	F	1.141926	-0.635383	-0.249503
H110	H	0.402480	-0.211214	-0.316780
F111	F	1.073822	-0.208100	-0.794447
F112	F	1.095092	-0.516299	-0.292359
H113	H	1.130271	-0.726330	-0.260240
F114	F	1.108777	-0.186678	-0.976042
H115	H	0.913658	-0.510071	-0.458692
H116	H	0.900150	-0.314306	-0.777809
H117	H	1.091513	-0.197229	-1.117544
F118	F	1.095310	-0.991863	-0.292433
H119	H	0.940285	-0.289754	-0.891194
F120	F	1.095351	-1.088718	-0.292457
F121	F	0.744840	-0.184966	-0.277529
F122	F	0.902192	-0.991472	-0.469497
F123	F	0.902230	-1.088310	-0.469499
F124	F	0.855314	-0.731623	-0.512356
H125	H	0.866969	-0.640673	-0.501612
F126	F	1.141993	-0.776132	-0.249527
F127	F	0.901920	-0.419056	-0.469390
F128	F	1.142033	-0.872982	-0.249551
F129	F	0.855376	-0.872381	-0.512360
