data_functionalizedCrystal
_audit_creation_method	'MofGen! by Chris Wilmer'
_symmetry_space_group_name_H-M	'P1'
_symmetry_Int_Tables_number	1
_symmetry_cell_setting	triclinic
loop_
_symmetry_equiv_pos_as_xyz
  x,y,z
_cell_length_a	16.625539
_cell_length_b	16.959455
_cell_length_c	16.959454
_cell_angle_alpha	89.981743
_cell_angle_beta	89.975083
_cell_angle_gamma	90.024184
loop_
_atom_site_label
_atom_site_type_symbol
_atom_site_fract_x
_atom_site_fract_y
_atom_site_fract_z
Zn1	Zn	-0.456006	-1.208424	-0.314718
Zn2	Zn	-0.321181	-1.208335	-0.446907
Zn3	Zn	-0.321178	-1.076240	-0.314742
Zn4	Zn	-0.455963	-1.076217	-0.446855
O5	O	-0.388582	-1.142304	-0.380805
O6	O	-0.438141	-1.319023	-0.332265
O7	O	-0.208348	-1.190784	-0.429406
O8	O	-0.339080	-1.093822	-0.204128
O9	O	-0.339086	-1.318957	-0.429384
O10	O	-0.438138	-1.190937	-0.204111
O11	O	-0.208346	-1.093735	-0.332305
O12	O	-0.339038	-0.965627	-0.332255
O13	O	-0.568801	-1.093782	-0.429295
O14	O	-0.438064	-0.965609	-0.429318
O15	O	-0.568833	-1.190914	-0.332215
O16	O	-0.339043	-1.190762	-0.557511
O17	O	-0.438067	-1.093695	-0.557472
C18	C	-0.388546	-0.936938	-0.380784
C19	C	-0.388550	-0.849081	-0.380794
C20	C	-0.337073	-0.807793	-0.330185
C21	C	-0.440036	-0.807816	-0.431407
C22	C	-0.440044	-0.725270	-0.431415
C23	C	-0.388567	-0.683982	-0.380806
C24	C	-0.337081	-0.725239	-0.330190
C25	C	-0.491535	-0.684007	-0.482025
C26	C	-0.491546	-0.601456	-0.482035
C27	C	-0.440064	-0.560166	-0.431429
C28	C	-0.388576	-0.601428	-0.380811
C29	C	-0.337098	-0.560140	-0.330202
C30	C	-0.285605	-0.601401	-0.279588
C31	C	-0.285600	-0.683949	-0.279584
C32	C	-0.440070	-0.477617	-0.431433
C33	C	-0.337107	-0.477586	-0.330207
C34	C	-0.598891	-1.142355	-0.380747
C35	C	-0.688512	-1.142377	-0.380721
C36	C	-1.016688	-1.142414	-0.380633
C37	C	-0.925380	-1.142401	-0.380660
C38	C	-0.852603	-1.142396	-0.380678
C39	C	-0.761289	-1.142383	-0.380704
C40	C	-0.179091	-1.142298	-0.380807
C41	C	-0.089471	-1.142430	-0.380609
C42	C	-0.388568	-1.142238	-0.586172
C43	C	-0.388589	-1.142282	-0.674028
C44	C	-0.388608	-0.348472	-0.380824
C45	C	-0.388593	-0.436329	-0.380824
C46	C	-0.440138	-1.091835	-1.045514
C47	C	-0.337108	-1.192993	-1.045494
C48	C	-0.337101	-1.192966	-0.962948
C49	C	-0.388612	-1.142371	-0.921681
C50	C	-0.440130	-1.091804	-0.962960
C51	C	-0.285578	-1.243526	-0.921663
C52	C	-0.285567	-1.243500	-0.839112
C53	C	-0.337083	-1.192909	-0.797843
C54	C	-0.388604	-1.142340	-0.839128
C55	C	-0.440115	-1.091746	-0.797861
C56	C	-0.491641	-1.041181	-0.839144
C57	C	-0.491646	-1.041213	-0.921692
C58	C	-0.337078	-1.192876	-0.715295
C59	C	-0.440108	-1.091715	-0.715307
C60	C	-0.388613	-1.142392	-0.174637
C61	C	-0.388627	-1.142430	-0.086781
H62	H	-0.533473	-0.567868	-0.523249
H63	H	-0.482091	-1.050668	-1.079130
F64	F	-0.282289	-1.246836	-1.089415
H65	H	-0.533578	-0.999983	-0.805535
H66	H	-0.481950	-0.841438	-0.472607
H67	H	-0.243634	-1.284711	-0.955268
H68	H	-0.243613	-1.284673	-0.805504
H69	H	-0.295186	-0.443975	-0.288996
F70	F	-0.230827	-0.557449	-0.225723
H71	H	-0.533447	-0.717630	-0.523226
F72	F	-0.546478	-0.987402	-0.965633
F73	F	-0.282237	-1.246680	-0.671363
H74	H	-0.482000	-0.444026	-0.472637
H75	H	-0.243677	-0.717551	-0.238376
H76	H	-0.295146	-0.841391	-0.288978
F77	F	-0.494938	-1.037868	-0.671395
