data_functionalizedCrystal
_audit_creation_method	'MofGen! by Chris Wilmer'
_symmetry_space_group_name_H-M	'P1'
_symmetry_Int_Tables_number	1
_symmetry_cell_setting	triclinic
loop_
_symmetry_equiv_pos_as_xyz
  x,y,z
_cell_length_a	15.186229
_cell_length_b	16.109301
_cell_length_c	16.109301
_cell_angle_alpha	96.538519
_cell_angle_beta	89.994299
_cell_angle_gamma	90.001245
loop_
_atom_site_label
_atom_site_type_symbol
_atom_site_fract_x
_atom_site_fract_y
_atom_site_fract_z
O1	O	-0.073176	-1.103131	0.106867
O2	O	-0.073190	-0.861069	0.120166
O3	O	-0.073174	-0.988750	-0.007515
O4	O	-0.073192	-0.975451	0.234547
O5	O	0.073284	-0.988740	-0.007518
O6	O	0.073267	-0.861059	0.120163
O7	O	0.073282	-1.103121	0.106864
Zn8	Zn	0.096528	-0.982089	0.113513
Zn9	Zn	-0.096436	-0.982102	0.113517
O10	O	0.073265	-0.975441	0.234544
C11	C	0.000037	-0.830090	0.119626
C12	C	0.000032	-0.737794	0.118011
N13	N	0.228220	-0.982086	0.113510
C14	C	0.000056	-0.988206	-0.038491
C15	C	0.000057	-0.986591	-0.130786
N16	N	-0.228129	-0.982111	0.113513
C17	C	0.546146	-1.038646	0.056992
C18	C	0.453956	-1.038644	0.056992
C19	C	0.453952	-0.925549	0.170038
C20	C	0.546140	-0.925556	0.170041
C21	C	0.592235	-0.982103	0.113513
C22	C	0.407857	-0.982094	0.113510
C23	C	0.307901	-0.982091	0.113511
C24	C	0.692197	-0.982107	0.113513
C25	C	0.000053	-1.134101	0.107404
C26	C	0.000052	-1.226397	0.109019
C27	C	0.000036	-0.515522	0.190018
C28	C	0.000042	-0.428801	0.188494
C29	C	0.000050	-0.448676	0.037006
C30	C	0.000051	-0.535394	0.038530
C31	C	0.000039	-0.568815	0.115039
C32	C	0.000045	-0.395376	0.111990
C33	C	0.000051	-0.301350	0.110337
C34	C	0.000035	-0.662847	0.116693
C35	C	0.000047	-1.058599	-0.353059
C36	C	0.000040	-1.057075	-0.439779
C37	C	0.000034	-0.905586	-0.419905
C38	C	0.000035	-0.907111	-0.333186
C39	C	0.000046	-0.983620	-0.299766
C40	C	0.000038	-0.980571	-0.473205
C41	C	0.000030	-0.978918	-0.567231
C42	C	0.000052	-0.985273	-0.205734
C43	C	0.000034	-0.975984	0.265521
C44	C	0.000027	-0.977600	0.357816
H45	H	0.583674	-1.084692	0.010964
C46	C	0.403239	-0.863343	0.232208
N47	N	0.365043	-0.816486	0.279034
C48	C	0.000030	-0.824624	-0.274560
N49	N	0.000023	-0.762497	-0.230402
H50	H	0.000065	-0.421454	-0.025285
H51	H	0.000027	-0.843295	-0.447127
C52	C	0.403263	-1.100842	-0.005189
N53	N	0.365082	-1.147693	-0.052027
H54	H	0.000056	-0.578788	-0.022530
H55	H	0.583668	-0.879511	0.216071
H56	H	0.000039	-1.118130	-0.483168
H57	H	0.000034	-0.542730	0.252317
H58	H	0.000041	-0.385413	0.249550
C59	C	0.000049	-1.142761	-0.316300
N60	N	0.000047	-1.206154	-0.288615
