data_functionalizedCrystal
_audit_creation_method	'MofGen! by Chris Wilmer'
_symmetry_space_group_name_H-M	'P1'
_symmetry_Int_Tables_number	1
_symmetry_cell_setting	triclinic
loop_
_symmetry_equiv_pos_as_xyz
  x,y,z
_cell_length_a	6.817900
_cell_length_b	19.452420
_cell_length_c	19.453114
_cell_angle_alpha	96.328802
_cell_angle_beta	101.709288
_cell_angle_gamma	101.696715
loop_
_atom_site_label
_atom_site_type_symbol
_atom_site_fract_x
_atom_site_fract_y
_atom_site_fract_z
V1	V	-3.997947	-0.097915	-0.219345
O2	O	-3.995100	0.003953	-0.214816
O3	O	-3.940917	-0.193426	-0.218185
O4	O	-3.940968	-0.096739	-0.314854
O5	O	-3.995048	-0.093403	-0.117478
V6	V	-4.483804	-0.085692	-0.207120
O7	O	-4.254084	-0.124729	-0.246163
O8	O	-4.677865	-0.058878	-0.180302
O9	O	-4.317628	0.009819	-0.208280
O10	O	-4.604048	-0.187560	-0.211649
O11	O	-4.604099	-0.090204	-0.308987
O12	O	-4.317576	-0.086868	-0.111611
C13	C	-3.784096	-0.216699	-0.214813
C14	C	-3.818697	-0.294782	-0.214501
C15	C	-3.801490	-0.321196	-0.149986
C16	C	-3.834075	-0.394562	-0.149672
C17	C	-3.883827	-0.441511	-0.213874
C18	C	-3.901045	-0.415090	-0.278397
C19	C	-3.868480	-0.341726	-0.278711
N20	N	-3.846563	-0.562110	-0.259091
N21	N	-3.877492	-0.631802	-0.258789
C22	C	-3.981949	-0.662553	-0.212935
N23	N	-4.054279	-0.620977	-0.167383
N24	N	-4.023337	-0.551278	-0.167682
C25	C	-3.919143	-0.521063	-0.213542
C26	C	-4.000075	-0.768518	-0.148075
C27	C	-4.032674	-0.841885	-0.147764
C28	C	-4.099624	-0.862412	-0.276491
C29	C	-4.067045	-0.789046	-0.276801
C30	C	-4.017262	-0.742102	-0.212591
C31	C	-3.784160	-0.093365	-0.338123
C32	C	-3.818800	-0.093035	-0.416204
C33	C	-4.016538	-0.096406	-0.456473
C34	C	-4.049086	-0.096097	-0.529838
C35	C	-3.883893	-0.092431	-0.562934
C36	C	-3.686126	-0.089055	-0.522655
C37	C	-3.653579	-0.089358	-0.449290
N38	N	-3.820798	-0.129525	-0.681855
N39	N	-3.851729	-0.129240	-0.751549
C40	C	-3.981942	-0.091517	-0.783979
N41	N	-4.080090	-0.054101	-0.744084
N42	N	-4.049164	-0.054390	-0.674384
C43	C	-3.919164	-0.092102	-0.642486
C44	C	-4.214984	-0.094552	-0.903800
C45	C	-4.247523	-0.094238	-0.977166
C46	C	-3.884560	-0.087203	-0.969983
C47	C	-3.852023	-0.087510	-0.896617
C48	C	-4.017244	-0.091188	-0.863531
C49	C	-4.137790	0.033088	-0.211650
C50	C	-4.082427	0.111171	-0.211967
C51	C	-4.137726	-0.090245	-0.088339
C52	C	-4.082325	-0.090570	-0.010257
H53	H	-3.820059	-0.416072	-0.097135
C54	C	-4.399963	-0.162729	-0.568236
C55	C	-4.266458	-0.099821	-0.574124
H56	H	-4.534153	-0.165033	-0.595581
H57	H	-4.404245	-0.163424	-0.519813
H58	H	-4.352044	-0.202393	-0.585332
H59	H	-4.314369	-0.060156	-0.557023
H60	H	-4.262183	-0.099120	-0.622557
C61	C	-4.598433	-0.160843	-1.015550
C62	C	-4.464894	-0.097941	-1.021433
H63	H	-4.732626	-0.163129	-1.042882
H64	H	-4.602687	-0.161547	-0.967126
H65	H	-4.550565	-0.200512	-1.032664
H66	H	-4.512754	-0.058271	-1.004314
H67	H	-4.460647	-0.097231	-1.069867
C68	C	-3.920398	-0.646938	-0.091396
C69	C	-3.945373	-0.716912	-0.077499
H70	H	-3.886616	-0.615082	-0.047825
H71	H	-4.044890	-0.641416	-0.120139
H72	H	-3.812722	-0.636859	-0.115642
H73	H	-4.053060	-0.726992	-0.053258
H74	H	-3.820866	-0.722437	-0.048745
H75	H	-3.750053	-0.084212	-0.996928
C76	C	-3.937926	-0.369386	-0.405919
C77	C	-3.887373	-0.312688	-0.349630
H78	H	-3.949572	-0.351456	-0.449700
H79	H	-4.065319	-0.399852	-0.405372
H80	H	-3.833146	-0.395294	-0.400864
H81	H	-3.992161	-0.286782	-0.354682
H82	H	-3.759963	-0.282209	-0.350178
C83	C	-3.636495	-0.144534	-0.819674
C84	C	-3.634664	-0.083860	-0.852377
H85	H	-3.502300	-0.142288	-0.792367
H86	H	-3.678235	-0.185714	-0.855019
H87	H	-3.730173	-0.146739	-0.789447
H88	H	-3.540997	-0.081657	-0.882608
H89	H	-3.592897	-0.042668	-0.817027
H90	H	-4.140134	-0.900637	-0.328766
H91	H	-4.151076	-0.099398	-0.429538
C92	C	-3.905510	-0.284483	-0.043677
C93	C	-3.746787	-0.269599	-0.079407
H94	H	-3.871739	-0.252625	-0.000106
H95	H	-3.922428	-0.331952	-0.034262
H96	H	-4.030004	-0.278955	-0.072427
H97	H	-3.622295	-0.275133	-0.050659
H98	H	-3.729845	-0.222118	-0.088819
C99	C	-3.963171	-0.814221	-0.020555
C100	C	-4.013755	-0.870921	-0.076843
H101	H	-3.951479	-0.832149	0.023228
H102	H	-4.067936	-0.788315	-0.025599
H103	H	-3.835770	-0.783752	-0.021114
H104	H	-4.141164	-0.901387	-0.076287
H105	H	-3.908983	-0.896838	-0.071797
H106	H	-4.349516	-0.097544	-0.876859
C107	C	-3.438011	-0.146353	-0.372326
C108	C	-3.436213	-0.085685	-0.405038
H109	H	-3.303817	-0.144091	-0.345009
H110	H	-3.479699	-0.187536	-0.407667
H111	H	-3.531715	-0.148567	-0.342109
H112	H	-3.342519	-0.083474	-0.435260
H113	H	-3.394498	-0.044490	-0.369693
C114	C	-3.980659	-0.536666	-0.335072
C115	C	-3.955723	-0.466693	-0.348970
H116	H	-4.014410	-0.568522	-0.378643
H117	H	-4.088321	-0.546753	-0.310831
H118	H	-3.856141	-0.542179	-0.306325
H119	H	-4.080247	-0.461179	-0.377714
H120	H	-3.848053	-0.456603	-0.373222
C121	C	-4.136464	-0.816705	-0.404006
C122	C	-4.085923	-0.760007	-0.347717
H123	H	-4.148110	-0.798777	-0.447788
H124	H	-4.263855	-0.847173	-0.403459
H125	H	-4.031679	-0.842612	-0.398948
H126	H	-4.190716	-0.734103	-0.352772
H127	H	-3.958515	-0.729527	-0.348265
H128	H	-3.551625	-0.086068	-0.549606
