data_functionalizedCrystal
_audit_creation_method	'MofGen! by Chris Wilmer'
_symmetry_space_group_name_H-M	'P1'
_symmetry_Int_Tables_number	1
_symmetry_cell_setting	triclinic
loop_
_symmetry_equiv_pos_as_xyz
  x,y,z
_cell_length_a	18.101398
_cell_length_b	18.101395
_cell_length_c	19.076919
_cell_angle_alpha	92.272317
_cell_angle_beta	92.290393
_cell_angle_gamma	90.026661
loop_
_atom_site_label
_atom_site_type_symbol
_atom_site_fract_x
_atom_site_fract_y
_atom_site_fract_z
Zn1	Zn	1.115288	-0.311748	-0.397786
Zn2	Zn	1.120164	-0.430617	-0.280094
Zn3	Zn	0.996426	-0.306785	-0.280123
Zn4	Zn	0.991398	-0.435542	-0.397769
O5	O	1.055819	-0.371173	-0.338943
O6	O	1.219568	-0.327532	-0.382169
O7	O	1.107895	-0.410053	-0.181608
O8	O	1.012257	-0.203812	-0.295751
O9	O	1.223150	-0.414864	-0.295701
O10	O	1.099584	-0.207457	-0.382197
O11	O	1.016985	-0.319074	-0.181630
O12	O	0.892126	-0.323849	-0.295734
O13	O	1.003688	-0.423258	-0.496261
O14	O	0.888432	-0.418446	-0.382168
O15	O	1.094709	-0.332307	-0.496274
O16	O	1.103020	-0.534902	-0.295684
O17	O	1.008416	-0.538520	-0.382140
C18	C	0.863408	-0.371144	-0.338953
C19	C	0.781093	-0.371151	-0.338974
C20	C	1.055721	-0.563583	-0.338922
C21	C	1.055746	-0.645897	-0.338937
C22	C	0.482003	-0.371193	-0.338944
C23	C	0.511041	-0.430976	-0.393058
C24	C	0.596650	-0.430805	-0.393280
C25	C	0.630385	-0.371172	-0.338959
C26	C	0.598473	-0.294027	-0.359226
C27	C	0.512812	-0.294389	-0.359611
C28	C	0.516704	-0.387862	-0.264433
C29	C	0.602337	-0.389590	-0.264831
C30	C	0.714245	-0.371156	-0.338966
C31	C	0.398144	-0.371204	-0.338939
C32	C	1.055907	-0.944990	-0.338975
C33	C	0.996511	-0.915978	-0.393505
C34	C	0.996247	-0.830353	-0.393335
C35	C	1.055827	-0.796607	-0.338957
C36	C	1.037836	-0.824618	-0.264784
C37	C	1.037454	-0.910277	-0.265110
C38	C	1.133445	-0.914143	-0.357964
C39	C	1.132915	-0.828561	-0.359591
C40	C	1.055783	-0.712746	-0.338942
C41	C	1.055949	-1.028850	-0.338985
C42	C	1.248981	-0.371202	-0.338934
C43	C	1.331296	-0.371215	-0.338930
C44	C	1.048094	-0.378885	-0.522519
C45	C	1.044801	-0.382172	-0.600748
C46	C	1.055937	-0.178013	-0.338979
C47	C	1.055988	-0.095699	-0.338995
C48	C	1.090642	-0.336365	-0.637507
C49	C	1.087540	-0.339450	-0.711012
C50	C	1.038600	-0.388347	-0.747755
C51	C	0.992754	-0.434156	-0.710990
C52	C	0.995853	-0.431066	-0.637487
C53	C	1.024246	-0.402661	-0.967585
C54	C	1.021152	-0.405749	-1.041093
C55	C	1.115937	-0.311042	-1.041110
C56	C	1.119035	-0.307960	-0.967605
C57	C	1.073187	-0.353766	-0.930847
N58	N	1.035429	-0.391503	-0.822888
N59	N	1.076354	-0.350605	-0.855715
C60	C	1.063557	-0.363437	-0.156082
C61	C	1.066993	-0.359942	-0.077853
H62	H	0.618182	-0.488111	-0.380578
F63	F	0.963492	-0.935582	-0.244083
F64	F	0.627204	-0.234404	-0.309320
H65	H	0.981868	-0.802536	-0.248408
H66	H	0.952904	-0.473966	-0.740912
F67	F	0.492454	-0.330897	-0.211732
H68	H	0.495870	-0.442989	-0.246015
H69	H	1.146539	-0.810508	-0.414178
H70	H	1.124870	-0.302151	-0.740938
F71	F	1.092782	-0.795691	-0.210229
H72	H	0.986924	-0.439971	-0.937665
F73	F	0.620398	-0.416716	-0.465441
F74	F	1.171124	-0.255918	-0.928506
H75	H	1.079009	-0.929220	-0.223096
H76	H	1.153263	-0.273748	-1.071047
F77	F	1.142735	-0.284326	-0.598409
H78	H	1.177658	-0.932716	-0.318248
H79	H	0.939321	-0.937034	-0.381086
H80	H	0.981297	-0.445568	-1.071008
H81	H	0.490957	-0.488476	-0.380498
F82	F	0.479877	-0.417100	-0.464800
H83	H	0.490546	-0.279882	-0.414082
F84	F	0.487809	-0.234416	-0.310343
H85	H	1.179257	-0.805594	-0.322768
F86	F	1.155684	-0.945249	-0.427454
H87	H	0.958517	-0.468360	-0.607558
H88	H	0.617658	-0.279192	-0.413105
H89	H	1.007265	-0.938861	-0.448682
F90	F	0.629710	-0.463774	-0.244855
F91	F	0.632653	-0.336478	-0.209300
F92	F	1.010482	-0.805861	-0.465222
H93	H	0.938711	-0.809393	-0.380757
