data_functionalizedCrystal
_audit_creation_method	'MofGen! by Chris Wilmer'
_symmetry_space_group_name_H-M	'P1'
_symmetry_Int_Tables_number	1
_symmetry_cell_setting	triclinic
loop_
_symmetry_equiv_pos_as_xyz
  x,y,z
_cell_length_a	23.204064
_cell_length_b	23.204065
_cell_length_c	23.204116
_cell_angle_alpha	89.996965
_cell_angle_beta	59.996975
_cell_angle_gamma	59.999902
loop_
_atom_site_label
_atom_site_type_symbol
_atom_site_fract_x
_atom_site_fract_y
_atom_site_fract_z
O1	O	0.508354	0.395335	-0.017165
O2	O	0.390339	0.311532	0.017047
O3	O	0.508349	0.311530	-0.100966
O4	O	0.390344	0.395337	0.100848
O5	O	0.412497	0.407382	-0.100966
O6	O	0.294487	0.407384	0.017047
O7	O	0.412502	0.491187	-0.017165
Zn8	Zn	0.338276	0.464504	-0.000059
Zn9	Zn	0.464565	0.338215	-0.000059
O10	O	0.294493	0.491189	0.100848
C11	C	0.517029	0.596425	-0.024963
C12	C	0.476574	0.672443	-0.020071
C13	C	0.482671	0.561425	-0.025445
C14	C	0.621389	0.492066	-0.024963
C15	C	0.692516	0.456502	-0.020072
C16	C	0.586872	0.457224	-0.025446
C17	C	0.517025	0.492068	-0.024955
C18	C	0.476565	0.456507	-0.020056
C19	C	0.586876	0.561422	-0.025453
C20	C	0.212796	0.144180	0.035745
C21	C	0.253254	0.068160	0.030849
C22	C	0.142952	0.179181	0.036231
C23	C	0.212793	0.248540	0.035749
C24	C	0.253248	0.284104	0.030857
C25	C	0.142949	0.283383	0.036234
C26	C	0.108437	0.248539	0.035744
C27	C	0.037314	0.284101	0.030848
C28	C	0.247150	0.179182	0.036235
C29	C	-0.020146	0.312831	0.026891
C30	C	0.285940	0.006744	0.026893
C31	C	0.285933	0.312835	0.026904
C32	C	-0.092232	0.348875	0.021928
C33	C	0.326947	-0.070305	0.021930
C34	C	0.326936	0.348880	0.021946
C35	C	0.590049	0.248541	-0.445864
C36	C	0.549593	0.284103	-0.481426
C37	C	0.659894	0.179184	-0.480706
C38	C	0.590049	0.248541	-0.341505
C39	C	0.549592	0.284104	-0.265486
C40	C	0.659893	0.179184	-0.376505
C41	C	0.694407	0.144182	-0.445862
C42	C	0.765532	0.068163	-0.481423
C43	C	0.555693	0.283384	-0.376507
C44	C	0.822992	0.006748	-0.510153
C45	C	0.516907	0.312833	-0.510157
C46	C	0.516906	0.312834	-0.204070
C47	C	0.895079	-0.070301	-0.546195
C48	C	0.475902	0.348877	-0.546201
C49	C	0.475901	0.348879	-0.127021
O50	O	0.886610	0.407380	0.017032
O51	O	0.719007	0.491183	-0.017180
O52	O	0.718991	0.491179	0.100833
O53	O	0.886626	0.407384	-0.100981
O54	O	0.718998	0.395324	0.100825
O55	O	0.719014	0.395328	-0.017189
O56	O	0.886617	0.311525	0.017023
Zn57	Zn	0.802817	0.338207	-0.000084
Zn58	Zn	0.802807	0.464500	-0.000073
O59	O	0.886634	0.311529	-0.100990
O60	O	0.294497	0.903641	0.017034
O61	O	0.412511	0.701827	-0.017179
O62	O	0.294507	0.819822	0.100834
O63	O	0.412500	0.785646	-0.100980
O64	O	0.390363	0.819819	0.100826
O65	O	0.508367	0.701824	-0.017187
O66	O	0.390353	0.903639	0.017026
Zn67	Zn	0.464579	0.802731	-0.000082
Zn68	Zn	0.338285	0.802734	-0.000072
O69	O	0.508356	0.785644	-0.100988
O70	O	1.083846	-0.298166	-0.592645
O71	O	0.916232	-0.096354	-0.508846
O72	O	0.916226	-0.214357	-0.508835
O73	O	1.083852	-0.180164	-0.592656
O74	O	0.916229	-0.214359	-0.604687
O75	O	0.916235	-0.096357	-0.604698
O76	O	1.083848	-0.298169	-0.688497
Zn77	Zn	1.000042	-0.197264	-0.661816
Zn78	Zn	1.000039	-0.197260	-0.535527
O79	O	1.083854	-0.180167	-0.688508
O80	O	0.390339	0.395341	-0.688506
O81	O	0.508349	0.311530	-0.604703
O82	O	0.390337	0.311534	-0.604694
O83	O	0.508352	0.395337	-0.688516
O84	O	0.294488	0.407384	-0.508843
O85	O	0.412500	0.407379	-0.508852
O86	O	0.294490	0.491191	-0.592655
Zn87	Zn	0.338277	0.464504	-0.535535
Zn88	Zn	0.464562	0.338217	-0.661823
O89	O	0.412502	0.491187	-0.592665
C90	C	0.181466	0.596433	0.310607
C91	C	0.110341	0.672452	0.346167
C92	C	0.215979	0.561432	0.345451
C93	C	0.285825	0.492073	0.206249
C94	C	0.326282	0.456510	0.130231
C95	C	0.320180	0.457231	0.241252
C96	C	0.285824	0.492075	0.310609
C97	C	0.326279	0.456513	0.346172
C98	C	0.215980	0.561431	0.241250
C99	C	0.517000	0.492049	0.310585
C100	C	0.476544	0.456483	0.346144
C101	C	0.482638	0.561406	0.345431
C102	C	0.621366	0.492056	0.206230
C103	C	0.692498	0.456497	0.130211
C104	C	0.586846	0.561413	0.241235
C105	C	0.516995	0.596411	0.310592
C106	C	0.476532	0.672430	0.346157
C107	C	0.586851	0.457209	0.241228
C108	C	0.285875	0.827557	0.310579
C109	C	0.326339	0.822656	0.346134
C110	C	0.216033	0.828036	0.345424
C111	C	0.285858	0.827580	0.206228
C112	C	0.326304	0.822703	0.130212
C113	C	0.216016	0.828059	0.241232
C114	C	0.181512	0.827556	0.310586
C115	C	0.110392	0.822653	0.346150
C116	C	0.320220	0.828061	0.241224
C117	C	1.212852	0.144201	-0.445886
C118	C	1.253315	0.068182	-0.481452
C119	C	1.247208	0.179206	-0.480725
C120	C	1.108480	0.248555	-0.341524
C121	C	1.037348	0.284114	-0.265505
C122	C	1.142995	0.283402	-0.376522
C123	C	1.212846	0.248563	-0.445879
C124	C	1.253302	0.284130	-0.481437
C125	C	1.143001	0.179198	-0.376529
C126	C	1.285987	0.312863	-0.510163
C127	C	1.286006	0.006766	-0.510185
C128	C	0.979882	0.312841	-0.204089
C129	C	1.326992	0.348911	-0.546203
C130	C	1.327018	-0.070282	-0.546232
C131	C	0.907787	0.348880	-0.127040
O132	O	0.390300	0.903628	0.395299
O133	O	0.508322	0.701816	0.311481
O134	O	0.390318	0.819819	0.311478
O135	O	0.508304	0.785625	0.395302
O136	O	0.294462	0.819810	0.407324
O137	O	0.412466	0.701807	0.407328
O138	O	0.294444	0.903619	0.491145
Zn139	Zn	0.338236	0.802712	0.464454
Zn140	Zn	0.464530	0.802723	0.338172
O141	O	0.412448	0.785616	0.491148
C142	C	0.694370	0.767007	-0.445874
C143	C	0.765494	0.771905	-0.481440
C144	C	0.659846	0.766531	-0.480711
C145	C	0.590021	0.766987	-0.341515
C146	C	0.549574	0.771865	-0.265499
C147	C	0.555655	0.766512	-0.376510
C148	C	0.590001	0.767015	-0.445864
C149	C	0.549534	0.771922	-0.481419
C150	C	0.659865	0.766504	-0.376520
C151	C	0.516840	0.775888	-0.510142
C152	C	0.822954	0.775863	-0.510172
C153	C	0.516897	0.775806	-0.204085
C154	C	0.475824	0.780862	-0.546178
C155	C	0.895041	0.780828	-0.546219
C156	C	0.475903	0.780750	-0.127038
H157	H	0.615756	0.400239	-0.026224
H158	H	1.114120	0.151091	-0.348433
C159	C	0.148933	0.072897	0.037748
C160	C	0.103888	0.141283	0.037390
H161	H	0.124797	0.049514	0.038491
H162	H	0.149272	0.075325	0.078429
H163	H	0.203275	0.047473	-0.003439
H164	H	0.049547	0.166710	0.078581
H165	H	0.103540	0.138859	-0.003294
H166	H	0.426457	0.589534	-0.026214
H167	H	0.499449	0.765730	-0.348401
H168	H	0.303350	0.151080	0.037024
C169	C	1.035273	0.383656	-0.270188
C170	C	1.103994	0.360333	-0.338587
H171	H	1.011196	0.431149	-0.246774
H172	H	1.051043	0.354687	-0.244806
H173	H	0.996969	0.380959	-0.272600
H174	H	1.142301	0.363025	-0.336176
H175	H	1.088226	0.389309	-0.363976
H176	H	0.688769	0.151082	-0.348397
H177	H	0.426432	0.589501	0.402419
C178	C	0.642378	0.825453	-0.278149
C179	C	0.698866	0.765442	-0.338592
H180	H	0.666457	0.824801	-0.254738
H181	H	0.595775	0.825652	-0.247365
H182	H	0.626604	0.866607	-0.291356
H183	H	0.714635	0.724288	-0.325384
H184	H	0.745484	0.765237	-0.369382
C185	C	0.767547	0.765169	-0.580971
C186	C	0.698830	0.765484	-0.557639
H187	H	0.791609	0.764525	-0.628460
H188	H	0.805857	0.724455	-0.578288
H189	H	0.751773	0.806323	-0.551993
H190	H	0.714605	0.724327	-0.586614
H191	H	0.660512	0.806202	-0.560327
C192	C	0.642444	0.137675	-0.561602
C193	C	0.698907	0.141235	-0.557637
H194	H	0.666537	0.114241	-0.609095
H195	H	0.595831	0.184069	-0.545788
H196	H	0.626681	0.112290	-0.532621
H197	H	0.714666	0.166625	-0.586615
H198	H	0.745535	0.094833	-0.573460
C199	C	0.649118	0.618817	-0.087179
C200	C	0.625884	0.599346	-0.026518
H201	H	0.673205	0.642221	-0.087836
H202	H	0.602496	0.649614	-0.086948
H203	H	0.687421	0.577815	-0.127893
H204	H	0.587576	0.640348	0.014197
H205	H	0.672512	0.568547	-0.026742
H206	H	0.114066	0.340370	0.037019
H207	H	0.615702	0.400240	0.213108
C208	C	0.176595	0.769106	0.199772
C209	C	0.177009	0.829126	0.203309
H210	H	0.152516	0.769764	0.176359
H211	H	0.146031	0.768889	0.246173
H212	H	0.230961	0.727958	0.174375
H213	H	0.122642	0.870273	0.228711
H214	H	0.207572	0.829350	0.156900
C215	C	1.346118	0.072870	-0.580978
C216	C	1.323095	0.141274	-0.557650
H217	H	1.392971	0.049453	-0.628464
H218	H	1.302728	0.075268	-0.578306
H219	H	1.358283	0.047495	-0.551992
H220	H	1.310924	0.166650	-0.586634
H221	H	1.366494	0.138879	-0.560328
C222	C	0.456750	0.383612	-0.383927
C223	C	0.479782	0.360294	-0.338549
H224	H	0.409878	0.431086	-0.360487
H225	H	0.444621	0.354605	-0.397149
H226	H	0.500130	0.380968	-0.424917
H227	H	0.436404	0.362933	-0.297561
H228	H	0.491907	0.389308	-0.325317
H229	H	0.376383	0.400244	0.213149
C230	C	0.096856	0.618762	0.465069
C231	C	0.176976	0.599325	0.422396
H232	H	0.072777	0.642145	0.512573
H233	H	0.097167	0.577756	0.462328
H234	H	0.066285	0.649579	0.449250
H235	H	0.207549	0.568504	0.438212
H236	H	0.176670	0.640337	0.425140
C237	C	0.096872	0.618826	0.240719
C238	C	0.177005	0.599351	0.203296
H239	H	0.072821	0.642228	0.217280
H240	H	0.066299	0.649627	0.287109
H241	H	0.097155	0.577826	0.243135
H242	H	0.176722	0.640352	0.200884
H243	H	0.207587	0.568548	0.156893
H244	H	0.615735	0.589514	0.213133
H245	H	0.187155	0.828814	0.402411
H246	H	0.376432	0.828835	0.213118
