data_functionalizedCrystal
_audit_creation_method	'MofGen! by Chris Wilmer'
_symmetry_space_group_name_H-M	'P1'
_symmetry_Int_Tables_number	1
_symmetry_cell_setting	triclinic
loop_
_symmetry_equiv_pos_as_xyz
  x,y,z
_cell_length_a	10.654554
_cell_length_b	9.730223
_cell_length_c	10.654551
_cell_angle_alpha	90.001469
_cell_angle_beta	84.486102
_cell_angle_gamma	89.999614
loop_
_atom_site_label
_atom_site_type_symbol
_atom_site_fract_x
_atom_site_fract_y
_atom_site_fract_z
O1	O	1.667831	-0.114286	0.176421
O2	O	1.302354	-0.114287	0.193221
O3	O	1.493495	-0.114287	0.002082
O4	O	1.476690	-0.114286	0.367560
O5	O	1.493492	0.114293	0.002087
O6	O	1.302351	0.114293	0.193226
O7	O	1.667829	0.114294	0.176426
Zn8	Zn	1.485090	0.150585	0.184827
Zn9	Zn	1.485093	-0.150579	0.184821
O10	O	1.476688	0.114294	0.367565
C11	C	1.255555	0.000003	0.191989
C12	C	1.116112	0.000002	0.188295
C13	C	1.492259	-0.000001	-0.044713
C14	C	1.488567	-0.000010	-0.184156
C15	C	0.933549	-0.000010	0.068808
C16	C	1.064571	0.000000	0.072279
C17	C	1.036623	0.000008	0.300848
C18	C	0.905604	0.000008	0.297376
C19	C	0.882016	-0.000026	-0.047215
C20	C	0.961496	-0.000030	-0.159769
C21	C	1.092517	-0.000020	-0.156299
C22	C	1.144059	-0.000006	-0.040274
C23	C	1.714628	0.000001	0.177659
C24	C	1.854071	-0.000008	0.181353
N25	N	1.485097	0.356122	0.184831
N26	N	1.485095	-0.356115	0.184807
C27	C	1.569756	0.428047	0.100223
C28	C	1.569753	0.571930	0.100208
C29	C	1.400427	0.571949	0.269419
C30	C	1.400425	0.428069	0.269427
C31	C	1.654428	0.356100	0.015627
C32	C	1.739095	0.428026	-0.068986
C33	C	1.739092	0.571909	-0.069002
C34	C	1.654421	0.643866	0.015597
C35	C	1.486836	-0.124606	-0.249671
C36	C	1.483356	-0.124600	-0.380691
C37	C	1.483343	0.124610	-0.380672
C38	C	1.486814	0.124603	-0.249653
C39	C	1.488589	-0.249219	-0.184175
C40	C	1.486859	-0.373825	-0.249690
C41	C	1.483379	-0.373819	-0.380710
C42	C	1.481628	-0.249206	-0.446216
C43	C	1.477923	0.000004	0.414361
C44	C	1.481616	0.000004	0.553804
H45	H	0.775334	-0.000038	-0.050054
H46	H	1.808022	0.630470	-0.137905
F47	F	1.310317	0.351519	0.359474
H48	H	1.654417	0.761026	0.015568
H49	H	1.654441	0.238944	0.015634
H50	H	1.478776	-0.249211	-0.552899
H51	H	0.840890	0.000016	0.389020
F52	F	1.829193	0.351444	-0.159026
H53	H	1.331493	0.630546	0.338296
H54	H	1.157227	-0.000010	-0.247945
F55	F	1.481481	0.257222	-0.450392
F56	F	1.488718	-0.506439	-0.179972
F57	F	1.283507	0.000083	-0.036587
H58	H	1.481958	-0.475280	-0.434047
H59	H	1.488197	0.226060	-0.196306
H60	H	0.919521	-0.000052	-0.254231
F61	F	1.091483	0.000016	0.424320
F62	F	1.492298	-0.249236	-0.044733
