data_functionalizedCrystal
_audit_creation_method	'MofGen! by Chris Wilmer'
_symmetry_space_group_name_H-M	'P1'
_symmetry_Int_Tables_number	1
_symmetry_cell_setting	triclinic
loop_
_symmetry_equiv_pos_as_xyz
  x,y,z
_cell_length_a	16.959454
_cell_length_b	16.959455
_cell_length_c	12.759393
_cell_angle_alpha	89.975981
_cell_angle_beta	89.970360
_cell_angle_gamma	90.019023
loop_
_atom_site_label
_atom_site_type_symbol
_atom_site_fract_x
_atom_site_fract_y
_atom_site_fract_z
Zn1	Zn	-0.314665	1.208441	-0.594113
Zn2	Zn	-0.446865	1.208346	-0.418435
Zn3	Zn	-0.314702	1.076252	-0.418438
Zn4	Zn	-0.446803	1.076234	-0.594063
O5	O	-0.380759	1.142318	-0.506262
O6	O	-0.332212	1.319039	-0.570828
O7	O	-0.429374	1.190792	-0.271415
O8	O	-0.204086	1.093835	-0.441764
O9	O	-0.429339	1.318970	-0.441759
O10	O	-0.204059	1.190953	-0.570831
O11	O	-0.332274	1.093743	-0.271417
O12	O	-0.332215	0.965639	-0.441716
O13	O	-0.429234	1.093803	-0.741091
O14	O	-0.429269	0.965625	-0.570747
O15	O	-0.332153	1.190935	-0.741127
O16	O	-0.557467	1.190774	-0.441711
O17	O	-0.557422	1.093712	-0.570744
C18	C	-0.380740	0.936952	-0.506227
C19	C	-0.380751	0.849095	-0.506237
C20	C	-0.330147	0.807805	-0.439164
C21	C	-0.431361	0.807832	-0.573325
C22	C	-0.431370	0.725286	-0.573340
C23	C	-0.380766	0.683996	-0.506268
C24	C	-0.330153	0.725252	-0.439179
C25	C	-0.481976	0.684025	-0.640435
C26	C	-0.481987	0.601474	-0.640454
C27	C	-0.431386	0.560182	-0.573375
C28	C	-0.380772	0.601443	-0.506283
C29	C	-0.330168	0.560152	-0.439210
C30	C	-0.279556	0.601411	-0.372113
C31	C	-0.279552	0.683960	-0.372101
C32	C	-0.431391	0.477633	-0.573387
C33	C	-0.330173	0.477599	-0.439226
C34	C	-0.586125	1.142252	-0.506245
C35	C	-0.673982	1.142296	-0.506272
C36	C	-1.045464	1.091851	-0.573443
C37	C	-1.045451	1.193006	-0.439189
C38	C	-0.962905	1.192978	-0.439180
C39	C	-0.921635	1.142385	-0.506301
C40	C	-0.962910	1.091820	-0.573433
C41	C	-0.921623	1.243536	-0.372042
C42	C	-0.839072	1.243510	-0.372029
C43	C	-0.797800	1.192921	-0.439157
C44	C	-0.839081	1.142355	-0.506292
C45	C	-0.797811	1.091762	-0.573413
C46	C	-0.839090	1.041199	-0.640555
C47	C	-0.921639	1.041231	-0.640561
C48	C	-0.715252	1.192889	-0.439150
C49	C	-0.715257	1.091731	-0.573404
C50	C	-0.174591	1.142406	-0.506303
C51	C	-0.086734	1.142444	-0.506321
C52	C	-0.380683	1.142377	-0.780296
C53	C	-0.380651	1.142403	-0.897073
C54	C	-0.380778	1.348487	-0.506299
C55	C	-0.380787	1.436343	-0.506314
C56	C	-0.330092	1.192983	-0.951955
C57	C	-0.330058	1.192996	-1.061679
C58	C	-0.431147	1.091847	-1.061629
C59	C	-0.431177	1.091830	-0.951907
C60	C	-0.380777	1.142305	-0.233295
C61	C	-0.380587	1.142433	-0.116519
H62	H	-0.472557	0.841456	-0.627937
Cl63	Cl	-0.495005	0.425769	-0.657738
Cl64	Cl	-0.215928	0.735833	-0.287764
Cl65	Cl	-0.266557	0.425697	-0.354895
Cl66	Cl	-0.266503	1.256593	-1.130670
H67	H	-0.523199	0.567888	-0.695088
Cl68	Cl	-0.663381	1.028129	-0.657796
H69	H	-0.238351	0.567782	-0.317507
H70	H	-0.472347	1.050636	-0.907220
Cl71	Cl	-0.545603	0.735935	-0.724730
Cl72	Cl	-0.266570	1.256556	-0.883025
Cl73	Cl	-0.663362	1.256440	-0.354740
Cl74	Cl	-0.787198	0.977596	-0.724928
Cl75	Cl	-0.266527	0.859671	-0.354814
H76	H	-0.955255	1.000065	-0.695222
H77	H	-0.955231	1.284720	-0.317387
Cl78	Cl	-0.494667	1.028278	-1.130570
H79	H	-1.079077	1.050686	-0.628110
Cl80	Cl	-1.097334	1.256605	-0.354813
H81	H	-0.805467	1.284682	-0.317360
