data_functionalizedCrystal
_audit_creation_method	'MofGen! by Chris Wilmer'
_symmetry_space_group_name_H-M	'P1'
_symmetry_Int_Tables_number	1
_symmetry_cell_setting	triclinic
loop_
_symmetry_equiv_pos_as_xyz
  x,y,z
_cell_length_a	15.538191
_cell_length_b	17.699104
_cell_length_c	16.176319
_cell_angle_alpha	89.991696
_cell_angle_beta	89.995479
_cell_angle_gamma	65.281806
loop_
_atom_site_label
_atom_site_type_symbol
_atom_site_fract_x
_atom_site_fract_y
_atom_site_fract_z
O1	O	0.119291	0.971473	-0.068755
O2	O	0.134779	0.746865	-0.068752
O3	O	-0.010190	0.902891	-0.068758
O4	O	0.264261	0.815448	-0.068749
O5	O	-0.010200	0.902878	0.068736
O6	O	0.134770	0.746852	0.068742
O7	O	0.119282	0.971460	0.068739
Cu8	Cu	0.127025	0.859155	0.081294
Cu9	Cu	0.127036	0.859171	-0.081307
O10	O	0.264251	0.815434	0.068745
C11	C	0.134216	0.718815	-0.000005
C12	C	0.132541	0.635255	-0.000004
C13	C	0.208189	0.089714	-0.000010
C14	C	0.209757	0.168229	-0.000012
C15	C	0.124655	0.240100	-0.000015
C16	C	0.037979	0.233454	-0.000024
C17	C	0.036412	0.154940	-0.000027
C18	C	0.044297	0.550093	-0.000010
C19	C	0.045871	0.628611	-0.000004
C20	C	0.217642	0.563383	0.000005
C21	C	0.216075	0.484869	0.000001
C22	C	0.129400	0.478229	-0.000012
C23	C	0.127701	0.393094	-0.000011
C24	C	0.126353	0.325235	-0.000010
C25	C	-0.045311	0.912033	-0.000014
C26	C	-0.149944	0.939285	-0.000023
C27	C	-0.437140	0.668548	-0.000001
C28	C	-0.535462	0.694174	0.000000
C29	C	-0.558222	0.838315	-0.000002
C30	C	-0.459900	0.812701	-0.000007
C31	C	-0.399366	0.727816	-0.000006
C32	C	-0.422125	0.871969	-0.000013
C33	C	-0.323812	0.846357	-0.000014
C34	C	-0.263272	0.761476	-0.000010
C35	C	-0.301052	0.702204	-0.000007
C36	C	-0.482661	0.956853	-0.000008
C37	C	-0.444887	1.016122	-0.000013
C38	C	-0.346571	0.990510	-0.000020
C39	C	-0.286032	0.905629	-0.000016
C40	C	-0.308791	1.049782	-0.000023
C41	C	-0.210478	1.024170	-0.000024
C42	C	-0.187718	0.880017	-0.000017
C43	C	0.299372	0.806292	-0.000001
C44	C	0.404005	0.779040	0.000002
C45	C	0.119845	0.999511	-0.000010
C46	C	0.121520	1.083071	-0.000016
N47	N	0.127017	0.859149	0.195660
N48	N	0.127037	0.859184	-0.195673
C49	C	0.062851	0.928246	0.238921
C50	C	0.062850	0.928250	0.325468
C51	C	0.127020	0.859159	0.368752
C52	C	0.191189	0.790056	0.325485
C53	C	0.191185	0.790051	0.238939
C54	C	0.191207	0.790077	0.674513
C55	C	0.191208	0.790089	0.761064
C56	C	0.062872	0.928277	0.761042
C57	C	0.062867	0.928271	0.674496
C58	C	0.127033	0.859167	0.631236
C59	C	0.127032	0.859163	0.537392
C60	C	0.127026	0.859165	0.462595
H61	H	0.285375	0.426352	0.000007
F62	F	-0.123288	0.789672	-0.000024
H63	H	-0.023434	0.687131	-0.000009
F64	F	0.309891	0.570455	0.000013
F65	F	-0.052594	0.309946	-0.000029
H66	H	-0.026279	0.544699	-0.000019
F67	F	-0.005423	1.001823	0.807089
H68	H	0.277490	0.031198	-0.000002
F69	F	0.302003	0.175294	-0.000010
F70	F	0.259510	0.716549	0.807129
F71	F	-0.055834	0.147872	-0.000034
H72	H	-0.183220	0.740624	-0.000006
H73	H	-0.251762	0.633082	-0.000012
H74	H	0.243434	0.733785	0.203716
H75	H	-0.387850	0.599426	-0.000006
F76	F	-0.575659	0.631085	0.000010
F77	F	-0.005428	1.001808	0.628434
F78	F	-0.622655	0.928652	0.000003
H79	H	-0.358092	1.118895	-0.000016
H80	H	0.243454	0.733811	0.639297
F81	F	-0.587296	0.984110	-0.000001
H82	H	-0.494186	1.085235	-0.000011
H83	H	0.243435	0.733798	0.360731
F84	F	-0.170273	1.087249	-0.000017
H85	H	0.010600	0.984510	0.203685
H86	H	0.010600	0.984513	0.360691
