data_functionalizedCrystal
_audit_creation_method	'MofGen! by Chris Wilmer'
_symmetry_space_group_name_H-M	'P1'
_symmetry_Int_Tables_number	1
_symmetry_cell_setting	triclinic
loop_
_symmetry_equiv_pos_as_xyz
  x,y,z
_cell_length_a	17.699083
_cell_length_b	10.540539
_cell_length_c	16.176319
_cell_angle_alpha	89.995366
_cell_angle_beta	89.998611
_cell_angle_gamma	83.904253
loop_
_atom_site_label
_atom_site_type_symbol
_atom_site_fract_x
_atom_site_fract_y
_atom_site_fract_z
O1	O	1.005122	0.160521	-0.068627
O2	O	0.784880	0.181405	-0.068653
O3	O	0.900026	-0.013836	-0.068638
O4	O	0.889976	0.355761	-0.068642
O5	O	0.900010	-0.013848	0.068855
O6	O	0.784864	0.181392	0.068840
O7	O	1.005106	0.160508	0.068866
Cu8	Cu	0.894984	0.170949	0.081407
Cu9	Cu	0.895003	0.170964	-0.081194
O10	O	0.889960	0.355749	0.068852
C11	C	0.756670	0.180650	0.000090
C12	C	0.672637	0.178405	0.000080
C13	C	0.899264	-0.061131	0.000107
C14	C	0.897009	-0.202038	0.000102
C15	C	0.624761	0.293007	0.000079
C16	C	0.545804	0.290890	0.000090
C17	C	0.514725	0.174170	0.000095
C18	C	0.562607	0.059559	0.000098
C19	C	0.641562	0.061677	0.000094
C20	C	0.244188	0.051014	0.000119
C21	C	0.165226	0.048904	0.000121
C22	C	0.148430	0.280227	0.000115
C23	C	0.227386	0.282345	0.000110
C24	C	0.275261	0.167735	0.000118
C25	C	0.360875	0.170032	0.000108
C26	C	0.429112	0.171872	0.000099
C27	C	0.810610	-0.383885	-0.000217
C28	C	0.812896	-0.237308	0.000093
C29	C	0.937479	-0.264443	0.078622
C30	C	0.934609	-0.410935	0.078688
C31	C	0.936338	-0.411471	-0.077667
C32	C	0.937113	-0.264503	-0.078705
C33	C	1.033316	0.161263	0.000122
C34	C	1.117349	0.163508	0.000126
C35	C	0.890722	0.403044	0.000105
C36	C	0.892977	0.543951	0.000104
N37	N	0.894976	0.170938	0.195773
N38	N	0.895016	0.170965	-0.195559
C39	C	0.945978	0.084521	0.239043
C40	C	0.945982	0.084519	0.325591
C41	C	0.894987	0.170942	0.368865
C42	C	0.843979	0.257364	0.325588
C43	C	0.843972	0.257358	0.239043
C44	C	0.844005	0.257387	0.674617
C45	C	0.844017	0.257389	0.761168
C46	C	0.946015	0.084549	0.761164
C47	C	0.946008	0.084543	0.674619
C48	C	0.894998	0.170959	0.631349
C49	C	0.894993	0.170958	0.537505
C50	C	0.894994	0.170951	0.462708
H51	H	0.650060	0.388054	0.000074
C52	C	0.787886	0.352429	0.373188
H53	H	0.795200	0.340067	0.430929
H54	H	0.737301	0.338752	0.359015
H55	H	0.796565	0.437131	0.358994
C56	C	1.002082	-0.010538	0.373189
H57	H	0.994778	0.001828	0.430930
H58	H	1.052665	0.003140	0.359001
H59	H	0.993402	-0.095242	0.359009
C60	C	1.016324	-0.477238	0.083526
H61	H	1.051126	-0.414607	0.085449
H62	H	1.026489	-0.529595	0.036185
H63	H	1.021771	-0.528398	0.131947
H64	H	0.139925	-0.046149	0.000127
C65	C	0.296840	-0.075052	0.000122
H66	H	0.267020	-0.144866	0.000117
H67	H	0.327991	-0.079043	0.048068
H68	H	0.327989	-0.079034	-0.047832
H69	H	0.537295	-0.035477	0.000115
H70	H	0.802472	0.327753	0.639394
H71	H	0.506826	0.384211	0.000088
H72	H	0.997092	-0.459808	-0.078188
H73	H	0.777390	-0.411872	-0.056526
C74	C	0.694226	-0.064385	0.000086
H75	H	0.664409	-0.134203	0.000081
H76	H	0.725379	-0.068375	0.048030
H77	H	0.725371	-0.068357	-0.047870
C78	C	1.002118	-0.010522	0.808763
H79	H	0.994816	0.001844	0.866504
H80	H	1.052700	0.003158	0.794573
H81	H	0.993438	-0.095225	0.794583
C82	C	1.002073	-0.010548	0.191449
H83	H	1.032443	-0.062023	0.229618
H84	H	1.033821	0.035041	0.157678
H85	H	0.974556	-0.063337	0.157698
C86	C	0.095766	0.406298	0.000118
H87	H	0.044291	0.388326	0.000131
H88	H	0.105252	0.454171	-0.047832
H89	H	0.105259	0.454163	0.048068
C90	C	0.897171	-0.208462	-0.157180
H91	H	0.856228	-0.147246	-0.141989
H92	H	0.878225	-0.274954	-0.188012
H93	H	0.932419	-0.168582	-0.189947
H94	H	0.909121	-0.442520	-0.137180
C95	C	1.019960	-0.233308	-0.085102
H96	H	1.031228	-0.181557	-0.039588
H97	H	1.026618	-0.188838	-0.135213
H98	H	1.053150	-0.310297	-0.084431
H99	H	0.802488	0.327767	0.796401
H100	H	0.987536	0.014174	0.639387
C101	C	0.765897	-0.423862	0.075417
H102	H	0.797208	-0.484338	0.107191
H103	H	0.722131	-0.460936	0.057361
H104	H	0.750780	-0.350970	0.108372
C105	C	0.787872	0.352417	0.191441
H106	H	0.795167	0.340028	0.133700
H107	H	0.796545	0.437119	0.205615
H108	H	0.737288	0.338727	0.205633
C109	C	0.261570	0.410736	0.000107
H110	H	0.221747	0.478688	0.000117
H111	H	0.292021	0.416380	-0.047839
H112	H	0.292020	0.416359	0.048061
C113	C	0.894177	-0.448304	0.157962
H114	H	0.879654	-0.373988	0.189821
H115	H	0.927673	-0.505973	0.189360
H116	H	0.850245	-0.487981	0.143608
H117	H	0.781052	-0.194117	-0.056194
H118	H	0.780815	-0.194971	0.056466
C119	C	1.020926	-0.235784	0.082584
H120	H	1.044318	-0.274407	0.130518
H121	H	1.022861	-0.146138	0.084936
H122	H	1.047085	-0.269154	0.034740
C123	C	0.899479	-0.206230	0.157551
H124	H	0.858957	-0.143911	0.142822
H125	H	0.935830	-0.167325	0.189325
H126	H	0.880188	-0.271551	0.189195
