data_functionalizedCrystal
_audit_creation_method	'MofGen! by Chris Wilmer'
_symmetry_space_group_name_H-M	'P1'
_symmetry_Int_Tables_number	1
_symmetry_cell_setting	triclinic
loop_
_symmetry_equiv_pos_as_xyz
  x,y,z
_cell_length_a	16.992694
_cell_length_b	10.654550
_cell_length_c	9.730223
_cell_angle_alpha	90.001755
_cell_angle_beta	90.002517
_cell_angle_gamma	87.576563
loop_
_atom_site_label
_atom_site_type_symbol
_atom_site_fract_x
_atom_site_fract_y
_atom_site_fract_z
O1	O	-1.041839	-0.266422	0.114112
O2	O	-0.813538	-0.263499	0.114153
O3	O	-0.932937	-0.082675	0.114126
O4	O	-0.922439	-0.447246	0.114138
O5	O	-0.932929	-0.082687	-0.114454
O6	O	-0.813530	-0.263511	-0.114427
O7	O	-1.041831	-0.266434	-0.114468
Zn8	Zn	-0.927679	-0.264975	-0.150740
Zn9	Zn	-0.927690	-0.264959	0.150424
O10	O	-0.922431	-0.447258	-0.114442
C11	C	-0.784301	-0.259745	-0.000132
C12	C	-0.697196	-0.248526	-0.000117
C13	C	-1.071068	-0.270188	-0.000180
C14	C	-1.158173	-0.281408	-0.000187
C15	C	-0.647544	-0.356776	-0.000114
C16	C	-0.565700	-0.346227	-0.000134
C17	C	-0.533509	-0.227426	-0.000146
C18	C	-0.583167	-0.119167	-0.000152
C19	C	-0.665010	-0.129718	-0.000143
C20	C	-0.289674	-0.183699	-0.000184
C21	C	-0.207825	-0.173157	-0.000189
C22	C	-0.190363	-0.400218	-0.000173
C23	C	-0.272208	-0.410758	-0.000155
C24	C	-0.321859	-0.302499	-0.000169
N25	N	-0.449852	-0.216640	-0.000161
N26	N	-0.405515	-0.313286	-0.000164
C27	C	-0.932163	-0.035816	-0.000162
C28	C	-0.929856	0.103826	-0.000157
C29	C	-0.923206	-0.494117	-0.000150
C30	C	-0.925512	-0.633759	-0.000147
N31	N	-0.927678	-0.264985	-0.356276
C32	C	-1.000157	0.177237	-0.000173
C33	C	-0.997985	0.308445	-0.000163
C34	C	-0.855206	0.292820	-0.000126
C35	C	-0.857379	0.161614	-0.000126
C36	C	-1.082589	0.186259	-0.000201
C37	C	-1.080418	0.317467	-0.000191
C38	C	-0.879700	-0.183925	-0.572091
C39	C	-0.879692	-0.183945	-0.428208
C40	C	-0.975680	-0.346003	-0.428235
C41	C	-0.975692	-0.345976	-0.572115
C42	C	-0.824279	-0.090366	-0.572074
C43	C	-0.824271	-0.090385	-0.428191
N44	N	-0.927697	-0.264938	0.355961
H45	H	-0.673746	-0.453517	-0.000103
Cl46	Cl	-1.036044	-0.447810	-0.662560
Cl47	Cl	-0.764096	0.365478	-0.000084
Cl48	Cl	-1.118884	0.384632	0.152173
Cl49	Cl	-0.503283	-0.482321	-0.000122
Cl50	Cl	-0.352081	-0.047600	-0.000200
H51	H	-0.848958	0.002042	-0.383541
H52	H	-0.149929	-0.488356	-0.000165
Cl53	Cl	-0.312669	-0.560114	-0.000131
Cl54	Cl	-0.167359	-0.023796	-0.000235
H55	H	-1.111474	0.356538	-0.095855
Cl56	Cl	-0.542699	0.030184	-0.000176
H57	H	-1.014756	-0.411980	-0.369656
Cl58	Cl	-0.854109	0.059973	-0.632326
Cl59	Cl	-0.727430	0.006375	-0.000152
Cl60	Cl	-1.132372	0.136628	0.147468
Cl61	Cl	-1.123098	0.127731	-0.152594
Cl62	Cl	-0.733070	-0.143414	-0.641014
H63	H	-0.800133	0.101848	-0.000093
Cl64	Cl	-0.728731	-0.129734	-0.367914
