data_functionalizedCrystal
_audit_creation_method	'MofGen! by Chris Wilmer'
_symmetry_space_group_name_H-M	'P1'
_symmetry_Int_Tables_number	1
_symmetry_cell_setting	triclinic
loop_
_symmetry_equiv_pos_as_xyz
  x,y,z
_cell_length_a	9.065218
_cell_length_b	10.540539
_cell_length_c	8.140239
_cell_angle_alpha	89.998610
_cell_angle_beta	89.997198
_cell_angle_gamma	84.770688
loop_
_atom_site_label
_atom_site_type_symbol
_atom_site_fract_x
_atom_site_fract_y
_atom_site_fract_z
O1	O	1.959468	0.186143	-0.136609
O2	O	2.459468	0.686143	0.363391
O3	O	1.530107	0.201412	-0.136611
O4	O	2.030107	0.701412	0.363389
O5	O	1.754583	0.009107	-0.136608
O6	O	2.254583	0.509107	0.363392
O7	O	1.734992	0.378448	-0.136612
O8	O	2.234992	0.878448	0.363388
O9	O	1.754571	0.009105	0.136619
O10	O	2.254571	0.509105	0.636619
O11	O	1.530095	0.201409	0.136616
O12	O	2.030095	0.701409	0.636616
O13	O	1.959456	0.186141	0.136618
O14	O	2.459456	0.686141	0.636618
Zn15	Zn	1.744773	0.193775	0.179998
Zn16	Zn	2.244773	0.693775	0.679998
Zn17	Zn	1.744790	0.193778	-0.179991
Zn18	Zn	2.244790	0.693778	0.320009
O19	O	1.734980	0.378446	0.136615
O20	O	2.234980	0.878446	0.636615
C21	C	1.475122	0.199943	0.000003
C22	C	1.975122	0.699943	0.500003
C23	C	1.311301	0.195556	0.000002
C24	C	1.811301	0.695556	0.500002
C25	C	1.753108	-0.038202	0.000003
C26	C	2.253108	0.461798	0.500003
C27	C	1.748712	-0.179167	-0.000006
C28	C	2.248712	0.320833	0.499994
C29	C	1.580278	-0.363216	-0.000620
C30	C	2.080278	0.136784	0.499380
C31	C	1.584734	-0.216582	-0.000005
C32	C	2.084734	0.283418	0.499995
C33	C	1.827619	-0.240534	0.156020
C34	C	2.327619	0.259466	0.656020
C35	C	1.822022	-0.387099	0.156152
C36	C	2.322022	0.112901	0.656152
C37	C	1.825372	-0.387602	-0.154558
C38	C	2.325372	0.112398	0.345442
C39	C	1.826882	-0.240615	-0.156621
C40	C	2.326882	0.259385	0.343379
C41	C	2.014441	0.187610	0.000001
C42	C	2.514441	0.687610	0.500001
C43	C	2.178262	0.191997	-0.000009
C44	C	2.678262	0.691997	0.499991
C45	C	1.736455	0.425755	0.000001
C46	C	2.236455	0.925755	0.500001
C47	C	1.740851	0.566719	-0.000001
C48	C	2.240851	1.066719	0.499999
N49	N	1.744773	0.193772	0.425681
N50	N	2.244773	0.693772	0.925681
N51	N	1.744802	0.193771	-0.425673
N52	N	2.244802	0.693771	0.074327
H53	H	1.522646	-0.174207	-0.111851
H54	H	2.022646	0.325793	0.388149
H55	H	1.515761	-0.393663	0.110642
H56	H	2.015761	0.106337	0.610642
H57	H	1.769147	-0.199969	-0.272045
H58	H	2.269147	0.300031	0.227955
H59	H	1.763696	-0.415515	0.272784
H60	H	2.263696	0.084485	0.772784
H61	H	1.943812	-0.434390	-0.155607
H62	H	2.443812	0.065610	0.344393
C63	C	1.981337	-0.451317	0.165741
C64	C	2.481337	0.048683	0.665741
N65	N	2.101331	-0.499679	0.172973
N66	N	2.601331	0.000321	0.672973
H67	H	1.515508	-0.392055	-0.112509
H68	H	2.015508	0.107945	0.387491
C69	C	1.753549	-0.183270	0.312882
C70	C	2.253549	0.316730	0.812882
N71	N	1.697748	-0.140142	0.431027
N72	N	2.197748	0.359858	0.931027
C73	C	1.500259	-0.160480	0.151350
C74	C	2.000259	0.339520	0.651350
N75	N	1.436630	-0.118225	0.265359
N76	N	1.936630	0.381775	0.765359
C77	C	1.990293	-0.209709	0.163885
C78	C	2.490293	0.290291	0.663885
N79	N	2.112816	-0.186480	0.169813
N80	N	2.612816	0.313520	0.669813
H81	H	1.772305	-0.419350	-0.272816
H82	H	2.272305	0.080650	0.227184
C83	C	1.988400	-0.207306	-0.169345
C84	C	2.488400	0.292694	0.330655
N85	N	2.110063	-0.182224	-0.178913
N86	N	2.610063	0.317776	0.321087
