data_functionalizedCrystal
_audit_creation_method	'MofGen! by Chris Wilmer'
_symmetry_space_group_name_H-M	'P1'
_symmetry_Int_Tables_number	1
_symmetry_cell_setting	triclinic
loop_
_symmetry_equiv_pos_as_xyz
  x,y,z
_cell_length_a	6.817900
_cell_length_b	16.255699
_cell_length_c	16.015572
_cell_angle_alpha	77.905003
_cell_angle_beta	104.485554
_cell_angle_gamma	103.489404
loop_
_atom_site_label
_atom_site_type_symbol
_atom_site_fract_x
_atom_site_fract_y
_atom_site_fract_z
V1	V	-3.991607	-0.034109	-0.269476
O2	O	-3.979796	0.086937	-0.264052
O3	O	-3.943358	-0.149668	-0.267917
O4	O	-3.927877	0.003844	-0.386875
O5	O	-3.995384	-0.067637	-0.144270
V6	V	-4.477202	-0.024052	-0.254466
O7	O	-4.248321	-0.056168	-0.302402
O8	O	-4.670685	-0.001993	-0.221540
O9	O	-4.302244	0.091507	-0.256026
O10	O	-4.606409	-0.145098	-0.259891
O11	O	-4.590822	0.009476	-0.379673
O12	O	-4.317725	-0.062005	-0.137068
C13	C	-3.788891	-0.179008	-0.263739
C14	C	-3.830626	-0.273239	-0.263246
C15	C	-3.741942	-0.497803	-0.257602
C16	C	-3.834661	-0.566846	-0.188030
C17	C	-3.907139	-0.445758	-0.262386
C18	C	-3.888809	-0.544616	-0.331089
C19	C	-3.981034	-0.612402	-0.261559
C20	C	-3.999286	-0.513568	-0.192762
C21	C	-4.053429	-0.491323	-0.335884
C22	C	-4.146268	-0.560345	-0.266299
C23	C	-3.864564	-0.349758	-0.262862
C24	C	-4.023620	-0.708401	-0.261077
C25	C	-3.769143	0.016812	-0.415481
C26	C	-3.798322	0.047077	-0.511457
C27	C	-4.120053	0.120842	-0.260202
C28	C	-4.057556	0.215074	-0.260700
C29	C	-4.087307	-0.221558	-0.889747
C30	C	-4.114729	-0.193091	-0.979927
C31	C	-4.037549	-0.045816	-0.954860
C32	C	-4.010109	-0.074270	-0.864676
C33	C	-4.034994	-0.162142	-0.832127
C34	C	-3.957797	-0.014854	-0.807055
C35	C	-3.930371	-0.043306	-0.716880
C36	C	-3.955257	-0.131175	-0.684324
C37	C	-4.007568	-0.190594	-0.741951
C38	C	-3.932927	0.073017	-0.839606
C39	C	-3.880615	0.132433	-0.781986
C40	C	-3.853174	0.103981	-0.691808
C41	C	-3.878060	0.016113	-0.659253
C42	C	-3.800863	0.163401	-0.634181
C43	C	-3.773437	0.134949	-0.544005
C44	C	-3.850634	-0.012339	-0.569077
C45	C	-4.139801	-0.074977	-0.108457
C46	C	-4.089862	-0.105238	-0.012481
H47	H	-3.870871	-0.083892	-0.542574
H48	H	-3.570606	-0.470458	-0.253841
C49	C	-4.061779	-0.494739	-0.113703
H50	H	-4.114651	-0.547159	-0.080427
H51	H	-3.944461	-0.465025	-0.078290
H52	H	-4.164813	-0.460426	-0.133624
H53	H	-4.157319	-0.241482	-1.026840
C54	C	-3.826228	-0.563610	-0.410049
H55	H	-3.682914	-0.542124	-0.406845
H56	H	-3.854581	-0.623755	-0.409486
H57	H	-3.902553	-0.536649	-0.462528
C58	C	-3.925097	-0.162479	-0.585134
H59	H	-3.947426	-0.223320	-0.574004
H60	H	-3.788505	-0.139885	-0.557286
H61	H	-4.020794	-0.143555	-0.562921
C62	C	-4.377748	-0.597110	-0.271236
H63	H	-4.416949	-0.586698	-0.222062
H64	H	-4.455695	-0.570234	-0.323291
H65	H	-4.403394	-0.657092	-0.271381
H66	H	-4.027805	-0.262148	-0.715448
C67	C	-4.177658	-0.446895	-0.420337
H68	H	-4.137818	-0.457170	-0.469418
H69	H	-4.320796	-0.469132	-0.423940
H70	H	-4.150953	-0.386964	-0.419765
H71	H	-4.107543	-0.293111	-0.863244
C72	C	-4.010169	0.050837	-0.990668
H73	H	-4.033981	0.059274	-1.052626
H74	H	-4.105938	0.074604	-0.973552
H75	H	-3.873659	0.078260	-0.967925
C76	C	-3.773504	0.260053	-0.669992
H77	H	-3.797325	0.268488	-0.731950
H78	H	-3.869280	0.283815	-0.652875
H79	H	-3.636998	0.287483	-0.647254
H80	H	-3.955230	0.096181	-0.913033
C81	C	-3.853235	0.229086	-0.817795
H82	H	-3.877047	0.237523	-0.879752
H83	H	-3.949005	0.252853	-0.800679
H84	H	-3.716726	0.256509	-0.795052
H85	H	-3.742615	-0.599703	-0.125513
H86	H	-3.730840	0.183331	-0.497089
