data_functionalizedCrystal
_audit_creation_method	'MofGen! by Chris Wilmer'
_symmetry_space_group_name_H-M	'P1'
_symmetry_Int_Tables_number	1
_symmetry_cell_setting	triclinic
loop_
_symmetry_equiv_pos_as_xyz
  x,y,z
_cell_length_a	14.628931
_cell_length_b	17.917603
_cell_length_c	14.628931
_cell_angle_alpha	90.000192
_cell_angle_beta	60.000028
_cell_angle_gamma	57.011374
loop_
_atom_site_label
_atom_site_type_symbol
_atom_site_fract_x
_atom_site_fract_y
_atom_site_fract_z
Zr1	Zr	0.916422	0.754905	-0.077881
O2	O	1.121077	0.629780	-0.230817
O3	O	0.721440	0.793262	-0.030997
O4	O	0.912146	0.793262	-0.221703
O5	O	0.930372	0.629780	0.110321
O6	O	0.897769	0.922219	-0.214514
O7	O	0.930371	0.629780	-0.040111
O8	O	0.556632	0.922220	0.126623
O9	O	1.271509	0.629780	-0.230817
O10	O	0.787328	0.905860	-0.005638
O11	O	0.798057	0.809621	0.101263
O12	O	1.022588	0.809621	-0.123268
O13	O	1.033317	0.713381	-0.016368
Zr14	Zr	0.893494	0.960576	0.173506
Zr15	Zr	0.893494	0.960577	-0.066415
Zr16	Zr	0.916423	0.754904	0.162041
Zr17	Zr	1.156344	0.754904	-0.077881
Zr18	Zr	0.653572	0.960577	0.173506
O19	O	1.088476	0.922219	0.126622
O20	O	1.088475	0.922219	-0.214515
O21	O	1.121078	0.629780	0.110320
O22	O	0.688840	1.085701	0.326442
O23	O	0.688839	1.085701	-0.014695
O24	O	0.721441	0.793262	0.310140
O25	O	0.879545	1.085701	-0.014696
O26	O	0.897771	0.922219	0.317328
O27	O	0.912147	0.793262	0.310139
O28	O	0.879545	1.085701	0.135736
O29	O	1.253284	0.793262	-0.221704
O30	O	0.556633	0.922219	0.317329
O31	O	0.538407	1.085701	0.326442
O32	O	0.538407	1.085701	0.135737
O33	O	1.271510	0.629780	-0.040112
O34	O	1.253284	0.793261	-0.030998
O35	O	0.787328	0.905860	0.218893
O36	O	0.776599	1.002100	0.111993
O37	O	1.011860	0.905860	-0.005638
O38	O	1.022589	0.809621	0.101263
C39	C	0.604852	0.857741	0.047813
C40	C	0.502999	0.857741	0.047813
C41	C	0.266040	0.925256	0.130335
C42	C	0.371309	0.925257	0.130336
C43	C	0.933638	0.600476	0.033471
C44	C	0.943372	0.513163	0.028604
C45	C	0.961152	0.353319	0.019715
C46	C	0.848770	0.362155	0.075907
C47	C	0.858663	0.273212	0.070961
C48	C	0.951262	0.442268	0.024660
C49	C	1.205064	0.857740	0.047812
C50	C	1.306917	0.857740	0.047812
C51	C	0.904957	0.857741	-0.252292
C52	C	0.904957	0.857741	-0.354145
C53	C	0.876278	1.115005	0.062154
C54	C	0.866544	1.202318	0.067021
C55	C	1.021662	0.810000	-0.457907
C56	C	1.021664	0.809999	-0.563179
C57	C	0.904959	0.857740	0.347917
C58	C	0.904959	0.857740	0.449770
C59	C	0.576172	1.115005	0.062154
C60	C	0.464585	1.202318	0.067022
C61	C	0.604853	0.857741	0.347918
C62	C	0.503000	0.857741	0.449771
C63	C	0.576173	1.115005	0.362259
C64	C	0.464586	1.202318	0.468979
C65	C	1.233743	0.600476	-0.266634
C66	C	1.345330	0.513163	-0.373354
C67	C	1.233744	0.600476	0.033471
C68	C	1.345331	0.513163	0.028603
C69	C	1.205063	0.857740	-0.252293
C70	C	1.306916	0.857740	-0.354146
C71	C	0.417783	1.193086	0.007896
C72	C	0.312949	1.275118	0.012446
C73	C	0.254913	1.366382	0.076130
C74	C	0.301725	1.375613	0.135258
C75	C	0.406563	1.293581	0.130700
C76	C	0.406583	1.293566	0.463296
C77	C	0.301747	1.375614	0.563562
C78	C	0.254912	1.366412	0.669511
C79	C	0.312926	1.275154	0.675192
C80	C	0.417766	1.193108	0.574927
C81	C	1.403346	0.421915	-0.367671
C82	C	1.508210	0.339867	-0.467937
C83	C	1.555051	0.349070	-0.573886
C84	C	1.497031	0.440327	-0.579567
C85	C	1.392175	0.522373	-0.479301
C86	C	1.392144	0.522395	0.087719
C87	C	1.497004	0.440363	0.083142
C88	C	1.555043	0.349099	0.019455
C89	C	1.508227	0.339868	-0.039668
C90	C	1.403375	0.421900	-0.035097
C91	C	0.452269	0.905482	0.553533
C92	C	0.346999	0.905483	0.658805
H93	H	0.336488	0.983057	0.200991
H94	H	0.486776	0.946350	0.564431
H95	H	0.745127	0.436517	0.127728
H96	H	1.121575	0.769132	-0.468806
H97	H	0.537831	0.799933	-0.022839
N98	N	0.779590	0.909042	-0.438584
N99	N	0.669869	0.953936	-0.426365
H100	H	0.581324	0.990173	-0.347509
N101	N	0.242516	1.468815	0.557723
N102	N	0.284343	1.477009	0.463114
H103	H	0.242514	1.542830	0.458986
N104	N	1.147004	0.758713	-0.674844
N105	N	1.146830	0.758778	-0.760202
H106	H	1.235355	0.722553	-0.839070
N107	N	0.459753	0.806445	0.436082
N108	N	0.477797	0.740335	0.472790
H109	H	0.447259	0.704103	0.463118
H110	H	0.465035	1.118782	-0.043976
N111	N	1.662164	0.265247	-0.676288
N112	N	1.713942	0.183783	-0.671185
H113	H	1.789590	0.124579	-0.743503
N114	N	1.355525	0.412484	-0.259465
N115	N	1.407358	0.330997	-0.254427
H116	H	1.373595	0.324327	-0.178010
H117	H	0.350512	0.816872	0.556851
H118	H	0.805043	0.898616	-0.343246
N119	N	1.567420	0.246669	-0.462089
N120	N	1.495340	0.222219	-0.413520
H121	H	1.537148	0.156401	-0.409383
N122	N	0.124370	0.997770	0.218956
N123	N	0.039057	0.997668	0.218827
H124	H	-0.061001	1.048883	0.281418
N125	N	0.448582	0.785236	-0.040837
N126	N	0.517851	0.808297	-0.103291
H127	H	0.617903	0.757091	-0.165904
H128	H	1.064787	0.278962	-0.032103
H129	H	0.274849	1.267583	-0.035703
H130	H	0.169547	1.433169	0.079833
H131	H	1.535182	0.447808	-0.665842
N132	N	0.292276	0.956766	0.770469
N133	N	0.206833	0.956698	0.855828
H134	H	0.168180	0.992919	0.934696
H135	H	0.254457	1.449931	0.187108
N136	N	0.454346	1.303038	0.191109
N137	N	0.402505	1.384533	0.247963
H138	H	0.436247	1.391219	0.290630
H139	H	0.444700	1.301077	0.377037
N140	N	0.147819	1.450234	0.771913
N141	N	0.096047	1.531698	0.766810
H142	H	0.020410	1.590902	0.839128
N143	N	0.265055	1.265780	0.783429
N144	N	0.171438	1.339050	0.872933
H145	H	0.137617	1.332434	0.949380
N146	N	0.476992	1.099910	0.580762
N147	N	0.435150	1.091718	0.675372
H148	H	0.476975	1.025898	0.679502
H149	H	1.344939	0.596669	-0.483942
H150	H	1.344895	0.596700	0.139588
N151	N	1.544822	0.449805	0.143528
N152	N	1.593423	0.492623	0.121074
H153	H	1.627194	0.499293	0.163721
N154	N	1.662149	0.265320	0.014800
N155	N	1.703923	0.273588	0.067594
H156	H	1.779566	0.214423	0.064313
N157	N	1.567538	0.246634	-0.104718
N158	N	1.661149	0.173408	-0.108776
H159	H	1.703038	0.107558	-0.154713
H160	H	1.365265	0.414369	-0.083234
