data_functionalizedCrystal
_audit_creation_method	'MofGen! by Chris Wilmer'
_symmetry_space_group_name_H-M	'P1'
_symmetry_Int_Tables_number	1
_symmetry_cell_setting	triclinic
loop_
_symmetry_equiv_pos_as_xyz
  x,y,z
_cell_length_a	8.497365
_cell_length_b	17.077402
_cell_length_c	17.077404
_cell_angle_alpha	89.976892
_cell_angle_beta	90.034295
_cell_angle_gamma	89.944783
loop_
_atom_site_label
_atom_site_type_symbol
_atom_site_fract_x
_atom_site_fract_y
_atom_site_fract_z
Zn1	Zn	-0.891989	-0.312306	-1.200169
Zn2	Zn	-0.391989	0.187694	-0.700169
Zn3	Zn	-0.628174	-0.443640	-1.200042
Zn4	Zn	-0.128174	0.056360	-0.700042
Zn5	Zn	-0.628208	-0.312392	-1.068867
Zn6	Zn	-0.128208	0.187608	-0.568867
Zn7	Zn	-0.891898	-0.443535	-1.068869
Zn8	Zn	-0.391898	0.056465	-0.568869
O9	O	-0.760068	-0.377968	-1.134487
O10	O	-0.260068	0.122032	-0.634487
O11	O	-0.857018	-0.329736	-1.309999
O12	O	-0.357018	0.170264	-0.809999
O13	O	-0.407416	-0.426309	-1.182588
O14	O	0.092584	0.073691	-0.682588
O15	O	-0.663252	-0.202534	-1.086337
O16	O	-0.163252	0.297466	-0.586337
O17	O	-0.663194	-0.426226	-1.309906
O18	O	-0.163194	0.073774	-0.809906
O19	O	-0.857051	-0.202471	-1.182804
O20	O	-0.357051	0.297529	-0.682804
O21	O	-0.407441	-0.329882	-1.086214
O22	O	0.092559	0.170118	-0.586214
O23	O	-0.663163	-0.329781	-0.959021
O24	O	-0.163163	0.170219	-0.459021
O25	O	-1.112673	-0.426047	-1.086340
O26	O	-0.612673	0.073953	-0.586340
O27	O	-0.856895	-0.426130	-0.959022
O28	O	-0.356895	0.073870	-0.459022
O29	O	-1.112740	-0.329634	-1.182806
O30	O	-0.612740	0.170366	-0.682806
O31	O	-0.663105	-0.553473	-1.182590
O32	O	-0.163105	-0.053473	-0.682590
O33	O	-0.856862	-0.553396	-1.086217
O34	O	-0.356862	-0.053396	-0.586217
C35	C	-0.760024	-0.377954	-0.930539
C36	C	-0.260024	0.122046	-0.430539
C37	C	-0.760043	-0.377967	-0.843289
C38	C	-0.260043	0.122033	-0.343289
C39	C	-0.760005	-0.581916	-1.134411
C40	C	-0.260005	-0.081916	-0.634411
C41	C	-0.760030	-0.669166	-1.134451
C42	C	-0.260030	-0.169166	-0.634451
C43	C	-0.659250	-0.710170	-1.184683
C44	C	-0.159250	-0.210170	-0.684683
C45	C	-0.659290	-0.792150	-1.184722
C46	C	-0.159290	-0.292150	-0.684722
C47	C	-0.760104	-0.833125	-1.134523
C48	C	-0.260104	-0.333125	-0.634523
C49	C	-0.860896	-0.792115	-1.084288
C50	C	-0.360896	-0.292115	-0.584288
C51	C	-0.860863	-0.710136	-1.084254
C52	C	-0.360863	-0.210136	-0.584254
C53	C	-0.860956	-0.962985	-1.084361
C54	C	-0.360956	-0.462985	-0.584361
C55	C	-0.860988	-1.044970	-1.084394
C56	C	-0.360988	-0.544970	-0.584394
C57	C	-0.659383	-1.044999	-1.184828
C58	C	-0.159383	-0.544999	-0.684828
C59	C	-0.659350	-0.963020	-1.184794
C60	C	-0.159350	-0.463020	-0.684794
C61	C	-0.760140	-0.922016	-1.134558
C62	C	-0.260140	-0.422016	-0.634558
C63	C	-0.350187	-0.378054	-1.134430
C64	C	0.149813	0.121946	-0.634430
C65	C	-0.171544	-0.377893	-1.134542
C66	C	0.328456	0.122107	-0.634542
C67	C	-0.760112	-0.377983	-1.339231
C68	C	-0.260112	0.122017	-0.839231
C69	C	-0.760131	-0.377989	-1.426481
C70	C	-0.260131	0.122011	-0.926481
C71	C	-0.760165	-0.173224	-1.134584
C72	C	-0.260165	0.326776	-0.634584
C73	C	-0.760207	-0.085974	-1.134626
C74	C	-0.260207	0.414026	-0.634626
C75	C	-0.860757	-0.428212	-0.802320
C76	C	-0.360757	0.071788	-0.302320
C77	C	-0.860782	-0.428214	-0.720340
C78	C	-0.360782	0.071786	-0.220340
C79	C	-0.760084	-0.377974	-0.679330
C80	C	-0.260084	0.122026	-0.179330
C81	C	-0.659365	-0.327723	-0.720305
C82	C	-0.159365	0.172277	-0.220305
C83	C	-0.659349	-0.327718	-0.802284
C84	C	-0.159349	0.172282	-0.302284
C85	C	-0.659403	-0.327738	-0.549435
C86	C	-0.159403	0.172262	-0.049435
C87	C	-0.659417	-0.327744	-0.467450
C88	C	-0.159417	0.172256	0.032550
C89	C	-0.860836	-0.428234	-0.467491
C90	C	-0.360836	0.071766	0.032509
C91	C	-0.860820	-0.428229	-0.549470
C92	C	-0.360820	0.071771	-0.049470
C93	C	-0.760099	-0.377979	-0.590439
C94	C	-0.260099	0.122021	-0.090439
H95	H	-0.577148	-0.676814	-1.225557
H96	H	-0.077148	-0.176814	-0.725557
H97	H	-0.942931	-0.676752	-1.043351
H98	H	-0.442931	-0.176752	-0.543351
H99	H	-0.577223	-0.825532	-1.225625
H100	H	-0.077223	-0.325532	-0.725625
F101	F	-0.552050	-0.919414	-1.238220
F102	F	-0.052050	-0.419414	-0.738220
H103	H	-0.943036	-0.929602	-1.043456
H104	H	-0.443036	-0.429602	-0.543456
H105	H	-0.577438	-0.286825	-0.434062
H106	H	-0.077438	0.213175	0.065938
H107	H	-0.577321	-1.078389	-1.225735
H108	H	-0.077321	-0.578389	-0.725735
F109	F	-0.552206	-0.274255	-0.593035
F110	F	-0.052206	0.225745	-0.093035
F111	F	-0.968271	-1.088577	-1.030960
F112	F	-0.468271	-0.588577	-0.530960
F113	F	-0.967928	-0.481689	-0.845959
F114	F	-0.467928	0.018311	-0.345959
H115	H	-0.942988	-0.825483	-1.043419
H116	H	-0.442988	-0.325483	-0.543419
H117	H	-0.577382	-0.286813	-0.686908
H118	H	-0.077382	0.213187	-0.186908
H119	H	-0.942793	-0.469129	-0.686987
H120	H	-0.442793	0.030871	-0.186987
F121	F	-0.967984	-0.481705	-0.593114
F122	F	-0.467984	0.018295	-0.093114
F123	F	-0.968050	-0.481705	-0.423888
F124	F	-0.468050	0.018295	0.076112
H125	H	-0.577346	-0.286799	-0.835639
H126	H	-0.077346	0.213201	-0.335639
