data_functionalizedCrystal
_audit_creation_method	'MofGen! by Chris Wilmer'
_symmetry_space_group_name_H-M	'P1'
_symmetry_Int_Tables_number	1
_symmetry_cell_setting	triclinic
loop_
_symmetry_equiv_pos_as_xyz
  x,y,z
_cell_length_a	20.453700
_cell_length_b	15.866870
_cell_length_c	11.168136
_cell_angle_alpha	69.445066
_cell_angle_beta	71.491317
_cell_angle_gamma	102.655915
loop_
_atom_site_label
_atom_site_type_symbol
_atom_site_fract_x
_atom_site_fract_y
_atom_site_fract_z
V1	V	-1.372922	-0.132652	0.455442
O2	O	-1.356347	0.006360	0.383245
O3	O	-1.367927	-0.263012	0.513426
O4	O	-1.364973	-0.130618	0.626201
O5	O	-1.359322	-0.126951	0.269688
V6	V	-1.531627	-0.116024	0.425802
O7	O	-1.465424	-0.169127	0.520459
O8	O	-1.589191	-0.079549	0.360785
O9	O	-1.462219	0.014337	0.367819
O10	O	-1.587334	-0.255035	0.498000
O11	O	-1.584359	-0.121725	0.611556
O12	O	-1.465173	-0.118058	0.255043
C13	C	-1.318706	-0.294791	0.522006
C14	C	-1.341773	-0.401363	0.570553
V15	V	-1.039588	-0.132652	0.455442
O16	O	-1.023014	0.006360	0.383245
O17	O	-1.034594	-0.263012	0.513426
O18	O	-1.031640	-0.130618	0.626201
O19	O	-1.025988	-0.126951	0.269688
V20	V	-1.198294	-0.116024	0.425802
O21	O	-1.132090	-0.169127	0.520459
O22	O	-1.255857	-0.079549	0.360785
O23	O	-1.128886	0.014337	0.367819
O24	O	-1.254001	-0.255035	0.498000
O25	O	-1.251026	-0.121725	0.611556
O26	O	-1.131840	-0.118058	0.255043
V27	V	-0.706255	-0.132652	0.455442
O28	O	-0.689680	0.006360	0.383245
O29	O	-0.701261	-0.263012	0.513426
O30	O	-0.698306	-0.130618	0.626201
O31	O	-0.692655	-0.126951	0.269688
V32	V	-0.864960	-0.116024	0.425802
O33	O	-0.798757	-0.169127	0.520459
O34	O	-0.922524	-0.079549	0.360785
O35	O	-0.795552	0.014337	0.367819
O36	O	-0.920667	-0.255035	0.498000
O37	O	-0.917693	-0.121725	0.611556
O38	O	-0.798507	-0.118058	0.255043
C39	C	-1.316489	-0.683430	0.120240
C40	C	-1.338169	-0.783575	0.165899
C41	C	-1.378628	-0.810936	0.409896
C42	C	-1.356948	-0.710792	0.364257
C43	C	-1.325880	-0.647046	0.219427
C44	C	-1.366339	-0.674408	0.463444
C45	C	-1.344664	-0.574272	0.417808
C46	C	-1.313598	-0.510521	0.272985
C47	C	-1.304205	-0.546910	0.173791
C48	C	-1.397412	-0.738155	0.608273
C49	C	-1.406802	-0.701771	0.707460
C50	C	-1.385123	-0.601634	0.661825
C51	C	-1.354057	-0.537882	0.517002
C52	C	-1.394516	-0.565244	0.761018
C53	C	-1.372841	-0.465108	0.715382
C54	C	-1.332382	-0.437747	0.471366
C55	C	-1.314937	-0.125908	0.665860
C56	C	-1.335606	-0.125107	0.805858
C57	C	-1.399221	0.046110	0.359237
C58	C	-1.369235	0.152681	0.310699
C59	C	-1.402990	-0.122771	0.215379
C60	C	-1.375400	-0.123567	0.075377
C61	C	-0.985373	-0.294791	0.522006
C62	C	-1.008439	-0.401363	0.570553
C63	C	-1.403203	-0.129297	0.876501
C64	C	-1.424567	-0.128470	1.021196
C65	C	-0.981604	-0.125908	0.665860
C66	C	-1.002273	-0.125107	0.805858
C67	C	-1.065888	0.046110	0.359237
C68	C	-1.035901	0.152681	0.310699
C69	C	-1.069657	-0.122771	0.215379
C70	C	-1.042066	-0.123567	0.075377
C71	C	-0.652039	-0.294791	0.522006
C72	C	-0.675106	-0.401363	0.570553
C73	C	-0.648270	-0.125908	0.665860
C74	C	-0.668940	-0.125107	0.805858
C75	C	-0.732555	0.046110	0.359237
C76	C	-0.702568	0.152681	0.310699
C77	C	-0.736324	-0.122771	0.215379
C78	C	-0.708733	-0.123567	0.075377
C79	C	-1.080714	-0.456298	0.601935
C80	C	-1.102400	-0.556436	0.647571
C81	C	-1.051810	-0.601636	0.661813
C82	C	-0.979530	-0.546693	0.630431
C83	C	-0.957846	-0.446558	0.584806
C84	C	-1.078623	0.207616	0.279320
C85	C	-1.050452	0.307753	0.233691
C86	C	-0.979560	0.352952	0.219452
C87	C	-0.936835	0.298011	0.250830
C88	C	-0.965004	0.197876	0.296448
C89	C	-0.747380	-0.456298	0.601935
C90	C	-0.769067	-0.556436	0.647571
C91	C	-0.718476	-0.601636	0.661813
C92	C	-0.646197	-0.546693	0.630431
C93	C	-0.624513	-0.446558	0.584806
C94	C	-0.745290	0.207616	0.279320
C95	C	-0.717118	0.307753	0.233691
C96	C	-0.646227	0.352952	0.219452
C97	C	-0.603501	0.298011	0.250830
C98	C	-0.631671	0.197876	0.296448
C99	C	-1.069869	-0.129297	0.876501
C100	C	-1.091234	-0.128470	1.021196
C101	C	-0.736536	-0.129297	0.876501
C102	C	-0.757900	-0.128470	1.021196
H103	H	-1.307072	-0.385840	0.353430
H104	H	-0.984159	-0.119986	1.014669
Br105	Br	-1.265502	-0.118096	0.883577
H106	H	-0.778589	-0.133491	0.829853
H107	H	-0.650826	-0.119986	1.014669
H108	H	-0.788582	-0.419509	0.590337
H109	H	-0.626883	-0.120901	0.852497
Br110	Br	-0.526419	-0.372014	0.542212
H111	H	-1.136349	0.170828	0.290909
H112	H	-1.278895	-0.495003	0.055855
Br113	Br	-1.284191	-0.374621	0.211046
Br114	Br	-1.274309	-0.596908	-0.076319
H115	H	-1.380498	-0.435485	0.796152
Br116	Br	-1.139972	-0.136299	0.798775
H117	H	-1.482475	-0.132062	1.081919
Br118	Br	-1.187756	-0.134459	1.122398
H119	H	-0.930212	0.153154	0.322006
H120	H	-0.815809	-0.132062	1.081919
H121	H	-1.330517	-0.813192	0.085118
Br122	Br	-1.420796	-0.897456	0.606445
Br123	Br	-1.473305	-0.136299	0.798775
Br124	Br	-0.840623	0.359369	0.231485
H125	H	-0.623298	0.434489	0.182304
Br126	Br	-1.448971	-0.788291	0.904009
Br127	Br	-0.747917	-0.737536	0.723735
Br128	Br	-0.775114	0.382295	0.191116
Br129	Br	-1.436693	-0.651767	0.957567
H130	H	-0.960216	-0.120901	0.852497
H131	H	-0.827922	-0.601156	0.673113
H132	H	-0.545779	0.334828	0.239227
H133	H	-1.317493	-0.119986	1.014669
Br134	Br	-0.573680	0.123334	0.339030
H135	H	-1.121915	-0.419509	0.590337
Br136	Br	-1.200495	-0.630979	0.690147
H137	H	-0.605011	-0.583510	0.642035
Br138	Br	-0.841503	0.146296	0.298637
H139	H	-1.415060	-0.819691	0.645425
H140	H	-0.938345	-0.583510	0.642035
Br141	Br	-1.081250	-0.737536	0.723735
H142	H	-0.898992	-0.401836	0.559250
H143	H	-0.956631	0.434489	0.182304
Br144	Br	-1.108448	0.382295	0.191116
