data_functionalizedCrystal
_audit_creation_method	'MofGen! by Chris Wilmer'
_symmetry_space_group_name_H-M	'P1'
_symmetry_Int_Tables_number	1
_symmetry_cell_setting	triclinic
loop_
_symmetry_equiv_pos_as_xyz
  x,y,z
_cell_length_a	10.654545
_cell_length_b	16.109301
_cell_length_c	9.130313
_cell_angle_alpha	89.994060
_cell_angle_beta	89.996934
_cell_angle_gamma	83.972280
loop_
_atom_site_label
_atom_site_type_symbol
_atom_site_fract_x
_atom_site_fract_y
_atom_site_fract_z
O1	O	1.666259	0.116756	-0.121790
O2	O	1.300629	0.127885	-0.121797
O3	O	1.493488	0.001349	-0.121778
O4	O	1.473400	0.243292	-0.121808
O5	O	1.493475	0.001346	0.121821
O6	O	1.300615	0.127882	0.121802
O7	O	1.666246	0.116752	0.121809
Cu8	Cu	1.483429	0.122317	0.144048
Cu9	Cu	1.483445	0.122321	-0.144036
O10	O	1.473386	0.243288	0.121790
C11	C	1.253835	0.127067	0.000002
C12	C	1.114425	0.124625	0.000000
C13	C	1.048929	0.123473	0.132787
C14	C	0.917940	0.121164	0.132787
C15	C	0.917955	0.121163	-0.132798
C16	C	1.048942	0.123465	-0.132796
C17	C	1.492668	-0.029632	0.000022
C18	C	1.490228	-0.121942	0.000024
C19	C	1.598994	-0.343569	0.000003
C20	C	1.596692	-0.430303	-0.000009
C21	C	1.367871	-0.411787	-0.000008
C22	C	1.370175	-0.325054	-0.000006
C23	C	1.485740	-0.290948	0.000007
C24	C	1.481134	-0.464414	-0.000007
C25	C	1.478638	-0.558455	-0.000020
C26	C	1.488237	-0.196901	0.000017
C27	C	1.713039	0.117571	0.000007
C28	C	1.852450	0.120013	-0.000001
N29	N	1.483428	0.122313	0.346671
C30	C	1.474207	0.274270	-0.000013
C31	C	1.476646	0.366580	-0.000025
N32	N	1.483457	0.122318	-0.346658
C33	C	1.568854	0.066307	0.423331
C34	C	1.568866	0.066307	0.576668
C35	C	1.398021	0.178327	0.576671
C36	C	1.398004	0.178322	0.423337
H37	H	0.864623	0.120219	-0.240916
N38	N	1.660953	0.005886	0.340622
H39	H	1.716534	0.037990	0.276973
H40	H	1.714986	-0.029588	0.412538
H41	H	1.688916	-0.473144	-0.000016
N42	N	1.243227	-0.448569	-0.000006
H43	H	1.237170	-0.484138	-0.090305
H44	H	1.237245	-0.484102	0.090359
H45	H	1.277943	-0.282208	-0.000007
H46	H	1.693095	-0.315803	0.000010
H47	H	0.864619	0.120226	0.240915
H48	H	1.638427	0.020700	0.639080
N49	N	1.119559	0.124723	0.276010
H50	H	1.058186	0.123642	0.360128
H51	H	1.184116	0.074230	0.281805
H52	H	1.102271	0.124401	-0.240934
N53	N	1.305890	0.238735	0.659361
H54	H	1.318863	0.230242	0.768131
H55	H	1.320359	0.297805	0.632536
H56	H	1.328433	0.223930	0.360916
