data_functionalizedCrystal
_audit_creation_method	'MofGen! by Chris Wilmer'
_symmetry_space_group_name_H-M	'P1'
_symmetry_Int_Tables_number	1
_symmetry_cell_setting	triclinic
loop_
_symmetry_equiv_pos_as_xyz
  x,y,z
_cell_length_a	14.908571
_cell_length_b	18.215406
_cell_length_c	18.215399
_cell_angle_alpha	89.984834
_cell_angle_beta	86.687722
_cell_angle_gamma	86.697668
loop_
_atom_site_label
_atom_site_type_symbol
_atom_site_fract_x
_atom_site_fract_y
_atom_site_fract_z
Zn1	Zn	1.379369	-0.358024	-0.481003
Zn2	Zn	1.879369	0.141976	0.018997
Zn3	Zn	1.379321	-0.481092	-0.357962
Zn4	Zn	1.879321	0.018908	0.142038
Zn5	Zn	1.228502	-0.350934	-0.350861
Zn6	Zn	1.728502	0.149066	0.149139
Zn7	Zn	1.228523	-0.473941	-0.473901
Zn8	Zn	1.728523	0.026059	0.026099
O9	O	1.303929	-0.415998	-0.415932
O10	O	1.803929	0.084002	0.084068
O11	O	1.505611	-0.380309	-0.470626
O12	O	2.005611	0.119691	0.029374
O13	O	1.359285	-0.463852	-0.254035
O14	O	1.859285	0.036148	0.245965
O15	O	1.248526	-0.248891	-0.368125
O16	O	1.748526	0.251109	0.131875
O17	O	1.505575	-0.470727	-0.380229
O18	O	2.005575	0.029273	0.119771
O19	O	1.359368	-0.254099	-0.463740
O20	O	1.859368	0.245901	0.036260
O21	O	1.248479	-0.368225	-0.248817
O22	O	1.748479	0.131775	0.251183
O23	O	1.102257	-0.361291	-0.361238
O24	O	1.602257	0.138709	0.138762
O25	O	1.248563	-0.458539	-0.577829
O26	O	1.748563	0.041461	-0.077829
O27	O	1.102273	-0.451664	-0.451635
O28	O	1.602273	0.048336	0.048365
O29	O	1.359389	-0.373374	-0.583047
O30	O	1.859389	0.126626	-0.083047
O31	O	1.359306	-0.583128	-0.373341
O32	O	1.859306	-0.083128	0.126659
O33	O	1.248516	-0.577873	-0.458521
O34	O	1.748516	-0.077873	0.041479
C35	C	1.069530	-0.404933	-0.404895
C36	C	1.569530	0.095067	0.095105
C37	C	0.969254	-0.400217	-0.400191
C38	C	1.469254	0.099783	0.099809
C39	C	1.303950	-0.224046	-0.415933
C40	C	1.803950	0.275954	0.084067
C41	C	1.303959	-0.142247	-0.415933
C42	C	1.803959	0.357753	0.084067
C43	C	1.303932	-0.607204	-0.415948
C44	C	1.803932	-0.107204	0.084052
C45	C	1.304016	-0.689007	-0.415983
C46	C	1.804016	-0.189007	0.084017
C47	C	0.780888	-0.485606	-0.485356
C48	C	1.280888	0.014394	0.014644
C49	C	0.686669	-0.481177	-0.480939
C50	C	1.186669	0.018823	0.019061
C51	C	0.686595	-0.386927	-0.386944
C52	C	1.186595	0.113073	0.113056
C53	C	0.780814	-0.391356	-0.391361
C54	C	1.280814	0.108644	0.108639
C55	C	0.827957	-0.440698	-0.440568
C56	C	1.327957	0.059302	0.059432
C57	C	0.922178	-0.445130	-0.444981
C58	C	1.422178	0.054870	0.055019
C59	C	0.922102	-0.350876	-0.350991
C60	C	1.422102	0.149124	0.149009
C61	C	0.827883	-0.346448	-0.346573
C62	C	1.327883	0.153552	0.153427
C63	C	1.539243	-0.427106	-0.427012
C64	C	2.039243	0.072894	0.072988
C65	C	1.639519	-0.431840	-0.431734
C66	C	2.139519	0.068160	0.068266
C67	C	1.303984	-0.415950	-0.607887
C68	C	1.803984	0.084050	-0.107887
C69	C	1.304007	-0.415929	-0.689687
C70	C	1.804007	0.084071	-0.189687
C71	C	1.246272	0.048659	-0.366174
C72	C	1.746272	0.548659	0.133826
C73	C	1.246280	0.125517	-0.366184
C74	C	1.746280	0.625517	0.133816
C75	C	1.361705	0.120082	-0.465748
C76	C	1.861705	0.620082	0.034252
C77	C	1.361693	0.043225	-0.465741
C78	C	1.861693	0.543225	0.034259
C79	C	1.303978	0.007515	-0.415951
C80	C	1.803978	0.507515	0.084049
C81	C	1.303998	0.161230	-0.415966
C82	C	1.803998	0.661230	0.084034
C83	C	1.304006	0.244564	-0.415977
C84	C	1.804006	0.744564	0.084023
C85	C	1.303968	-0.075823	-0.415941
C86	C	1.803968	0.424177	0.084059
C87	C	1.361735	-0.371541	-0.880601
C88	C	1.861735	0.128459	-0.380601
C89	C	1.361746	-0.371520	-0.957460
C90	C	1.861746	0.128480	-0.457460
C91	C	1.246343	-0.460206	-0.952015
C92	C	1.746343	0.039794	-0.452015
C93	C	1.246328	-0.460223	-0.875157
C94	C	1.746328	0.039777	-0.375157
C95	C	1.304029	-0.415891	-0.839452
C96	C	1.804029	0.084109	-0.339452
C97	C	1.304055	-0.415854	-0.993169
C98	C	1.804055	0.084146	-0.493169
C99	C	1.304066	-0.415832	-1.076504
C100	C	1.804066	0.084168	-0.576504
C101	C	1.304017	-0.415913	-0.756113
C102	C	1.804017	0.084087	-0.256113
C103	C	1.303926	-0.415995	-0.224726
C104	C	1.803926	0.084005	0.275274
C105	C	1.304077	-0.415816	-0.142934
C106	C	1.804077	0.084184	0.357066
H107	H	0.960560	-0.485308	-0.485047
H108	H	1.460560	0.014692	0.014953
H109	H	0.819273	-0.525786	-0.525418
H110	H	1.319273	-0.025786	-0.025418
H111	H	1.199331	-0.496337	-0.841652
H112	H	1.699331	0.003663	-0.341652
H113	H	1.408683	0.009725	-0.506280
H114	H	1.908683	0.509725	-0.006280
C115	C	0.776021	-0.292180	-0.292447
C116	C	1.276021	0.207820	0.207553
H117	H	0.713166	-0.295977	-0.296226
H118	H	1.213166	0.204023	0.203774
H119	H	0.791459	-0.243471	-0.304007
H120	H	1.291459	0.256529	0.195993
H121	H	0.791436	-0.303626	-0.243705
H122	H	1.291436	0.196374	0.256295
H123	H	1.408716	-0.335442	-0.851532
H124	H	1.908716	0.164558	-0.351532
C125	C	1.425226	-0.322738	-1.002721
C126	C	1.925226	0.177262	-0.502721
H127	H	1.459590	-0.296345	-0.970446
H128	H	1.959590	0.203655	-0.470446
H129	H	1.390727	-0.289036	-1.031077
H130	H	1.890727	0.210964	-0.531077
H131	H	1.464540	-0.352744	-1.034555
H132	H	1.964540	0.147256	-0.534555
C133	C	0.634891	-0.530576	-0.530202
C134	C	1.134891	-0.030576	-0.030202
H135	H	0.572026	-0.520869	-0.520530
H136	H	1.072026	-0.020869	-0.020530
H137	H	0.650336	-0.580736	-0.520085
H138	H	1.150336	-0.080736	-0.020085
H139	H	0.650360	-0.520587	-0.580393
H140	H	1.150360	-0.020587	-0.080393
C141	C	0.973876	-0.301477	-0.301717
C142	C	1.473876	0.198523	0.198283
H143	H	0.932302	-0.271463	-0.271776
H144	H	1.432302	0.228537	0.228224
H145	H	1.010647	-0.271174	-0.331634
H146	H	1.510647	0.228826	0.168366
H147	H	1.010610	-0.331326	-0.271329
H148	H	1.510610	0.168674	0.228671
H149	H	1.199275	0.019586	-0.325633
H150	H	1.699275	0.519586	0.174367
C151	C	1.182808	0.170771	-0.311427
C152	C	1.682808	0.670771	0.188573
H153	H	1.148441	0.138494	-0.281771
H154	H	1.648441	0.638494	0.218229
H155	H	1.143511	0.202615	-0.337729
H156	H	1.643511	0.702615	0.162271
H157	H	1.217321	0.199117	-0.280987
H158	H	1.717321	0.699117	0.219013
H159	H	1.199367	-0.496301	-0.981095
H160	H	1.699367	0.003699	-0.481095
H161	H	0.648195	-0.346751	-0.346887
H162	H	1.148195	0.153249	0.153113
H163	H	1.408697	0.149164	-0.506285
H164	H	1.908697	0.649164	-0.006285
