data_functionalizedCrystal
_audit_creation_method	'MofGen! by Chris Wilmer'
_symmetry_space_group_name_H-M	'P1'
_symmetry_Int_Tables_number	1
_symmetry_cell_setting	triclinic
loop_
_symmetry_equiv_pos_as_xyz
  x,y,z
_cell_length_a	15.995292
_cell_length_b	15.995343
_cell_length_c	15.072220
_cell_angle_alpha	89.994148
_cell_angle_beta	89.986330
_cell_angle_gamma	83.478900
loop_
_atom_site_label
_atom_site_type_symbol
_atom_site_fract_x
_atom_site_fract_y
_atom_site_fract_z
O1	O	1.111023	0.107690	-0.073816
O2	O	0.867241	0.121068	-0.073814
O3	O	0.995799	-0.007511	-0.073798
O4	O	0.982465	0.236268	-0.073831
O5	O	0.995768	-0.007504	0.073767
O6	O	0.867209	0.121075	0.073751
O7	O	1.110991	0.107697	0.073749
Zn8	Zn	0.989095	0.114387	0.097179
Zn9	Zn	0.989137	0.114378	-0.097244
O10	O	0.982433	0.236275	0.073734
C11	C	0.836029	0.120527	-0.000031
C12	C	0.743077	0.118895	-0.000029
C13	C	0.405338	0.112893	-0.000038
C14	C	0.428648	0.205698	-0.000380
C15	C	0.525324	0.207462	-0.000044
C16	C	0.572894	0.115871	-0.000034
C17	C	0.543775	0.069477	0.084236
C18	C	0.446985	0.068360	0.084303
C19	C	0.447166	0.066457	-0.083506
C20	C	0.543658	0.069896	-0.084616
C21	C	0.667590	0.117549	-0.000029
C22	C	0.310643	0.111213	-0.000037
C23	C	0.995233	-0.038702	-0.000013
C24	C	0.993584	-0.131652	-0.000006
C25	C	1.142203	0.108238	-0.000036
C26	C	1.235156	0.109870	-0.000043
C27	C	0.990590	-0.301838	-0.000027
C28	C	0.897791	-0.325164	-0.000028
C29	C	0.896045	-0.421842	-0.000372
C30	C	0.987642	-0.469397	-0.000046
C31	C	1.034321	-0.440312	-0.084143
C32	C	1.035422	-0.343520	-0.084204
C33	C	1.036744	-0.343616	0.083611
C34	C	1.033318	-0.440111	0.084706
C35	C	0.985980	-0.564095	-0.000059
C36	C	0.992255	-0.207140	-0.000019
C37	C	0.982999	0.267467	-0.000053
C38	C	0.984648	0.360417	-0.000066
N39	N	0.989073	0.114393	0.229868
N40	N	0.989166	0.114365	-0.229933
C41	C	0.989135	0.114374	0.589070
C42	C	0.920115	0.182944	0.551455
C43	C	0.920274	0.183194	0.448629
C44	C	0.989104	0.114384	0.410866
C45	C	1.076470	0.133447	0.448153
C46	C	1.076083	0.133934	0.551011
C47	C	0.971568	0.026538	0.551182
C48	C	0.969563	0.027125	0.448319
C49	C	0.989091	0.114387	0.310152
C50	C	0.989154	0.114373	0.689783
H51	H	0.420153	0.100497	0.147289
H52	H	1.091565	0.197992	0.574983
C53	C	1.129016	-0.324702	0.084720
H54	H	1.156579	-0.350115	0.135404
H55	H	1.130774	-0.265575	0.086894
H56	H	1.156625	-0.346762	0.032542
H57	H	1.101734	-0.472172	-0.087036
C58	C	0.427324	-0.023557	0.089491
H59	H	0.478472	-0.060050	0.091556
H60	H	0.395995	-0.036273	0.038680
H61	H	0.395389	-0.031055	0.141457
H62	H	0.562240	0.103676	-0.146959
H63	H	1.016569	-0.026291	0.422617
H64	H	0.861808	-0.297151	0.060272
C65	C	0.586825	-0.021571	0.088491
H66	H	0.568323	-0.048462	0.139936
H67	H	0.646106	-0.021080	0.091018
H68	H	0.572587	-0.051349	0.037142
C69	C	1.039555	-0.042397	0.584048
H70	H	1.078461	-0.017815	0.620682
H71	H	1.068339	-0.068843	0.534585
H72	H	1.013804	-0.083053	0.617174
C73	C	0.551046	0.256552	-0.081642
H74	H	0.502369	0.275598	-0.115293
H75	H	0.588848	0.220822	-0.117291
H76	H	0.577775	0.303542	-0.062677
C77	C	0.390835	0.254027	-0.082013
H78	H	0.360488	0.218044	-0.116617
H79	H	0.434800	0.272498	-0.116714
H80	H	0.353868	0.301352	-0.063064
H81	H	0.563820	0.101701	0.146943
H82	H	0.931178	0.247759	0.577284
H83	H	0.859498	-0.440855	0.059895
H84	H	0.418851	0.095461	-0.147377
C85	C	1.147518	0.067783	0.415107
H86	H	1.199778	0.080497	0.438440
H87	H	1.149518	0.068965	0.352134
H88	H	1.137093	0.013372	0.434376
C89	C	0.588191	-0.020419	-0.091481
H90	H	0.625358	-0.031320	-0.042631
H91	H	0.619266	-0.026448	-0.145262
H92	H	0.547415	-0.059214	-0.090762
C93	C	0.850000	-0.285991	-0.081367
H94	H	0.886358	-0.255486	-0.115329
H95	H	0.802822	-0.248978	-0.062146
H96	H	0.831351	-0.329345	-0.116817
H97	H	0.433175	-0.001853	-0.084068
H98	H	1.100155	-0.473073	0.090037
H99	H	1.002318	-0.460393	-0.146969
H100	H	1.092321	0.196775	0.422375
H101	H	0.859707	-0.440269	-0.061014
H102	H	1.007452	-0.315343	0.147377
H103	H	0.399615	0.241274	0.059705
C104	C	0.992291	-0.307317	-0.169444
H105	H	0.974259	-0.351786	-0.203707
H106	H	1.030974	-0.279290	-0.202996
H107	H	0.945014	-0.268550	-0.154213
C108	C	0.987418	-0.465199	0.168759
H109	H	0.940614	-0.493407	0.152280
H110	H	0.968369	-0.416136	0.201796
H111	H	1.024959	-0.501559	0.204050
C112	C	1.127349	-0.323845	-0.089096
H113	H	1.163857	-0.374989	-0.091040
H114	H	1.139912	-0.292481	-0.038252
H115	H	1.134992	-0.291940	-0.141045
C116	C	0.550177	0.256817	0.081708
H117	H	0.501160	0.275861	0.114846
H118	H	0.577013	0.303804	0.062934
H119	H	0.587682	0.221219	0.117797
H120	H	0.855332	0.171839	0.423421
H121	H	0.931491	0.248376	0.424006
C122	C	0.887355	0.001785	0.586259
H123	H	0.862119	0.044794	0.624342
H124	H	0.897138	-0.049536	0.618300
H125	H	0.850843	-0.005150	0.537767
C126	C	0.832101	0.167869	0.584917
H127	H	0.836655	0.119626	0.622133
H128	H	0.797013	0.159126	0.535723
H129	H	0.808339	0.215556	0.617562
C130	C	1.147544	0.069032	0.584628
H131	H	1.176688	0.042491	0.535419
H132	H	1.124523	0.027892	0.619664
H133	H	1.185521	0.096684	0.619526
C134	C	0.882743	0.007577	0.415405
H135	H	0.858500	0.052398	0.378984
H136	H	0.847126	0.001415	0.464857
H137	H	0.889044	-0.043139	0.382047
