data_functionalizedCrystal
_audit_creation_method	'MofGen! by Chris Wilmer'
_symmetry_space_group_name_H-M	'P1'
_symmetry_Int_Tables_number	1
_symmetry_cell_setting	triclinic
loop_
_symmetry_equiv_pos_as_xyz
  x,y,z
_cell_length_a	12.759395
_cell_length_b	19.121063
_cell_length_c	12.759387
_cell_angle_alpha	92.403602
_cell_angle_beta	89.979491
_cell_angle_gamma	92.470426
loop_
_atom_site_label
_atom_site_type_symbol
_atom_site_fract_x
_atom_site_fract_y
_atom_site_fract_z
Zn1	Zn	1.588336	-0.279547	-0.611793
Zn2	Zn	1.580692	-0.397015	-0.443587
Zn3	Zn	1.412632	-0.279586	-0.436132
Zn4	Zn	1.405095	-0.396965	-0.619223
O5	O	1.496689	-0.338278	-0.527684
O6	O	1.734343	-0.295134	-0.589490
O7	O	1.558353	-0.381475	-0.295580
O8	O	1.442293	-0.181296	-0.453204
O9	O	1.728726	-0.381437	-0.465911
O10	O	1.571382	-0.181268	-0.582261
O11	O	1.434881	-0.295200	-0.290102
O12	O	1.264611	-0.295151	-0.460409
O13	O	1.429447	-0.381352	-0.765256
O14	O	1.259074	-0.381389	-0.594925
O15	O	1.564074	-0.295086	-0.759797
O16	O	1.551045	-0.495293	-0.473116
O17	O	1.422034	-0.495256	-0.602155
C18	C	1.223722	-0.338270	-0.527665
C19	C	1.106944	-0.338283	-0.527683
C20	C	1.101207	-0.428228	-0.667547
C21	C	1.043477	-0.473206	-0.737482
C22	C	0.933755	-0.473214	-0.737496
C23	C	0.881761	-0.428239	-0.667569
C24	C	0.939490	-0.383261	-0.597633
C25	C	1.049215	-0.383258	-0.597625
C26	C	0.945228	-0.293313	-0.457776
C27	C	1.054950	-0.293307	-0.457756
C28	C	0.893233	-0.248337	-0.387849
C29	C	0.950963	-0.203362	-0.317907
C30	C	1.060691	-0.203356	-0.317895
C31	C	1.112679	-0.248329	-0.387821
C32	C	1.484921	-0.520758	-0.539274
C33	C	1.479982	-0.598824	-0.544267
C34	C	1.544883	-0.635495	-0.479485
C35	C	1.540245	-0.708846	-0.484187
C36	C	1.470700	-0.745525	-0.553667
C37	C	1.405796	-0.708848	-0.618456
C38	C	1.410440	-0.635499	-0.613759
C39	C	1.453319	-0.966994	-0.571215
C40	C	1.448677	-1.040349	-0.575905
C41	C	1.583128	-1.040341	-0.441637
C42	C	1.587762	-0.966990	-0.436941
C43	C	1.522862	-0.930320	-0.501734
C44	C	1.465955	-0.820501	-0.558473
C45	C	1.527613	-0.855345	-0.496933
C46	C	1.770721	-0.338287	-0.527703
C47	C	1.887498	-0.338291	-0.527711
C48	C	1.496772	-0.338209	-0.801713
C49	C	1.496808	-0.338180	-0.918488
C50	C	1.508531	-0.155086	-0.516072
C51	C	1.513578	-0.077020	-0.511123
C52	C	1.637004	-0.248357	-0.912823
C53	C	1.707117	-0.203435	-0.964851
C54	C	1.707144	-0.203409	-1.074571
C55	C	1.637048	-0.248309	-1.132266
C56	C	1.566935	-0.293231	-1.080238
C57	C	1.566918	-0.293253	-0.970516
C58	C	1.426736	-0.383050	-1.085903
C59	C	1.426712	-0.383080	-0.976183
C60	C	1.356641	-0.427949	-1.143598
C61	C	1.286531	-0.472876	-1.091570
C62	C	1.286507	-0.472900	-0.981843
C63	C	1.356599	-0.428002	-0.924155
C64	C	1.496669	-0.338296	-0.254717
C65	C	1.496849	-0.338128	-0.137931
H66	H	0.803891	-0.248344	-0.387869
O67	O	1.398535	-0.856211	-0.626013
C68	C	1.455637	-0.898555	-0.696651
H69	H	1.534587	-0.909510	-0.660374
H70	H	1.409577	-0.950156	-0.713987
H71	H	1.468920	-0.870242	-0.772712
O72	O	1.603542	-0.744447	-0.421482
C73	C	1.668673	-0.786740	-0.484188
H74	H	1.676302	-0.764586	-0.565538
H75	H	1.749577	-0.787446	-0.446462
H76	H	1.632808	-0.842386	-0.491269
H77	H	1.357593	-0.605642	-0.666512
H78	H	0.908620	-0.166743	-0.260982
H79	H	1.636998	-0.248380	-0.823484
H80	H	1.202020	-0.248330	-0.387815
O81	O	1.775173	-0.159891	-0.908648
C82	C	1.760105	-0.169533	-0.800648
H83	H	1.722174	-0.223733	-0.789090
H84	H	1.839103	-0.164792	-0.758664
H85	H	1.706858	-0.127871	-0.766860
H86	H	1.190548	-0.428231	-0.667536
H87	H	1.764230	-0.166825	-1.116932
O88	O	1.116606	-0.159642	-0.249855
C89	C	1.047182	-0.119939	-0.188165
H90	H	0.967111	-0.148708	-0.186295
H91	H	1.079326	-0.112376	-0.104920
H92	H	1.038970	-0.066630	-0.223392
H93	H	1.229402	-0.509474	-0.939489
H94	H	1.644391	-0.937128	-0.380365
H95	H	1.085824	-0.509823	-0.794417
H96	H	1.400473	-0.937143	-0.623970
O97	O	1.637234	-0.248342	-1.238851
C98	C	1.736773	-0.266358	-1.276673
H99	H	1.778214	-0.296998	-1.215395
H100	H	1.727083	-0.300015	-1.352211
H101	H	1.785510	-0.216631	-1.292996
H102	H	1.356591	-0.428020	-0.834815
O103	O	1.381145	-1.076088	-0.643312
C104	C	1.390980	-1.148691	-0.633574
H105	H	1.424793	-1.158728	-0.553164
H106	H	1.310513	-1.176609	-0.642416
H107	H	1.445584	-1.169446	-0.697265
H108	H	1.601510	-0.605636	-0.422902
H109	H	1.635967	-1.070206	-0.388888
O110	O	1.338381	-0.744554	-0.686006
C111	C	1.395480	-0.786901	-0.756644
H112	H	1.474425	-0.797864	-0.720361
H113	H	1.349411	-0.838497	-0.773987
H114	H	1.408776	-0.758585	-0.832700
O115	O	1.356662	-0.428055	-1.250187
C116	C	1.379313	-0.495360	-1.291105
H117	H	1.358724	-0.535825	-1.230432
H118	H	1.331133	-0.507824	-1.365293
H119	H	1.466394	-0.496855	-1.310679
H120	H	0.886752	-0.509836	-0.794448
H121	H	0.792419	-0.428244	-0.667594
O122	O	1.595017	-0.819687	-0.429327
C123	C	1.537908	-0.777315	-0.358733
H124	H	1.453764	-0.799475	-0.353594
H125	H	1.575993	-0.776498	-0.277856
H126	H	1.537788	-0.721712	-0.387661
O127	O	1.218493	-0.516584	-1.147503
C128	C	1.236933	-0.586595	-1.125161
H129	H	1.277210	-0.588078	-1.045596
H130	H	1.159069	-0.618084	-1.123392
H131	H	1.289428	-0.610237	-1.188424
