data_functionalizedCrystal
_audit_creation_method	'MofGen! by Chris Wilmer'
_symmetry_space_group_name_H-M	'P1'
_symmetry_Int_Tables_number	1
_symmetry_cell_setting	triclinic
loop_
_symmetry_equiv_pos_as_xyz
  x,y,z
_cell_length_a	14.519731
_cell_length_b	10.489716
_cell_length_c	12.996460
_cell_angle_alpha	89.997908
_cell_angle_beta	89.994327
_cell_angle_gamma	84.108994
loop_
_atom_site_label
_atom_site_type_symbol
_atom_site_fract_x
_atom_site_fract_y
_atom_site_fract_z
O1	O	1.224758	0.167335	-0.085560
O2	O	0.956389	0.186997	-0.085560
O3	O	1.096692	-0.008497	-0.085564
O4	O	1.084455	0.362829	-0.085556
O5	O	1.096677	-0.008508	0.085570
O6	O	0.956375	0.186986	0.085574
O7	O	1.224743	0.167324	0.085574
Cu8	Cu	1.090557	0.177154	0.101200
Cu9	Cu	1.090575	0.177167	-0.101186
O10	O	1.084440	0.362818	0.085578
C11	C	0.922018	0.186070	0.000007
C12	C	0.819623	0.183310	0.000006
C13	C	0.736466	0.181066	0.000002
C14	C	0.632142	0.178264	0.000001
C15	C	0.548991	0.176039	0.000001
C16	C	0.444661	0.173236	-0.000001
C17	C	1.095765	-0.056025	0.000000
C18	C	1.093014	-0.197628	-0.000009
C19	C	1.179052	-0.296189	0.000000
C20	C	1.133595	-0.373075	-0.084375
C21	C	1.133561	-0.373050	0.084350
C22	C	1.047593	-0.272649	-0.084454
C23	C	1.047571	-0.272618	0.084346
C24	C	1.002051	-0.349454	-0.000050
C25	C	1.259115	0.168251	0.000005
C26	C	1.361510	0.171012	-0.000001
C27	C	1.085367	0.410346	0.000012
C28	C	1.088118	0.551949	0.000014
N29	N	1.090552	0.177144	0.243547
N30	N	1.090588	0.177167	-0.243533
C31	C	1.090574	0.177168	0.663361
C32	C	1.090565	0.177166	0.546556
C33	C	1.090563	0.177157	0.453458
C34	C	1.090554	0.177153	0.336645
H35	H	1.253891	-0.272285	-0.000085
O36	O	1.004138	-0.220167	0.169341
C37	C	0.928759	-0.132716	0.139093
H38	H	0.905792	-0.157662	0.058324
H39	H	0.868881	-0.138367	0.195097
H40	H	0.950648	-0.031407	0.139398
H41	H	0.927156	-0.373112	-0.000095
O42	O	1.177026	-0.425230	0.169423
C43	C	1.270265	-0.398664	0.169082
H44	H	1.277566	-0.310459	0.119683
H45	H	1.293078	-0.379832	0.251140
H46	H	1.315547	-0.484216	0.136148
O47	O	1.176774	-0.425444	-0.169554
C48	C	1.113354	-0.488052	-0.228372
H49	H	1.039796	-0.445863	-0.209513
H50	H	1.127489	-0.474178	-0.313715
H51	H	1.121494	-0.594739	-0.209451
O52	O	1.004459	-0.220520	-0.169737
C53	C	1.067684	-0.157013	-0.228135
H54	H	1.141352	-0.198461	-0.209001
H55	H	1.053970	-0.170850	-0.313570
H56	H	1.058858	-0.050378	-0.209057
