data_functionalizedCrystal
_audit_creation_method	'MofGen! by Chris Wilmer'
_symmetry_space_group_name_H-M	'P1'
_symmetry_Int_Tables_number	1
_symmetry_cell_setting	triclinic
loop_
_symmetry_equiv_pos_as_xyz
  x,y,z
_cell_length_a	17.038272
_cell_length_b	17.038272
_cell_length_c	15.500227
_cell_angle_alpha	86.966746
_cell_angle_beta	86.956295
_cell_angle_gamma	88.888444
loop_
_atom_site_label
_atom_site_type_symbol
_atom_site_fract_x
_atom_site_fract_y
_atom_site_fract_z
O1	O	1.052160	-0.167139	-0.071836
O2	O	1.552160	0.332861	0.428164
O3	O	0.824350	-0.164430	-0.071862
O4	O	1.324350	0.335570	0.428138
O5	O	0.936901	-0.051879	-0.071842
O6	O	1.436901	0.448121	0.428158
O7	O	0.939609	-0.279690	-0.071856
O8	O	1.439609	0.220310	0.428144
O9	O	0.930069	-0.058680	0.072045
O10	O	1.430069	0.441320	0.572045
O11	O	0.817518	-0.171231	0.072026
O12	O	1.317518	0.328769	0.572026
O13	O	1.045328	-0.173940	0.072051
O14	O	1.545328	0.326060	0.572051
Cu15	Cu	0.930799	-0.173207	0.085177
Cu16	Cu	1.430799	0.326793	0.585177
Cu17	Cu	0.938879	-0.165164	-0.084987
Cu18	Cu	1.438879	0.334836	0.415013
O19	O	0.932777	-0.286491	0.072032
O20	O	1.432777	0.213509	0.572032
C21	C	0.791641	-0.165368	0.000079
C22	C	1.291641	0.334632	0.500079
C23	C	0.704358	-0.158019	0.000069
C24	C	1.204358	0.341981	0.500069
C25	C	0.658749	-0.225482	0.000066
C26	C	1.158749	0.274518	0.500066
C27	C	0.576737	-0.218574	0.000078
C28	C	1.076737	0.281426	0.500078
C29	C	0.540335	-0.144201	0.000088
C30	C	1.040335	0.355799	0.500088
C31	C	0.585950	-0.076733	0.000094
C32	C	1.085950	0.423267	0.500094
C33	C	0.667961	-0.083642	0.000088
C34	C	1.167961	0.416358	0.500088
C35	C	0.292946	-0.119792	0.000112
C36	C	0.792946	0.380208	0.500112
C37	C	0.210929	-0.112887	0.000116
C38	C	0.710929	0.387113	0.500116
C39	C	0.201721	-0.254729	0.000102
C40	C	0.701721	0.245271	0.500102
C41	C	0.283734	-0.261632	0.000091
C42	C	0.783734	0.238368	0.500091
C43	C	0.329342	-0.194164	0.000101
C44	C	0.829342	0.305836	0.500101
C45	C	0.456505	-0.137138	0.000098
C46	C	0.956505	0.362862	0.500098
C47	C	0.413170	-0.201228	0.000098
C48	C	0.913170	0.298772	0.500098
C49	C	0.931022	-0.025987	0.000101
C50	C	1.431022	0.474013	0.500101
C51	C	0.923674	0.061297	0.000100
C52	C	1.423674	0.561297	0.500100
C53	C	1.078037	-0.173003	0.000109
C54	C	1.578037	0.326997	0.500109
C55	C	1.165320	-0.180351	0.000113
C56	C	1.665320	0.319649	0.500113
C57	C	0.938656	-0.312383	0.000087
C58	C	1.438656	0.187617	0.500087
C59	C	0.946004	-0.399667	0.000082
C60	C	1.446004	0.100333	0.500082
N61	N	0.925122	-0.178864	0.204861
N62	N	1.425122	0.321136	0.704861
C63	C	0.991137	0.106906	0.000108
C64	C	1.491137	0.606906	0.500108
C65	C	0.984229	0.188918	0.000100
C66	C	1.484229	0.688918	0.500100
C67	C	0.909856	0.225320	0.000088
C68	C	1.409856	0.725320	0.500088
C69	C	0.842388	0.179705	0.000077
C70	C	1.342388	0.679705	0.500077
C71	C	0.849297	0.097694	0.000080
C72	C	1.349297	0.597694	0.500080
C73	C	0.885446	0.472708	0.000074
C74	C	1.385446	0.972708	0.500074
C75	C	0.878541	0.554725	0.000074
C76	C	1.378541	1.054725	0.500074
C77	C	1.020383	0.563932	0.000094
C78	C	1.520383	1.063932	0.500094
C79	C	1.027286	0.481919	0.000102
C80	C	1.527286	0.981919	0.500102
C81	C	0.959818	0.436312	0.000087
C82	C	1.459818	0.936312	0.500087
C83	C	0.902792	0.309149	0.000082
C84	C	1.402792	0.809149	0.500082
C85	C	0.966882	0.352484	0.000087
C86	C	1.466882	0.852484	0.500087
N87	N	0.944561	-0.159501	-0.204671
N88	N	1.444561	0.340499	0.295329
C89	C	0.972833	-0.131192	0.250145
C90	C	1.472833	0.368808	0.750145
C91	C	0.968547	-0.135478	0.340718
C92	C	1.468547	0.364522	0.840718
C93	C	0.916555	-0.187440	0.386003
C94	C	1.416555	0.312560	0.886003
C95	C	0.868839	-0.235114	0.340712
C96	C	1.368839	0.264886	0.840712
C97	C	0.873121	-0.230823	0.250142
C98	C	1.373121	0.269177	0.750142
C99	C	0.901128	-0.202884	0.659467
C100	C	1.401128	0.297116	1.159467
C101	C	0.896851	-0.207172	0.750044
C102	C	1.396851	0.292828	1.250044
C103	C	0.996559	-0.107535	0.750044
C104	C	1.496559	0.392465	1.250044
C105	C	1.000840	-0.103252	0.659471
C106	C	1.500840	0.396748	1.159471
C107	C	0.953121	-0.150923	0.614188
C108	C	1.453121	0.349077	1.114188
C109	C	0.912174	-0.191824	0.478582
C110	C	1.412174	0.308176	0.978582
C111	C	0.957498	-0.146534	0.521610
C112	C	1.457498	0.353466	1.021610
H113	H	0.705095	-0.028706	0.000090
H114	H	1.205095	0.471294	0.500090
H115	H	0.830508	0.435584	0.000061
H116	H	1.330508	0.935584	0.500061
H117	H	0.426857	-0.076584	0.000130
H118	H	0.926857	0.423416	0.500130
Br119	Br	1.061316	-0.042841	0.811502
Br120	Br	1.561316	0.457159	1.311502
H121	H	0.842237	0.338796	0.000075
H122	H	1.342237	0.838796	0.500075
H123	H	0.817974	0.584359	0.000078
H124	H	1.317974	1.084359	0.500078
Br125	Br	0.161527	-0.011947	0.000147
Br126	Br	0.661527	0.488053	0.500147
H127	H	1.015175	-0.088882	0.213280
H128	H	1.515175	0.411118	0.713280
Br129	Br	0.536549	0.024203	0.000115
Br130	Br	1.036549	0.524203	0.500115
H131	H	0.313367	-0.322194	0.000073
H132	H	0.813367	0.177806	0.500073
H133	H	0.442811	-0.261782	0.000095
H134	H	0.942811	0.238218	0.500095
H135	H	0.539605	-0.273510	0.000075
H136	H	1.039605	0.226490	0.500075
Br137	Br	0.826286	-0.277703	0.811498
Br138	Br	1.326286	0.222297	1.311498
Br139	Br	1.092076	0.057511	0.000136
Br140	Br	1.592076	0.557511	0.500136
H141	H	0.862274	-0.241701	0.622605
H142	H	1.362274	0.258299	1.122605
Br143	Br	1.075790	0.250813	0.000111
Br144	Br	1.575790	0.750813	0.500111
H145	H	0.781832	0.209350	0.000063
H146	H	1.281832	0.709350	0.500063
H147	H	0.688381	-0.286045	0.000058
H148	H	1.188381	0.213955	0.500058
H149	H	1.027437	0.322844	0.000077
H150	H	1.527437	0.822844	0.500077
H151	H	0.164579	-0.309658	0.000096
H152	H	0.664579	0.190342	0.500096
H153	H	0.330070	-0.064854	0.000122
H154	H	0.830070	0.435146	0.500122
H155	H	1.007397	-0.096659	0.377588
H156	H	1.507397	0.403341	0.877588
Br157	Br	1.071405	-0.032735	0.598011
Br158	Br	1.571405	0.467265	1.098011
H159	H	1.087848	0.452287	0.000111
H160	H	1.587848	0.952287	0.500111
Br161	Br	1.111941	0.625831	0.000115
Br162	Br	1.611941	1.125831	0.500115
Br163	Br	0.798269	-0.305630	0.402167
Br164	Br	1.298269	0.194370	0.902167
Br165	Br	0.757737	0.035795	0.000062
Br166	Br	1.257737	0.535795	0.500062
Br167	Br	0.808362	-0.295518	0.188683
Br168	Br	1.308362	0.204482	0.688683
H169	H	0.999827	-0.104223	0.484736
H170	H	1.499827	0.395777	0.984736
Br171	Br	0.841613	-0.262344	0.540045
Br172	Br	1.341613	0.237656	1.040045
