data_functionalizedCrystal
_audit_creation_method	'MofGen! by Chris Wilmer'
_symmetry_space_group_name_H-M	'P1'
_symmetry_Int_Tables_number	1
_symmetry_cell_setting	triclinic
loop_
_symmetry_equiv_pos_as_xyz
  x,y,z
_cell_length_a	10.654550
_cell_length_b	19.188930
_cell_length_c	9.730223
_cell_angle_alpha	89.993564
_cell_angle_beta	89.996251
_cell_angle_gamma	83.814841
loop_
_atom_site_label
_atom_site_type_symbol
_atom_site_fract_x
_atom_site_fract_y
_atom_site_fract_z
O1	O	1.665759	0.098059	-0.114420
O2	O	1.300083	0.107401	-0.114400
O3	O	1.493474	0.001144	-0.114384
O4	O	1.472368	0.204317	-0.114436
O5	O	1.493471	0.001146	0.114196
O6	O	1.300081	0.107404	0.114180
O7	O	1.665757	0.098061	0.114160
Zn8	Zn	1.482918	0.102733	0.150462
Zn9	Zn	1.482921	0.102730	-0.150702
O10	O	1.472366	0.204319	0.114144
C11	C	1.253298	0.106717	-0.000107
C12	C	1.113898	0.104664	-0.000098
C13	C	1.033089	0.167227	-0.000134
C14	C	0.902109	0.165295	-0.000157
C15	C	0.932761	0.038231	-0.000114
C16	C	1.063738	0.040164	-0.000081
C17	C	1.015391	0.240587	-0.000165
C18	C	0.884411	0.238654	-0.000188
C19	C	1.492789	-0.024871	-0.000090
C20	C	1.490737	-0.102389	-0.000078
C21	C	1.604213	-0.146570	-0.000078
C22	C	1.602285	-0.219407	-0.000099
C23	C	1.486876	-0.248058	-0.000094
C24	C	1.373386	-0.203867	-0.000102
C25	C	1.375316	-0.131032	-0.000094
N26	N	1.398658	-0.356639	0.077701
N27	N	1.396832	-0.425830	0.077696
C28	C	1.481052	-0.467505	-0.000121
N29	N	1.567186	-0.437377	-0.077917
N30	N	1.569016	-0.368180	-0.077906
C31	C	1.484770	-0.327034	-0.000104
C32	C	1.592445	-0.590665	-0.000147
C33	C	1.590513	-0.663502	-0.000177
C34	C	1.361610	-0.647960	-0.000166
C35	C	1.363545	-0.575125	-0.000149
C36	C	1.478966	-0.546481	-0.000133
C37	C	1.712541	0.098746	-0.000136
C38	C	1.851941	0.100798	-0.000154
C39	C	1.473051	0.230334	-0.000153
C40	C	1.475102	0.307852	-0.000174
N41	N	1.482925	0.102735	0.355998
N42	N	1.482924	0.102722	-0.356238
C43	C	1.568581	0.055700	0.427932
C44	C	1.568577	0.055692	0.571815
C45	C	1.397260	0.149759	0.571818
C46	C	1.397258	0.149764	0.427938
C47	C	1.667493	0.001393	0.427930
C48	C	1.667490	0.001385	0.571813
H49	H	0.891904	-0.014283	-0.000121
C50	C	1.719400	-0.559154	-0.000145
H51	H	1.786708	-0.595902	-0.000168
H52	H	1.724912	-0.531073	0.079571
H53	H	1.724909	-0.531056	-0.079860
C54	C	0.827258	0.275898	-0.129534
H55	H	0.892635	0.292529	-0.182710
H56	H	0.768400	0.314288	-0.103141
H57	H	0.785504	0.243817	-0.182591
C58	C	1.062901	0.272147	-0.133479
H59	H	0.993422	0.284867	-0.192866
H60	H	1.121233	0.238496	-0.177753
H61	H	1.103342	0.312560	-0.112059
H62	H	1.271141	-0.539151	-0.000142
C63	C	1.054202	0.279353	0.129045
H64	H	0.981284	0.293978	0.182172
H65	H	1.094143	0.319189	0.102461
H66	H	1.111111	0.248801	0.182228
C67	C	1.303041	0.201491	0.650956
H68	H	1.315313	0.194755	0.746949
H69	H	1.219278	0.193477	0.627381
H70	H	1.316426	0.248162	0.627373
H71	H	1.763748	0.013347	0.610855
H72	H	1.698197	-0.123254	-0.000069
C73	C	0.822068	0.268605	0.133108
H74	H	0.884938	0.283285	0.192483
H75	H	0.780329	0.233480	0.177410
H76	H	0.762484	0.307539	0.111662
C77	C	1.727112	-0.268016	-0.000089
H78	H	1.796128	-0.240525	-0.000070
H79	H	1.731126	-0.296748	-0.079799
H80	H	1.731101	-0.296754	0.079633
C81	C	1.246439	-0.235380	-0.000091
H82	H	1.261540	-0.285086	-0.000081
H83	H	1.199730	-0.220246	-0.079799
H84	H	1.199733	-0.220256	0.079633
C85	C	1.250488	-0.082430	-0.000081
H86	H	1.181475	-0.109922	-0.000075
H87	H	1.246484	-0.053683	-0.079783
H88	H	1.246486	-0.053705	0.079649
H89	H	1.267641	-0.671287	-0.000168
H90	H	1.682922	-0.699475	-0.000185
H91	H	1.327501	0.188057	0.369371
C92	C	1.640049	-0.071096	0.375182
H93	H	1.628751	-0.100909	0.451126
H94	H	1.708964	-0.090935	0.320941
H95	H	1.565478	-0.066161	0.320951
H96	H	1.758317	0.018397	0.383294
C97	C	1.627722	-0.067117	0.632124
H98	H	1.629065	-0.064783	0.729634
H99	H	1.684718	-0.105556	0.601980
H100	H	1.544825	-0.073263	0.601982
C101	C	1.152630	-0.028653	-0.000028
H102	H	1.237821	-0.018266	0.000001
H103	H	1.137486	-0.055080	-0.079730
H104	H	1.137438	-0.055066	0.079701
