data_functionalizedCrystal
_audit_creation_method	'MofGen! by Chris Wilmer'
_symmetry_space_group_name_H-M	'P1'
_symmetry_Int_Tables_number	1
_symmetry_cell_setting	triclinic
loop_
_symmetry_equiv_pos_as_xyz
  x,y,z
_cell_length_a	27.731994
_cell_length_b	14.519709
_cell_length_c	12.996460
_cell_angle_alpha	90.007090
_cell_angle_beta	89.999504
_cell_angle_gamma	83.150340
loop_
_atom_site_label
_atom_site_type_symbol
_atom_site_fract_x
_atom_site_fract_y
_atom_site_fract_z
O1	O	-0.641468	-0.109495	-0.085422
O2	O	-0.141468	0.390505	0.414578
O3	O	-0.500751	-0.126232	-0.085457
O4	O	-0.000751	0.373768	0.414543
O5	O	-0.574841	0.016441	-0.085430
O6	O	-0.074841	0.516441	0.414570
O7	O	-0.567379	-0.252168	-0.085450
O8	O	-0.067379	0.247832	0.414550
O9	O	-0.574833	0.016449	0.085704
O10	O	-0.074833	0.516449	0.585704
O11	O	-0.500743	-0.126224	0.085677
O12	O	-0.000743	0.373776	0.585677
O13	O	-0.641461	-0.109487	0.085711
O14	O	-0.141461	0.390513	0.585711
Cu15	Cu	-0.571101	-0.117855	0.101320
Cu16	Cu	-0.071101	0.382145	0.601320
Cu17	Cu	-0.571110	-0.117864	-0.101066
Cu18	Cu	-0.071110	0.382136	0.398934
O19	O	-0.567371	-0.252160	0.085684
O20	O	-0.067371	0.247840	0.585684
C21	C	-0.574489	0.050799	0.000137
C22	C	-0.074489	0.550799	0.500137
C23	C	-0.573447	0.153162	0.000138
C24	C	-0.073447	0.653162	0.500138
C25	C	-0.482738	-0.125884	0.000106
C26	C	0.017262	0.374116	0.500106
C27	C	-0.429077	-0.124850	0.000093
C28	C	0.070923	0.375150	0.500093
C29	C	-0.659474	-0.109834	0.000146
C30	C	-0.159474	0.390166	0.500146
C31	C	-0.713135	-0.110869	0.000153
C32	C	-0.213135	0.389131	0.500153
C33	C	-0.096323	-0.118329	0.093418
C34	C	0.403677	0.381671	0.593418
C35	C	0.105354	-0.114396	0.093430
C36	C	0.605354	0.385604	0.593430
O37	O	0.131433	-0.113844	0.172765
O38	O	0.631433	0.386156	0.672765
N39	N	0.130567	-0.113911	0.000145
N40	N	0.630567	0.386089	0.500145
C41	C	0.105357	-0.114404	-0.093150
C42	C	0.605357	0.385596	0.406850
O43	O	0.131429	-0.113893	-0.172494
O44	O	0.631429	0.386107	0.327506
C45	C	-0.096320	-0.118331	-0.093160
C46	C	0.403680	0.381669	0.406840
C47	C	-0.121529	-0.118825	0.000131
C48	C	0.378471	0.381175	0.500131
C49	C	-0.121533	-0.118821	0.186701
C50	C	0.378467	0.381179	0.686701
C51	C	-0.171949	-0.119810	0.186697
C52	C	0.328051	0.380190	0.686697
C53	C	-0.197155	-0.120305	0.093410
C54	C	0.302845	0.379695	0.593410
C55	C	-0.171945	-0.119813	0.000127
C56	C	0.328055	0.380187	0.500127
C57	C	-0.121529	-0.118817	-0.186454
C58	C	0.378471	0.381183	0.313546
C59	C	-0.171951	-0.119797	-0.186448
C60	C	0.328049	0.380203	0.313552
C61	C	-0.197161	-0.120290	-0.093157
C62	C	0.302839	0.379710	0.406843
C63	C	-0.247567	-0.121297	-0.093165
C64	C	0.252433	0.378703	0.406835
N65	N	-0.272780	-0.121781	0.000120
N66	N	0.227220	0.378219	0.500120
C67	C	-0.247574	-0.121285	0.093408
C68	C	0.252426	0.378715	0.593408
C69	C	0.211240	-0.112345	-0.093137
C70	C	0.711240	0.387655	0.406863
C71	C	0.261659	-0.111365	-0.093135
C72	C	0.761659	0.388635	0.406865
C73	C	0.261652	-0.111354	0.093445
C74	C	0.761652	0.388646	0.593445
C75	C	0.211233	-0.112341	0.093442
C76	C	0.711233	0.387659	0.593442
C77	C	0.186027	-0.112829	0.000148
C78	C	0.686027	0.387171	0.500148
C79	C	-0.353451	-0.123362	0.093392
C80	C	0.146549	0.376638	0.593392
C81	C	-0.403871	-0.124354	0.093380
C82	C	0.096129	0.375646	0.593380
C83	C	-0.403860	-0.124359	-0.093199
C84	C	0.096140	0.375641	0.406801
C85	C	-0.353444	-0.123372	-0.093188
C86	C	0.146556	0.376628	0.406812
C87	C	-0.328241	-0.122870	0.000117
C88	C	0.171759	0.377130	0.500117
O89	O	-0.273678	-0.121839	-0.172458
O90	O	0.226322	0.378161	0.327542
O91	O	-0.273656	-0.121777	0.172740
O92	O	0.226344	0.378223	0.672740
C93	C	-0.045907	-0.117341	0.093422
C94	C	0.454093	0.382659	0.593422
C95	C	-0.020697	-0.116848	0.000138
C96	C	0.479303	0.383152	0.500138
C97	C	-0.045904	-0.117344	-0.093149
C98	C	0.454096	0.382656	0.406851
C99	C	0.029722	-0.115868	0.000141
C100	C	0.529722	0.384132	0.500141
C101	C	0.054928	-0.115372	0.093428
C102	C	0.554928	0.384628	0.593428
C103	C	0.029715	-0.115857	0.186713
C104	C	0.529715	0.384143	0.686713
C105	C	-0.020701	-0.116845	0.186709
C106	C	0.479299	0.383155	0.686709
C107	C	-0.020691	-0.116859	-0.186434
C108	C	0.479309	0.383141	0.313566
C109	C	0.029725	-0.115872	-0.186422
C110	C	0.529725	0.384128	0.313578
C111	C	0.054931	-0.115377	-0.093135
C112	C	0.554931	0.384623	0.406865
C113	C	-0.567723	-0.286518	0.000115
C114	C	-0.067723	0.213482	0.500115
C115	C	-0.568765	-0.388880	0.000108
C116	C	-0.068765	0.111120	0.500108
N117	N	-0.571098	-0.117848	0.243667
N118	N	-0.071098	0.382152	0.743667
C119	C	-0.569611	0.527989	0.000110
C120	C	-0.069611	1.027989	0.500110
C121	C	-0.570676	0.423700	0.000118
C122	C	-0.070676	0.923700	0.500118
C123	C	-0.571529	0.340579	0.000125
C124	C	-0.071529	0.840579	0.500125
C125	C	-0.572594	0.236283	0.000131
C126	C	-0.072594	0.736283	0.500131
N127	N	-0.571117	-0.117864	-0.243413
N128	N	-0.071117	0.382136	0.256587
C129	C	-0.571110	-0.117865	0.663481
C130	C	-0.071110	0.382135	1.163481
C131	C	-0.571105	-0.117863	0.546676
C132	C	-0.071105	0.382137	1.046676
C133	C	-0.571104	-0.117857	0.453578
C134	C	-0.071104	0.382143	0.953578
C135	C	-0.571099	-0.117854	0.336765
C136	C	-0.071099	0.382146	0.836765
H137	H	-0.424394	-0.124759	0.169352
H138	H	0.075606	0.375241	0.669352
F139	F	-0.198774	-0.120313	-0.285748
F140	F	0.301226	0.379687	0.214252
F141	F	-0.094710	-0.118290	-0.285749
F142	F	0.405290	0.381710	0.214251
H143	H	-0.192471	-0.120206	0.262665
H144	H	0.307529	0.379794	0.762665
H145	H	-0.101016	-0.118416	0.262671
H146	H	0.398984	0.381584	0.762671
H147	H	-0.332936	-0.122961	0.169369
H148	H	0.167064	0.377039	0.669369
H149	H	-0.424392	-0.124767	-0.169151
H150	H	0.075608	0.375233	0.330849
H151	H	0.190711	-0.112744	0.169407
H152	H	0.690711	0.387256	0.669407
F153	F	-0.047510	-0.117386	-0.285729
F154	F	0.452490	0.382614	0.214271
H155	H	0.282184	-0.110953	0.169403
H156	H	0.782184	0.389047	0.669403
F157	F	0.056550	-0.115333	0.285997
F158	F	0.556550	0.384667	0.785997
F159	F	-0.047525	-0.117370	0.286003
F160	F	0.452475	0.382630	0.786003
F161	F	0.288485	-0.110857	-0.192428
F162	F	0.788485	0.389143	0.307572
H163	H	0.050247	-0.115478	-0.262397
H164	H	0.550247	0.384522	0.237603
F165	F	0.184421	-0.112865	-0.192440
F166	F	0.684421	0.387135	0.307560
F167	F	-0.326612	-0.122862	-0.192477
F168	F	0.173388	0.377138	0.307523
