data_functionalizedCrystal
_audit_creation_method	'MofGen! by Chris Wilmer'
_symmetry_space_group_name_H-M	'P1'
_symmetry_Int_Tables_number	1
_symmetry_cell_setting	triclinic
loop_
_symmetry_equiv_pos_as_xyz
  x,y,z
_cell_length_a	19.077236
_cell_length_b	21.295417
_cell_length_c	19.077174
_cell_angle_alpha	87.731654
_cell_angle_beta	94.705718
_cell_angle_gamma	92.323097
loop_
_atom_site_label
_atom_site_type_symbol
_atom_site_fract_x
_atom_site_fract_y
_atom_site_fract_z
Zn1	Zn	1.093711	-0.227283	0.441951
Zn2	Zn	1.593711	0.272717	0.941951
Zn3	Zn	1.088884	-0.328490	0.324053
Zn4	Zn	1.588884	0.171510	0.824053
Zn5	Zn	0.971092	-0.227292	0.319334
Zn6	Zn	1.471092	0.272708	0.819334
Zn7	Zn	0.975773	-0.336575	0.437156
Zn8	Zn	1.475773	0.163425	0.937156
O9	O	1.032365	-0.279910	0.380623
O10	O	1.532365	0.220090	0.880623
O11	O	1.191724	-0.237321	0.430293
O12	O	1.691724	0.262679	0.930293
O13	O	1.069279	-0.311686	0.224777
O14	O	1.569279	0.188314	0.724777
O15	O	0.987419	-0.139201	0.335631
O16	O	1.487419	0.360799	0.835631
O17	O	1.188177	-0.311677	0.343673
O18	O	1.688177	0.188323	0.843673
O19	O	1.077507	-0.139194	0.425717
O20	O	1.577507	0.360806	0.925717
O21	O	0.982738	-0.237337	0.221310
O22	O	1.482738	0.262663	0.721310
O23	O	0.873060	-0.245176	0.330982
O24	O	1.373060	0.254824	0.830982
O25	O	0.995397	-0.325456	0.536442
O26	O	1.495397	0.174544	1.036442
O27	O	0.876499	-0.325466	0.417545
O28	O	1.376499	0.174534	0.917545
O29	O	1.082045	-0.245160	0.539965
O30	O	1.582045	0.254840	1.039965
O31	O	1.073818	-0.417653	0.339024
O32	O	1.573818	0.082347	0.839024
O33	O	0.990716	-0.423592	0.422121
O34	O	1.490716	0.076408	0.922121
C35	C	0.849200	-0.286200	0.373232
C36	C	1.349200	0.213800	0.873232
C37	C	0.770841	-0.288906	0.370086
C38	C	1.270841	0.211094	0.870086
C39	C	0.735878	-0.251531	0.413775
C40	C	1.235878	0.248469	0.913775
C41	C	0.662252	-0.254071	0.410814
C42	C	1.162252	0.245929	0.910814
C43	C	0.623590	-0.293990	0.364166
C44	C	1.123590	0.206010	0.864166
C45	C	0.658558	-0.331367	0.320472
C46	C	1.158558	0.168633	0.820472
C47	C	0.732183	-0.328823	0.323431
C48	C	1.232183	0.171177	0.823431
C49	C	0.403197	-0.305738	0.350471
C50	C	0.903197	0.194262	0.850471
C51	C	0.329568	-0.308281	0.347518
C52	C	0.829568	0.191719	0.847518
C53	C	0.333267	-0.230983	0.437859
C54	C	0.833267	0.269017	0.937859
C55	C	0.406893	-0.228446	0.440816
C56	C	0.906893	0.271554	0.940816
C57	C	0.441854	-0.265820	0.397119
C58	C	0.941854	0.234180	0.897119
N59	N	0.548333	-0.296589	0.361139
N60	N	1.048333	0.203411	0.861139
N61	N	0.517110	-0.263218	0.400143
N62	N	1.017110	0.236782	0.900143
C63	C	1.032271	-0.443463	0.380581
C64	C	1.532271	0.056537	0.880581
C65	C	1.032296	-0.513431	0.380589
C66	C	1.532296	-0.013431	0.880589
C67	C	1.075609	-0.543184	0.337368
C68	C	1.575609	-0.043184	0.837368
C69	C	1.075643	-0.608926	0.337385
C70	C	1.575643	-0.108926	0.837385
C71	C	1.032351	-0.644912	0.380615
C72	C	1.532351	-0.144912	0.880615
C73	C	0.989035	-0.615152	0.423844
C74	C	1.489035	-0.115152	0.923844
C75	C	0.989008	-0.549411	0.423831
C76	C	1.489008	-0.049411	0.923831
N77	N	0.970895	-0.750485	0.383500
N78	N	1.470895	-0.250485	0.883500
N79	N	0.970923	-0.812936	0.383509
N80	N	1.470923	-0.312936	0.883509
C81	C	1.032431	-0.842986	0.380659
C82	C	1.532431	-0.342986	0.880659
N83	N	1.093912	-0.808225	0.377786
N84	N	1.593912	-0.308225	0.877786
N85	N	1.093883	-0.745768	0.377773
N86	N	1.593883	-0.245768	0.877773
C87	C	1.032376	-0.716197	0.380634
C88	C	1.532376	-0.216197	0.880634
C89	C	1.075785	-0.944023	0.337454
C90	C	1.575785	-0.444023	0.837454
C91	C	1.075820	-1.009767	0.337476
C92	C	1.575820	-0.509767	0.837476
C93	C	0.989205	-1.015991	0.423932
C94	C	1.489205	-0.515991	0.923932
C95	C	0.989177	-0.950249	0.423914
C96	C	1.489177	-0.450249	0.923914
C97	C	1.032465	-0.914269	0.380671
C98	C	1.532465	-0.414269	0.880671
C99	C	1.216246	-0.273596	0.388044
C100	C	1.716246	0.226404	0.888044
C101	C	1.294605	-0.270905	0.391207
C102	C	1.794605	0.229095	0.891207
C103	C	1.039782	-0.286209	0.564497
C104	C	1.539782	0.213791	1.064497
C105	C	1.042943	-0.288893	0.642854
C106	C	1.542943	0.211107	1.142854
C107	C	1.032479	-0.115718	0.380683
C108	C	1.532479	0.384282	0.880683
C109	C	1.032528	-0.045749	0.380708
C110	C	1.532528	0.454251	0.880708
C111	C	1.025018	-0.273588	0.197466
C112	C	1.525018	0.226412	0.697466
C113	C	1.021994	-0.270722	0.119116
C114	C	1.521994	0.229278	0.619116
C115	C	0.999372	-0.251445	0.677860
C116	C	1.499372	0.248555	1.177860
C117	C	1.002339	-0.253973	0.751484
C118	C	1.502339	0.246027	1.251484
C119	C	1.048881	-0.293945	0.790100
C120	C	1.548881	0.206055	1.290100
C121	C	1.092453	-0.331397	0.755089
C122	C	1.592453	0.168603	1.255089
C123	C	1.089482	-0.328873	0.681466
C124	C	1.589482	0.171127	1.181466
C125	C	1.062595	-0.305650	1.010482
C126	C	1.562595	0.194350	1.510482
C127	C	1.065564	-0.308170	1.084110
C128	C	1.565564	0.191830	1.584110
C129	C	0.975449	-0.230746	1.080500
C130	C	1.475449	0.269254	1.580500
C131	C	0.972485	-0.228222	1.006876
C132	C	1.472485	0.271778	1.506876
C133	C	1.016055	-0.265677	0.971871
C134	C	1.516055	0.234323	1.471871
N135	N	1.051916	-0.296528	0.865356
N136	N	1.551916	0.203472	1.365356
N137	N	1.013015	-0.263097	0.896616
N138	N	1.513015	0.236903	1.396616
H139	H	0.633789	-0.223637	0.446392
H140	H	1.133789	0.276363	0.946392
H141	H	0.953788	-0.644456	0.459044
H142	H	1.453788	-0.144456	0.959044
O143	O	0.437184	-0.341953	0.307960
O144	O	0.937184	0.158047	0.807960
C145	C	0.477959	-0.303026	0.264223
C146	C	0.977959	0.196974	0.764223
H147	H	0.455621	-0.254062	0.259076
H148	H	0.955621	0.245938	0.759076
H149	H	0.476585	-0.323834	0.209958
H150	H	0.976585	0.176166	0.709958
H151	H	0.534642	-0.299706	0.288266
H152	H	1.034642	0.200294	0.788266
H153	H	0.438366	-0.195942	0.478804
H154	H	0.938366	0.304058	0.978804
H155	H	0.627074	-0.363867	0.282487
H156	H	1.127074	0.136133	0.782487
H157	H	0.760649	-0.359258	0.287854
H158	H	1.260649	0.140742	0.787854
H159	H	0.298091	-0.340791	0.309531
H160	H	0.798091	0.159209	0.809531
O161	O	1.131773	-0.365341	0.647533
O162	O	1.631773	0.134659	1.147533
C163	C	1.117032	-0.429226	0.664864
C164	C	1.617032	0.070774	1.164864
H165	H	1.092091	-0.433292	0.717228
H166	H	1.592091	0.066708	1.217228
H167	H	1.167991	-0.455796	0.669421
H168	H	1.667991	0.044204	1.169421
H169	H	1.079095	-0.450250	0.621960
H170	H	1.579095	0.049750	1.121960
O171	O	1.117731	-0.508328	0.295351
O172	O	1.617731	-0.008328	0.795351
C173	C	1.155957	-0.548692	0.257195
C174	C	1.655957	-0.048692	0.757195
H175	H	1.159553	-0.596448	0.286178
H176	H	1.659553	-0.096448	0.786178
H177	H	1.211200	-0.527492	0.251962
H178	H	1.711200	-0.027492	0.751962
H179	H	1.128028	-0.554775	0.202594
H180	H	1.628028	-0.054775	0.702594
O181	O	0.299228	-0.194768	0.480329
O182	O	0.799228	0.305232	0.980329
C183	C	0.258480	-0.233697	0.524089
C184	C	0.758480	0.266303	1.024089
H185	H	0.246417	-0.280895	0.498685
H186	H	0.746417	0.219105	0.998685
H187	H	0.207103	-0.210182	0.531509
H188	H	0.707103	0.289818	1.031509
H189	H	0.288967	-0.241494	0.577457
H190	H	0.788967	0.258506	1.077457
O191	O	0.959933	-0.217692	0.785511
O192	O	1.459933	0.282308	1.285511
C193	C	0.916099	-0.256560	0.826249
C194	C	1.416099	0.243440	1.326249
H195	H	0.910828	-0.305528	0.803867
H196	H	1.410828	0.194472	1.303867
H197	H	0.861891	-0.235690	0.824891
H198	H	1.361891	0.264310	1.324891
H199	H	0.940134	-0.259890	0.882929
H200	H	1.440134	0.240110	1.382929
O201	O	0.773323	-0.212700	0.459110
O202	O	1.273323	0.287300	0.959110
C203	C	0.726673	-0.180268	0.497048
C204	C	1.226673	0.319732	0.997048
H205	H	0.673023	-0.178872	0.466066
H206	H	1.173023	0.321128	0.966066
H207	H	0.748275	-0.130207	0.505529
H208	H	1.248275	0.369793	1.005529
H209	H	0.720997	-0.205499	0.550224
H210	H	1.220997	0.294501	1.050224
O211	O	1.104951	-0.341934	0.976405
O212	O	1.604951	0.158066	1.476405
C213	C	1.148801	-0.303070	0.935682
C214	C	1.648801	0.196930	1.435682
H215	H	1.123524	-0.255841	0.923669
H216	H	1.623524	0.244159	1.423669
H217	H	1.156142	-0.326611	0.884282
H218	H	1.656142	0.173389	1.384282
H219	H	1.202195	-0.295330	0.966165
H220	H	1.702195	0.204670	1.466165
O221	O	1.137758	-0.370190	0.792526
O222	O	1.637758	0.129810	1.292526
C223	C	1.207306	-0.353394	0.777387
C224	C	1.707306	0.146606	1.277387
H225	H	1.206627	-0.327314	0.724000
H226	H	1.706627	0.172686	1.224000
H227	H	1.238784	-0.397654	0.776127
H228	H	1.738784	0.102346	1.276127
H229	H	1.232746	-0.321634	0.819792
H230	H	1.732746	0.178366	1.319792
H231	H	1.110916	-0.633155	0.302190
H232	H	1.610916	-0.133155	0.802190
H233	H	0.953737	-0.525186	0.459027
H234	H	1.453737	-0.025186	0.959027
H235	H	1.111035	-0.914727	0.302246
H236	H	1.611035	-0.414727	0.802246
H237	H	1.111095	-1.033990	0.302283
H238	H	1.611095	-0.533990	0.802283
O239	O	0.947173	-1.051035	0.465863
O240	O	1.447173	-0.551035	0.965863
C241	C	0.956501	-1.115440	0.456625
C242	C	1.456501	-0.615440	0.956625
H243	H	0.977441	-1.121766	0.403174
H244	H	1.477441	-0.621766	0.903174
H245	H	0.903894	-1.142447	0.459242
H246	H	1.403894	-0.642447	0.959242
H247	H	0.995708	-1.134188	0.499987
H248	H	1.495708	-0.634188	0.999987
H249	H	0.953904	-0.926023	0.459105
H250	H	1.453904	-0.426023	0.959105
H251	H	0.961477	-0.218892	0.646424
H252	H	1.461477	0.281108	1.146424
O253	O	0.927214	-0.189377	0.969473
O254	O	1.427214	0.310623	1.469473
C255	C	0.889407	-0.156852	1.016159
C256	C	1.389407	0.343148	1.516159
H257	H	0.889059	-0.184521	1.068530
H258	H	1.389059	0.315479	1.568530
H259	H	0.833010	-0.151309	0.992646
H260	H	1.333010	0.348691	1.492646
H261	H	0.915578	-0.108428	1.025053
H262	H	1.415578	0.391572	1.525053
H263	H	1.103467	-0.340721	1.115549
H264	H	1.603467	0.159279	1.615549
O265	O	0.933050	-0.194463	1.114532
O266	O	1.433050	0.305537	1.614532
C267	C	0.889222	-0.233327	1.155280
C268	C	1.389222	0.266673	1.655280
H269	H	0.883941	-0.282296	1.132899
H270	H	1.383941	0.217704	1.632899
H271	H	0.835016	-0.212453	1.153933
H272	H	1.335016	0.287547	1.653933
H273	H	0.913267	-0.236659	1.211957
H274	H	1.413267	0.263341	1.711957
