data_functionalizedCrystal
_audit_creation_method	'MofGen! by Chris Wilmer'
_symmetry_space_group_name_H-M	'P1'
_symmetry_Int_Tables_number	1
_symmetry_cell_setting	triclinic
loop_
_symmetry_equiv_pos_as_xyz
  x,y,z
_cell_length_a	10.654551
_cell_length_b	11.792254
_cell_length_c	9.130313
_cell_angle_alpha	89.998555
_cell_angle_beta	90.000320
_cell_angle_gamma	84.341934
loop_
_atom_site_label
_atom_site_type_symbol
_atom_site_fract_x
_atom_site_fract_y
_atom_site_fract_z
O1	O	1.667390	0.159419	-0.121781
O2	O	1.301870	0.174606	-0.121788
O3	O	1.493492	0.001863	-0.121774
O4	O	1.475768	0.332161	-0.121795
O5	O	1.493490	0.001868	0.121824
O6	O	1.301868	0.174611	0.121810
O7	O	1.667388	0.159423	0.121817
Cu8	Cu	1.484628	0.167017	0.144056
Cu9	Cu	1.484630	0.167012	-0.144027
O10	O	1.475766	0.332166	0.121803
C11	C	1.255074	0.173493	0.000010
C12	C	1.115640	0.170156	0.000008
C13	C	0.919120	0.165443	0.132795
C14	C	1.050132	0.168588	0.132796
C15	C	1.050128	0.168589	-0.132789
C16	C	0.919118	0.165452	-0.132788
C17	C	0.853620	0.163864	0.265592
C18	C	0.919122	0.165432	0.398389
C19	C	1.050134	0.168578	0.398390
C20	C	1.115643	0.170155	0.265592
C21	C	1.492374	-0.040428	0.000025
C22	C	1.489033	-0.166448	0.000023
C23	C	1.486317	-0.268791	0.000018
C24	C	1.482922	-0.397186	0.000004
C25	C	1.714184	0.160536	0.000016
C26	C	1.853618	0.163873	0.000008
C27	C	1.476884	0.374457	0.000001
C28	C	1.480225	0.500478	-0.000007
N29	N	1.484635	0.167021	0.346679
N30	N	1.484633	0.167000	-0.346650
C31	C	1.569507	0.090556	0.423337
C32	C	1.569504	0.090543	0.576674
C33	C	1.399752	0.243468	0.576681
C34	C	1.399750	0.243475	0.423347
C35	C	1.654392	0.014102	0.346669
C36	C	1.739272	-0.062368	0.423328
C37	C	1.739268	-0.062381	0.576665
C38	C	1.654385	0.014075	0.653343
H39	H	1.222320	0.172730	0.265604
H40	H	1.330638	0.305738	0.360931
Cl41	Cl	1.293053	0.339581	0.673077
Cl42	Cl	1.132474	0.170564	0.565331
Cl43	Cl	1.845961	-0.158520	0.673034
H44	H	0.746944	0.161301	0.265606
Cl45	Cl	1.132485	0.170564	-0.299722
H46	H	0.865785	0.164177	-0.240915
H47	H	1.808374	-0.124622	0.360888
Cl48	Cl	0.836768	0.163465	0.565324
Cl49	Cl	1.654405	0.014119	0.153904
H50	H	1.654381	0.014050	0.778200
