data_functionalizedCrystal
_audit_creation_method	'MofGen! by Chris Wilmer'
_symmetry_space_group_name_H-M	'P1'
_symmetry_Int_Tables_number	1
_symmetry_cell_setting	triclinic
loop_
_symmetry_equiv_pos_as_xyz
  x,y,z
_cell_length_a	8.497374
_cell_length_b	8.497374
_cell_length_c	13.897449
_cell_angle_alpha	89.997628
_cell_angle_beta	90.002811
_cell_angle_gamma	90.004389
loop_
_atom_site_label
_atom_site_type_symbol
_atom_site_fract_x
_atom_site_fract_y
_atom_site_fract_z
Zn1	Zn	0.892135	0.628262	1.474643
Zn2	Zn	1.392135	1.128262	1.974643
Zn3	Zn	0.628400	0.892012	1.474634
Zn4	Zn	1.128400	1.392012	1.974634
Zn5	Zn	0.628359	0.628246	1.313383
Zn6	Zn	1.128359	1.128246	1.813383
Zn7	Zn	0.892129	0.892000	1.313361
Zn8	Zn	1.392129	1.392000	1.813361
O9	O	0.760256	0.760130	1.394005
O10	O	1.260256	1.260130	1.894005
O11	O	0.857170	0.663261	1.609624
O12	O	1.357170	1.163261	2.109624
O13	O	0.407633	0.857021	1.453250
O14	O	0.907633	1.357021	1.953250
O15	O	0.663335	0.407486	1.334787
O16	O	1.163335	0.907486	1.834787
O17	O	0.663405	0.857037	1.609617
O18	O	1.163405	1.357037	2.109617
O19	O	0.857130	0.407498	1.453265
O20	O	1.357130	0.907498	1.953265
O21	O	0.407602	0.663233	1.334779
O22	O	0.907602	1.163233	1.834779
O23	O	0.663329	0.663221	1.178398
O24	O	1.163329	1.163221	1.678398
O25	O	1.112892	0.857017	1.334750
O26	O	1.612892	1.357017	1.834750
O27	O	0.857119	0.857001	1.178382
O28	O	1.357119	1.357001	1.678382
O29	O	1.112896	0.663250	1.453243
O30	O	1.612896	1.163250	1.953243
O31	O	0.663399	1.112773	1.453228
O32	O	1.163399	1.612773	1.953228
O33	O	0.857160	1.112764	1.334741
O34	O	1.357160	1.612764	1.834741
C35	C	0.760220	0.760109	1.143391
C36	C	1.260220	1.260109	1.643391
C37	C	0.760242	0.760138	1.036177
C38	C	1.260242	1.260138	1.536177
C39	C	1.350376	0.760156	1.394011
C40	C	1.850376	1.260156	1.894011
C41	C	1.171732	0.760148	1.394001
C42	C	1.671732	1.260148	1.894001
C43	C	0.760279	1.170010	1.393993
C44	C	1.260279	1.670010	1.893993
C45	C	0.760253	1.348654	1.394019
C46	C	1.260253	1.848654	1.894019
C47	C	0.760283	0.760144	0.839882
C48	C	1.260283	1.260144	1.339882
C49	C	0.760256	0.760136	0.949114
C50	C	1.260256	1.260136	1.449114
C51	C	0.760293	0.760152	1.645598
C52	C	1.260293	1.260152	2.145598
C53	C	0.760309	0.760162	1.752812
C54	C	1.260309	1.260162	2.252812
