data_functionalizedCrystal
_audit_creation_method	'MofGen! by Chris Wilmer'
_symmetry_space_group_name_H-M	'P1'
_symmetry_Int_Tables_number	1
_symmetry_cell_setting	triclinic
loop_
_symmetry_equiv_pos_as_xyz
  x,y,z
_cell_length_a	14.519709
_cell_length_b	15.186229
_cell_length_c	16.109304
_cell_angle_alpha	90.003016
_cell_angle_beta	83.571391
_cell_angle_gamma	89.994892
loop_
_atom_site_label
_atom_site_type_symbol
_atom_site_fract_x
_atom_site_fract_y
_atom_site_fract_z
O1	O	1.223631	0.073108	0.108987
O2	O	1.473631	0.323108	0.358987
O3	O	1.723631	0.573108	0.608987
O4	O	1.973631	0.823108	0.858987
O5	O	0.955127	0.073135	0.121822
O6	O	1.205127	0.323135	0.371822
O7	O	1.455127	0.573135	0.621822
O8	O	1.705127	0.823135	0.871822
O9	O	1.096754	0.073121	-0.005614
O10	O	1.346754	0.323121	0.244386
O11	O	1.596754	0.573121	0.494386
O12	O	1.846754	0.823121	0.744386
O13	O	1.082004	0.073122	0.236422
O14	O	1.332004	0.323122	0.486422
O15	O	1.582004	0.573122	0.736422
O16	O	1.832004	0.823122	0.986422
O17	O	1.096753	-0.073336	-0.005621
O18	O	1.346753	0.176664	0.244379
O19	O	1.596753	0.426664	0.494379
O20	O	1.846753	0.676664	0.744379
O21	O	0.955126	-0.073323	0.121814
O22	O	1.205126	0.176677	0.371814
O23	O	1.455126	0.426677	0.621814
O24	O	1.705126	0.676677	0.871814
O25	O	1.223630	-0.073349	0.108979
O26	O	1.473630	0.176651	0.358979
O27	O	1.723630	0.426651	0.608979
O28	O	1.973630	0.676651	0.858979
Zn29	Zn	1.089378	-0.096589	0.115395
Zn30	Zn	1.339378	0.153411	0.365395
Zn31	Zn	1.589378	0.403411	0.615395
Zn32	Zn	1.839378	0.653411	0.865395
Zn33	Zn	1.089379	0.096375	0.115406
Zn34	Zn	1.339379	0.346375	0.365406
Zn35	Zn	1.589379	0.596375	0.615406
Zn36	Zn	1.839379	0.846375	0.865406
O37	O	1.082003	-0.073336	0.236415
O38	O	1.332003	0.176664	0.486415
O39	O	1.582003	0.426664	0.736415
O40	O	1.832003	0.676664	0.986415
C41	C	0.920768	-0.000091	0.121220
C42	C	1.170768	0.249909	0.371220
C43	C	1.420768	0.499909	0.621220
C44	C	1.670768	0.749909	0.871220
C45	C	0.818390	-0.000080	0.119427
C46	C	1.068390	0.249920	0.369427
C47	C	1.318390	0.499920	0.619427
C48	C	1.568390	0.749920	0.869427
N49	N	1.089383	-0.228282	0.115388
N50	N	1.339383	0.021718	0.365388
N51	N	1.589383	0.271718	0.615388
N52	N	1.839383	0.521718	0.865388
N53	N	1.089381	0.228067	0.115406
N54	N	1.339381	0.478067	0.365406
N55	N	1.589381	0.728067	0.615406
N56	N	1.839381	0.978067	0.865406
C57	C	0.443509	-0.000121	0.112829
C58	C	0.693509	0.249879	0.362829
C59	C	0.943509	0.499879	0.612829
C60	C	1.193509	0.749879	0.862829
C61	C	0.547813	-0.000109	0.114661
C62	C	0.797813	0.249891	0.364661
C63	C	1.047813	0.499891	0.614661
C64	C	1.297813	0.749891	0.864661
C65	C	0.630946	-0.000100	0.116128
C66	C	0.880946	0.249900	0.366128
C67	C	1.130946	0.499900	0.616128
C68	C	1.380946	0.749900	0.866128
C69	C	0.735257	-0.000090	0.117961
C70	C	0.985257	0.249910	0.367961
C71	C	1.235257	0.499910	0.617961
C72	C	1.485257	0.749910	0.867961
C73	C	1.257989	-0.000122	0.109581
C74	C	1.507989	0.249878	0.359581
C75	C	1.757989	0.499878	0.609581
C76	C	2.007989	0.749878	0.859581
C77	C	1.360366	-0.000126	0.111374
C78	C	1.610366	0.249874	0.361374
C79	C	1.860366	0.499874	0.611374
C80	C	2.110366	0.749874	0.861374
C81	C	1.096155	-0.000105	-0.036593
C82	C	1.346155	0.249895	0.213407
C83	C	1.596155	0.499895	0.463407
C84	C	1.846155	0.749895	0.713407
C85	C	1.094363	-0.000099	-0.128892
C86	C	1.344363	0.249901	0.121108
C87	C	1.594363	0.499901	0.371108
C88	C	1.844363	0.749901	0.621108
C89	C	1.152214	0.453784	0.059087
C90	C	1.402214	0.703784	0.309087
C91	C	1.652214	0.953784	0.559087
C92	C	1.902214	1.203784	0.809087
C93	C	1.152217	0.545974	0.059085
C94	C	1.402217	0.795974	0.309085
C95	C	1.652217	1.045974	0.559085
C96	C	1.902217	1.295974	0.809085
C97	C	1.026547	0.545995	0.171713
C98	C	1.276547	0.795995	0.421713
C99	C	1.526547	1.045995	0.671713
C100	C	1.776547	1.295995	0.921713
C101	C	1.026550	0.453807	0.171719
C102	C	1.276550	0.703807	0.421719
C103	C	1.526550	0.953807	0.671719
C104	C	1.776550	1.203807	0.921719
C105	C	1.089382	0.407704	0.115401
C106	C	1.339382	0.657704	0.365401
C107	C	1.589382	0.907704	0.615401
C108	C	1.839382	1.157704	0.865401
C109	C	1.089382	0.592082	0.115393
C110	C	1.339382	0.842082	0.365393
C111	C	1.589382	1.092082	0.615393
C112	C	1.839382	1.342082	0.865393
C113	C	1.089385	0.692038	0.115391
C114	C	1.339385	0.942038	0.365391
C115	C	1.589385	1.192038	0.615391
C116	C	1.839385	1.442038	0.865391
C117	C	1.089381	0.307741	0.115404
C118	C	1.339381	0.557741	0.365404
C119	C	1.589381	0.807741	0.615404
C120	C	1.839381	1.057741	0.865404
C121	C	1.090222	0.079732	-0.341232
C122	C	1.340222	0.329732	-0.091232
C123	C	1.590222	0.579732	0.158768
C124	C	1.840222	0.829732	0.408768
C125	C	1.088529	0.079731	-0.427955
C126	C	1.338529	0.329731	-0.177955
C127	C	1.588529	0.579731	0.072045
C128	C	1.838529	0.829731	0.322045
C129	C	1.088532	-0.079945	-0.427960
C130	C	1.338532	0.170055	-0.177960
C131	C	1.588532	0.420055	0.072040
C132	C	1.838532	0.670055	0.322040
C133	C	1.090219	-0.079943	-0.341238
C134	C	1.340219	0.170057	-0.091238
C135	C	1.590219	0.420057	0.158762
C136	C	1.840219	0.670057	0.408762
C137	C	1.091068	-0.000102	-0.297877
C138	C	1.341068	0.249898	-0.047877
C139	C	1.591068	0.499898	0.202123
C140	C	1.841068	0.749898	0.452123
C141	C	1.087689	-0.000104	-0.471322
C142	C	1.337689	0.249896	-0.221322
C143	C	1.587689	0.499896	0.028678
C144	C	1.837689	0.749896	0.278678
C145	C	1.085854	-0.000106	-0.565351
C146	C	1.335854	0.249894	-0.315351
C147	C	1.585854	0.499894	-0.065351
C148	C	1.835854	0.749894	0.184649
C149	C	1.092902	-0.000101	-0.203842
C150	C	1.342902	0.249899	0.046158
C151	C	1.592902	0.499899	0.296158
C152	C	1.842902	0.749899	0.546158
C153	C	1.082602	-0.000107	0.267394
C154	C	1.332602	0.249893	0.517394
C155	C	1.582602	0.499893	0.767394
C156	C	1.832602	0.749893	1.017394
C157	C	1.084394	-0.000107	0.359693
C158	C	1.334394	0.249893	0.609693
C159	C	1.584394	0.499893	0.859693
C160	C	1.834394	0.749893	1.109693
H161	H	1.203377	0.416249	0.013232
H162	H	1.453377	0.666249	0.263232
H163	H	1.703377	0.916249	0.513232
H164	H	1.953377	1.166249	0.763232
C165	C	1.221328	0.596659	-0.002863
C166	C	1.471328	0.846659	0.247137
C167	C	1.721328	1.096659	0.497137
C168	C	1.971328	1.346659	0.747137
H169	H	1.258741	0.555995	-0.036405
H170	H	1.508741	0.805995	0.213595
H171	H	1.758741	1.055995	0.463595
H172	H	2.008741	1.305995	0.713595
H173	H	1.259635	0.632622	0.027190
H174	H	1.509635	0.882622	0.277190
H175	H	1.759635	1.132622	0.527190
H176	H	2.009635	1.382622	0.777190
H177	H	1.188240	0.632618	-0.037608
H178	H	1.438240	0.882618	0.212392
H179	H	1.688240	1.132618	0.462392
H180	H	1.938240	1.382618	0.712392
H181	H	0.975389	0.583541	0.217564
H182	H	1.225389	0.833541	0.467564
H183	H	1.475389	1.083541	0.717564
H184	H	1.725389	1.333541	0.967564
C185	C	1.087607	0.167548	-0.475643
C186	C	1.337607	0.417548	-0.225643
C187	C	1.587607	0.667548	0.024357
C188	C	1.837607	0.917548	0.274357
H189	H	1.088362	0.215095	-0.437397
H190	H	1.338362	0.465095	-0.187397
H191	H	1.588362	0.715095	0.062603
H192	H	1.838362	0.965095	0.312603
H193	H	1.033203	0.170878	-0.503214
H194	H	1.283203	0.420878	-0.253214
H195	H	1.533203	0.670878	-0.003214
H196	H	1.783203	0.920878	0.246786
H197	H	1.140704	0.170858	-0.515734
H198	H	1.390704	0.420858	-0.265734
H199	H	1.640704	0.670858	-0.015734
H200	H	1.890704	0.920858	0.234266
C201	C	0.957433	0.403111	0.233665
C202	C	1.207433	0.653111	0.483665
C203	C	1.457433	0.903111	0.733665
C204	C	1.707433	1.153111	0.983665
H205	H	0.966442	0.341605	0.225608
H206	H	1.216442	0.591605	0.475608
H207	H	1.466442	0.841605	0.725608
H208	H	1.716442	1.091605	0.975608
H209	H	0.895921	0.418217	0.224406
H210	H	1.145921	0.668217	0.474406
H211	H	1.395921	0.918217	0.724406
H212	H	1.645921	1.168217	0.974406
H213	H	0.967315	0.418225	0.289205
H214	H	1.217315	0.668225	0.539205
H215	H	1.467315	0.918225	0.789205
H216	H	1.717315	1.168225	1.039205
H217	H	1.090911	0.144743	-0.305929
H218	H	1.340911	0.394743	-0.055929
H219	H	1.590911	0.644743	0.194071
H220	H	1.840911	0.894743	0.444071
H221	H	1.090902	-0.144957	-0.305937
H222	H	1.340902	0.105043	-0.055937
H223	H	1.590902	0.355043	0.194063
H224	H	1.840902	0.605043	0.444063
H225	H	1.087843	-0.144948	-0.463276
H226	H	1.337843	0.105052	-0.213276
H227	H	1.587843	0.355052	0.036724
H228	H	1.837843	0.605052	0.286724
