data_functionalizedCrystal
_audit_creation_method	'MofGen! by Chris Wilmer'
_symmetry_space_group_name_H-M	'P1'
_symmetry_Int_Tables_number	1
_symmetry_cell_setting	triclinic
loop_
_symmetry_equiv_pos_as_xyz
  x,y,z
_cell_length_a	10.489716
_cell_length_b	8.965430
_cell_length_c	8.559649
_cell_angle_alpha	89.997936
_cell_angle_beta	77.153900
_cell_angle_gamma	90.003477
loop_
_atom_site_label
_atom_site_type_symbol
_atom_site_fract_x
_atom_site_fract_y
_atom_site_fract_z
O1	O	1.670381	0.124020	0.224983
O2	O	1.296952	0.124025	0.246161
O3	O	1.516566	0.124020	0.003345
O4	O	1.450767	0.124024	0.467799
O5	O	1.516548	-0.124059	0.003361
O6	O	1.296934	-0.124054	0.246177
O7	O	1.670363	-0.124059	0.224999
Cu8	Cu	1.483647	-0.146708	0.235590
Cu9	Cu	1.483668	0.146674	0.235571
O10	O	1.450749	-0.124055	0.467815
C11	C	1.249578	-0.000014	0.244578
C12	C	1.108448	-0.000012	0.239817
N13	N	1.483641	-0.353057	0.235602
C14	C	0.995095	-0.000007	0.388720
C15	C	0.926026	-0.122331	0.310045
C16	C	0.926054	0.122256	0.309993
C17	C	1.041238	-0.122436	0.161205
C18	C	1.041269	0.122260	0.161175
C19	C	0.972260	-0.000093	0.082391
C20	C	1.382053	-0.450361	0.347859
C21	C	1.494151	-0.549776	0.380142
C22	C	1.371590	-0.549770	0.203334
C23	C	1.595791	-0.450284	0.267957
C24	C	1.473160	-0.450268	0.091086
C25	C	1.585347	-0.549639	0.123308
C26	C	1.717737	-0.000017	0.226583
C27	C	1.858867	-0.000009	0.231343
C28	C	1.521543	-0.000017	-0.056120
C29	C	1.536386	-0.000008	-0.233331
N30	N	1.483685	0.353023	0.235546
C31	C	1.445772	-0.000015	0.527280
C32	C	1.430929	-0.000013	0.704491
H33	H	1.006126	-0.000120	0.518242
H34	H	1.638034	-0.000022	-0.315678
H35	H	1.671360	-0.592955	0.028347
H36	H	0.875917	-0.225743	0.372909
O37	O	1.461332	-0.392305	-0.070715
H38	H	1.368173	-0.432076	-0.097205
O39	O	1.505893	-0.607686	0.542005
H40	H	1.598107	-0.566124	0.569616
H41	H	1.296204	-0.406771	0.442879
O42	O	0.859702	0.259226	0.393281
H43	H	0.754943	0.258510	0.387951
O44	O	1.107344	-0.259576	0.078021
H45	H	1.212319	-0.258532	0.082315
H46	H	1.276812	-0.593474	0.176066
H47	H	0.961478	-0.000165	-0.047226
O48	O	1.107677	0.259238	0.077966
H49	H	1.061101	0.360628	0.140044
H50	H	1.329287	-0.000017	-0.213170
H51	H	1.690575	-0.406767	0.295372
