data_functionalizedCrystal
_audit_creation_method	'MofGen! by Chris Wilmer'
_symmetry_space_group_name_H-M	'P1'
_symmetry_Int_Tables_number	1
_symmetry_cell_setting	triclinic
loop_
_symmetry_equiv_pos_as_xyz
  x,y,z
_cell_length_a	10.654545
_cell_length_b	27.731996
_cell_length_c	9.130313
_cell_angle_alpha	89.989531
_cell_angle_beta	89.996934
_cell_angle_gamma	83.552233
loop_
_atom_site_label
_atom_site_type_symbol
_atom_site_fract_x
_atom_site_fract_y
_atom_site_fract_z
O1	O	1.664956	0.067877	-0.121806
O2	O	1.299202	0.074347	-0.121814
O3	O	1.493473	0.000784	-0.121778
O4	O	1.470686	0.141440	-0.121842
O5	O	1.493460	0.000782	0.121821
O6	O	1.299189	0.074345	0.121784
O7	O	1.664943	0.067875	0.121793
Cu8	Cu	1.482065	0.071110	0.144031
Cu9	Cu	1.482080	0.071112	-0.144053
O10	O	1.470672	0.141438	0.121757
C11	C	1.252418	0.073872	-0.000015
C12	C	1.113034	0.072452	-0.000017
C13	C	1.047551	0.071782	0.132770
C14	C	0.916589	0.070440	0.132770
C15	C	0.916604	0.070439	-0.132814
C16	C	1.047565	0.071778	-0.132814
C17	C	1.492998	-0.017227	0.000026
C18	C	1.491588	-0.070892	0.000041
C19	C	1.482725	-0.403662	-0.132816
C20	C	1.477371	-0.605354	-0.132842
O21	O	1.476630	-0.631428	-0.245772
N22	N	1.476698	-0.630576	-0.000058
C23	C	1.477357	-0.605372	0.132742
O24	O	1.476649	-0.631453	0.245683
C25	C	1.482702	-0.403681	0.132767
C26	C	1.483387	-0.378462	-0.000026
C27	C	1.483408	-0.378443	-0.265599
C28	C	1.484753	-0.328023	-0.265591
C29	C	1.485415	-0.302823	-0.132801
C30	C	1.484732	-0.328042	-0.000019
C31	C	1.483351	-0.378478	0.265566
C32	C	1.484684	-0.328052	0.265560
C33	C	1.485369	-0.302833	0.132767
C34	C	1.486739	-0.252423	0.132779
N35	N	1.487411	-0.227200	-0.000005
C36	C	1.486749	-0.252401	-0.132795
C37	C	1.474553	-0.711263	0.132720
C38	C	1.473219	-0.761686	0.132715
C39	C	1.473231	-0.761664	-0.132871
C40	C	1.474574	-0.711241	-0.132864
C41	C	1.475225	-0.686041	-0.000064
C42	C	1.489576	-0.146516	-0.132769
C43	C	1.490926	-0.096092	-0.132749
C44	C	1.490908	-0.096118	0.132835
C45	C	1.489564	-0.146538	0.132817
C46	C	1.488894	-0.171735	0.000003
O47	O	1.487466	-0.226317	0.245650
O48	O	1.487429	-0.226310	-0.245719
C49	C	1.481379	-0.454082	-0.132824
C50	C	1.480696	-0.479301	-0.000042
C51	C	1.481358	-0.454101	0.132748
C52	C	1.479362	-0.529724	-0.000048
C53	C	1.478700	-0.554924	-0.132838
C54	C	1.479372	-0.529702	-0.265622
C55	C	1.480717	-0.479282	-0.265614
C56	C	1.480686	-0.479323	0.265533
C57	C	1.479342	-0.529743	0.265514
C58	C	1.478680	-0.554943	0.132724
C59	C	1.711728	0.068351	-0.000009
C60	C	1.851111	0.069771	-0.000017
C61	C	1.471147	0.159449	-0.000051
C62	C	1.472557	0.213114	-0.000076
N63	N	1.482063	0.071108	0.346654
N64	N	1.482092	0.071111	-0.346675
C65	C	1.568115	0.038548	0.423322
C66	C	1.568127	0.038548	0.576658
C67	C	1.396032	0.103672	0.576646
C68	C	1.396015	0.103669	0.423312
H69	H	1.100883	0.072322	-0.240951
F70	F	1.485474	-0.301189	-0.406929
F71	F	1.659711	0.003893	0.658249
H72	H	1.491487	-0.075561	-0.240890
H73	H	1.472693	-0.782190	-0.240994
F74	F	1.304418	0.138323	0.341710
H75	H	1.325975	0.130183	0.639077
H76	H	0.863282	0.069891	-0.240933
F77	F	1.659692	0.003892	0.341742
F78	F	0.846902	0.069727	0.274101
F79	F	1.481445	-0.452448	-0.406952
F80	F	1.488862	-0.173326	-0.274124
F81	F	1.472513	-0.788522	0.274051
H82	H	1.100853	0.072331	0.240901
H83	H	1.482865	-0.398955	-0.373739
H84	H	1.475089	-0.690750	0.240868
F85	F	1.475300	-0.684405	-0.274198
H86	H	1.482795	-0.399003	0.373700
F87	F	1.485377	-0.301235	0.406908
H88	H	1.478839	-0.550229	-0.373745
H89	H	1.489018	-0.167073	0.240948
F90	F	1.491615	-0.069290	0.274153
F91	F	1.478621	-0.556578	0.406861
F92	F	1.481381	-0.452510	0.406874
