data_functionalizedCrystal
_audit_creation_method	'MofGen! by Chris Wilmer'
_symmetry_space_group_name_H-M	'P1'
_symmetry_Int_Tables_number	1
_symmetry_cell_setting	triclinic
loop_
_symmetry_equiv_pos_as_xyz
  x,y,z
_cell_length_a	14.519709
_cell_length_b	14.519731
_cell_length_c	16.776229
_cell_angle_alpha	89.992369
_cell_angle_beta	89.998478
_cell_angle_gamma	83.684499
loop_
_atom_site_label
_atom_site_type_symbol
_atom_site_fract_x
_atom_site_fract_y
_atom_site_fract_z
O1	O	1.223880	0.120892	-0.066186
O2	O	1.723880	0.620892	0.433814
O3	O	0.955404	0.135129	-0.066211
O4	O	1.455404	0.635129	0.433789
O5	O	1.096750	-0.006227	-0.066191
O6	O	1.596750	0.493773	0.433809
O7	O	1.082534	0.262248	-0.066206
O8	O	1.582534	0.762248	0.433794
O9	O	1.096731	-0.006235	0.066386
O10	O	1.596731	0.493765	0.566386
O11	O	0.955385	0.135120	0.066366
O12	O	1.455385	0.635120	0.566366
O13	O	1.223861	0.120883	0.066390
O14	O	1.723861	0.620883	0.566390
Zn15	Zn	1.089620	0.128000	0.087427
Zn16	Zn	1.589620	0.628000	0.587427
Zn17	Zn	1.089645	0.128012	-0.087248
Zn18	Zn	1.589645	0.628012	0.412752
O19	O	1.082515	0.262239	0.066370
O20	O	1.582515	0.762239	0.566370
C21	C	1.096075	-0.040591	0.000098
C22	C	1.596075	0.459409	0.500098
C23	C	1.094079	-0.142971	0.000098
C24	C	1.594079	0.357029	0.500098
C25	C	0.921035	0.134461	0.000074
C26	C	1.421035	0.634461	0.500074
C27	C	0.818654	0.132473	0.000065
C28	C	1.318654	0.632473	0.500065
C29	C	1.092457	-0.226115	0.000096
C30	C	1.592457	0.273885	0.500096
C31	C	1.090430	-0.330424	0.000090
C32	C	1.590430	0.169576	0.500090
C33	C	1.088822	-0.413563	0.000084
C34	C	1.588822	0.086437	0.500084
C35	C	1.086795	-0.517878	0.000080
C36	C	1.586795	-0.017878	0.500080
C37	C	0.443757	0.125153	0.000102
C38	C	0.943757	0.625153	0.500102
C39	C	0.548065	0.127186	0.000091
C40	C	1.048065	0.627186	0.500091
C41	C	0.631202	0.128813	0.000083
C42	C	1.131202	0.628813	0.500083
C43	C	0.735517	0.130846	0.000074
C44	C	1.235517	0.630846	0.500074
C45	C	1.258230	0.121551	0.000103
C46	C	1.758230	0.621551	0.500103
C47	C	1.360612	0.123539	0.000107
C48	C	1.860612	0.623539	0.500107
C49	C	1.083191	0.296603	0.000080
C50	C	1.583191	0.796603	0.500080
C51	C	1.085187	0.398983	0.000074
C52	C	1.585187	0.898983	0.500074
N53	N	1.089610	0.127992	0.206639
N54	N	1.589610	0.627992	0.706639
N55	N	1.089663	0.128013	-0.206459
N56	N	1.589663	0.628013	0.293541
C57	C	1.152217	0.065425	0.248365
C58	C	1.652217	0.565425	0.748365
C59	C	1.152222	0.065425	0.331817
C60	C	1.652222	0.565425	0.831817
C61	C	1.089624	0.127995	0.373541
C62	C	1.589624	0.627995	0.873541
C63	C	1.027010	0.190565	0.331810
C64	C	1.527010	0.690565	0.831810
C65	C	1.027001	0.190560	0.248359
C66	C	1.527001	0.690560	0.748359
C67	C	1.027044	0.190583	0.668357
C68	C	1.527044	0.690583	1.168357
C69	C	1.027059	0.190584	0.751813
C70	C	1.527059	0.690584	1.251813
C71	C	1.152265	0.065447	0.751815
C72	C	1.652265	0.565447	1.251815
C73	C	1.152256	0.065443	0.668364
C74	C	1.652256	0.565443	1.168364
C75	C	1.089639	0.128009	0.626639
C76	C	1.589639	0.628009	1.126639
C77	C	1.089633	0.128007	0.536151
C78	C	1.589633	0.628007	1.036151
C79	C	1.089634	0.128002	0.464028
C80	C	1.589634	0.628002	0.964028
H81	H	1.203201	0.014478	0.365790
H82	H	1.703201	0.514478	0.865790
O83	O	1.219766	-0.002048	0.623359
O84	O	1.719766	0.497952	1.123359
H85	H	1.263296	-0.045563	0.666394
H86	H	1.763296	0.454437	1.166394
H87	H	0.976061	0.241528	0.634391
H88	H	1.476061	0.741528	1.134391
H89	H	1.203248	0.014500	0.785796
H90	H	1.703248	0.514500	1.285796
H91	H	0.976081	0.241539	0.785784
H92	H	1.476081	0.741539	1.285784
H93	H	0.976037	0.241508	0.365787
H94	H	1.476037	0.741508	0.865787
O95	O	0.959480	0.258046	0.203348
O96	O	1.459480	0.758046	0.703348
H97	H	0.915959	0.301564	0.246380
H98	H	1.415959	0.801564	0.746380
H99	H	1.203196	0.014477	0.214398
H100	H	1.703196	0.514477	0.714398
