data_functionalizedCrystal
_audit_creation_method	'MofGen! by Chris Wilmer'
_symmetry_space_group_name_H-M	'P1'
_symmetry_Int_Tables_number	1
_symmetry_cell_setting	triclinic
loop_
_symmetry_equiv_pos_as_xyz
  x,y,z
_cell_length_a	23.532361
_cell_length_b	23.532407
_cell_length_c	13.101039
_cell_angle_alpha	93.336507
_cell_angle_beta	86.668482
_cell_angle_gamma	82.839173
loop_
_atom_site_label
_atom_site_type_symbol
_atom_site_fract_x
_atom_site_fract_y
_atom_site_fract_z
O1	O	0.758424	0.065850	-0.085121
O2	O	1.258424	0.565850	0.414879
O3	O	0.592558	0.075880	-0.085147
O4	O	1.092558	0.575880	0.414853
O5	O	0.680492	-0.012066	-0.085115
O6	O	1.180492	0.487934	0.414885
O7	O	0.670490	0.153797	-0.085154
O8	O	1.170490	0.653797	0.414846
O9	O	0.674183	-0.005746	0.085313
O10	O	1.174183	0.494254	0.585313
O11	O	0.586249	0.082201	0.085280
O12	O	1.086249	0.582201	0.585280
O13	O	0.752115	0.072171	0.085306
O14	O	1.252115	0.572171	0.585306
Zn15	Zn	0.668180	0.078189	0.112352
Zn16	Zn	1.168180	0.578189	0.612352
Zn17	Zn	0.676493	0.069862	-0.112193
Zn18	Zn	1.176493	0.569862	0.387807
O19	O	0.664181	0.160118	0.085274
O20	O	1.164181	0.660118	0.585274
C21	C	0.568187	0.078789	0.000063
C22	C	1.068187	0.578789	0.500063
C23	C	0.504969	0.078034	0.000054
C24	C	1.004969	0.578034	0.500054
C25	C	0.235164	0.071285	-0.092839
C26	C	0.735164	0.571285	0.407161
C27	C	0.294564	0.072000	-0.092842
C28	C	0.794564	0.572000	0.407158
O29	O	0.328215	0.069420	-0.171848
O30	O	0.828215	0.569420	0.328152
N31	N	0.320830	0.075807	0.000059
N32	N	0.820830	0.575807	0.500059
C33	C	0.287694	0.078892	0.092968
C34	C	0.787694	0.578892	0.592968
O35	O	0.315491	0.082195	0.171987
O36	O	0.815491	0.582195	0.671987
C37	C	0.228296	0.078174	0.092970
C38	C	0.728296	0.578174	0.592970
C39	C	0.202032	0.074373	0.000063
C40	C	0.702032	0.574373	0.500063
C41	C	0.208900	0.067484	-0.185738
C42	C	0.708900	0.567484	0.314262
C43	C	0.149504	0.066770	-0.185735
C44	C	0.649504	0.566770	0.314265
C45	C	0.116372	0.069858	-0.092833
C46	C	0.616372	0.569858	0.407167
C47	C	0.142636	0.073659	0.000066
C48	C	0.642636	0.573659	0.500066
C49	C	0.195162	0.081255	0.185878
C50	C	0.695162	0.581255	0.685878
C51	C	0.135760	0.080536	0.185871
C52	C	0.635760	0.580536	0.685871
C53	C	0.109496	0.076735	0.092965
C54	C	0.609496	0.576735	0.592965
C55	C	0.050109	0.076033	0.092971
C56	C	0.550109	0.576033	0.592971
N57	N	0.023842	0.072226	0.000071
N58	N	0.523842	0.572226	0.500071
C59	C	0.056974	0.069139	-0.092831
C60	C	0.556974	0.569139	0.407169
C61	C	0.412435	0.080401	0.092957
C62	C	0.912435	0.580401	0.592957
C63	C	0.471831	0.081124	0.092957
C64	C	0.971831	0.581124	0.592957
C65	C	0.478697	0.074231	-0.092853
C66	C	0.978697	0.574231	0.407147
C67	C	0.419299	0.073512	-0.092851
C68	C	0.919299	0.573512	0.407149
C69	C	0.386168	0.076595	0.000057
C70	C	0.886168	0.576595	0.500057
C71	C	-0.067762	0.067641	-0.092818
C72	C	0.432238	0.567641	0.407182
C73	C	-0.127164	0.066930	-0.092806
C74	C	0.372836	0.566930	0.407194
C75	C	-0.134024	0.073820	0.093003
C76	C	0.365976	0.573820	0.593003
C77	C	-0.074628	0.074534	0.092992
C78	C	0.425372	0.574534	0.592992
C79	C	-0.041498	0.071442	0.000074
C80	C	0.458502	0.571442	0.500074
O81	O	0.016422	0.078608	0.171937
O82	O	0.516422	0.578608	0.671937
O83	O	0.029171	0.065829	-0.171837
O84	O	0.529171	0.565829	0.328163
C85	C	0.677083	-0.030122	0.000102
C86	C	1.177083	0.469878	0.500102
C87	C	0.676316	-0.093339	0.000109
C88	C	1.176316	0.406661	0.500109
C89	C	0.723553	-0.492452	0.000061
C90	C	1.223553	0.007548	0.500061
C91	C	0.722842	-0.551852	0.000053
C92	C	1.222842	-0.051852	0.500053
O93	O	0.766630	-0.588605	0.000022
O94	O	1.266630	-0.088605	0.500022
N95	N	0.670564	-0.574470	0.000045
N96	N	1.170564	-0.074470	0.500045
C97	C	0.618995	-0.537684	0.000035
C98	C	1.118995	-0.037684	0.500035
O99	O	0.574464	-0.562376	0.000027
O100	O	1.074464	-0.062376	0.500027
C101	C	0.619707	-0.478285	0.000036
C102	C	1.119707	0.021715	0.500036
C103	C	0.671988	-0.455670	0.000054
C104	C	1.171988	0.044330	0.500054
C105	C	0.775829	-0.469836	0.000077
C106	C	1.275829	0.030164	0.500077
C107	C	0.776540	-0.410440	0.000087
C108	C	1.276540	0.089560	0.500087
C109	C	0.724974	-0.373659	0.000080
C110	C	1.224974	0.126341	0.500080
C111	C	0.672698	-0.396274	0.000063
C112	C	1.172698	0.103726	0.500063
C113	C	0.568139	-0.441500	0.000019
C114	C	1.068139	0.058500	0.500019
C115	C	0.568856	-0.382098	0.000018
C116	C	1.068856	0.117902	0.500018
C117	C	0.621136	-0.359483	0.000036
C118	C	1.121136	0.140517	0.500036
C119	C	0.621844	-0.300096	0.000066
C120	C	1.121844	0.199904	0.500066
N121	N	0.674121	-0.277478	0.000074
N122	N	1.174121	0.222522	0.500074
C123	C	0.725687	-0.314260	0.000081
C124	C	1.225687	0.185740	0.500081
C125	C	0.617504	-0.662426	0.000032
C126	C	1.117504	-0.162426	0.500032
C127	C	0.616791	-0.721824	0.000039
C128	C	1.116791	-0.221824	0.500039
C129	C	0.720638	-0.735988	0.000055
C130	C	1.220638	-0.235988	0.500055
C131	C	0.721350	-0.676589	0.000055
C132	C	1.221350	-0.176589	0.500055
C133	C	0.669781	-0.639808	0.000040
C134	C	1.169781	-0.139808	0.500040
C135	C	0.727175	-0.189522	0.000102
C136	C	1.227175	0.310478	0.500102
C137	C	0.727882	-0.130120	0.000116
C138	C	1.227882	0.369880	0.500116
C139	C	0.624036	-0.115961	0.000095
C140	C	1.124036	0.384039	0.500095
C141	C	0.623329	-0.175358	0.000087
C142	C	1.123329	0.324642	0.500087
C143	C	0.674904	-0.212138	0.000087
C144	C	1.174904	0.287862	0.500087
O145	O	0.578079	-0.263309	0.000093
O146	O	1.078079	0.236691	0.500093
O147	O	0.770211	-0.289559	0.000075
O148	O	1.270211	0.210441	0.500075
C149	C	0.776486	0.069262	0.000093
C150	C	1.276486	0.569262	0.500093
C151	C	0.839704	0.070017	0.000096
C152	C	1.339704	0.570017	0.500096
C153	C	0.667590	0.178173	0.000055
C154	C	1.167590	0.678173	0.500055
C155	C	0.668357	0.241390	0.000041
C156	C	1.168357	0.741390	0.500041
N157	N	0.662511	0.083872	0.265599
N158	N	1.162511	0.583872	0.765599
N159	N	0.682166	0.064174	-0.265440
N160	N	1.182166	0.564174	0.234560
C161	C	0.654798	0.091609	0.474638
C162	C	1.154798	0.591609	0.974638
C163	C	0.689877	0.056439	0.525527
C164	C	1.189877	0.556439	1.025527
C165	C	0.685586	0.060744	0.641844
C166	C	1.185586	0.560744	1.141844
C167	C	0.659089	0.087305	0.358311
C168	C	1.159089	0.587305	0.858311
H169	H	-0.148545	0.063836	-0.168465
H170	H	0.351455	0.563836	0.331535
Br171	Br	0.797170	-0.239429	0.000101
Br172	Br	1.297170	0.260571	0.500101
Br173	Br	-0.022809	0.063444	-0.218922
Br174	Br	0.477191	0.563444	0.281078
Br175	Br	0.113870	0.061607	-0.311829
Br176	Br	0.613870	0.561607	0.188171
H177	H	0.235870	0.064968	-0.261394
H178	H	0.735870	0.564968	0.238606
H179	H	0.723133	0.023097	0.481737
H180	H	1.223133	0.523097	0.981737
H181	H	0.621545	0.124951	0.518423
H182	H	1.121545	0.624951	1.018423
H183	H	0.397919	0.070417	-0.168504
H184	H	0.897919	0.570417	0.331496
H185	H	0.505684	0.071716	-0.168499
H186	H	1.005684	0.571716	0.331501
H187	H	0.493209	0.084228	0.168611
H188	H	0.993209	0.584228	0.668611
Br189	Br	0.847496	-0.379760	0.000082
Br190	Br	1.347496	0.120240	0.500082
Br191	Br	0.367477	0.084593	0.219060
Br192	Br	0.867477	0.584593	0.719060
Br193	Br	0.230790	0.086415	0.311973
Br194	Br	0.730790	0.586415	0.811973
H195	H	0.817822	-0.499779	0.000079
H196	H	1.317822	0.000221	0.500079
H197	H	0.108787	0.083051	0.261530
H198	H	0.608787	0.583051	0.761530
H199	H	-0.053244	0.077641	0.168644
H200	H	0.446756	0.577641	0.668644
H201	H	0.763921	-0.658181	0.000069
H202	H	1.263921	-0.158181	0.500069
H203	H	0.762625	-0.765946	0.000056
H204	H	1.262625	-0.265946	0.500056
Br205	Br	0.798838	-0.099433	0.000142
Br206	Br	1.298838	0.400567	0.500142
Br207	Br	-0.179000	0.078013	0.219078
Br208	Br	0.321000	0.578013	0.719078
H209	H	0.575508	-0.632482	0.000029
H210	H	1.075508	-0.132482	0.500029
H211	H	0.574219	-0.740230	0.000042
H212	H	1.074219	-0.240230	0.500042
H213	H	0.526862	-0.352153	0.000004
H214	H	1.026862	0.147847	0.500004
H215	H	0.580757	-0.193771	0.000101
H216	H	1.080757	0.306229	0.500101
Br217	Br	0.497183	-0.472176	-0.000010
Br218	Br	0.997183	0.027824	0.499990
H219	H	0.582052	-0.086003	0.000093
H220	H	1.082052	0.413997	0.500093
