data_functionalizedCrystal
_audit_creation_method	'MofGen! by Chris Wilmer'
_symmetry_space_group_name_H-M	'P1'
_symmetry_Int_Tables_number	1
_symmetry_cell_setting	triclinic
loop_
_symmetry_equiv_pos_as_xyz
  x,y,z
_cell_length_a	14.519710
_cell_length_b	10.654550
_cell_length_c	9.130313
_cell_angle_alpha	90.000110
_cell_angle_beta	90.000703
_cell_angle_gamma	95.917476
loop_
_atom_site_label
_atom_site_type_symbol
_atom_site_fract_x
_atom_site_fract_y
_atom_site_fract_z
O1	O	1.224716	-0.164617	-0.121763
O2	O	0.956339	-0.184004	-0.121773
O3	O	1.096698	0.008488	-0.121763
O4	O	1.084357	-0.357109	-0.121774
O5	O	1.096696	0.008483	0.121836
O6	O	0.956338	-0.184009	0.121826
O7	O	1.224714	-0.164623	0.121835
Cu8	Cu	1.090526	-0.174316	0.144073
Cu9	Cu	1.090528	-0.174310	-0.144011
O10	O	1.084355	-0.357114	0.121825
C11	C	0.921974	-0.183103	0.000025
C12	C	0.819579	-0.180396	0.000022
C13	C	1.095791	0.055275	0.000035
C14	C	1.093080	0.194692	0.000030
C15	C	1.259079	-0.165524	0.000034
C16	C	1.361475	-0.168231	0.000028
C17	C	1.736422	-0.178198	0.000027
C18	C	1.632100	-0.175430	0.000027
C19	C	1.548952	-0.173215	0.000026
C20	C	1.444623	-0.170446	0.000029
C21	C	1.085262	-0.403901	0.000024
C22	C	1.087973	-0.543318	0.000020
N23	N	1.090531	-0.174320	0.346696
C24	C	1.175721	0.274972	0.000037
C25	C	1.173168	0.405968	0.000027
C26	C	1.005326	0.376391	0.000008
C27	C	1.007880	0.245397	0.000008
C28	C	1.260921	0.224266	0.000059
C29	C	1.343569	0.304548	0.000068
C30	C	1.341016	0.435544	0.000058
C31	C	1.255815	0.486259	0.000039
N32	N	1.090530	-0.174297	-0.346633
C33	C	1.152698	-0.089113	0.423352
C34	C	1.152695	-0.089098	0.576689
C35	C	1.028356	-0.259507	0.576699
C36	C	1.028355	-0.259515	0.423365
C37	C	1.214874	-0.003918	0.346683
C38	C	1.277047	0.081295	0.423339
C39	C	1.277044	0.081310	0.576676
C40	C	1.214869	-0.003888	0.653356
H41	H	1.412936	0.263247	0.000047
C42	C	0.911611	0.432176	-0.000002
C43	C	0.886775	0.518162	0.126494
C44	C	0.793059	0.573946	0.126489
C45	C	0.724179	0.543744	-0.000011
C46	C	0.749014	0.457754	-0.126517
C47	C	0.842730	0.401970	-0.126512
H48	H	0.937765	0.540523	0.220146
H49	H	0.774675	0.637602	0.220138
H50	H	0.654805	0.585039	-0.000015
H51	H	0.698024	0.435393	-0.220169
H52	H	0.861114	0.338314	-0.220160
C53	C	0.916977	0.157076	0.000000
C54	C	0.847397	0.162883	-0.126502
C55	C	0.756494	0.074559	-0.126520
C56	C	0.735169	-0.019572	-0.000034
C57	C	0.804751	-0.025383	0.126478
C58	C	0.895655	0.062941	0.126495
H59	H	0.863181	0.232568	-0.220143
H60	H	0.704985	0.078862	-0.220173
H61	H	0.667877	-0.084955	-0.000047
H62	H	0.788967	-0.095068	0.220118
H63	H	0.947163	0.058638	0.220148
H64	H	0.977732	-0.328897	0.360951
H65	H	1.253743	0.592926	0.000015
H66	H	1.263009	0.117604	0.000072
H67	H	1.214884	-0.003925	0.221828
H68	H	1.408312	0.500907	0.000050
H69	H	1.327663	0.150667	0.360899
H70	H	1.327661	0.150701	0.639089
H71	H	1.214866	-0.003860	0.778214
H72	H	0.977736	-0.328873	0.639142
