data_functionalizedCrystal
_audit_creation_method	'MofGen! by Chris Wilmer'
_symmetry_space_group_name_H-M	'P1'
_symmetry_Int_Tables_number	1
_symmetry_cell_setting	triclinic
loop_
_symmetry_equiv_pos_as_xyz
  x,y,z
_cell_length_a	20.875641
_cell_length_b	14.560438
_cell_length_c	20.875652
_cell_angle_alpha	62.439723
_cell_angle_beta	90.151967
_cell_angle_gamma	57.589171
loop_
_atom_site_label
_atom_site_type_symbol
_atom_site_fract_x
_atom_site_fract_y
_atom_site_fract_z
Zr1	Zr	0.643703	0.931498	-0.058412
O2	O	0.541282	1.123100	-0.160831
O3	O	0.675100	0.739897	-0.027018
O4	O	0.680013	0.917437	-0.155925
O5	O	0.532496	0.956650	0.069763
O6	O	0.789446	0.906345	-0.152053
O7	O	0.536370	0.945559	-0.031923
O8	O	0.780659	0.588757	0.078539
O9	O	0.541283	1.274239	-0.160829
O10	O	0.770160	0.810426	-0.010737
O11	O	0.685600	0.826981	0.062262
O12	O	0.691383	1.036013	-0.089510
O13	O	0.606823	1.052568	-0.016512
Zr14	Zr	0.812056	0.931495	0.109940
Zr15	Zr	0.818236	0.913807	-0.052238
Zr16	Zr	0.637524	0.949186	0.103766
Zr17	Zr	0.643703	1.172546	-0.058409
Zr18	Zr	0.812056	0.690447	0.109937
O19	O	0.780659	1.123097	0.078545
O20	O	0.789446	1.097946	-0.152051
O21	O	0.532496	1.148251	0.069766
O22	O	0.914477	0.739893	0.212358
O23	O	0.923264	0.714742	-0.018238
O24	O	0.666314	0.765047	0.203579
O25	O	0.923264	0.906343	-0.018235
O26	O	0.775747	0.945556	0.207453
O27	O	0.666314	0.956648	0.203581
O28	O	0.919389	0.917434	0.083451
O29	O	0.680013	1.260177	-0.155921
O30	O	0.775747	0.602817	0.207448
O31	O	0.914477	0.588755	0.212357
O32	O	0.919389	0.574695	0.083447
O33	O	0.536371	1.288299	-0.031919
O34	O	0.675101	1.274237	-0.027011
O35	O	0.764377	0.826980	0.141038
O36	O	0.848937	0.810425	0.068040
O37	O	0.770160	1.036012	-0.010734
O38	O	0.685600	1.052567	0.062264
C39	C	0.727879	0.629982	0.025760
C40	C	0.727879	0.527651	0.025759
C41	C	0.772017	0.470934	-0.012346
C42	C	0.772020	0.374775	-0.012338
C43	C	0.683741	0.392064	0.063878
C44	C	0.683743	0.488215	0.063875
C45	C	0.509566	0.953625	0.018040
C46	C	0.435472	0.961136	0.015419
C47	C	0.441781	0.846913	0.055303
C48	C	0.372160	0.853978	0.052838
C49	C	0.296230	0.975266	0.010485
C50	C	0.289922	1.089497	-0.029400
C51	C	0.359543	1.082432	-0.026931
C52	C	0.083601	1.009024	-0.001306
C53	C	0.013978	1.016080	-0.003775
C54	C	0.096221	0.780560	0.078465
C55	C	0.165839	0.773505	0.080927
C56	C	0.159526	0.887737	0.041045
N57	N	0.225064	0.982489	0.007962
N58	N	0.230690	0.880512	0.043573
C59	C	0.946194	0.909368	0.033487
C60	C	1.020287	0.901858	0.036109
C61	C	0.735610	0.909371	-0.177096
C62	C	0.738233	0.901862	-0.245945
C63	C	0.727880	1.233011	0.025768
C64	C	0.727880	1.335342	0.025769
C65	C	0.757416	0.846909	-0.629062
C66	C	0.754954	0.853975	-0.564375
C67	C	0.712596	0.975263	-0.573154
C68	C	0.672705	1.089494	-0.646627
C69	C	0.675173	1.082427	-0.711312
C70	C	0.700810	1.009025	-0.384103
C71	C	0.698343	1.016084	-0.319410
C72	C	0.780593	0.780563	-0.237162
C73	C	0.783053	0.773508	-0.301853
C74	C	0.743166	0.887738	-0.375320
N75	N	0.710076	0.982488	-0.507034
N76	N	0.745692	0.880511	-0.441438
C77	C	0.720150	0.953622	0.228624
C78	C	0.717527	0.961131	0.297473
C79	C	0.946193	0.607854	0.033484
C80	C	1.020287	0.498012	0.036104
C81	C	0.720150	0.652108	0.228620
C82	C	0.717526	0.557286	0.297468
C83	C	0.938464	0.629979	0.236344
C84	C	1.009934	0.527647	0.307813
C85	C	0.517296	1.233014	-0.184816
C86	C	0.445826	1.335346	-0.256285
C87	C	0.509566	1.255140	0.018044
C88	C	0.435472	1.364981	0.015424
C89	C	0.735610	1.210885	-0.177092
C90	C	0.738233	1.305707	-0.245940
C91	C	1.013962	0.446429	-0.003793
C92	C	1.083575	0.343234	-0.001347
C93	C	1.159512	0.291617	0.041001
C94	C	1.165835	0.343210	0.080900
C95	C	1.096224	0.446409	0.078448
C96	C	0.757415	0.512757	0.370927
C97	C	0.754946	0.423676	0.435622
C98	C	0.712594	0.379119	0.426858
C99	C	0.672700	0.423657	0.353391
C100	C	0.675164	0.512744	0.288697
C101	C	1.087644	0.470948	0.303271
C102	C	1.154805	0.374808	0.370418
C103	C	1.144254	0.335362	0.442105
C104	C	1.066536	0.392071	0.446645
C105	C	0.999377	0.488216	0.379499
C106	C	0.368116	1.392057	-0.251743
C107	C	0.300955	1.488226	-0.318890
C108	C	0.311506	1.527678	-0.390577
C109	C	0.389224	1.470963	-0.395117
C110	C	0.456383	1.374801	-0.327971
C111	C	0.441798	1.416573	0.055314
C112	C	0.372186	1.519793	0.052850
C113	C	0.296249	1.571413	0.010500
C114	C	0.289925	1.519816	-0.029396
C115	C	0.359537	1.416604	-0.026935
C116	C	0.780593	1.350236	-0.237151
C117	C	0.783074	1.439317	-0.301833
C118	C	0.743189	1.483876	-0.375305
C119	C	0.700828	1.439338	-0.384093
C120	C	0.698353	1.350251	-0.319411
H121	H	0.807962	0.328596	-0.043365
F122	F	0.802498	0.560158	0.380272
H123	H	1.101385	0.488396	0.110942
F124	F	0.823043	0.659000	-0.158972
F125	F	0.916673	0.548544	0.384344
H126	H	1.078410	0.301240	-0.033837
F127	F	0.797411	0.376288	0.513804
H128	H	0.791904	0.748143	-0.621905
F129	F	0.378880	0.732406	0.095295
F130	F	0.522609	1.361657	0.100390
F131	F	0.246647	0.644413	0.126005
H132	H	0.101352	0.687559	0.110934
H133	H	-0.047849	1.114853	-0.038267
H134	H	0.952137	0.488453	-0.038287
H135	H	0.668356	1.475632	-0.443922
F136	F	0.745829	1.578694	-0.444140
F137	F	0.828132	0.644416	-0.292502
H138	H	0.668330	1.102040	-0.443915
F139	F	0.378933	1.574684	0.095317
H140	H	1.096250	0.503050	0.244906
F141	F	0.709979	0.284303	0.495719
H142	H	0.647806	0.359944	0.094911
H143	H	0.638218	0.387366	0.346266
F144	F	0.222168	1.681261	0.007889
F145	F	1.233593	0.181781	0.043604
F146	F	0.636768	0.548575	0.104438
H147	H	1.218080	0.328645	0.366708
H148	H	0.663855	1.314007	-0.326578
F149	F	1.055319	0.350076	0.522946
F150	F	1.246660	0.288258	0.125969
F151	F	0.356868	1.350086	-0.175455
H152	H	0.642691	1.175439	-0.771131
F153	F	0.653278	1.145180	-0.328759
F154	F	0.632711	0.560119	0.210518
H155	H	0.354375	1.374601	-0.059417
F156	F	0.218249	1.548567	-0.314042
F157	F	0.818994	0.512898	-0.052910
H158	H	0.813072	1.313970	-0.177332
F159	F	0.797389	0.732405	-0.486188
F160	F	0.828158	1.486707	-0.292465
F161	F	0.240021	1.630023	-0.462035
F162	F	1.215739	0.233033	0.513562
F163	F	0.400441	1.512961	-0.471419
F164	F	0.209100	1.574766	-0.074464
F165	F	0.076872	1.130600	-0.043754
F166	F	0.522589	0.717820	0.100377
F167	F	0.352825	1.204004	-0.069378
F168	F	0.209109	1.218582	-0.074471
F169	F	0.627629	1.218579	-0.655969
H170	H	0.519656	1.328627	-0.331678
