data_functionalizedCrystal
_audit_creation_method	'MofGen! by Chris Wilmer'
_symmetry_space_group_name_H-M	'P1'
_symmetry_Int_Tables_number	1
_symmetry_cell_setting	triclinic
loop_
_symmetry_equiv_pos_as_xyz
  x,y,z
_cell_length_a	10.967819
_cell_length_b	11.026607
_cell_length_c	9.482944
_cell_angle_alpha	98.126951
_cell_angle_beta	112.345149
_cell_angle_gamma	96.381100
loop_
_atom_site_label
_atom_site_type_symbol
_atom_site_fract_x
_atom_site_fract_y
_atom_site_fract_z
O1	O	1.794407	0.250984	0.570454
O2	O	1.418185	0.254009	0.476199
O3	O	1.575114	0.074493	0.515509
O4	O	1.637478	0.430500	0.531144
O5	O	1.530589	0.038823	0.262562
O6	O	1.373660	0.218340	0.223252
O7	O	1.749882	0.215314	0.317506
Cu8	Cu	1.557706	0.213570	0.247283
Cu9	Cu	1.610361	0.255753	0.546423
O10	O	1.592953	0.394831	0.278196
C11	C	1.347009	0.233258	0.337471
C12	C	1.201260	0.224553	0.300957
C13	C	1.008719	0.230170	0.378003
C14	C	1.159356	0.239157	0.415733
C15	C	1.541347	0.010949	0.386155
C16	C	1.507052	-0.125249	0.377568
C17	C	1.601749	-0.194954	0.401295
C18	C	1.566306	-0.335722	0.392421
C19	C	1.821058	0.236066	0.456237
C20	C	1.966810	0.244772	0.492762
C21	C	1.626720	0.458375	0.407554
C22	C	1.661017	0.594575	0.416150
N23	N	1.520680	0.183900	0.036886
C24	C	1.599431	0.247001	-0.015583
C25	C	1.568633	0.222304	-0.190716
N26	N	1.647395	0.285414	0.756821
H27	H	1.125624	0.205405	0.174766
H28	H	1.689657	0.319303	0.069154
H29	H	1.768358	-0.360878	0.443152
H30	H	0.933079	0.211023	0.251821
O31	O	1.379081	-0.178577	0.345449
C32	C	1.227102	-0.367478	0.307478
C33	C	1.372079	-0.307254	0.343831
H34	H	1.221400	-0.471517	0.306191
H35	H	1.157630	-0.352752	0.188859
H36	H	1.194963	-0.322718	0.400592
H37	H	1.404344	-0.351975	0.250817
H38	H	1.441466	-0.321968	0.462496
O39	O	1.413064	0.097718	-0.064408
C40	C	1.284149	-0.005368	-0.331339
C41	C	1.406052	0.092290	-0.216806
H42	H	1.278457	-0.009808	-0.454573
H43	H	1.188662	0.021774	-0.325353
H44	H	1.295138	-0.100444	-0.298853
H45	H	1.395193	0.187399	-0.249214
H46	H	1.501493	0.065041	-0.222811
O47	O	1.754944	0.371685	-0.141908
C48	C	1.883770	0.474876	0.125000
C49	C	1.761917	0.377160	0.010481
H50	H	1.889464	0.479317	0.248235
H51	H	1.872914	0.569976	0.092541
H52	H	1.979208	0.447612	0.119007
H53	H	1.666421	0.404307	0.016415
H54	H	1.772891	0.282086	0.042977
O55	O	1.249407	0.262073	0.566367
C56	C	1.283413	0.299735	0.836378
C57	C	1.181291	0.273816	0.665862
H58	H	1.228378	0.309210	0.916867
H59	H	1.356731	0.389772	0.861343
H60	H	1.340738	0.219312	0.857154
H61	H	1.123871	0.354162	0.644965
H62	H	1.108061	0.183736	0.640981
H63	H	1.478408	0.149989	-0.275447
O64	O	1.057007	0.267844	0.643330
C65	C	1.150527	0.409052	0.892047
C66	C	1.048347	0.383090	0.721556
H67	H	1.143540	0.502215	0.955351
H68	H	1.255978	0.412323	0.895750
H69	H	1.127641	0.331779	0.951290
H70	H	1.071109	0.460332	0.662210
H71	H	0.942927	0.379772	0.717964
H72	H	1.709061	-0.150418	0.428170
H73	H	1.458988	-0.380254	0.365544
