data_functionalizedCrystal
_audit_creation_method	'MofGen! by Chris Wilmer'
_symmetry_space_group_name_H-M	'P1'
_symmetry_Int_Tables_number	1
_symmetry_cell_setting	triclinic
loop_
_symmetry_equiv_pos_as_xyz
  x,y,z
_cell_length_a	15.298114
_cell_length_b	15.298852
_cell_length_c	15.296720
_cell_angle_alpha	88.404329
_cell_angle_beta	69.221067
_cell_angle_gamma	72.671317
loop_
_atom_site_label
_atom_site_type_symbol
_atom_site_fract_x
_atom_site_fract_y
_atom_site_fract_z
Zn1	Zn	1.464152	-0.637501	0.145977
Zn2	Zn	1.517903	-0.766098	-0.036426
Zn3	Zn	1.326259	-0.593064	0.026734
Zn4	Zn	1.335540	-0.766083	0.145999
O5	O	1.410963	-0.690687	0.070571
O6	O	1.605310	-0.673164	0.095339
O7	O	1.511092	-0.724554	-0.154297
O8	O	1.318172	-0.472732	0.068976
O9	O	1.644801	-0.767643	-0.038672
O10	O	1.419481	-0.505379	0.156583
O11	O	1.370292	-0.597427	-0.107893
O12	O	1.193462	-0.597412	0.068997
O13	O	1.333990	-0.767617	0.272245
O14	O	1.200281	-0.724528	0.156620
O15	O	1.428480	-0.673149	0.272229
O16	O	1.520091	-0.892324	-0.038651
O17	O	1.386110	-0.892312	0.095376
C18	C	1.162119	-0.656147	0.119665
C19	C	1.055664	-0.641396	0.140685
C20	C	0.837801	-0.796156	-0.079439
C21	C	0.937821	-0.810014	-0.099194
C22	C	0.967287	-0.767861	-0.039226
C23	C	0.896722	-0.711847	0.040501
C24	C	0.796691	-0.697982	0.060254
C25	C	0.926178	-0.669687	0.100467
C26	C	0.855613	-0.613673	0.180193
C27	C	0.755592	-0.599812	0.199943
C28	C	0.726126	-0.641965	0.139975
C29	C	1.026209	-0.683552	0.080713
C30	C	0.985099	-0.585378	0.220406
C31	C	0.885079	-0.571520	0.240161
C32	C	1.459963	-0.925054	0.021526
C33	C	1.481008	-1.025334	0.000557
C34	C	1.261163	-1.308054	0.220401
C35	C	1.241391	-1.213837	0.240109
C36	C	1.301293	-1.166707	0.180222
C37	C	1.380971	-1.213802	0.100626
C38	C	1.400750	-1.308029	0.080920
C39	C	1.440880	-1.166682	0.040741
C40	C	1.520558	-1.213778	-0.038855
C41	C	1.540333	-1.307995	-0.058557
C42	C	1.480430	-1.355126	0.001329
C43	C	1.421102	-1.072455	0.060446
C44	C	1.560689	-1.072430	-0.079035
C45	C	1.580461	-1.166647	-0.098742
C46	C	1.660779	-0.725362	0.021285
C47	C	1.767236	-0.740139	0.000283
C48	C	1.376274	-0.725338	0.305887
C49	C	1.361492	-0.740104	0.406165
C50	C	1.361796	-0.455411	0.119822
C51	C	1.340843	-0.355151	0.140810
C52	C	1.445559	-0.656113	-0.163827
C53	C	1.460474	-0.641118	-0.264088
C54	C	1.516618	-0.584997	0.688795
C55	C	1.530513	-0.571126	0.594578
C56	C	1.488259	-0.613369	0.547470
C57	C	1.432107	-0.669486	0.594589
C58	C	1.418217	-0.683365	0.688813
C59	C	1.389858	-0.711736	0.547488
C60	C	1.333707	-0.767854	0.594607
C61	C	1.319819	-0.781729	0.688823
C62	C	1.362073	-0.739486	0.735930
C63	C	1.403748	-0.697858	0.453264
C64	C	1.305348	-0.796225	0.453282
C65	C	1.291453	-0.810097	0.547499
H66	H	0.698139	-0.554195	0.264857
H67	H	1.285190	-1.089991	0.196273
H68	H	1.576234	-0.525438	0.556219
O69	O	1.102307	-0.743968	-0.005271
H70	H	1.146157	-0.703084	-0.051641
O71	O	1.347081	-0.754442	0.837556
H72	H	1.376984	-0.828821	0.844347
H73	H	1.048730	-0.779147	-0.055316
H74	H	0.995269	-0.855619	-0.164109
H75	H	0.813798	-0.830464	-0.128261
H76	H	0.644683	-0.630688	0.156058
H77	H	0.827611	-0.525913	0.305075
H78	H	1.551022	-0.550615	0.727156
H79	H	1.270943	-0.830625	0.414927
H80	H	1.605218	-1.346340	-0.123365
H81	H	1.274106	-0.827432	0.727181
H82	H	1.449466	-0.652166	0.414909
H83	H	1.176519	-1.175496	0.304916
O84	O	1.230893	-0.870622	0.598329
H85	H	1.203834	-0.897662	0.549753
H86	H	1.009089	-0.551051	0.269235
H87	H	1.356228	-1.034118	0.125255
H88	H	1.212403	-1.346437	0.269156
H89	H	1.496519	-1.431844	-0.014717
H90	H	1.609468	-1.034058	-0.127798
O91	O	1.666421	-1.217452	-0.184572
H92	H	1.670115	-1.290889	-0.188199
O93	O	1.503231	-0.598403	0.445853
H94	H	1.549365	-0.552277	0.421004
