data_functionalizedCrystal
_audit_creation_method	'MofGen! by Chris Wilmer'
_symmetry_space_group_name_H-M	'P1'
_symmetry_Int_Tables_number	1
_symmetry_cell_setting	triclinic
loop_
_symmetry_equiv_pos_as_xyz
  x,y,z
_cell_length_a	18.101395
_cell_length_b	18.101398
_cell_length_c	18.101389
_cell_angle_alpha	89.975673
_cell_angle_beta	90.016841
_cell_angle_gamma	89.973629
loop_
_atom_site_label
_atom_site_type_symbol
_atom_site_fract_x
_atom_site_fract_y
_atom_site_fract_z
Zn1	Zn	-0.295001	-1.132121	0.418847
Zn2	Zn	-0.045001	-0.882121	0.668847
Zn3	Zn	0.204999	-0.632121	0.918847
Zn4	Zn	0.454999	-0.382121	1.168847
Zn5	Zn	-0.418826	-1.132017	0.295009
Zn6	Zn	-0.168826	-0.882017	0.545009
Zn7	Zn	0.081174	-0.632017	0.795009
Zn8	Zn	0.331174	-0.382017	1.045009
Zn9	Zn	-0.294993	-1.008280	0.295008
Zn10	Zn	-0.044993	-0.758280	0.545008
Zn11	Zn	0.205007	-0.508280	0.795008
Zn12	Zn	0.455007	-0.258280	1.045008
Zn13	Zn	-0.418795	-1.008231	0.418797
Zn14	Zn	-0.168795	-0.758231	0.668797
Zn15	Zn	0.081205	-0.508231	0.918797
Zn16	Zn	0.331205	-0.258231	1.168797
O17	O	-0.356904	-1.070162	0.356915
O18	O	-0.106904	-0.820162	0.606915
O19	O	0.143096	-0.570162	0.856915
O20	O	0.393096	-0.320162	1.106915
O21	O	-0.311443	-1.235740	0.402440
O22	O	-0.061443	-0.985740	0.652440
O23	O	0.188557	-0.735740	0.902440
O24	O	0.438557	-0.485740	1.152440
O25	O	-0.402410	-1.115580	0.191376
O26	O	-0.152410	-0.865580	0.441376
O27	O	0.097590	-0.615580	0.691376
O28	O	0.347590	-0.365580	0.941376
O29	O	-0.191361	-1.024772	0.311456
O30	O	0.058639	-0.774772	0.561456
O31	O	0.308639	-0.524772	0.811456
O32	O	0.558639	-0.274772	1.061456
O33	O	-0.402417	-1.235664	0.311457
O34	O	-0.152417	-0.985664	0.561457
O35	O	0.097583	-0.735664	0.811457
O36	O	0.347583	-0.485664	1.061457
O37	O	-0.191367	-1.115757	0.402440
O38	O	0.058633	-0.865757	0.652440
O39	O	0.308633	-0.615757	0.902440
O40	O	0.558633	-0.365757	1.152440
O41	O	-0.311430	-1.024671	0.191375
O42	O	-0.061430	-0.774671	0.441375
O43	O	0.188570	-0.524671	0.691375
O44	O	0.438570	-0.274671	0.941375
O45	O	-0.311399	-0.904641	0.311408
O46	O	-0.061399	-0.654641	0.561408
O47	O	0.188601	-0.404641	0.811408
O48	O	0.438601	-0.154641	1.061408
O49	O	-0.402363	-1.024688	0.522437
O50	O	-0.152363	-0.774688	0.772437
O51	O	0.097637	-0.524688	1.022437
O52	O	0.347637	-0.274688	1.272437
O53	O	-0.402356	-0.904604	0.402355
O54	O	-0.152356	-0.654604	0.652355
O55	O	0.097644	-0.404604	0.902355
O56	O	0.347644	-0.154604	1.152355
O57	O	-0.311412	-1.115710	0.522473
O58	O	-0.061412	-0.865710	0.772473
O59	O	0.188588	-0.615710	1.022473
O60	O	0.438588	-0.365710	1.272473
O61	O	-0.522455	-1.115532	0.311409
O62	O	-0.272455	-0.865532	0.561409
O63	O	-0.022455	-0.615532	0.811409
O64	O	0.227545	-0.365532	1.061409
O65	O	-0.522432	-1.024587	0.402356
O66	O	-0.272432	-0.774587	0.652356
O67	O	-0.022432	-0.524587	0.902356
O68	O	0.227568	-0.274587	1.152356
C69	C	-0.356874	-0.877752	0.356877
C70	C	-0.106874	-0.627752	0.606877
C71	C	0.143126	-0.377752	0.856877
C72	C	0.393126	-0.127752	1.106877
C73	C	-0.356879	-0.795437	0.356878
C74	C	-0.106879	-0.545437	0.606878
C75	C	0.143121	-0.295437	0.856878
C76	C	0.393121	-0.045437	1.106878
C77	C	-0.549314	-1.070063	0.356893
C78	C	-0.299314	-0.820063	0.606893
C79	C	-0.049314	-0.570063	0.856893
C80	C	0.200686	-0.320063	1.106893
C81	C	-0.631628	-1.070088	0.356909
C82	C	-0.381628	-0.820088	0.606909
C83	C	-0.131628	-0.570088	0.856909
C84	C	0.118372	-0.320088	1.106909
C85	C	-0.356885	-1.070205	0.550077
C86	C	-0.106885	-0.820205	0.800077
C87	C	0.143115	-0.570205	1.050077
C88	C	0.393115	-0.320205	1.300077
C89	C	-0.356877	-1.070223	0.632391
C90	C	-0.106877	-0.820223	0.882391
C91	C	0.143123	-0.570223	1.132391
C92	C	0.393123	-0.320223	1.382391
C93	C	-0.930719	-1.070251	0.356949
C94	C	-0.680719	-0.820251	0.606949
C95	C	-0.430719	-0.570251	0.856949
C96	C	-0.180719	-0.320251	1.106949
C97	C	-0.899410	-1.013163	0.414312
C98	C	-0.649410	-0.763163	0.664312
C99	C	-0.399410	-0.513163	0.914312
C100	C	-0.149410	-0.263163	1.164312
C101	C	-0.813792	-1.012892	0.414133
C102	C	-0.563792	-0.762892	0.664133
C103	C	-0.313792	-0.512892	0.914133
C104	C	-0.063792	-0.262892	1.164133
C105	C	-0.782337	-1.070170	0.356930
C106	C	-0.532337	-0.820170	0.606930
C107	C	-0.282337	-0.570170	0.856930
C108	C	-0.032337	-0.320170	1.106930
C109	C	-0.813472	-1.049041	0.278878
C110	C	-0.563472	-0.799041	0.528878
C111	C	-0.313472	-0.549041	0.778878
C112	C	-0.063472	-0.299041	1.028878
C113	C	-0.899117	-1.048673	0.279221
C114	C	-0.649117	-0.798673	0.529221
C115	C	-0.399117	-0.548673	0.779221
C116	C	-0.149117	-0.298673	1.029221
C117	C	-0.899073	-1.148593	0.376950
C118	C	-0.649073	-0.898593	0.626950
C119	C	-0.399073	-0.648593	0.876950
C120	C	-0.149073	-0.398593	1.126950
C121	C	-0.813422	-1.148132	0.378661
C122	C	-0.563422	-0.898132	0.628661
C123	C	-0.313422	-0.648132	0.878661
C124	C	-0.063422	-0.398132	1.128661
C125	C	-0.698477	-1.070126	0.356914
C126	C	-0.448477	-0.820126	0.606914
C127	C	-0.198477	-0.570126	0.856914
C128	C	0.051523	-0.320126	1.106914
C129	C	-1.014579	-1.070293	0.356959
C130	C	-0.764579	-0.820293	0.606959
C131	C	-0.514579	-0.570293	0.856959
C132	C	-0.264579	-0.320293	1.106959
C133	C	-0.163742	-1.070282	0.356953
C134	C	0.086258	-0.820282	0.606953
C135	C	0.336258	-0.570282	0.856953
C136	C	0.586258	-0.320282	1.106953
C137	C	-0.081428	-1.070333	0.356970
C138	C	0.168572	-0.820333	0.606970
C139	C	0.418572	-0.570333	0.856970
C140	C	0.668572	-0.320333	1.106970
C141	C	-0.356934	-1.263324	0.356954
C142	C	-0.106934	-1.013324	0.606954
C143	C	0.143066	-0.763324	0.856954
C144	C	0.393066	-0.513324	1.106954
C145	C	-0.356948	-1.345638	0.356971
C146	C	-0.106948	-1.095638	0.606971
C147	C	0.143052	-0.845638	0.856971
C148	C	0.393052	-0.595638	1.106971
C149	C	-0.356925	-0.496347	0.356940
C150	C	-0.106925	-0.246347	0.606940
C151	C	0.143075	0.003653	0.856940
C152	C	0.393075	0.253653	1.106940
C153	C	-0.299412	-0.527670	0.299997
C154	C	-0.049412	-0.277670	0.549997
C155	C	0.200588	-0.027670	0.799997
C156	C	0.450588	0.222330	1.049997
C157	C	-0.299566	-0.613288	0.299754
C158	C	-0.049566	-0.363288	0.549754
C159	C	0.200434	-0.113288	0.799754
C160	C	0.450434	0.136712	1.049754
C161	C	-0.356901	-0.644729	0.356909
C162	C	-0.106901	-0.394729	0.606909
C163	C	0.143099	-0.144729	0.856909
C164	C	0.393099	0.105271	1.106909
C165	C	-0.434909	-0.613611	0.335587
C166	C	-0.184909	-0.363611	0.585587
C167	C	0.065091	-0.113611	0.835587
C168	C	0.315091	0.136389	1.085587
C169	C	-0.434590	-0.527966	0.335191
C170	C	-0.184590	-0.277966	0.585191
C171	C	0.065410	-0.027966	0.835191
C172	C	0.315410	0.222034	1.085191
C173	C	-0.337109	-0.527961	0.435339
C174	C	-0.087109	-0.277961	0.685339
C175	C	0.162891	-0.027961	0.935339
C176	C	0.412891	0.222039	1.185339
C177	C	-0.335371	-0.613612	0.434911
C178	C	-0.085371	-0.363612	0.684911
C179	C	0.164629	-0.113612	0.934911
C180	C	0.414629	0.136388	1.184911
C181	C	-0.356893	-0.728589	0.356893
C182	C	-0.106893	-0.478589	0.606893
C183	C	0.143107	-0.228589	0.856893
C184	C	0.393107	0.021411	1.106893
C185	C	-0.356939	-0.412487	0.356954
C186	C	-0.106939	-0.162487	0.606954
C187	C	0.143061	0.087513	0.856954
C188	C	0.393061	0.337513	1.106954
C189	C	-0.356869	-1.070162	0.164505
C190	C	-0.106869	-0.820162	0.414505
C191	C	0.143131	-0.570162	0.664505
C192	C	0.393131	-0.320162	0.914505
C193	C	-0.356668	-1.070287	0.082191
C194	C	-0.106668	-0.820287	0.332191
C195	C	0.143332	-0.570287	0.582191
C196	C	0.393332	-0.320287	0.832191
C197	C	-0.356738	-1.070266	0.931482
C198	C	-0.106738	-0.820266	1.181482
C199	C	0.143262	-0.570266	1.431482
C200	C	0.393262	-0.320266	1.681482
C201	C	-0.413780	-1.012801	0.900134
C202	C	-0.163780	-0.762801	1.150134
C203	C	0.086220	-0.512801	1.400134
C204	C	0.336220	-0.262801	1.650134
C205	C	-0.414045	-1.012956	0.814516
C206	C	-0.164045	-0.762956	1.064516
C207	C	0.085955	-0.512956	1.314516
C208	C	0.335955	-0.262956	1.564516
C209	C	-0.356807	-1.070244	0.783100
C210	C	-0.106807	-0.820244	1.033100
C211	C	0.143193	-0.570244	1.283100
C212	C	0.393193	-0.320244	1.533100
C213	C	-0.377998	-1.148270	0.814206
C214	C	-0.127998	-0.898270	1.064206
C215	C	0.122002	-0.648270	1.314206
C216	C	0.372002	-0.398270	1.564206
C217	C	-0.378372	-1.147949	0.899851
C218	C	-0.128372	-0.897949	1.149851
C219	C	0.121628	-0.647949	1.399851
C220	C	0.371628	-0.397949	1.649851
C221	C	-0.278379	-1.050385	0.899905
C222	C	-0.028379	-0.800385	1.149905
C223	C	0.221621	-0.550385	1.399905
C224	C	0.471621	-0.300385	1.649905
C225	C	-0.278832	-1.048649	0.814254
C226	C	-0.028832	-0.798649	1.064254
C227	C	0.221168	-0.548649	1.314254
C228	C	0.471168	-0.298649	1.564254
C229	C	-0.356845	-1.070237	0.699240
C230	C	-0.106845	-0.820237	0.949240
C231	C	0.143155	-0.570237	1.199240
C232	C	0.393155	-0.320237	1.449240
C233	C	-0.356702	-1.070279	1.015342
C234	C	-0.106702	-0.820279	1.265342
C235	C	0.143298	-0.570279	1.515342
C236	C	0.393298	-0.320279	1.765342
H237	H	-0.792740	-1.026111	0.472007
H238	H	-0.542740	-0.776111	0.722007
H239	H	-0.292740	-0.526111	0.972007
H240	H	-0.042740	-0.276111	1.222007
Cl241	Cl	-0.393514	-0.923197	0.931909
Cl242	Cl	-0.143514	-0.673197	1.181909
Cl243	Cl	0.106486	-0.423197	1.431909
Cl244	Cl	0.356486	-0.173197	1.681909
Cl245	Cl	-0.782244	-0.923237	0.393680
Cl246	Cl	-0.532244	-0.673237	0.643680
Cl247	Cl	-0.282244	-0.423237	0.893680
Cl248	Cl	-0.032244	-0.173237	1.143680
Cl249	Cl	-0.931155	-1.033365	0.503958
Cl250	Cl	-0.681155	-0.783365	0.753958
Cl251	Cl	-0.431155	-0.533365	1.003958
Cl252	Cl	-0.181155	-0.283365	1.253958
Cl253	Cl	-0.503710	-1.033264	0.782890
Cl254	Cl	-0.253710	-0.783264	1.032890
Cl255	Cl	-0.003710	-0.533264	1.282890
Cl256	Cl	0.246290	-0.283264	1.532890
Cl257	Cl	-0.502843	-0.645041	0.397619
Cl258	Cl	-0.252843	-0.395041	0.647619
Cl259	Cl	-0.002843	-0.145041	0.897619
Cl260	Cl	0.247157	0.104959	1.147619
H261	H	-0.400784	-0.955097	0.793483
H262	H	-0.150784	-0.705097	1.043483
H263	H	0.099216	-0.455097	1.293483
H264	H	0.349216	-0.205097	1.543483
Cl265	Cl	-0.932742	-0.924056	0.394131
Cl266	Cl	-0.682742	-0.674056	0.644131
Cl267	Cl	-0.432742	-0.424056	0.894131
Cl268	Cl	-0.182742	-0.174056	1.144131
Cl269	Cl	-0.930054	-0.960257	0.253066
Cl270	Cl	-0.680054	-0.710257	0.503066
Cl271	Cl	-0.430054	-0.460257	0.753066
Cl272	Cl	-0.180054	-0.210257	1.003066
H273	H	-0.919830	-1.088449	0.235023
H274	H	-0.669830	-0.838449	0.485023
H275	H	-0.419830	-0.588449	0.735023
H276	H	-0.169830	-0.338449	0.985023
H277	H	-0.312363	-0.506120	0.242242
H278	H	-0.062363	-0.256120	0.492242
H279	H	0.187637	-0.006120	0.742242
H280	H	0.437637	0.243880	0.992242
H281	H	-0.234076	-1.087450	0.792868
H282	H	0.015924	-0.837450	1.042868
H283	H	0.265924	-0.587450	1.292868
H284	H	0.515924	-0.337450	1.542868
Cl285	Cl	-0.782003	-1.172736	0.467347
Cl286	Cl	-0.532003	-0.922736	0.717347
Cl287	Cl	-0.282003	-0.672736	0.967347
Cl288	Cl	-0.032003	-0.422736	1.217347
H289	H	-0.478892	-0.507244	0.374857
H290	H	-0.228892	-0.257244	0.624857
H291	H	0.021108	-0.007244	0.874857
H292	H	0.271108	0.242756	1.124857
Cl293	Cl	-0.209824	-0.495911	0.320401
Cl294	Cl	0.040176	-0.245911	0.570401
Cl295	Cl	0.290176	0.004089	0.820401
Cl296	Cl	0.540176	0.254089	1.070401
H297	H	-0.471508	-1.025796	0.921661
H298	H	-0.221508	-0.775796	1.171661
H299	H	0.028492	-0.525796	1.421661
H300	H	0.278492	-0.275796	1.671661
Cl301	Cl	-0.395338	-0.646653	0.503926
Cl302	Cl	-0.145338	-0.396653	0.753926
Cl303	Cl	0.104662	-0.146653	1.003926
Cl304	Cl	0.354662	0.103347	1.253926
H305	H	-0.378999	-0.507705	0.477766
H306	H	-0.128999	-0.257705	0.727766
H307	H	0.121001	-0.007705	0.977766
H308	H	0.371001	0.242295	1.227766
Cl309	Cl	-0.782017	-1.111215	0.211087
Cl310	Cl	-0.532017	-0.861215	0.461087
Cl311	Cl	-0.282017	-0.611215	0.711087
Cl312	Cl	-0.032017	-0.361215	0.961087
Cl313	Cl	-0.466810	-1.173969	0.930710
Cl314	Cl	-0.216810	-0.923969	1.180710
Cl315	Cl	0.033190	-0.673969	1.430710
Cl316	Cl	0.283190	-0.423969	1.680710
H317	H	-0.452008	-0.635026	0.278892
H318	H	-0.202008	-0.385026	0.528892
H319	H	0.047992	-0.135026	0.778892
H320	H	0.297992	0.114974	1.028892
Cl321	Cl	-0.250812	-0.494660	0.465269
Cl322	Cl	-0.000812	-0.244660	0.715269
Cl323	Cl	0.249188	0.005340	0.965269
Cl324	Cl	0.499188	0.255340	1.215269
Cl325	Cl	-0.316972	-1.216255	0.931875
Cl326	Cl	-0.066972	-0.966255	1.181875
Cl327	Cl	0.183028	-0.716255	1.431875
Cl328	Cl	0.433028	-0.466255	1.681875
H329	H	-0.337757	-1.192236	0.793859
H330	H	-0.087757	-0.942236	1.043859
H331	H	0.162243	-0.692236	1.293859
H332	H	0.412243	-0.442236	1.543859
H333	H	-0.792080	-0.992380	0.261633
H334	H	-0.542080	-0.742380	0.511633
H335	H	-0.292080	-0.492380	0.761633
H336	H	-0.042080	-0.242380	1.011633
Cl337	Cl	-0.465497	-1.174744	0.781107
Cl338	Cl	-0.215497	-0.924744	1.031107
Cl339	Cl	0.034503	-0.674744	1.281107
Cl340	Cl	0.284503	-0.424744	1.531107
H341	H	-0.792007	-1.192915	0.339927
H342	H	-0.542007	-0.942915	0.589927
H343	H	-0.292007	-0.692915	0.839927
H344	H	-0.042007	-0.442915	1.089927
H345	H	-0.259074	-0.994478	0.921490
H346	H	-0.009074	-0.744478	1.171490
H347	H	0.240926	-0.494478	1.421490
H348	H	0.490926	-0.244478	1.671490
H349	H	-0.920633	-1.167856	0.432895
H350	H	-0.670633	-0.917856	0.682895
H351	H	-0.420633	-0.667856	0.932895
H352	H	-0.170633	-0.417856	1.182895
Cl353	Cl	-0.246749	-0.645034	0.459745
Cl354	Cl	0.003251	-0.395034	0.709745
Cl355	Cl	0.253251	-0.145034	0.959745
Cl356	Cl	0.503251	0.104966	1.209745
Cl357	Cl	-0.319786	-0.644872	0.210062
Cl358	Cl	-0.069786	-0.394872	0.460062
Cl359	Cl	0.180214	-0.144872	0.710062
Cl360	Cl	0.430214	0.105128	0.960062
H361	H	-0.262852	-0.991229	0.793921
H362	H	-0.012852	-0.741229	1.043921
H363	H	0.237148	-0.491229	1.293921
H364	H	0.487148	-0.241229	1.543921
Cl365	Cl	-0.930346	-1.214263	0.312458
Cl366	Cl	-0.680346	-0.964263	0.562458
Cl367	Cl	-0.430346	-0.714263	0.812458
Cl368	Cl	-0.180346	-0.464263	1.062458
H369	H	-0.235880	-1.092240	0.920179
H370	H	0.014120	-0.842240	1.170179
H371	H	0.264120	-0.592240	1.420179
H372	H	0.514120	-0.342240	1.670179
H373	H	-0.451397	-0.507954	0.277877
H374	H	-0.201397	-0.257954	0.527877
H375	H	0.048603	-0.007954	0.777877
H376	H	0.298603	0.242046	1.027877
Cl377	Cl	-0.210254	-0.645776	0.320386
Cl378	Cl	0.039746	-0.395776	0.570386
Cl379	Cl	0.289746	-0.145776	0.820386
Cl380	Cl	0.539746	0.104224	1.070386
