data_functionalizedCrystal
_audit_creation_method	'MofGen! by Chris Wilmer'
_symmetry_space_group_name_H-M	'P1'
_symmetry_Int_Tables_number	1
_symmetry_cell_setting	triclinic
loop_
_symmetry_equiv_pos_as_xyz
  x,y,z
_cell_length_a	16.974803
_cell_length_b	14.971486
_cell_length_c	13.448316
_cell_angle_alpha	89.998199
_cell_angle_beta	86.348417
_cell_angle_gamma	96.497769
loop_
_atom_site_label
_atom_site_type_symbol
_atom_site_fract_x
_atom_site_fract_y
_atom_site_fract_z
O1	O	-0.103043	1.186691	-0.074279
O2	O	0.396957	1.686691	0.425721
O3	O	-0.115382	0.926260	-0.073312
O4	O	0.384618	1.426260	0.426688
O5	O	0.005884	1.063741	-0.083058
O6	O	0.505884	1.563741	0.416942
O7	O	-0.224309	1.049209	-0.064534
O8	O	0.275691	1.549209	0.435466
O9	O	0.005891	1.063724	0.082326
O10	O	0.505891	1.563724	0.582326
O11	O	-0.115375	0.926243	0.092071
O12	O	0.384625	1.426243	0.592071
O13	O	-0.103035	1.186674	0.091104
O14	O	0.396965	1.686674	0.591104
Cu15	Cu	-0.109204	1.056457	0.106688
Cu16	Cu	0.390796	1.556457	0.606688
Cu17	Cu	-0.109213	1.056477	-0.088896
Cu18	Cu	0.390787	1.556477	0.411104
O19	O	-0.224301	1.049192	0.100850
O20	O	0.275699	1.549192	0.600850
C21	C	-0.114827	0.892928	0.009331
C22	C	0.385173	1.392928	0.509331
C23	C	-0.113173	0.793635	0.009188
C24	C	0.386827	1.293635	0.509188
C25	C	-0.184414	0.736232	0.014922
C26	C	0.315586	1.236232	0.514922
C27	C	-0.182855	0.642937	0.014812
C28	C	0.317145	1.142937	0.514812
C29	C	-0.110055	0.607046	0.008960
C30	C	0.389945	1.107046	0.508960
C31	C	-0.038809	0.664456	0.003228
C32	C	0.461191	1.164456	0.503228
C33	C	-0.040368	0.757750	0.003346
C34	C	0.459632	1.257750	0.503346
C35	C	-0.035564	0.470001	0.002981
C36	C	0.464436	0.970001	0.502981
C37	C	-0.034004	0.376701	0.002861
C38	C	0.465996	0.876701	0.502861
C39	C	-0.178050	0.355189	0.014447
C40	C	0.321950	0.855189	0.514447
C41	C	-0.179610	0.448482	0.014564
C42	C	0.320390	0.948482	0.514564
C43	C	-0.108363	0.505886	0.008831
C44	C	0.391637	1.005886	0.508831
C45	C	-0.253764	1.049752	0.020529
C46	C	0.246236	1.549752	0.520529
C47	C	-0.341542	1.051404	0.027593
C48	C	0.158458	1.551404	0.527593
C49	C	-0.382782	1.052190	-0.059239
C50	C	0.117218	1.552190	0.440761
C51	C	-0.465257	1.053754	-0.052602
C52	C	0.034743	1.553754	0.447398
C53	C	-0.506493	1.054525	0.040869
C54	C	-0.006493	1.554525	0.540869
C55	C	-0.465247	1.053741	0.127708
C56	C	0.034753	1.553741	0.627708
C57	C	-0.382772	1.052184	0.121069
C58	C	0.117228	1.552184	0.621069
C59	C	-0.753155	1.059188	0.070391
C60	C	-0.253155	1.559188	0.570391
C61	C	-0.835636	1.060743	0.077023
C62	C	-0.335636	1.560743	0.577023
C63	C	-0.835640	1.060758	-0.103288
C64	C	-0.335640	1.560758	0.396712
C65	C	-0.753164	1.059195	-0.109918
C66	C	-0.253164	1.559195	0.390082
C67	C	-0.711926	1.058416	-0.023080
C68	C	-0.211926	1.558416	0.476920
N69	N	-0.590796	1.056121	0.047656
N70	N	-0.090796	1.556121	0.547656
N71	N	-0.627623	1.056826	-0.029867
N72	N	-0.127623	1.556826	0.470133
C73	C	0.035346	1.063182	-0.002739
C74	C	0.535346	1.563182	0.497261
C75	C	0.123125	1.061530	-0.009810
C76	C	0.623125	1.561530	0.490190
C77	C	-0.103591	1.220006	0.008458
C78	C	0.396409	1.720006	0.508458
C79	C	-0.105245	1.319299	0.008595
C80	C	0.394755	1.819299	0.508595
N81	N	-0.109198	1.056449	0.244252
N82	N	0.390802	1.556449	0.744252
N83	N	-0.109214	1.056492	-0.226461
N84	N	0.390786	1.556492	0.273539
C85	C	-0.055523	1.117344	0.291979
C86	C	0.444477	1.617344	0.791979
C87	C	-0.055522	1.117350	0.396082
C88	C	0.444478	1.617350	0.896082
C89	C	-0.109201	1.056464	0.452457
C90	C	0.390799	1.556464	0.952457
C91	C	-0.162878	0.995561	0.404723
C92	C	0.337122	1.495561	0.904723
C93	C	-0.162874	0.995552	0.300621
C94	C	0.337126	1.495552	0.800621
C95	C	-0.162883	0.995586	0.621703
C96	C	0.337117	1.495586	1.121703
C97	C	-0.162888	0.995596	0.725812
C98	C	0.337112	1.495596	1.225812
C99	C	-0.055532	1.117384	0.717164
C100	C	0.444468	1.617384	1.217164
C101	C	-0.055528	1.117375	0.613063
C102	C	0.444472	1.617375	1.113063
C103	C	-0.109206	1.056474	0.565336
C104	C	0.390794	1.556474	1.065336
H105	H	0.025276	0.347482	-0.001903
H106	H	0.525276	0.847482	0.498097
N107	N	0.036469	0.819667	-0.002831
N108	N	0.536469	1.319667	0.497169
H109	H	0.082825	0.782776	-0.006557
H110	H	0.582825	1.282776	0.493443
H111	H	0.038960	0.858845	-0.064342
H112	H	0.538960	1.358845	0.435658
H113	H	-0.498827	1.054375	0.203814
H114	H	0.001173	1.554375	0.703814
H115	H	-0.011816	1.166935	0.434941
H116	H	0.488184	1.666935	0.934941
H117	H	-0.011815	1.166929	0.246085
H118	H	0.488185	1.666929	0.746085
H119	H	-0.238890	0.477701	0.019320
H120	H	0.261110	0.977701	0.519320
H121	H	-0.349215	1.051554	-0.135353
H122	H	0.150785	1.551554	0.364647
N123	N	0.002361	1.183049	0.552255
N124	N	0.502361	1.683049	1.052255
H125	H	0.036367	1.221630	0.598284
H126	H	0.536367	1.721630	1.098284
H127	H	0.037368	1.148849	0.506255
H128	H	0.537368	1.648849	1.006255
N129	N	-0.708694	1.058342	0.164057
N130	N	-0.208694	1.558342	0.664057
H131	H	-0.729410	1.003186	0.205126
H132	H	-0.229410	1.503186	0.705126
H133	H	-0.650197	1.057276	0.145605
H134	H	-0.150197	1.557276	0.645605
H135	H	0.022453	0.516738	-0.001687
H136	H	0.522453	1.016738	0.498313
N137	N	0.039708	0.625740	-0.003072
N138	N	0.539708	1.125740	0.496928
H139	H	0.043565	0.587510	-0.064687
H140	H	0.543565	1.087510	0.435313
H141	H	0.084559	0.676309	-0.006641
H142	H	0.584559	1.176309	0.493359
H143	H	-0.206591	0.945991	0.582848
H144	H	0.293409	1.445991	1.082848
N145	N	-0.262936	0.774937	0.021242
N146	N	0.237064	1.274937	0.521242
H147	H	-0.253116	0.842749	0.020445
H148	H	0.246884	1.342749	0.520445
H149	H	-0.294118	0.753927	-0.037557
H150	H	0.205882	1.253927	0.462443
H151	H	-0.498831	1.054396	-0.123310
H152	H	0.001169	1.554396	0.376690
H153	H	-0.719596	1.058573	-0.186032
H154	H	-0.219596	1.558573	0.313968
N155	N	-0.220768	0.929878	0.249136
N156	N	0.279232	1.429878	0.749136
H157	H	-0.190489	0.890315	0.203521
H158	H	0.309511	1.390315	0.703521
H159	H	-0.254762	0.891368	0.300703
H160	H	0.245238	1.391368	0.800703
H161	H	-0.349196	1.051543	0.191778
H162	H	0.150804	1.551543	0.691778
N163	N	0.002364	1.183074	0.768633
N164	N	0.502364	1.683074	1.268633
H165	H	-0.005779	1.173841	0.843135
H166	H	0.494221	1.673841	1.343135
H167	H	0.058474	1.172821	0.745928
H168	H	0.558474	1.672821	1.245928
H169	H	-0.236062	0.308446	0.019119
H170	H	0.263938	0.808446	0.519119
H171	H	-0.240866	0.596203	0.019480
H172	H	0.259134	1.096203	0.519480
H173	H	-0.206598	0.946015	0.771708
H174	H	0.293402	1.446015	1.271708
N175	N	-0.880158	1.061541	-0.196918
N176	N	-0.380158	1.561541	0.303082
H177	H	-0.908042	1.117589	-0.198712
H178	H	-0.408042	1.617589	0.301288
H179	H	-0.841503	1.060762	-0.257109
H180	H	-0.341503	1.560762	0.242891
N181	N	-0.880115	1.061568	0.177842
N182	N	-0.380115	1.561568	0.677842
H183	H	-0.841476	1.060838	0.231848
H184	H	-0.341476	1.560838	0.731848
H185	H	-0.907980	1.117632	0.184014
H186	H	-0.407980	1.617632	0.684014
N187	N	-0.220768	0.929888	0.465529
N188	N	0.279232	1.429888	0.965529
H189	H	-0.255831	0.964023	0.511530
H190	H	0.244169	1.464023	1.011530
H191	H	-0.254717	0.891322	0.419431
H192	H	0.245283	1.391322	0.919431
