data_functionalizedCrystal
_audit_creation_method	'MofGen! by Chris Wilmer'
_symmetry_space_group_name_H-M	'P1'
_symmetry_Int_Tables_number	1
_symmetry_cell_setting	triclinic
loop_
_symmetry_equiv_pos_as_xyz
  x,y,z
_cell_length_a	12.827892
_cell_length_b	19.077241
_cell_length_c	19.076919
_cell_angle_alpha	89.886096
_cell_angle_beta	87.724465
_cell_angle_gamma	87.692554
loop_
_atom_site_label
_atom_site_type_symbol
_atom_site_fract_x
_atom_site_fract_y
_atom_site_fract_z
Zn1	Zn	-0.379366	-1.058330	0.440583
Zn2	Zn	0.120634	-0.558330	0.940583
Zn3	Zn	-0.546835	-1.062988	0.323084
Zn4	Zn	-0.046835	-0.562988	0.823084
Zn5	Zn	-0.378815	-0.945546	0.318360
Zn6	Zn	0.121185	-0.445546	0.818360
Zn7	Zn	-0.560774	-0.940809	0.435820
Zn8	Zn	-0.060774	-0.440809	0.935820
O9	O	-0.466447	-1.001918	0.379462
O10	O	0.033553	-0.501918	0.879462
O11	O	-0.395978	-1.157281	0.428966
O12	O	0.104022	-0.657281	0.928966
O13	O	-0.518483	-1.051341	0.224126
O14	O	-0.018483	-0.551341	0.724126
O15	O	-0.232651	-0.960540	0.334590
O16	O	0.267349	-0.460540	0.834590
O17	O	-0.519017	-1.160703	0.342641
O18	O	-0.019017	-0.660703	0.842641
O19	O	-0.233055	-1.043402	0.424386
O20	O	0.266945	-0.543402	0.924386
O21	O	-0.395039	-0.965056	0.220656
O22	O	0.104961	-0.465056	0.720656
O23	O	-0.408555	-0.846584	0.329972
O24	O	0.091445	-0.346584	0.829972
O25	O	-0.542773	-0.952466	0.534783
O26	O	-0.042773	-0.452466	1.034783
O27	O	-0.542239	-0.843104	0.416269
O28	O	-0.042239	-0.343104	0.916269
O29	O	-0.409494	-1.038809	0.538282
O30	O	0.090506	-0.538809	1.038282
O31	O	-0.694921	-1.046747	0.338022
O32	O	-0.194921	-0.546747	0.838022
O33	O	-0.705162	-0.956983	0.420849
O34	O	-0.205162	-0.456983	0.920849
C35	C	-0.476851	-0.819347	0.372091
C36	C	0.023149	-0.319347	0.872091
C37	C	-0.481328	-0.741242	0.368955
C38	C	0.018672	-0.241242	0.868955
C39	C	-0.419481	-0.702765	0.412495
C40	C	0.080519	-0.202765	0.912495
C41	C	-0.423682	-0.629377	0.409542
C42	C	0.076318	-0.129377	0.909542
C43	C	-0.489736	-0.594468	0.363051
C44	C	0.010264	-0.094468	0.863051
C45	C	-0.551585	-0.632951	0.319506
C46	C	-0.051585	-0.132951	0.819506
C47	C	-0.547377	-0.706337	0.322456
C48	C	-0.047377	-0.206337	0.822456
C49	C	-0.509171	-0.375177	0.349398
C50	C	-0.009171	0.124823	0.849398
C51	C	-0.513376	-0.301785	0.346453
C52	C	-0.013376	0.198215	0.846453
C53	C	-0.385472	-0.298216	0.436488
C54	C	0.114528	0.201784	0.936488
C55	C	-0.381275	-0.371604	0.439437
C56	C	0.118725	0.128396	0.939437
C57	C	-0.443119	-0.410080	0.395889
C58	C	0.056881	0.089920	0.895889
N59	N	-0.494034	-0.519453	0.360033
N60	N	0.005966	-0.019453	0.860033
N61	N	-0.438815	-0.485093	0.398904
N62	N	0.061185	0.014907	0.898904
C63	C	-0.737959	-1.001875	0.379448
C64	C	-0.237959	-0.501875	0.879448
C65	C	-0.854111	-1.001919	0.379468
C66	C	-0.354111	-0.501919	0.879468
C67	C	-0.900793	-1.046386	0.338532
C68	C	-0.400793	-0.546386	0.838532
C69	C	-1.020842	-1.046434	0.338552
C70	C	-0.520842	-0.546434	0.838552
C71	C	-0.193875	-1.001980	0.379492
C72	C	0.306125	-0.501980	0.879492
C73	C	-0.077721	-1.002007	0.379505
C74	C	0.422279	-0.502007	0.879505
C75	C	-0.477750	-0.994590	0.562741
C76	C	0.022250	-0.494590	1.062741
C77	C	-0.482566	-0.991467	0.640844
C78	C	0.017434	-0.491467	1.140844
C79	C	-0.455998	-0.185202	0.386856
C80	C	0.044002	0.314798	0.886856
C81	C	-0.451530	-0.263307	0.389993
C82	C	0.048470	0.236693	0.889993
C83	C	-0.455111	-1.009258	0.196897
C84	C	0.044889	-0.509258	0.696897
C85	C	-0.449993	-1.012517	0.118800
C86	C	0.050007	-0.512517	0.618800
C87	C	-0.415440	-1.034951	0.679360
C88	C	0.084560	-0.534951	1.179360
C89	C	-0.419962	-1.032008	0.752746
C90	C	0.080038	-0.532008	1.252746
C91	C	-0.491616	-0.985584	0.787614
C92	C	0.008384	-0.485584	1.287614
C93	C	-0.558745	-0.942095	0.749093
C94	C	-0.058745	-0.442095	1.249093
C95	C	-0.554217	-0.945035	0.675709
C96	C	-0.054217	-0.445035	1.175709
C97	C	-0.512594	-0.971968	1.006894
C98	C	-0.012594	-0.471968	1.506894
C99	C	-0.517119	-0.969033	1.080284
C100	C	-0.017119	-0.469033	1.580284
C101	C	-0.378334	-1.058946	1.083931
C102	C	0.121666	-0.558946	1.583931
C103	C	-0.373817	-1.061885	1.010546
C104	C	0.126183	-0.561885	1.510546
C105	C	-0.440942	-1.018393	0.972031
C106	C	0.059058	-0.518393	1.472031
N107	N	-0.496242	-0.982576	0.862626
N108	N	0.003758	-0.482576	1.362626
N109	N	-0.436310	-1.021397	0.897020
N110	N	0.063690	-0.521397	1.397020
H111	H	-0.605362	-0.604522	0.281649
H112	H	-0.105362	-0.104522	0.781649
Br113	Br	-1.087780	-1.109885	0.280128
Br114	Br	-0.587780	-0.609885	0.780128
Br115	Br	-0.614366	-0.906022	1.127606
Br116	Br	-0.114366	-0.406022	1.627606
Br117	Br	-0.603690	-0.912942	0.954633
Br118	Br	-0.103690	-0.412942	1.454633
H119	H	-0.617083	-0.904292	0.777489
H120	H	-0.117083	-0.404292	1.277489
H121	H	-0.373322	-0.598051	0.444998
H122	H	0.126678	-0.098051	0.944998
H123	H	-0.365696	-0.731182	0.450354
H124	H	0.134304	-0.231182	0.950354
H125	H	-0.597739	-0.737665	0.287001
H126	H	-0.097739	-0.237665	0.787001
Br127	Br	-0.291638	-0.418975	0.502540
Br128	Br	0.208362	0.081025	1.002540
Br129	Br	-1.010791	-0.938542	0.437918
Br130	Br	-0.510791	-0.438542	0.937918
H131	H	-0.365304	-1.067420	0.784102
H132	H	0.134696	-0.567420	1.284102
H133	H	-0.315472	-1.099690	0.982161
H134	H	0.184528	-0.599690	1.482161
H135	H	-0.335120	-0.266880	0.471941
H136	H	0.164880	0.233120	0.971941
H137	H	-0.903019	-0.963887	0.414532
H138	H	-0.403019	-0.463887	0.914532
Br139	Br	-0.318199	-1.097964	0.632046
Br140	Br	0.181801	-0.597964	1.132046
Br141	Br	-0.603057	-0.254407	0.283374
Br142	Br	-0.103057	0.245593	0.783374
Br143	Br	-0.287240	-1.117966	1.136205
Br144	Br	0.212760	-0.617966	1.636205
Br145	Br	-0.645313	-0.886013	0.623436
Br146	Br	-0.145313	-0.386013	1.123436
H147	H	-0.559530	-0.406496	0.313939
H148	H	-0.059530	0.093504	0.813939
H149	H	-0.851887	-1.084425	0.303473
H150	H	-0.351887	-0.584425	0.803473
