data_functionalizedCrystal
_audit_creation_method	'MofGen! by Chris Wilmer'
_symmetry_space_group_name_H-M	'P1'
_symmetry_Int_Tables_number	1
_symmetry_cell_setting	triclinic
loop_
_symmetry_equiv_pos_as_xyz
  x,y,z
_cell_length_a	8.559649
_cell_length_b	10.268362
_cell_length_c	8.559649
_cell_angle_alpha	89.996385
_cell_angle_beta	110.221336
_cell_angle_gamma	90.004416
loop_
_atom_site_label
_atom_site_type_symbol
_atom_site_fract_x
_atom_site_fract_y
_atom_site_fract_z
O1	O	2.126881	0.108280	0.055034
O2	O	1.651397	0.108285	-0.028747
O3	O	1.931030	0.108281	0.250886
O4	O	1.847248	0.108284	-0.224599
O5	O	1.931009	-0.108320	0.250893
O6	O	1.651376	-0.108316	-0.028740
O7	O	2.126861	-0.108321	0.055041
Cu8	Cu	1.889117	-0.128096	0.013151
Cu9	Cu	1.889141	0.128060	0.013143
O10	O	1.847228	-0.108317	-0.224592
C11	C	1.591077	-0.000015	-0.035093
C12	C	1.411378	-0.000013	-0.053992
N13	N	1.889112	-0.308262	0.013160
C14	C	1.889133	-0.573932	0.013145
C15	C	1.889115	-0.426094	0.013148
C16	C	2.187180	-0.000018	0.061387
C17	C	2.366879	-0.000012	0.080286
C18	C	1.937369	-0.000017	0.311198
C19	C	1.956268	-0.000010	0.490898
N20	N	1.889160	0.308226	0.013148
C21	C	1.840889	-0.000016	-0.284904
C22	C	1.821990	-0.000014	-0.464604
H23	H	1.311990	-0.000005	-0.183420
H24	H	1.692570	-0.000017	0.436018
H25	H	2.085696	-0.000022	0.590286
H26	H	1.466258	-0.000006	0.209705
