data_functionalizedCrystal
_audit_creation_method	'MofGen! by Chris Wilmer'
_symmetry_space_group_name_H-M	'P1'
_symmetry_Int_Tables_number	1
_symmetry_cell_setting	triclinic
loop_
_symmetry_equiv_pos_as_xyz
  x,y,z
_cell_length_a	11.792241
_cell_length_b	10.723024
_cell_length_c	9.198806
_cell_angle_alpha	90.003648
_cell_angle_beta	89.996670
_cell_angle_gamma	95.669357
loop_
_atom_site_label
_atom_site_type_symbol
_atom_site_fract_x
_atom_site_fract_y
_atom_site_fract_z
O1	O	0.159192	-1.656767	-0.120884
O2	O	0.174430	-1.293574	-0.120889
O3	O	0.001660	-1.483984	-0.120876
O4	O	0.331962	-1.466357	-0.120897
O5	O	0.001659	-1.483969	0.120909
O6	O	0.174430	-1.293559	0.120896
O7	O	0.159192	-1.656751	0.120901
Cu8	Cu	0.166811	-1.475154	0.142976
Cu9	Cu	0.166811	-1.475172	-0.142963
O10	O	0.331962	-1.466341	0.120889
C11	C	0.173321	-1.247070	0.000003
C12	C	0.170003	-1.108524	0.000002
C13	C	-0.040634	-1.482869	0.000016
C14	C	-0.166655	-1.479555	0.000015
C15	C	0.160301	-1.703256	0.000006
C16	C	0.163619	-1.841801	-0.000002
C17	C	-0.397380	-1.473461	-0.000010
C18	C	-0.268988	-1.476847	0.000004
C19	C	0.374255	-1.467456	-0.000007
C20	C	0.500276	-1.470770	-0.000015
N21	N	0.166810	-1.475150	0.344090
C22	C	0.266676	-1.033286	-0.000005
C23	C	0.263249	-0.890091	-0.000007
N24	N	0.166803	-1.475185	-0.344077
C25	C	0.093948	-1.555099	0.416292
C26	C	0.093944	-1.555118	0.583704
H27	H	0.351978	-1.074882	-0.000002
H28	H	0.229190	-1.406739	0.593841
F29	F	0.012213	-1.644325	0.335098
H30	H	0.080854	-0.906445	-0.000005
F31	F	0.058503	-1.054162	0.000018
H32	H	0.031569	-1.623570	0.645795
H33	H	0.229182	-1.406713	0.406213
H34	H	0.346009	-0.825440	-0.000019
