data_functionalizedCrystal
_audit_creation_method	'MofGen! by Chris Wilmer'
_symmetry_space_group_name_H-M	'P1'
_symmetry_Int_Tables_number	1
_symmetry_cell_setting	triclinic
loop_
_symmetry_equiv_pos_as_xyz
  x,y,z
_cell_length_a	14.519709
_cell_length_b	14.519709
_cell_length_c	9.130307
_cell_angle_alpha	89.995756
_cell_angle_beta	90.004095
_cell_angle_gamma	83.680145
loop_
_atom_site_label
_atom_site_type_symbol
_atom_site_fract_x
_atom_site_fract_y
_atom_site_fract_z
O1	O	1.223864	0.120890	-0.121612
O2	O	0.955387	0.135126	-0.121657
O3	O	1.096744	-0.006230	-0.121620
O4	O	1.082507	0.262246	-0.121649
O5	O	1.096739	-0.006232	0.121979
O6	O	0.955382	0.135125	0.121942
O7	O	1.223859	0.120888	0.121987
Cu8	Cu	1.089620	0.128006	0.144207
Cu9	Cu	1.089626	0.128008	-0.143877
O10	O	1.082502	0.262245	0.121950
C11	C	0.921025	0.134462	0.000137
C12	C	0.818643	0.132474	0.000120
C13	C	0.443748	0.125154	0.000187
C14	C	0.548056	0.127187	0.000168
C15	C	0.631192	0.128814	0.000152
C16	C	0.735507	0.130847	0.000136
C17	C	1.096078	-0.040591	0.000180
C18	C	1.094090	-0.142972	0.000180
C19	C	1.086770	-0.517868	0.000141
C20	C	1.088803	-0.413560	0.000152
C21	C	1.090430	-0.330423	0.000162
C22	C	1.092463	-0.226109	0.000170
C23	C	1.258221	0.121553	0.000190
C24	C	1.360602	0.123541	0.000197
C25	C	1.083168	0.296606	0.000147
C26	C	1.085156	0.398987	0.000137
N27	N	1.089623	0.128005	0.346830
N28	N	1.089630	0.128002	-0.346500
C29	C	1.214845	0.002870	0.346853
C30	C	1.277463	-0.059695	0.423531
C31	C	1.277472	-0.059696	0.576864
C32	C	1.214855	0.002873	0.653523
C33	C	1.152238	0.065438	0.576845
C34	C	1.152237	0.065434	0.423508
C35	C	1.027013	0.190567	0.576822
C36	C	1.027006	0.190574	0.423489
C37	C	0.964396	0.253137	0.653481
C38	C	0.901782	0.315708	0.576803
C39	C	0.901776	0.315706	0.423460
C40	C	0.964389	0.253139	0.346811
H41	H	1.214852	0.002871	0.222000
H42	H	1.328443	-0.110641	0.361102
H43	H	1.328457	-0.110645	0.639296
H44	H	0.850800	0.366643	0.639228
H45	H	1.214859	0.002861	0.778375
N46	N	0.964408	0.253119	0.810106
N47	N	1.020320	0.197255	0.878555
H48	H	1.020329	0.197244	0.989174
H49	H	0.850782	0.366651	0.361037
H50	H	0.964393	0.253136	0.221958
