data_functionalizedCrystal
_audit_creation_method	'MofGen! by Chris Wilmer'
_symmetry_space_group_name_H-M	'P1'
_symmetry_Int_Tables_number	1
_symmetry_cell_setting	triclinic
loop_
_symmetry_equiv_pos_as_xyz
  x,y,z
_cell_length_a	18.050591
_cell_length_b	19.120786
_cell_length_c	18.050582
_cell_angle_alpha	92.465003
_cell_angle_beta	90.020922
_cell_angle_gamma	92.460873
loop_
_atom_site_label
_atom_site_type_symbol
_atom_site_fract_x
_atom_site_fract_y
_atom_site_fract_z
Zn1	Zn	1.122689	-0.279748	0.407398
Zn2	Zn	1.456023	0.053586	0.740732
Zn3	Zn	1.789356	0.386919	1.074065
Zn4	Zn	1.117309	-0.397198	0.277904
Zn5	Zn	1.450642	-0.063864	0.611238
Zn6	Zn	1.783975	0.269469	0.944571
Zn7	Zn	0.998508	-0.279751	0.283209
Zn8	Zn	1.331842	0.053583	0.616543
Zn9	Zn	1.665175	0.386916	0.949876
Zn10	Zn	0.993167	-0.397160	0.402042
Zn11	Zn	1.326500	-0.063827	0.735375
Zn12	Zn	1.659833	0.269506	1.068708
O13	O	1.057918	-0.338464	0.342638
O14	O	1.391252	-0.005131	0.675972
O15	O	1.724585	0.328203	1.009305
O16	O	1.225899	-0.295342	0.390242
O17	O	1.559233	0.037991	0.723576
O18	O	1.892566	0.371325	1.056909
O19	O	1.101533	-0.381635	0.174683
O20	O	1.434866	-0.048301	0.508016
O21	O	1.768200	0.285032	0.841349
O22	O	1.019469	-0.181461	0.304145
O23	O	1.352802	0.151873	0.637478
O24	O	1.686135	0.485206	0.970812
O25	O	1.221946	-0.381632	0.295104
O26	O	1.555280	-0.048299	0.628437
O27	O	1.888613	0.285035	0.961770
O28	O	1.110704	-0.181458	0.395386
O29	O	1.444037	0.151875	0.728720
O30	O	1.777370	0.485208	1.062053
O31	O	1.014251	-0.295347	0.178580
O32	O	1.347584	0.037986	0.511913
O33	O	1.680918	0.371320	0.845247
O34	O	0.893876	-0.295311	0.298951
O35	O	1.227209	0.038022	0.632284
O36	O	1.560543	0.371356	0.965618
O37	O	1.010365	-0.381569	0.506677
O38	O	1.343698	-0.048235	0.840011
O39	O	1.677031	0.285098	1.173344
O40	O	0.889951	-0.381571	0.386256
O41	O	1.223285	-0.048238	0.719590
O42	O	1.556618	0.285095	1.052923
O43	O	1.105524	-0.295306	0.510613
O44	O	1.438858	0.038027	0.843946
O45	O	1.772191	0.371361	1.177280
O46	O	1.096354	-0.495482	0.289909
O47	O	1.429687	-0.162149	0.623243
O48	O	1.763020	0.171184	0.956576
O49	O	1.005147	-0.495455	0.381112
O50	O	1.338480	-0.162122	0.714446
O51	O	1.671814	0.171212	1.047779
C52	C	0.864967	-0.338438	0.342598
C53	C	1.198301	-0.005105	0.675932
C54	C	1.531634	0.328229	1.009265
C55	C	0.782421	-0.338444	0.342598
C56	C	1.115755	-0.005110	0.675932
C57	C	1.449088	0.328223	1.009265
C58	C	1.049607	-0.520954	0.334370
C59	C	1.382940	-0.187621	0.667704
C60	C	1.716274	0.145713	1.001037
C61	C	1.046119	-0.599024	0.330858
C62	C	1.379453	-0.265691	0.664191
C63	C	1.712786	0.067643	0.997525
C64	C	0.585086	-0.291481	0.295238
C65	C	0.918419	0.041853	0.628572
C66	C	1.251752	0.375186	0.961905
C67	C	0.532780	-0.355544	0.274069
C68	C	0.866113	-0.022211	0.607402
C69	C	1.199446	0.311123	0.940736
C70	C	0.631290	-0.338465	0.342631
C71	C	0.964623	-0.005132	0.675964
C72	C	1.297957	0.328202	1.009298
C73	C	0.536513	-0.274424	0.363797
C74	C	0.869846	0.058909	0.697130
C75	C	1.203180	0.392243	1.030464
C76	C	0.485304	-0.338480	0.342661
C77	C	0.818637	-0.005147	0.675995
C78	C	1.151971	0.328187	1.009328
C79	C	0.580070	-0.402562	0.321425
C80	C	0.913403	-0.069228	0.654758
C81	C	1.246736	0.264105	0.988091
C82	C	0.583809	-0.321399	0.411186
C83	C	0.917143	0.011935	0.744520
C84	C	1.250476	0.345268	1.077853
C85	C	0.531524	-0.385506	0.390041
C86	C	0.864857	-0.052173	0.723374
C87	C	1.198190	0.281161	1.056708
C88	C	0.715389	-0.338455	0.342612
C89	C	1.048722	-0.005122	0.675945
C90	C	1.382055	0.328211	1.009278
C91	C	0.401207	-0.338497	0.342680
C92	C	0.734540	-0.005163	0.676014
C93	C	1.067874	0.328170	1.009347
C94	C	1.091947	-0.635640	0.376751
C95	C	1.425280	-0.302307	0.710084
C96	C	1.758613	0.031027	1.043417
C97	C	1.088667	-0.708995	0.373452
C98	C	1.422000	-0.375662	0.706785
C99	C	1.755333	-0.042328	1.040119
C100	C	1.039563	-0.745733	0.324256
C101	C	1.372896	-0.412399	0.657589
C102	C	1.706229	-0.079066	0.990923
C103	C	0.993730	-0.709112	0.278361
C104	C	1.327064	-0.375778	0.611694
C105	C	1.660397	-0.042445	0.945028
C106	C	0.997007	-0.635758	0.281664
C107	C	1.330340	-0.302425	0.614998
C108	C	1.663674	0.030909	0.948331
C109	C	1.027291	-0.967217	0.311907
C110	C	1.360624	-0.633883	0.645241
C111	C	1.693957	-0.300550	0.978574
C112	C	1.024019	-1.040576	0.308606
C113	C	1.357352	-0.707242	0.641940
C114	C	1.690686	-0.373909	0.975273
C115	C	1.118955	-1.040454	0.403698
C116	C	1.452288	-0.707120	0.737032
C117	C	1.785622	-0.373787	1.070365
C118	C	1.122231	-0.967099	0.406994
C119	C	1.455564	-0.633765	0.740327
C120	C	1.788897	-0.300432	1.073661
C121	C	1.076395	-0.930484	0.361102
C122	C	1.409729	-0.597151	0.694435
C123	C	1.743062	-0.263817	1.027769
C124	C	1.036210	-0.820713	0.320881
C125	C	1.369544	-0.487380	0.654214
C126	C	1.702877	-0.154047	0.987548
C127	C	1.079744	-0.855505	0.364481
C128	C	1.413078	-0.522171	0.697814
C129	C	1.746411	-0.188838	1.031148
C130	C	1.251623	-0.338491	0.342679
C131	C	1.584956	-0.005158	0.676012
C132	C	1.918289	0.328176	1.009345
C133	C	1.334168	-0.338502	0.342696
C134	C	1.667501	-0.005169	0.676029
C135	C	2.000835	0.328164	1.009363
C136	C	1.057949	-0.338433	0.536345
C137	C	1.391282	-0.005100	0.869679
C138	C	1.724615	0.328234	1.203012
C139	C	1.057962	-0.338420	0.618892
C140	C	1.391295	-0.005086	0.952225
C141	C	1.724628	0.328247	1.285559
C142	C	1.066282	-0.155262	0.350955
C143	C	1.399615	0.178072	0.684288
C144	C	1.732949	0.511405	1.017622
C145	C	1.069846	-0.077191	0.354499
C146	C	1.403180	0.256142	0.687832
C147	C	1.736513	0.589475	1.021166
C148	C	1.057933	-0.338444	0.149687
C149	C	1.391266	-0.005111	0.483020
C150	C	1.724600	0.328222	0.816354
C151	C	1.058073	-0.338260	0.067150
C152	C	1.391406	-0.004927	0.400483
C153	C	1.724739	0.328407	0.733817
C154	C	1.006255	-0.385265	0.816205
C155	C	1.339588	-0.051932	1.149539
C156	C	1.672921	0.281401	1.482872
C157	C	1.073236	-0.402439	0.864828
C158	C	1.406570	-0.069106	1.198162
C159	C	1.739903	0.264228	1.531495
C160	C	1.058001	-0.338366	0.770025
C161	C	1.391334	-0.005033	1.103358
C162	C	1.724667	0.328301	1.436691
C163	C	0.991057	-0.321173	0.868484
C164	C	1.324391	0.012160	1.201818
C165	C	1.657724	0.345494	1.535151
C166	C	1.058032	-0.338316	0.916012
C167	C	1.391366	-0.004982	1.249346
C168	C	1.724699	0.328351	1.582679
C169	C	1.125016	-0.355573	0.817559
C170	C	1.458350	-0.022240	1.150892
C171	C	1.791683	0.311093	1.484226
C172	C	1.042793	-0.274278	0.821212
C173	C	1.376126	0.059056	1.154545
C174	C	1.709460	0.392389	1.487879
C175	C	1.109822	-0.291427	0.869814
C176	C	1.443156	0.041906	1.203147
C177	C	1.776489	0.375240	1.536480
C178	C	1.057981	-0.338397	0.685925
C179	C	1.391315	-0.005064	1.019258
C180	C	1.724648	0.328270	1.352592
C181	C	1.058059	-0.338285	1.000110
C182	C	1.391393	-0.004951	1.333444
C183	C	1.724726	0.328382	1.666777
H184	H	0.608531	-0.251791	0.255112
H185	H	0.941865	0.081543	0.588446
H186	H	1.275198	0.414876	0.921779
H187	H	0.962532	-0.424978	0.792735
H188	H	1.295865	-0.091645	1.126068
H189	H	1.629199	0.241689	1.459402
H190	H	0.996232	-0.850634	0.280823
H191	H	1.329565	-0.517300	0.614157
H192	H	1.662898	-0.183967	0.947490
H193	H	1.156270	-1.070273	0.441062
H194	H	1.489604	-0.736940	0.774395
H195	H	1.822937	-0.403607	1.107728
H196	H	0.934431	-0.306652	0.890828
H197	H	1.267764	0.026681	1.224162
H198	H	1.601098	0.360015	1.557495
O199	O	1.088481	-0.467111	0.887768
O200	O	1.421815	-0.133778	1.221101
O201	O	1.755148	0.199555	1.554435
C202	C	1.033790	-0.516430	0.860376
C203	C	1.367123	-0.183096	1.193709
C204	C	1.700456	0.150237	1.527043
H205	H	0.980986	-0.488495	0.847770
H206	H	1.314319	-0.155161	1.181103
H207	H	1.647653	0.178172	1.514436
H208	H	1.021537	-0.556958	0.903736
H209	H	1.354870	-0.223625	1.237070
H210	H	1.688203	0.109708	1.570403
H211	H	1.054620	-0.543716	0.807474
H212	H	1.387953	-0.210383	1.140808
H213	H	1.721287	0.122950	1.474141
O214	O	1.192534	-0.372996	0.790890
O215	O	1.525867	-0.039662	1.124223
O216	O	1.859201	0.293671	1.457557
C217	C	1.191698	-0.372824	0.712792
C218	C	1.525031	-0.039491	1.046125
C219	C	1.858364	0.293842	1.379459
H220	H	1.132156	-0.380634	0.691985
H221	H	1.465490	-0.047300	1.025318
H222	H	1.798823	0.286033	1.358652
H223	H	1.226122	-0.417145	0.689227
H224	H	1.559456	-0.083812	1.022561
H225	H	1.892789	0.249522	1.355894
H226	H	1.216139	-0.320558	0.694011
H227	H	1.549472	0.012775	1.027345
H228	H	1.882805	0.346109	1.360678
H229	H	0.606217	-0.306933	0.469133
H230	H	0.939550	0.026400	0.802467
H231	H	1.272883	0.359733	1.135800
H232	H	1.029890	-0.220116	0.801941
H233	H	1.363224	0.113217	1.135274
H234	H	1.696557	0.446550	1.468608
H235	H	0.953745	-0.739029	0.238308
H236	H	1.287079	-0.405696	0.571641
H237	H	1.620412	-0.072363	0.904974
O238	O	0.506104	-0.372663	0.204882
O239	O	0.839437	-0.039330	0.538216
O240	O	1.172770	0.294004	0.871549
C241	C	0.533482	-0.323000	0.155069
C242	C	0.866815	0.010333	0.488402
C243	C	1.200149	0.343666	0.821735
H244	H	0.549679	-0.271894	0.187003
H245	H	0.883012	0.061440	0.520337
H246	H	1.216346	0.394773	0.853670
H247	H	0.488713	-0.313102	0.112674
H248	H	0.822046	0.020232	0.446007
H249	H	1.155380	0.353565	0.779340
H250	H	0.584192	-0.343847	0.125248
H251	H	0.917525	-0.010513	0.458581
H252	H	1.250858	0.322820	0.791915
H253	H	1.153644	-0.251744	0.893146
H254	H	1.486978	0.081589	1.226480
H255	H	1.820311	0.414922	1.559813
O256	O	0.952461	-0.600296	0.237010
O257	O	1.285794	-0.266962	0.570344
O258	O	1.619127	0.066371	0.903677
C259	C	0.908403	-0.648449	0.192894
C260	C	1.241736	-0.315115	0.526227
C261	C	1.575069	0.018218	0.859560
H262	H	0.936490	-0.700715	0.187994
H263	H	1.269824	-0.367382	0.521327
H264	H	1.603157	-0.034049	0.854661
H265	H	0.901458	-0.627286	0.135328
H266	H	1.234791	-0.293953	0.468661
H267	H	1.568124	0.039380	0.801994
H268	H	0.851635	-0.656282	0.219684
H269	H	1.184968	-0.322949	0.553018
H270	H	1.518302	0.010384	0.886351
O271	O	0.976210	-1.076235	0.260898
O272	O	1.309543	-0.742902	0.594231
O273	O	1.642877	-0.409569	0.927565
C274	C	0.902979	-1.058354	0.277849
C275	C	1.236313	-0.725021	0.611182
C276	C	1.569646	-0.391687	0.944515
H277	H	0.900093	-1.038160	0.338082
H278	H	1.233426	-0.704827	0.671415
H279	H	1.566760	-0.371493	1.004749
H280	H	0.864144	-1.106630	0.269246
H281	H	1.197478	-0.773297	0.602579
H282	H	1.530811	-0.439964	0.935912
H283	H	0.885484	-1.015815	0.239926
H284	H	1.218818	-0.682481	0.573260
H285	H	1.552151	-0.349148	0.906593
H286	H	1.131936	-0.605733	0.416808
H287	H	1.465269	-0.272400	0.750141
H288	H	1.798602	0.060934	1.083475
O289	O	0.603020	-0.467150	0.299983
O290	O	0.936354	-0.133817	0.633316
O291	O	1.269687	0.199517	0.966649
C292	C	0.681162	-0.466359	0.300215
C293	C	1.014495	-0.133026	0.633548
C294	C	1.347829	0.200308	0.966881
H295	H	0.704143	-0.410375	0.294582
H296	H	1.037476	-0.077042	0.627915
H297	H	1.370810	0.256292	0.961249
H298	H	0.701142	-0.500775	0.251746
H299	H	1.034475	-0.167441	0.585079
H300	H	1.367808	0.165892	0.918412
H301	H	0.701389	-0.487289	0.354502
H302	H	1.034722	-0.153955	0.687835
H303	H	1.368055	0.179378	1.021168
H304	H	1.119722	-0.825591	0.404539
H305	H	1.453056	-0.492257	0.737873
H306	H	1.786389	-0.158924	1.071206
O307	O	0.503733	-0.433061	0.437779
O308	O	0.837067	-0.099728	0.771112
O309	O	1.170400	0.233606	1.104445
C310	C	0.525983	-0.500472	0.415219
C311	C	0.859316	-0.167138	0.748553
C312	C	1.192649	0.166195	1.081886
H313	H	0.539680	-0.501725	0.353542
H314	H	0.873013	-0.168392	0.686876
H315	H	1.206346	0.164942	1.020209
H316	H	0.479100	-0.540645	0.425803
H317	H	0.812434	-0.207312	0.759136
H318	H	1.145767	0.126022	1.092470
H319	H	0.577158	-0.513556	0.448070
H320	H	0.910491	-0.180222	0.781403
H321	H	1.243824	0.153111	1.114736
H322	H	0.517245	-0.220266	0.381661
H323	H	0.850579	0.113067	0.714994
H324	H	1.183912	0.446400	1.048327
H325	H	1.125990	-0.738805	0.410817
H326	H	1.459323	-0.405471	0.744150
H327	H	1.792657	-0.072138	1.077484
H328	H	0.989971	-0.937411	0.274539
H329	H	1.323305	-0.604077	0.607872
H330	H	1.656638	-0.270744	0.941206
O331	O	1.169952	-0.931522	0.454846
O332	O	1.503286	-0.598189	0.788179
O333	O	1.836619	-0.264856	1.121512
C334	C	1.209715	-0.979571	0.494630
C335	C	1.543048	-0.646238	0.827963
C336	C	1.876382	-0.312905	1.161296
H337	H	1.176956	-1.031880	0.494824
H338	H	1.510289	-0.698547	0.828157
H339	H	1.843623	-0.365214	1.161490
H340	H	1.218556	-0.958338	0.554104
H341	H	1.551890	-0.625005	0.887437
H342	H	1.885223	-0.291672	1.220771
H343	H	1.265784	-0.987348	0.467134
H344	H	1.599118	-0.654015	0.800467
H345	H	1.932451	-0.320682	1.133801
