data_functionalizedCrystal
_audit_creation_method	'MofGen! by Chris Wilmer'
_symmetry_space_group_name_H-M	'P1'
_symmetry_Int_Tables_number	1
_symmetry_cell_setting	triclinic
loop_
_symmetry_equiv_pos_as_xyz
  x,y,z
_cell_length_a	17.699083
_cell_length_b	15.944545
_cell_length_c	16.776229
_cell_angle_alpha	89.991247
_cell_angle_beta	89.998886
_cell_angle_gamma	83.389594
loop_
_atom_site_label
_atom_site_type_symbol
_atom_site_fract_x
_atom_site_fract_y
_atom_site_fract_z
O1	O	1.004258	0.106222	-0.066180
O2	O	1.504258	0.606222	0.433820
O3	O	0.783903	0.120042	-0.066207
O4	O	1.283903	0.620042	0.433793
O5	O	0.900100	-0.009156	-0.066183
O6	O	1.400100	0.490844	0.433817
O7	O	0.888060	0.235420	-0.066204
O8	O	1.388060	0.735420	0.433796
O9	O	0.900085	-0.009164	0.066393
O10	O	1.400085	0.490836	0.566393
O11	O	0.783887	0.120034	0.066370
O12	O	1.283887	0.620034	0.566370
O13	O	1.004242	0.106214	0.066396
O14	O	1.504242	0.606214	0.566396
Zn15	Zn	0.894062	0.113123	0.087432
Zn16	Zn	1.394062	0.613123	0.587432
Zn17	Zn	0.894083	0.113133	-0.087243
Zn18	Zn	1.394083	0.613133	0.412757
O19	O	0.888045	0.235412	0.066373
O20	O	1.388045	0.735412	0.566373
C21	C	0.755697	0.119543	0.000078
C22	C	1.255697	0.619543	0.500078
C23	C	0.671677	0.118057	0.000068
C24	C	1.171677	0.618057	0.500068
C25	C	0.899593	-0.040453	0.000106
C26	C	1.399593	0.459547	0.500106
C27	C	0.898097	-0.133696	0.000108
C28	C	1.398097	0.366304	0.500108
C29	C	0.623184	0.193894	0.000062
C30	C	1.123184	0.693894	0.500062
C31	C	0.544238	0.192493	0.000073
C32	C	1.044238	0.692493	0.500073
C33	C	0.513787	0.115255	0.000084
C34	C	1.013787	0.615255	0.500084
C35	C	0.562286	0.039412	0.000092
C36	C	1.062286	0.539412	0.500092
C37	C	0.641230	0.040814	0.000087
C38	C	1.141230	0.540814	0.500087
C39	C	0.243913	0.033758	0.000112
C40	C	0.743913	0.533758	0.500112
C41	C	0.164963	0.032362	0.000115
C42	C	0.664963	0.532362	0.500115
C43	C	0.146921	0.185436	0.000098
C44	C	0.646921	0.685436	0.500098
C45	C	0.225865	0.186838	0.000093
C46	C	0.725865	0.686838	0.500093
C47	C	0.274358	0.110996	0.000106
C48	C	0.774358	0.610996	0.500106
C49	C	0.359959	0.112516	0.000096
C50	C	0.859959	0.612516	0.500096
C51	C	0.428187	0.113734	0.000088
C52	C	0.928187	0.613734	0.500088
C53	C	0.821603	-0.404168	0.000082
C54	C	1.321603	0.095832	0.500082
C55	C	0.858490	-0.353656	-0.065281
C56	C	1.358490	0.146344	0.434719
C57	C	0.892763	-0.469329	0.000084
C58	C	1.392763	0.030671	0.500084
C59	C	0.858494	-0.353691	0.065429
C60	C	1.358494	0.146309	0.565429
C61	C	0.895380	-0.304421	0.000097
C62	C	1.395380	0.195579	0.500097
C63	C	0.929631	-0.420045	-0.065333
C64	C	1.429631	0.079955	0.434667
C65	C	0.929624	-0.420083	0.065436
C66	C	1.429624	0.079917	0.565436
C67	C	0.966563	-0.369604	0.000057
C68	C	1.466563	0.130396	0.500057
C69	C	0.891253	-0.564328	0.000076
C70	C	1.391253	-0.064328	0.500076
C71	C	0.896895	-0.209424	0.000100
C72	C	1.396895	0.290576	0.500100
C73	C	1.032448	0.106713	0.000110
C74	C	1.532448	0.606713	0.500110
C75	C	1.116468	0.108199	0.000114
C76	C	1.616468	0.608199	0.500114
C77	C	0.888552	0.266709	0.000082
C78	C	1.388552	0.766709	0.500082
C79	C	0.890048	0.359952	0.000075
C80	C	1.390048	0.859952	0.500075
N81	N	0.894054	0.113115	0.206644
N82	N	1.394054	0.613115	0.706644
N83	N	0.894097	0.113134	-0.206454
N84	N	1.394097	0.613134	0.293546
C85	C	0.945522	0.055930	0.248371
C86	C	1.445522	0.555930	0.748371
C87	C	0.945526	0.055929	0.331823
C88	C	1.445526	0.555929	0.831823
C89	C	0.894065	0.113118	0.373547
C90	C	1.394065	0.613118	0.873547
C91	C	0.842592	0.170307	0.331813
C92	C	1.342592	0.670307	0.831813
C93	C	0.842585	0.170303	0.248363
C94	C	1.342585	0.670303	0.748363
C95	C	0.842619	0.170323	0.668360
C96	C	1.342619	0.670323	1.168360
C97	C	0.842632	0.170324	0.751817
C98	C	1.342632	0.670324	1.251817
C99	C	0.945561	0.055950	0.751821
C100	C	1.445561	0.555950	1.251821
C101	C	0.945553	0.055946	0.668371
C102	C	1.445553	0.555946	1.168371
C103	C	0.894078	0.113130	0.626644
C104	C	1.394078	0.613130	1.126644
C105	C	0.894073	0.113129	0.536156
C106	C	1.394073	0.613129	1.036156
C107	C	0.894073	0.113124	0.464033
C108	C	1.394073	0.613124	0.964033
H109	H	0.647970	0.256790	0.000053
H110	H	1.147970	0.756790	0.500053
H111	H	0.987435	0.009364	0.365798
H112	H	1.487435	0.509364	0.865798
H113	H	0.987460	0.009380	0.634402
H114	H	1.487460	0.509380	1.134402
N115	N	0.690766	-0.036652	0.000075
N116	N	1.190766	0.463348	0.500075
N117	N	0.736828	-0.052947	-0.055811
N118	N	1.236828	0.447053	0.444189
H119	H	0.771812	-0.107660	-0.055818
H120	H	1.271812	0.392340	0.444182
N121	N	0.967278	-0.456480	0.134776
N122	N	1.467278	0.043520	0.634776
N123	N	0.942993	-0.435041	0.202597
N124	N	1.442993	0.064959	0.702597
H125	H	0.969581	-0.460747	0.251576
H126	H	1.469581	0.039253	0.751576
N127	N	0.820761	-0.317337	0.134741
N128	N	1.320761	0.182663	0.634741
N129	N	0.752165	-0.325161	0.146360
N130	N	1.252165	0.174839	0.646360
H131	H	0.725510	-0.299485	0.195307
H132	H	1.225510	0.200515	0.695307
H133	H	0.250654	0.249733	0.000080
H134	H	0.750654	0.749733	0.500080
N135	N	0.790024	0.228719	0.205724
N136	N	1.290024	0.728719	0.705724
N137	N	0.790024	0.228708	0.131215
N138	N	1.290024	0.728708	0.631215
H139	H	0.752901	0.269965	0.101101
H140	H	1.252901	0.769965	0.601101
H141	H	0.504757	0.254246	0.000067
H142	H	1.004757	0.754246	0.500067
N143	N	0.998135	-0.002463	0.794457
N144	N	1.498135	0.497537	1.294457
N145	N	0.998136	-0.002459	0.868966
N146	N	1.498136	0.497541	1.368966
H147	H	1.035266	-0.043711	0.899077
H148	H	1.535266	0.456289	1.399077
H149	H	0.107429	0.247190	0.000092
H150	H	0.607429	0.747190	0.500092
H151	H	0.828444	-0.324655	-0.120548
H152	H	1.328444	0.175345	0.379452
H153	H	0.800688	0.216868	0.365789
H154	H	1.300688	0.716868	0.865789
H155	H	0.800724	0.216896	0.785787
H156	H	1.300724	0.716896	1.285787
N157	N	0.790043	0.228751	0.625762
N158	N	1.290043	0.728751	1.125762
N159	N	0.791082	0.306389	0.635075
N160	N	1.291082	0.806389	1.135075
H161	H	0.753947	0.347659	0.604989
H162	H	1.253947	0.847659	1.104989
N163	N	0.133870	-0.046547	0.000124
N164	N	0.633870	0.453453	0.500124
N165	N	0.177173	-0.114256	0.000134
N166	N	0.677173	0.385744	0.500134
H167	H	0.155214	-0.169983	0.000139
H168	H	0.655214	0.330017	0.500139
N169	N	0.293429	-0.043717	0.000122
N170	N	0.793429	0.456283	0.500122
N171	N	0.266228	-0.112672	0.000127
N172	N	0.766228	0.387328	0.500127
H173	H	0.301201	-0.167393	0.000132
H174	H	0.801201	0.332607	0.500132
H175	H	1.027895	-0.354242	0.000028
H176	H	1.527895	0.145758	0.500028
H177	H	0.987430	0.009363	0.214406
H178	H	1.487430	0.509363	0.714406
H179	H	0.537486	-0.023476	0.000112
H180	H	1.037486	0.476524	0.500112
H181	H	0.959667	-0.448911	-0.120653
H182	H	1.459667	0.051089	0.379347
N183	N	0.744722	-0.423636	-0.000011
N184	N	1.244722	0.076364	0.499989
N185	N	0.701287	-0.399290	-0.056231
N186	N	1.201287	0.100710	0.443769
H187	H	0.646991	-0.413039	-0.056301
H188	H	1.146991	0.086961	0.443699
