data_functionalizedCrystal
_audit_creation_method	'MofGen! by Chris Wilmer'
_symmetry_space_group_name_H-M	'P1'
_symmetry_Int_Tables_number	1
_symmetry_cell_setting	triclinic
loop_
_symmetry_equiv_pos_as_xyz
  x,y,z
_cell_length_a	10.723024
_cell_length_b	10.540510
_cell_length_c	9.798715
_cell_angle_alpha	89.999330
_cell_angle_beta	89.996609
_cell_angle_gamma	84.490590
loop_
_atom_site_label
_atom_site_type_symbol
_atom_site_fract_x
_atom_site_fract_y
_atom_site_fract_z
O1	O	1.657257	0.178048	-0.113474
O2	O	1.294111	0.195091	-0.113478
O3	O	1.483989	0.001856	-0.113475
O4	O	1.467380	0.371283	-0.113477
O5	O	1.483974	0.001856	0.113507
O6	O	1.294097	0.195091	0.113504
O7	O	1.657243	0.178048	0.113508
Zn8	Zn	1.475668	0.186569	0.149544
Zn9	Zn	1.475686	0.186570	-0.149514
O10	O	1.467366	0.371282	0.113506
C11	C	1.247604	0.193851	0.000013
C12	C	1.109048	0.190140	0.000011
C13	C	1.034108	0.298264	0.000010
C14	C	0.890903	0.294431	0.000008
C15	C	1.482744	-0.045447	0.000013
C16	C	1.479041	-0.186395	0.000005
C17	C	1.610948	-0.403918	0.000526
C18	C	1.614898	-0.257324	0.000007
C19	C	1.409503	-0.231117	-0.129611
C20	C	1.406516	-0.377877	-0.129713
C21	C	1.403670	-0.377684	0.128408
C22	C	1.410114	-0.231347	0.130114
C23	C	1.703750	0.179288	0.000015
C24	C	1.842306	0.182999	0.000007
C25	C	1.468610	0.418586	0.000014
C26	C	1.472313	0.559534	0.000014
N27	N	1.475664	0.186568	0.353644
N28	N	1.475700	0.186561	-0.353614
C29	C	1.555388	0.105077	0.421422
C30	C	1.555408	0.105072	0.578585
H31	H	0.826507	0.386993	0.000001
H32	H	1.623668	0.035308	0.636871
H33	H	1.623625	0.035306	0.363100
H34	H	1.663577	-0.447451	-0.091901
C35	C	1.052505	0.061245	0.000011
N36	N	1.009918	-0.035842	0.000009
H37	H	1.407446	0.256337	0.588109
C38	C	1.383467	0.280816	0.432432
N39	N	1.314021	0.351806	0.491773
H40	H	0.906695	0.090431	-0.000000
H41	H	1.669307	-0.228009	0.092919
H42	H	1.075968	0.393670	0.000017
H43	H	1.669634	-0.228947	-0.093065
H44	H	1.454049	-0.418116	-0.226602
C45	C	1.269246	-0.408876	-0.137688
N46	N	1.165856	-0.432219	-0.143707
C47	C	1.682452	-0.460642	0.126099
N48	N	1.736309	-0.503377	0.220684
C49	C	1.265876	-0.407557	0.129601
N50	N	1.162096	-0.430071	0.130494
C51	C	1.274390	-0.167019	-0.136136
N52	N	1.172624	-0.118736	-0.141050
H53	H	1.457807	-0.200285	-0.226070
C54	C	1.461679	-0.435044	0.261133
N55	N	1.505385	-0.478248	0.361095
H56	H	1.460712	-0.202761	0.226003
H57	H	1.310928	-0.182229	0.137940
