data_functionalizedCrystal
_audit_creation_method	'MofGen! by Chris Wilmer'
_symmetry_space_group_name_H-M	'P1'
_symmetry_Int_Tables_number	1
_symmetry_cell_setting	triclinic
loop_
_symmetry_equiv_pos_as_xyz
  x,y,z
_cell_length_a	12.759401
_cell_length_b	16.625546
_cell_length_c	16.625548
_cell_angle_alpha	90.011514
_cell_angle_beta	90.002963
_cell_angle_gamma	90.023993
loop_
_atom_site_label
_atom_site_type_symbol
_atom_site_fract_x
_atom_site_fract_y
_atom_site_fract_z
Zn1	Zn	1.606023	-0.321118	0.455859
Zn2	Zn	1.939357	0.012216	0.789192
Zn3	Zn	2.272690	0.345549	1.122526
Zn4	Zn	1.605946	-0.455916	0.321021
Zn5	Zn	1.939279	-0.122583	0.654355
Zn6	Zn	2.272612	0.210750	0.987688
Zn7	Zn	1.430377	-0.321105	0.321044
Zn8	Zn	1.763710	0.012228	0.654377
Zn9	Zn	2.097044	0.345562	0.987710
Zn10	Zn	1.430290	-0.455916	0.455815
Zn11	Zn	1.763623	-0.122582	0.789149
Zn12	Zn	2.096957	0.210751	1.122482
O13	O	1.518159	-0.388514	0.388435
O14	O	1.851492	-0.055180	0.721768
O15	O	2.184826	0.278153	1.055101
O16	O	1.753034	-0.339005	0.437981
O17	O	2.086367	-0.005671	0.771315
O18	O	2.419701	0.327662	1.104648
O19	O	1.582660	-0.438028	0.208192
O20	O	1.915993	-0.104695	0.541525
O21	O	2.249327	0.228638	0.874859
O22	O	1.453746	-0.208274	0.338955
O23	O	1.787079	0.125059	0.672288
O24	O	2.120412	0.458392	1.005622
O25	O	1.752977	-0.438041	0.338917
O26	O	2.086310	-0.104707	0.672250
O27	O	2.419644	0.228626	1.005583
O28	O	1.582792	-0.208284	0.438003
O29	O	1.916126	0.125050	0.771336
O30	O	2.249459	0.458383	1.104670
O31	O	1.453671	-0.338983	0.208208
O32	O	1.787004	-0.005650	0.541542
O33	O	2.120337	0.327684	0.874875
O34	O	1.283345	-0.338982	0.338913
O35	O	1.616678	-0.005649	0.672246
O36	O	1.950011	0.327684	1.005579
O37	O	1.453597	-0.438039	0.568653
O38	O	1.786931	-0.104706	0.901987
O39	O	2.120264	0.228627	1.235320
O40	O	1.283281	-0.438027	0.437929
O41	O	1.616614	-0.104694	0.771262
O42	O	1.949947	0.228640	1.104595
O43	O	1.582708	-0.339004	0.568685
O44	O	1.916041	-0.005671	0.902019
O45	O	2.249375	0.327663	1.235352
O46	O	1.582576	-0.568749	0.338874
O47	O	1.915909	-0.235415	0.672208
O48	O	2.249242	0.097918	1.005541
O49	O	1.453522	-0.568748	0.437907
O50	O	1.786856	-0.235415	0.771240
O51	O	2.120189	0.097919	1.104574
C52	C	1.245192	-0.388504	0.388419
C53	C	1.578525	-0.055170	0.721752
C54	C	1.911858	0.278163	1.055085
C55	C	1.128415	-0.388519	0.388431
C56	C	1.461748	-0.055186	0.721764
C57	C	1.795082	0.278148	1.055098
C58	C	1.073547	-0.440170	0.439908
C59	C	1.406881	-0.106837	0.773241
C60	C	1.740214	0.226497	1.106574
C61	C	0.963823	-0.440173	0.439924
C62	C	1.297157	-0.106840	0.773257
C63	C	1.630490	0.226494	1.106590
C64	C	0.963844	-0.336872	0.336980
C65	C	1.297178	-0.003539	0.670313
C66	C	1.630511	0.329795	1.003646
C67	C	1.073566	-0.336865	0.336968
C68	C	1.406900	-0.003532	0.670302
C69	C	1.740233	0.329801	1.003635
C70	C	1.518060	-0.598005	0.388401
C71	C	1.851393	-0.264671	0.721734
C72	C	2.184726	0.068662	1.055068
C73	C	1.518113	-0.687626	0.388414
C74	C	1.851446	-0.354292	0.721747
C75	C	2.184780	-0.020959	1.055080
C76	C	1.518296	-1.015801	0.388498
C77	C	1.851630	-0.682468	0.721831
C78	C	2.184963	-0.349135	1.055164
C79	C	1.518242	-0.924493	0.388476
C80	C	1.851575	-0.591159	0.721810
C81	C	2.184909	-0.257826	1.055143
C82	C	1.518204	-0.851716	0.388455
C83	C	1.851537	-0.518383	0.721788
C84	C	2.184871	-0.185050	1.055122
C85	C	1.518151	-0.760402	0.388435
C86	C	1.851485	-0.427069	0.721768
C87	C	2.184818	-0.093735	1.055101
C88	C	1.792192	-0.388524	0.388451
C89	C	2.125526	-0.055191	0.721785
C90	C	2.458859	0.278143	1.055118
C91	C	1.908969	-0.388529	0.388458
C92	C	2.242302	-0.055195	0.721792
C93	C	2.575636	0.278138	1.055125
C94	C	1.518152	-0.388523	0.598744
C95	C	1.851485	-0.055190	0.932077
C96	C	2.184818	0.278144	1.265410
C97	C	1.518148	-0.388527	0.688365
C98	C	1.851482	-0.055194	1.021698
C99	C	2.184815	0.278140	1.355031
C100	C	1.518287	-0.178205	0.388486
C101	C	1.851621	0.155129	0.721820
C102	C	2.184954	0.488462	1.055153
C103	C	1.518342	-0.088584	0.388508
C104	C	1.851675	0.244750	0.721842
C105	C	2.185009	0.578083	1.055175
C106	C	1.518145	-0.388531	0.761147
C107	C	1.851479	-0.055197	1.094481
C108	C	2.184812	0.278136	1.427814
C109	C	1.518144	-0.388528	0.852456
C110	C	1.851477	-0.055194	1.185789
C111	C	2.184811	0.278139	1.519122
C112	C	1.518149	-0.388521	0.925232
C113	C	1.851482	-0.055188	1.258565
C114	C	2.184815	0.278146	1.591899
C115	C	1.518149	-0.388519	1.016546
C116	C	1.851482	-0.055186	1.349880
C117	C	2.184816	0.278148	1.683213
C118	C	1.518156	-0.388521	1.178944
C119	C	1.851490	-0.055188	1.512277
C120	C	2.184823	0.278146	1.845611
C121	C	1.518154	-0.388512	1.089323
C122	C	1.851487	-0.055179	1.422656
C123	C	2.184820	0.278154	1.755989
H124	H	1.118202	-0.482228	0.481814
H125	H	1.451535	-0.148894	0.815147
H126	H	1.784868	0.184439	1.148481
H127	H	0.919173	-0.294819	0.295079
H128	H	1.252506	0.038515	0.628413
H129	H	1.585840	0.371848	0.961746
H130	H	0.919155	-0.482231	0.481842
H131	H	1.252488	-0.148898	0.815175
H132	H	1.585821	0.184435	1.148509
H133	H	1.118241	-0.294800	0.295050
H134	H	1.451574	0.038533	0.628383
H135	H	1.784907	0.371867	0.961716
