data_functionalizedCrystal
_audit_creation_method	'MofGen! by Chris Wilmer'
_symmetry_space_group_name_H-M	'P1'
_symmetry_Int_Tables_number	1
_symmetry_cell_setting	triclinic
loop_
_symmetry_equiv_pos_as_xyz
  x,y,z
_cell_length_a	10.654549
_cell_length_b	15.995350
_cell_length_c	9.130307
_cell_angle_alpha	90.003039
_cell_angle_beta	90.005003
_cell_angle_gamma	83.989646
loop_
_atom_site_label
_atom_site_type_symbol
_atom_site_fract_x
_atom_site_fract_y
_atom_site_fract_z
O1	O	1.666301	0.117623	0.121827
O2	O	1.300677	0.128823	0.121821
O3	O	1.493483	0.001393	0.121823
O4	O	1.473494	0.245052	0.121825
O5	O	1.493469	0.001388	-0.121776
O6	O	1.300662	0.128817	-0.121778
O7	O	1.666286	0.117617	-0.121772
Cu8	Cu	1.483473	0.123217	-0.144017
Cu9	Cu	1.483490	0.123223	0.144067
O10	O	1.473480	0.245047	-0.121773
C11	C	1.253882	0.127997	0.000021
C12	C	1.114471	0.125534	0.000019
C13	C	0.822557	0.273287	0.000062
C14	C	0.873083	0.350635	0.000057
C15	C	1.004071	0.352952	0.000038
C16	C	1.084537	0.277913	0.000028
C17	C	1.034010	0.200565	0.000033
C18	C	0.903018	0.198256	0.000048
C19	C	1.063945	0.048186	0.000025
C20	C	0.932957	0.045867	0.000033
C21	C	1.144411	-0.026853	0.000015
C22	C	1.093884	-0.104203	0.000010
C23	C	0.962888	-0.106517	0.000028
C24	C	0.882431	-0.031481	0.000039
C25	C	1.492650	-0.029809	0.000026
C26	C	1.490172	-0.122774	0.000035
C27	C	1.481275	-0.460573	0.000030
C28	C	1.343962	-0.413938	0.000574
C29	C	1.346440	-0.317233	0.000025
C30	C	1.485688	-0.292987	0.000033
C31	C	1.553408	-0.333673	-0.139070
C32	C	1.549958	-0.430329	-0.139187
C33	C	1.552811	-0.430665	0.137831
C34	C	1.552779	-0.333719	0.139669
C35	C	1.488190	-0.198275	0.000030
C36	C	1.478777	-0.555285	0.000023
C37	C	1.713081	0.118443	0.000032
C38	C	1.852492	0.120906	0.000043
C39	C	1.474313	0.276249	0.000026
C40	C	1.476791	0.369214	0.000028
N41	N	1.483470	0.123212	-0.346640
C42	C	1.331165	0.020690	-0.346703
C43	C	1.255026	-0.030573	-0.423402
C44	C	1.255044	-0.030573	-0.576735
C45	C	1.331207	0.020697	-0.653374
C46	C	1.407346	0.071959	-0.576675
C47	C	1.407322	0.071952	-0.423338
C48	C	1.559642	0.174485	-0.576612
C49	C	1.559633	0.174482	-0.423279
C50	C	1.635805	0.225754	-0.653251
C51	C	1.711952	0.277014	-0.576552
C52	C	1.711932	0.277011	-0.423209
C53	C	1.635772	0.225744	-0.346580
N54	N	1.483503	0.123222	0.346690
H55	H	1.293207	-0.289119	0.099739
H56	H	0.807554	0.411730	0.000070
H57	H	0.715898	0.271408	0.000052
H58	H	1.292837	-0.289683	-0.099862
H59	H	1.251067	-0.024961	0.000007
H60	H	1.045208	0.415935	0.000031
H61	H	1.191193	0.279806	0.000030
H62	H	0.921759	-0.169503	0.000040
H63	H	1.635808	0.225755	-0.778103
H64	H	1.331203	0.020699	-0.778226
H65	H	1.654052	-0.461836	0.138771
H66	H	1.507923	-0.451463	0.243263
H67	H	1.289085	-0.432787	0.100327
H68	H	1.289316	-0.433852	-0.098626
H69	H	1.650771	-0.461991	-0.145493
H70	H	1.506361	-0.305568	-0.242592
H71	H	1.159409	-0.165293	0.000012
H72	H	1.655710	-0.318953	-0.144238
H73	H	1.503267	-0.306756	0.242574
H74	H	1.773951	0.318758	-0.638963
H75	H	1.500565	-0.448920	-0.243175
H76	H	0.775772	-0.033357	0.000040
H77	H	1.773927	0.318761	-0.360771
H78	H	1.654325	-0.317766	0.148074
H79	H	1.331152	0.020679	-0.221851
H80	H	1.193014	-0.072314	-0.360986
H81	H	1.193039	-0.072312	-0.639183
H82	H	1.635751	0.225735	-0.221728
