data_functionalizedCrystal
_audit_creation_method	'MofGen! by Chris Wilmer'
_symmetry_space_group_name_H-M	'P1'
_symmetry_Int_Tables_number	1
_symmetry_cell_setting	triclinic
loop_
_symmetry_equiv_pos_as_xyz
  x,y,z
_cell_length_a	16.956984
_cell_length_b	16.992694
_cell_length_c	16.053789
_cell_angle_alpha	92.715794
_cell_angle_beta	86.950413
_cell_angle_gamma	96.639179
loop_
_atom_site_label
_atom_site_type_symbol
_atom_site_fract_x
_atom_site_fract_y
_atom_site_fract_z
O1	O	0.171554	-1.032216	-0.069327
O2	O	0.169708	-0.804051	-0.069351
O3	O	0.055426	-0.931841	-0.069332
O4	O	0.285837	-0.904426	-0.069346
O5	O	0.049075	-0.926345	0.069527
O6	O	0.163357	-0.798555	0.069508
O7	O	0.165204	-1.026719	0.069532
Zn8	Zn	0.163272	-0.911764	0.091567
Zn9	Zn	0.171640	-0.919006	-0.091386
O10	O	0.279486	-0.898929	0.069513
C11	C	0.164156	-0.772245	0.000075
C12	C	0.157066	-0.685660	0.000066
N13	N	0.157562	-0.906828	0.216427
C14	C	0.022632	-0.930497	0.000098
C15	C	-0.065623	-0.934671	0.000097
C16	C	-0.102154	-0.864886	0.000086
C17	C	-0.185079	-0.868812	0.000089
C18	C	-0.231472	-0.942524	0.000097
C19	C	-0.194935	-1.012314	0.000110
C20	C	-0.112012	-1.008387	0.000114
C21	C	-0.480005	-0.961963	0.000093
C22	C	-0.562934	-0.965885	0.000087
C23	C	-0.553072	-0.822382	0.000067
C24	C	-0.470147	-0.818462	0.000066
C25	C	-0.433618	-0.888252	0.000084
N26	N	-0.316234	-0.946539	0.000097
N27	N	-0.348857	-0.884235	0.000090
C28	C	0.312280	-0.900274	0.000081
C29	C	0.400535	-0.896100	0.000076
C30	C	0.170755	-1.058526	0.000104
C31	C	0.177846	-1.145110	0.000108
C32	C	0.225481	-0.630985	0.000062
C33	C	0.218814	-0.549631	0.000074
C34	C	0.143730	-0.522952	0.000084
C35	C	0.075310	-0.577634	0.000090
C36	C	0.081978	-0.658987	0.000084
C37	C	0.116094	-0.281145	0.000108
C38	C	0.109431	-0.199785	0.000111
C39	C	0.252935	-0.171787	0.000097
C40	C	0.259597	-0.253143	0.000086
C41	C	0.191176	-0.307818	0.000097
N42	N	0.136913	-0.439795	0.000093
N43	N	0.197994	-0.390973	0.000093
N44	N	0.177344	-0.923949	-0.216246
C45	C	0.206775	-0.949334	0.260120
C46	C	0.202776	-0.945892	0.347527
C47	C	0.149567	-0.899938	0.391239
C48	C	0.100347	-0.857430	0.347541
C49	C	0.104343	-0.860878	0.260136
C50	C	0.132121	-0.884889	0.652650
C51	C	0.128131	-0.881443	0.740061
C52	C	0.230559	-0.969906	0.740041
C53	C	0.234553	-0.973346	0.652634
C54	C	0.185331	-0.930841	0.608943
N55	N	0.145479	-0.896416	0.480583
N56	N	0.189415	-0.934368	0.519601
H57	H	-0.064386	-0.804861	0.000076
Cl58	Cl	0.338943	-0.103051	0.000087
H59	H	-0.432379	-0.758437	0.000057
H60	H	-0.082270	-1.065213	0.000124
Cl61	Cl	0.061232	-0.823669	0.795013
H62	H	0.026267	-0.703504	0.000087
H63	H	0.286622	-0.652699	0.000054
H64	H	0.250109	-0.986749	0.224535
Cl65	Cl	-0.434093	-1.049701	0.000087
Cl66	Cl	-0.231000	-0.781078	0.000073
Cl67	Cl	-0.598999	-0.734652	0.000047
H68	H	-0.232715	-1.072332	0.000122
H69	H	0.274525	-0.505116	0.000070
H70	H	-0.600705	-1.025914	0.000088
H71	H	0.014175	-0.555906	0.000110
Cl72	Cl	0.353991	-0.286675	0.000068
Cl73	Cl	0.015032	-0.166249	0.000142
H74	H	0.242850	-0.980506	0.383097
H75	H	0.060380	-0.325652	0.000117
H76	H	0.277880	-1.010768	0.617049
Cl77	Cl	0.292432	-1.023338	0.794972
H78	H	0.092040	-0.850279	0.617087
H79	H	0.057019	-0.820018	0.383139
Cl80	Cl	0.042464	-0.807447	0.205208
