data_functionalizedCrystal
_audit_creation_method	'MofGen! by Chris Wilmer'
_symmetry_space_group_name_H-M	'P1'
_symmetry_Int_Tables_number	1
_symmetry_cell_setting	triclinic
loop_
_symmetry_equiv_pos_as_xyz
  x,y,z
_cell_length_a	13.635800
_cell_length_b	19.452420
_cell_length_c	9.582880
_cell_angle_alpha	86.180836
_cell_angle_beta	111.207034
_cell_angle_gamma	78.303285
loop_
_atom_site_label
_atom_site_type_symbol
_atom_site_fract_x
_atom_site_fract_y
_atom_site_fract_z
V1	V	2.053975	-0.096886	0.467331
O2	O	2.051415	0.004961	0.457682
O3	O	2.025169	-0.192402	0.464860
O4	O	2.049434	-0.095262	0.670820
O5	O	2.026982	-0.092852	0.250296
V6	V	2.293838	-0.084720	0.441284
O7	O	2.188768	-0.123574	0.524468
O8	O	2.384143	-0.058032	0.384147
O9	O	2.211040	0.010796	0.443756
O10	O	2.355095	-0.186567	0.450933
O11	O	2.379529	-0.088754	0.658320
O12	O	2.186775	-0.086344	0.237795
V13	V	2.553975	-0.096886	0.467331
O14	O	2.551415	0.004961	0.457682
O15	O	2.525169	-0.192402	0.464860
O16	O	2.549434	-0.095262	0.670820
O17	O	2.526982	-0.092852	0.250296
V18	V	2.793838	-0.084720	0.441284
O19	O	2.688768	-0.123574	0.524468
O20	O	2.884143	-0.058032	0.384147
O21	O	2.711040	0.010796	0.443756
O22	O	2.855095	-0.186567	0.450933
O23	O	2.879529	-0.088754	0.658320
O24	O	2.686775	-0.086344	0.237795
C25	C	1.945913	-0.215691	0.457674
C26	C	1.963135	-0.293776	0.457010
C27	C	1.938355	-0.320492	0.319557
C28	C	1.954568	-0.393859	0.318887
C29	C	1.995543	-0.440507	0.455675
C30	C	2.020331	-0.413783	0.593147
C31	C	2.004127	-0.340418	0.593814
N32	N	1.988249	-0.560894	0.552013
N33	N	2.003638	-0.630588	0.551370
C34	C	2.044368	-0.661554	0.453674
N35	N	2.069111	-0.620192	0.356621
N36	N	2.053715	-0.550491	0.357260
C37	C	2.013117	-0.520061	0.454967
C38	C	2.037168	-0.767823	0.315485
C39	C	2.053389	-0.841192	0.314821
C40	C	2.119143	-0.861114	0.589084
C41	C	2.102931	-0.787747	0.589745
C42	C	2.061938	-0.741105	0.452941
C43	C	1.976865	-0.091778	0.720395
C44	C	2.013764	-0.091082	0.886753
C45	C	2.121967	0.034081	0.450937
C46	C	2.094365	0.112166	0.451611
C47	C	2.091014	-0.089830	0.188212
C48	C	2.043735	-0.090522	0.021853
C49	C	2.445913	-0.215691	0.457674
C50	C	2.463135	-0.293776	0.457010
C51	C	2.476865	-0.091778	0.720395
C52	C	2.513764	-0.091082	0.886753
C53	C	2.621967	0.034081	0.450937
C54	C	2.594365	0.112166	0.451611
C55	C	2.591014	-0.089830	0.188212
C56	C	2.543735	-0.090522	0.021853
C57	C	2.562849	-0.334022	0.464202
C58	C	2.579051	-0.407393	0.463600
C59	C	2.495535	-0.440516	0.455796
C60	C	2.395813	-0.400265	0.448608
C61	C	2.379615	-0.326896	0.449220
C62	C	2.667144	0.152411	0.444423
C63	C	2.641215	0.225782	0.445032
C64	C	2.542509	0.258904	0.452839
C65	C	2.469723	0.218654	0.460023
C66	C	2.495649	0.145285	0.459404
H67	H	1.904983	-0.282520	0.208161
O68	O	1.927830	-0.422688	0.170629
H69	H	1.896595	-0.377929	0.075615
O70	O	2.773605	0.116702	0.435979
H71	H	2.757656	0.090881	0.332806
O72	O	2.272058	-0.283491	0.441456
H73	H	2.235718	-0.242460	0.338851
O74	O	2.129683	-0.758912	0.737985
H75	H	2.055392	-0.723291	0.739264
O76	O	2.363272	0.254380	0.468476
H77	H	2.357492	0.312156	0.467724
H78	H	2.700495	0.258544	0.439184
O79	O	2.652943	-0.298307	0.472652
H80	H	2.725002	-0.338630	0.477578
H81	H	2.327819	-0.427244	0.442254
H82	H	2.003789	-0.729845	0.204091
O83	O	2.417156	0.101876	0.467190
H84	H	2.344175	0.137239	0.472743
H85	H	2.508738	-0.500258	0.455299
O86	O	2.686602	-0.450798	0.471326
H87	H	2.741940	-0.415432	0.476821
H88	H	2.053695	-0.451769	0.704521
H89	H	2.033214	-0.862942	0.202887
O90	O	2.030841	-0.311595	0.742070
H91	H	2.062052	-0.356354	0.837080
O92	O	2.163337	-0.911415	0.736628
H93	H	2.170438	-0.966920	0.713074
H94	H	2.521411	0.318646	0.453342
