data_functionalizedCrystal
_audit_creation_method	'MofGen! by Chris Wilmer'
_symmetry_space_group_name_H-M	'P1'
_symmetry_Int_Tables_number	1
_symmetry_cell_setting	triclinic
loop_
_symmetry_equiv_pos_as_xyz
  x,y,z
_cell_length_a	23.532407
_cell_length_b	23.532407
_cell_length_c	15.186229
_cell_angle_alpha	89.999328
_cell_angle_beta	89.991614
_cell_angle_gamma	82.848712
loop_
_atom_site_label
_atom_site_type_symbol
_atom_site_fract_x
_atom_site_fract_y
_atom_site_fract_z
O1	O	0.069135	0.755259	-0.073182
O2	O	0.402468	1.088592	0.260151
O3	O	0.735801	1.421925	0.593485
O4	O	0.079138	0.589395	-0.073197
O5	O	0.412471	0.922729	0.260136
O6	O	0.745804	1.256062	0.593470
O7	O	-0.008796	0.677329	-0.073173
O8	O	0.324538	1.010662	0.260160
O9	O	0.657871	1.343995	0.593494
O10	O	0.157068	0.667325	-0.073206
O11	O	0.490401	1.000659	0.260127
O12	O	0.823734	1.333992	0.593461
O13	O	-0.008797	0.677323	0.073284
O14	O	0.324537	1.010656	0.406618
O15	O	0.657870	1.343989	0.739951
O16	O	0.079136	0.589389	0.073260
O17	O	0.412470	0.922723	0.406594
O18	O	0.745803	1.256056	0.739927
O19	O	0.069133	0.755253	0.073275
O20	O	0.402467	1.088586	0.406609
O21	O	0.735800	1.421919	0.739942
Zn22	Zn	0.074135	0.672320	0.096521
Zn23	Zn	0.407468	1.005653	0.429854
Zn24	Zn	0.740801	1.338987	0.763188
Zn25	Zn	0.074136	0.672328	-0.096443
Zn26	Zn	0.407470	1.005661	0.236891
Zn27	Zn	0.740803	1.338994	0.570224
O28	O	0.157067	0.667319	0.073251
O29	O	0.490400	1.000653	0.406585
O30	O	0.823733	1.333986	0.739918
C31	C	0.078882	0.568176	0.000030
C32	C	0.412216	0.901510	0.333363
C33	C	0.745549	1.234843	0.666697
C34	C	0.078116	0.504959	0.000025
C35	C	0.411450	0.838293	0.333358
C36	C	0.744783	1.171626	0.666691
C37	C	0.022921	0.238792	0.000060
C38	C	0.356254	0.572125	0.333393
C39	C	0.689588	0.905458	0.666726
C40	C	0.023632	0.298192	0.000059
C41	C	0.356966	0.631525	0.333393
C42	C	0.690299	0.964859	0.666726
O43	O	-0.020153	0.334937	0.000099
O44	O	0.313180	0.668270	0.333432
O45	O	0.646513	1.001603	0.666765
N46	N	0.075909	0.320818	0.000043
N47	N	0.409242	0.654152	0.333376
N48	N	0.742575	0.987485	0.666710
C49	C	0.127477	0.284041	0.000036
C50	C	0.460810	0.617374	0.333369
C51	C	0.794144	0.950707	0.666703
O52	O	0.172007	0.308740	0.000023
O53	O	0.505341	0.642074	0.333356
O54	O	0.838674	0.975407	0.666689
C55	C	0.126765	0.224642	0.000043
C56	C	0.460098	0.557975	0.333376
C57	C	0.793432	0.891308	0.666709
C58	C	0.074485	0.202019	0.000050
C59	C	0.407819	0.535352	0.333383
C60	C	0.741152	0.868686	0.666717
C61	C	-0.029354	0.216169	0.000068
C62	C	0.303979	0.549502	0.333402
C63	C	0.637312	0.882835	0.666735
C64	C	-0.030066	0.156772	0.000067
C65	C	0.303268	0.490106	0.333400
C66	C	0.636601	0.823439	0.666734
C67	C	0.021499	0.119999	0.000057
C68	C	0.354832	0.453333	0.333391
C69	C	0.688165	0.786666	0.666724
C70	C	0.073774	0.142623	0.000049
C71	C	0.407107	0.475956	0.333382
C72	C	0.740441	0.809289	0.666715
C73	C	0.178333	0.187865	0.000042
C74	C	0.511666	0.521199	0.333375
C75	C	0.844999	0.854532	0.666708
C76	C	0.177616	0.128463	0.000049
C77	C	0.510949	0.461796	0.333382
C78	C	0.844283	0.795129	0.666716
C79	C	0.125336	0.105840	0.000057
C80	C	0.458670	0.439173	0.333390
C81	C	0.792003	0.772507	0.666723
C82	C	0.124627	0.046454	0.000038
C83	C	0.457960	0.379787	0.333371
C84	C	0.791294	0.713120	0.666704
N85	N	0.072351	0.023828	0.000054
N86	N	0.405684	0.357161	0.333388
N87	N	0.739017	0.690494	0.666721
C88	C	0.020787	0.060600	0.000064
C89	C	0.354120	0.393934	0.333397
C90	C	0.687453	0.727267	0.666731
C91	C	0.128968	0.408783	0.000023
C92	C	0.462302	0.742117	0.333357
C93	C	0.795635	1.075450	0.666690
C94	C	0.129681	0.468181	0.000010
C95	C	0.463014	0.801514	0.333344
C96	C	0.796348	1.134848	0.666677
C97	C	0.025836	0.482328	0.000036
C98	C	0.359170	0.815662	0.333369
C99	C	0.692503	1.148995	0.666702
C100	C	0.025124	0.422929	0.000042
C101	C	0.358457	0.756263	0.333376
C102	C	0.691791	1.089596	0.666709
C103	C	0.076692	0.386157	0.000040
C104	C	0.410025	0.719490	0.333373
C105	C	0.743359	1.052824	0.666706
C106	C	0.019297	-0.064136	0.000060
C107	C	0.352630	0.269197	0.333394
C108	C	0.685964	0.602530	0.666727
C109	C	0.018590	-0.123538	0.000056
C110	C	0.351924	0.209795	0.333389
C111	C	0.685257	0.543128	0.666722
C112	C	0.122435	-0.137680	0.000035
C113	C	0.455768	0.195653	0.333368
C114	C	0.789101	0.528986	0.666702
C115	C	0.123142	-0.078284	0.000035
C116	C	0.456475	0.255050	0.333369
C117	C	0.789808	0.588383	0.666702
C118	C	0.071568	-0.041512	0.000051
C119	C	0.404901	0.291821	0.333384
C120	C	0.738235	0.625154	0.666718
O121	O	0.168390	0.009675	0.000002
O122	O	0.501723	0.343008	0.333335
O123	O	0.835057	0.676341	0.666669
O124	O	-0.023737	0.035892	0.000089
O125	O	0.309597	0.369226	0.333422
O126	O	0.642930	0.702559	0.666755
C127	C	-0.030012	0.677071	0.000058
C128	C	0.303321	1.010404	0.333391
C129	C	0.636654	1.343738	0.666725
C130	C	-0.093229	0.676305	0.000065
C131	C	0.240104	1.009638	0.333398
C132	C	0.573437	1.342972	0.666731
C133	C	-0.492332	0.723538	0.000021
C134	C	-0.158999	1.056872	0.333354
C135	C	0.174334	1.390205	0.666687
C136	C	-0.551733	0.722827	0.000014
C137	C	-0.218399	1.056160	0.333347
C138	C	0.114934	1.389494	0.666681
O139	O	-0.588477	0.766613	-0.000015
O140	O	-0.255144	1.099946	0.333319
O141	O	0.078190	1.433280	0.666652
N142	N	-0.574359	0.670551	0.000010
N143	N	-0.241025	1.003884	0.333343
N144	N	0.092308	1.337217	0.666677
C145	C	-0.537581	0.618982	0.000003
C146	C	-0.204248	0.952316	0.333337
C147	C	0.129085	1.285649	0.666670
O148	O	-0.562281	0.574452	-0.000001
O149	O	-0.228948	0.907785	0.333332
O150	O	0.104386	1.241119	0.666665
C151	C	-0.478182	0.619695	0.000004
C152	C	-0.144849	0.953028	0.333337
C153	C	0.188485	1.286361	0.666671
C154	C	-0.455559	0.671974	0.000017
C155	C	-0.122226	1.005308	0.333350
C156	C	0.211107	1.338641	0.666684
C157	C	-0.469709	0.775814	0.000033
C158	C	-0.136376	1.109147	0.333366
C159	C	0.196958	1.442481	0.666699
C160	C	-0.410313	0.776525	0.000041
C161	C	-0.076980	1.109858	0.333375
C162	C	0.256354	1.443192	0.666708
C163	C	-0.373540	0.724961	0.000038
C164	C	-0.040207	1.058294	0.333371
C165	C	0.293127	1.391628	0.666704
C166	C	-0.396163	0.672685	0.000025
C167	C	-0.062830	1.006019	0.333359
C168	C	0.270503	1.339352	0.666692
C169	C	-0.441406	0.568127	-0.000009
C170	C	-0.108072	0.901460	0.333325
C171	C	0.225261	1.234794	0.666658
C172	C	-0.382003	0.568843	-0.000009
C173	C	-0.048670	0.902177	0.333324
C174	C	0.284663	1.235510	0.666658
C175	C	-0.359381	0.621123	0.000004
C176	C	-0.026047	0.954457	0.333337
C177	C	0.307286	1.287790	0.666671
C178	C	-0.299994	0.621832	0.000030
C179	C	0.033339	0.955166	0.333363
C180	C	0.366672	1.288499	0.666697
N181	N	-0.277368	0.674109	0.000034
N182	N	0.055965	1.007442	0.333368
N183	N	0.389299	1.340775	0.666701
C184	C	-0.314141	0.725673	0.000038
C185	C	0.019192	1.059006	0.333371
C186	C	0.352526	1.392340	0.666705
C187	C	-0.662324	0.617491	0.000001
C188	C	-0.328990	0.950824	0.333334
C189	C	0.004343	1.284158	0.666668
C190	C	-0.721722	0.616778	0.000007
C191	C	-0.388388	0.950112	0.333340
C192	C	-0.055055	1.283445	0.666674
C193	C	-0.735869	0.720623	0.000016
C194	C	-0.402536	1.053957	0.333349
C195	C	-0.069202	1.387290	0.666682
C196	C	-0.676470	0.721335	0.000016
C197	C	-0.343137	1.054669	0.333349
C198	C	-0.009803	1.388002	0.666683
C199	C	-0.639698	0.669767	0.000005
C200	C	-0.306364	1.003101	0.333338
C201	C	0.026969	1.336434	0.666672
C202	C	-0.189404	0.727163	0.000056
C203	C	0.143929	1.060496	0.333390
C204	C	0.477262	1.393829	0.666723
C205	C	-0.130002	0.727869	0.000068
C206	C	0.203331	1.061203	0.333402
C207	C	0.536664	1.394536	0.666735
C208	C	-0.115860	0.624025	0.000055
C209	C	0.217473	0.957358	0.333388
C210	C	0.550807	1.290691	0.666722
C211	C	-0.175257	0.623318	0.000047
C212	C	0.158076	0.956651	0.333381
C213	C	0.491410	1.289984	0.666714
C214	C	-0.212028	0.674891	0.000045
C215	C	0.121305	1.008225	0.333379
C216	C	0.454639	1.341558	0.666712
O217	O	-0.263215	0.578069	0.000055
O218	O	0.070118	0.911403	0.333388
O219	O	0.403452	1.244736	0.666722
O220	O	-0.289433	0.770196	0.000031
O221	O	0.043900	1.103529	0.333365
O222	O	0.377234	1.436863	0.666698
C223	C	0.178283	0.667577	0.000018
C224	C	0.511617	1.000910	0.333352
C225	C	0.844950	1.334244	0.666685
C226	C	0.241500	0.668343	0.000006
C227	C	0.574834	1.001676	0.333339
C228	C	0.908167	1.335010	0.666673
N229	N	0.074133	0.672319	0.228214
N230	N	0.407467	1.005652	0.561547
N231	N	0.740800	1.338986	0.894880
C232	C	0.069389	0.776472	0.000047
C233	C	0.402722	1.109805	0.333380
C234	C	0.736055	1.443138	0.666713
C235	C	0.070155	0.839689	0.000046
C236	C	0.403488	1.173022	0.333379
C237	C	0.736821	1.506355	0.666712
N238	N	0.074133	0.672333	-0.228135
N239	N	0.407467	1.005667	0.105198
N240	N	0.740800	1.339000	0.438531
C241	C	0.035209	0.711269	0.453947
C242	C	0.368543	1.044602	0.787281
C243	C	0.701876	1.377936	1.120614
C244	C	0.035208	0.711271	0.546137
C245	C	0.368541	1.044604	0.879470
C246	C	0.701875	1.377938	1.212804
C247	C	0.113059	0.633379	0.546125
C248	C	0.446392	0.966713	0.879458
C249	C	0.779726	1.300046	1.212791
C250	C	0.113057	0.633375	0.453937
C251	C	0.446390	0.966709	0.787270
C252	C	0.779724	1.300042	1.120603
C253	C	0.074133	0.672323	0.407850
C254	C	0.407466	1.005657	0.741184
C255	C	0.740800	1.338990	1.074517
C256	C	0.074133	0.672329	0.592228
C257	C	0.407467	1.005663	0.925561
C258	C	0.740800	1.338996	1.258895
C259	C	0.074132	0.672331	0.692184
C260	C	0.407466	1.005664	1.025517
C261	C	0.740799	1.338998	1.358851
C262	C	0.074133	0.672321	0.307888
C263	C	0.407467	1.005654	0.641221
C264	C	0.740800	1.338988	0.974555
H265	H	-0.071347	0.246104	0.000079
H266	H	0.261987	0.579437	0.333412
H267	H	0.595320	0.912771	0.666746
H268	H	0.144751	0.601669	0.583657
H269	H	0.478084	0.935003	0.916991
H270	H	0.811418	1.268336	1.250324
H271	H	-0.219337	0.769159	0.000051
H272	H	0.113996	1.102492	0.333384
H273	H	0.447330	1.435825	0.666718
H274	H	-0.765821	0.762610	0.000015
H275	H	-0.432487	1.095943	0.333349
H276	H	-0.099154	1.429276	0.666682
Br277	Br	-0.017622	0.764125	0.608696
Br278	Br	0.315712	1.097458	0.942029
Br279	Br	0.649045	1.430792	1.275362
H280	H	-0.023984	-0.141954	0.000059
H281	H	0.309349	0.191379	0.333393
H282	H	0.642683	0.524713	0.666726
Br283	Br	-0.050696	-0.014242	0.000082
Br284	Br	0.282637	0.319092	0.333415
Br285	Br	0.615970	0.652425	0.666748
H286	H	0.144754	0.601658	0.416402
H287	H	0.478087	0.934992	0.749735
H288	H	0.811420	1.268325	1.083069
Br289	Br	-0.045829	0.392234	0.000055
Br290	Br	0.287504	0.725567	0.333388
Br291	Br	0.620838	1.058900	0.666721
H292	H	-0.193677	0.580747	0.000061
H293	H	0.139656	0.914081	0.333395
H294	H	0.472990	1.247414	0.666728
H295	H	0.172252	0.486595	-0.000008
H296	H	0.505586	0.819928	0.333325
H297	H	0.838919	1.153261	0.666659
H298	H	-0.072637	0.138359	0.000077
H299	H	0.260696	0.471692	0.333410
H300	H	0.594030	0.805026	0.666743
Br301	Br	-0.332101	0.498854	-0.000028
Br302	Br	0.001233	0.832188	0.333305
Br303	Br	0.334566	1.165521	0.666639
Br304	Br	-0.752416	0.545825	0.000010
Br305	Br	-0.419083	0.879158	0.333343
Br306	Br	-0.085749	1.212491	0.666677
H307	H	-0.016150	0.512280	0.000044
H308	H	0.317183	0.845613	0.333377
H309	H	0.650516	1.178947	0.666710
H310	H	0.170964	0.378846	0.000015
H311	H	0.504297	0.712179	0.333348
H312	H	0.837630	1.045512	0.666682
H313	H	0.003514	0.742982	0.416426
H314	H	0.336847	1.076315	0.749759
H315	H	0.670181	1.409649	1.083093
H316	H	0.220904	0.206274	0.000032
H317	H	0.554238	0.539607	0.333365
H318	H	0.887571	0.872940	0.666698
H319	H	-0.111587	0.770443	0.000081
H320	H	0.221747	1.103777	0.333415
H321	H	0.555080	1.437110	0.666748
H322	H	0.219610	0.098525	0.000051
H323	H	0.552943	0.431858	0.333384
H324	H	0.886277	0.765191	0.666718
H325	H	0.165712	-0.059864	0.000028
H326	H	0.499045	0.273470	0.333362
H327	H	0.832379	0.606803	0.666695
H328	H	-0.085909	0.582043	0.000055
H329	H	0.247424	0.915376	0.333388
H330	H	0.580758	1.248709	0.666722
H331	H	0.164417	-0.167631	0.000023
H332	H	0.497750	0.165702	0.333356
H333	H	0.831084	0.499035	0.666689
H334	H	-0.499644	0.817806	0.000033
H335	H	-0.166311	1.151140	0.333366
H336	H	0.167022	1.484473	0.666699
Br337	Br	-0.645774	0.792288	0.000036
Br338	Br	-0.312441	1.125622	0.333369
Br339	Br	0.020892	1.458955	0.666702
Br340	Br	-0.612423	0.547499	-0.000006
Br341	Br	-0.279090	0.880832	0.333327
Br342	Br	0.054243	1.214166	0.666660
Br343	Br	-0.379620	0.847480	0.000034
Br344	Br	-0.046287	1.180813	0.333367
Br345	Br	0.287046	1.514147	0.666701
Br346	Br	-0.472092	0.497171	-0.000030
Br347	Br	-0.138759	0.830505	0.333303
Br348	Br	0.194575	1.163838	0.666637
