data_functionalizedCrystal
_audit_creation_method	'MofGen! by Chris Wilmer'
_symmetry_space_group_name_H-M	'P1'
_symmetry_Int_Tables_number	1
_symmetry_cell_setting	triclinic
loop_
_symmetry_equiv_pos_as_xyz
  x,y,z
_cell_length_a	17.699083
_cell_length_b	12.837942
_cell_length_c	16.176319
_cell_angle_alpha	89.994101
_cell_angle_beta	89.998611
_cell_angle_gamma	89.055978
loop_
_atom_site_label
_atom_site_type_symbol
_atom_site_fract_x
_atom_site_fract_y
_atom_site_fract_z
O1	O	1.013708	0.131067	-0.068629
O2	O	0.794582	0.148119	-0.068656
O3	O	0.899286	-0.011297	-0.068638
O4	O	0.909004	0.290484	-0.068647
O5	O	0.899269	-0.011307	0.068855
O6	O	0.794565	0.148109	0.068837
O7	O	1.013691	0.131057	0.068864
Cu8	Cu	0.904126	0.139582	0.081405
Cu9	Cu	0.904146	0.139594	-0.081197
O10	O	0.908987	0.290474	0.068846
C11	C	0.766332	0.147503	0.000087
C12	C	0.682179	0.145670	0.000077
C13	C	0.895995	-0.049915	0.000108
C14	C	0.886204	-0.164967	0.000105
C15	C	0.640432	0.239245	0.000074
C16	C	0.561362	0.237516	0.000085
C17	C	0.524040	0.142212	0.000092
C18	C	0.565792	0.048631	0.000097
C19	C	0.644861	0.050360	0.000093
C20	C	0.246916	0.041653	0.000118
C21	C	0.167842	0.039931	0.000120
C22	C	0.163418	0.228809	0.000111
C23	C	0.242486	0.230539	0.000106
C24	C	0.284232	0.136958	0.000115
C25	C	0.369969	0.138833	0.000105
C26	C	0.438304	0.140336	0.000097
C27	C	1.003908	-0.406222	0.000102
C28	C	0.994712	-0.514324	0.000100
C29	C	0.858617	-0.489277	0.000092
C30	C	0.867813	-0.381174	0.000094
C31	C	0.940461	-0.339651	0.000101
C32	C	0.949656	-0.231546	0.000109
C33	C	0.813561	-0.206501	0.000095
C34	C	0.804365	-0.314604	0.000093
C35	C	1.041941	0.131673	0.000119
C36	C	1.126094	0.133506	0.000124
C37	C	0.912278	0.329091	0.000099
C38	C	0.922069	0.444144	0.000096
N39	N	0.904118	0.139573	0.195770
N40	N	0.904160	0.139595	-0.195562
C41	C	0.950499	0.069012	0.239042
C42	C	0.950502	0.069011	0.325589
C43	C	0.904129	0.139577	0.368863
C44	C	0.857743	0.210141	0.325584
C45	C	0.857736	0.210136	0.239039
C46	C	0.857771	0.210161	0.674613
C47	C	0.857783	0.210162	0.761164
C48	C	0.950537	0.069035	0.761163
C49	C	0.950530	0.069031	0.674617
C50	C	0.904141	0.139591	0.631347
C51	C	0.904137	0.139590	0.537503
C52	C	0.904137	0.139584	0.462705
H53	H	0.527375	0.313714	0.000082
H54	H	0.819967	0.267593	0.203807
C55	C	1.041045	-0.691157	0.000094
C56	C	1.064455	-0.587502	0.000101
H57	H	1.084104	-0.736332	0.000088
H58	H	1.011583	-0.703732	0.048037
H59	H	1.011581	-0.703709	-0.047857
H60	H	1.093914	-0.574948	0.048055
H61	H	1.093929	-0.574922	-0.047847
C62	C	1.042210	-0.070461	0.316895
C63	C	1.001498	-0.008536	0.373154
H64	H	1.073699	-0.118329	0.346261
H65	H	1.008026	-0.107703	0.283154
H66	H	1.072525	-0.027344	0.283125
H67	H	0.971179	-0.051652	0.406920
H68	H	1.035686	0.028709	0.406909
C69	C	0.991491	0.006098	0.541950
C70	C	1.001356	-0.008720	0.627051
H71	H	1.022828	-0.041956	0.512587
H72	H	0.940137	-0.004884	0.527862
H73	H	1.004828	0.075181	0.527684
H74	H	0.988013	-0.077801	0.641318
H75	H	1.052721	0.002254	0.641145
H76	H	1.008809	-0.197740	0.000117
C77	C	0.166988	0.415692	0.000091
C78	C	0.117529	0.331679	0.000106
H79	H	0.138658	0.479197	0.000080
H80	H	0.197919	0.412439	0.048033
H81	H	0.197919	0.412426	-0.047861
H82	H	0.086601	0.334941	0.048062
H83	H	0.086585	0.334935	-0.047841
H84	H	0.761898	-0.152287	0.000100
C85	C	1.122745	-0.394263	-0.070568
C86	C	1.083758	-0.360566	0.000109
H87	H	1.172039	-0.366071	-0.070565
H88	H	1.126352	-0.468163	-0.070561
H89	H	1.096289	-0.371391	-0.118512
H90	H	1.110211	-0.383445	0.048053
H91	H	1.080154	-0.286650	0.000109
C92	C	0.180153	-0.146610	0.000150
C93	C	0.126816	-0.064835	0.000137
H94	H	0.154823	-0.211283	0.000164
H95	H	0.210899	-0.142015	-0.047796
H96	H	0.210903	-0.141999	0.048099
H97	H	0.096070	-0.069442	-0.047815
H98	H	0.096057	-0.069432	0.048087
H99	H	0.670814	0.316852	0.000068
H100	H	0.988306	0.011578	0.796403
C101	C	0.715076	-0.421639	-0.070592
C102	C	0.724515	-0.360257	0.000088
H103	H	0.665780	-0.449826	-0.070589
H104	H	0.721488	-0.379976	-0.118529
H105	H	0.751552	-0.476754	-0.070586
H106	H	0.688042	-0.305137	0.000078
H107	H	0.718095	-0.401922	0.048037
H108	H	0.280896	-0.034546	0.000126
H109	H	0.535398	-0.028967	0.000115
H110	H	0.988264	0.011554	0.203815
C111	C	0.672986	-0.110093	-0.070589
C112	C	0.690755	-0.052497	0.000089
H113	H	0.701323	-0.173591	-0.070590
H114	H	0.620562	-0.124763	-0.070580
H115	H	0.685036	-0.070990	-0.118532
H116	H	0.678699	-0.091598	0.048032
H117	H	0.743191	-0.037830	0.000087
C118	C	0.766074	0.349651	0.752477
C119	C	0.806798	0.287724	0.808732
H120	H	0.734597	0.397526	0.781846
H121	H	0.800251	0.386886	0.718714
H122	H	0.735746	0.306537	0.718728
H123	H	0.837130	0.330837	0.842477
H124	H	0.772616	0.250486	0.842510
C125	C	0.851514	0.351247	0.577287
C126	C	0.806792	0.287736	0.627060
H127	H	0.820040	0.399140	0.547926
H128	H	0.885702	0.388461	0.611043
H129	H	0.879119	0.309209	0.539127
H130	H	0.779191	0.329773	0.665225
H131	H	0.772591	0.250519	0.593301
H132	H	0.799470	-0.523105	0.000077
C133	C	0.756392	0.232810	0.422932
C134	C	0.806769	0.287706	0.373153
H135	H	0.724927	0.280700	0.452301
H136	H	0.726060	0.189723	0.389179
H137	H	0.784026	0.190790	0.461085
H138	H	0.779135	0.329721	0.334995
H139	H	0.837105	0.330812	0.406908
C140	C	0.328823	0.342067	-0.070601
C141	C	0.283504	0.335304	0.000087
H142	H	0.354139	0.406750	-0.070614
H143	H	0.365003	0.286596	-0.070592
H144	H	0.298057	0.337459	-0.118537
H145	H	0.314271	0.339904	0.048024
H146	H	0.247320	0.390790	0.000086
