data_functionalizedCrystal
_audit_creation_method	'MofGen! by Chris Wilmer'
_symmetry_space_group_name_H-M	'P1'
_symmetry_Int_Tables_number	1
_symmetry_cell_setting	triclinic
loop_
_symmetry_equiv_pos_as_xyz
  x,y,z
_cell_length_a	13.635800
_cell_length_b	12.945890
_cell_length_c	19.453103
_cell_angle_alpha	84.072929
_cell_angle_beta	78.290822
_cell_angle_gamma	101.682386
loop_
_atom_site_label
_atom_site_type_symbol
_atom_site_fract_x
_atom_site_fract_y
_atom_site_fract_z
V1	V	1.998312	0.329168	-0.096306
O2	O	1.996876	0.322398	0.005527
O3	O	1.969825	0.327402	-0.191824
O4	O	1.969523	0.472509	-0.094430
O5	O	1.997180	0.176287	-0.092541
V6	V	2.241276	0.310824	-0.084172
O7	O	2.126303	0.369409	-0.122923
O8	O	2.338383	0.270583	-0.057556
O9	O	2.158159	0.312590	0.011345
O10	O	2.301410	0.317594	-0.186006
O11	O	2.301105	0.463705	-0.087938
O12	O	2.158461	0.167483	-0.086048
V13	V	2.498312	0.329168	-0.096306
O14	O	2.496876	0.322398	0.005527
O15	O	2.469825	0.327402	-0.191824
O16	O	2.469523	0.472509	-0.094430
O17	O	2.497180	0.176287	-0.092541
V18	V	2.741276	0.310824	-0.084172
O19	O	2.626303	0.369409	-0.122923
O20	O	2.838383	0.270583	-0.057556
O21	O	2.658159	0.312590	0.011345
O22	O	2.801410	0.317594	-0.186006
O23	O	2.801105	0.463705	-0.087938
O24	O	2.658461	0.167483	-0.086048
C25	C	1.891431	0.322334	-0.215121
C26	C	1.908753	0.321846	-0.293206
C27	C	2.007609	0.326887	-0.333448
C28	C	2.023886	0.326439	-0.406817
C29	C	1.941299	0.320927	-0.439940
C30	C	1.842430	0.315891	-0.399689
C31	C	1.826157	0.316350	-0.326322
N32	N	1.888994	0.255964	-0.546377
N33	N	1.904459	0.255526	-0.616073
C34	C	1.990323	0.319545	-0.660990
N35	N	2.060151	0.384007	-0.633579
N36	N	2.044687	0.384441	-0.563877
C37	C	1.958934	0.320429	-0.519494
C38	C	2.106835	0.324103	-0.780789
C39	C	2.123110	0.323660	-0.854160
C40	C	1.941649	0.313101	-0.847029
C41	C	1.925379	0.313554	-0.773660
C42	C	2.007975	0.319050	-0.740544
C43	C	1.891045	0.507431	-0.090885
C44	C	1.908121	0.624616	-0.089984
C45	C	2.121671	0.855590	-0.095260
C46	C	2.137719	0.965695	-0.094413
C47	C	1.956266	0.954934	-0.087438
C48	C	1.940218	0.844828	-0.088285
C49	C	2.022924	0.795160	-0.092197
C50	C	2.006876	0.685054	-0.093049
C51	C	1.825423	0.674293	-0.086069
C52	C	1.841471	0.784399	-0.085222
C53	C	2.068224	0.317655	0.034639
C54	C	2.040521	0.318150	0.112722
C55	C	2.072094	1.132556	-0.089598
C56	C	2.055022	1.015372	-0.090503
C57	C	2.391431	0.322334	-0.215121
C58	C	2.408753	0.321846	-0.293206
C59	C	2.391045	0.507431	-0.090885
C60	C	2.408121	0.624616	-0.089984
C61	C	2.568224	0.317655	0.034639
C62	C	2.540521	0.318150	0.112722
C63	C	2.568610	0.132555	-0.089596
C64	C	2.541154	0.015369	-0.090494
C65	C	2.507620	0.326901	-0.333442
C66	C	2.523913	0.326458	-0.406813
C67	C	2.441335	0.320952	-0.439945
C68	C	2.342460	0.315899	-0.399703
C69	C	2.326170	0.316350	-0.326334
C70	C	2.621671	0.855590	-0.095260
C71	C	2.637719	0.965695	-0.094413
C72	C	2.456266	0.954934	-0.087438
C73	C	2.440218	0.844828	-0.088285
C74	C	2.522924	0.795160	-0.092197
C75	C	2.506876	0.685054	-0.093049
C76	C	2.325423	0.674293	-0.086069
C77	C	2.341471	0.784399	-0.085222
C78	C	2.614147	0.313098	0.152959
C79	C	2.588126	0.313546	0.226329
C80	C	2.488481	0.319054	0.259460
C81	C	2.414849	0.324104	0.219219
C82	C	2.440868	0.323648	0.145851
H83	H	2.074868	0.331370	-0.306490
H84	H	1.844879	0.309442	-0.740894
Cl85	Cl	2.352308	1.017393	-0.082525
H86	H	2.380910	0.327772	0.113095
H87	H	2.189016	0.815151	-0.098452
H88	H	2.454613	0.320586	-0.499686
Cl89	Cl	2.455788	0.319627	0.351696
Cl90	Cl	2.201278	0.598320	-0.082224
H91	H	2.074221	0.644617	-0.096237
Cl92	Cl	2.739423	0.306171	0.111324
H93	H	2.245659	0.312227	-0.293578
Cl94	Cl	2.648218	0.332804	-0.457387
Cl95	Cl	2.238656	0.308971	-0.441365
H96	H	2.274137	0.824853	-0.082035
H97	H	2.574221	0.644617	-0.096237
H98	H	1.874405	0.308620	-0.873997
Cl99	Cl	1.701278	0.598320	-0.082224
H100	H	2.648094	0.309435	0.259083
Cl101	Cl	2.289583	0.331024	0.260882
H102	H	1.775188	0.311405	-0.426662
Cl103	Cl	2.210671	0.331035	-0.739156
H104	H	2.218127	1.014893	-0.096907
Cl105	Cl	2.148173	0.332778	-0.457417
H106	H	1.745655	0.312245	-0.293557
H107	H	2.689016	0.815151	-0.098452
Cl108	Cl	1.852308	1.017393	-0.082525
H109	H	2.718127	1.014893	-0.096907
H110	H	1.774137	0.824853	-0.082035
Cl111	Cl	2.247399	0.330007	-0.904752
Cl112	Cl	2.611452	0.333834	-0.291808
