data_functionalizedCrystal
_audit_creation_method	'MofGen! by Chris Wilmer'
_symmetry_space_group_name_H-M	'P1'
_symmetry_Int_Tables_number	1
_symmetry_cell_setting	triclinic
loop_
_symmetry_equiv_pos_as_xyz
  x,y,z
_cell_length_a	15.944545
_cell_length_b	15.944493
_cell_length_c	16.176319
_cell_angle_alpha	89.999072
_cell_angle_beta	89.995369
_cell_angle_gamma	83.485608
loop_
_atom_site_label
_atom_site_type_symbol
_atom_site_fract_x
_atom_site_fract_y
_atom_site_fract_z
O1	O	1.114508	0.108312	-0.068682
O2	O	0.869955	0.121674	-0.068694
O3	O	0.998935	-0.007285	-0.068695
O4	O	0.985528	0.237271	-0.068682
O5	O	0.998917	-0.007293	0.068799
O6	O	0.869937	0.121666	0.068799
O7	O	1.114490	0.108304	0.068811
Cu8	Cu	0.992212	0.114984	0.081359
Cu9	Cu	0.992233	0.114994	-0.081242
O10	O	0.985510	0.237263	0.068812
C11	C	0.838652	0.121116	0.000051
C12	C	0.745406	0.119456	0.000046
C13	C	0.474791	0.034560	0.000050
C14	C	0.525356	0.075486	0.067845
C15	C	0.409764	0.113535	0.000059
C16	C	0.525354	0.075515	-0.067712
C17	C	0.574677	0.116440	0.000051
C18	C	0.459100	0.154440	0.067911
C19	C	0.459094	0.154458	-0.067708
C20	C	0.509626	0.195442	0.000105
C21	C	0.314762	0.111859	0.000065
C22	C	0.669676	0.118122	0.000052
C23	C	0.998378	-0.038584	0.000048
C24	C	0.996735	-0.131833	0.000038
C25	C	1.072656	-0.367594	0.000057
C26	C	1.031724	-0.418157	-0.067736
C27	C	0.993691	-0.302554	0.000048
C28	C	1.031688	-0.418142	0.067822
C29	C	0.990757	-0.467463	0.000061
C30	C	0.952780	-0.351888	-0.067801
C31	C	0.952756	-0.351869	0.067817
C32	C	0.911766	-0.402400	0.000008
C33	C	0.995384	-0.207554	0.000039
C34	C	0.989058	-0.562460	0.000063
C35	C	1.145793	0.108862	0.000064
C36	C	1.239039	0.110522	0.000064
C37	C	0.986067	0.268562	0.000067
C38	C	0.987710	0.361811	0.000072
N39	N	0.992204	0.114977	0.195724
N40	N	0.992249	0.114995	-0.195608
C41	C	1.049333	0.057897	0.238988
C42	C	1.049338	0.057896	0.325536
C43	C	0.992216	0.114980	0.368817
C44	C	0.935080	0.172062	0.325547
C45	C	0.935072	0.172058	0.239002
C46	C	0.935109	0.172078	0.674575
C47	C	0.935122	0.172079	0.761127
C48	C	1.049374	0.057916	0.761109
C49	C	1.049366	0.057912	0.674564
C50	C	0.992228	0.114991	0.631301
C51	C	0.992223	0.114990	0.537457
C52	C	0.992224	0.114985	0.462660
H53	H	0.525104	0.263508	0.000148
H54	H	1.065045	-0.447077	0.125132
C55	C	0.420590	0.199033	-0.144100
C56	C	0.439199	0.282765	-0.144617
C57	C	0.403753	0.323843	-0.214990
H58	H	0.361121	0.198201	-0.143345
H59	H	0.443407	0.170937	-0.192247
H60	H	0.416379	0.310853	-0.096483
H61	H	0.498662	0.283622	-0.145385
H62	H	0.426570	0.295747	-0.263137
H63	H	0.344285	0.323004	-0.214229
H64	H	0.416380	0.380656	-0.215355
C65	C	0.908451	-0.313597	-0.144415
C66	C	0.949655	-0.348051	-0.215141
C67	C	0.908840	-0.312807	-0.285733
H68	H	0.909783	-0.254189	-0.144086
H69	H	0.851478	-0.325742	-0.144660
H70	H	1.006613	-0.335901	-0.214896
H71	H	0.948324	-0.407456	-0.215498
H72	H	0.851868	-0.324951	-0.285978
H73	H	0.910176	-0.253400	-0.285395
H74	H	0.936787	-0.336184	-0.333728
H75	H	0.554285	0.042152	-0.125024
H76	H	0.843695	-0.417864	-0.000033
C77	C	0.453977	-0.056141	0.000299
C78	C	0.487662	-0.097120	0.071445
C79	C	0.468493	-0.180668	0.071713
H80	H	0.477647	-0.084566	-0.047317
H81	H	0.394446	-0.056592	-0.000149
H82	H	0.547181	-0.096674	0.071886
H83	H	0.463997	-0.068720	0.119073
H84	H	0.408963	-0.181118	0.071264
H85	H	0.492164	-0.209084	0.024094
H86	H	0.491339	-0.208480	0.119988
H87	H	1.065079	-0.447100	-0.125047
C88	C	1.111408	-0.003937	0.372619
C89	C	1.162796	0.040851	0.422311
C90	C	1.219978	-0.016083	0.465706
H91	H	1.145514	-0.037957	0.334546
H92	H	1.081227	-0.038912	0.406435
H93	H	1.192974	0.075811	0.388498
H94	H	1.128713	0.074868	0.460399
H95	H	1.189798	-0.051058	0.499522
H96	H	1.254079	-0.050100	0.427627
H97	H	1.254846	0.014297	0.499432
H98	H	1.095852	0.011416	0.203754
C99	C	1.163350	-0.346759	-0.000217
C100	C	1.204321	-0.380442	-0.071372
C101	C	1.287857	-0.361238	-0.071672
H102	H	1.191797	-0.370411	0.047393
H103	H	1.163776	-0.287226	0.000224
H104	H	1.203900	-0.439964	-0.071805
H105	H	1.175900	-0.356796	-0.118993
H106	H	1.288283	-0.301704	-0.071231
H107	H	1.316295	-0.384890	-0.024059
H108	H	1.315664	-0.384081	-0.119953
H109	H	0.554286	0.042129	0.125157
H110	H	0.888604	0.218565	0.796365
C111	C	0.420521	0.198793	0.144396
C112	C	0.332979	0.196672	0.143538
C113	C	0.297414	0.237504	0.213990
H114	H	0.432553	0.255790	0.144677
H115	H	0.443739	0.170919	0.192493
H116	H	0.309769	0.224548	0.095454
H117	H	0.320924	0.139686	0.143270
H118	H	0.320632	0.209630	0.262087
H119	H	0.309452	0.294499	0.214264
H120	H	0.238015	0.236063	0.213421
C121	C	0.873042	0.234147	0.627761
C122	C	0.823039	0.284154	0.684193
C123	C	0.765860	0.341352	0.641094
H124	H	0.837998	0.204007	0.594006
H125	H	0.903223	0.269179	0.594009
H126	H	0.792860	0.249126	0.717931
H127	H	0.858059	0.314312	0.717949
H128	H	0.796040	0.376384	0.607342
H129	H	0.730822	0.311204	0.607341
H130	H	0.731931	0.375293	0.679376
H131	H	0.919429	-0.322911	0.125131
H132	H	1.095883	0.011432	0.639327
H133	H	1.095897	0.011436	0.796343
H134	H	0.888566	0.218538	0.360792
H135	H	0.888550	0.218537	0.203777
