data_functionalizedCrystal
_audit_creation_method	'MofGen! by Chris Wilmer'
_symmetry_space_group_name_H-M	'P1'
_symmetry_Int_Tables_number	1
_symmetry_cell_setting	triclinic
loop_
_symmetry_equiv_pos_as_xyz
  x,y,z
_cell_length_a	19.805407
_cell_length_b	19.805405
_cell_length_c	19.805399
_cell_angle_alpha	89.969291
_cell_angle_beta	89.978486
_cell_angle_gamma	90.025657
loop_
_atom_site_label
_atom_site_type_symbol
_atom_site_fract_x
_atom_site_fract_y
_atom_site_fract_z
Zn1	Zn	1.034718	-0.269483	-0.382795
Zn2	Zn	1.034638	-0.382674	-0.269603
Zn3	Zn	0.921538	-0.269503	-0.269611
Zn4	Zn	0.921496	-0.382634	-0.382741
O5	O	0.978097	-0.326074	-0.326188
O6	O	1.129424	-0.284507	-0.367800
O7	O	1.019619	-0.367687	-0.174888
O8	O	0.936602	-0.174784	-0.284650
O9	O	1.129365	-0.367668	-0.284638
O10	O	1.019755	-0.174769	-0.367807
O11	O	0.936525	-0.284541	-0.174893
O12	O	0.826816	-0.284502	-0.284598
O13	O	0.936531	-0.367599	-0.477465
O14	O	0.826785	-0.367618	-0.367714
O15	O	1.019715	-0.284468	-0.477505
O16	O	1.019578	-0.477385	-0.284586
O17	O	0.936454	-0.477356	-0.367708
C18	C	0.802241	-0.326058	-0.326151
C19	C	0.727009	-0.326068	-0.326152
C20	C	0.978021	-0.501930	-0.326155
C21	C	0.978051	-0.577162	-0.326163
C22	C	0.265220	-0.369434	-0.369442
C23	C	0.335908	-0.369433	-0.369427
C24	C	0.371248	-0.326090	-0.326214
C25	C	0.335895	-0.282750	-0.283007
C26	C	0.265207	-0.282755	-0.283019
C27	C	0.620968	-0.282730	-0.282960
C28	C	0.691660	-0.282726	-0.282953
C29	C	0.691669	-0.369407	-0.369368
C30	C	0.620982	-0.369412	-0.369380
C31	C	0.585635	-0.326075	-0.326171
C32	C	0.508987	-0.326078	-0.326186
C33	C	0.447895	-0.326083	-0.326202
C34	C	1.021376	-0.612499	-0.282927
C35	C	1.021404	-0.683187	-0.282942
C36	C	0.978104	-0.718537	-0.326190
C37	C	0.934777	-0.683195	-0.369431
C38	C	0.934752	-0.612508	-0.369419
C39	C	0.934877	-0.968268	-0.369482
C40	C	0.934904	-1.038960	-0.369489
C41	C	1.021529	-1.038947	-0.283004
C42	C	1.021504	-0.968260	-0.282992
C43	C	0.978180	-0.932924	-0.326236
C44	C	0.978150	-0.856276	-0.326220
C45	C	0.978130	-0.795184	-0.326203
C46	C	1.154640	-0.326089	-0.326224
C47	C	1.229872	-0.326096	-0.326240
C48	C	0.978127	-0.326027	-0.502730
C49	C	0.978140	-0.326007	-0.577962
C50	C	0.978192	-0.149531	-0.326235
C51	C	0.978233	-0.074299	-0.326256
C52	C	0.934885	-0.282708	-0.613309
C53	C	0.934894	-0.282695	-0.683997
C54	C	0.978162	-0.325977	-0.719338
C55	C	1.021419	-0.369280	-0.683987
C56	C	1.021406	-0.369297	-0.613300
C57	C	1.021473	-0.369217	-0.969060
C58	C	1.021484	-0.369196	-1.039752
C59	C	0.934961	-0.282616	-1.039758
C60	C	0.934948	-0.282632	-0.969071
C61	C	0.978202	-0.325937	-0.933726
C62	C	0.978190	-0.325952	-0.857077
C63	C	0.978178	-0.325960	-0.795985
C64	C	0.978107	-0.326071	-0.150332
C65	C	0.978225	-0.325901	-0.075100
H66	H	0.364686	-0.404724	-0.404605
O67	O	0.892883	-0.933922	-0.411554
C68	C	0.931368	-0.892961	-0.455299
H69	H	0.984684	-0.914211	-0.459539
H70	H	0.906851	-0.892151	-0.507362
H71	H	0.933689	-0.839398	-0.434372
O72	O	1.063397	-0.411351	-0.934705
C73	C	1.024837	-0.455068	-0.893784
H74	H	0.971528	-0.459239	-0.915070
H75	H	1.049292	-0.507159	-0.892980
H76	H	1.022512	-0.434160	-0.840215
H77	H	0.236428	-0.247463	-0.247841
O78	O	0.892882	-0.240682	-0.934667
C79	C	0.849128	-0.279227	-0.893773
H80	H	0.872973	-0.330525	-0.883174
H81	H	0.840061	-0.251670	-0.844072
H82	H	0.798971	-0.286655	-0.921005
O83	O	0.892937	-1.073375	-0.411541
C84	C	0.931467	-1.114190	-0.455306
H85	H	0.982777	-1.124752	-0.431481
H86	H	0.903912	-1.163915	-0.464357
H87	H	0.938867	-1.086910	-0.505470
O88	O	1.063626	-0.717388	-0.240977
C89	C	1.131040	-0.699988	-0.255897
H90	H	1.132328	-0.648660	-0.281944
H91	H	1.161446	-0.697508	-0.207098
H92	H	1.153859	-0.739723	-0.290712
H93	H	1.056633	-0.583721	-0.247707
H94	H	1.056645	-0.404525	-0.712767
H95	H	0.720431	-0.247429	-0.247762
H96	H	0.899740	-0.247356	-1.068544
H97	H	0.899524	-0.711983	-0.404648
H98	H	0.899655	-0.247459	-0.584539
H99	H	0.364673	-0.247463	-0.247819
H100	H	0.899473	-0.583737	-0.404627
O101	O	0.586743	-0.240565	-0.240972
C102	C	0.633094	-0.202320	-0.202821
H103	H	0.683497	-0.200012	-0.230544
H104	H	0.612690	-0.148983	-0.195702
H105	H	0.640578	-0.227038	-0.151369
O106	O	1.063631	-0.934027	-0.240960
C107	C	1.101867	-0.980375	-0.202790
H108	H	1.104210	-1.030743	-0.230522
H109	H	1.155193	-0.959913	-0.195623
H110	H	1.077118	-0.987947	-0.151359
H111	H	0.899669	-0.247440	-0.712773
H112	H	1.056720	-0.404445	-1.068525
H113	H	1.056808	-1.067726	-0.247796
H114	H	1.056633	-0.404550	-0.584521
H115	H	0.236452	-0.404725	-0.404635
H116	H	0.720457	-0.404696	-0.404549
O117	O	0.586759	-0.411580	-0.411378
C118	C	0.633117	-0.449821	-0.449519
H119	H	0.683490	-0.452124	-0.421784
H120	H	0.612676	-0.503160	-0.456643
H121	H	0.640670	-0.425102	-0.500969
