data_functionalizedCrystal
_audit_creation_method	'MofGen! by Chris Wilmer'
_symmetry_space_group_name_H-M	'P1'
_symmetry_Int_Tables_number	1
_symmetry_cell_setting	triclinic
loop_
_symmetry_equiv_pos_as_xyz
  x,y,z
_cell_length_a	12.594517
_cell_length_b	12.594516
_cell_length_c	19.076919
_cell_angle_alpha	92.275735
_cell_angle_beta	92.279789
_cell_angle_gamma	90.011248
loop_
_atom_site_label
_atom_site_type_symbol
_atom_site_fract_x
_atom_site_fract_y
_atom_site_fract_z
Zn1	Zn	1.603080	-0.447962	-0.397993
Zn2	Zn	2.103080	0.052038	0.102007
Zn3	Zn	1.610145	-0.618805	-0.280307
Zn4	Zn	2.110145	-0.118805	0.219693
Zn5	Zn	1.432245	-0.440840	-0.280310
Zn6	Zn	1.932245	0.059160	0.219690
Zn7	Zn	1.425081	-0.625895	-0.397960
Zn8	Zn	1.925081	-0.125895	0.102040
O9	O	1.517638	-0.533375	-0.339143
O10	O	2.017638	-0.033375	0.160857
O11	O	1.752962	-0.470638	-0.382395
O12	O	2.252962	0.029362	0.117605
O13	O	1.592501	-0.589251	-0.181818
O14	O	2.092501	-0.089251	0.318182
O15	O	1.454948	-0.292840	-0.295935
O16	O	1.954948	0.207160	0.204065
O17	O	1.758153	-0.596156	-0.295931
O18	O	2.258153	-0.096156	0.204069
O19	O	1.580459	-0.298072	-0.382397
O20	O	2.080459	0.201928	0.117603
O21	O	1.461799	-0.458500	-0.181820
O22	O	1.961799	0.041500	0.318180
O23	O	1.282349	-0.465374	-0.295903
O24	O	1.782349	0.034626	0.204097
O25	O	1.442738	-0.608239	-0.496454
O26	O	1.942738	-0.108239	0.003546
O27	O	1.277086	-0.601333	-0.382341
O28	O	1.777086	-0.101333	0.117659
O29	O	1.573513	-0.477512	-0.496478
O30	O	2.073513	0.022488	0.003522
O31	O	1.585555	-0.768691	-0.295899
O32	O	2.085555	-0.268691	0.204101
O33	O	1.449589	-0.773899	-0.382338
O34	O	1.949589	-0.273899	0.117662
C35	C	1.241098	-0.533351	-0.339119
C36	C	1.741098	-0.033351	0.160881
C37	C	1.122792	-0.533367	-0.339126
C38	C	1.622792	-0.033367	0.160874
C39	C	0.985601	-0.459347	-0.292220
C40	C	1.485601	0.040653	0.207780
C41	C	1.052549	-0.437325	-0.356443
C42	C	1.552549	0.062675	0.143557
C43	C	1.057415	-0.555342	-0.274909
C44	C	1.557415	-0.055342	0.225091
C45	C	0.978950	-0.511341	-0.403435
C46	C	1.478950	-0.011341	0.096565
C47	C	0.983812	-0.629401	-0.321857
C48	C	1.483812	-0.129401	0.178143
C49	C	1.050726	-0.607418	-0.386125
C50	C	1.550726	-0.107418	0.113875
C51	C	1.517589	-0.809916	-0.339130
C52	C	2.017589	-0.309916	0.160870
C53	C	1.517664	-0.928222	-0.339149
C54	C	2.017664	-0.428222	0.160851
C55	C	1.591695	-0.994607	-0.292185
C56	C	2.091695	-0.494607	0.207815
C57	C	1.613797	-1.069215	-0.356424
C58	C	2.113797	-0.569215	0.143576
C59	C	1.495693	-1.064415	-0.274950
C60	C	1.995693	-0.564415	0.225050
C61	C	1.539813	-1.001274	-0.403422
C62	C	2.039813	-0.501274	0.096578
C63	C	1.421667	-0.996465	-0.321904
C64	C	1.921667	-0.496465	0.178096
C65	C	1.443729	-1.071045	-0.386188
C66	C	1.943729	-0.571045	0.113812
C67	C	1.795257	-0.533401	-0.339167
C68	C	2.295257	-0.033401	0.160833
C69	C	1.913562	-0.533412	-0.339177
C70	C	2.413562	-0.033412	0.160823
C71	C	1.506538	-0.544461	-0.522717
C72	C	2.006538	-0.044461	-0.022717
C73	C	1.501808	-0.549185	-0.600946
C74	C	2.001808	-0.049185	-0.100946
C75	C	1.517714	-0.255756	-0.339170
C76	C	2.017714	0.244244	0.160830
C77	C	1.517747	-0.137452	-0.339182
C78	C	2.017747	0.362548	0.160818
C79	C	1.567670	-0.483345	-0.637711
C80	C	2.067670	0.016655	-0.137711
C81	C	1.563212	-0.487779	-0.711215
C82	C	2.063212	0.012221	-0.211215
C83	C	1.492898	-0.558060	-0.747952
C84	C	1.992898	-0.058060	-0.247952
C85	C	1.427029	-0.623903	-0.711181
C86	C	1.927029	-0.123903	-0.211181
C87	C	1.431482	-0.619462	-0.637679
C88	C	1.931482	-0.119462	-0.137679
C89	C	1.472275	-0.578634	-0.967780
C90	C	1.972275	-0.078634	-0.467780
C91	C	1.467830	-0.583072	-1.041288
C92	C	1.967830	-0.083072	-0.541288
C93	C	1.604012	-0.446947	-1.041317
C94	C	2.104012	0.053053	-0.541317
C95	C	1.608463	-0.442517	-0.967813
C96	C	2.108463	0.057483	-0.467813
C97	C	1.542590	-0.508356	-0.931049
C98	C	2.042590	-0.008356	-0.431049
N99	N	1.488343	-0.562597	-0.823085
N100	N	1.988343	-0.062597	-0.323085
N101	N	1.547141	-0.503813	-0.855917
N102	N	2.047141	-0.003813	-0.355917
C103	C	1.528755	-0.522256	-0.156282
C104	C	2.028755	-0.022256	0.343718
C105	C	1.533691	-0.517233	-0.078054
C106	C	2.033691	-0.017233	0.421946
H107	H	0.944740	-0.492679	-0.457780
H108	H	1.444740	0.007321	0.042220
C109	C	1.723509	-1.112351	-0.376153
C110	C	2.223509	-0.612351	0.123847
H111	H	1.776004	-1.086111	-0.342728
H112	H	2.276004	-0.586111	0.157272
H113	H	1.739656	-1.089768	-0.421448
H114	H	2.239656	-0.589768	0.078552
H115	H	1.722557	-1.187791	-0.376438
H116	H	2.222557	-0.687791	0.123562
C117	C	1.676462	-0.374523	-1.081756
C118	C	2.176462	0.125477	-0.581756
H119	H	1.718980	-0.332037	-1.049349
H120	H	2.218980	0.167963	-0.549349
H121	H	1.634025	-0.329876	-1.110430
H122	H	2.134025	0.170124	-0.610430
H123	H	1.721095	-0.416981	-1.110429
H124	H	2.221095	0.083019	-0.610429
C125	C	1.645011	-0.406030	-0.597307
C126	C	2.145011	0.093970	-0.097307
H127	H	1.683589	-0.367446	-0.629734
H128	H	2.183589	0.132554	-0.129734
H129	H	1.693116	-0.445010	-0.568633
H130	H	2.193116	0.054990	-0.068633
H131	H	1.606034	-0.357916	-0.568637
H132	H	2.106034	0.142084	-0.068637
H133	H	0.956912	-0.396690	-0.252581
H134	H	1.456912	0.103310	0.247419
H135	H	1.616847	-0.434168	-0.741147
H136	H	2.116847	0.065832	-0.241147
H137	H	0.953563	-0.710571	-0.307206
H138	H	1.453563	-0.210571	0.192794
H139	H	1.558347	-0.973546	-0.457774
H140	H	2.058347	-0.473546	0.042226
H141	H	1.082757	-0.356127	-0.371084
H142	H	1.582757	0.143873	0.128916
H143	H	1.381156	-1.104320	-0.425964
H144	H	1.881156	-0.604320	0.074036
C145	C	1.089224	-0.692005	-0.439798
C146	C	1.589224	-0.192005	0.060202
H147	H	1.062131	-0.676233	-0.485392
H148	H	1.562131	-0.176233	0.014608
H149	H	1.064620	-0.760025	-0.427902
H150	H	1.564620	-0.260025	0.072098
H151	H	1.164684	-0.691920	-0.439221
H152	H	1.664684	-0.191920	0.060779
C153	C	1.103796	-0.580437	-0.201517
C154	C	1.603796	-0.080437	0.298483
H155	H	1.081550	-0.527763	-0.168232
H156	H	1.581550	-0.027763	0.331768
H157	H	1.179177	-0.580886	-0.202122
H158	H	1.679177	-0.080886	0.297878
H159	H	1.079251	-0.648137	-0.188911
H160	H	1.579251	-0.148137	0.311089
C161	C	1.311987	-0.953293	-0.302150
C162	C	1.811987	-0.453293	0.197850
H163	H	1.296453	-0.974768	-0.256485
H164	H	1.796453	-0.474768	0.243515
H165	H	1.259277	-0.980561	-0.335056
H166	H	1.759277	-0.480561	0.164944
H167	H	1.312578	-0.877903	-0.302702
H168	H	1.812578	-0.377903	0.197298
C169	C	1.470533	-1.102049	-0.201590
C170	C	1.970533	-0.602049	0.298410
H171	H	1.523171	-1.075794	-0.168270
H172	H	2.023171	-0.575794	0.331730
H173	H	1.470099	-1.177504	-0.202228
H174	H	1.970099	-0.677504	0.297772
H175	H	1.402813	-1.076042	-0.189006
H176	H	1.902813	-0.576042	0.310994
H177	H	1.410568	-0.640306	-1.071197
H178	H	1.910568	-0.140306	-0.571197
H179	H	1.654309	-0.961140	-0.252504
H180	H	2.154309	-0.461140	0.247496
H181	H	1.369773	-0.681123	-0.741099
H182	H	1.869773	-0.181123	-0.241099
H183	H	1.665724	-0.385290	-0.937907
H184	H	2.165724	0.114710	-0.437907
C185	C	1.399796	-0.651032	-0.927349
C186	C	1.899796	-0.151032	-0.427349
H187	H	1.357284	-0.693522	-0.959757
H188	H	1.857284	-0.193522	-0.459757
H189	H	1.355174	-0.608557	-0.898684
H190	H	1.855174	-0.108557	-0.398684
H191	H	1.442213	-0.695694	-0.898666
H192	H	1.942213	-0.195694	-0.398666
H193	H	1.377839	-0.673065	-0.607745
H194	H	1.877839	-0.173065	-0.107745
