data_functionalizedCrystal
_audit_creation_method	'MofGen! by Chris Wilmer'
_symmetry_space_group_name_H-M	'P1'
_symmetry_Int_Tables_number	1
_symmetry_cell_setting	triclinic
loop_
_symmetry_equiv_pos_as_xyz
  x,y,z
_cell_length_a	21.295417
_cell_length_b	14.908780
_cell_length_c	14.908308
_cell_angle_alpha	90.212689
_cell_angle_beta	93.260635
_cell_angle_gamma	86.680642
loop_
_atom_site_label
_atom_site_type_symbol
_atom_site_fract_x
_atom_site_fract_y
_atom_site_fract_z
Zn1	Zn	-0.220203	-1.345259	-0.587834
Zn2	Zn	-0.319080	-1.353815	-0.437460
Zn3	Zn	-0.219518	-1.203572	-0.428801
Zn4	Zn	-0.331131	-1.194838	-0.579075
O5	O	-0.272483	-1.274371	-0.508292
O6	O	-0.228562	-1.472223	-0.575175
O7	O	-0.300543	-1.341122	-0.310489
O8	O	-0.131518	-1.222442	-0.449939
O9	O	-0.301207	-1.478509	-0.464696
O10	O	-0.132021	-1.326538	-0.566779
O11	O	-0.227396	-1.230739	-0.304127
O12	O	-0.239081	-1.076585	-0.441446
O13	O	-0.321745	-1.207555	-0.706059
O14	O	-0.321082	-1.070168	-0.551852
O15	O	-0.240247	-1.318069	-0.712494
O16	O	-0.408769	-1.332652	-0.456203
O17	O	-0.417623	-1.215852	-0.560248
C18	C	-0.281315	-1.040751	-0.494760
C19	C	-0.285110	-0.940805	-0.488992
C20	C	-0.216712	-0.746440	-0.593371
C21	C	-0.220276	-0.652532	-0.587955
C22	C	-0.295795	-0.659081	-0.472738
C23	C	-0.292232	-0.752989	-0.478155
C24	C	-0.252690	-0.796665	-0.538474
C25	C	-0.249131	-0.890574	-0.543895
C26	C	-0.324647	-0.897121	-0.428675
C27	C	-0.328210	-0.803214	-0.423258
C28	C	-0.436037	-1.274256	-0.508236
C29	C	-0.506004	-1.274287	-0.508246
C30	C	-0.534241	-1.335153	-0.454132
C31	C	-0.599982	-1.335194	-0.454155
C32	C	-0.637485	-1.274354	-0.508281
C33	C	-0.609242	-1.213484	-0.562406
C34	C	-0.543501	-1.213451	-0.562389
N35	N	-0.744021	-1.195299	-0.510579
N36	N	-0.806471	-1.195333	-0.510591
C37	C	-0.835558	-1.274452	-0.508339
N38	N	-0.799835	-1.353537	-0.506057
N39	N	-0.737379	-1.353502	-0.506041
C40	C	-0.708771	-1.274384	-0.508307
C41	C	-0.935079	-1.335367	-0.454246
C42	C	-1.000822	-1.335409	-0.454275
C43	C	-1.010081	-1.213691	-0.562522
C44	C	-0.944339	-1.213657	-0.562498
C45	C	-0.906842	-1.274493	-0.508355
C46	C	-0.108290	-1.274510	-0.508370
C47	C	-0.038321	-1.274569	-0.508404
C48	C	-0.282417	-1.260883	-0.742813
C49	C	-0.286650	-1.255136	-0.842752
C50	C	-0.263611	-0.508904	-0.521872
C51	C	-0.259816	-0.608849	-0.527641
C52	C	-0.209726	-1.359410	-1.037250
C53	C	-0.213701	-1.354013	-1.131151
C54	C	-0.298572	-1.238939	-1.124458
C55	C	-0.294597	-1.244337	-1.030557
C56	C	-0.250173	-1.304575	-0.986956
C57	C	-0.246201	-1.309977	-0.893053
C58	C	-0.331069	-1.194899	-0.886361
C59	C	-0.335044	-1.189502	-0.980263
C60	C	-0.262540	-1.287858	-0.274687
C61	C	-0.258123	-1.293780	-0.174759
H62	H	-0.503712	-1.384692	-0.410049
Cl63	Cl	-0.369883	-0.960266	-0.359664
H64	H	-0.216934	-0.926133	-0.593011
H65	H	-0.622977	-1.384761	-0.410089
H66	H	-0.639781	-1.163949	-0.606478
Cl67	Cl	-0.175043	-0.589395	-0.656969
H68	H	-0.921347	-1.164091	-0.606559
Cl69	Cl	-1.057221	-1.137211	-0.630574
Cl70	Cl	-0.190356	-1.385706	-0.838241
Cl71	Cl	-0.153887	-1.435146	-0.982434
Cl72	Cl	-0.167010	-0.801349	-0.669207
Cl73	Cl	-0.508002	-1.136927	-0.630423
H74	H	-0.327981	-0.623505	-0.423620
Cl75	Cl	-0.887937	-1.411845	-0.386183
Cl76	Cl	-0.162850	-1.422950	-1.194375
Cl77	Cl	-0.354410	-1.163211	-1.179286
Cl78	Cl	-1.036320	-1.411939	-0.386247
Cl79	Cl	-0.390887	-1.113777	-1.035084
H80	H	-0.364005	-1.150251	-0.845402
H81	H	-0.360402	-0.767640	-0.374145
