data_functionalizedCrystal
_audit_creation_method	'MofGen! by Chris Wilmer'
_symmetry_space_group_name_H-M	'P1'
_symmetry_Int_Tables_number	1
_symmetry_cell_setting	triclinic
loop_
_symmetry_equiv_pos_as_xyz
  x,y,z
_cell_length_a	16.120530
_cell_length_b	16.120444
_cell_length_c	11.169409
_cell_angle_alpha	92.861568
_cell_angle_beta	87.078668
_cell_angle_gamma	90.168401
loop_
_atom_site_label
_atom_site_type_symbol
_atom_site_fract_x
_atom_site_fract_y
_atom_site_fract_z
Zn1	Zn	1.254510	-0.395528	-0.798929
Zn2	Zn	1.754510	0.104472	-0.298929
Zn3	Zn	1.247340	-0.534608	-0.607853
Zn4	Zn	1.747340	-0.034608	-0.107853
Zn5	Zn	1.115438	-0.388516	-0.587601
Zn6	Zn	1.615438	0.111484	-0.087601
Zn7	Zn	1.108360	-0.527482	-0.797833
Zn8	Zn	1.608360	-0.027482	-0.297833
O9	O	1.181412	-0.461534	-0.698054
O10	O	1.681412	0.038466	-0.198054
O11	O	1.369925	-0.419894	-0.782516
O12	O	1.869925	0.080106	-0.282516
O13	O	1.229805	-0.515276	-0.437217
O14	O	1.729805	-0.015276	0.062783
O15	O	1.139849	-0.273084	-0.607617
O16	O	1.639849	0.226916	-0.107617
O17	O	1.364657	-0.522075	-0.642133
O18	O	1.864657	-0.022075	-0.142133
O19	O	1.242025	-0.278235	-0.762879
O20	O	1.742025	0.221765	-0.262879
O21	O	1.132897	-0.407943	-0.422338
O22	O	1.632897	0.092057	0.077662
O23	O	0.998134	-0.401034	-0.606554
O24	O	1.498134	0.098966	-0.106554
O25	O	1.127785	-0.509930	-0.965928
O26	O	1.627785	-0.009930	-0.465928
O27	O	0.992933	-0.503131	-0.761011
O28	O	1.492933	-0.003131	-0.261011
O29	O	1.235161	-0.412985	-0.966733
O30	O	1.735161	0.087015	-0.466733
O31	O	1.222942	-0.650025	-0.641071
O32	O	1.722942	-0.150025	-0.141071
O33	O	1.120833	-0.644790	-0.780649
O34	O	1.620833	-0.144790	-0.280649
C35	C	0.965361	-0.450549	-0.681467
C36	C	1.465361	0.049451	-0.181467
C37	C	0.872932	-0.445870	-0.674401
C38	C	1.372932	0.054130	-0.174401
C39	C	1.170364	-0.677580	-0.712966
C40	C	1.670364	-0.177580	-0.212966
C41	C	1.165713	-0.770010	-0.719392
C42	C	1.665713	-0.270010	-0.219392
C43	C	1.205741	-0.982989	-0.664994
C44	C	1.705741	-0.482989	-0.164994
C45	C	1.157238	-0.939235	-0.731137
C46	C	1.657238	-0.439235	-0.231137
C47	C	1.161955	-0.845069	-0.724600
C48	C	1.661955	-0.345069	-0.224600
C49	C	1.201025	-1.077163	-0.671530
C50	C	1.701025	-0.577163	-0.171530
C51	C	0.703704	-0.437308	-0.661509
C52	C	1.203704	0.062692	-0.161509
C53	C	0.659958	-0.485821	-0.734691
C54	C	1.159958	0.014179	-0.234691
C55	C	0.565793	-0.481057	-0.727517
C56	C	1.065793	0.018943	-0.227517
C57	C	0.797877	-0.442071	-0.668680
C58	C	1.297877	0.057929	-0.168680
C59	C	1.398307	-0.472562	-0.714706
C60	C	1.898307	0.027438	-0.214706
C61	C	1.490735	-0.477261	-0.721803
C62	C	1.990735	0.022739	-0.221803
C63	C	1.181484	-0.461445	-1.011095
C64	C	1.681484	0.038555	-0.511095
C65	C	1.181514	-0.461407	-1.144495
C66	C	1.681514	0.038593	-0.644495
C67	C	1.192527	-0.244645	-0.683111
C68	C	1.692527	0.255355	-0.183111
C69	C	1.197263	-0.152219	-0.676743
C70	C	1.697263	0.347781	-0.176743
C71	C	1.181392	-0.461564	-0.386230
C72	C	1.681392	0.038436	0.113770
C73	C	1.181535	-0.461376	-0.252827
C74	C	1.681535	0.038624	0.247173
H75	H	1.250804	-0.949730	-0.603461
H76	H	1.750804	-0.449730	-0.103461
C77	C	0.659302	-0.377300	-0.570641
C78	C	1.159302	0.122700	-0.070641
C79	C	0.607017	-0.421860	-0.493117
C80	C	1.107017	0.078140	0.006883
C81	C	0.566097	-0.366613	-0.409384
C82	C	1.066097	0.133387	0.090616
H83	H	0.627217	-0.339405	-0.611462
H84	H	1.127217	0.160595	-0.111462
H85	H	0.699103	-0.347499	-0.525590
H86	H	1.199103	0.152501	-0.025590
H87	H	0.567222	-0.451646	-0.538163
H88	H	1.067222	0.048354	-0.038163
H89	H	0.639082	-0.459751	-0.452268
H90	H	1.139082	0.040249	0.047732
H91	H	0.605898	-0.336812	-0.364333
H92	H	1.105898	0.163188	0.135667
H93	H	0.534017	-0.328721	-0.450216
H94	H	1.034017	0.171279	0.049784
H95	H	0.530623	-0.396839	-0.356768
H96	H	1.030623	0.103161	0.143232
C97	C	0.704156	-0.546005	-0.825530
C98	C	1.204156	-0.046005	-0.325530
C99	C	0.645286	-0.589817	-0.891655
C100	C	1.145286	-0.089817	-0.391655
C101	C	0.685974	-0.645257	-0.975349
C102	C	1.185974	-0.145257	-0.475349
H103	H	0.736170	-0.583950	-0.784691
H104	H	1.236170	-0.083950	-0.284691
H105	H	0.739669	-0.515941	-0.878307
H106	H	1.239669	-0.015941	-0.378307
H107	H	0.609787	-0.619879	-0.838885
H108	H	1.109787	-0.119879	-0.338885
H109	H	0.613270	-0.551893	-0.932519
H110	H	1.113270	-0.051893	-0.432519
H111	H	0.721488	-0.615194	-1.028126
H112	H	1.221488	-0.115194	-0.528126
H113	H	0.717987	-0.683197	-0.934500
H114	H	1.217987	-0.183197	-0.434500
H115	H	0.646038	-0.674985	-1.020232
H116	H	1.146038	-0.174985	-0.520232
H117	H	1.112171	-0.972498	-0.792674
H118	H	1.612171	-0.472498	-0.292674
