data_functionalizedCrystal
_audit_creation_method	'MofGen! by Chris Wilmer'
_symmetry_space_group_name_H-M	'P1'
_symmetry_Int_Tables_number	1
_symmetry_cell_setting	triclinic
loop_
_symmetry_equiv_pos_as_xyz
  x,y,z
_cell_length_a	16.109301
_cell_length_b	17.038272
_cell_length_c	15.186229
_cell_angle_alpha	89.995962
_cell_angle_beta	89.999362
_cell_angle_gamma	87.286518
loop_
_atom_site_label
_atom_site_type_symbol
_atom_site_fract_x
_atom_site_fract_y
_atom_site_fract_z
O1	O	1.110268	0.100495	-0.073174
O2	O	1.610268	0.600495	0.426826
O3	O	0.869094	0.113001	-0.073188
O4	O	1.369094	0.613001	0.426812
O5	O	0.988247	-0.007067	-0.073174
O6	O	1.488247	0.492933	0.426826
O7	O	0.991114	0.220563	-0.073187
O8	O	1.491114	0.720563	0.426813
O9	O	0.988239	-0.007069	0.073284
O10	O	1.488239	0.492931	0.573284
O11	O	0.869085	0.113000	0.073270
O12	O	1.369085	0.613000	0.573270
O13	O	1.110259	0.100493	0.073284
O14	O	1.610259	0.600493	0.573284
Zn15	Zn	0.989671	0.106746	0.096530
Zn16	Zn	1.489671	0.606746	0.596530
Zn17	Zn	0.989682	0.106748	-0.096434
Zn18	Zn	1.489682	0.606748	0.403566
O19	O	0.991105	0.220562	0.073270
O20	O	1.491105	0.720562	0.573270
C21	C	0.838079	0.112494	0.000039
C22	C	1.338079	0.612494	0.500039
C23	C	0.745676	0.110975	0.000034
C24	C	1.245676	0.610975	0.500034
C25	C	0.528212	0.178690	0.000040
C26	C	1.028212	0.678690	0.500040
C27	C	0.441390	0.177257	0.000046
C28	C	0.941390	0.677257	0.500046
C29	C	0.451147	0.034799	0.000051
C30	C	0.951147	0.534799	0.500051
C31	C	0.537968	0.036233	0.000051
C32	C	1.037968	0.536233	0.500051
C33	C	0.576498	0.108181	0.000042
C34	C	1.076498	0.608181	0.500042
C35	C	0.402855	0.105314	0.000047
C36	C	0.902855	0.605314	0.500047
C37	C	0.308719	0.103759	0.000053
C38	C	0.808719	0.603759	0.500053
C39	C	0.670640	0.109736	0.000037
C40	C	1.170640	0.609736	0.500037
C41	C	0.985636	-0.036196	0.000055
C42	C	1.485636	0.463804	0.500055
C43	C	0.977857	-0.122989	0.000054
C44	C	1.477857	0.377011	0.500054
C45	C	1.049277	-0.173104	0.000059
C46	C	1.549277	0.326896	0.500059
C47	C	1.041963	-0.254654	0.000050
C48	C	1.541963	0.245346	0.500050
C49	C	0.963228	-0.286089	0.000043
C50	C	1.463228	0.213911	0.500043
C51	C	0.891802	-0.235967	0.000035
C52	C	1.391802	0.264033	0.500035
C53	C	0.899116	-0.154418	0.000038
C54	C	1.399116	0.345582	0.500038
C55	C	0.937385	-0.531846	0.000029
C56	C	1.437385	-0.031846	0.500029
C57	C	0.930076	-0.613402	0.000029
C58	C	1.430076	-0.113402	0.500029
C59	C	1.080238	-0.632083	0.000043
C60	C	1.580238	-0.132083	0.500043
C61	C	1.087546	-0.550532	0.000051
C62	C	1.587546	-0.050532	0.500051
C63	C	1.016120	-0.500418	0.000038
C64	C	1.516120	-0.000418	0.500038
C65	C	0.955749	-0.369446	0.000037
C66	C	1.455749	0.130554	0.500037
C67	C	1.023599	-0.417062	0.000038
C68	C	1.523599	0.082938	0.500038
C69	C	1.141274	0.101001	0.000055
C70	C	1.641274	0.601001	0.500055
C71	C	1.233677	0.102519	0.000054
C72	C	1.733677	0.602519	0.500054
C73	C	0.993717	0.249691	0.000039
C74	C	1.493717	0.749691	0.500039
C75	C	1.001496	0.336484	0.000034
C76	C	1.501496	0.836484	0.500034
N77	N	0.989669	0.106744	0.228223
N78	N	1.489669	0.606744	0.728223
N79	N	0.989690	0.106744	-0.228126
N80	N	1.489690	0.606744	0.271874
C81	C	1.042451	0.053596	0.453952
C82	C	1.542451	0.553596	0.953952
C83	C	1.042453	0.053594	0.546141
C84	C	1.542453	0.553594	1.046141
C85	C	0.936902	0.159895	0.546138
C86	C	1.436902	0.659895	1.046138
C87	C	0.936896	0.159893	0.453950
C88	C	1.436896	0.659893	0.953950
C89	C	0.989675	0.106744	0.407859
C90	C	1.489675	0.606744	0.907859
C91	C	0.989684	0.106745	0.592237
C92	C	1.489684	0.606745	1.092237
C93	C	0.989686	0.106743	0.692193
C94	C	1.489686	0.606743	1.192193
C95	C	0.989672	0.106744	0.307897
C96	C	1.489672	0.606744	0.807897
H97	H	0.402079	0.234672	0.000047
H98	H	0.902079	0.734672	0.500047
N99	N	0.587309	-0.035787	0.000043
N100	N	1.087309	0.464213	0.500043
N101	N	0.664825	-0.034493	0.000044
N102	N	1.164825	0.465507	0.500044
H103	H	0.699674	-0.085355	0.000041
H104	H	1.199674	0.414645	0.500041
N105	N	1.096344	-0.000708	0.593228
N106	N	1.596344	0.499292	1.093228
N107	N	1.066525	-0.049249	0.644664
N108	N	1.566525	0.450751	1.144664
H109	H	1.104583	-0.087609	0.677917
H110	H	1.604583	0.412391	1.177917
H111	H	0.827693	-0.261567	0.000023
H112	H	1.327693	0.238433	0.500023
H113	H	0.893932	0.203169	0.583674
H114	H	1.393932	0.703169	1.083674
N115	N	0.882973	0.214186	0.406875
N116	N	1.382973	0.714186	0.906875
N117	N	0.835857	0.261638	0.448036
N118	N	1.335857	0.761638	0.948036
H119	H	0.797772	0.299979	0.414790
H120	H	1.297772	0.799979	0.914790
N121	N	1.129712	-0.141012	0.000079
N122	N	1.629712	0.358988	0.500079
N123	N	1.193473	-0.185770	0.000084
N124	N	1.693473	0.314230	0.500084
H125	H	1.250283	-0.163108	0.000097
H126	H	1.750283	0.336892	0.500097
H127	H	0.559580	0.237274	0.000039
H128	H	1.059580	0.737274	0.500039
H129	H	1.100122	-0.295455	0.000056
H130	H	1.600122	0.204545	0.500056
H131	H	1.151661	-0.524945	0.000057
H132	H	1.651661	-0.024945	0.500057
N133	N	1.096317	-0.000709	0.406841
N134	N	1.596317	0.499291	0.906841
N135	N	1.066460	-0.049227	0.355411
N136	N	1.566460	0.450773	0.855411
H137	H	1.104493	-0.087584	0.322129
H138	H	1.604493	0.412416	0.822129
N139	N	1.153185	-0.683284	0.000057
N140	N	1.653185	-0.183284	0.500057
N141	N	1.146648	-0.756094	0.000057
N142	N	1.646648	-0.256094	0.500057
H143	H	1.198169	-0.792257	0.000065
H144	H	1.698169	-0.292257	0.500065
H145	H	0.419765	-0.023778	0.000064
H146	H	0.919765	0.476222	0.500064
N147	N	0.849638	-0.645499	0.000038
N148	N	1.349638	-0.145499	0.500038
N149	N	0.785872	-0.600747	0.000037
N150	N	1.285872	-0.100747	0.500037
H151	H	0.729065	-0.623415	0.000051
H152	H	1.229065	-0.123415	0.500051
H153	H	1.087705	-0.391465	0.000025
H154	H	1.587705	0.108535	0.500025
N155	N	0.864419	-0.480675	0.000023
N156	N	1.364419	0.019325	0.500023
N157	N	0.794127	-0.508754	0.000023
N158	N	1.294127	-0.008754	0.500023
H159	H	0.742590	-0.472611	0.000022
H160	H	1.242590	0.027389	0.500022
H161	H	0.840958	-0.113615	0.000033
H162	H	1.340958	0.386385	0.500033
N163	N	0.875333	-0.401574	0.000047
N164	N	1.375333	0.098426	0.500047
N165	N	0.854512	-0.445006	0.061782
N166	N	1.354512	0.054994	0.561782
H167	H	0.797718	-0.467702	0.061789
H168	H	1.297718	0.032298	0.561789
