data_functionalizedCrystal
_audit_creation_method	'MofGen! by Chris Wilmer'
_symmetry_space_group_name_H-M	'P1'
_symmetry_Int_Tables_number	1
_symmetry_cell_setting	triclinic
loop_
_symmetry_equiv_pos_as_xyz
  x,y,z
_cell_length_a	16.625547
_cell_length_b	18.101396
_cell_length_c	16.625539
_cell_angle_alpha	90.027016
_cell_angle_beta	89.975178
_cell_angle_gamma	89.963039
loop_
_atom_site_label
_atom_site_type_symbol
_atom_site_fract_x
_atom_site_fract_y
_atom_site_fract_z
Zn1	Zn	1.232599	0.294829	-0.456008
Zn2	Zn	1.565932	0.628163	-0.122675
Zn3	Zn	1.899266	0.961496	0.210659
Zn4	Zn	1.232468	0.418679	-0.321178
Zn5	Zn	1.565801	0.752012	0.012155
Zn6	Zn	1.899135	1.085345	0.345488
Zn7	Zn	1.097761	0.294855	-0.321179
Zn8	Zn	1.431094	0.628189	0.012155
Zn9	Zn	1.764427	0.961522	0.345488
Zn10	Zn	1.097697	0.418634	-0.455958
Zn11	Zn	1.431030	0.751967	-0.122625
Zn12	Zn	1.764364	1.085300	0.210709
O13	O	1.165131	0.356749	-0.388581
O14	O	1.498464	0.690083	-0.055247
O15	O	1.831798	1.023416	0.278086
O16	O	1.345414	0.311266	-0.438143
O17	O	1.678747	0.644600	-0.104810
O18	O	2.012081	0.977933	0.228523
O19	O	1.214571	0.402283	-0.208346
O20	O	1.547904	0.735616	0.124987
O21	O	1.881237	1.068949	0.458321
O22	O	1.115729	0.191219	-0.339085
O23	O	1.449062	0.524552	-0.005752
O24	O	1.782396	0.857886	0.327582
O25	O	1.345318	0.402258	-0.339085
O26	O	1.678651	0.735591	-0.005751
O27	O	2.011984	1.068924	0.327582
O28	O	1.214794	0.191200	-0.438144
O29	O	1.548127	0.524533	-0.104810
O30	O	1.881461	0.857867	0.228523
O31	O	1.115602	0.311310	-0.208346
O32	O	1.448935	0.644644	0.124987
O33	O	1.782268	0.977977	0.458321
O34	O	0.984920	0.311267	-0.339037
O35	O	1.318253	0.644600	-0.005703
O36	O	1.651587	0.977933	0.327630
O37	O	1.115620	0.402181	-0.568797
O38	O	1.448953	0.735514	-0.235464
O39	O	1.782287	1.068848	0.097869
O40	O	0.984873	0.402206	-0.438059
O41	O	1.318206	0.735539	-0.104725
O42	O	1.651540	1.068873	0.228608
O43	O	1.214732	0.311223	-0.568834
O44	O	1.548065	0.644556	-0.235501
O45	O	1.881399	0.977889	0.097833
O46	O	1.214509	0.522306	-0.339036
O47	O	1.547842	0.855639	-0.005703
O48	O	1.881175	1.188972	0.327631
O49	O	1.115493	0.522272	-0.438058
O50	O	1.448826	0.855606	-0.104725
O51	O	1.782160	1.188939	0.228608
C52	C	0.955640	0.356735	-0.388543
C53	C	1.288974	0.690068	-0.055209
C54	C	1.622307	1.023402	0.278124
C55	C	0.866019	0.356747	-0.388545
C56	C	1.199353	0.690080	-0.055212
C57	C	1.532686	1.023413	0.278121
C58	C	1.165002	0.549160	-0.388559
C59	C	1.498335	0.882493	-0.055226
C60	C	1.831668	1.215827	0.278107
C61	C	1.165020	0.631474	-0.388577
C62	C	1.498353	0.964807	-0.055244
C63	C	1.831687	1.298141	0.278090
C64	C	0.793237	0.356748	-0.388555
C65	C	1.126570	0.690081	-0.055222
C66	C	1.459903	1.023415	0.278111
C67	C	0.701928	0.356752	-0.388576
C68	C	1.035262	0.690085	-0.055242
C69	C	1.368595	1.023419	0.278091
C70	C	0.629152	0.356759	-0.388596
C71	C	0.962485	0.690092	-0.055263
C72	C	1.295819	1.023425	0.278071
C73	C	0.537838	0.356764	-0.388615
C74	C	0.871171	0.690097	-0.055282
C75	C	1.204504	1.023430	0.278051
C76	C	1.165163	0.930565	-0.388624
C77	C	1.498497	1.263898	-0.055291
C78	C	1.831830	1.597231	0.278043
C79	C	1.103013	0.899250	-0.451081
C80	C	1.436347	1.232583	-0.117747
C81	C	1.769680	1.565916	0.215586
C82	C	1.102728	0.813632	-0.450884
C83	C	1.436061	1.146965	-0.117551
C84	C	1.769394	1.480298	0.215783
C85	C	1.165092	0.782182	-0.388602
C86	C	1.498425	1.115516	-0.055268
C87	C	1.831759	1.448849	0.278065
C88	C	1.142081	0.813334	-0.303622
C89	C	1.475415	1.146667	0.029711
C90	C	1.808748	1.480001	0.363044
C91	C	1.141671	0.898979	-0.303997
C92	C	1.475005	1.232313	0.029336
C93	C	1.808338	1.565646	0.362670
C94	C	1.250464	0.898908	-0.410399
C95	C	1.583797	1.232242	-0.077065
C96	C	1.917130	1.565575	0.256268
C97	C	1.249972	0.813257	-0.412261
C98	C	1.583305	1.146591	-0.078928
C99	C	1.916638	1.479924	0.254405
C100	C	1.165053	0.698323	-0.388584
C101	C	1.498387	1.031656	-0.055250
C102	C	1.831720	1.364990	0.278083
C103	C	1.165200	1.014424	-0.388636
C104	C	1.498533	1.347758	-0.055303
C105	C	1.831867	1.681091	0.278030
C106	C	1.375440	0.356764	-0.388619
C107	C	1.708773	0.690098	-0.055286
C108	C	2.042107	1.023431	0.278047
C109	C	1.465061	0.356771	-0.388636
C110	C	1.798394	0.690104	-0.055303
C111	C	2.131728	1.023437	0.278031
C112	C	1.165184	0.356694	-0.598890
C113	C	1.498517	0.690027	-0.265556
C114	C	1.831850	1.023361	0.067777
C115	C	1.165206	0.356671	-0.688511
C116	C	1.498539	0.690004	-0.355178
C117	C	1.831873	1.023337	-0.021844
C118	C	1.165255	1.163587	-0.388623
C119	C	1.498588	1.496921	-0.055290
C120	C	1.831922	1.830254	0.278044
C121	C	1.165235	1.081273	-0.388649
C122	C	1.498569	1.414607	-0.055315
C123	C	1.831902	1.747940	0.278018
C124	C	1.165243	0.356588	-1.016687
C125	C	1.498576	0.689921	-0.683353
C126	C	1.831910	1.023254	-0.350020
C127	C	1.165231	0.356613	-0.925378
C128	C	1.498564	0.689946	-0.592045
C129	C	1.831897	1.023280	-0.258712
C130	C	1.165225	0.356630	-0.852602
C131	C	1.498558	0.689963	-0.519268
C132	C	1.831892	1.023296	-0.185935
C133	C	1.165212	0.356654	-0.761287
C134	C	1.498545	0.689987	-0.427954
C135	C	1.831878	1.023321	-0.094621
C136	C	1.165125	0.356751	-0.179090
C137	C	1.498459	0.690084	0.154243
C138	C	1.831792	1.023417	0.487577
C139	C	1.165259	0.356566	-0.089469
C140	C	1.498593	0.689899	0.243864
C141	C	1.831926	1.023232	0.577197
H142	H	1.117125	0.792567	-0.513895
H143	H	1.450458	1.125901	-0.180562
H144	H	1.783791	1.459234	0.152771
C145	C	1.058738	0.784453	-0.278259
C146	C	1.392072	1.117786	0.055074
C147	C	1.725405	1.451119	0.388407
N148	N	0.995962	0.762701	-0.259161
N149	N	1.329295	1.096034	0.074172
N150	N	1.662628	1.429368	0.407506
C151	C	1.315846	0.784334	-0.355284
C152	C	1.649179	1.117667	-0.021950
C153	C	1.982513	1.451000	0.311383
N154	N	1.365460	0.762550	-0.312360
N155	N	1.698794	1.095883	0.020973
N156	N	2.032127	1.429216	0.354306
C157	C	1.057432	0.926058	-0.279085
C158	C	1.390766	1.259392	0.054249
C159	C	1.724099	1.592725	0.387582
N160	N	0.993981	0.946451	-0.260323
N161	N	1.327314	1.279784	0.073010
N162	N	1.660647	1.613117	0.406344
C163	C	1.278795	0.928013	-0.492691
C164	C	1.612128	1.261347	-0.159358
C165	C	1.945461	1.594680	0.173976
N166	N	1.300124	0.949935	-0.554677
N167	N	1.633458	1.283268	-0.221344
N168	N	1.966791	1.616602	0.111989
H169	H	1.296768	0.919159	-0.364909
H170	H	1.630101	1.252492	-0.031576
H171	H	1.963435	1.585825	0.301757
C172	C	1.122257	0.927014	-0.536484
C173	C	1.455590	1.260347	-0.203150
C174	C	1.788924	1.593681	0.130183
N175	N	1.136751	0.947933	-0.600811
N176	N	1.470085	1.281266	-0.267478
N177	N	1.803418	1.614600	0.065856
C178	C	1.017304	0.786038	-0.431456
C179	C	1.350637	1.119371	-0.098123
C180	C	1.683971	1.452704	0.235210
N181	N	0.952954	0.765254	-0.416843
N182	N	1.286288	1.098588	-0.083510
N183	N	1.619621	1.431921	0.249824
C184	C	1.018113	0.928402	-0.431834
C185	C	1.351446	1.261735	-0.098501
C186	C	1.684780	1.595068	0.234832
N187	N	0.954166	0.950357	-0.417333
N188	N	1.287500	1.283691	-0.084000
N189	N	1.620833	1.617024	0.249334
H190	H	1.184975	0.919697	-0.255875
H191	H	1.518308	1.253030	0.077458
H192	H	1.851642	1.586364	0.410792
H193	H	1.267324	0.792894	-0.474801
H194	H	1.600657	1.126227	-0.141468
H195	H	1.933990	1.459561	0.191865
C196	C	1.201312	0.785811	-0.239037
C197	C	1.534645	1.119144	0.094297
C198	C	1.867979	1.452477	0.427630
N199	N	1.245924	0.765077	-0.190392
N200	N	1.579258	1.098410	0.142942
N201	N	1.912591	1.431743	0.476275
