data_functionalizedCrystal
_audit_creation_method	'MofGen! by Chris Wilmer'
_symmetry_space_group_name_H-M	'P1'
_symmetry_Int_Tables_number	1
_symmetry_cell_setting	triclinic
loop_
_symmetry_equiv_pos_as_xyz
  x,y,z
_cell_length_a	17.019311
_cell_length_b	15.500227
_cell_length_c	11.026607
_cell_angle_alpha	86.545431
_cell_angle_beta	95.962670
_cell_angle_gamma	96.714751
loop_
_atom_site_label
_atom_site_type_symbol
_atom_site_fract_x
_atom_site_fract_y
_atom_site_fract_z
O1	O	1.074695	0.152006	0.142699
O2	O	1.574695	0.652006	0.642699
O3	O	0.847151	0.135055	0.163727
O4	O	1.347151	0.635055	0.663727
O5	O	0.942064	0.142123	-0.023298
O6	O	1.442064	0.642123	0.476702
O7	O	0.979782	0.144939	0.329724
O8	O	1.479782	0.644939	0.829724
O9	O	0.936299	-0.002195	-0.011993
O10	O	1.436299	0.497805	0.488007
O11	O	0.841386	-0.009263	0.175031
O12	O	1.341386	0.490737	0.675031
O13	O	1.068929	0.007688	0.154004
O14	O	1.568929	0.507688	0.654004
Cu15	Cu	0.954631	-0.013965	0.165550
Cu16	Cu	1.454631	0.486035	0.665550
Cu17	Cu	0.961450	0.156708	0.152181
Cu18	Cu	1.461450	0.656708	0.652181
O19	O	0.974016	0.000621	0.341029
O20	O	1.474016	0.500621	0.841029
C21	C	0.814685	0.060693	0.168803
C22	C	1.314685	0.560693	0.668803
C23	C	0.726534	0.054126	0.167072
C24	C	1.226534	0.554126	0.667072
N25	N	0.949840	-0.134006	0.174952
N26	N	1.449840	0.365994	0.674952
C27	C	0.227815	0.013042	0.157633
C28	C	0.727815	0.513042	0.657633
C29	C	0.310642	0.019214	0.159259
C30	C	0.810642	0.519214	0.659259
C31	C	0.355199	0.100969	0.153900
C32	C	0.855199	0.600969	0.653900
C33	C	0.316924	0.176557	0.146928
C34	C	0.816924	0.676557	0.646928
C35	C	0.234099	0.170385	0.145311
C36	C	0.734099	0.670385	0.645311
C37	C	0.605435	0.123542	0.158483
C38	C	1.105435	0.623542	0.658483
C39	C	0.688265	0.129709	0.160097
C40	C	1.188265	0.629709	0.660097
C41	C	0.681978	-0.027635	0.172430
C42	C	1.181978	0.472365	0.672430
C43	C	0.599151	-0.033801	0.170805
C44	C	1.099151	0.466199	0.670805
C45	C	0.560884	0.041787	0.163839
C46	C	1.060884	0.541787	0.663839
C47	C	0.439861	0.107279	0.155558
C48	C	0.939861	0.607279	0.655558
C49	C	0.476224	0.035476	0.162190
C50	C	0.976224	0.535476	0.662190
C51	C	0.990080	-0.176287	0.095732
C52	C	1.490080	0.323713	0.595732
C53	C	0.986466	-0.267129	0.102854
C54	C	1.486466	0.232871	0.602854
C55	C	0.942617	-0.315688	0.189203
C56	C	1.442617	0.184312	0.689203
C57	C	0.902372	-0.273402	0.268427
C58	C	1.402372	0.226598	0.768427
C59	C	0.905982	-0.182562	0.261298
C60	C	1.405982	0.317438	0.761298
C61	C	0.929610	-0.590124	0.214863
C62	C	1.429610	-0.090124	0.714863
C63	C	0.926005	-0.680970	0.221989
C64	C	1.426005	-0.180970	0.721989
C65	C	1.010099	-0.674690	0.056414
C66	C	1.510099	-0.174690	0.556414
C67	C	1.013709	-0.583849	0.049298
C68	C	1.513709	-0.083849	0.549298
C69	C	0.973460	-0.541570	0.128517
C70	C	1.473460	-0.041570	0.628517
C71	C	0.938924	-0.408543	0.196487
C72	C	1.438924	0.091457	0.696487
C73	C	0.977149	-0.448717	0.121226
C74	C	1.477149	0.051283	0.621226
C75	C	1.101395	0.082052	0.148927
C76	C	1.601395	0.582052	0.648927
C77	C	1.189546	0.088625	0.150657
C78	C	1.689546	0.588625	0.650657
C79	C	0.932223	0.069446	-0.062804
C80	C	1.432223	0.569446	0.437196
C81	C	0.911481	0.067904	-0.197363
C82	C	1.411481	0.567904	0.302637
N83	N	0.966245	0.276750	0.142768
N84	N	1.466245	0.776750	0.642768
C85	C	0.968755	0.072172	-0.271599
C86	C	1.468755	0.572172	0.228401
C87	C	0.947318	0.070578	-0.410672
C88	C	1.447318	0.570578	0.089328
C89	C	0.983857	0.073299	0.380535
C90	C	1.483857	0.573299	0.880535
C91	C	1.004600	0.074847	0.515092
C92	C	1.504600	0.574847	1.015092
H93	H	0.191543	-0.053532	0.162002
H94	H	0.691543	0.446468	0.662002
C95	C	0.724074	-0.110774	0.180108
C96	C	1.224074	0.389226	0.680108
H97	H	0.779783	-0.095393	0.180315
H98	H	1.279783	0.404607	0.680315
H99	H	0.705168	-0.144419	0.111692
H100	H	1.205168	0.355581	0.611692
H101	H	0.713250	-0.143799	0.253080
H102	H	1.213250	0.356201	0.753080
H103	H	1.042866	-0.709122	-0.008084
H104	H	1.542866	-0.209122	0.491916
H105	H	0.890296	-0.720503	0.292309
H106	H	1.390296	-0.220503	0.792309
H107	H	0.873213	-0.148139	0.325806
H108	H	1.373213	0.351861	0.825806
C109	C	1.056436	0.078700	-0.218381
C110	C	1.556436	0.578700	0.281619
H111	H	1.059341	0.078909	-0.131889
H112	H	1.559341	0.578909	0.368111
H113	H	1.084043	0.130933	-0.249145
H114	H	1.584043	0.630933	0.250855
H115	H	1.080015	0.030272	-0.241266
H116	H	1.580015	0.530272	0.258734
C117	C	0.890659	-0.461960	0.291429
C118	C	1.390659	0.038040	0.791429
H119	H	0.867195	-0.423774	0.337578
H120	H	1.367195	0.076226	0.837578
H121	H	0.924871	-0.494753	0.344495
H122	H	1.424871	0.005247	0.844495
H123	H	0.850109	-0.500304	0.250761
H124	H	1.350109	-0.000304	0.750761
C125	C	0.859631	0.064052	-0.463879
C126	C	1.359631	0.564052	0.036121
H127	H	0.826478	0.061588	-0.399270
H128	H	1.326478	0.561588	0.100730
H129	H	0.847144	0.012949	-0.508657
H130	H	1.347144	0.512949	-0.008657
H131	H	0.851174	0.113609	-0.516524
H132	H	1.351174	0.613609	-0.016524
C133	C	1.092287	0.081379	-0.431705
C134	C	1.592287	0.581379	0.068295
H135	H	1.125439	0.083856	-0.496317
H136	H	1.625439	0.583856	0.003683
H137	H	1.100752	0.031834	-0.379052
H138	H	1.600752	0.531834	0.120948
H139	H	1.104770	0.132494	-0.386937
H140	H	1.604770	0.632494	0.113063
C141	C	0.352736	-0.063927	0.166951
C142	C	0.852736	0.436073	0.666951
H143	H	0.314337	-0.113501	0.169902
H144	H	0.814337	0.386499	0.669902
H145	H	0.388951	-0.064479	0.238536
H146	H	0.888951	0.435521	0.738536
H147	H	0.380879	-0.065102	0.097148
H148	H	0.880879	0.434898	0.597148
C149	C	0.550145	-0.123731	0.176709
C150	C	1.050145	0.376269	0.676709
H151	H	0.584801	-0.167863	0.181108
H152	H	1.084801	0.332137	0.681108
H153	H	0.513661	-0.129716	0.105646
H154	H	1.013661	0.370284	0.605646
H155	H	0.521749	-0.129100	0.247036
H156	H	1.021749	0.370900	0.747036
C157	C	1.030740	-0.313633	0.015723
C158	C	1.530740	0.186367	0.515723
H159	H	1.057382	-0.271702	-0.036711
H160	H	1.557382	0.228298	0.463289
H161	H	0.993691	-0.351739	-0.031777
H162	H	1.493691	0.148261	0.468223
H163	H	1.068477	-0.346138	0.061910
H164	H	1.568477	0.153862	0.561910
H165	H	0.846577	0.063075	-0.236766
H166	H	1.346577	0.563075	0.263234
C167	C	0.365931	0.266488	0.141039
C168	C	0.865931	0.766488	0.641039
H169	H	0.331275	0.310618	0.136665
H170	H	0.831275	0.810618	0.636665
H171	H	0.394330	0.271864	0.070723
H172	H	0.894330	0.771864	0.570723
H173	H	0.402412	0.272468	0.212113
H174	H	0.902412	0.772468	0.712113
H175	H	0.896840	-0.555708	0.279369
H176	H	1.396840	-0.055708	0.779369
C177	C	0.737277	0.219643	0.154216
C178	C	1.237277	0.719643	0.654216
H179	H	0.702626	0.263777	0.149848
H180	H	1.202626	0.763777	0.649848
H181	H	0.765677	0.225021	0.083900
H182	H	1.265677	0.725021	0.583900
H183	H	0.773759	0.225615	0.225291
H184	H	1.273759	0.725615	0.725291
C185	C	0.563349	0.206685	0.150781
C186	C	1.063349	0.706685	0.650781
H187	H	0.601749	0.256257	0.147800
H188	H	1.101749	0.756257	0.647800
H189	H	0.535206	0.207870	0.220575
H190	H	1.035206	0.707870	0.720575
H191	H	0.527134	0.207231	0.079188
H192	H	1.027134	0.707231	0.579188
C193	C	0.192004	0.253525	0.137647
C194	C	0.692004	0.753525	0.637647
H195	H	0.230401	0.303100	0.134680
H196	H	0.730401	0.803100	0.634680
H197	H	0.163869	0.254687	0.207454
H198	H	0.663869	0.754687	0.707454
H199	H	0.155780	0.254088	0.066064
H200	H	0.655780	0.754088	0.566064
H201	H	0.439943	-0.031088	0.166559
H202	H	0.939943	0.468912	0.666559
H203	H	0.476148	0.173845	0.151192
H204	H	0.976148	0.673845	0.651192
C205	C	1.038314	-0.122879	0.000746
C206	C	1.538314	0.377121	0.500746
H207	H	1.061755	-0.161074	-0.045422
H208	H	1.561755	0.338926	0.454578
H209	H	1.078867	-0.084512	0.041348
H210	H	1.578867	0.415488	0.541348
H211	H	1.004067	-0.090113	-0.052311
H212	H	1.504067	0.409887	0.447689
H213	H	1.049415	-0.544313	-0.021014
H214	H	1.549415	-0.044313	0.478986
H215	H	0.866664	-0.312945	0.338730
H216	H	1.366664	0.187055	0.838730
H217	H	1.012848	-0.409178	0.050916
H218	H	1.512848	0.090822	0.550916
