data_functionalizedCrystal
_audit_creation_method	'MofGen! by Chris Wilmer'
_symmetry_space_group_name_H-M	'P1'
_symmetry_Int_Tables_number	1
_symmetry_cell_setting	triclinic
loop_
_symmetry_equiv_pos_as_xyz
  x,y,z
_cell_length_a	29.839131
_cell_length_b	25.639242
_cell_length_c	25.639233
_cell_angle_alpha	90.023283
_cell_angle_beta	89.980415
_cell_angle_gamma	89.963922
loop_
_atom_site_label
_atom_site_type_symbol
_atom_site_fract_x
_atom_site_fract_y
_atom_site_fract_z
Zn1	Zn	-0.178972	-0.799215	-0.295755
Zn2	Zn	0.154361	-0.465882	0.037579
Zn3	Zn	0.487695	-0.132548	0.370912
Zn4	Zn	-0.254086	-0.799134	-0.208318
Zn5	Zn	0.079247	-0.465801	0.125016
Zn6	Zn	0.412580	-0.132468	0.458349
Zn7	Zn	-0.178964	-0.711791	-0.208317
Zn8	Zn	0.154369	-0.378458	0.125016
Zn9	Zn	0.487702	-0.045125	0.458350
Zn10	Zn	-0.254069	-0.711732	-0.295706
Zn11	Zn	0.079265	-0.378399	0.037627
Zn12	Zn	0.412598	-0.045066	0.370961
O13	O	-0.216523	-0.755468	-0.252024
O14	O	0.116810	-0.422135	0.081309
O15	O	0.450144	-0.088802	0.414643
O16	O	-0.188947	-0.872370	-0.284177
O17	O	0.144387	-0.539036	0.049157
O18	O	0.477720	-0.205703	0.382490
O19	O	-0.244126	-0.787539	-0.135153
O20	O	0.089208	-0.454206	0.198181
O21	O	0.422541	-0.120872	0.531514
O22	O	-0.116098	-0.723447	-0.219936
O23	O	0.217235	-0.390114	0.113397
O24	O	0.550568	-0.056780	0.446731
O25	O	-0.244133	-0.872310	-0.219937
O26	O	0.089200	-0.538977	0.113396
O27	O	0.422534	-0.205644	0.446729
O28	O	-0.116104	-0.787677	-0.284176
O29	O	0.217229	-0.454343	0.049157
O30	O	0.550563	-0.121010	0.382491
O31	O	-0.188934	-0.723369	-0.135152
O32	O	0.144400	-0.390035	0.198181
O33	O	0.477733	-0.056702	0.531515
O34	O	-0.188916	-0.638618	-0.219889
O35	O	0.144417	-0.305285	0.113445
O36	O	0.477750	0.028048	0.446778
O37	O	-0.244103	-0.723346	-0.368878
O38	O	0.089231	-0.390013	-0.035544
O39	O	0.422564	-0.056680	0.297789
O40	O	-0.244095	-0.638575	-0.284093
O41	O	0.089238	-0.305242	0.049240
O42	O	0.422571	0.028092	0.382574
O43	O	-0.188930	-0.787619	-0.368914
O44	O	0.144404	-0.454286	-0.035580
O45	O	0.477737	-0.120953	0.297753
O46	O	-0.316951	-0.787482	-0.219890
O47	O	0.016382	-0.454149	0.113443
O48	O	0.349715	-0.120815	0.446777
O49	O	-0.316938	-0.723268	-0.284094
O50	O	0.016395	-0.389935	0.049240
O51	O	0.349728	-0.056601	0.382573
C52	C	-0.216503	-0.619626	-0.251986
C53	C	0.116830	-0.286292	0.081347
C54	C	0.450163	0.047041	0.414681
C55	C	-0.216506	-0.561512	-0.251982
C56	C	0.116827	-0.228178	0.081351
C57	C	0.450161	0.105155	0.414685
C58	C	-0.187742	-0.310332	-0.218637
C59	C	0.145592	0.023001	0.114696
C60	C	0.478925	0.356335	0.448029
C61	C	-0.187738	-0.364936	-0.218632
C62	C	0.145596	-0.031603	0.114701
C63	C	0.478929	0.301730	0.448034
O64	O	-0.163256	-0.393185	-0.190259
O65	O	0.170078	-0.059851	0.143074
O66	O	0.503411	0.273482	0.476407
N67	N	-0.216511	-0.392238	-0.252003
N68	N	0.116822	-0.058905	0.081330
N69	N	0.450156	0.274429	0.414663
C70	C	-0.245287	-0.364932	-0.285385
C71	C	0.088047	-0.031599	0.047948
C72	C	0.421380	0.301735	0.381282
O73	O	-0.269760	-0.393168	-0.313770
O74	O	0.063574	-0.059835	0.019564
O75	O	0.396907	0.273499	0.352897
C76	C	-0.245288	-0.310329	-0.285392
C77	C	0.088045	0.023005	0.047941
C78	C	0.421379	0.356338	0.381274
C79	C	-0.216516	-0.283030	-0.252016
C80	C	0.116817	0.050303	0.081318
C81	C	0.450151	0.383636	0.414651
C82	C	-0.158972	-0.283033	-0.185264
C83	C	0.174361	0.050300	0.148070
C84	C	0.507695	0.383633	0.481403
C85	C	-0.158977	-0.228433	-0.185268
C86	C	0.174357	0.104900	0.148065
C87	C	0.507690	0.438234	0.481399
C88	C	-0.187751	-0.201131	-0.218646
C89	C	0.145582	0.132202	0.114687
C90	C	0.478916	0.465536	0.448020
C91	C	-0.216521	-0.228430	-0.252020
C92	C	0.116813	0.104904	0.081313
C93	C	0.450146	0.438237	0.414647
C94	C	-0.274061	-0.283024	-0.318776
C95	C	0.059272	0.050309	0.014557
C96	C	0.392606	0.383643	0.347890
C97	C	-0.274060	-0.228417	-0.318781
C98	C	0.059274	0.104916	0.014552
C99	C	0.392607	0.438250	0.347886
C100	C	-0.245288	-0.201118	-0.285404
C101	C	0.088045	0.132215	0.047929
C102	C	0.421379	0.465548	0.381262
C103	C	-0.245300	-0.146527	-0.285403
C104	C	0.088033	0.186806	0.047931
C105	C	0.421367	0.520139	0.381264
N106	N	-0.216527	-0.119226	-0.252032
N107	N	0.116807	0.214108	0.081302
N108	N	0.450140	0.547441	0.414635
C109	C	-0.187752	-0.146528	-0.218654
C110	C	0.145581	0.186806	0.114680
C111	C	0.478914	0.520139	0.448013
C112	C	-0.245281	-0.479603	-0.285368
C113	C	0.088052	-0.146269	0.047965
C114	C	0.421386	0.187064	0.381299
C115	C	-0.245282	-0.534205	-0.285358
C116	C	0.088051	-0.200872	0.047975
C117	C	0.421384	0.132462	0.381308
C118	C	-0.187733	-0.534206	-0.218606
C119	C	0.145601	-0.200872	0.114727
C120	C	0.478934	0.132461	0.448060
C121	C	-0.187734	-0.479602	-0.218613
C122	C	0.145599	-0.146269	0.114720
C123	C	0.478933	0.187064	0.448053
C124	C	-0.216508	-0.452301	-0.251997
C125	C	0.116825	-0.118968	0.081336
C126	C	0.450159	0.214365	0.414670
C127	C	-0.187765	-0.031863	-0.218665
C128	C	0.145569	0.301471	0.114668
C129	C	0.478902	0.634804	0.448002
C130	C	-0.187773	0.022743	-0.218671
C131	C	0.145560	0.356076	0.114662
C132	C	0.478894	0.689409	0.447996
C133	C	-0.245321	0.022739	-0.285425
C134	C	0.088013	0.356072	0.047908
C135	C	0.421346	0.689405	0.381242
C136	C	-0.245314	-0.031862	-0.285417
C137	C	0.088019	0.301471	0.047916
C138	C	0.421352	0.634805	0.381249
C139	C	-0.216532	-0.059161	-0.252036
C140	C	0.116801	0.274172	0.081298
C141	C	0.450134	0.607505	0.414631
O142	O	-0.269768	-0.118244	-0.313763
O143	O	0.063565	0.215089	0.019571
O144	O	0.396899	0.548423	0.352904
O145	O	-0.163279	-0.118285	-0.190279
O146	O	0.170054	0.215048	0.143055
O147	O	0.503388	0.548382	0.476388
C148	C	-0.333245	-0.755374	-0.251998
C149	C	0.000088	-0.422041	0.081335
C150	C	0.333421	-0.088707	0.414669
C151	C	-0.383180	-0.755381	-0.252004
C152	C	-0.049847	-0.422048	0.081329
C153	C	0.283487	-0.088715	0.414662
C154	C	-0.692817	-0.788965	-0.218642
C155	C	-0.359484	-0.455632	0.114691
C156	C	-0.026151	-0.122299	0.448025
C157	C	-0.880490	-0.789030	-0.218662
C158	C	-0.547157	-0.455696	0.114671
C159	C	-0.213824	-0.122363	0.448004
O160	O	-0.904750	-0.817509	-0.190276
O161	O	-0.571417	-0.484176	0.143057
O162	O	-0.238084	-0.150843	0.476390
N163	N	-0.903965	-0.755577	-0.252063
N164	N	-0.570632	-0.422243	0.081270
N165	N	-0.237298	-0.088910	0.414603
C166	C	-0.880518	-0.722108	-0.285464
C167	C	-0.547185	-0.388774	0.047869
C168	C	-0.213852	-0.055441	0.381202
O169	O	-0.904791	-0.693659	-0.313878
O170	O	-0.571458	-0.360326	0.019455
O171	O	-0.238124	-0.026992	0.352788
C172	C	-0.692846	-0.722046	-0.285446
C173	C	-0.359513	-0.388713	0.047887
C174	C	-0.026179	-0.055379	0.381220
C175	C	-0.669374	-0.755498	-0.252039
C176	C	-0.336041	-0.422164	0.081294
C177	C	-0.002707	-0.088831	0.414628
C178	C	-0.669345	-0.822415	-0.185238
C179	C	-0.336012	-0.489081	0.148095
C180	C	-0.002679	-0.155748	0.481429
C181	C	-0.622430	-0.822396	-0.185231
C182	C	-0.289097	-0.489063	0.148102
C183	C	0.044237	-0.155729	0.481435
C184	C	-0.598987	-0.788928	-0.218628
C185	C	-0.265653	-0.455595	0.114705
C186	C	0.067680	-0.122262	0.448038
C187	C	-0.622459	-0.755479	-0.252032
C188	C	-0.289125	-0.422146	0.081301
C189	C	0.044208	-0.088812	0.414634
C190	C	-0.669400	-0.688580	-0.318849
C191	C	-0.336067	-0.355247	0.014484
C192	C	-0.002734	-0.021913	0.347817
C193	C	-0.622479	-0.688568	-0.318843
C194	C	-0.289146	-0.355235	0.014491
C195	C	0.044187	-0.021902	0.347824
C196	C	-0.599007	-0.722020	-0.285436
C197	C	-0.265674	-0.388687	0.047898
C198	C	0.067659	-0.055353	0.381231
C199	C	-0.552100	-0.721993	-0.285423
C200	C	-0.218766	-0.388660	0.047911
C201	C	0.114567	-0.055326	0.381244
N202	N	-0.528625	-0.755446	-0.252022
N203	N	-0.195292	-0.422113	0.081312
N204	N	0.138041	-0.088779	0.414645
C205	C	-0.552069	-0.788914	-0.218624
C206	C	-0.218735	-0.455580	0.114709
C207	C	0.114598	-0.122247	0.448042
C208	C	-0.979049	-0.722141	-0.285471
C209	C	-0.645716	-0.388808	0.047863
C210	C	-0.312382	-0.055475	0.381196
C211	C	-1.025967	-0.722156	-0.285475
C212	C	-0.692633	-0.388823	0.047859
C213	C	-0.359300	-0.055489	0.381192
C214	C	-1.025936	-0.789079	-0.218673
C215	C	-0.692602	-0.455746	0.114660
C216	C	-0.359269	-0.122413	0.447994
C217	C	-0.979017	-0.789062	-0.218667
C218	C	-0.645684	-0.455728	0.114666
C219	C	-0.312350	-0.122395	0.448000
C220	C	-0.955574	-0.755595	-0.252069
C221	C	-0.622241	-0.422261	0.081264
C222	C	-0.288908	-0.088928	0.414597
C223	C	-0.453543	-0.788872	-0.218612
C224	C	-0.120210	-0.455539	0.114721
C225	C	0.213124	-0.122205	0.448054
C226	C	-0.406623	-0.788849	-0.218607
C227	C	-0.073290	-0.455516	0.114726
C228	C	0.260043	-0.122182	0.448059
C229	C	-0.406658	-0.721928	-0.285410
C230	C	-0.073325	-0.388595	0.047923
C231	C	0.260008	-0.055261	0.381256
C232	C	-0.453574	-0.721949	-0.285414
C233	C	-0.120241	-0.388616	0.047919
C234	C	0.213093	-0.055282	0.381253
C235	C	-0.477015	-0.755425	-0.252013
C236	C	-0.143682	-0.422092	0.081320
C237	C	0.189652	-0.088758	0.414653
O238	O	-0.527811	-0.693533	-0.313798
O239	O	-0.194478	-0.360199	0.019535
O240	O	0.138856	-0.026866	0.352869
O241	O	-0.527788	-0.817366	-0.190223
O242	O	-0.194455	-0.484033	0.143110
O243	O	0.138879	-0.150700	0.476444
C244	C	-0.739733	-0.788984	-0.218649
C245	C	-0.406400	-0.455650	0.114685
C246	C	-0.073066	-0.122317	0.448018
C247	C	-0.763205	-0.755535	-0.252053
C248	C	-0.429872	-0.422201	0.081281
C249	C	-0.096538	-0.088868	0.414614
C250	C	-0.739762	-0.722067	-0.285450
C251	C	-0.406428	-0.388733	0.047884
C252	C	-0.073095	-0.055400	0.381217
C253	C	-0.810123	-0.755549	-0.252057
C254	C	-0.476789	-0.422216	0.081277
C255	C	-0.143456	-0.088882	0.414610
C256	C	-0.833566	-0.789017	-0.218659
C257	C	-0.500233	-0.455684	0.114674
C258	C	-0.166899	-0.122350	0.448007
C259	C	-0.810092	-0.822470	-0.185258
C260	C	-0.476758	-0.489137	0.148075
C261	C	-0.143425	-0.155803	0.481408
C262	C	-0.763176	-0.822451	-0.185251
C263	C	-0.429843	-0.489118	0.148082
C264	C	-0.096510	-0.155785	0.481415
C265	C	-0.763236	-0.688614	-0.318851
C266	C	-0.429903	-0.355280	0.014482
C267	C	-0.096569	-0.021947	0.347816
C268	C	-0.810151	-0.688635	-0.318855
C269	C	-0.476818	-0.355301	0.014479
C270	C	-0.143485	-0.021968	0.347812
C271	C	-0.833595	-0.722102	-0.285457
C272	C	-0.500262	-0.388769	0.047876
C273	C	-0.166928	-0.055436	0.381209
C274	C	-0.099344	-0.755577	-0.252061
C275	C	0.233989	-0.422244	0.081272
C276	C	0.567322	-0.088911	0.414605
C277	C	-0.049410	-0.755624	-0.252077
C278	C	0.283923	-0.422290	0.081256
C279	C	0.617257	-0.088957	0.414589
C280	C	-0.216515	-0.755485	-0.388397
C281	C	0.116818	-0.422152	-0.055064
C282	C	0.450152	-0.088819	0.278270
C283	C	-0.216512	-0.755492	-0.446511
C284	C	0.116822	-0.422159	-0.113178
C285	C	0.450155	-0.088826	0.220156
C286	C	-0.216542	0.108159	-0.252055
C287	C	0.116791	0.441492	0.081278
C288	C	0.450125	0.774825	0.414612
C289	C	-0.216548	0.050045	-0.252049
C290	C	0.116786	0.383378	0.081284
C291	C	0.450119	0.716711	0.414617
C292	C	-0.187698	-0.789002	-0.806899
C293	C	0.145636	-0.455669	-0.473565
C294	C	0.478969	-0.122335	-0.140232
C295	C	-0.187685	-0.789008	-0.861503
C296	C	0.145648	-0.455675	-0.528170
C297	C	0.478982	-0.122342	-0.194836
O298	O	-0.163239	-0.817457	-0.889760
O299	O	0.170094	-0.484124	-0.556427
O300	O	0.503427	-0.150790	-0.223094
N301	N	-0.216406	-0.755550	-0.888794
N302	N	0.116927	-0.422217	-0.555460
N303	N	0.450260	-0.088883	-0.222127
C304	C	-0.245139	-0.722079	-0.861477
C305	C	0.088195	-0.388746	-0.528144
C306	C	0.421528	-0.055413	-0.194811
O307	O	-0.269567	-0.693621	-0.889704
O308	O	0.063767	-0.360287	-0.556371
O309	O	0.397100	-0.026954	-0.223038
C310	C	-0.245148	-0.722071	-0.806874
C311	C	0.088185	-0.388737	-0.473541
C312	C	0.421518	-0.055404	-0.140207
C313	C	-0.216429	-0.755535	-0.779586
C314	C	0.116905	-0.422202	-0.446253
C315	C	0.450238	-0.088868	-0.112919
C316	C	-0.158980	-0.822463	-0.779610
C317	C	0.174354	-0.489130	-0.446277
C318	C	0.507687	-0.155796	-0.112944
C319	C	-0.158993	-0.822457	-0.725010
C320	C	0.174340	-0.489124	-0.391677
C321	C	0.507674	-0.155790	-0.058343
C322	C	-0.187724	-0.788990	-0.697697
C323	C	0.145609	-0.455657	-0.364364
C324	C	0.478943	-0.122323	-0.031031
C325	C	-0.216442	-0.755529	-0.724985
C326	C	0.116892	-0.422196	-0.391652
C327	C	0.450225	-0.088862	-0.058319
C328	C	-0.273878	-0.688598	-0.779559
C329	C	0.059455	-0.355264	-0.446225
C330	C	0.392789	-0.021931	-0.112892
C331	C	-0.273885	-0.688592	-0.724952
C332	C	0.059448	-0.355258	-0.391618
C333	C	0.392782	-0.021925	-0.058285
C334	C	-0.245165	-0.722056	-0.697664
C335	C	0.088168	-0.388722	-0.364330
C336	C	0.421501	-0.055389	-0.030997
C337	C	-0.245186	-0.722056	-0.643072
C338	C	0.088148	-0.388723	-0.309739
C339	C	0.421481	-0.055389	0.023594
N340	N	-0.216465	-0.755514	-0.615782
N341	N	0.116869	-0.422181	-0.282448
N342	N	0.450202	-0.088848	0.050885
C343	C	-0.187734	-0.788981	-0.643094
C344	C	0.145600	-0.455648	-0.309761
C345	C	0.478933	-0.122315	0.023573
C346	C	-0.245115	-0.722100	-0.976148
C347	C	0.088218	-0.388766	-0.642815
C348	C	0.421551	-0.055433	-0.309481
C349	C	-0.245108	-0.722110	-1.030750
C350	C	0.088225	-0.388777	-0.697417
C351	C	0.421559	-0.055444	-0.364084
C352	C	-0.187654	-0.789039	-1.030772
C353	C	0.145679	-0.455706	-0.697439
C354	C	0.479013	-0.122372	-0.364105
C355	C	-0.187664	-0.789030	-0.976169
C356	C	0.145670	-0.455697	-0.642835
C357	C	0.479003	-0.122364	-0.309502
C358	C	-0.216394	-0.755558	-0.948857
C359	C	0.116939	-0.422224	-0.615524
C360	C	0.450273	-0.088891	-0.282191
C361	C	-0.187764	-0.788967	-0.528429
C362	C	0.145570	-0.455633	-0.195096
C363	C	0.478903	-0.122300	0.138238
C364	C	-0.187781	-0.788959	-0.473824
C365	C	0.145553	-0.455626	-0.140490
C366	C	0.478886	-0.122293	0.192843
C367	C	-0.245233	-0.722029	-0.473807
C368	C	0.088100	-0.388696	-0.140473
C369	C	0.421434	-0.055363	0.192860
C370	C	-0.245218	-0.722038	-0.528407
C371	C	0.088116	-0.388705	-0.195074
C372	C	0.421449	-0.055372	0.138259
C373	C	-0.216480	-0.755509	-0.555717
C374	C	0.116854	-0.422175	-0.222384
C375	C	0.450187	-0.088842	0.110950
O376	O	-0.269618	-0.693620	-0.614780
O377	O	0.063716	-0.360287	-0.281447
O378	O	0.397049	-0.026954	0.051886
O379	O	-0.163305	-0.817430	-0.614860
O380	O	0.170028	-0.484097	-0.281527
O381	O	0.503361	-0.150764	0.051806
C382	C	-0.216498	-0.755482	-0.116181
C383	C	0.116835	-0.422148	0.217152
C384	C	0.450168	-0.088815	0.550485
C385	C	-0.216375	-0.755576	-0.058068
C386	C	0.116958	-0.422242	0.275266
C387	C	0.450292	-0.088909	0.608599
H388	H	-0.135547	-0.206211	-0.158089
H389	H	0.197786	0.127122	0.175244
H390	H	0.531119	0.460455	0.508577
C391	C	-0.276506	-0.563934	-0.321537
C392	C	0.056827	-0.230601	0.011797
C393	C	0.390161	0.102732	0.345130
C394	C	-0.270356	-0.617599	-0.314385
C395	C	0.062977	-0.284265	0.018948
C396	C	0.396311	0.049068	0.352281
C397	C	-0.299114	-0.644999	-0.347703
C398	C	0.034219	-0.311666	-0.014369
C399	C	0.367553	0.021668	0.318964
H400	H	-0.270004	-0.555067	-0.356701
H401	H	0.063329	-0.221734	-0.023368
H402	H	0.396662	0.111600	0.309966
H403	H	-0.306691	-0.554991	-0.313816
H404	H	0.026642	-0.221658	0.019517
H405	H	0.359975	0.111675	0.352851
H406	H	-0.240177	-0.626538	-0.322110
H407	H	0.093156	-0.293205	0.011223
H408	H	0.426489	0.040129	0.344557
H409	H	-0.276861	-0.626482	-0.279228
H410	H	0.056472	-0.293148	0.054105
H411	H	0.389806	0.040185	0.387439
H412	H	-0.329299	-0.636056	-0.339982
H413	H	0.004034	-0.302723	-0.006649
H414	H	0.337367	0.030611	0.326685
H415	H	-0.292610	-0.636127	-0.382865
H416	H	0.040724	-0.302794	-0.049532
H417	H	0.374057	0.030539	0.283802
H418	H	-0.294948	-0.681413	-0.342852
H419	H	0.038385	-0.348080	-0.009518
H420	H	0.371719	-0.014746	0.323815
H421	H	-0.268746	-0.054090	-0.312591
H422	H	0.064587	0.279244	0.020742
H423	H	0.397921	0.612577	0.354075
H424	H	-0.688428	-0.849671	-0.158042
H425	H	-0.355095	-0.516337	0.175292
H426	H	-0.021761	-0.183004	0.508625
H427	H	-0.297277	-0.661328	-0.702717
H428	H	0.036057	-0.327995	-0.369384
H429	H	0.369390	0.005339	-0.036051
H430	H	-0.268513	-0.694842	-0.953914
H431	H	0.064820	-0.361508	-0.620581
H432	H	0.398153	-0.028175	-0.287248
H433	H	-0.297490	-0.305241	-0.345955
H434	H	0.035843	0.028092	-0.012622
H435	H	0.369176	0.361425	0.320711
C436	C	-0.156483	0.052286	-0.182413
C437	C	0.176850	0.385620	0.150920
C438	C	0.510184	0.718953	0.484254
C439	C	-0.131274	0.016685	-0.153193
C440	C	0.202059	0.350018	0.180140
C441	C	0.535392	0.683351	0.513473
C442	C	-0.102442	0.043879	-0.119794
C443	C	0.230892	0.377212	0.213539
C444	C	0.564225	0.710545	0.546872
H445	H	-0.173589	0.073611	-0.159550
H446	H	0.159744	0.406944	0.173784
H447	H	0.493077	0.740278	0.507117
H448	H	-0.136911	0.073553	-0.202445
H449	H	0.196422	0.406887	0.130888
H450	H	0.529756	0.740220	0.464221
H451	H	-0.150844	-0.004573	-0.133163
H452	H	0.182490	0.328760	0.200171
H453	H	0.515823	0.662093	0.533504
H454	H	-0.114159	-0.004641	-0.176043
H455	H	0.219174	0.328692	0.157290
H456	H	0.552508	0.662026	0.490624
H457	H	-0.082870	0.065146	-0.139826
H458	H	0.250464	0.398479	0.193507
H459	H	0.583797	0.731813	0.526840
H460	H	-0.119551	0.065202	-0.096934
H461	H	0.213782	0.398536	0.236399
H462	H	0.547115	0.731869	0.569732
H463	H	-0.085331	0.019727	-0.099968
H464	H	0.248002	0.353061	0.233365
H465	H	0.581336	0.686394	0.566699
H466	H	-0.135581	-0.849716	-0.801843
H467	H	0.197752	-0.516383	-0.468509
H468	H	0.531086	-0.183049	-0.135176
H469	H	-0.959909	-0.816301	-0.191464
H470	H	-0.626575	-0.482968	0.141869
H471	H	-0.293242	-0.149634	0.475202
C472	C	-0.305349	-0.198871	-0.355049
C473	C	0.027985	0.134462	-0.021716
C474	C	0.361318	0.467795	0.311617
C475	C	-0.330549	-0.234470	-0.384267
C476	C	0.002784	0.098863	-0.050933
C477	C	0.336118	0.432197	0.282400
C478	C	-0.359380	-0.207273	-0.417677
C479	C	-0.026047	0.126061	-0.084344
C480	C	0.307287	0.459394	0.248990
H481	H	-0.288242	-0.177592	-0.377914
H482	H	0.045092	0.155741	-0.044581
H483	H	0.378425	0.489074	0.288753
H484	H	-0.324926	-0.177558	-0.335026
H485	H	0.008407	0.155775	-0.001692
H486	H	0.341740	0.489109	0.331641
H487	H	-0.310974	-0.255774	-0.404289
H488	H	0.022359	0.077559	-0.070956
H489	H	0.355693	0.410893	0.262378
H490	H	-0.347665	-0.255750	-0.361416
H491	H	-0.014332	0.077583	-0.028082
H492	H	0.319002	0.410917	0.305251
H493	H	-0.378957	-0.185960	-0.397653
H494	H	-0.045624	0.147374	-0.064320
H495	H	0.287709	0.480707	0.269013
H496	H	-0.342270	-0.185995	-0.440538
H497	H	-0.008936	0.147339	-0.107205
H498	H	0.324397	0.480672	0.226128
H499	H	-0.376485	-0.231422	-0.437501
H500	H	-0.043151	0.101911	-0.104168
H501	H	0.290182	0.435245	0.229165
C502	C	-0.276454	-0.449936	-0.321675
C503	C	0.056879	-0.116603	0.011659
C504	C	0.390213	0.216731	0.344992
C505	C	-0.251065	-0.418633	-0.355258
C506	C	0.082268	-0.085300	-0.021924
C507	C	0.415602	0.248033	0.311409
C508	C	-0.279765	-0.391306	-0.388715
C509	C	0.053569	-0.057972	-0.055382
C510	C	0.386902	0.275361	0.277952
H511	H	-0.296013	-0.428569	-0.301697
H512	H	0.037320	-0.095236	0.031637
H513	H	0.370653	0.238097	0.364970
H514	H	-0.293581	-0.474003	-0.341576
H515	H	0.039753	-0.140670	-0.008243
H516	H	0.373086	0.192664	0.325091
H517	H	-0.233946	-0.394569	-0.335359
H518	H	0.099388	-0.061236	-0.002025
H519	H	0.432721	0.272097	0.331308
H520	H	-0.231507	-0.439987	-0.375247
H521	H	0.101827	-0.106654	-0.041914
H522	H	0.435160	0.226679	0.291419
H523	H	-0.296891	-0.415372	-0.408616
H524	H	0.036442	-0.082039	-0.075283
H525	H	0.369775	0.251294	0.258050
H526	H	-0.299323	-0.369942	-0.368733
H527	H	0.034011	-0.036608	-0.035399
H528	H	0.367344	0.296725	0.297934
H529	H	-0.262542	-0.370067	-0.411508
H530	H	0.070791	-0.036734	-0.078175
H531	H	0.404124	0.296599	0.255158
H532	H	-0.164258	-0.816288	-1.053020
H533	H	0.169075	-0.482955	-0.719687
H534	H	0.502408	-0.149622	-0.386353
C535	C	-0.276510	0.052481	-0.321645
C536	C	0.056823	0.385815	0.011689
C537	C	0.390156	0.719148	0.345022
C538	C	-0.270342	0.106142	-0.314512
C539	C	0.062991	0.439476	0.018821
C540	C	0.396324	0.772809	0.352154
C541	C	-0.299059	0.133559	-0.347877
C542	C	0.034274	0.466892	-0.014543
C543	C	0.367607	0.800225	0.318790
H544	H	-0.306705	0.043623	-0.313966
H545	H	0.026628	0.376957	0.019368
H546	H	0.359962	0.710290	0.352701
H547	H	-0.269973	0.043542	-0.356798
H548	H	0.063361	0.376876	-0.023465
H549	H	0.396694	0.710209	0.309868
H550	H	-0.276883	0.115078	-0.279367
H551	H	0.056450	0.448411	0.053967
H552	H	0.389783	0.781745	0.387300
H553	H	-0.240154	0.115016	-0.322195
H554	H	0.093180	0.448349	0.011138
H555	H	0.426513	0.781683	0.344472
H556	H	-0.292522	0.124620	-0.383030
H557	H	0.040812	0.457953	-0.049697
H558	H	0.374145	0.791286	0.283636
H559	H	-0.329252	0.124697	-0.340195
H560	H	0.004081	0.458030	-0.006862
H561	H	0.337414	0.791363	0.326471
H562	H	-0.294876	0.169970	-0.343046
H563	H	0.038458	0.503304	-0.009712
H564	H	0.371791	0.836637	0.323621
H565	H	-0.387563	-0.694677	-0.312600
H566	H	-0.054230	-0.361344	0.020733
H567	H	0.279103	-0.028011	0.354066
C568	C	-0.381221	-0.825228	-0.182316
C569	C	-0.047888	-0.491895	0.151017
C570	C	0.285446	-0.158562	0.484351
C571	C	-0.411798	-0.854551	-0.153082
C572	C	-0.078464	-0.521218	0.180252
C573	C	0.254869	-0.187885	0.513585
C574	C	-0.388415	-0.888073	-0.119652
C575	C	-0.055082	-0.554740	0.213681
C576	C	0.278251	-0.221406	0.547015
H577	H	-0.362942	-0.805296	-0.159463
H578	H	-0.029609	-0.471963	0.173870
H579	H	0.303724	-0.138630	0.507204
H580	H	-0.362901	-0.848017	-0.202327
H581	H	-0.029568	-0.514684	0.131007
H582	H	0.303765	-0.181351	0.464340
H583	H	-0.430110	-0.831765	-0.133073
H584	H	-0.096776	-0.498432	0.200261
H585	H	0.236557	-0.165098	0.533594
H586	H	-0.430077	-0.874494	-0.175921
H587	H	-0.096744	-0.541161	0.157412
H588	H	0.236589	-0.207827	0.490746
H589	H	-0.370096	-0.910862	-0.139662
H590	H	-0.036762	-0.577529	0.193671
H591	H	0.296571	-0.244196	0.527004
H592	H	-0.370138	-0.868137	-0.096802
H593	H	-0.036804	-0.534804	0.236531
H594	H	0.296529	-0.201470	0.569864
H595	H	-0.409158	-0.907976	-0.099816
H596	H	-0.075825	-0.574643	0.233517
H597	H	0.257509	-0.241310	0.566851
C598	C	-0.156547	-0.825312	-0.444292
C599	C	0.176786	-0.491979	-0.110958
C600	C	0.510120	-0.158646	0.222375
C601	C	-0.131374	-0.854610	-0.479902
C602	C	0.201959	-0.521277	-0.146569
C603	C	0.535292	-0.187944	0.186764
C604	C	-0.102594	-0.888097	-0.452719
C605	C	0.230740	-0.554764	-0.119386
C606	C	0.564073	-0.221430	0.213948
H607	H	-0.173689	-0.848123	-0.422994
H608	H	0.159644	-0.514789	-0.089661
H609	H	0.492978	-0.181456	0.243673
H610	H	-0.136950	-0.805340	-0.422998
H611	H	0.196384	-0.472006	-0.089665
H612	H	0.529717	-0.138673	0.243669
H613	H	-0.150969	-0.874582	-0.501187
H614	H	0.182364	-0.541248	-0.167854
H615	H	0.515697	-0.207915	0.165480
H616	H	-0.114223	-0.831814	-0.501201
H617	H	0.219110	-0.498480	-0.167867
H618	H	0.552443	-0.165147	0.165466
H619	H	-0.082996	-0.868124	-0.431425
H620	H	0.250337	-0.534791	-0.098092
H621	H	0.583670	-0.201457	0.235241
H622	H	-0.119739	-0.910904	-0.431422
H623	H	0.213594	-0.577570	-0.098089
H624	H	0.546927	-0.244237	0.235244
H625	H	-0.085508	-0.907976	-0.476876
H626	H	0.247825	-0.574643	-0.143543
H627	H	0.581159	-0.241309	0.189790
C628	C	-1.051504	-0.685918	-0.321773
C629	C	-0.718171	-0.352585	0.011561
C630	C	-0.384838	-0.019251	0.344894
C631	C	-1.078412	-0.715506	-0.355312
C632	C	-0.745079	-0.382173	-0.021979
C633	C	-0.411746	-0.048839	0.311354
C634	C	-1.101946	-0.682143	-0.388756
C635	C	-0.768613	-0.348809	-0.055423
C636	C	-0.435280	-0.015476	0.277910
H637	H	-1.030870	-0.665975	-0.341711
H638	H	-0.697537	-0.332641	-0.008378
H639	H	-0.364203	0.000692	0.324955
H640	H	-1.069859	-0.663162	-0.301767
H641	H	-0.736525	-0.329829	0.031567
H642	H	-0.403192	0.003504	0.364900
H643	H	-1.060060	-0.738253	-0.375316
H644	H	-0.726726	-0.404919	-0.041983
H645	H	-0.393393	-0.071586	0.291350
H646	H	-1.099055	-0.735448	-0.335388
H647	H	-0.765722	-0.402115	-0.002055
H648	H	-0.432388	-0.068782	0.331279
H649	H	-1.120300	-0.659387	-0.368750
H650	H	-0.786967	-0.326054	-0.035417
H651	H	-0.453634	0.007280	0.297917
H652	H	-1.081309	-0.662201	-0.408691
H653	H	-0.747975	-0.328868	-0.075358
H654	H	-0.414642	0.004466	0.257975
H655	H	-1.120209	-0.702213	-0.411514
H656	H	-0.786876	-0.368880	-0.078180
H657	H	-0.453542	-0.035546	0.255153
H658	H	-0.297265	-0.661347	-0.801767
H659	H	0.036069	-0.328014	-0.468434
H660	H	0.369402	0.005319	-0.135101
C661	C	-0.737777	-0.858831	-0.148963
C662	C	-0.404444	-0.525498	0.184370
C663	C	-0.071111	-0.192165	0.517704
C664	C	-0.768358	-0.888150	-0.119731
C665	C	-0.435025	-0.554817	0.213603
C666	C	-0.101691	-0.221484	0.546936
C667	C	-0.744980	-0.921676	-0.086300
C668	C	-0.411647	-0.588343	0.247033
C669	C	-0.078314	-0.255010	0.580366
H670	H	-0.719497	-0.838902	-0.126109
H671	H	-0.386164	-0.505569	0.207224
H672	H	-0.052831	-0.172235	0.540558
H673	H	-0.719459	-0.881623	-0.168973
H674	H	-0.386126	-0.548289	0.164360
H675	H	-0.052793	-0.214956	0.497693
H676	H	-0.786668	-0.865362	-0.099722
H677	H	-0.453335	-0.532029	0.233611
H678	H	-0.120001	-0.198695	0.566945
H679	H	-0.786639	-0.908090	-0.142571
H680	H	-0.453306	-0.574757	0.190762
H681	H	-0.119972	-0.241423	0.524096
H682	H	-0.726662	-0.944468	-0.106311
H683	H	-0.393329	-0.611134	0.227023
H684	H	-0.059996	-0.277801	0.560356
H685	H	-0.726701	-0.901743	-0.063450
H686	H	-0.393368	-0.568410	0.269884
H687	H	-0.060034	-0.235076	0.603217
H688	H	-0.765726	-0.941577	-0.066466
H689	H	-0.432392	-0.608243	0.266868
H690	H	-0.099059	-0.274910	0.600201
H691	H	-0.268608	-0.694794	-0.550626
H692	H	0.064725	-0.361461	-0.217293
H693	H	0.398059	-0.028127	0.116040
H694	H	-0.135605	-0.849706	-0.702797
H695	H	0.197728	-0.516373	-0.369463
H696	H	0.531061	-0.183039	-0.036130
H697	H	-0.164304	-0.457379	-0.191437
H698	H	0.169029	-0.124046	0.141896
H699	H	0.502363	0.209287	0.475230
C700	C	-0.479007	-0.825289	-0.182439
C701	C	-0.145674	-0.491956	0.150894
C702	C	0.187659	-0.158622	0.484228
C703	C	-0.505890	-0.858805	-0.212084
C704	C	-0.172557	-0.525471	0.121250
C705	C	0.160776	-0.192138	0.454583
C706	C	-0.529348	-0.892364	-0.178779
C707	C	-0.196014	-0.559031	0.154554
C708	C	0.137319	-0.225698	0.487887
H709	H	-0.497374	-0.805382	-0.159622
H710	H	-0.164041	-0.472049	0.173711
H711	H	0.169292	-0.138715	0.507045
H712	H	-0.458314	-0.845234	-0.162560
H713	H	-0.124980	-0.511901	0.170773
H714	H	0.208353	-0.178568	0.504107
H715	H	-0.526582	-0.838861	-0.231954
H716	H	-0.193248	-0.505528	0.101379
H717	H	0.140085	-0.172195	0.434713
H718	H	-0.487535	-0.878723	-0.234900
H719	H	-0.154201	-0.545390	0.098434
H720	H	0.179132	-0.212056	0.431767
H721	H	-0.508654	-0.912310	-0.158900
H722	H	-0.175321	-0.578977	0.174433
H723	H	0.158013	-0.245643	0.507766
H724	H	-0.547712	-0.872453	-0.155964
H725	H	-0.214379	-0.539120	0.177369
H726	H	0.118955	-0.205787	0.510703
H727	H	-0.547587	-0.915112	-0.198889
H728	H	-0.214254	-0.581779	0.134445
H729	H	0.119079	-0.248445	0.467778
H730	H	-0.959965	-0.694887	-0.312672
H731	H	-0.626632	-0.361554	0.020662
H732	H	-0.293298	-0.028221	0.353995
C733	C	-0.276504	-0.685769	-0.444168
C734	C	0.056829	-0.352435	-0.110835
C735	C	0.390163	-0.019102	0.222499
C736	C	-0.320953	-0.697126	-0.457434
C737	C	0.012380	-0.363792	-0.124101
C738	C	0.345713	-0.030459	0.209232
C739	C	-0.349772	-0.663739	-0.430132
C740	C	-0.016439	-0.330406	-0.096799
C741	C	0.316894	0.002927	0.236534
H742	H	-0.269987	-0.650624	-0.453076
H743	H	0.063346	-0.317291	-0.119742
H744	H	0.396680	0.016043	0.213591
H745	H	-0.272423	-0.690570	-0.407737
H746	H	0.060910	-0.357237	-0.074404
H747	H	0.394243	-0.023904	0.258930
H748	H	-0.325032	-0.692319	-0.493857
H749	H	0.008301	-0.358986	-0.160524
H750	H	0.341635	-0.025653	0.172810
H751	H	-0.327484	-0.732264	-0.448525
H752	H	0.005849	-0.398931	-0.115192
H753	H	0.339182	-0.065598	0.218142
H754	H	-0.345692	-0.668541	-0.393701
H755	H	-0.012358	-0.335208	-0.060368
H756	H	0.320975	-0.001874	0.272965
H757	H	-0.343251	-0.628597	-0.439042
H758	H	-0.009918	-0.295263	-0.105709
H759	H	0.323415	0.038070	0.227624
H760	H	-0.379935	-0.671444	-0.439126
H761	H	-0.046601	-0.338110	-0.105793
H762	H	0.286732	-0.004777	0.227541
H763	H	-0.164326	-0.054083	-0.191485
H764	H	0.169008	0.279250	0.141848
H765	H	0.502341	0.612583	0.475182
H766	H	-0.164277	-0.816279	-0.953954
H767	H	0.169057	-0.482946	-0.620621
H768	H	0.502390	-0.149612	-0.287288
H769	H	-0.135538	-0.305257	-0.158083
H770	H	0.197796	0.028076	0.175250
H771	H	0.531129	0.361410	0.508584
C772	C	-0.156505	-0.563949	-0.182426
C773	C	0.176828	-0.230615	0.150908
C774	C	0.510162	0.102718	0.484241
C775	C	-0.162656	-0.617610	-0.189578
C776	C	0.170677	-0.284276	0.143756
C777	C	0.504011	0.049057	0.477089
C778	C	-0.133895	-0.645026	-0.156264
C779	C	0.199438	-0.311693	0.177069
C780	C	0.532772	0.021641	0.510402
H781	H	-0.163004	-0.555044	-0.147260
H782	H	0.170329	-0.221711	0.186073
H783	H	0.503663	0.111623	0.519406
H784	H	-0.126320	-0.555056	-0.190149
H785	H	0.207013	-0.221723	0.143184
H786	H	0.540346	0.111611	0.476517
H787	H	-0.192834	-0.626499	-0.181850
H788	H	0.140500	-0.293165	0.151483
H789	H	0.473833	0.040168	0.484816
H790	H	-0.156154	-0.626530	-0.224736
H791	H	0.177180	-0.293196	0.108597
H792	H	0.510513	0.040137	0.441930
H793	H	-0.103710	-0.636133	-0.163988
H794	H	0.229623	-0.302800	0.169345
H795	H	0.562956	0.030533	0.502678
H796	H	-0.140397	-0.636117	-0.121101
H797	H	0.192937	-0.302784	0.212232
H798	H	0.526270	0.030549	0.545565
H799	H	-0.138062	-0.681438	-0.161116
H800	H	0.195272	-0.348104	0.172217
H801	H	0.528605	-0.014771	0.505551
H802	H	-0.829187	-0.849719	-0.158064
H803	H	-0.495854	-0.516386	0.175270
H804	H	-0.162521	-0.183052	0.508603
C805	C	-0.597031	-0.858780	-0.148947
C806	C	-0.263698	-0.525446	0.184387
C807	C	0.069636	-0.192113	0.517720
C808	C	-0.627612	-0.888100	-0.119716
C809	C	-0.294278	-0.554767	0.213617
C810	C	0.039055	-0.221434	0.546951
C811	C	-0.604234	-0.921631	-0.086291
C812	C	-0.270901	-0.588298	0.247043
C813	C	0.062433	-0.254965	0.580376
H814	H	-0.578749	-0.838854	-0.126091
H815	H	-0.245416	-0.505521	0.207242
H816	H	0.087918	-0.172187	0.540576
H817	H	-0.578715	-0.881570	-0.168960
H818	H	-0.245381	-0.548236	0.164373
H819	H	0.087952	-0.214903	0.497706
H820	H	-0.645920	-0.865313	-0.099703
H821	H	-0.312587	-0.531980	0.233630
H822	H	0.020747	-0.198647	0.566963
H823	H	-0.645894	-0.908036	-0.142558
H824	H	-0.312561	-0.574703	0.190776
H825	H	0.020772	-0.241370	0.524109
H826	H	-0.585918	-0.944421	-0.106305
H827	H	-0.252584	-0.611088	0.227029
H828	H	0.080749	-0.277755	0.560362
H829	H	-0.585953	-0.901702	-0.063439
H830	H	-0.252620	-0.568368	0.269895
H831	H	0.080714	-0.235035	0.603228
H832	H	-0.624979	-0.941533	-0.066457
H833	H	-0.291646	-0.608200	0.266876
H834	H	0.041687	-0.274866	0.600209
C835	C	-1.051475	-0.825434	-0.182507
C836	C	-0.718141	-0.492101	0.150826
C837	C	-0.384808	-0.158768	0.484159
C838	C	-1.097586	-0.818309	-0.189691
C839	C	-0.764253	-0.484975	0.143642
C840	C	-0.430919	-0.151642	0.476975
C841	C	-1.121128	-0.851811	-0.156411
C842	C	-0.787795	-0.518478	0.176923
C843	C	-0.454462	-0.185145	0.510256
H844	H	-1.043878	-0.817878	-0.147333
H845	H	-0.710545	-0.484545	0.186000
H846	H	-0.377212	-0.151212	0.519334
H847	H	-1.043767	-0.860555	-0.190241
H848	H	-0.710433	-0.527221	0.143092
H849	H	-0.377100	-0.193888	0.476425
H850	H	-1.105291	-0.783196	-0.181954
H851	H	-0.771958	-0.449863	0.151379
H852	H	-0.438624	-0.116530	0.484713
H853	H	-1.105196	-0.825868	-0.224859
H854	H	-0.771862	-0.492535	0.108475
H855	H	-0.438529	-0.159202	0.441808
H856	H	-1.113420	-0.886932	-0.164145
H857	H	-0.780087	-0.553598	0.169189
H858	H	-0.446754	-0.220265	0.502522
H859	H	-1.113528	-0.844253	-0.121238
H860	H	-0.780195	-0.510919	0.212095
H861	H	-0.446862	-0.177586	0.545428
H862	H	-1.152417	-0.846985	-0.161284
H863	H	-0.819084	-0.513651	0.172050
H864	H	-0.485751	-0.180318	0.505383
C865	C	-0.835551	-0.652293	-0.355185
C866	C	-0.502218	-0.318959	-0.021852
C867	C	-0.168885	0.014374	0.311481
C868	C	-0.804973	-0.622992	-0.384440
C869	C	-0.471639	-0.289659	-0.051106
C870	C	-0.138306	0.043674	0.282227
C871	C	-0.828352	-0.589519	-0.417920
C872	C	-0.495019	-0.256186	-0.084587
C873	C	-0.161686	0.077148	0.248746
H874	H	-0.853884	-0.629483	-0.335227
H875	H	-0.520551	-0.296150	-0.001893
H876	H	-0.187217	0.037184	0.331440
H877	H	-0.853816	-0.672275	-0.378020
H878	H	-0.520483	-0.338941	-0.044686
H879	H	-0.187150	-0.005608	0.288647
H880	H	-0.786715	-0.603012	-0.361608
H881	H	-0.453382	-0.269678	-0.028275
H882	H	-0.120048	0.063655	0.305058
H883	H	-0.786639	-0.645788	-0.404409
H884	H	-0.453305	-0.312455	-0.071076
H885	H	-0.119972	0.020879	0.262258
H886	H	-0.846618	-0.609501	-0.440755
H887	H	-0.513284	-0.276168	-0.107421
H888	H	-0.179951	0.057166	0.225912
H889	H	-0.846684	-0.566713	-0.397957
H890	H	-0.513351	-0.233380	-0.064624
H891	H	-0.180018	0.099954	0.268709
H892	H	-0.807608	-0.569638	-0.437777
H893	H	-0.474275	-0.236305	-0.104443
H894	H	-0.140942	0.097028	0.228890
C895	C	-0.276311	-0.685725	-1.060280
C896	C	0.057023	-0.352391	-0.726946
C897	C	0.390356	-0.019058	-0.393613
C898	C	-0.301465	-0.656408	-1.024666
C899	C	0.031868	-0.323075	-0.691333
C900	C	0.365202	0.010258	-0.358000
C901	C	-0.330208	-0.622876	-1.051847
C902	C	0.003125	-0.289543	-0.718514
C903	C	0.336458	0.043791	-0.385181
H904	H	-0.295924	-0.705649	-1.081587
H905	H	0.037409	-0.372315	-0.748253
H906	H	0.370742	-0.038982	-0.414920
H907	H	-0.259128	-0.662932	-1.081563
H908	H	0.074205	-0.329598	-0.748230
H909	H	0.407538	0.003735	-0.414897
H910	H	-0.318646	-0.679198	-1.003392
H911	H	0.014687	-0.345865	-0.670058
H912	H	0.348021	-0.012532	-0.336725
H913	H	-0.281863	-0.636473	-1.003358
H914	H	0.051470	-0.303140	-0.670025
H915	H	0.384804	0.030193	-0.336692
H916	H	-0.313026	-0.600083	-1.073131
H917	H	0.020307	-0.266750	-0.739798
H918	H	0.353641	0.066584	-0.406464
H919	H	-0.349819	-0.642804	-1.073153
H920	H	-0.016486	-0.309471	-0.739820
H921	H	0.316848	0.023862	-0.406487
H922	H	-0.347276	-0.602978	-1.027688
H923	H	-0.013942	-0.269644	-0.694355
H924	H	0.319391	0.063689	-0.361021
H925	H	-0.688503	-0.661337	-0.346051
H926	H	-0.355170	-0.328004	-0.012717
H927	H	-0.021836	0.005329	0.320616
C928	C	-0.597109	-0.652175	-0.355131
C929	C	-0.263776	-0.318842	-0.021798
C930	C	0.069558	0.014491	0.311535
C931	C	-0.627711	-0.622879	-0.384377
C932	C	-0.294378	-0.289546	-0.051044
C933	C	0.038956	0.043788	0.282290
C934	C	-0.604358	-0.589345	-0.417806
C935	C	-0.271024	-0.256011	-0.084473
C936	C	0.062309	0.077322	0.248861
H937	H	-0.578781	-0.672097	-0.377977
H938	H	-0.245447	-0.338764	-0.044644
H939	H	0.087886	-0.005431	0.288690
H940	H	-0.578842	-0.629370	-0.335119
H941	H	-0.245508	-0.296037	-0.001786
H942	H	0.087825	0.037297	0.331547
H943	H	-0.645971	-0.645681	-0.404388
H944	H	-0.312637	-0.312348	-0.071054
H945	H	0.020696	0.020985	0.262279
H946	H	-0.646041	-0.602947	-0.361545
H947	H	-0.312707	-0.269613	-0.028212
H948	H	0.020626	0.063720	0.305122
H949	H	-0.586090	-0.566539	-0.397794
H950	H	-0.252757	-0.233206	-0.064461
H951	H	0.080576	0.100127	0.268873
H952	H	-0.586030	-0.609271	-0.440648
H953	H	-0.252697	-0.275937	-0.107315
H954	H	0.080637	0.057396	0.226018
H955	H	-0.625117	-0.569460	-0.437650
H956	H	-0.291784	-0.236126	-0.104316
H957	H	0.041549	0.097207	0.229017
C958	C	-0.479119	-0.685713	-0.321710
C959	C	-0.145786	-0.352379	0.011623
C960	C	0.187547	-0.019046	0.344957
C961	C	-0.506023	-0.715306	-0.355250
C962	C	-0.172689	-0.381972	-0.021917
C963	C	0.160644	-0.048639	0.311416
C964	C	-0.529563	-0.681946	-0.388692
C965	C	-0.196230	-0.348613	-0.055359
C966	C	0.137104	-0.015279	0.277974
H967	H	-0.458489	-0.665764	-0.341648
H968	H	-0.125155	-0.332430	-0.008315
H969	H	0.208178	0.000903	0.325019
H970	H	-0.497477	-0.662962	-0.301702
H971	H	-0.164144	-0.329629	0.031631
H972	H	0.169190	0.003704	0.364964
H973	H	-0.487667	-0.738047	-0.375256
H974	H	-0.154333	-0.404713	-0.041923
H975	H	0.179000	-0.071380	0.291411
H976	H	-0.526662	-0.735253	-0.335327
H977	H	-0.193328	-0.401920	-0.001993
H978	H	0.140005	-0.068587	0.331340
H979	H	-0.547920	-0.659196	-0.368685
H980	H	-0.214587	-0.325862	-0.035351
H981	H	0.118746	0.007471	0.297982
H982	H	-0.508929	-0.661999	-0.408627
H983	H	-0.175596	-0.328665	-0.075293
H984	H	0.157738	0.004668	0.258040
H985	H	-0.547822	-0.702020	-0.411450
H986	H	-0.214489	-0.368686	-0.078117
H987	H	0.118844	-0.035353	0.255216
C988	C	-0.156508	-0.825221	-0.558101
C989	C	0.176825	-0.491888	-0.224768
C990	C	0.510158	-0.158554	0.108565
C991	C	-0.127689	-0.795654	-0.589433
C992	C	0.205644	-0.462320	-0.256100
C993	C	0.538977	-0.128987	0.077234
C994	C	-0.098890	-0.829034	-0.616769
C995	C	0.234444	-0.495701	-0.283436
C996	C	0.567777	-0.162368	0.049898
H997	H	-0.173639	-0.848000	-0.579449
H998	H	0.159694	-0.514667	-0.246116
H999	H	0.493028	-0.181334	0.087217
H1000	H	-0.139383	-0.845137	-0.534039
H1001	H	0.193950	-0.511804	-0.200706
H1002	H	0.527283	-0.178470	0.132627
H1003	H	-0.144813	-0.775746	-0.613492
H1004	H	0.188521	-0.442413	-0.280159
H1005	H	0.521854	-0.109080	0.053174
H1006	H	-0.110549	-0.772875	-0.568098
H1007	H	0.222784	-0.439542	-0.234765
H1008	H	0.556118	-0.106209	0.098568
H1009	H	-0.081765	-0.848950	-0.592707
H1010	H	0.251569	-0.515617	-0.259373
H1011	H	0.584902	-0.182284	0.073960
H1012	H	-0.116024	-0.851812	-0.638114
H1013	H	0.217310	-0.518479	-0.304780
H1014	H	0.550643	-0.185146	0.028553
H1015	H	-0.079330	-0.808978	-0.638027
H1016	H	0.254003	-0.475644	-0.304694
H1017	H	0.587337	-0.142311	0.028640
H1018	H	-0.744152	-0.661361	-0.346048
H1019	H	-0.410819	-0.328028	-0.012714
H1020	H	-0.077485	0.005306	0.320619
