data_functionalizedCrystal
_audit_creation_method	'MofGen! by Chris Wilmer'
_symmetry_space_group_name_H-M	'P1'
_symmetry_Int_Tables_number	1
_symmetry_cell_setting	triclinic
loop_
_symmetry_equiv_pos_as_xyz
  x,y,z
_cell_length_a	13.635800
_cell_length_b	7.076093
_cell_length_c	11.102288
_cell_angle_alpha	105.721366
_cell_angle_beta	71.394311
_cell_angle_gamma	117.701465
loop_
_atom_site_label
_atom_site_type_symbol
_atom_site_fract_x
_atom_site_fract_y
_atom_site_fract_z
V1	V	-1.791879	0.665001	0.173812
O2	O	-1.776419	0.652342	-0.010438
O3	O	-1.782073	0.660453	0.346646
O4	O	-1.665180	0.955031	0.170223
O5	O	-1.894121	0.355725	0.167206
V6	V	-2.045110	0.628009	0.151882
O7	O	-1.897351	0.746146	0.221918
O8	O	-2.164738	0.546864	0.103776
O9	O	-1.943313	0.632557	-0.020952
O10	O	-2.119269	0.640668	0.336132
O11	O	-2.001567	0.937285	0.158488
O12	O	-2.060206	0.337979	0.155471
V13	V	-1.291879	0.665001	0.173812
O14	O	-1.276419	0.652342	-0.010438
O15	O	-1.282073	0.660453	0.346646
O16	O	-1.165180	0.955031	0.170223
O17	O	-1.394121	0.355725	0.167206
V18	V	-1.545110	0.628009	0.151882
O19	O	-1.397351	0.746146	0.221918
O20	O	-1.664738	0.546864	0.103776
O21	O	-1.443313	0.632557	-0.020952
O22	O	-1.619269	0.640668	0.336132
O23	O	-1.501567	0.937285	0.158488
O24	O	-1.560206	0.337979	0.155471
C25	C	-1.711391	0.649962	0.388808
C26	C	-1.743333	0.648177	0.530096
C27	C	-1.562290	1.025723	0.163757
C28	C	-1.498254	1.267279	0.161931
C29	C	-1.994770	0.267276	0.161934
C30	C	-2.048231	0.025718	0.163757
C31	C	-1.845669	0.643042	-0.063108
C32	C	-1.803341	0.644841	-0.204395
C33	C	-1.211391	0.649962	0.388808
C34	C	-1.243333	0.648177	0.530096
C35	C	-1.345669	0.643042	-0.063108
C36	C	-1.303341	0.644841	-0.204395
C37	C	-1.846121	0.657979	0.602915
C38	C	-1.876124	0.656319	0.735671
C39	C	-1.700543	0.635044	0.722778
C40	C	-1.670538	0.636721	0.590025
C41	C	-1.346121	0.657979	0.602915
C42	C	-1.376124	0.656319	0.735671
C43	C	-1.200543	0.635044	0.722778
C44	C	-1.170538	0.636721	0.590025
H45	H	-1.959820	0.664304	0.794955
N46	N	-1.487018	0.666769	0.814197
H47	H	-1.494991	0.663944	0.907388
H48	H	-1.487907	0.804506	0.805762
N49	N	-1.424625	0.670355	0.538275
H50	H	-1.494292	0.676321	0.604556
H51	H	-1.383746	0.804350	0.495415
H52	H	-1.905398	0.667305	0.554125
N53	N	-1.122045	0.622632	0.787411
H54	H	-1.156654	0.623034	0.882557
H55	H	-1.110731	0.485432	0.749439
N56	N	-1.622045	0.622644	0.787417
H57	H	-1.552375	0.616691	0.721139
H58	H	-1.598420	0.754313	0.854157
H59	H	-1.586831	0.628746	0.530735
H60	H	-1.086831	0.628746	0.530735
