data_functionalizedCrystal
_audit_creation_method	'MofGen! by Chris Wilmer'
_symmetry_space_group_name_H-M	'P1'
_symmetry_Int_Tables_number	1
_symmetry_cell_setting	triclinic
loop_
_symmetry_equiv_pos_as_xyz
  x,y,z
_cell_length_a	10.654550
_cell_length_b	11.295483
_cell_length_c	10.654551
_cell_angle_alpha	85.862321
_cell_angle_beta	84.485132
_cell_angle_gamma	94.148597
loop_
_atom_site_label
_atom_site_type_symbol
_atom_site_fract_x
_atom_site_fract_y
_atom_site_fract_z
O1	O	1.676236	0.099116	0.168007
O2	O	1.310755	0.099096	0.184814
O3	O	1.501898	0.099107	-0.006329
O4	O	1.485093	0.099105	0.359150
O5	O	1.485109	-0.098945	0.010434
O6	O	1.293967	-0.098956	0.201577
O7	O	1.659447	-0.098936	0.184769
Cu8	Cu	1.475174	-0.117030	0.194704
Cu9	Cu	1.495028	0.117189	0.174880
O10	O	1.468304	-0.098947	0.375912
C11	C	1.255563	0.000067	0.191962
C12	C	1.116119	0.000060	0.188271
N13	N	1.461218	-0.281767	0.208646
C14	C	1.036635	0.000077	0.300811
C15	C	0.905616	0.000098	0.297332
C16	C	0.933578	0.000090	0.068764
C17	C	1.064594	0.000061	0.072244
C18	C	1.020491	0.000087	0.432773
C19	C	0.889472	0.000107	0.429294
C20	C	1.609452	-0.531048	0.060495
C21	C	1.598915	-0.655712	0.071040
C22	C	1.429601	-0.655762	0.240274
C23	C	1.440139	-0.531098	0.229729
C24	C	1.530068	-0.468745	0.139838
C25	C	1.540611	-0.344078	0.129300
C26	C	1.371292	-0.344131	0.298527
C27	C	1.360754	-0.468795	0.309072
C28	C	1.714640	0.000095	0.177621
C29	C	1.854084	0.000110	0.181312
C30	C	1.492270	0.000084	-0.044746
C31	C	1.488578	0.000091	-0.184189
N32	N	1.508994	0.281927	0.160928
C33	C	1.495997	0.108047	-0.258838
C34	C	1.492516	0.108042	-0.389858
C35	C	1.474202	-0.107885	-0.371568
C36	C	1.477674	-0.107878	-0.240550
C37	C	1.506576	0.232711	-0.269400
C38	C	1.503095	0.232705	-0.400420
C39	C	1.477933	0.000079	0.414329
C40	C	1.481625	0.000079	0.553772
H41	H	1.129304	0.000030	-0.019396
C42	C	1.634739	0.284977	-0.233871
H43	H	1.689407	0.308254	-0.308712
H44	H	1.671738	0.226544	-0.183849
H45	H	1.622136	0.352400	-0.187146
H46	H	1.465322	-0.195791	-0.417473
C47	C	1.078460	0.115573	0.479800
H48	H	1.167147	0.111615	0.480608
H49	H	1.041424	0.124694	0.562913
H50	H	1.062589	0.181660	0.424878
H51	H	1.613839	-0.293312	0.056109
H52	H	0.891611	0.000108	-0.025703
H53	H	1.414778	0.271393	-0.433261
H54	H	1.423844	0.280577	-0.227170
C55	C	1.469504	-0.226629	-0.158439
H56	H	1.462525	-0.290929	-0.210775
H57	H	1.397371	-0.231113	-0.098006
H58	H	1.543597	-0.231117	-0.115893
C59	C	1.050633	-0.111876	0.511981
H60	H	0.974122	-0.157911	0.542183
H61	H	1.093369	-0.088852	0.581692
H62	H	1.102990	-0.157948	0.460921
C63	C	0.817973	-0.115394	0.492944
H64	H	0.876793	-0.166842	0.523704
H65	H	0.772238	-0.153771	0.433007
H66	H	0.760787	-0.096821	0.561409
C67	C	0.842606	0.112169	0.486808
H68	H	0.912239	0.158239	0.512826
H69	H	0.782621	0.089293	0.557802
H70	H	0.804069	0.158147	0.425209
H71	H	1.682685	-0.480279	-0.012690
C72	C	1.686241	-0.724242	-0.016234
H73	H	1.741311	-0.669248	-0.071271
H74	H	1.636499	-0.772886	-0.064817
H75	H	1.734809	-0.772857	0.033549
C76	C	1.330687	-0.724363	0.339140
H77	H	1.335788	-0.807531	0.334055
H78	H	1.248476	-0.703954	0.323004
H79	H	1.346790	-0.703940	0.421366
H80	H	1.593944	0.280575	-0.450762
C81	C	1.283980	-0.275595	0.385822
H82	H	1.303133	-0.192419	0.366671
H83	H	1.296636	-0.296036	0.471490
H84	H	1.198306	-0.296037	0.373144
C85	C	1.261845	-0.537389	0.407949
H86	H	1.266943	-0.620558	0.402873
H87	H	1.179633	-0.516980	0.391819
H88	H	1.277959	-0.516957	0.490169
