data_functionalizedCrystal
_audit_creation_method	'MofGen! by Chris Wilmer'
_symmetry_space_group_name_H-M	'P1'
_symmetry_Int_Tables_number	1
_symmetry_cell_setting	triclinic
loop_
_symmetry_equiv_pos_as_xyz
  x,y,z
_cell_length_a	19.902436
_cell_length_b	14.560438
_cell_length_c	14.560438
_cell_angle_alpha	90.000927
_cell_angle_beta	60.000877
_cell_angle_gamma	59.995744
loop_
_atom_site_label
_atom_site_type_symbol
_atom_site_fract_x
_atom_site_fract_y
_atom_site_fract_z
Zr1	Zr	0.735515	0.884646	-0.120552
O2	O	0.875698	0.737976	-0.267202
O3	O	0.595332	0.929621	-0.075593
O4	O	0.735517	0.929597	-0.267201
O5	O	0.735510	0.738004	0.075546
O6	O	0.735519	1.080735	-0.267202
O7	O	0.735512	0.738001	-0.075595
O8	O	0.484753	1.080779	0.075549
O9	O	0.986277	0.737960	-0.267205
O10	O	0.652992	1.061579	-0.056423
O11	O	0.652990	0.948789	0.056373
O12	O	0.818040	0.948760	-0.169220
O13	O	0.818037	0.835970	-0.056424
Zr14	Zr	0.735515	1.125700	0.120498
Zr15	Zr	0.735518	1.125693	-0.120554
Zr16	Zr	0.735512	0.884652	0.120500
Zr17	Zr	0.911875	0.884621	-0.120556
Zr18	Zr	0.559154	1.125724	0.120502
O19	O	0.875698	1.080724	0.075540
O20	O	0.875702	1.080715	-0.267205
O21	O	0.875693	0.737985	0.075543
O22	O	0.595332	1.272369	0.267148
O23	O	0.595336	1.272360	-0.075597
O24	O	0.595327	0.929630	0.267152
O25	O	0.735519	1.272341	-0.075600
O26	O	0.735513	1.080748	0.267147
O27	O	0.735511	0.929610	0.267149
O28	O	0.735517	1.272344	0.075541
O29	O	0.986279	0.929561	-0.267207
O30	O	0.484750	1.080784	0.267153
O31	O	0.484753	1.272385	0.267151
O32	O	0.484755	1.272380	0.075547
O33	O	0.986274	0.737965	-0.075600
O34	O	0.986277	0.929566	-0.075602
O35	O	0.652990	1.061585	0.169167
O36	O	0.652993	1.174375	0.056371
O37	O	0.818040	1.061556	-0.056427
O38	O	0.818037	0.948766	0.056369
C39	C	0.514915	1.005204	-0.000022
C40	C	0.440045	1.005214	-0.000020
C41	C	0.302987	1.005186	-0.000025
C42	C	0.274472	1.076330	-0.071173
C43	C	0.196861	1.076004	-0.071556
C44	C	0.168043	1.005159	-0.000029
C45	C	0.260017	0.882558	-0.051547
C46	C	0.337959	0.882963	-0.052082
C47	C	0.210935	1.055650	0.122681
C48	C	0.132204	1.058111	0.122493
C49	C	0.091781	1.005138	-0.000031
C50	C	0.379253	1.005199	-0.000027
C51	C	0.735511	0.703658	-0.000024
C52	C	0.735509	0.601327	-0.000023
C53	C	0.649364	0.515977	0.058851
C54	C	0.649358	0.612133	0.058852
C55	C	0.821673	0.494357	-0.058912
C56	C	0.821678	0.398203	-0.058919
C57	C	0.956115	1.005142	-0.000032
C58	C	1.030985	1.005131	-0.000034
C59	C	0.735519	1.005165	-0.301546
C60	C	0.735520	1.005162	-0.403879
C61	C	0.735519	1.306687	-0.000030
C62	C	0.735520	1.409018	-0.000031
C63	C	0.821671	0.946273	-0.510835
C64	C	0.821667	0.946286	-0.606983
C65	C	0.649352	1.064079	-0.489208
C66	C	0.649357	1.064072	-0.393061
C67	C	0.735511	1.005180	0.301493
C68	C	0.735510	1.005183	0.403826
C69	C	0.514919	1.306718	-0.000025
C70	C	0.440050	1.409059	-0.000024
C71	C	0.514911	1.005211	0.301498
C72	C	0.440040	1.005224	0.403832
C73	C	0.514915	1.306725	0.301495
C74	C	0.440045	1.409070	0.403828
C75	C	0.956115	0.703620	-0.301548
C76	C	1.030984	0.601275	-0.403882
C77	C	0.956111	0.703627	-0.000029
C78	C	1.030979	0.601286	-0.000030
C79	C	0.956119	1.005134	-0.301551
C80	C	1.030990	1.005121	-0.403886
C81	C	0.404891	1.398242	-0.058911
C82	C	0.334554	1.494394	-0.058933
C83	C	0.299373	1.601362	-0.000061
C84	C	0.334539	1.612177	0.058828
C85	C	0.404879	1.516026	0.058843
C86	C	0.404880	1.064109	0.510777
C87	C	0.334540	1.064117	0.606940
C88	C	0.299358	1.005246	0.596157
C89	C	0.334525	0.946355	0.489201
C90	C	0.404868	0.946341	0.393040
C91	C	0.404887	1.516017	0.393007
C92	C	0.334549	1.612189	0.489151
C93	C	0.299366	1.601412	0.596115
C94	C	0.334530	1.494454	0.606935
C95	C	0.404872	1.398284	0.510792
C96	C	1.066151	0.494328	-0.393061
C97	C	1.136511	0.398156	-0.489205
C98	C	1.171698	0.408933	-0.596169
C99	C	1.136529	0.515891	-0.606988
C100	C	1.066175	0.612061	-0.510845
C101	C	1.066146	0.612103	0.058847
C102	C	1.136502	0.515951	0.058843
C103	C	1.171686	0.408983	-0.000033
C104	C	1.136517	0.398168	-0.058917
C105	C	1.066166	0.494319	-0.058918
C106	C	1.066150	1.064002	-0.393066
C107	C	1.136490	1.064012	-0.489211
C108	C	1.171673	1.005133	-0.596175
C109	C	1.136506	0.946249	-0.606993
C110	C	1.066162	0.946247	-0.510849
H111	H	0.224150	1.040969	-0.162073
O112	O	0.223478	1.005287	0.699888
H113	H	0.250466	0.917617	0.699851
H114	H	0.403919	0.842590	-0.142365
O115	O	1.174465	0.882732	-0.722363
H116	H	1.229295	0.892620	-0.787390
O117	O	0.296617	1.727555	0.477496
H118	H	0.264549	1.737352	0.430829
O119	O	0.556437	0.527644	0.122350
H120	H	0.552304	0.486667	0.187435
O121	O	0.442784	1.282932	0.522468
H122	H	0.429277	1.236317	0.481481
O123	O	0.442785	1.527706	0.122375
H124	H	0.429275	1.486726	0.187456
O125	O	1.247579	0.305196	-0.699858
H126	H	1.266149	0.330647	-0.776062
O127	O	1.028211	0.482691	-0.277698
H128	H	1.064503	0.392159	-0.286344
O129	O	0.223488	1.705148	0.699806
H130	H	0.159386	1.705098	0.750578
H131	H	0.433523	1.524813	0.305920
O132	O	1.174481	0.527510	-0.722359
H133	H	1.160976	0.486514	-0.768968
H134	H	1.037536	0.485495	-0.106860
H135	H	1.037542	0.898293	-0.519674
H136	H	0.228762	1.004079	0.175933
H137	H	0.305874	1.485696	0.694038
O138	O	0.223503	1.705067	-0.000075
H139	H	0.159406	1.705004	0.036772
O140	O	0.556432	0.727499	0.122362
H141	H	0.496527	0.718859	0.163312
O142	O	1.174420	0.282801	-0.477524
H143	H	1.138111	0.291474	-0.386991
H144	H	1.037515	1.111949	-0.305980
O145	O	0.111072	1.195576	-0.025851
H146	H	0.083033	1.235479	0.061478
H147	H	1.037504	0.699193	0.106798
H148	H	0.891820	0.898335	-0.694068
O149	O	1.174467	0.282791	-0.122409
H150	H	1.206528	0.272984	-0.212908
H151	H	1.037543	0.699140	-0.519670
H152	H	0.433535	1.311152	-0.106866
O153	O	1.174416	0.527628	0.122371
H154	H	1.138112	0.618165	0.163328
H155	H	0.891819	0.485565	-0.106855
O156	O	0.442824	1.127603	0.522421
H157	H	0.406556	1.168534	0.612949
H158	H	0.305884	1.699283	0.106759
O159	O	0.556420	1.127620	-0.277701
H160	H	0.552312	1.192700	-0.231104
O161	O	0.296602	1.127658	0.722292
H162	H	0.332873	1.168610	0.713625
O163	O	1.247538	0.305280	0.000009
H164	H	1.266059	0.330784	0.050865
H165	H	1.165116	1.111960	-0.480382
H166	H	0.247534	1.166836	-0.036839
H167	H	1.228951	1.005143	-0.674453
H168	H	0.339650	1.041633	-0.161152
H169	H	0.305931	1.485566	-0.106887
O170	O	0.296541	0.882899	0.477595
H171	H	0.310019	0.817834	0.518602
O172	O	0.366590	0.808983	0.012192
H173	H	0.394666	0.721911	-0.028606
O174	O	0.238419	0.809235	0.013808
H175	H	0.161717	0.859519	0.083866
H176	H	0.433486	0.898394	0.305964
H177	H	0.182282	1.144595	0.165757
O178	O	0.297220	0.828693	-0.169997
H179	H	0.250373	0.889014	-0.192388
O180	O	0.914607	0.282826	-0.122435
H181	H	0.955920	0.273029	-0.088406
O182	O	0.045294	1.177755	0.173496
H183	H	0.027685	1.199428	0.111853
H184	H	0.891830	0.898305	-0.519649
O185	O	0.556421	1.127602	-0.477540
H186	H	0.570889	1.117704	-0.562364
H187	H	0.108755	1.011680	0.179922
