data_functionalizedCrystal
_audit_creation_method	'MofGen! by Chris Wilmer'
_symmetry_space_group_name_H-M	'P1'
_symmetry_Int_Tables_number	1
_symmetry_cell_setting	triclinic
loop_
_symmetry_equiv_pos_as_xyz
  x,y,z
_cell_length_a	14.853569
_cell_length_b	17.666332
_cell_length_c	14.853559
_cell_angle_alpha	89.993622
_cell_angle_beta	83.633509
_cell_angle_gamma	90.010635
loop_
_atom_site_label
_atom_site_type_symbol
_atom_site_fract_x
_atom_site_fract_y
_atom_site_fract_z
O1	O	1.196342	-0.062910	0.117718
O2	O	0.933883	-0.062919	0.131738
O3	O	1.072127	-0.062913	-0.006502
O4	O	1.058098	-0.062915	0.255959
O5	O	1.072151	0.062984	-0.006520
O6	O	0.933907	0.062978	0.131720
O7	O	1.196366	0.062987	0.117700
Cu8	Cu	1.065139	0.074478	0.124708
Cu9	Cu	1.065110	-0.074410	0.124730
O10	O	1.058122	0.062981	0.255940
C11	C	0.900306	0.000029	0.131094
C12	C	0.800222	0.000025	0.129189
C13	C	0.763848	0.000023	0.046178
C14	C	0.742554	0.000030	0.210411
C15	C	0.648520	0.000031	0.208625
C16	C	0.612146	0.000029	0.125614
C17	C	0.669806	0.000026	0.044389
C18	C	0.590853	0.000042	0.289848
C19	C	0.496812	0.000044	0.288065
C20	C	0.460437	0.000036	0.205053
C21	C	0.518103	0.000032	0.123825
C22	C	0.481729	0.000030	0.040813
C23	C	0.539394	0.000021	-0.040416
C24	C	0.633430	0.000019	-0.038623
C25	C	0.366401	0.000038	0.203260
C26	C	0.387687	0.000034	0.039024
N27	N	1.065091	-0.179129	0.124739
C28	C	1.119723	-0.218742	0.179624
C29	C	1.119729	-0.297989	0.179625
C30	C	1.065113	-0.337621	0.124724
C31	C	1.010470	-0.297999	0.069835
C32	C	1.010459	-0.218753	0.069843
N33	N	1.062769	-0.462034	0.045707
N34	N	1.062785	-0.537314	0.045702
C35	C	1.065142	-0.576385	0.124699
N36	N	1.067500	-0.537332	0.203703
N37	N	1.067489	-0.462044	0.203706
C38	C	1.065119	-0.423550	0.124710
C39	C	1.119783	-0.701927	0.179590
C40	C	1.119782	-0.781176	0.179593
C41	C	1.010529	-0.781185	0.069795
C42	C	1.010524	-0.701937	0.069801
C43	C	1.065156	-0.662313	0.124697
C44	C	1.229943	0.000038	0.118345
C45	C	1.330027	0.000036	0.120249
C46	C	1.071505	0.000034	-0.040100
C47	C	1.069604	0.000029	-0.140184
N48	N	1.065165	0.179197	0.124693
C49	C	1.061527	-0.068597	-0.563349
C50	C	1.061553	0.068660	-0.563364
C51	C	1.063347	0.068661	-0.469331
C52	C	1.064229	0.000032	-0.422302
C53	C	1.063318	-0.068599	-0.469307
C54	C	1.064249	0.137290	-0.422317
C55	C	1.066041	0.137293	-0.328278
C56	C	1.066930	0.068663	-0.281249
C57	C	1.066020	0.000030	-0.328260
C58	C	1.066902	-0.068599	-0.281231
C59	C	1.065999	-0.137233	-0.328241
C60	C	1.064207	-0.137229	-0.422278
C61	C	1.068722	0.068659	-0.187212
C62	C	1.068693	-0.068601	-0.187189
C63	C	1.058744	0.000033	0.289538
C64	C	1.060645	0.000032	0.389622
H65	H	1.164207	-0.186485	0.224326
H66	H	0.358079	0.000028	-0.028574
N67	N	0.951565	-0.340739	0.010617
H68	H	0.959866	-0.396953	0.018936
H69	H	0.969422	-0.326869	-0.054896
H70	H	0.966055	-0.813452	0.025099
H71	H	0.772176	0.000037	0.277995
N72	N	1.063303	0.211306	-0.473042
H73	H	1.064145	0.254783	-0.428994
H74	H	1.006719	0.214291	-0.504823
H75	H	1.063470	-0.193107	-0.460561
N76	N	1.178654	-0.340727	0.238825
H77	H	1.213259	-0.303600	0.273603
H78	H	1.222742	-0.373589	0.199663
N79	N	1.060608	0.142678	-0.614083
H80	H	1.116771	0.172678	-0.604959
H81	H	1.005050	0.172623	-0.590455
N82	N	0.630080	0.000046	0.379377
H83	H	0.668641	0.046712	0.383765
H84	H	0.668559	-0.046659	0.383734
H85	H	0.449869	0.000050	0.354207
N86	N	1.060552	-0.142620	-0.614047
H87	H	1.061383	-0.186094	-0.569983
H88	H	1.115656	-0.145604	-0.660299
N89	N	0.951616	-0.659210	0.010583
H90	H	0.907463	-0.626345	0.049673
H91	H	0.917082	-0.696390	-0.024188
H92	H	0.319454	0.000053	0.269396
N93	N	0.695622	0.000022	-0.126229
H94	H	0.683905	-0.046648	-0.162434
H95	H	0.760686	0.000055	-0.112423
N96	N	1.067032	0.211314	-0.277578
H97	H	1.011937	0.214376	-0.231318
H98	H	1.066236	0.254746	-0.321701
H99	H	0.810803	0.000013	-0.019956
N100	N	1.069704	0.142672	-0.136504
H101	H	1.014607	0.145727	-0.090245
H102	H	1.068903	0.186108	-0.180623
N103	N	0.500159	0.000031	-0.129948
H104	H	0.431837	0.000040	-0.118749
H105	H	0.521220	-0.046643	-0.165490
H106	H	1.066710	-0.193111	-0.289937
N107	N	0.951542	-0.176022	0.010633
H108	H	0.916944	-0.213151	-0.024149
H109	H	0.990879	-0.143133	-0.033298
N110	N	1.178698	-0.659183	0.238801
H111	H	1.213303	-0.696305	0.273578
H112	H	1.139363	-0.626317	0.282736
N113	N	1.178709	-0.823905	0.238794
H114	H	1.213317	-0.786776	0.273566
H115	H	1.222796	-0.856769	0.199631
H116	H	1.069416	-0.124488	-0.148905
