data_functionalizedCrystal
_audit_creation_method	'MofGen! by Chris Wilmer'
_symmetry_space_group_name_H-M	'P1'
_symmetry_Int_Tables_number	1
_symmetry_cell_setting	triclinic
loop_
_symmetry_equiv_pos_as_xyz
  x,y,z
_cell_length_a	16.793024
_cell_length_b	16.793047
_cell_length_c	33.586455
_cell_angle_alpha	113.253857
_cell_angle_beta	66.219990
_cell_angle_gamma	112.758327
loop_
_atom_site_label
_atom_site_type_symbol
_atom_site_fract_x
_atom_site_fract_y
_atom_site_fract_z
O1	O	0.005016	-0.570216	-0.583573
O2	O	-0.034529	-0.474528	-0.453458
O3	O	0.114723	-0.474535	-0.528082
O4	O	-0.144235	-0.570209	-0.508949
O5	O	0.108729	-0.346329	-0.530229
O6	O	-0.040523	-0.346322	-0.455605
O7	O	-0.000977	-0.442010	-0.585721
Cu8	Cu	-0.021297	-0.382459	-0.520859
Cu9	Cu	-0.014209	-0.534079	-0.518320
O10	O	-0.150229	-0.442003	-0.511097
C11	C	0.005100	-0.790970	-0.238461
C12	C	-0.040584	-0.395375	-0.435637
C13	C	-0.044693	-0.353446	-0.386631
C14	C	-0.039275	-0.401741	-0.363054
C15	C	-0.040566	-0.125547	-0.300731
C16	C	-0.044689	-0.223451	-0.321635
C17	C	-0.039266	-0.270752	-0.297563
C18	C	0.005118	-0.521142	-0.103554
C19	C	-0.046224	-0.263935	-0.366370
C20	C	-0.036476	-0.360146	-0.318399
C21	C	-0.030850	-0.408530	-0.294565
C22	C	-0.028014	-0.367522	-0.249895
C23	C	-0.030804	-0.278128	-0.229058
C24	C	-0.036430	-0.229743	-0.252892
C25	C	-0.027971	-0.237122	-0.184383
C26	C	-0.022345	-0.285507	-0.160550
C27	C	-0.019555	-0.374900	-0.181386
C28	C	-0.022391	-0.415909	-0.226057
C29	C	-0.019601	-0.505302	-0.246894
C30	C	-0.013975	-0.553687	-0.223060
C31	C	-0.011142	-0.512684	-0.178391
C32	C	-0.013932	-0.423291	-0.157554
C33	C	-0.005516	-0.561069	-0.154557
C34	C	-0.002726	-0.650463	-0.175394
C35	C	-0.005562	-0.691471	-0.220064
C36	C	-0.011185	-0.643081	-0.243897
C37	C	-0.022434	-0.546309	-0.291568
C38	C	-0.019644	-0.635702	-0.312405
C39	C	-0.014021	-0.684089	-0.288567
C40	C	-0.022480	-0.676711	-0.357076
C41	C	-0.028106	-0.628326	-0.380910
C42	C	-0.030896	-0.538933	-0.360073
C43	C	-0.028060	-0.497924	-0.315402
C44	C	-0.036522	-0.490548	-0.383907
C45	C	0.815184	-0.521162	-0.508596
C46	C	0.415541	-0.125553	-0.528781
C47	C	0.375032	-0.223457	-0.531493
C48	C	0.423813	-0.270761	-0.529101
C49	C	0.149318	-0.395376	-0.530584
C50	C	0.246774	-0.353455	-0.532364
C51	C	0.294574	-0.401748	-0.529976
C52	C	0.548961	-0.790984	-0.510398
C53	C	0.286104	-0.263940	-0.532530
C54	C	0.383336	-0.360149	-0.528302
C55	C	0.432207	-0.407971	-0.525810
C56	C	0.392316	-0.497392	-0.524993
C57	C	0.303554	-0.538991	-0.526667
C58	C	0.254683	-0.491169	-0.529159
C59	C	0.263666	-0.628421	-0.525851
C60	C	0.312537	-0.676243	-0.523359
C61	C	0.401299	-0.634644	-0.521685
C62	C	0.441190	-0.545223	-0.522502
C63	C	0.529952	-0.503624	-0.520828
C64	C	0.578823	-0.551446	-0.518336
C65	C	0.538939	-0.640864	-0.517520
C66	C	0.450177	-0.682463	-0.519194
C67	C	0.587810	-0.688687	-0.515028
C68	C	0.676572	-0.647088	-0.513354
C69	C	0.716463	-0.557666	-0.514172
C70	C	0.667586	-0.509847	-0.516662
C71	C	0.569840	-0.414195	-0.521644
C72	C	0.658602	-0.372596	-0.519970
C73	C	0.707476	-0.420426	-0.517480
C74	C	0.698493	-0.283174	-0.520788
C75	C	0.649622	-0.235352	-0.523280
C76	C	0.560860	-0.276951	-0.524954
C77	C	0.520969	-0.366372	-0.524136
C78	C	0.511989	-0.229129	-0.527446
C79	C	-0.040530	-0.395407	-0.935652
C80	C	0.005063	-0.791004	-0.738448
C81	C	0.009186	-0.693099	-0.717543
C82	C	0.003779	-0.645796	-0.741620
C83	C	0.005077	-0.521171	-0.603544
C84	C	0.009198	-0.563096	-0.652550
C85	C	0.003786	-0.514804	-0.676131
C86	C	-0.040516	-0.125574	-0.800747
C87	C	0.010719	-0.652613	-0.672809
C88	C	0.000994	-0.556406	-0.720789
C89	C	-0.004621	-0.508585	-0.744908
C90	C	-0.007444	-0.419162	-0.724369
C91	C	-0.004651	-0.377560	-0.679711
C92	C	0.000964	-0.425381	-0.655592
C93	C	-0.007471	-0.288129	-0.659174
C94	C	-0.013086	-0.240308	-0.683293
C95	C	-0.015878	-0.281910	-0.727951
C96	C	-0.013056	-0.371333	-0.748490
C97	C	-0.015848	-0.412935	-0.793148
C98	C	-0.021463	-0.365114	-0.817267
C99	C	-0.024282	-0.275694	-0.796731
C100	C	-0.021490	-0.234092	-0.752073
C101	C	-0.029897	-0.227873	-0.820850
C102	C	-0.032690	-0.269476	-0.865508
C103	C	-0.029867	-0.358899	-0.886047
C104	C	-0.024255	-0.406717	-0.861925
C105	C	-0.013028	-0.502367	-0.813685
C106	C	-0.015821	-0.543969	-0.858343
C107	C	-0.021433	-0.496140	-0.882464
C108	C	-0.012998	-0.633392	-0.878882
C109	C	-0.007383	-0.681213	-0.854763
C110	C	-0.004591	-0.639611	-0.810105
C111	C	-0.007414	-0.550188	-0.789566
C112	C	0.001024	-0.687432	-0.785986
O113	O	-0.000965	0.173549	-0.277957
O114	O	-0.040516	-0.085616	-0.325254
O115	O	0.108737	0.059592	-0.327284
O116	O	-0.150219	0.028341	-0.275927
O117	O	0.114753	0.055151	-0.263265
O118	O	-0.034500	-0.090057	-0.261234
O119	O	0.005051	0.169108	-0.213937
Cu120	Cu	-0.014175	0.039120	-0.231740
Cu121	Cu	-0.021290	0.044372	-0.307451
O122	O	-0.144202	0.023900	-0.211907
O123	O	-0.034458	-0.474571	0.046517
O124	O	0.005076	-0.570190	-0.083599
O125	O	-0.144170	-0.570237	-0.008972
O126	O	0.114787	-0.474523	-0.028110
O127	O	-0.150200	-0.442024	-0.011093
O128	O	-0.000954	-0.441976	-0.085720
O129	O	-0.040488	-0.346357	0.044396
Cu130	Cu	-0.021272	-0.382460	-0.020856
Cu131	Cu	-0.014141	-0.534087	-0.018347
O132	O	0.108757	-0.346309	-0.030231
C133	C	-0.850734	0.086244	-0.289716
C134	C	-0.450996	0.035117	-0.097351
C135	C	-0.410501	0.028587	-0.146852
C136	C	-0.459292	0.034683	-0.169840
C137	C	-0.184802	0.024283	-0.235878
C138	C	-0.282257	0.023363	-0.213592
C139	C	-0.330068	0.029423	-0.237088
C140	C	-0.584541	0.075410	-0.428242
C141	C	-0.321573	0.024104	-0.168302
C142	C	-0.418828	0.035176	-0.215083
C143	C	-0.467711	0.041476	-0.238329
C144	C	-0.427833	0.042022	-0.283580
C145	C	-0.339073	0.036269	-0.305586
C146	C	-0.290190	0.029970	-0.282340
C147	C	-0.299198	0.036812	-0.350842
C148	C	-0.348081	0.043111	-0.374088
C149	C	-0.436841	0.048864	-0.352082
C150	C	-0.476719	0.048318	-0.306830
C151	C	-0.565480	0.054071	-0.284825
C152	C	-0.614362	0.060370	-0.308071
C153	C	-0.574491	0.060913	-0.353321
C154	C	-0.485730	0.055160	-0.375326
C155	C	-0.623374	0.067212	-0.376567
C156	C	-0.712134	0.072965	-0.354561
C157	C	-0.752012	0.072419	-0.309309
C158	C	-0.703123	0.066123	-0.286065
C159	C	-0.605355	0.053528	-0.239569
C160	C	-0.694115	0.059281	-0.217564
C161	C	-0.743001	0.065577	-0.240813
C162	C	-0.733993	0.058735	-0.172312
C163	C	-0.685110	0.052436	-0.149066
C164	C	-0.596350	0.046683	-0.171072
C165	C	-0.556472	0.047229	-0.216323
C166	C	-0.547467	0.040383	-0.147826
O167	O	0.585213	0.169090	-0.504004
O168	O	0.494056	-0.090076	-0.525516
O169	O	0.488081	0.055124	-0.449918
O170	O	0.591189	0.023889	-0.579602
O171	O	0.359978	0.059584	-0.452885
O172	O	0.365953	-0.085616	-0.528483
O173	O	0.457110	0.173550	-0.506971
Cu174	Cu	0.399835	0.044374	-0.517998
Cu175	Cu	0.551332	0.039099	-0.514489
O176	O	0.463086	0.028349	-0.582569
C177	C	0.815354	-0.521094	-0.008709
C178	C	0.415547	-0.125494	-0.028771
C179	C	0.375059	-0.223405	-0.031498
C180	C	0.423859	-0.270708	-0.029121
C181	C	0.149365	-0.395355	-0.030599
C182	C	0.246820	-0.353421	-0.032381
C183	C	0.294640	-0.401713	-0.030008
C184	C	0.549171	-0.790955	-0.010537
C185	C	0.286131	-0.263897	-0.032533
C186	C	0.383402	-0.360104	-0.028335
C187	C	0.432293	-0.407926	-0.025859
C188	C	0.392422	-0.497356	-0.025055
C189	C	0.303660	-0.538965	-0.026727
C190	C	0.254769	-0.491143	-0.029204
C191	C	0.263791	-0.628403	-0.025925
C192	C	0.312683	-0.676224	-0.023448
C193	C	0.401445	-0.634615	-0.021775
C194	C	0.441316	-0.545185	-0.022579
C195	C	0.530078	-0.503576	-0.020906
C196	C	0.578969	-0.551398	-0.018429
C197	C	0.539104	-0.640825	-0.017627
C198	C	0.450342	-0.682434	-0.019300
C199	C	0.587995	-0.688646	-0.015150
C200	C	0.676757	-0.647037	-0.013477
C201	C	0.716628	-0.557607	-0.014281
C202	C	0.667731	-0.509789	-0.016757
C203	C	0.569946	-0.414138	-0.021709
C204	C	0.658708	-0.372530	-0.020036
C205	C	0.707602	-0.420359	-0.017561
C206	C	0.698579	-0.283100	-0.020840
C207	C	0.649688	-0.235278	-0.023317
C208	C	0.560926	-0.276887	-0.024990
C209	C	0.521055	-0.366317	-0.024186
C210	C	0.512035	-0.229066	-0.027467
O211	O	-0.620614	0.089309	0.052274
O212	O	-0.529507	0.043784	-0.078544
O213	O	-0.523494	0.194833	-0.006033
O214	O	-0.626628	-0.061740	-0.020236
O215	O	-0.395386	0.185419	-0.005549
O216	O	-0.401400	0.034370	-0.078059
O217	O	-0.492507	0.079895	0.052758
Cu218	Cu	-0.435256	0.056273	-0.012607
Cu219	Cu	-0.586758	0.067406	-0.013179
O220	O	-0.498521	-0.071154	-0.019752
C221	C	-0.437537	0.048335	0.402491
C222	C	-0.837226	0.099430	0.210091
C223	C	-0.739773	0.100339	0.187806
C224	C	-0.691967	0.094287	0.211308
C225	C	-0.571027	0.088563	0.071568
C226	C	-0.611521	0.095108	0.121070
C227	C	-0.562739	0.089011	0.144061
C228	C	-0.171338	0.037467	0.263967
C229	C	-0.700452	0.099593	0.142516
C230	C	-0.603213	0.088528	0.189308
C231	C	-0.554892	0.082255	0.212848
C232	C	-0.466098	0.076466	0.191141
C233	C	-0.425624	0.076949	0.145894
C234	C	-0.473945	0.083222	0.122354
C235	C	-0.336822	0.071163	0.124188
C236	C	-0.288502	0.064890	0.147728
C237	C	-0.328975	0.064407	0.192975
C238	C	-0.417770	0.070196	0.214682
C239	C	-0.458244	0.069713	0.259929
C240	C	-0.409923	0.063441	0.283469
C241	C	-0.321132	0.057655	0.261765
C242	C	-0.280658	0.058138	0.216518
C243	C	-0.272811	0.051382	0.285305
C244	C	-0.313285	0.050899	0.330552
C245	C	-0.402079	0.056688	0.352259
C246	C	-0.450397	0.062957	0.328716
C247	C	-0.547046	0.075500	0.281635
C248	C	-0.587520	0.075016	0.326882
C249	C	-0.539191	0.068747	0.350423
C250	C	-0.676314	0.080806	0.348589
C251	C	-0.724634	0.087078	0.325049
C252	C	-0.684160	0.087561	0.279802
C253	C	-0.595366	0.081772	0.258095
C254	C	-0.732481	0.093834	0.256262
O255	O	-0.040608	-1.085661	-0.825229
O256	O	-0.001018	-0.826491	-0.777938
O257	O	-0.150287	-0.971682	-0.775894
O258	O	0.108661	-0.940470	-0.827272
O259	O	-0.144253	-0.976123	-0.711878
O260	O	0.005016	-0.830932	-0.713922
O261	O	-0.034575	-1.090102	-0.761213
Cu262	Cu	-0.014228	-0.960923	-0.731722
Cu263	Cu	-0.021364	-0.955670	-0.807428
O264	O	0.114695	-0.944911	-0.763256
O265	O	-0.049243	-0.216379	-0.390196
C266	C	0.024043	-0.159524	-0.455515
C267	C	0.027559	-0.213421	-0.428581
H268	H	0.086139	-0.157099	-0.486550
H269	H	-0.039639	-0.193429	-0.466872
H270	H	0.023050	-0.088083	-0.433041
H271	H	0.028587	-0.284868	-0.451028
H272	H	0.091234	-0.179444	-0.417219
O273	O	-0.309173	0.043801	-0.418203
C274	C	-0.263849	0.125245	-0.472401
C275	C	-0.307907	0.124586	-0.422423
H276	H	-0.262828	0.190544	-0.475831
H277	H	-0.191690	0.120089	-0.484202
H278	H	-0.304472	0.065547	-0.494178
H279	H	-0.267356	0.184275	-0.400611
H280	H	-0.380073	0.129696	-0.410659
H281	H	0.710969	-0.684436	-0.006165
H282	H	-0.281187	0.020914	-0.148901
H283	H	-0.217624	0.025258	-0.300336
H284	H	-0.303725	0.071562	0.087197
O285	O	-0.004919	-0.247676	-0.615586
C286	C	-0.076485	-0.248908	-0.537487
C287	C	-0.079439	-0.294834	-0.586838
H288	H	-0.136737	-0.287005	-0.514229
H289	H	-0.011100	-0.249182	-0.534752
H290	H	-0.079459	-0.176486	-0.526942
H291	H	-0.076499	-0.367274	-0.597415
H292	H	-0.144819	-0.294488	-0.589546
O293	O	0.013727	-0.700348	-0.649069
C294	C	-0.059582	-0.828994	-0.619642
C295	C	-0.063085	-0.775030	-0.646547
H296	H	-0.121686	-0.889375	-0.617586
H297	H	0.004093	-0.853442	-0.637454
H298	H	-0.058586	-0.784067	-0.583936
H299	H	-0.064116	-0.819901	-0.682255
H300	H	-0.126752	-0.750571	-0.628699
H301	H	-0.015393	-0.167196	-0.666497
O302	O	-0.820543	0.064396	-0.150772
C303	C	-0.943484	0.068910	-0.081325
C304	C	-0.845463	0.062493	-0.105664
H305	H	-0.963668	0.067354	-0.044854
H306	H	-0.948825	0.134522	-0.081362
H307	H	-0.990552	0.009533	-0.099757
H308	H	-0.798335	0.121821	-0.087251
H309	H	-0.840196	-0.003156	-0.105632
H310	H	0.003251	-0.391359	-0.619081
H311	H	0.191224	-0.662427	-0.027294
H312	H	-0.580066	0.039960	-0.110823
O313	O	-0.811181	0.092916	0.346260
C314	C	-0.911080	0.176811	0.407839
C315	C	-0.813034	0.170296	0.383858
H316	H	-0.912613	0.239358	0.438248
H317	H	-0.938777	0.181472	0.383162
H318	H	-0.954449	0.114379	0.419880
H319	H	-0.769594	0.232710	0.371816
H320	H	-0.785410	0.165591	0.408551
O321	O	-0.011347	-0.383277	-0.113953
C322	C	-0.087348	-0.309576	-0.037667
C323	C	-0.090390	-0.354894	-0.087024
H324	H	-0.151238	-0.286599	-0.015882
H325	H	-0.082894	-0.359676	-0.024105
H326	H	-0.025617	-0.248842	-0.036481
H327	H	-0.152115	-0.415621	-0.088249
H328	H	-0.094797	-0.304734	-0.100565
O329	O	-0.015585	-0.674023	-0.922461
C330	C	0.060507	-0.748297	-0.998592
C331	C	0.063545	-0.702324	-0.949256
H332	H	0.124484	-0.771175	-1.020272
H333	H	-0.001139	-0.809141	-0.999696
H334	H	0.055947	-0.698547	-1.012340
H335	H	0.068137	-0.752005	-0.935478
H336	H	0.125180	-0.641467	-0.948182
H337	H	-0.572284	0.068372	0.387422
H338	H	0.245727	-0.224039	-0.533582
O339	O	0.273657	-0.763415	-0.022610
C340	C	0.152486	-0.867171	0.016450
C341	C	0.196576	-0.768395	0.015548
H342	H	0.090169	-0.871229	0.047303
H343	H	0.131783	-0.909098	-0.015764
H344	H	0.202913	-0.894309	0.018493
H345	H	0.146197	-0.741176	0.013522
H346	H	0.217299	-0.726531	0.047762
H347	H	-0.709407	0.080425	0.385586
O348	O	-0.723944	0.051777	-0.104943
C349	C	-0.769370	-0.029717	-0.050754
C350	C	-0.725355	-0.029078	-0.100736
H351	H	-0.770543	-0.095090	-0.047339
H352	H	-0.728736	0.029902	-0.028953
H353	H	-0.841484	-0.024455	-0.038973
H354	H	-0.653245	-0.034369	-0.112559
H355	H	-0.766057	-0.088688	-0.122508
O356	O	-0.201886	0.059295	0.126494
C357	C	-0.078277	0.054620	0.057310
C358	C	-0.176367	0.060987	0.081305
H359	H	-0.057621	0.055967	0.020768
H360	H	-0.031400	0.114049	0.075836
H361	H	-0.073214	-0.010942	0.057556
H362	H	-0.181517	0.126512	0.081065
H363	H	-0.223198	0.001511	0.062772
H364	H	0.012418	-0.684570	-0.156900
O365	O	-0.004660	-0.768456	-0.874720
C366	C	0.004103	-0.900719	-0.866432
C367	C	0.001001	-0.801932	-0.843771
H368	H	0.008701	-0.927808	-0.841423
H369	H	-0.059816	-0.942683	-0.877012
H370	H	0.065793	-0.904777	-0.897655
H371	H	-0.060647	-0.797788	-0.812533
H372	H	0.064963	-0.760013	-0.833225
H373	H	-0.208057	0.053400	0.198770
H374	H	0.191099	-0.662437	-0.527221
H375	H	-0.038719	-0.156659	-0.235851
H376	H	-0.020027	-0.251971	-0.124027
O377	O	-0.212620	0.031248	-0.372366
C378	C	-0.089706	0.026671	-0.441825
C379	C	-0.187757	0.033001	-0.417496
H380	H	-0.069580	0.028066	-0.478319
H381	H	-0.042582	0.086090	-0.423443
H382	H	-0.084390	-0.038902	-0.441728
H383	H	-0.193160	0.098536	-0.417587
H384	H	-0.234835	-0.026465	-0.435886
O385	O	-0.752815	0.091656	-0.376328
C386	C	-0.749605	0.196741	-0.409647
C387	C	-0.703431	0.175674	-0.385010
H388	H	-0.709708	0.264678	-0.416666
H389	H	-0.751974	0.142051	-0.443085
H390	H	-0.821366	0.199114	-0.387397
H391	H	-0.631651	0.173315	-0.407224
H392	H	-0.701134	0.230369	-0.351568
O393	O	-0.748488	0.103507	0.119332
C394	C	-0.759392	0.185219	0.077559
C395	C	-0.704892	0.180886	0.103795
H396	H	-0.724177	0.247784	0.064998
H397	H	-0.764112	0.122606	0.047340
H398	H	-0.830281	0.188501	0.100946
H399	H	-0.633978	0.177633	0.080445
H400	H	-0.700247	0.243497	0.134018
O401	O	-0.434346	0.083638	0.078217
C402	C	-0.300466	0.077732	0.014036
C403	C	-0.345207	0.077239	0.064021
H404	H	-0.228384	0.072578	0.002545
H405	H	-0.340758	0.018028	-0.007899
H406	H	-0.299120	0.143027	0.010466
H407	H	-0.346561	0.011985	0.067633
H408	H	-0.304900	0.136987	0.085931
O409	O	0.688709	-0.148050	-0.024093
C410	C	0.821945	-0.022557	-0.022882
C411	C	0.777879	-0.121359	-0.022025
H412	H	0.894039	-0.000942	-0.021201
H413	H	0.823140	-0.015600	-0.055552
H414	H	0.781244	0.022039	0.007508
H415	H	0.818543	-0.166016	-0.052392
H416	H	0.776670	-0.128244	0.010665
H417	H	-0.275840	0.035205	0.347100
H418	H	-0.815575	0.070280	-0.222817
O419	O	0.273768	-0.763506	-0.522621
C420	C	0.280014	-0.917496	-0.559344
C421	C	0.324022	-0.818706	-0.560230
H422	H	0.320614	-0.962156	-0.589752
H423	H	0.278927	-0.924404	-0.526685
H424	H	0.207871	-0.939070	-0.560953
H425	H	0.396181	-0.797067	-0.558638
H426	H	0.325038	-0.811853	-0.592888
H427	H	-0.023809	-0.160979	-0.735279
O428	O	-0.011426	-0.771318	-0.308918
C429	C	-0.087516	-0.921531	-0.345017
C430	C	-0.090560	-0.822776	-0.321993
H431	H	-0.151496	-0.963167	-0.355586
H432	H	-0.025875	-0.925407	-0.376275
H433	H	-0.082946	-0.949140	-0.320203
H434	H	-0.095163	-0.795105	-0.346772
H435	H	-0.152191	-0.818959	-0.290728
H436	H	-0.030255	-0.164038	-0.167345
O437	O	0.237853	-0.216284	-0.033688
C438	C	0.106262	-0.159736	0.003281
C439	C	0.160865	-0.213657	0.004647
H440	H	0.043996	-0.157611	0.034266
H441	H	0.150094	-0.088192	0.003398
H442	H	0.084243	-0.193545	-0.028856
H443	H	0.182894	-0.179925	0.036779
H444	H	0.117000	-0.285200	0.004506
H445	H	0.771156	-0.249077	-0.019476
H446	H	0.417564	-0.755580	-0.518528
H447	H	-0.805083	0.098565	0.274011
O448	O	-0.050895	-0.224968	-0.885609
C449	C	-0.150526	-0.226477	-0.921372
C450	C	-0.130026	-0.276968	-0.898608
H451	H	-0.214492	-0.268505	-0.931897
H452	H	-0.160775	-0.159005	-0.896459
H453	H	-0.091436	-0.214562	-0.952643
H454	H	-0.189087	-0.288948	-0.867339
H455	H	-0.119741	-0.344405	-0.923551
H456	H	0.182201	-0.525171	-0.030575
O457	O	-0.030880	-0.668464	-0.424477
C458	C	-0.030222	-0.803431	-0.487212
C459	C	-0.027107	-0.758093	-0.437866
H460	H	-0.027153	-0.875897	-0.498056
H461	H	-0.095681	-0.802950	-0.489778
H462	H	0.029933	-0.764979	-0.510346
H463	H	-0.087216	-0.796510	-0.414703
H464	H	0.038391	-0.758563	-0.435337
H465	H	-0.020209	-0.749804	-0.374113
O466	O	0.717498	-0.691559	-0.504607
C467	C	0.852506	-0.689382	-0.494463
C468	C	0.806259	-0.638913	-0.504362
H469	H	0.924283	-0.646847	-0.494271
H470	H	0.812649	-0.702399	-0.459964
H471	H	0.854837	-0.756302	-0.521860
H472	H	0.803918	-0.571963	-0.476993
H473	H	0.846132	-0.625966	-0.538874
H474	H	-0.038841	-0.524079	-0.420431
H475	H	0.182115	-0.525189	-0.530531
H476	H	-0.023718	-0.530163	-0.918978
H477	H	0.780052	-0.386407	-0.516111
H478	H	-0.453130	0.055597	-0.412328
H479	H	0.003321	-0.760550	-0.802778
H480	H	0.771070	-0.249160	-0.519423
H481	H	0.417746	-0.755558	-0.018645
O482	O	0.688662	-0.148132	-0.524069
C483	C	0.821915	-0.022658	-0.522869
C484	C	0.777827	-0.121451	-0.521996
H485	H	0.894006	-0.001050	-0.521184
H486	H	0.823123	-0.015719	-0.555545
H487	H	0.781221	0.021955	-0.492487
H488	H	0.818485	-0.166125	-0.552356
H489	H	0.776606	-0.128318	-0.489300
H490	H	0.544602	-0.156012	-0.528109
H491	H	0.780178	-0.386331	-0.016193
H492	H	0.544632	-0.155941	-0.028119
