data_functionalizedCrystal
_audit_creation_method	'MofGen! by Chris Wilmer'
_symmetry_space_group_name_H-M	'P1'
_symmetry_Int_Tables_number	1
_symmetry_cell_setting	triclinic
loop_
_symmetry_equiv_pos_as_xyz
  x,y,z
_cell_length_a	16.959455
_cell_length_b	19.121063
_cell_length_c	16.959447
_cell_angle_alpha	92.406624
_cell_angle_beta	89.979626
_cell_angle_gamma	92.466224
loop_
_atom_site_label
_atom_site_type_symbol
_atom_site_fract_x
_atom_site_fract_y
_atom_site_fract_z
Zn1	Zn	1.194915	-0.279655	-0.460438
Zn2	Zn	1.694915	0.220345	0.039562
Zn3	Zn	1.189180	-0.397115	-0.333888
Zn4	Zn	1.689180	0.102885	0.166112
Zn5	Zn	1.062742	-0.279677	-0.328262
Zn6	Zn	1.562742	0.220323	0.171738
Zn7	Zn	1.057054	-0.397063	-0.466010
Zn8	Zn	1.557054	0.102937	0.033990
O9	O	1.125973	-0.338378	-0.397150
O10	O	1.625973	0.161622	0.102850
O11	O	1.304765	-0.295249	-0.443673
O12	O	1.804765	0.204751	0.056327
O13	O	1.172389	-0.381568	-0.222533
O14	O	1.672389	0.118432	0.277467
O15	O	1.085056	-0.181390	-0.341109
O16	O	1.585056	0.318610	0.158891
O17	O	1.300551	-0.381547	-0.350698
O18	O	1.800551	0.118453	0.149302
O19	O	1.182163	-0.181374	-0.438218
O20	O	1.682163	0.318626	0.061782
O21	O	1.079496	-0.295287	-0.218399
O22	O	1.579496	0.204713	0.281601
O23	O	0.951378	-0.295236	-0.346513
O24	O	1.451378	0.204764	0.153487
O25	O	1.075360	-0.381457	-0.575881
O26	O	1.575360	0.118543	-0.075881
O27	O	0.947198	-0.381479	-0.447715
O28	O	1.447198	0.118521	0.052285
O29	O	1.176647	-0.295198	-0.571787
O30	O	1.676647	0.204802	-0.071787
O31	O	1.166873	-0.495393	-0.356101
O32	O	1.666873	0.004607	0.143899
O33	O	1.069800	-0.495354	-0.453171
O34	O	1.569800	0.004646	0.046829
C35	C	0.920608	-0.338355	-0.397109
C36	C	1.420608	0.161645	0.102891
C37	C	0.832751	-0.338362	-0.397111
C38	C	1.332751	0.161638	0.102889
C39	C	0.459072	-0.383268	-0.348709
C40	C	0.959072	0.116732	0.151291
C41	C	0.463474	-0.293545	-0.445689
C42	C	0.963474	0.206455	0.054311
C43	C	0.546020	-0.293534	-0.445669
C44	C	1.046020	0.206466	0.054331
C45	C	0.585096	-0.338391	-0.397170
C46	C	1.085096	0.161609	0.102830
C47	C	0.541626	-0.383260	-0.348690
C48	C	1.041626	0.116740	0.151310
C49	C	0.589497	-0.248671	-0.494154
C50	C	1.089497	0.251329	0.005846
C51	C	0.672048	-0.248658	-0.494137
C52	C	1.172048	0.251342	0.005863
C53	C	0.711126	-0.293512	-0.445632
C54	C	1.211126	0.206488	0.054368
C55	C	0.667650	-0.338382	-0.397150
C56	C	1.167650	0.161618	0.102850
C57	C	0.706726	-0.383239	-0.348651
C58	C	1.206726	0.116761	0.151349
C59	C	0.663252	-0.428106	-0.300164
C60	C	1.163252	0.071894	0.199836
C61	C	0.580704	-0.428114	-0.300186
C62	C	1.080704	0.071886	0.199814
C63	C	0.793675	-0.293505	-0.445610
C64	C	1.293675	0.206495	0.054390
C65	C	0.789280	-0.383231	-0.348631
C66	C	1.289280	0.116769	0.151369
C67	C	1.117118	-0.520857	-0.405868
C68	C	1.617118	-0.020857	0.094132
C69	C	1.113402	-0.598923	-0.409624
C70	C	1.613402	-0.098923	0.090376
C71	C	1.162236	-0.635595	-0.360892
C72	C	1.662236	-0.135595	0.139108
C73	C	1.158746	-0.708946	-0.364429
C74	C	1.658746	-0.208946	0.135571
C75	C	1.106418	-0.745624	-0.416696
C76	C	1.606418	-0.245624	0.083304
C77	C	1.057581	-0.708947	-0.465433
C78	C	1.557581	-0.208947	0.034567
C79	C	1.061076	-0.635597	-0.461899
C80	C	1.561076	-0.135597	0.038101
C81	C	1.093339	-0.967092	-0.429896
C82	C	1.593339	-0.467092	0.070104
C83	C	1.089847	-1.040447	-0.433424
C84	C	1.589847	-0.540447	0.066576
C85	C	1.191013	-1.040442	-0.332421
C86	C	1.691013	-0.540442	0.167579
C87	C	1.194500	-0.967091	-0.328888
C88	C	1.694500	-0.467091	0.171112
C89	C	1.145667	-0.930420	-0.377629
C90	C	1.645667	-0.430420	0.122371
C91	C	1.102847	-0.820600	-0.420311
C92	C	1.602847	-0.320600	0.079689
C93	C	1.149242	-0.855445	-0.374017
C94	C	1.649242	-0.355445	0.125983
C95	C	1.332140	-0.338401	-0.397191
C96	C	1.832140	0.161599	0.102809
C97	C	1.419996	-0.338411	-0.397209
C98	C	1.919996	0.161589	0.102791
C99	C	1.126009	-0.338319	-0.603315
C100	C	1.626009	0.161681	-0.103315
C101	C	1.126024	-0.338295	-0.691171
C102	C	1.626024	0.161705	-0.191171
C103	C	1.134884	-0.155185	-0.388415
C104	C	1.634884	0.344815	0.111585
C105	C	1.138681	-0.077119	-0.384692
C106	C	1.638681	0.422881	0.115308
C107	C	1.073387	-0.383132	-1.064777
C108	C	1.573387	0.116868	-0.564777
C109	C	1.178857	-0.293309	-1.060509
C110	C	1.678857	0.206691	-0.560509
C111	C	1.178835	-0.293324	-0.977964
C112	C	1.678835	0.206676	-0.477964
C113	C	1.126089	-0.338244	-0.938821
C114	C	1.626089	0.161756	-0.438821
C115	C	1.073365	-0.383150	-0.982224
C116	C	1.573365	0.116850	-0.482224
C117	C	1.231564	-0.248425	-0.934555
C118	C	1.731564	0.251575	-0.434555
C119	C	1.231545	-0.248438	-0.852005
C120	C	1.731545	0.251562	-0.352005
C121	C	1.178794	-0.293356	-0.812861
C122	C	1.678794	0.206644	-0.312861
C123	C	1.126067	-0.338262	-0.856269
C124	C	1.626067	0.161738	-0.356269
C125	C	1.073321	-0.383182	-0.817126
C126	C	1.573321	0.116818	-0.317126
C127	C	1.020590	-0.428086	-0.860533
C128	C	1.520590	0.071914	-0.360533
C129	C	1.020614	-0.428067	-0.943080
C130	C	1.520614	0.071933	-0.443080
C131	C	1.178770	-0.293375	-0.730313
C132	C	1.678770	0.206625	-0.230313
C133	C	1.073299	-0.383200	-0.734574
C134	C	1.573299	0.116800	-0.234574
C135	C	1.125985	-0.338385	-0.191784
C136	C	1.625985	0.161615	0.308216
C137	C	1.126133	-0.338212	-0.103919
C138	C	1.626133	0.161788	0.396081
H139	H	0.695079	-0.464633	-0.260680
H140	H	1.195079	0.035367	0.239320
C141	C	1.323811	-1.062946	-0.295140
C142	C	1.823811	-0.562946	0.204860
C143	C	1.244699	-1.080747	-0.278853
C144	C	1.744699	-0.580747	0.221147
H145	H	1.356957	-1.087825	-0.262065
H146	H	1.856957	-0.587825	0.237935
H147	H	1.334766	-1.074929	-0.348831
H148	H	1.834766	-0.574929	0.151169
H149	H	1.333366	-1.014010	-0.285557
H150	H	1.833366	-0.514010	0.214443
H151	H	1.235142	-1.129682	-0.288441
H152	H	1.735142	-0.629682	0.211559
H153	H	1.233740	-1.068769	-0.225150
H154	H	1.733740	-0.568769	0.274850
H155	H	0.423672	-0.419796	-0.309230
H156	H	0.923672	0.080204	0.190770
C157	C	1.023570	-0.612952	-0.594614
C158	C	1.523570	-0.112952	-0.094614
C159	C	1.007397	-0.595283	-0.515469
C160	C	1.507397	-0.095283	-0.015469
H161	H	0.990429	-0.588067	-0.627687
H162	H	1.490429	-0.088067	-0.127687
H163	H	1.077241	-0.600888	-0.605644
H164	H	1.577241	-0.100888	-0.105644
H165	H	1.013994	-0.661886	-0.604188
H166	H	1.513994	-0.161886	-0.104188
H167	H	1.016979	-0.546350	-0.505893
H168	H	1.516979	-0.046350	-0.005893
H169	H	0.953714	-0.607343	-0.504434
H170	H	1.453714	-0.107343	-0.004434
C171	C	1.261887	-0.642965	-0.261414
C172	C	1.761887	-0.142965	0.238586
C173	C	1.219759	-0.595283	-0.303438
C174	C	1.719759	-0.095283	0.196562
H175	H	1.297403	-0.618078	-0.225949
H176	H	1.797403	-0.118078	0.274051
H177	H	1.226103	-0.671617	-0.232527
H178	H	1.726103	-0.171617	0.267473
H179	H	1.290736	-0.671531	-0.297270
H180	H	1.790736	-0.171531	0.202730
H181	H	1.190904	-0.566720	-0.267583
H182	H	1.690904	-0.066720	0.232417
H183	H	1.255547	-0.566620	-0.332327
H184	H	1.755547	-0.066620	0.167673
H185	H	0.557675	-0.212155	-0.533645
H186	H	1.057675	0.287845	-0.033645
C187	C	0.668099	-0.159963	-0.589994
C188	C	1.168099	0.340037	-0.089994
C189	C	0.719831	-0.199334	-0.547423
C190	C	1.219831	0.300666	-0.047423
H191	H	0.697601	-0.129509	-0.622885
H192	H	1.197601	0.370491	-0.122885
H193	H	0.634445	-0.190600	-0.621647
H194	H	1.134445	0.309400	-0.121647
H195	H	0.637176	-0.133070	-0.554318
H196	H	1.137176	0.366930	-0.054318
H197	H	0.750750	-0.226232	-0.583099
H198	H	1.250750	0.273768	-0.083099
H199	H	0.753499	-0.168693	-0.515768
H200	H	1.253499	0.331307	-0.015768
H201	H	1.191851	-0.825580	-0.331465
H202	H	1.691851	-0.325580	0.168535
C203	C	0.877537	-0.477686	-0.341966
C204	C	1.377537	0.022314	0.158034
C205	C	0.832232	-0.432540	-0.295319
C206	C	1.332232	0.067460	0.204681
H207	H	0.904057	-0.508123	-0.309052
H208	H	1.404057	-0.008123	0.190948
H209	H	0.844049	-0.504590	-0.377638
H210	H	1.344049	-0.004590	0.122362
H211	H	0.915240	-0.450958	-0.370835
H212	H	1.415240	0.049042	0.129165
H213	H	0.794526	-0.459267	-0.266455
H214	H	1.294526	0.040733	0.233545
H215	H	0.865723	-0.405633	-0.259634
H216	H	1.365723	0.094367	0.240366
H217	H	0.545300	-0.464642	-0.260710
H218	H	1.045300	0.035358	0.239290
H219	H	0.431653	-0.257028	-0.485180
H220	H	0.931653	0.242972	0.014820
H221	H	0.829067	-0.256976	-0.485089
H222	H	1.329067	0.243024	0.014911
H223	H	1.198512	-0.738801	-0.324746
H224	H	1.698512	-0.238801	0.175254
C225	C	1.234178	-0.944578	-0.194001
C226	C	1.734178	-0.444578	0.305999
C227	C	1.252030	-0.926782	-0.271440
C228	C	1.752030	-0.426782	0.228560
H229	H	1.269699	-0.919697	-0.158535
H230	H	1.769699	-0.419697	0.341465
H231	H	1.181656	-0.932594	-0.181804
H232	H	1.681656	-0.432594	0.318196
H233	H	1.239084	-0.993513	-0.189143
H234	H	1.739084	-0.493513	0.310857
H235	H	1.247119	-0.877848	-0.276299
H236	H	1.747119	-0.377848	0.223701
H237	H	1.304565	-0.938762	-0.283641
H238	H	1.804565	-0.438762	0.216359
H239	H	1.047244	-1.070308	-0.476000
H240	H	1.547244	-0.570308	0.024000
H241	H	1.053576	-0.937241	-0.469581
H242	H	1.553576	-0.437241	0.030419
H243	H	1.014977	-0.738815	-0.507993
H244	H	1.514977	-0.238815	-0.007993
C245	C	1.087868	-0.903034	-0.530582
C246	C	1.587868	-0.403034	-0.030582
C247	C	1.045323	-0.860923	-0.477754
C248	C	1.545323	-0.360923	0.022246
H249	H	1.052354	-0.927932	-0.566041
H250	H	1.552354	-0.427932	-0.066041
H251	H	1.123637	-0.874375	-0.559476
H252	H	1.623637	-0.374375	-0.059476
H253	H	1.116457	-0.935364	-0.502054
H254	H	1.616457	-0.435364	-0.002054
H255	H	1.016738	-0.828589	-0.506282
H256	H	1.516738	-0.328589	-0.006282
H257	H	1.009540	-0.889585	-0.448858
H258	H	1.509540	-0.389585	0.051142
C259	C	0.969126	-0.471918	-1.060691
C260	C	1.469126	0.028082	-0.560691
C261	C	1.015425	-0.432489	-1.112483
C262	C	1.515425	0.067511	-0.612483
H263	H	0.933341	-0.502386	-1.090145
H264	H	1.433341	-0.002386	-0.590145
H265	H	1.002252	-0.498794	-1.029782
H266	H	1.502252	0.001206	-0.529782
H267	H	0.940377	-0.441313	-1.027030
H268	H	1.440377	0.058687	-0.527030
H269	H	1.044180	-0.463094	-1.146141
H270	H	1.544180	0.036906	-0.646141
H271	H	0.982296	-0.405611	-1.143406
H272	H	1.482296	0.094389	-0.643406
C273	C	0.969054	-0.471994	-0.747085
C274	C	1.469054	0.028006	-0.247085
C275	C	1.015325	-0.432585	-0.691552
C276	C	1.515325	0.067415	-0.191552
H277	H	0.933269	-0.502486	-0.720524
H278	H	1.433269	-0.002486	-0.220524
H279	H	0.940311	-0.441383	-0.777814
H280	H	1.440311	0.058617	-0.277814
H281	H	1.002204	-0.498849	-0.780572
H282	H	1.502204	0.001151	-0.280572
H283	H	0.982176	-0.405726	-0.658068
H284	H	1.482176	0.094274	-0.158068
H285	H	1.044070	-0.463201	-0.660810
H286	H	1.544070	0.036799	-0.160810
H287	H	0.977647	-0.464663	-0.828652
H288	H	1.477647	0.035337	-0.328652
H289	H	0.977686	-0.464627	-0.978429
H290	H	1.477686	0.035373	-0.478429
C291	C	1.225723	-0.253407	-1.185154
C292	C	1.725723	0.246593	-0.685154
C293	C	1.236836	-0.243937	-1.103532
C294	C	1.736836	0.256063	-0.603532
H295	H	1.261516	-0.222921	-1.211715
H296	H	1.761516	0.277079	-0.711715
H297	H	1.235000	-0.300591	-1.200920
H298	H	1.735000	0.199409	-0.700920
H299	H	1.173116	-0.243118	-1.198181
H300	H	1.673116	0.256882	-0.698181
H301	H	1.289441	-0.254231	-1.090504
H302	H	1.789441	0.245769	-0.590504
H303	H	1.227564	-0.196743	-1.087760
H304	H	1.727564	0.303257	-0.587760
H305	H	1.274512	-0.211858	-0.966431
H306	H	1.774512	0.288142	-0.466431
H307	H	1.274482	-0.211875	-0.816670
H308	H	1.774482	0.288125	-0.316670
C309	C	1.283028	-0.204592	-0.734390
C310	C	1.783028	0.295408	-0.234390
C311	C	1.236725	-0.244021	-0.682601
C312	C	1.736725	0.255979	-0.182601
H313	H	1.318805	-0.174118	-0.704933
H314	H	1.818805	0.325882	-0.204933
H315	H	1.311781	-0.235192	-0.768042
H316	H	1.811781	0.264808	-0.268042
H317	H	1.249900	-0.177717	-0.765309
H318	H	1.749900	0.322283	-0.265309
H319	H	1.269854	-0.270900	-0.651686
H320	H	1.769854	0.229100	-0.151686
H321	H	1.207970	-0.213417	-0.648935
H322	H	1.707970	0.286583	-0.148935
