data_functionalizedCrystal
_audit_creation_method	'MofGen! by Chris Wilmer'
_symmetry_space_group_name_H-M	'P1'
_symmetry_Int_Tables_number	1
_symmetry_cell_setting	triclinic
loop_
_symmetry_equiv_pos_as_xyz
  x,y,z
_cell_length_a	18.215407
_cell_length_b	16.625546
_cell_length_c	18.215399
_cell_angle_alpha	89.968415
_cell_angle_beta	89.983176
_cell_angle_gamma	90.022916
loop_
_atom_site_label
_atom_site_type_symbol
_atom_site_fract_x
_atom_site_fract_y
_atom_site_fract_z
Zn1	Zn	1.125062	-0.320981	-0.416110
Zn2	Zn	1.625062	0.179019	0.083890
Zn3	Zn	1.124983	-0.455827	-0.293041
Zn4	Zn	1.624983	0.044173	0.206959
Zn5	Zn	1.002001	-0.321013	-0.293057
Zn6	Zn	1.502001	0.178987	0.206943
Zn7	Zn	1.001966	-0.455776	-0.416066
Zn8	Zn	1.501966	0.044224	0.083934
O9	O	1.063503	-0.388399	-0.354568
O10	O	1.563503	0.111601	0.145432
O11	O	1.228036	-0.338876	-0.399796
O12	O	1.728036	0.161124	0.100204
O13	O	1.108650	-0.437978	-0.190059
O14	O	1.608650	0.062022	0.309941
O15	O	1.018374	-0.208176	-0.309405
O16	O	1.518374	0.291824	0.190595
O17	O	1.227977	-0.437947	-0.309378
O18	O	1.727977	0.062053	0.190622
O19	O	1.108786	-0.208153	-0.399812
O20	O	1.608786	0.291847	0.100188
O21	O	1.018297	-0.338931	-0.190070
O22	O	1.518297	0.161069	0.309930
O23	O	0.899013	-0.338882	-0.309363
O24	O	1.399013	0.161118	0.190637
O25	O	1.018314	-0.437861	-0.519056
O26	O	1.518314	0.062139	-0.019056
O27	O	0.898987	-0.437892	-0.399737
O28	O	1.398987	0.062108	0.100263
O29	O	1.108752	-0.338827	-0.519088
O30	O	1.608752	0.161173	-0.019088
O31	O	1.108616	-0.568653	-0.309335
O32	O	1.608616	-0.068653	0.190665
O33	O	1.018236	-0.568616	-0.399721
O34	O	1.518236	-0.068616	0.100279
C35	C	0.872297	-0.388386	-0.354547
C36	C	1.372297	0.111614	0.145453
C37	C	0.790498	-0.388399	-0.354556
C38	C	1.290498	0.111601	0.145444
C39	C	0.602310	-0.440035	-0.401554
C40	C	1.102310	0.059965	0.098446
C41	C	0.525451	-0.440037	-0.401563
C42	C	1.025451	0.059963	0.098437
C43	C	0.525449	-0.336779	-0.307598
C44	C	1.025449	0.163221	0.192402
C45	C	0.602306	-0.336773	-0.307593
C46	C	1.102306	0.163227	0.192407
C47	C	0.640734	-0.388405	-0.354570
C48	C	1.140734	0.111595	0.145430
C49	C	0.487018	-0.388414	-0.354584
C50	C	0.987018	0.111586	0.145416
C51	C	0.403685	-0.388416	-0.354594
C52	C	0.903685	0.111584	0.145406
C53	C	0.724073	-0.388402	-0.354562
C54	C	1.224073	0.111598	0.145438
C55	C	1.063434	-0.597890	-0.354537
C56	C	1.563434	-0.097890	0.145463
C57	C	1.063471	-0.687511	-0.354549
C58	C	1.563471	-0.187511	0.145451
C59	C	1.063599	-1.015687	-0.354625
C60	C	1.563599	-0.515687	0.145375
C61	C	1.063561	-0.924379	-0.354606
C62	C	1.563561	-0.424379	0.145394
C63	C	1.063535	-0.851602	-0.354587
C64	C	1.563535	-0.351602	0.145413
C65	C	1.063498	-0.760288	-0.354568
C66	C	1.563498	-0.260288	0.145432
C67	C	1.255456	-0.388414	-0.354590
C68	C	1.755456	0.111586	0.145410
C69	C	1.337255	-0.388420	-0.354599
C70	C	1.837255	0.111580	0.145401
C71	C	1.063538	-0.388335	-0.546521
C72	C	1.563538	0.111665	-0.046521
C73	C	1.063553	-0.388308	-0.628320
C74	C	1.563553	0.111692	-0.128320
C75	C	1.063593	-0.178091	-0.354615
C76	C	1.563593	0.321909	0.145385
C77	C	1.063631	-0.088469	-0.354635
C78	C	1.563631	0.411531	0.145365
C79	C	1.016545	-0.336699	-0.816521
C80	C	1.516545	0.163301	-0.316521
C81	C	1.016558	-0.336683	-0.893380
C82	C	1.516558	0.163317	-0.393380
C83	C	1.110648	-0.439820	-0.893357
C84	C	1.610648	0.060180	-0.393357
C85	C	1.110631	-0.439840	-0.816500
C86	C	1.610631	0.060160	-0.316500
C87	C	1.063581	-0.388275	-0.778084
C88	C	1.563581	0.111725	-0.278084
C89	C	1.063611	-0.388239	-0.931800
C90	C	1.563611	0.111761	-0.431800
C91	C	1.063625	-0.388221	-1.015134
C92	C	1.563625	0.111779	-0.515134
C93	C	1.063565	-0.388293	-0.694745
C94	C	1.563565	0.111707	-0.194745
C95	C	1.063511	-0.388405	-0.163362
C96	C	1.563511	0.111595	0.336638
C97	C	1.063639	-0.388206	-0.081563
C98	C	1.563639	0.111794	0.418437
H99	H	0.494151	-0.294743	-0.269350
H100	H	0.994151	0.205257	0.230650
F101	F	1.160693	-0.494740	-0.775589
F102	F	1.660693	0.005260	-0.275589
F103	F	0.643206	-0.494984	-0.451553
F104	F	1.143206	0.005016	0.048447
H105	H	0.494169	-0.482078	-0.439823
H106	H	0.994169	0.017922	0.060177
H107	H	0.633592	-0.294725	-0.269333
H108	H	1.133592	0.205275	0.230667
F109	F	0.966468	-0.281821	-0.775639
F110	F	1.466468	0.218179	-0.275639
F111	F	0.966489	-0.281797	-0.934285
F112	F	1.466489	0.218203	-0.434285
H113	H	1.148955	-0.481802	-0.924644
H114	H	1.648955	0.018198	-0.424644
