data_functionalizedCrystal
_audit_creation_method	'MofGen! by Chris Wilmer'
_symmetry_space_group_name_H-M	'P1'
_symmetry_Int_Tables_number	1
_symmetry_cell_setting	triclinic
loop_
_symmetry_equiv_pos_as_xyz
  x,y,z
_cell_length_a	19.188905
_cell_length_b	18.266242
_cell_length_c	14.519709
_cell_angle_alpha	89.993935
_cell_angle_beta	96.592650
_cell_angle_gamma	90.016065
loop_
_atom_site_label
_atom_site_type_symbol
_atom_site_fract_x
_atom_site_fract_y
_atom_site_fract_z
O1	O	0.926570	0.061003	-0.115025
O2	O	1.259903	0.394336	0.218308
O3	O	1.593237	0.727670	0.551641
O4	O	0.723312	0.060978	-0.130549
O5	O	1.056645	0.394312	0.202785
O6	O	1.389978	0.727645	0.536118
O7	O	0.830330	0.060985	0.011486
O8	O	1.163663	0.394318	0.344819
O9	O	1.496997	0.727651	0.678152
O10	O	0.819552	0.060997	-0.257059
O11	O	1.152885	0.394330	0.076274
O12	O	1.486218	0.727663	0.409607
O13	O	0.830312	-0.060777	0.011490
O14	O	1.163645	0.272556	0.344823
O15	O	1.496978	0.605890	0.678156
O16	O	0.723293	-0.060784	-0.130545
O17	O	1.056627	0.272550	0.202789
O18	O	1.389960	0.605883	0.536122
O19	O	0.926552	-0.060759	-0.115021
O20	O	1.259885	0.272575	0.218312
O21	O	1.593218	0.605908	0.551645
Zn22	Zn	0.824920	-0.080104	-0.122782
Zn23	Zn	1.158253	0.253230	0.210551
Zn24	Zn	1.491586	0.586563	0.543884
Zn25	Zn	0.824944	0.080323	-0.122788
Zn26	Zn	1.158277	0.413656	0.210546
Zn27	Zn	1.491610	0.746990	0.543879
O28	O	0.819533	-0.060765	-0.257055
O29	O	1.152867	0.272568	0.076278
O30	O	1.486200	0.605901	0.409611
C31	C	0.697289	0.000094	-0.130048
C32	C	1.030623	0.333427	0.203286
C33	C	1.363956	0.666761	0.536619
C34	C	0.619779	0.000084	-0.128550
C35	C	0.953112	0.333418	0.204783
C36	C	1.286445	0.666751	0.538116
C37	C	0.583394	0.066459	-0.127833
C38	C	0.916727	0.399792	0.205500
C39	C	1.250061	0.733125	0.538834
C40	C	0.510565	0.066468	-0.126416
C41	C	0.843899	0.399801	0.206918
C42	C	1.177232	0.733135	0.540251
C43	C	0.474126	0.000099	-0.125697
C44	C	0.807459	0.333432	0.207636
C45	C	1.140792	0.666765	0.540970
C46	C	0.510518	-0.066284	-0.126420
C47	C	0.843852	0.267049	0.206914
C48	C	1.177185	0.600382	0.540247
C49	C	0.583345	-0.066292	-0.127846
C50	C	0.916678	0.267042	0.205487
C51	C	1.250011	0.600375	0.538820
N52	N	0.364903	-0.049296	-0.070975
N53	N	0.698237	0.284038	0.262359
N54	N	1.031570	0.617371	0.595692
N55	N	0.295721	-0.049284	-0.069617
N56	N	0.629055	0.284049	0.263716
N57	N	0.962388	0.617382	0.597049
C58	C	0.254704	0.000116	-0.121401
C59	C	0.588037	0.333450	0.211932
C60	C	0.921370	0.666783	0.545266
N61	N	0.285483	0.049516	-0.174581
N62	N	0.618816	0.382850	0.158752
N63	N	0.952149	0.716183	0.492085
N64	N	0.354671	0.049507	-0.175934
N65	N	0.688005	0.382841	0.157399
N66	N	1.021338	0.716174	0.490732
C67	C	0.395158	0.000099	-0.124151
C68	C	0.728491	0.333432	0.209183
C69	C	1.061824	0.666766	0.542516
C70	C	0.139350	0.066505	-0.119148
C71	C	0.472683	0.399838	0.214185
C72	C	0.806017	0.733172	0.547518
C73	C	0.066520	0.066511	-0.117737
C74	C	0.399853	0.399845	0.215597
C75	C	0.733186	0.733178	0.548930
C76	C	0.066475	-0.066243	-0.117731
C77	C	0.399808	0.267090	0.215602
C78	C	0.733142	0.600424	0.548936
C79	C	0.139303	-0.066247	-0.119152
C80	C	0.472636	0.267086	0.214181
C81	C	0.805970	0.600419	0.547515
C82	C	0.175737	0.000129	-0.119856
C83	C	0.509070	0.333462	0.213477
C84	C	0.842403	0.666795	0.546811
N85	N	0.824908	-0.189590	-0.122778
N86	N	1.158242	0.143743	0.210555
N87	N	1.491575	0.477076	0.543889
C88	C	0.867317	-0.227885	-0.178573
C89	C	1.200650	0.105448	0.154760
C90	C	1.533983	0.438782	0.488094
C91	C	0.867328	-0.304530	-0.178570
C92	C	1.200661	0.028803	0.154763
C93	C	1.533995	0.362137	0.488096
C94	C	0.824918	-0.342877	-0.122784
C95	C	1.158252	-0.009544	0.210550
C96	C	1.491585	0.323789	0.543883
C97	C	0.782507	-0.304573	-0.066977
C98	C	1.115841	0.028760	0.266356
C99	C	1.449174	0.362093	0.599689
C100	C	0.782502	-0.227930	-0.066975
C101	C	1.115836	0.105403	0.266359
C102	C	1.449169	0.438737	0.599692
N103	N	0.763762	-0.463238	-0.120519
N104	N	1.097095	-0.129904	0.212814
N105	N	1.430429	0.203429	0.546148
N106	N	0.763768	-0.536046	-0.120527
N107	N	1.097102	-0.202712	0.212806
N108	N	1.430435	0.130621	0.546140
C109	C	0.824932	-0.573800	-0.122787
C110	C	1.158266	-0.240466	0.210546
C111	C	1.491599	0.092867	0.543880
N112	N	0.886090	-0.535995	-0.125057
N113	N	1.219423	-0.202662	0.208276
N114	N	1.552757	0.130671	0.541610
N115	N	0.886082	-0.463181	-0.125054
N116	N	1.219416	-0.129847	0.208279
N117	N	1.552749	0.203486	0.541613
C118	C	0.824920	-0.425984	-0.122780
C119	C	1.158253	-0.092651	0.210553
C120	C	1.491586	0.240682	0.543887
C121	C	0.867357	-0.695202	-0.178582
C122	C	1.200690	-0.361868	0.154751
C123	C	1.534023	-0.028535	0.488085
C124	C	0.867370	-0.771848	-0.178573
C125	C	1.200703	-0.438515	0.154760
C126	C	1.534036	-0.105181	0.488094
C127	C	0.782543	-0.771890	-0.066985
C128	C	1.115876	-0.438557	0.266348
C129	C	1.449209	-0.105223	0.599681
C130	C	0.782536	-0.695245	-0.066989
C131	C	1.115869	-0.361912	0.266344
C132	C	1.449203	-0.028578	0.599678
C133	C	0.824942	-0.656905	-0.122793
C134	C	1.158275	-0.323572	0.210541
C135	C	1.491609	0.009761	0.543874
C136	C	0.952574	0.000127	-0.115522
C137	C	1.285907	0.333460	0.217811
C138	C	1.619241	0.666794	0.551145
C139	C	1.030085	0.000141	-0.117020
C140	C	1.363418	0.333475	0.216314
C141	C	1.696751	0.666808	0.549647
C142	C	0.829818	0.000104	0.045844
C143	C	1.163152	0.333437	0.379178
C144	C	1.496485	0.666770	0.712511
C145	C	0.828313	0.000103	0.148216
C146	C	1.161647	0.333436	0.481549
C147	C	1.494980	0.666770	0.814883
N148	N	0.824961	0.189810	-0.122784
N149	N	1.158294	0.523143	0.210549
N150	N	1.491627	0.856477	0.543882
C151	C	0.820045	0.000118	-0.291414
C152	C	1.153378	0.333451	0.041919
C153	C	1.486712	0.666784	0.375253
C154	C	0.821550	0.000123	-0.393786
C155	C	1.154883	0.333456	-0.060452
C156	C	1.488217	0.666790	0.272881
C157	C	0.822772	0.000121	0.523077
C158	C	1.156105	0.333455	0.856410
C159	C	1.489438	0.666788	1.189743
C160	C	0.824311	0.000116	0.418779
C161	C	1.157644	0.333449	0.752112
C162	C	1.490977	0.666783	1.085445
C163	C	0.825542	0.000112	0.335650
C164	C	1.158876	0.333445	0.668983
C165	C	1.492209	0.666778	1.002316
C166	C	0.827081	0.000108	0.231345
C167	C	1.160415	0.333441	0.564678
C168	C	1.493748	0.666774	0.898012
H169	H	0.036806	-0.120282	-0.117152
H170	H	0.370139	0.213051	0.216182
H171	H	0.703472	0.546385	0.549515
H172	H	0.169015	0.120552	-0.119731
H173	H	0.502348	0.453886	0.213602
H174	H	0.835682	0.787219	0.546935
O175	O	0.908450	-0.657919	-0.232883
O176	O	1.241783	-0.324586	0.100450
O177	O	1.575116	0.008747	0.433783
C178	C	0.865954	-0.613583	-0.295942
C179	C	1.199287	-0.280250	0.037391
C180	C	1.532621	0.053084	0.370724
H181	H	0.810413	-0.636703	-0.306038
H182	H	1.143747	-0.303369	0.027296
H183	H	1.477080	0.029964	0.360629
H184	H	0.888352	-0.612696	-0.365335
H185	H	1.221686	-0.279363	-0.032002
H186	H	1.555019	0.053970	0.301331
H187	H	0.864733	-0.555500	-0.267447
H188	H	1.198066	-0.222167	0.065886
H189	H	1.531399	0.111167	0.399219
H190	H	0.901862	-0.335716	-0.224008
H191	H	1.235196	-0.002382	0.109325
H192	H	1.568529	0.330951	0.442659
O193	O	0.618832	0.130914	-0.128365
O194	O	0.952166	0.464247	0.204968
O195	O	1.285499	0.797581	0.538302
C196	C	0.668794	0.134872	-0.049352
C197	C	1.002127	0.468205	0.283981
C198	C	1.335460	0.801538	0.617314
H199	H	0.652301	0.097207	0.006894
H200	H	0.985634	0.430541	0.340227
H201	H	1.318968	0.763874	0.673561
H202	H	0.672267	0.193576	-0.022569
H203	H	1.005601	0.526909	0.310765
H204	H	1.338934	0.860242	0.644098
H205	H	0.722212	0.117034	-0.068490
H206	H	1.055545	0.450367	0.264843
H207	H	1.388879	0.783700	0.598177
O208	O	0.741194	-0.190763	-0.012885
O209	O	1.074527	0.142570	0.320449
O210	O	1.407861	0.475904	0.653782
C211	C	0.670364	-0.209536	-0.038664
C212	C	1.003698	0.123797	0.294669
C213	C	1.337031	0.457130	0.628003
H214	H	0.663709	-0.230601	-0.113059
H215	H	0.997042	0.102732	0.220275
H216	H	1.330376	0.436065	0.553608
H217	H	0.636002	-0.159149	-0.033408
H218	H	0.969335	0.174184	0.299925
H219	H	1.302669	0.507517	0.633258
H220	H	0.654107	-0.254037	0.009628
H221	H	0.987440	0.079297	0.342962
H222	H	1.320773	0.412630	0.676295
O223	O	0.031108	0.130944	-0.116917
O224	O	0.364441	0.464277	0.216416
O225	O	0.697774	0.797611	0.549750
C226	C	-0.003188	0.134919	-0.036231
C227	C	0.330146	0.468252	0.297102
C228	C	0.663479	0.801585	0.630436
H229	H	-0.011512	0.077288	-0.009400
H230	H	0.321821	0.410621	0.323933
H231	H	0.655155	0.743955	0.657267
H232	H	-0.056148	0.163016	-0.053190
H233	H	0.277185	0.496349	0.280143
H234	H	0.610519	0.829683	0.613477
H235	H	0.030363	0.167666	0.019140
H236	H	0.363696	0.500999	0.352473
H237	H	0.697030	0.834333	0.685807
H238	H	0.901850	-0.196674	-0.224009
H239	H	1.235183	0.136660	0.109324
H240	H	1.568516	0.469993	0.442658
H241	H	0.480844	-0.120323	-0.125837
H242	H	0.814178	0.213011	0.207497
H243	H	1.147511	0.546344	0.540830
O244	O	0.174548	-0.130790	-0.119795
O245	O	0.507881	0.202544	0.213538
O246	O	0.841215	0.535877	0.546872
C247	C	0.126769	-0.189369	-0.118881
C248	C	0.460103	0.143965	0.214453
C249	C	0.793436	0.477298	0.547786
H250	H	0.077721	-0.169907	-0.088675
H251	H	0.411054	0.163427	0.244658
H252	H	0.744388	0.496760	0.577992
H253	H	0.152178	-0.235794	-0.074527
H254	H	0.485512	0.097539	0.258806
H255	H	0.818845	0.430872	0.592140
H256	H	0.111775	-0.209774	-0.192698
H257	H	0.445108	0.123559	0.140636
H258	H	0.778441	0.456892	0.473969
H259	H	0.901909	-0.803026	-0.224005
H260	H	1.235242	-0.469693	0.109328
H261	H	1.568575	-0.136360	0.442662
O262	O	0.741224	-0.658080	-0.012905
O263	O	1.074558	-0.324746	0.320428
O264	O	1.407891	0.008587	0.653761
C265	C	0.670396	-0.676854	-0.038691
C266	C	1.003729	-0.343520	0.294642
C267	C	1.337062	-0.010187	0.627976
H268	H	0.663744	-0.697914	-0.113088
H269	H	0.997077	-0.364581	0.220245
H270	H	1.330410	-0.031248	0.553579
H271	H	0.636032	-0.626468	-0.033433
H272	H	0.969365	-0.293135	0.299900
H273	H	1.302698	0.040199	0.633234
H274	H	0.654137	-0.721358	0.009596
H275	H	0.987470	-0.388024	0.342929
H276	H	1.320804	-0.054691	0.676262
O277	O	0.475163	0.130927	-0.125877
O278	O	0.808496	0.464260	0.207456
O279	O	1.141830	0.797593	0.540789
C280	C	0.425205	0.134901	-0.204890
C281	C	0.758538	0.468235	0.128443
C282	C	1.091871	0.801568	0.461777
H283	H	0.441674	0.097244	-0.261139
H284	H	0.775008	0.430578	0.072194
H285	H	1.108341	0.763911	0.405528
H286	H	0.421768	0.193610	-0.231669
H287	H	0.755101	0.526943	0.101664
H288	H	1.088435	0.860277	0.434997
H289	H	0.371775	0.117065	-0.185754
H290	H	0.705108	0.450398	0.147579
H291	H	1.038442	0.783732	0.480912
H292	H	0.612968	-0.120343	-0.128431
H293	H	0.946302	0.212990	0.204902
H294	H	1.279635	0.546323	0.538236
H295	H	0.747978	-0.335801	-0.021554
H296	H	1.081311	-0.002467	0.311779
H297	H	1.414645	0.330866	0.645112
H298	H	0.748013	-0.803111	-0.021561
H299	H	1.081346	-0.469778	0.311772
H300	H	1.414679	-0.136445	0.645105
