data_functionalizedCrystal
_audit_creation_method	'MofGen! by Chris Wilmer'
_symmetry_space_group_name_H-M	'P1'
_symmetry_Int_Tables_number	1
_symmetry_cell_setting	triclinic
loop_
_symmetry_equiv_pos_as_xyz
  x,y,z
_cell_length_a	13.635800
_cell_length_b	27.923497
_cell_length_c	10.992410
_cell_angle_alpha	84.514058
_cell_angle_beta	108.764651
_cell_angle_gamma	81.035752
loop_
_atom_site_label
_atom_site_type_symbol
_atom_site_fract_x
_atom_site_fract_y
_atom_site_fract_z
V1	V	2.032670	-0.067127	0.401439
O2	O	2.037363	0.003226	0.392927
O3	O	1.997425	-0.133102	0.399531
O4	O	2.021842	-0.066095	0.576139
O5	O	2.012777	-0.064246	0.215097
V6	V	2.274182	-0.058712	0.379050
O7	O	2.163846	-0.085587	0.450553
O8	O	2.368105	-0.040253	0.329936
O9	O	2.197824	0.007263	0.380958
O10	O	2.328188	-0.129066	0.387562
O11	O	2.352774	-0.061594	0.565392
O12	O	2.173407	-0.059745	0.204350
V13	V	2.532670	-0.067127	0.401439
O14	O	2.537363	0.003226	0.392927
O15	O	2.497425	-0.133102	0.399531
O16	O	2.521842	-0.066095	0.576139
O17	O	2.512777	-0.064246	0.215097
V18	V	2.774182	-0.058712	0.379050
O19	O	2.663846	-0.085587	0.450553
O20	O	2.868105	-0.040253	0.329936
O21	O	2.697824	0.007263	0.380958
O22	O	2.828188	-0.129066	0.387562
O23	O	2.852774	-0.061594	0.565392
O24	O	2.673407	-0.059745	0.204350
C25	C	1.916806	-0.149186	0.393415
C26	C	1.928722	-0.203121	0.393019
C27	C	1.974801	-0.530644	0.272681
C28	C	2.019613	-0.733351	0.271125
O29	O	2.001739	-0.753671	0.170790
N30	N	2.053094	-0.765625	0.388679
C31	C	2.075380	-0.747220	0.506631
O32	O	2.104896	-0.779322	0.606583
C33	C	2.030575	-0.544514	0.508186
C34	C	1.997082	-0.512241	0.390624
C35	C	1.941312	-0.498372	0.155128
C36	C	1.930104	-0.447698	0.155518
C37	C	1.952386	-0.429296	0.273461
C38	C	1.985875	-0.461568	0.391013
C39	C	2.052868	-0.526109	0.626137
C40	C	2.041666	-0.475429	0.626515
C41	C	2.008173	-0.443157	0.508953
C42	C	1.996949	-0.392491	0.509346
N43	N	1.963468	-0.360217	0.391792
C44	C	1.941186	-0.378620	0.273849
C45	C	2.098899	-0.853643	0.505806
C46	C	2.110099	-0.904319	0.505417
C47	C	2.054333	-0.890447	0.269911
C48	C	2.043126	-0.839770	0.270301
C49	C	2.065418	-0.821369	0.388252
C50	C	1.917651	-0.272201	0.274677
C51	C	1.906440	-0.221524	0.275077
C52	C	1.962213	-0.235400	0.510582
C53	C	1.973417	-0.286074	0.510183
C54	C	1.951136	-0.304472	0.392220
O55	O	2.014815	-0.372137	0.609629
O56	O	1.911694	-0.346510	0.173914
C57	C	1.986008	-0.581318	0.272291
C58	C	2.019497	-0.613589	0.389844
C59	C	2.041779	-0.595187	0.507786
C60	C	2.030697	-0.664266	0.389455
C61	C	2.008415	-0.682668	0.271513
C62	C	1.974934	-0.650394	0.153959
C63	C	1.963727	-0.599720	0.154349
C64	C	2.075260	-0.627461	0.625340
C65	C	2.086464	-0.678134	0.624941
C66	C	2.064183	-0.696536	0.506998
C67	C	1.947952	-0.063710	0.618693
C68	C	1.979668	-0.063303	0.761517
C69	C	2.110113	0.023343	0.387071
C70	C	2.087817	0.077278	0.387475
C71	C	2.078968	-0.062131	0.161789
C72	C	2.036871	-0.062536	0.018964
C73	C	2.416806	-0.149186	0.393415
C74	C	2.428722	-0.203121	0.393019
C75	C	2.447952	-0.063710	0.618693
C76	C	2.479668	-0.063303	0.761517
C77	C	1.914582	-0.059588	0.956593
C78	C	1.881580	-0.060213	0.808118
C79	C	2.061249	-0.111141	0.839224
C80	C	2.093560	-0.110718	0.987785
C81	C	2.066188	-0.018086	0.948585
C82	C	2.030916	-0.017859	0.799569
C83	C	2.610113	0.023343	0.387071
C84	C	2.587817	0.077278	0.387475
C85	C	2.578968	-0.062131	0.161789
C86	C	2.536871	-0.062536	0.018964
C87	C	2.525464	-0.230924	0.399284
C88	C	2.536679	-0.281603	0.398932
C89	C	2.451148	-0.304479	0.392306
C90	C	2.354399	-0.276673	0.386045
C91	C	2.343188	-0.225995	0.386406
C92	C	2.663569	0.105081	0.381213
C93	C	2.642626	0.155760	0.381572
C94	C	2.545934	0.178635	0.388200
C95	C	2.470176	0.150829	0.394458
C96	C	2.491117	0.100152	0.394091
C97	C	2.414582	-0.059588	0.956593
C98	C	2.381580	-0.060213	0.808118
C99	C	2.561249	-0.111141	0.839224
C100	C	2.593560	-0.110718	0.987785
C101	C	2.566188	-0.018086	0.948585
C102	C	2.530916	-0.017859	0.799569
H103	H	1.899506	-0.287175	0.178620
H104	H	2.742307	0.086462	0.375817
O105	O	2.099282	-0.607615	0.752555
H106	H	2.124436	-0.638574	0.834220
O107	O	1.893989	-0.412897	0.028713
H108	H	1.889930	-0.374564	0.048777
O109	O	2.463266	-0.359139	0.391894
H110	H	2.447745	-0.376630	0.477057
O111	O	2.066996	-0.155297	1.049630
H112	H	2.140204	-0.178256	1.121944
O113	O	2.262157	-0.301352	0.378901
H114	H	2.195453	-0.285266	0.287841
O115	O	2.724356	0.185742	0.374868
H116	H	2.795117	0.161316	0.370234
O117	O	2.712090	-0.116221	1.044339
H118	H	2.745510	-0.149840	1.118273
H119	H	2.391449	0.169463	0.399854
H120	H	1.923168	-0.513349	0.059080
H121	H	2.117052	-0.838667	0.601861
O122	O	2.382641	-0.101891	1.020688
H123	H	2.425289	-0.137049	1.006924
O124	O	2.238836	-0.196008	0.379632
H125	H	2.181249	-0.220432	0.374951
H126	H	2.429429	0.077518	0.399201
O127	O	2.328085	-0.103106	0.775769
H128	H	2.325723	-0.123486	0.866239
H129	H	2.319883	-0.025816	0.754343
O130	O	2.353656	-0.013718	0.980970
H131	H	2.409879	0.007470	1.037807
H132	H	2.183045	-0.114877	1.030469
O133	O	2.523362	0.233294	0.388624
H134	H	2.592295	0.248778	0.383176
O135	O	1.927597	-0.564914	0.027549
H136	H	1.913994	-0.586232	-0.054517
H137	H	2.573517	-0.144375	1.034480
H138	H	1.956787	-0.665386	0.057925
O139	O	2.158930	-0.116429	0.801160
H140	H	2.169015	-0.151175	0.761201
O141	O	2.658921	-0.116433	0.801140
H142	H	2.650330	-0.084949	0.726239
O143	O	2.514668	-0.155837	0.805895
H144	H	2.433464	-0.144097	0.734052
H145	H	2.527964	0.018241	0.968486
O146	O	2.453120	0.029021	0.729644
H147	H	2.378265	0.019999	0.668034
O148	O	2.625289	-0.017105	0.756457
H149	H	2.685523	-0.051056	0.803745
H150	H	2.059832	-0.460451	0.722569
O151	O	2.683886	-0.020378	1.002720
H152	H	2.721364	-0.052998	1.079374
H153	H	1.890479	-0.091526	1.004988
H154	H	2.015853	-0.813497	0.174571
O155	O	1.870304	-0.186716	0.148269
H156	H	1.927227	-0.194956	0.096546
O157	O	2.030305	-0.910299	0.142696
H158	H	2.043730	-0.950959	0.162190
H159	H	1.841193	-0.092595	0.783711
O160	O	2.146218	-0.939126	0.632215
H161	H	2.159841	-0.917810	0.714286
O162	O	2.183886	-0.020380	1.002727
H163	H	2.226033	-0.055257	0.986830
H164	H	2.027964	0.018241	0.968486
O165	O	2.089009	-0.560911	0.752938
H166	H	2.102635	-0.539592	0.835004
H167	H	2.026077	-0.144880	0.814044
H168	H	2.000672	-0.312351	0.605910
O169	O	2.641029	-0.311584	0.405660
H170	H	2.671371	-0.339967	0.493851
O171	O	2.122598	-0.712941	0.751749
H172	H	2.136219	-0.691626	0.833820
H173	H	1.819883	-0.025816	0.754343
O174	O	1.986456	-0.215554	0.637805
H175	H	1.973122	-0.174896	0.618319
H176	H	1.868598	-0.024954	0.974986
H177	H	2.102177	-0.017297	0.767051
O178	O	1.953120	0.029021	0.729644
H179	H	1.878265	0.019999	0.668034
H180	H	2.595117	-0.212305	0.404672
