data_functionalizedCrystal
_audit_creation_method	'MofGen! by Chris Wilmer'
_symmetry_space_group_name_H-M	'P1'
_symmetry_Int_Tables_number	1
_symmetry_cell_setting	triclinic
loop_
_symmetry_equiv_pos_as_xyz
  x,y,z
_cell_length_a	14.044220
_cell_length_b	14.044220
_cell_length_c	13.101039
_cell_angle_alpha	86.340132
_cell_angle_beta	86.332523
_cell_angle_gamma	86.811122
loop_
_atom_site_label
_atom_site_type_symbol
_atom_site_fract_x
_atom_site_fract_y
_atom_site_fract_z
O1	O	0.225348	-1.281968	0.085109
O2	O	0.475348	-1.031968	0.335109
O3	O	0.725348	-0.781968	0.585109
O4	O	0.975348	-0.531968	0.835109
O5	O	0.217041	-1.005298	0.085135
O6	O	0.467041	-0.755298	0.335135
O7	O	0.717041	-0.505298	0.585135
O8	O	0.967041	-0.255298	0.835135
O9	O	0.082860	-1.139480	0.085112
O10	O	0.332860	-0.889480	0.335112
O11	O	0.582860	-0.639480	0.585112
O12	O	0.832860	-0.389480	0.835112
O13	O	0.359530	-1.147787	0.085132
O14	O	0.609530	-0.897787	0.335132
O15	O	0.859530	-0.647787	0.585132
O16	O	1.109530	-0.397787	0.835132
O17	O	0.092504	-1.129854	-0.085316
O18	O	0.342504	-0.879854	0.164684
O19	O	0.592504	-0.629854	0.414684
O20	O	0.842504	-0.379854	0.664684
O21	O	0.226686	-0.995673	-0.085293
O22	O	0.476686	-0.745673	0.164707
O23	O	0.726686	-0.495673	0.414707
O24	O	0.976686	-0.245673	0.664707
O25	O	0.234993	-1.272343	-0.085319
O26	O	0.484993	-1.022343	0.164681
O27	O	0.734993	-0.772343	0.414681
O28	O	0.984993	-0.522343	0.664681
Zn29	Zn	0.232371	-1.132479	-0.112365
Zn30	Zn	0.482371	-0.882479	0.137635
Zn31	Zn	0.732371	-0.632479	0.387635
Zn32	Zn	0.982371	-0.382479	0.637635
Zn33	Zn	0.219663	-1.145162	0.112181
Zn34	Zn	0.469663	-0.895162	0.362181
Zn35	Zn	0.719663	-0.645162	0.612181
Zn36	Zn	0.969663	-0.395162	0.862181
O37	O	0.369175	-1.138161	-0.085296
O38	O	0.619175	-0.888161	0.164704
O39	O	0.869175	-0.638161	0.414704
O40	O	1.119175	-0.388161	0.664704
C41	C	0.052060	-1.131031	-0.000102
C42	C	0.302060	-0.881031	0.249898
C43	C	0.552060	-0.631031	0.499898
C44	C	0.802060	-0.381031	0.749898
C45	C	-0.054083	-1.120187	-0.000102
C46	C	0.195917	-0.870187	0.249898
C47	C	0.445917	-0.620187	0.499898
C48	C	0.695917	-0.370187	0.749898
C49	C	0.218228	-0.964864	-0.000076
C50	C	0.468228	-0.714864	0.249924
C51	C	0.718228	-0.464864	0.499924
C52	C	0.968228	-0.214864	0.749924
C53	C	0.207383	-0.858722	-0.000066
C54	C	0.457383	-0.608722	0.249934
C55	C	0.707383	-0.358722	0.499934
C56	C	0.957383	-0.108722	0.749934
C57	C	0.233806	-1.312777	-0.000106
C58	C	0.483806	-1.062777	0.249894
C59	C	0.733806	-0.812777	0.499894
C60	C	0.983806	-0.562777	0.749894
C61	C	0.244651	-1.418920	-0.000109
C62	C	0.494651	-1.168920	0.249891
C63	C	0.744651	-0.918920	0.499891
C64	C	0.994651	-0.668920	0.749891
C65	C	-0.248421	-1.100362	-0.000086
C66	C	0.001579	-0.850362	0.249914
C67	C	0.251579	-0.600362	0.499914
C68	C	0.501579	-0.350362	0.749914
C69	C	-0.299551	-1.177276	-0.000090
C70	C	-0.049551	-0.927276	0.249910
C71	C	0.200449	-0.677276	0.499910
C72	C	0.450449	-0.427276	0.749910
C73	C	-0.407688	-1.166245	-0.000080
C74	C	-0.157688	-0.916245	0.249920
C75	C	0.092312	-0.666245	0.499920
C76	C	0.342312	-0.416245	0.749920
C77	C	-0.140275	-1.111391	-0.000095
C78	C	0.109725	-0.861391	0.249905
C79	C	0.359725	-0.611391	0.499905
C80	C	0.609725	-0.361391	0.749905
C81	C	0.399974	-1.146610	-0.000080
C82	C	0.649974	-0.896610	0.249920
C83	C	0.899974	-0.646610	0.499920
C84	C	1.149974	-0.396610	0.749920
C85	C	0.506116	-1.157455	-0.000073
C86	C	0.756116	-0.907455	0.249927
C87	C	1.006116	-0.657455	0.499927
C88	C	1.256116	-0.407455	0.749927
N89	N	0.241043	-1.123831	-0.265612
N90	N	0.491043	-0.873831	-0.015612
N91	N	0.741043	-0.623831	0.234388
N92	N	0.991043	-0.373831	0.484388
C93	C	0.187558	-0.664383	-0.000088
C94	C	0.437558	-0.414383	0.249912
C95	C	0.687558	-0.164383	0.499912
C96	C	0.937558	0.085617	0.749912
C97	C	0.264472	-0.613253	-0.000087
C98	C	0.514472	-0.363253	0.249913
C99	C	0.764472	-0.113253	0.499913
C100	C	1.014472	0.136747	0.749913
C101	C	0.253441	-0.505116	-0.000099
C102	C	0.503441	-0.255116	0.249901
C103	C	0.753441	-0.005116	0.499901
C104	C	1.003441	0.244884	0.749901
C105	C	0.198587	-0.772529	-0.000076
C106	C	0.448587	-0.522529	0.249924
C107	C	0.698587	-0.272529	0.499924
C108	C	0.948587	-0.022529	0.749924
C109	C	0.252851	-1.112065	-0.474653
C110	C	0.502851	-0.862065	-0.224653
C111	C	0.752851	-0.612065	0.025347
C112	C	1.002851	-0.362065	0.275347
C113	C	0.199179	-1.165580	-0.525538
C114	C	0.449179	-0.915580	-0.275538
C115	C	0.699179	-0.665580	-0.025538
C116	C	0.949179	-0.415580	0.224462
C117	C	0.205749	-1.159034	-0.641855
C118	C	0.455749	-0.909034	-0.391855
C119	C	0.705749	-0.659034	-0.141855
C120	C	0.955749	-0.409034	0.108145
C121	C	0.246282	-1.118610	-0.358325
C122	C	0.496282	-0.868610	-0.108325
C123	C	0.746282	-0.618610	0.141675
C124	C	0.996282	-0.368610	0.391675
N125	N	0.210984	-1.153817	0.265428
N126	N	0.460984	-0.903817	0.515428
N127	N	0.710984	-0.653817	0.765428
N128	N	0.960984	-0.403817	1.015428
H129	H	-0.262115	-1.251413	-0.000028
H130	H	-0.012115	-1.001413	0.249972
H131	H	0.237885	-0.751413	0.499972
H132	H	0.487885	-0.501413	0.749972
H133	H	0.338605	-0.650693	-0.000077
H134	H	0.588605	-0.400693	0.249923
H135	H	0.838605	-0.150693	0.499923
H136	H	1.088605	0.099307	0.749923
C137	C	0.087416	-0.613812	-0.000089
C138	C	0.337416	-0.363812	0.249911
C139	C	0.587416	-0.113812	0.499911
C140	C	0.837416	0.136188	0.749911
H141	H	0.093047	-0.546714	-0.000085
H142	H	0.343047	-0.296714	0.249915
H143	H	0.593047	-0.046714	0.499915
H144	H	0.843047	0.203286	0.749915
H145	H	0.057067	-0.628404	-0.059516
H146	H	0.307067	-0.378404	0.190484
H147	H	0.557067	-0.128404	0.440484
H148	H	0.807067	0.121596	0.690484
H149	H	0.050359	-0.635103	0.059356
H150	H	0.300359	-0.385103	0.309356
H151	H	0.550359	-0.135103	0.559356
H152	H	0.800359	0.114897	0.809356
H153	H	0.148295	-1.216314	-0.481744
H154	H	0.398295	-0.966314	-0.231744
H155	H	0.648295	-0.716314	0.018256
H156	H	0.898295	-0.466314	0.268256
C157	C	0.321568	-1.043511	-0.533802
C158	C	0.571568	-0.793511	-0.283802
C159	C	0.821568	-0.543511	-0.033802
C160	C	1.071568	-0.293511	0.216198
H161	H	0.354372	-1.010781	-0.486582
H162	H	0.604372	-0.760781	-0.236582
H163	H	0.854372	-0.510781	0.013418
H164	H	1.104372	-0.260781	0.263418
H165	H	0.366503	-1.078945	-0.575668
H166	H	0.616503	-0.828945	-0.325668
H167	H	0.866503	-0.578945	-0.075668
H168	H	1.116503	-0.328945	0.174332
H169	H	0.286208	-0.998493	-0.575645
H170	H	0.536208	-0.748493	-0.325645
H171	H	0.786208	-0.498493	-0.075645
H172	H	1.036208	-0.248493	0.174355
C173	C	-0.298992	-1.000220	-0.000085
C174	C	-0.048992	-0.750220	0.249915
C175	C	0.201008	-0.500220	0.499915
C176	C	0.451008	-0.250220	0.749915
H177	H	-0.366090	-1.005851	-0.000091
H178	H	-0.116090	-0.755851	0.249909
H179	H	0.133910	-0.505851	0.499909
H180	H	0.383910	-0.255851	0.749909
H181	H	-0.284409	-0.969864	0.059344
H182	H	-0.034409	-0.719864	0.309344
H183	H	0.215591	-0.469864	0.559344
H184	H	0.465591	-0.219864	0.809344
H185	H	-0.277691	-0.963170	-0.059528
H186	H	-0.027691	-0.713170	0.190472
H187	H	0.222309	-0.463170	0.440472
H188	H	0.472309	-0.213170	0.690472
