data_functionalizedCrystal
_audit_creation_method	'MofGen! by Chris Wilmer'
_symmetry_space_group_name_H-M	'P1'
_symmetry_Int_Tables_number	1
_symmetry_cell_setting	triclinic
loop_
_symmetry_equiv_pos_as_xyz
  x,y,z
_cell_length_a	10.489741
_cell_length_b	19.288865
_cell_length_c	17.766277
_cell_angle_alpha	90.011603
_cell_angle_beta	90.006652
_cell_angle_gamma	83.837711
loop_
_atom_site_label
_atom_site_type_symbol
_atom_site_fract_x
_atom_site_fract_y
_atom_site_fract_z
O1	O	-1.691846	-0.097994	-0.062557
O2	O	-1.320443	-0.107192	-0.062570
O3	O	-1.516876	-0.001535	-0.062548
O4	O	-1.495413	-0.203651	-0.062579
O5	O	-1.516842	-0.001529	0.062640
O6	O	-1.320408	-0.107187	0.062618
O7	O	-1.691812	-0.097988	0.062631
Cu8	Cu	-1.506107	-0.102587	0.074055
Cu9	Cu	-1.506148	-0.102594	-0.073994
O10	O	-1.495378	-0.203646	0.062609
C11	C	-1.272910	-0.106495	0.000023
C12	C	-1.131327	-0.104416	0.000019
C13	C	-1.516169	0.024349	0.000048
C14	C	-1.514095	0.101467	0.000055
C15	C	-1.739345	-0.098686	0.000037
C16	C	-1.880928	-0.100764	0.000036
C17	C	-1.064707	-0.037189	0.000036
C18	C	-0.971879	-0.068949	-0.061692
C19	C	-0.971879	-0.068960	0.061734
C20	C	-1.040364	-0.136204	-0.061760
C21	C	-1.040373	-0.136205	0.061721
C22	C	-0.947572	-0.168014	-0.000021
C23	C	-1.496086	-0.229530	0.000011
C24	C	-1.498159	-0.306647	-0.000000
N25	N	-1.506088	-0.102582	0.178186
C26	C	-1.629354	0.145390	0.000062
C27	C	-1.627406	0.217850	0.000050
C28	C	-1.510193	0.246384	0.000046
C29	C	-1.394920	0.202451	0.000034
C30	C	-1.396871	0.129992	0.000038
C31	C	-1.418039	0.355291	0.043893
C32	C	-1.416092	0.427749	0.043894
C33	C	-1.504171	0.469870	0.000029
C34	C	-1.594218	0.439526	-0.043827
C35	C	-1.596169	0.367067	-0.043822
C36	C	-1.508065	0.324952	0.000040
C37	C	-1.617326	0.592363	0.000022
C38	C	-1.615373	0.664824	0.000006
C39	C	-1.382884	0.649423	-0.000003
C40	C	-1.384839	0.576964	0.000006
C41	C	-1.502064	0.548438	0.000022
N42	N	-1.506177	-0.102593	-0.178125
C43	C	-1.593096	-0.055820	0.217582
C44	C	-1.593104	-0.055817	0.296384
C45	C	-1.506115	-0.102588	0.335786
C46	C	-1.419089	-0.149353	0.296380
C47	C	-1.419076	-0.149350	0.217580
C48	C	-1.489040	-0.165761	0.460614
C49	C	-1.489062	-0.165765	0.539413
C50	C	-1.506149	-0.102596	0.578833
C51	C	-1.523240	-0.039421	0.539444
C52	C	-1.523227	-0.039418	0.460643
C53	C	-1.506119	-0.102596	0.421232
C54	C	-1.593170	-0.055827	0.703675
C55	C	-1.593169	-0.055823	0.782478
C56	C	-1.419160	-0.149365	0.782473
C57	C	-1.419156	-0.149363	0.703671
C58	C	-1.506167	-0.102595	0.664277
H59	H	-0.941523	-0.040507	-0.113871
H60	H	-1.663943	-0.017737	0.185510
O61	O	-1.269100	0.677212	-0.000110
C62	C	-1.261021	0.718633	-0.064961
H63	H	-1.361660	0.736169	-0.086572
H64	H	-1.204427	0.686896	-0.110362
C65	C	-1.069094	0.761525	-0.018735
C66	C	-1.192700	0.783068	-0.045275
H67	H	-1.026945	0.801270	-0.006594
H68	H	-1.074533	0.733618	0.024955
H69	H	-1.021948	0.735077	-0.056574
H70	H	-1.239848	0.809508	-0.007433
H71	H	-1.187267	0.810982	-0.088958
H72	H	-1.070563	-0.164629	-0.114005
O73	O	-1.334733	-0.194811	0.179225
C74	C	-1.402785	-0.238037	0.133643
H75	H	-1.502744	-0.210903	0.121834
H76	H	-1.411154	-0.289416	0.164000
C77	C	-1.208015	-0.285827	0.073297
C78	C	-1.330783	-0.252499	0.058789
H79	H	-1.163599	-0.294751	0.027125
H80	H	-1.162166	-0.256708	0.104009
H81	H	-1.215006	-0.328640	0.098597
H82	H	-1.323790	-0.209683	0.033498
H83	H	-1.376629	-0.281611	0.028071
H84	H	-1.663959	-0.017736	0.328467
H85	H	-0.896897	-0.223337	-0.000063
H86	H	-1.712777	0.569137	0.000032
O87	O	-1.281028	0.230132	-0.000103
C88	C	-1.210797	0.207716	-0.064934
H89	H	-1.279362	0.192293	-0.110246
H90	H	-1.139444	0.160860	-0.050278
C91	C	-1.053636	0.286304	-0.038686
C92	C	-1.137850	0.267366	-0.094341
H93	H	-1.008633	0.323097	-0.056825
H94	H	-1.100948	0.301404	0.004993
H95	H	-0.994186	0.247251	-0.026478
H96	H	-1.197306	0.306416	-0.106541
H97	H	-1.090545	0.252274	-0.138024
H98	H	-1.664017	-0.017743	0.671599
H99	H	-1.303011	0.094229	0.000032
H100	H	-1.537140	0.012021	0.428576
O101	O	-1.272758	0.534392	0.000042
C102	C	-1.168882	0.575111	0.000016
H103	H	-1.201562	0.629025	0.023714
H104	H	-1.132948	0.580435	-0.060045
C105	C	-1.019673	0.473351	0.020005
C106	C	-1.059808	0.539568	0.049116
H107	H	-0.952387	0.451426	0.050289
H108	H	-1.089655	0.445917	0.020019
H109	H	-0.989736	0.477797	-0.030045
H110	H	-1.089759	0.535120	0.099162
H111	H	-0.989828	0.567000	0.049111
H112	H	-1.665940	0.473820	-0.079546
O113	O	-1.328507	0.457106	0.086512
C114	C	-1.251193	0.404394	0.125235
H115	H	-1.252751	0.352748	0.094220
H116	H	-1.289752	0.399240	0.184735
C117	C	-1.110638	0.486977	0.167148
C118	C	-1.112542	0.423545	0.129051
H119	H	-1.025112	0.498790	0.169505
H120	H	-1.162727	0.522490	0.141062
H121	H	-1.142776	0.482673	0.216727
H122	H	-1.080419	0.427852	0.079470
H123	H	-1.060443	0.388032	0.155129
O124	O	-1.539612	0.021936	0.577753
C125	C	-1.431404	0.028115	0.623361
H126	H	-1.345342	-0.006056	0.599619
H127	H	-1.451520	0.010607	0.683078
C128	C	-1.507989	0.146644	0.653743
C129	C	-1.402284	0.104680	0.624579
H130	H	-1.490029	0.193873	0.654498
H131	H	-1.580893	0.142481	0.623019
H132	H	-1.524742	0.132046	0.703505
H133	H	-1.385544	0.119273	0.574816
H134	H	-1.329376	0.108848	0.655295
H135	H	-1.709234	0.700587	0.000008
O136	O	-1.332644	0.314316	0.086555
C137	C	-1.399413	0.276776	0.138867
H138	H	-1.500690	0.272601	0.117345
H139	H	-1.404415	0.305098	0.195290
C140	C	-1.204394	0.208280	0.175297
C141	C	-1.328780	0.203147	0.148860
H142	H	-1.160822	0.162863	0.181465
H143	H	-1.159409	0.233573	0.140055
H144	H	-1.208579	0.231885	0.222313
H145	H	-1.324593	0.179551	0.101841
H146	H	-1.373763	0.177849	0.184094
H147	H	-1.664018	-0.017740	0.814556
O148	O	-1.334596	-0.194860	0.665514
C149	C	-1.257794	-0.236130	0.717186
H150	H	-1.310087	-0.237195	0.773351
H151	H	-1.163183	-0.213074	0.725584
C152	C	-1.166838	-0.309611	0.617432
C153	C	-1.231070	-0.310923	0.686413
H154	H	-1.150348	-0.355746	0.598449
H155	H	-1.218577	-0.281806	0.582619
H156	H	-1.088003	-0.290394	0.624440
H157	H	-1.309910	-0.330132	0.679403
H158	H	-1.179344	-0.338734	0.721224
O159	O	-1.472390	-0.227190	0.577556
C160	C	-1.457319	-0.282944	0.525868
H161	H	-1.422381	-0.263543	0.469708
H162	H	-1.553260	-0.304595	0.517466
C163	C	-1.401361	-0.364634	0.625599
C164	C	-1.358440	-0.340808	0.556623
H165	H	-1.340373	-0.400329	0.644570
H166	H	-1.411520	-0.327073	0.660422
H167	H	-1.481313	-0.382672	0.618588
H168	H	-1.278498	-0.322763	0.563637
H169	H	-1.348265	-0.378368	0.521801
O170	O	-1.334639	-0.194881	0.334568
C171	C	-1.354979	-0.263749	0.315304
H172	H	-1.404131	-0.263924	0.258083
H173	H	-1.418341	-0.285571	0.359639
C174	C	-1.164837	-0.309050	0.381945
C175	C	-1.225197	-0.309264	0.311663
H176	H	-1.084783	-0.337127	0.379702
H177	H	-1.151135	-0.262652	0.394926
H178	H	-1.217652	-0.327233	0.418884
H179	H	-1.172389	-0.291073	0.274727
H180	H	-1.238887	-0.355660	0.298675
H181	H	-1.475103	-0.217203	0.428526
O182	O	-1.076609	-0.170007	0.124048
C183	C	-1.042100	-0.134391	0.189008
H184	H	-1.032159	-0.077714	0.174228
H185	H	-0.946826	-0.160188	0.211528
C186	C	-1.158739	-0.206810	0.267663
C187	C	-1.146541	-0.137197	0.249512
H188	H	-1.223160	-0.208543	0.304987
H189	H	-1.181986	-0.230807	0.223899
H190	H	-1.079338	-0.228300	0.286426
H191	H	-1.225937	-0.115711	0.230741
H192	H	-1.123311	-0.113196	0.293274
O193	O	-0.935843	-0.034919	0.123972
C194	C	-0.996064	0.034039	0.123732
H195	H	-1.086290	0.036918	0.087598
H196	H	-0.927568	0.070400	0.099644
C197	C	-0.921675	0.052822	0.249202
C198	C	-1.032499	0.056357	0.204827
H199	H	-0.944145	0.066591	0.299225
H200	H	-0.881099	0.006365	0.249363
H201	H	-0.864606	0.083123	0.229120
H202	H	-1.089559	0.026050	0.224904
H203	H	-1.073086	0.102810	0.204671
H204	H	-1.348327	-0.187444	0.814554
H205	H	-1.115647	0.018075	-0.000033
H206	H	-1.724807	0.122170	0.000073
O207	O	-1.739290	0.260598	0.000163
C208	C	-1.745095	0.302969	0.065009
H209	H	-1.643867	0.307141	0.086612
H210	H	-1.803189	0.278852	0.110417
C211	C	-1.934035	0.371074	0.018788
C212	C	-1.809703	0.376202	0.045318
H213	H	-1.973893	0.416247	0.006644
H214	H	-1.930128	0.342526	-0.024899
H215	H	-1.982430	0.350974	0.056633
H216	H	-1.761306	0.396294	0.007471
H217	H	-1.813604	0.404756	0.088999
H218	H	-1.669485	0.342364	-0.079532
