data_functionalizedCrystal
_audit_creation_method	'MofGen! by Chris Wilmer'
_symmetry_space_group_name_H-M	'P1'
_symmetry_Int_Tables_number	1
_symmetry_cell_setting	triclinic
loop_
_symmetry_equiv_pos_as_xyz
  x,y,z
_cell_length_a	16.120297
_cell_length_b	13.897449
_cell_length_c	13.897448
_cell_angle_alpha	90.018972
_cell_angle_beta	87.126532
_cell_angle_gamma	87.120648
loop_
_atom_site_label
_atom_site_type_symbol
_atom_site_fract_x
_atom_site_fract_y
_atom_site_fract_z
Zn1	Zn	-0.471366	-1.447031	0.411661
Zn2	Zn	-0.331958	-1.455109	0.564787
Zn3	Zn	-0.331973	-1.293903	0.403512
Zn4	Zn	-0.471327	-1.285704	0.572917
O5	O	-0.401656	-1.370437	0.488219
O6	O	-0.452884	-1.583083	0.431981
O7	O	-0.215297	-1.440537	0.536581
O8	O	-0.350486	-1.314266	0.269613
O9	O	-0.350461	-1.589018	0.544483
O10	O	-0.452898	-1.426769	0.275600
O11	O	-0.215308	-1.322099	0.418094
O12	O	-0.350448	-1.157834	0.425976
O13	O	-0.587995	-1.300292	0.558338
O14	O	-0.452831	-1.151811	0.550437
O15	O	-0.588024	-1.418818	0.439864
O16	O	-0.350423	-1.432586	0.700846
O17	O	-0.452816	-1.308125	0.706819
C18	C	-0.401632	-1.370368	0.738832
C19	C	-0.401649	-1.370425	0.846047
C20	C	-0.401637	-1.119823	0.488205
C21	C	-0.401649	-1.012609	0.488224
C22	C	-0.619105	-1.357740	0.500917
C23	C	-0.711769	-1.352329	0.506328
C24	C	-0.881426	-1.342415	0.516186
C25	C	-0.922737	-1.398648	0.459964
C26	C	-1.017141	-1.393132	0.465449
C27	C	-0.787014	-1.347930	0.510702
C28	C	-0.185053	-1.383140	0.475502
C29	C	-0.092390	-1.388737	0.469819
C30	C	-0.401675	-1.622028	0.488234
C31	C	-0.401684	-1.729242	0.488240
C32	C	-0.401670	-0.816312	0.488229
C33	C	-0.401656	-0.925546	0.488223
C34	C	-0.401698	-1.370531	0.236629
C35	C	-0.401716	-1.370571	0.129416
C36	C	-0.401702	-1.370523	1.042345
C37	C	-0.401675	-1.370465	0.933111
H38	H	-0.887205	-1.450934	0.407711
H39	H	-0.916956	-1.290134	0.568435
