data_functionalizedCrystal
_audit_creation_method	'MofGen! by Chris Wilmer'
_symmetry_space_group_name_H-M	'P1'
_symmetry_Int_Tables_number	1
_symmetry_cell_setting	triclinic
loop_
_symmetry_equiv_pos_as_xyz
  x,y,z
_cell_length_a	15.944551
_cell_length_b	9.065218
_cell_length_c	7.540329
_cell_angle_alpha	89.998243
_cell_angle_beta	90.007152
_cell_angle_gamma	95.742688
loop_
_atom_site_label
_atom_site_type_symbol
_atom_site_fract_x
_atom_site_fract_y
_atom_site_fract_z
O1	O	1.115964	-0.190270	0.147648
O2	O	0.871592	-0.213728	0.147613
O3	O	0.998829	0.012762	0.147627
O4	O	0.988727	-0.416759	0.147633
O5	O	0.998821	0.012764	-0.147338
O6	O	0.871584	-0.213725	-0.147352
O7	O	1.115956	-0.190267	-0.147317
Cu8	Cu	0.993770	-0.201996	-0.174268
Cu9	Cu	0.993779	-0.201999	0.174563
O10	O	0.988719	-0.416757	-0.147332
C11	C	0.997854	0.067727	0.000147
C12	C	0.994951	0.231502	0.000156
C13	C	0.840287	-0.212753	0.000126
C14	C	0.747019	-0.209833	0.000112
C15	C	1.147261	-0.191242	0.000173
C16	C	1.240530	-0.194162	0.000198
C17	C	1.456503	-0.341529	0.000160
C18	C	1.517008	-0.273098	0.145591
C19	C	1.411295	-0.199444	0.000173
C20	C	1.516978	-0.273062	-0.145222
C21	C	1.576247	-0.204556	0.000140
C22	C	1.470572	-0.130973	0.145724
C23	C	1.470536	-0.130957	-0.145220
C24	C	1.531023	-0.062422	0.000247
C25	C	1.316271	-0.196502	0.000193
C26	C	1.671270	-0.207486	0.000133
C27	C	0.989694	-0.471722	0.000152
C28	C	0.992597	-0.635497	0.000155
N29	N	0.993769	-0.201993	-0.419616
N30	N	0.993785	-0.201991	0.419911
H31	H	1.424090	-0.459468	0.000306
H32	H	1.537515	-0.333182	-0.268172
O33	O	1.541571	-0.345072	0.292041
C34	C	1.503305	-0.492183	0.291502
H35	H	1.485230	-0.526338	0.149992
H36	H	1.549399	-0.569147	0.346208
H37	H	1.444345	-0.500024	0.377868
O38	O	1.445650	-0.059747	-0.291944
C39	C	1.357385	-0.057310	-0.288714
H40	H	1.333882	-0.070090	-0.146229
H41	H	1.340304	0.052592	-0.344762
H42	H	1.326595	-0.152458	-0.372540
O43	O	1.446251	-0.059105	0.292446
C44	C	1.485200	0.087550	0.292806
H45	H	1.503517	0.122021	0.151528
H46	H	1.439485	0.165054	0.347827
H47	H	1.544089	0.094167	0.379353
O48	O	1.569617	0.078326	0.000567
C49	C	1.620835	0.099963	0.152636
H50	H	1.638046	-0.011778	0.202715
H51	H	1.680794	0.173426	0.117677
H52	H	1.585082	0.155737	0.260481
