data_functionalizedCrystal
_audit_creation_method	'MofGen! by Chris Wilmer'
_symmetry_space_group_name_H-M	'P1'
_symmetry_Int_Tables_number	1
_symmetry_cell_setting	triclinic
loop_
_symmetry_equiv_pos_as_xyz
  x,y,z
_cell_length_a	16.120530
_cell_length_b	18.101395
_cell_length_c	16.120297
_cell_angle_alpha	87.127310
_cell_angle_beta	89.871860
_cell_angle_gamma	87.126665
loop_
_atom_site_label
_atom_site_type_symbol
_atom_site_fract_x
_atom_site_fract_y
_atom_site_fract_z
Zn1	Zn	1.247384	-0.375190	0.534565
Zn2	Zn	1.254317	-0.493082	0.395508
Zn3	Zn	1.115376	-0.362676	0.388483
Zn4	Zn	1.108274	-0.492400	0.527477
O5	O	1.181338	-0.430837	0.461508
O6	O	1.364669	-0.396351	0.522025
O7	O	1.241761	-0.470832	0.278211
O8	O	1.132958	-0.260707	0.407888
O9	O	1.369763	-0.482966	0.419860
O10	O	1.229944	-0.269901	0.515214
O11	O	1.139681	-0.375023	0.273050
O12	O	0.998069	-0.374361	0.401015
O13	O	1.120853	-0.481804	0.644783
O14	O	0.992851	-0.469669	0.503133
O15	O	1.223057	-0.395690	0.649990
O16	O	1.234873	-0.596620	0.412987
O17	O	1.127576	-0.596119	0.509945
C18	C	0.965287	-0.420584	0.450543
C19	C	0.872859	-0.416216	0.445872
C20	C	0.703631	-0.408225	0.437350
C21	C	0.659883	-0.453506	0.485727
C22	C	0.565718	-0.449060	0.480986
C23	C	0.797804	-0.412671	0.442091
C24	C	1.181228	-0.623241	0.461478
C25	C	1.181256	-0.705558	0.461497
C26	C	1.181436	-1.004659	0.461551
C27	C	1.114068	-0.973063	0.522721
C28	C	1.113774	-0.887422	0.522504
C29	C	1.181346	-0.856271	0.461525
C30	C	1.162064	-0.882548	0.372686
C31	C	1.161632	-0.968190	0.373050
C32	C	1.268265	-0.978132	0.488456
C33	C	1.267650	-0.892539	0.490352
C34	C	1.181297	-0.772409	0.461505
C35	C	1.181483	-1.088521	0.461565
C36	C	1.398232	-0.441131	0.472517
C37	C	1.490660	-0.445517	0.477208
C38	C	1.170389	-0.440067	0.678403
C39	C	1.165724	-0.444000	0.770830
C40	C	1.181470	-0.237683	0.461558
C41	C	1.181526	-0.155373	0.461579
C42	C	1.192292	-0.421592	0.245460
C43	C	1.197119	-0.417458	0.153042
C44	C	1.157175	-0.451163	0.940055
C45	C	1.205665	-0.410297	0.983822
C46	C	1.200908	-0.414283	1.077985
C47	C	1.161931	-0.447178	0.845884
H48	H	1.125322	-0.869842	0.588238
H49	H	1.098292	-0.984372	0.350776
C50	C	0.658695	-0.351351	0.376587
C51	C	0.597166	-0.292038	0.409785
C52	C	0.552217	-0.235167	0.349021
C53	C	0.568797	-0.237609	0.255059
C54	C	0.630329	-0.296924	0.221857
C55	C	0.675278	-0.353795	0.282621
H56	H	0.584889	-0.290228	0.479345
H57	H	0.506666	-0.191258	0.373600
H58	H	0.535523	-0.195510	0.210078
H59	H	0.642605	-0.298734	0.152297
H60	H	0.720828	-0.397704	0.258042
H61	H	1.125459	-0.997097	0.588658
C62	C	1.226522	-0.855073	0.309165
C63	C	1.280291	-0.911220	0.261131
C64	C	1.344749	-0.883743	0.197611
C65	C	1.355438	-0.800120	0.182125
C66	C	1.301668	-0.743968	0.230160
C67	C	1.237210	-0.771444	0.293680
H68	H	1.272380	-0.973128	0.272593
H69	H	1.384554	-0.925311	0.162052
H70	H	1.403154	-0.779780	0.135103
H71	H	1.309579	-0.682060	0.218697
H72	H	1.197405	-0.729876	0.329239
C73	C	1.027520	-0.997226	0.498459
C74	C	1.017806	-1.045476	0.423411
C75	C	0.931260	-1.069642	0.399148
C76	C	0.854428	-1.045558	0.449933
C77	C	0.864141	-0.997305	0.524984
C78	C	0.950687	-0.973139	0.549247
H79	H	1.074683	-1.063307	0.385814
H80	H	0.924071	-1.105362	0.343590
H81	H	0.790362	-1.063447	0.431972
H82	H	0.807263	-0.979474	0.562582
H83	H	0.957876	-0.937419	0.604806
C84	C	1.096286	-0.502485	0.984963
C85	C	1.040121	-0.549841	0.934354
C86	C	0.979241	-0.601169	0.979275
C87	C	0.974527	-0.605141	1.074805
C88	C	1.030694	-0.557783	1.125420
C89	C	1.091573	-0.506455	1.080499
H90	H	1.043609	-0.546902	0.863632
H91	H	0.937663	-0.636227	0.941807
H92	H	0.929460	-0.643137	1.108059
H93	H	1.027205	-0.560722	1.196142
H94	H	1.133152	-0.471397	1.117968
H95	H	1.208812	-0.988900	0.325680
C96	C	1.266582	-0.358993	0.938916
C97	C	1.259279	-0.274976	0.950420
C98	C	1.320196	-0.223676	0.905511
C99	C	1.388416	-0.256394	0.849098
C100	C	1.395722	-0.340416	0.837592
C101	C	1.334805	-0.391715	0.882501
H102	H	1.208775	-0.250752	0.992182
H103	H	1.314787	-0.161478	0.914029
H104	H	1.433511	-0.218419	0.815854
H105	H	1.446225	-0.364639	0.795830
H106	H	1.340213	-0.453914	0.873983
H107	H	0.693149	-0.495611	0.530706
C108	C	1.026708	-0.854793	0.497948
C109	C	0.989631	-0.870446	0.413020
C110	C	0.902561	-0.837818	0.388460
C111	C	0.852570	-0.789537	0.448828
C112	C	0.889647	-0.773882	0.533761
C113	C	0.976717	-0.806510	0.558321
H114	H	1.026638	-0.906188	0.368328
H115	H	0.875115	-0.849407	0.325587
H116	H	0.788116	-0.765384	0.430648
H117	H	0.852640	-0.738139	0.578454
H118	H	1.004163	-0.794920	0.621195
C119	C	1.077436	-0.848478	0.342178
C120	C	1.025762	-0.796845	0.397714
C121	C	0.941132	-0.762776	0.367212
C122	C	0.908176	-0.780341	0.281175
C123	C	0.959851	-0.831977	0.225634
C124	C	1.044481	-0.866045	0.256136
H125	H	1.050158	-0.783840	0.461408
H126	H	0.902879	-0.724552	0.408327
H127	H	0.845527	-0.755122	0.258595
H128	H	0.935455	-0.844982	0.161939
H129	H	1.082734	-0.904269	0.215021
H130	H	1.286711	-1.003393	0.552368
H131	H	1.282271	-0.875783	0.555755
H132	H	1.320141	-0.871648	0.449401
H133	H	1.318402	-0.998637	0.443958
