data_functionalizedCrystal
_audit_creation_method	'MofGen! by Chris Wilmer'
_symmetry_space_group_name_H-M	'P1'
_symmetry_Int_Tables_number	1
_symmetry_cell_setting	triclinic
loop_
_symmetry_equiv_pos_as_xyz
  x,y,z
_cell_length_a	16.120530
_cell_length_b	18.101395
_cell_length_c	18.101389
_cell_angle_alpha	90.020787
_cell_angle_beta	92.913729
_cell_angle_gamma	87.126665
loop_
_atom_site_label
_atom_site_type_symbol
_atom_site_fract_x
_atom_site_fract_y
_atom_site_fract_z
Zn1	Zn	1.274469	-0.352368	0.476079
Zn2	Zn	1.607802	-0.019034	0.809412
Zn3	Zn	1.941136	0.314299	1.142745
Zn4	Zn	1.274356	-0.476197	0.352235
Zn5	Zn	1.607690	-0.142864	0.685569
Zn6	Zn	1.941023	0.190470	1.018902
Zn7	Zn	1.135060	-0.346090	0.345979
Zn8	Zn	1.468393	-0.012757	0.679313
Zn9	Zn	1.801726	0.320576	1.012646
Zn10	Zn	1.134999	-0.469881	0.469766
Zn11	Zn	1.468333	-0.136547	0.803099
Zn12	Zn	1.801666	0.196786	1.136433
O13	O	1.204721	-0.411134	0.411015
O14	O	1.538054	-0.077801	0.744348
O15	O	1.871388	0.255533	1.077681
O16	O	1.391119	-0.374064	0.464911
O17	O	1.724452	-0.040731	0.798244
O18	O	2.057785	0.292602	1.131577
O19	O	1.255857	-0.458954	0.247772
O20	O	1.589190	-0.125621	0.581105
O21	O	1.922523	0.207712	0.914438
O22	O	1.153625	-0.243293	0.363261
O23	O	1.486958	0.090040	0.696594
O24	O	1.820292	0.423373	1.029928
O25	O	1.391036	-0.465041	0.373923
O26	O	1.724369	-0.131708	0.707257
O27	O	2.057703	0.201625	1.040590
O28	O	1.256048	-0.247905	0.458844
O29	O	1.589382	0.085428	0.792178
O30	O	1.922715	0.418761	1.125511
O31	O	1.153516	-0.363365	0.243175
O32	O	1.486849	-0.030032	0.576509
O33	O	1.820182	0.303301	0.909842
O34	O	1.018387	-0.357241	0.357140
O35	O	1.351720	-0.023908	0.690473
O36	O	1.685054	0.309426	1.023807
O37	O	1.153522	-0.454276	0.574237
O38	O	1.486856	-0.120943	0.907571
O39	O	1.820189	0.212390	1.240904
O40	O	1.018343	-0.448189	0.448085
O41	O	1.351676	-0.114856	0.781419
O42	O	1.685009	0.218478	1.114752
O43	O	1.255990	-0.367940	0.578875
O44	O	1.589323	-0.034607	0.912208
O45	O	1.922657	0.298727	1.245542
O46	O	1.255798	-0.578989	0.367802
O47	O	1.589132	-0.245655	0.701136
O48	O	1.922465	0.087678	1.034469
O49	O	1.153413	-0.574348	0.454152
O50	O	1.486747	-0.241015	0.787485
O51	O	1.820080	0.092318	1.120818
C52	C	0.988115	-0.401349	0.401249
C53	C	1.321448	-0.068016	0.734583
C54	C	1.654782	0.265318	1.067916
C55	C	0.895450	-0.397181	0.397089
C56	C	1.228783	-0.063847	0.730422
C57	C	1.562117	0.269486	1.063756
C58	C	0.725790	-0.389553	0.389500
C59	C	1.059123	-0.056220	0.722833
C60	C	1.392456	0.277113	1.056167
C61	C	0.684493	-0.432769	0.432584
C62	C	1.017826	-0.099436	0.765917
C63	C	1.351160	0.233898	1.099250
C64	C	0.590088	-0.428525	0.428361
C65	C	0.923422	-0.095192	0.761695
C66	C	1.256755	0.238142	1.095028
C67	C	0.820203	-0.393796	0.393722
C68	C	1.153536	-0.060463	0.727055
C69	C	1.486870	0.272870	1.060388
C70	C	1.204610	-0.603539	0.410988
C71	C	1.537943	-0.270206	0.744321
C72	C	1.871276	0.063127	1.077655
C73	C	1.204638	-0.685855	0.411005
C74	C	1.537971	-0.352522	0.744338
C75	C	1.871305	-0.019188	1.077671
C76	C	1.204821	-0.984954	0.411053
C77	C	1.538154	-0.651621	0.744386
C78	C	1.871488	-0.318287	1.077720
C79	C	1.140553	-0.950747	0.465530
C80	C	1.473886	-0.617413	0.798864
C81	C	1.807219	-0.284080	1.132197
C82	C	1.140247	-0.865115	0.465337
C83	C	1.473580	-0.531782	0.798670
C84	C	1.806914	-0.198448	1.132004
C85	C	1.204730	-0.836567	0.411030
C86	C	1.538064	-0.503234	0.744363
C87	C	1.871397	-0.169901	1.077696
C88	C	1.180947	-0.866637	0.331910
C89	C	1.514280	-0.533304	0.665244
C90	C	1.847614	-0.199970	0.998577
C91	C	1.180533	-0.952264	0.332235
C92	C	1.513866	-0.618930	0.665568
C93	C	1.847199	-0.285597	0.998901
C94	C	1.293013	-0.957278	0.435014
C95	C	1.626347	-0.623945	0.768348
C96	C	1.959680	-0.290612	1.101681
C97	C	1.292495	-0.871604	0.436703
C98	C	1.625828	-0.538271	0.770036
C99	C	1.959161	-0.204937	1.103369
C100	C	1.204680	-0.752706	0.411012
C101	C	1.538014	-0.419372	0.744345
C102	C	1.871347	-0.086039	1.077678
C103	C	1.204869	-1.068816	0.411065
C104	C	1.538202	-0.735482	0.744399
C105	C	1.871536	-0.402149	1.077732
C106	C	1.422173	-0.420958	0.420819
C107	C	1.755506	-0.087624	0.754152
C108	C	2.088840	0.245709	1.087486
C109	C	1.514838	-0.425144	0.424997
C110	C	1.848171	-0.091811	0.758330
C111	C	2.181505	0.241523	1.091664
C112	C	1.204762	-0.411104	0.604179
C113	C	1.538095	-0.077770	0.937512
C114	C	1.871429	0.255563	1.270845
C115	C	1.204779	-0.411091	0.686494
C116	C	1.538113	-0.077758	1.019827
C117	C	1.871446	0.255576	1.353160
C118	C	1.204856	-0.217978	0.411059
C119	C	1.538189	0.115355	0.744392
C120	C	1.871522	0.448689	1.077726
C121	C	1.204913	-0.135667	0.411078
C122	C	1.538247	0.197667	0.744411
C123	C	1.871580	0.531000	1.077744
C124	C	1.204728	-0.411113	0.218605
C125	C	1.538062	-0.077779	0.551938
C126	C	1.871395	0.255554	0.885271
C127	C	1.204873	-0.410924	0.136297
C128	C	1.538206	-0.077591	0.469631
C129	C	1.871539	0.255742	0.802964
C130	C	1.204811	-0.411035	0.837203
C131	C	1.538144	-0.077701	1.170537
C132	C	1.871477	0.255632	1.503870
C133	C	1.140351	-0.465344	0.865640
C134	C	1.473684	-0.132011	1.198973
C135	C	1.807018	0.201323	1.532306
C136	C	1.140116	-0.465132	0.951247
C137	C	1.473450	-0.131799	1.284581
C138	C	1.806783	0.201534	1.617914
C139	C	1.204841	-0.410980	0.985588
C140	C	1.538175	-0.077647	1.318921
C141	C	1.871508	0.255686	1.652254
C142	C	1.181328	-0.331825	0.953445
C143	C	1.514661	0.001508	1.286779
C144	C	1.847995	0.334842	1.620112
C145	C	1.180842	-0.332166	0.867778
C146	C	1.514176	0.001167	1.201112
C147	C	1.847509	0.334500	1.534445
C148	C	1.292953	-0.435194	0.872737
C149	C	1.626286	-0.101861	1.206070
C150	C	1.959619	0.231473	1.539404
C151	C	1.292498	-0.436863	0.958367
C152	C	1.625831	-0.103530	1.291701
C153	C	1.959164	0.229804	1.625034
C154	C	1.204860	-0.410945	1.069448
C155	C	1.538194	-0.077612	1.402781
C156	C	1.871527	0.255721	1.736115
C157	C	1.204790	-0.411065	0.753343
C158	C	1.538123	-0.077731	1.086676
C159	C	1.871456	0.255602	1.420010
H160	H	0.720038	-0.472953	0.472641
H161	H	1.053371	-0.139620	0.805975
H162	H	1.386704	0.193713	1.139308
Br163	Br	1.032108	-0.438434	0.824904
Br164	Br	1.365442	-0.105100	1.158237
Br165	Br	1.698775	0.228233	1.491571
H166	H	0.690247	-0.349372	0.349446
H167	H	1.023580	-0.016039	0.682779
H168	H	1.356914	0.317295	1.016113
Br169	Br	1.164575	-0.562742	0.987382
Br170	Br	1.497908	-0.229409	1.320715
Br171	Br	1.831241	0.103925	1.654048
H172	H	1.155127	-0.844729	0.523879
H173	H	1.488460	-0.511395	0.857213
H174	H	1.821793	-0.178062	1.190546
Br175	Br	1.376532	-0.839692	0.375923
Br176	Br	1.709865	-0.506359	0.709256
Br177	Br	2.043199	-0.173026	1.042590
H178	H	1.155284	-0.971966	0.524253
H179	H	1.488618	-0.638632	0.857587
H180	H	1.821951	-0.305299	1.190920
Br181	Br	1.074632	-0.826201	0.298389
Br182	Br	1.407966	-0.492868	0.631723
Br183	Br	1.741299	-0.159534	0.965056
Br184	Br	1.032262	-0.981857	0.438883
Br185	Br	1.365595	-0.648524	0.772216
Br186	Br	1.698929	-0.315190	1.105550
Br187	Br	1.031290	-0.826151	0.438367
Br188	Br	1.364623	-0.492817	0.771701
Br189	Br	1.697957	-0.159484	1.105034
Br190	Br	1.073083	-0.980824	0.299171
Br191	Br	1.406416	-0.647491	0.632504
Br192	Br	1.739750	-0.314157	0.965838
Br193	Br	1.255158	-0.990156	0.261916
Br194	Br	1.588492	-0.656823	0.595249
Br195	Br	1.921825	-0.323490	0.928582
Br196	Br	1.256511	-0.836091	0.262120
Br197	Br	1.589845	-0.502757	0.595453
Br198	Br	1.923178	-0.169424	0.928786
H199	H	1.225767	-0.290092	0.849070
H200	H	1.559100	0.043241	1.182403
H201	H	1.892434	0.376574	1.515736
H202	H	1.314698	-0.979811	0.491934
H203	H	1.648031	-0.646477	0.825267
H204	H	1.981364	-0.313144	1.158600
H205	H	1.310430	-0.852056	0.494950
H206	H	1.643763	-0.518723	0.828283
H207	H	1.977096	-0.185390	1.161616
H208	H	1.226849	-0.290066	0.975850
H209	H	1.560182	0.043268	1.309183
H210	H	1.893515	0.376601	1.642517
H211	H	1.340896	-0.979683	0.395385
H212	H	1.674229	-0.646350	0.728718
H213	H	2.007562	-0.313017	1.062051
H214	H	1.154846	-0.524096	0.845697
H215	H	1.488180	-0.190763	1.179030
H216	H	1.821513	0.142571	1.512363
Br217	Br	1.031264	-0.437930	0.980505
Br218	Br	1.364598	-0.104596	1.313838
Br219	Br	1.697931	0.228737	1.647171
Br220	Br	1.073473	-0.298860	0.829647
Br221	Br	1.406806	0.034473	1.162980
Br222	Br	1.740139	0.367806	1.496314
Br223	Br	1.075152	-0.298051	0.984415
Br224	Br	1.408485	0.035282	1.317748
Br225	Br	1.741819	0.368615	1.651081
Br226	Br	1.328711	-0.530142	0.838350
Br227	Br	1.662044	-0.196809	1.171683
Br228	Br	1.995378	0.136525	1.505016
Br229	Br	1.322063	-0.533991	0.993555
Br230	Br	1.655396	-0.200658	1.326889
Br231	Br	1.988730	0.132675	1.660222
H232	H	1.343079	-0.400517	0.982039
H233	H	1.676412	-0.067184	1.315373
H234	H	2.009745	0.266150	1.648706
H235	H	1.340975	-0.395684	0.854638
H236	H	1.674308	-0.062350	1.187971
H237	H	2.007641	0.270983	1.521305
