data_functionalizedCrystal
_audit_creation_method	'MofGen! by Chris Wilmer'
_symmetry_space_group_name_H-M	'P1'
_symmetry_Int_Tables_number	1
_symmetry_cell_setting	triclinic
loop_
_symmetry_equiv_pos_as_xyz
  x,y,z
_cell_length_a	27.731994
_cell_length_b	27.732048
_cell_length_c	26.809956
_cell_angle_alpha	89.988846
_cell_angle_beta	90.017800
_cell_angle_gamma	97.368405
loop_
_atom_site_label
_atom_site_type_symbol
_atom_site_fract_x
_atom_site_fract_y
_atom_site_fract_z
O1	O	0.640958	-0.057391	0.041414
O2	O	0.890958	0.192609	0.291414
O3	O	1.140958	0.442609	0.541414
O4	O	1.390958	0.692609	0.791414
O5	O	0.500161	-0.066164	0.041431
O6	O	0.750161	0.183836	0.291431
O7	O	1.000161	0.433836	0.541431
O8	O	1.250161	0.683836	0.791431
O9	O	0.574932	0.008620	0.041412
O10	O	0.824932	0.258620	0.291412
O11	O	1.074932	0.508620	0.541412
O12	O	1.324932	0.758620	0.791412
O13	O	0.566187	-0.132176	0.041432
O14	O	0.816187	0.117824	0.291432
O15	O	1.066187	0.367824	0.541432
O16	O	1.316187	0.617824	0.791432
O17	O	0.574899	0.008620	-0.041547
O18	O	0.824899	0.258620	0.208453
O19	O	1.074899	0.508620	0.458453
O20	O	1.324899	0.758620	0.708453
O21	O	0.500127	-0.066164	-0.041528
O22	O	0.750127	0.183836	0.208472
O23	O	1.000127	0.433836	0.458472
O24	O	1.250127	0.683836	0.708472
O25	O	0.640924	-0.057391	-0.041545
O26	O	0.890924	0.192609	0.208455
O27	O	1.140924	0.442609	0.458455
O28	O	1.390924	0.692609	0.708455
Zn29	Zn	0.570520	-0.061777	-0.054708
Zn30	Zn	0.820520	0.188223	0.195292
Zn31	Zn	1.070520	0.438223	0.445292
Zn32	Zn	1.320520	0.688223	0.695292
Zn33	Zn	0.570565	-0.061778	0.054594
Zn34	Zn	0.820565	0.188222	0.304594
Zn35	Zn	1.070565	0.438222	0.554594
Zn36	Zn	1.320565	0.688222	0.804594
O37	O	0.566153	-0.132175	-0.041527
O38	O	0.816153	0.117825	0.208473
O39	O	1.066153	0.367825	0.458473
O40	O	1.316153	0.617825	0.708473
C41	C	0.482137	-0.065984	-0.000046
C42	C	0.732137	0.184016	0.249954
C43	C	0.982137	0.434016	0.499954
C44	C	1.232137	0.684016	0.749954
C45	C	0.428480	-0.065442	-0.000040
C46	C	0.678480	0.184558	0.249960
C47	C	0.928480	0.434558	0.499960
C48	C	1.178480	0.684558	0.749960
C49	C	0.095743	-0.062025	-0.045281
C50	C	0.345743	0.187975	0.204719
C51	C	0.595743	0.437975	0.454719
C52	C	0.845743	0.687975	0.704719
C53	C	-0.105915	-0.059964	-0.045287
C54	C	0.144085	0.190036	0.204713
C55	C	0.394085	0.440036	0.454713
C56	C	0.644085	0.690036	0.704713
O57	O	-0.132003	-0.059676	-0.083746
O58	O	0.117997	0.190324	0.166254
O59	O	0.367997	0.440324	0.416254
O60	O	0.617997	0.690324	0.666254
N61	N	-0.131111	-0.059708	-0.000066
N62	N	0.118889	0.190292	0.249934
N63	N	0.368889	0.440292	0.499934
N64	N	0.618889	0.690292	0.749934
C65	C	-0.105890	-0.059965	0.045160
C66	C	0.144110	0.190035	0.295160
C67	C	0.394110	0.440035	0.545160
C68	C	0.644110	0.690035	0.795160
O69	O	-0.131947	-0.059695	0.083623
O70	O	0.118053	0.190305	0.333623
O71	O	0.368053	0.440305	0.583623
O72	O	0.618053	0.690305	0.833623
C73	C	0.095768	-0.062023	0.045165
C74	C	0.345768	0.187977	0.295165
C75	C	0.595768	0.437977	0.545165
C76	C	0.845768	0.687977	0.795165
C77	C	0.120961	-0.062283	-0.000059
C78	C	0.370961	0.187717	0.249941
C79	C	0.620961	0.437717	0.499941
C80	C	0.870961	0.687717	0.749941
C81	C	0.120937	-0.062285	-0.090501
C82	C	0.370937	0.187715	0.159499
C83	C	0.620937	0.437715	0.409499
C84	C	0.870937	0.687715	0.659499
C85	C	0.171348	-0.062803	-0.090499
C86	C	0.421348	0.187197	0.159501
C87	C	0.671348	0.437197	0.409501
C88	C	0.921348	0.687197	0.659501
C89	C	0.196566	-0.063061	-0.045277
C90	C	0.446566	0.186939	0.204723
C91	C	0.696566	0.436939	0.454723
C92	C	0.946566	0.686939	0.704723
C93	C	0.171372	-0.062801	-0.000057
C94	C	0.421372	0.187199	0.249943
C95	C	0.671372	0.437199	0.499943
C96	C	0.921372	0.687199	0.749943
C97	C	0.120989	-0.062276	0.090390
C98	C	0.370989	0.187724	0.340390
C99	C	0.620989	0.437724	0.590390
C100	C	0.870989	0.687724	0.840390
C101	C	0.171407	-0.062789	0.090388
C102	C	0.421407	0.187211	0.340388
C103	C	0.671407	0.437211	0.590388
C104	C	0.921407	0.687211	0.840388
C105	C	0.196600	-0.063050	0.045164
C106	C	0.446600	0.186950	0.295164
C107	C	0.696600	0.436950	0.545164
C108	C	0.946600	0.686950	0.795164
C109	C	0.247001	-0.063578	0.045167
C110	C	0.497001	0.186422	0.295167
C111	C	0.747001	0.436422	0.545167
C112	C	0.997001	0.686422	0.795167
N113	N	0.272198	-0.063833	-0.000054
N114	N	0.522198	0.186167	0.249946
N115	N	0.772198	0.436167	0.499946
N116	N	1.022198	0.686167	0.749946
C117	C	0.246980	-0.063575	-0.045276
C118	C	0.496980	0.186425	0.204724
C119	C	0.746980	0.436425	0.454724
C120	C	0.996980	0.686425	0.704724
C121	C	-0.211763	-0.058885	0.045154
C122	C	0.038237	0.191115	0.295154
C123	C	0.288237	0.441115	0.545154
C124	C	0.538237	0.691115	0.795154
C125	C	-0.262177	-0.058372	0.045152
C126	C	-0.012177	0.191628	0.295152
C127	C	0.237823	0.441628	0.545152
C128	C	0.487823	0.691628	0.795152
C129	C	-0.262199	-0.058370	-0.045294
C130	C	-0.012199	0.191630	0.204706
C131	C	0.237801	0.441630	0.454706
C132	C	0.487801	0.691630	0.704706
C133	C	-0.211784	-0.058887	-0.045293
C134	C	0.038216	0.191113	0.204707
C135	C	0.288216	0.441113	0.454707
C136	C	0.538216	0.691113	0.704707
C137	C	-0.186567	-0.059141	-0.000067
C138	C	0.063433	0.190859	0.249933
C139	C	0.313433	0.440859	0.499933
C140	C	0.563433	0.690859	0.749933
C141	C	0.352847	-0.064663	-0.045268
C142	C	0.602847	0.185337	0.204732
C143	C	0.852847	0.435337	0.454732
C144	C	1.102847	0.685337	0.704732
C145	C	0.403262	-0.065184	-0.045262
C146	C	0.653262	0.184816	0.204738
C147	C	0.903262	0.434816	0.454738
C148	C	1.153262	0.684816	0.704738
C149	C	0.403280	-0.065183	0.045184
C150	C	0.653280	0.184817	0.295184
C151	C	0.903280	0.434817	0.545184
C152	C	1.153280	0.684817	0.795184
C153	C	0.352869	-0.064665	0.045179
C154	C	0.602869	0.185335	0.295179
C155	C	0.852869	0.435335	0.545179
C156	C	1.102869	0.685335	0.795179
C157	C	0.327654	-0.064404	-0.000052
C158	C	0.577654	0.185596	0.249948
C159	C	0.827654	0.435596	0.499948
C160	C	1.077654	0.685596	0.749948
O161	O	0.273121	-0.063860	0.083606
O162	O	0.523121	0.186140	0.333606
O163	O	0.773121	0.436140	0.583606
O164	O	1.023121	0.686140	0.833606
O165	O	0.273048	-0.063834	-0.083733
O166	O	0.523048	0.186166	0.166267
O167	O	0.773048	0.436166	0.416267
O168	O	1.023048	0.686166	0.666267
C169	C	0.045332	-0.061507	-0.045283
C170	C	0.295332	0.188493	0.204717
C171	C	0.545332	0.438493	0.454717
C172	C	0.795332	0.688493	0.704717
C173	C	0.020139	-0.061247	-0.000063
C174	C	0.270139	0.188753	0.249937
C175	C	0.520139	0.438753	0.499937
C176	C	0.770139	0.688753	0.749937
C177	C	0.045357	-0.061505	0.045160
C178	C	0.295357	0.188495	0.295160
C179	C	0.545357	0.438495	0.545160
C180	C	0.795357	0.688495	0.795160
C181	C	-0.030275	-0.060734	-0.000064
C182	C	0.219725	0.189266	0.249936
C183	C	0.469725	0.439266	0.499936
C184	C	0.719725	0.689266	0.749936
C185	C	-0.055493	-0.060476	-0.045286
C186	C	0.194507	0.189524	0.204714
C187	C	0.444507	0.439524	0.454714
C188	C	0.694507	0.689524	0.704714
C189	C	-0.030297	-0.060731	-0.090507
C190	C	0.219703	0.189269	0.159493
C191	C	0.469703	0.439269	0.409493
C192	C	0.719703	0.689269	0.659493
C193	C	0.020114	-0.061249	-0.090505
C194	C	0.270114	0.188751	0.159495
C195	C	0.520114	0.438751	0.409495
C196	C	0.770114	0.688751	0.659495
C197	C	0.020160	-0.061250	0.090381
C198	C	0.270160	0.188750	0.340381
C199	C	0.520160	0.438750	0.590381
C200	C	0.770160	0.688750	0.840381
C201	C	-0.030251	-0.060732	0.090375
C202	C	0.219749	0.189268	0.340375
C203	C	0.469749	0.439268	0.590375
C204	C	0.719749	0.689268	0.840375
C205	C	-0.055469	-0.060474	0.045153
C206	C	0.194531	0.189526	0.295153
C207	C	0.444531	0.439526	0.545153
C208	C	0.694531	0.689526	0.795153
C209	C	0.574732	0.026627	-0.000069
C210	C	0.824732	0.276627	0.249931
C211	C	1.074732	0.526627	0.499931
C212	C	1.324732	0.776627	0.749931
C213	C	0.574179	0.080282	-0.000073
C214	C	0.824179	0.330282	0.249927
C215	C	1.074179	0.580282	0.499927
C216	C	1.324179	0.830282	0.749927
C217	C	0.658949	-0.057571	-0.000067
C218	C	0.908949	0.192429	0.249933
C219	C	1.158949	0.442429	0.499933
C220	C	1.408949	0.692429	0.749933
C221	C	0.712605	-0.058114	-0.000070
C222	C	0.962605	0.191886	0.249930
C223	C	1.212605	0.441886	0.499930
C224	C	1.462605	0.691886	0.749930
N225	N	0.570494	-0.061776	-0.129304
N226	N	0.820494	0.188224	0.120696
N227	N	1.070494	0.438224	0.370696
N228	N	1.320494	0.688224	0.620696
C229	C	0.566353	-0.150182	-0.000045
C230	C	0.816353	0.099818	0.249955
C231	C	1.066353	0.349818	0.499955
C232	C	1.316353	0.599818	0.749955
C233	C	0.566906	-0.203837	-0.000037
C234	C	0.816906	0.046163	0.249963
C235	C	1.066906	0.296163	0.499963
C236	C	1.316906	0.546163	0.749963
C237	C	0.614884	0.419105	-0.000052
C238	C	0.864884	0.669105	0.249948
C239	C	1.114884	0.919105	0.499948
C240	C	1.364884	1.169105	0.749948
C241	C	0.612833	0.620764	-0.000045
C242	C	0.862833	0.870764	0.249955
C243	C	1.112833	1.120764	0.499955
C244	C	1.362833	1.370764	0.749955
O245	O	0.650055	0.652027	-0.000028
O246	O	0.900055	0.902027	0.249972
O247	O	1.150055	1.152027	0.499972
O248	O	1.400055	1.402027	0.749972
N249	N	0.568496	0.639879	-0.000040
N250	N	0.818496	0.889879	0.249960
N251	N	1.068496	1.139879	0.499960
N252	N	1.318496	1.389879	0.749960
C253	C	0.524670	0.608576	-0.000033
C254	C	0.774670	0.858576	0.249967
C255	C	1.024670	1.108576	0.499967
C256	C	1.274670	1.358576	0.749967
O257	O	0.486912	0.629462	-0.000024
O258	O	0.736912	0.879462	0.249976
O259	O	0.986912	1.129462	0.499976
O260	O	1.236912	1.379462	0.749976
C261	C	0.526721	0.406918	-0.000037
C262	C	0.776721	0.656918	0.249963
C263	C	1.026721	0.906918	0.499963
C264	C	1.276721	1.156918	0.749963
C265	C	0.571060	0.387805	-0.000047
C266	C	0.821060	0.637805	0.249953
C267	C	1.071060	0.887805	0.499953
C268	C	1.321060	1.137805	0.749953
C269	C	0.659220	0.399992	-0.000061
C270	C	0.909220	0.649992	0.249939
C271	C	1.159220	0.899992	0.499939
C272	C	1.409220	1.149992	0.749939
C273	C	0.659732	0.349580	-0.000066
C274	C	0.909732	0.599580	0.249934
C275	C	1.159732	0.849580	0.499934
C276	C	1.409732	1.099580	0.749934
C277	C	0.615908	0.318281	-0.000061
C278	C	0.865908	0.568281	0.249939
C279	C	1.115908	0.818281	0.499939
C280	C	1.365908	1.068281	0.749939
C281	C	0.571573	0.337394	-0.000052
C282	C	0.821573	0.587394	0.249948
C283	C	1.071573	0.837394	0.499948
C284	C	1.321573	1.087394	0.749948
C285	C	0.482895	0.375615	-0.000027
C286	C	0.732895	0.625615	0.249973
C287	C	0.982895	0.875615	0.499973
C288	C	1.232895	1.125615	0.749973
C289	C	0.483412	0.325198	-0.000027
C290	C	0.733412	0.575198	0.249973
C291	C	0.983412	0.825198	0.499973
C292	C	1.233412	1.075198	0.749973
C293	C	0.527751	0.306086	-0.000037
C294	C	0.777751	0.556086	0.249963
C295	C	1.027751	0.806086	0.499963
C296	C	1.277751	1.056086	0.749963
C297	C	0.528262	0.255683	-0.000051
C298	C	0.778262	0.505683	0.249949
C299	C	1.028262	0.755683	0.499949
C300	C	1.278262	1.005683	0.749949
N301	N	0.572598	0.236567	-0.000056
N302	N	0.822598	0.486567	0.249944
N303	N	1.072598	0.736567	0.499944
N304	N	1.322598	0.986567	0.749944
C305	C	0.616421	0.267867	-0.000061
C306	C	0.866421	0.517867	0.249939
C307	C	1.116421	0.767867	0.499939
C308	C	1.366421	1.017867	0.749939
C309	C	0.523596	0.714450	-0.000032
C310	C	0.773596	0.964450	0.249968
C311	C	1.023596	1.214450	0.499968
C312	C	1.273596	1.464450	0.749968
C313	C	0.523083	0.764864	-0.000032
C314	C	0.773083	1.014864	0.249968
C315	C	1.023083	1.264864	0.499968
C316	C	1.273083	1.514864	0.749968
C317	C	0.611246	0.777049	-0.000043
C318	C	0.861246	1.027049	0.249957
C319	C	1.111246	1.277049	0.499957
C320	C	1.361246	1.527049	0.749957
C321	C	0.611759	0.726633	-0.000047
C322	C	0.861759	0.976633	0.249953
C323	C	1.111759	1.226633	0.499953
C324	C	1.361759	1.476633	0.749953
C325	C	0.567932	0.695335	-0.000037
C326	C	0.817932	0.945335	0.249963
C327	C	1.067932	1.195335	0.499963
C328	C	1.317932	1.445335	0.749963
C329	C	0.617494	0.161998	-0.000071
C330	C	0.867494	0.411998	0.249929
C331	C	1.117494	0.661998	0.499929
C332	C	1.367494	0.911998	0.749929
C333	C	0.618002	0.111581	-0.000078
C334	C	0.868002	0.361581	0.249922
C335	C	1.118002	0.611581	0.499922
C336	C	1.368002	0.861581	0.749922
C337	C	0.529839	0.099401	-0.000064
C338	C	0.779839	0.349401	0.249936
C339	C	1.029839	0.599401	0.499936
C340	C	1.279839	0.849401	0.749936
C341	C	0.529331	0.149813	-0.000060
C342	C	0.779331	0.399813	0.249940
C343	C	1.029331	0.649813	0.499940
C344	C	1.279331	0.899813	0.749940
C345	C	0.573162	0.181111	-0.000062
C346	C	0.823162	0.431111	0.249938
C347	C	1.073162	0.681111	0.499938
C348	C	1.323162	0.931111	0.749938
O349	O	0.491060	0.224391	-0.000063
O350	O	0.741060	0.474391	0.249937
O351	O	0.991060	0.724391	0.499937
O352	O	1.241060	0.974391	0.749937
O353	O	0.654174	0.246971	-0.000060
O354	O	0.904174	0.496971	0.249940
O355	O	1.154174	0.746971	0.499940
O356	O	1.404174	0.996971	0.749940
C357	C	0.614372	0.469517	-0.000047
C358	C	0.864372	0.719517	0.249953
C359	C	1.114372	0.969517	0.499953
C360	C	1.364372	1.219517	0.749953
C361	C	0.570036	0.488629	-0.000038
C362	C	0.820036	0.738629	0.249962
C363	C	1.070036	0.988629	0.499962
C364	C	1.320036	1.238629	0.749962
C365	C	0.526213	0.457330	-0.000033
C366	C	0.776213	0.707330	0.249967
C367	C	1.026213	0.957330	0.499967
C368	C	1.276213	1.207330	0.749967
C369	C	0.569523	0.539043	-0.000038
C370	C	0.819523	0.789043	0.249962
C371	C	1.069523	1.039043	0.499962
C372	C	1.319523	1.289043	0.749962
C373	C	0.613346	0.570343	-0.000043
C374	C	0.863346	0.820343	0.249957
C375	C	1.113346	1.070343	0.499957
C376	C	1.363346	1.320343	0.749957
C377	C	0.657683	0.551228	-0.000048
C378	C	0.907683	0.801228	0.249952
C379	C	1.157683	1.051228	0.499952
C380	C	1.407683	1.301228	0.749952
C381	C	0.658195	0.500816	-0.000052
C382	C	0.908195	0.750816	0.249948
C383	C	1.158195	1.000816	0.499948
C384	C	1.408195	1.250816	0.749948
C385	C	0.481876	0.476445	-0.000028
C386	C	0.731876	0.726445	0.249972
C387	C	0.981876	0.976445	0.499972
C388	C	1.231876	1.226445	0.749972
C389	C	0.481367	0.526857	-0.000024
C390	C	0.731367	0.776857	0.249976
C391	C	0.981367	1.026857	0.499976
C392	C	1.231367	1.276857	0.749976
C393	C	0.525191	0.558157	-0.000029
C394	C	0.775191	0.808157	0.249971
C395	C	1.025191	1.058157	0.499971
C396	C	1.275191	1.308157	0.749971
C397	C	0.537423	-0.094877	-0.526179
C398	C	0.787423	0.155123	-0.276179
C399	C	1.037423	0.405123	-0.026179
C400	C	1.287423	0.655123	0.223821
C401	C	0.537398	-0.094877	-0.317302
C402	C	0.787398	0.155123	-0.067302
C403	C	1.037398	0.405123	0.182698
C404	C	1.287398	0.655123	0.432698
O405	O	0.509219	-0.123016	-0.290294
O406	O	0.759219	0.126984	-0.040294
O407	O	1.009219	0.376984	0.209706
O408	O	1.259219	0.626984	0.459706
N409	N	0.570510	-0.061774	-0.291183
N410	N	0.820510	0.188226	-0.041183
N411	N	1.070510	0.438226	0.208817
N412	N	1.320510	0.688226	0.458817
C413	C	0.603630	-0.028667	-0.317287
C414	C	0.853630	0.221333	-0.067287
C415	C	1.103630	0.471333	0.182713
C416	C	1.353630	0.721333	0.432713
O417	O	0.631790	-0.000508	-0.290278
O418	O	0.881790	0.249492	-0.040278
O419	O	1.131790	0.499492	0.209722
O420	O	1.381790	0.749492	0.459722
C421	C	0.603652	-0.028665	-0.526163
C422	C	0.853652	0.221335	-0.276163
C423	C	1.103652	0.471335	-0.026163
C424	C	1.353652	0.721335	0.223837
C425	C	0.570541	-0.061773	-0.552280
C426	C	0.820541	0.188227	-0.302280
C427	C	1.070541	0.438227	-0.052280
C428	C	1.320541	0.688227	0.197720
C429	C	0.504313	-0.127982	-0.552296
C430	C	0.754313	0.122018	-0.302296
C431	C	1.004313	0.372018	-0.052296
C432	C	1.254313	0.622018	0.197704
C433	C	0.504322	-0.127983	-0.604512
C434	C	0.754322	0.122017	-0.354512
C435	C	1.004322	0.372017	-0.104512
C436	C	1.254322	0.622017	0.145488
C437	C	0.537440	-0.094880	-0.630612
C438	C	0.787440	0.155120	-0.380612
C439	C	1.037440	0.405120	-0.130612
C440	C	1.287440	0.655120	0.119388
C441	C	0.570549	-0.061775	-0.604496
C442	C	0.820549	0.188225	-0.354496
C443	C	1.070549	0.438225	-0.104496
C444	C	1.320549	0.688225	0.145504
C445	C	0.636769	0.004444	-0.552266
C446	C	0.886769	0.254444	-0.302266
C447	C	1.136769	0.504444	-0.052266
C448	C	1.386769	0.754444	0.197734
C449	C	0.636771	0.004442	-0.604489
C450	C	0.886771	0.254442	-0.354489
C451	C	1.136771	0.504442	-0.104489
C452	C	1.386771	0.754442	0.145511
C453	C	0.603659	-0.028666	-0.630605
C454	C	0.853659	0.221334	-0.380605
C455	C	1.103659	0.471334	-0.130605
C456	C	1.353659	0.721334	0.119395
C457	C	0.603675	-0.028672	-0.682812
C458	C	0.853675	0.221328	-0.432812
C459	C	1.103675	0.471328	-0.182812
C460	C	1.353675	0.721328	0.067188
N461	N	0.570562	-0.061775	-0.708931
N462	N	0.820562	0.188225	-0.458931
N463	N	1.070562	0.438225	-0.208931
N464	N	1.320562	0.688225	0.041069
C465	C	0.537445	-0.094879	-0.682831
C466	C	0.787445	0.155121	-0.432831
C467	C	1.037445	0.405121	-0.182831
C468	C	1.287445	0.655121	0.067169
C469	C	0.603616	-0.028671	-0.207623
C470	C	0.853616	0.221329	0.042377
C471	C	1.103616	0.471329	0.292377
C472	C	1.353616	0.721329	0.542377
C473	C	0.603611	-0.028672	-0.155405
C474	C	0.853611	0.221328	0.094595
C475	C	1.103611	0.471328	0.344595
C476	C	1.353611	0.721328	0.594595
C477	C	0.537378	-0.094882	-0.155423
C478	C	0.787378	0.155118	0.094577
C479	C	1.037378	0.405118	0.344577
C480	C	1.287378	0.655118	0.594577
C481	C	0.537386	-0.094883	-0.207643
C482	C	0.787386	0.155117	0.042357
C483	C	1.037386	0.405117	0.292357
C484	C	1.287386	0.655117	0.542357
C485	C	0.570503	-0.061774	-0.233742
C486	C	0.820503	0.188226	0.016258
C487	C	1.070503	0.438226	0.266258
C488	C	1.320503	0.688226	0.516258
C489	C	0.537465	-0.094879	-0.792489
C490	C	0.787465	0.155121	-0.542489
C491	C	1.037465	0.405121	-0.292489
C492	C	1.287465	0.655121	-0.042489
C493	C	0.537478	-0.094879	-0.844710
C494	C	0.787478	0.155121	-0.594710
C495	C	1.037478	0.405121	-0.344710
C496	C	1.287478	0.655121	-0.094710
C497	C	0.603709	-0.028668	-0.844687
C498	C	0.853709	0.221332	-0.594687
C499	C	1.103709	0.471332	-0.344687
C500	C	1.353709	0.721332	-0.094687
C501	C	0.603698	-0.028670	-0.792470
C502	C	0.853698	0.221330	-0.542470
C503	C	1.103698	0.471330	-0.292470
C504	C	1.353698	0.721330	-0.042470
C505	C	0.570572	-0.061777	-0.766373
C506	C	0.820572	0.188223	-0.516373
C507	C	1.070572	0.438223	-0.266373
C508	C	1.320572	0.688223	-0.016373
O509	O	0.631836	-0.000545	-0.709852
O510	O	0.881836	0.249455	-0.459852
O511	O	1.131836	0.499455	-0.209852
O512	O	1.381836	0.749455	0.040148
O513	O	0.509281	-0.123026	-0.709848
O514	O	0.759281	0.126974	-0.459848
O515	O	1.009281	0.376974	-0.209848
O516	O	1.259281	0.626974	0.040152
C517	C	0.537414	-0.094875	-0.473963
C518	C	0.787414	0.155125	-0.223963
C519	C	1.037414	0.405125	0.026037
C520	C	1.287414	0.655125	0.276037
C521	C	0.570524	-0.061770	-0.447847
C522	C	0.820524	0.188230	-0.197847
C523	C	1.070524	0.438230	0.052153
C524	C	1.320524	0.688230	0.302153
C525	C	0.603642	-0.028667	-0.473947
C526	C	0.853642	0.221333	-0.223947
C527	C	1.103642	0.471333	0.026053
C528	C	1.353642	0.721333	0.276053
C529	C	0.570519	-0.061771	-0.395628
C530	C	0.820519	0.188229	-0.145628
C531	C	1.070519	0.438229	0.104372
C532	C	1.320519	0.688229	0.354372
C533	C	0.537401	-0.094875	-0.369528
C534	C	0.787401	0.155125	-0.119528
C535	C	1.037401	0.405125	0.130472
C536	C	1.287401	0.655125	0.380472
C537	C	0.504288	-0.127978	-0.395647
C538	C	0.754288	0.122022	-0.145647
C539	C	1.004288	0.372022	0.104353
C540	C	1.254288	0.622022	0.354353
C541	C	0.504297	-0.127979	-0.447863
C542	C	0.754297	0.122021	-0.197863
C543	C	1.004297	0.372021	0.052137
C544	C	1.254297	0.622021	0.302137
C545	C	0.636755	0.004436	-0.447828
C546	C	0.886755	0.254436	-0.197828
C547	C	1.136755	0.504436	0.052172
C548	C	1.386755	0.754436	0.302172
C549	C	0.636744	0.004434	-0.395612
C550	C	0.886744	0.254434	-0.145612
C551	C	1.136744	0.504434	0.104388
C552	C	1.386744	0.754434	0.354388
C553	C	0.603626	-0.028669	-0.369512
C554	C	0.853626	0.221331	-0.119512
C555	C	1.103626	0.471331	0.130488
C556	C	1.353626	0.721331	0.380488
N557	N	0.570595	-0.061775	0.129190
N558	N	0.820595	0.188225	0.379190
N559	N	1.070595	0.438225	0.629190
N560	N	1.320595	0.688225	0.879190
H561	H	0.332322	-0.064455	-0.082099
H562	H	0.582322	0.185545	0.167901
H563	H	0.832322	0.435545	0.417901
H564	H	1.082322	0.685545	0.667901
H565	H	0.693365	0.576720	-0.000054
H566	H	0.943365	0.826720	0.249946
H567	H	1.193365	1.076720	0.499946
H568	H	1.443365	1.326720	0.749946
H569	H	0.477358	-0.154941	-0.625773
H570	H	0.727358	0.095059	-0.375773
H571	H	0.977358	0.345059	-0.125773
H572	H	1.227358	0.595059	0.124227
H573	H	0.654110	0.096023	-0.000087
H574	H	0.904110	0.346023	0.249913
H575	H	1.154110	0.596023	0.499913
H576	H	1.404110	0.846023	0.749913
H577	H	0.694301	0.485260	-0.000060
H578	H	0.944301	0.735260	0.249940
H579	H	1.194301	0.985260	0.499940
H580	H	1.444301	1.235260	0.749940
H581	H	-0.191235	-0.059092	0.081984
H582	H	0.058765	0.190908	0.331984
H583	H	0.308765	0.440908	0.581984
H584	H	0.558765	0.690908	0.831984
H585	H	0.630579	-0.001718	-0.134144
H586	H	0.880579	0.248282	0.115856
H587	H	1.130579	0.498282	0.365856
H588	H	1.380579	0.748282	0.615856
H589	H	0.100486	-0.062063	0.127217
H590	H	0.350486	0.187937	0.377217
H591	H	0.600486	0.437937	0.627217
H592	H	0.850486	0.687937	0.877217
H593	H	0.494160	0.073908	-0.000062
H594	H	0.744160	0.323908	0.249938
H595	H	0.994160	0.573908	0.499938
H596	H	1.244160	0.823908	0.749938
H597	H	0.446789	0.391167	-0.000016
H598	H	0.696789	0.641167	0.249984
H599	H	0.946789	0.891167	0.499984
H600	H	1.196789	1.141167	0.749984
H601	H	0.191937	-0.062997	0.127217
H602	H	0.441937	0.187003	0.377217
H603	H	0.691937	0.437003	0.627217
H604	H	0.941937	0.687003	0.877217
H605	H	0.663723	0.031394	-0.469075
H606	H	0.913723	0.281394	-0.219075
H607	H	1.163723	0.531394	0.030925
H608	H	1.413723	0.781394	0.280925
H609	H	-0.050838	-0.060524	-0.127329
H610	H	0.199162	0.189476	0.122671
H611	H	0.449162	0.439476	0.372671
H612	H	0.699162	0.689476	0.622671
H613	H	0.477343	-0.154939	-0.531049
H614	H	0.727343	0.095061	-0.281049
H615	H	0.977343	0.345061	-0.031049
H616	H	1.227343	0.595061	0.218951
H617	H	0.630665	-0.001715	-0.771206
H618	H	0.880665	0.248285	-0.521206
H619	H	1.130665	0.498285	-0.271206
H620	H	1.380665	0.748285	-0.021206
H621	H	0.630586	-0.001710	-0.228870
H622	H	0.880586	0.248290	0.021130
H623	H	1.130586	0.498290	0.271130
H624	H	1.380586	0.748290	0.521130
H625	H	0.663731	0.031404	-0.531010
H626	H	0.913731	0.281404	-0.281010
H627	H	1.163731	0.531404	-0.031010
H628	H	1.413731	0.781404	0.218990
H629	H	0.510423	-0.121842	-0.228904
H630	H	0.760423	0.128158	0.021096
H631	H	1.010423	0.378158	0.271096
H632	H	1.260423	0.628158	0.521096
H633	H	0.510413	-0.121837	-0.134164
H634	H	0.760413	0.128163	0.115836
H635	H	1.010413	0.378163	0.365836
H636	H	1.260413	0.628163	0.615836
H637	H	0.630674	-0.001717	-0.865946
H638	H	0.880674	0.248283	-0.615946
H639	H	1.130674	0.498283	-0.365946
H640	H	1.380674	0.748283	-0.115946
H641	H	0.510490	-0.121838	-0.771246
H642	H	0.760490	0.128162	-0.521246
H643	H	1.010490	0.378162	-0.271246
H644	H	1.260490	0.628162	-0.021246
H645	H	0.663739	0.031405	-0.625736
H646	H	0.913739	0.281405	-0.375736
H647	H	1.163739	0.531405	-0.125736
H648	H	1.413739	0.781405	0.124264
H649	H	0.647863	0.711076	-0.000054
H650	H	0.897863	0.961076	0.249946
H651	H	1.147863	1.211076	0.499946
H652	H	1.397863	1.461076	0.749946
H653	H	0.332354	-0.064461	0.082004
H654	H	0.582354	0.185539	0.332004
H655	H	0.832354	0.435539	0.582004
H656	H	1.082354	0.685539	0.832004
H657	H	0.040688	-0.061459	0.127207
H658	H	0.290688	0.188541	0.377207
H659	H	0.540688	0.438541	0.627207
H660	H	0.790688	0.688541	0.877207
H661	H	0.445258	0.542413	-0.000020
H662	H	0.695258	0.792413	0.249980
H663	H	0.945258	1.042413	0.499980
H664	H	1.195258	1.292413	0.749980
H665	H	0.493226	0.165375	-0.000066
H666	H	0.743226	0.415375	0.249934
H667	H	0.993226	0.665375	0.499934
H668	H	1.243226	0.915375	0.749934
H669	H	0.447722	0.299716	-0.000018
H670	H	0.697722	0.549716	0.249982
H671	H	0.947722	0.799716	0.499982
H672	H	1.197722	1.049716	0.749982
H673	H	0.446189	0.450966	-0.000023
H674	H	0.696189	0.700966	0.249977
H675	H	0.946189	0.950966	0.499977
H676	H	1.196189	1.200966	0.749977
H677	H	0.510514	-0.121841	-0.865972
H678	H	0.760514	0.128159	-0.615972
H679	H	1.010514	0.378159	-0.365972
H680	H	1.260514	0.628159	-0.115972
H681	H	0.477334	-0.154939	-0.469123
H682	H	0.727334	0.095061	-0.219123
H683	H	0.977334	0.345061	0.030877
H684	H	1.227334	0.595061	0.280877
H685	H	0.477324	-0.154934	-0.374387
H686	H	0.727324	0.095066	-0.124387
H687	H	0.977324	0.345066	0.125613
H688	H	1.227324	0.595066	0.375613
H689	H	0.663712	0.031394	-0.374352
H690	H	0.913712	0.281394	-0.124352
H691	H	1.163712	0.531394	0.125648
H692	H	1.413712	0.781394	0.375648
H693	H	0.423772	-0.065397	-0.082091
H694	H	0.673772	0.184603	0.167909
H695	H	0.923772	0.434603	0.417909
H696	H	1.173772	0.684603	0.667909
H697	H	0.191856	-0.063013	-0.127325
H698	H	0.441856	0.186987	0.122675
H699	H	0.691856	0.436987	0.372675
H700	H	0.941856	0.686987	0.622675
H701	H	0.646929	0.802541	-0.000047
H702	H	0.896929	1.052541	0.249953
H703	H	1.146929	1.302541	0.499953
H704	H	1.396929	1.552541	0.749953
H705	H	-0.191275	-0.059099	-0.082118
H706	H	0.058725	0.190901	0.167882
H707	H	0.308725	0.440901	0.417882
H708	H	0.558725	0.690901	0.667882
H709	H	0.100410	-0.062074	-0.127329
H710	H	0.350410	0.187926	0.122671
H711	H	0.600410	0.437926	0.372671
H712	H	0.850410	0.687926	0.622671
H713	H	-0.282740	-0.058161	-0.082116
H714	H	-0.032740	0.191839	0.167884
H715	H	0.217260	0.441839	0.417884
H716	H	0.467260	0.691839	0.667884
H717	H	-0.282686	-0.058167	0.081978
H718	H	-0.032686	0.191833	0.331978
H719	H	0.217314	0.441833	0.581978
H720	H	0.467314	0.691833	0.831978
H721	H	0.486977	0.780420	-0.000033
H722	H	0.736977	1.030420	0.249967
H723	H	0.986977	1.280420	0.499967
H724	H	1.236977	1.530420	0.749967
H725	H	0.423821	-0.065395	0.082003
H726	H	0.673821	0.184605	0.332003
H727	H	0.923821	0.434605	0.582003
H728	H	1.173821	0.684605	0.832003
H729	H	0.653186	0.187475	-0.000070
H730	H	0.903186	0.437475	0.249930
H731	H	1.153186	0.687475	0.499930
H732	H	1.403186	0.937475	0.749930
H733	H	0.040622	-0.061461	-0.127331
H734	H	0.290622	0.188539	0.122669
H735	H	0.540622	0.438539	0.372669
H736	H	0.790622	0.688539	0.622669
H737	H	-0.050759	-0.060524	0.127205
H738	H	0.199241	0.189476	0.377205
H739	H	0.449241	0.439476	0.627205
H740	H	0.699241	0.689476	0.877205
H741	H	0.694908	0.425472	-0.000064
H742	H	0.944908	0.675472	0.249936
H743	H	1.194908	0.925472	0.499936
H744	H	1.444908	1.175472	0.749936
H745	H	0.487905	0.688970	-0.000025
H746	H	0.737905	0.938970	0.249975
H747	H	0.987905	1.188970	0.499975
H748	H	1.237905	1.438970	0.749975
H749	H	0.695837	0.334024	-0.000072
H750	H	0.945837	0.584024	0.249928
H751	H	1.195837	0.834024	0.499928
H752	H	1.445837	1.084024	0.749928
