data_functionalizedCrystal
_audit_creation_method	'MofGen! by Chris Wilmer'
_symmetry_space_group_name_H-M	'P1'
_symmetry_Int_Tables_number	1
_symmetry_cell_setting	triclinic
loop_
_symmetry_equiv_pos_as_xyz
  x,y,z
_cell_length_a	15.995292
_cell_length_b	15.995292
_cell_length_c	14.472310
_cell_angle_alpha	90.002121
_cell_angle_beta	89.985801
_cell_angle_gamma	83.468616
loop_
_atom_site_label
_atom_site_type_symbol
_atom_site_fract_x
_atom_site_fract_y
_atom_site_fract_z
O1	O	1.111004	0.107692	-0.076859
O2	O	0.867220	0.121071	-0.076855
O3	O	0.995801	-0.007511	-0.076859
O4	O	0.982423	0.236274	-0.076856
O5	O	0.995768	-0.007504	0.076823
O6	O	0.867187	0.121078	0.076827
O7	O	1.110971	0.107699	0.076823
Cu8	Cu	0.989076	0.114389	0.090857
Cu9	Cu	0.989115	0.114381	-0.090889
O10	O	0.982390	0.236281	0.076826
C11	C	0.836008	0.120530	-0.000013
C12	C	0.743055	0.118898	-0.000012
C13	C	0.405318	0.112896	-0.000022
C14	C	0.428611	0.205703	-0.000364
C15	C	0.525286	0.207467	-0.000014
C16	C	0.572873	0.115874	-0.000018
C17	C	0.543762	0.069479	0.087738
C18	C	0.446972	0.068362	0.087808
C19	C	0.447154	0.066458	-0.086957
C20	C	0.543646	0.069898	-0.088113
C21	C	0.667569	0.117552	-0.000012
C22	C	0.310622	0.111215	-0.000022
C23	C	0.995240	-0.038703	-0.000020
C24	C	0.993608	-0.131655	-0.000027
C25	C	0.987607	-0.469393	-0.000018
C26	C	1.080413	-0.446100	0.000323
C27	C	1.082177	-0.349424	-0.000026
C28	C	0.990584	-0.301837	-0.000022
C29	C	0.944204	-0.330933	-0.087778
C30	C	0.943087	-0.427723	-0.087848
C31	C	0.941154	-0.427571	0.086917
C32	C	0.944593	-0.331080	0.088073
C33	C	0.992263	-0.207141	-0.000027
C34	C	0.985926	-0.564088	-0.000019
C35	C	1.142183	0.108240	-0.000021
C36	C	1.235136	0.109873	-0.000028
C37	C	0.982951	0.267473	-0.000014
C38	C	0.984583	0.360426	-0.000013
N39	N	0.989055	0.114395	0.218688
N40	N	0.989143	0.114368	-0.218720
C41	C	0.989114	0.114377	0.592779
C42	C	0.920082	0.182948	0.553616
C43	C	0.920241	0.183198	0.446527
C44	C	0.989084	0.114386	0.407188
C45	C	1.076447	0.133450	0.446024
C46	C	1.076059	0.133938	0.553146
C47	C	0.971563	0.026539	0.553308
C48	C	0.969559	0.027125	0.446181
C49	C	0.989072	0.114390	0.302300
C50	C	0.989131	0.114376	0.697668
H51	H	0.420134	0.100499	0.153410
C52	C	1.128024	-0.484756	-0.083047
C53	C	1.210530	-0.463458	-0.081738
C54	C	1.254413	-0.499061	-0.158519
H55	H	1.100791	-0.463886	-0.138065
H56	H	1.129069	-0.544233	-0.080989
H57	H	1.209481	-0.403993	-0.083803
H58	H	1.237785	-0.484328	-0.026737
H59	H	1.255458	-0.558537	-0.156461
H60	H	1.227174	-0.478188	-0.213531
H61	H	1.310400	-0.484621	-0.157636
C62	C	1.128098	-0.483277	0.084312
C63	C	1.155194	-0.418322	0.137409
C64	C	1.199116	-0.452543	0.214793
H65	H	1.175479	-0.520229	0.064694
H66	H	1.092122	-0.513591	0.120416
H67	H	1.191168	-0.388022	0.101312
H68	H	1.107830	-0.381365	0.157050
H69	H	1.163140	-0.482857	0.250897
H70	H	1.246493	-0.489495	0.195167
H71	H	1.217499	-0.408477	0.250834
C72	C	1.131058	-0.324852	-0.083944
C73	C	1.200253	-0.285365	-0.054861
C74	C	1.245303	-0.262725	-0.132146
H75	H	1.095578	-0.287291	-0.121578
H76	H	1.150173	-0.373850	-0.118457
H77	H	1.181137	-0.236373	-0.020362
H78	H	1.235753	-0.322911	-0.017237
H79	H	1.264418	-0.311723	-0.166659
H80	H	1.209816	-0.225166	-0.169775
H81	H	1.292261	-0.235938	-0.112423
H82	H	0.544318	0.243797	-0.062923
C83	C	0.888537	0.001981	0.589484
C84	C	0.903213	-0.073661	0.638627
C85	C	0.826747	-0.096293	0.671977
H86	H	0.851963	-0.005030	0.539069
H87	H	0.863290	0.044949	0.629204
H88	H	0.928447	-0.116620	0.598909
H89	H	0.939773	-0.066671	0.689055
H90	H	0.801501	-0.053325	0.711697
H91	H	0.790180	-0.103300	0.621556
H92	H	0.836696	-0.147613	0.705331
C93	C	0.934674	0.269376	0.589612
C94	C	0.864117	0.303544	0.639855
C95	C	0.877537	0.383153	0.673041
H96	H	0.943547	0.305218	0.539073
H97	H	0.982762	0.264353	0.628599
H98	H	0.816043	0.308571	0.600871
H99	H	0.855231	0.267726	0.690407
H100	H	0.925625	0.378131	0.712027
H101	H	0.886412	0.418988	0.622496
H102	H	0.829670	0.406343	0.707141
C103	C	0.987190	-0.304042	-0.174791
C104	C	0.984999	-0.216292	-0.175892
C105	C	1.024603	-0.191494	-0.256025
H106	H	0.958720	-0.321852	-0.227600
H107	H	1.044022	-0.328926	-0.175584
H108	H	0.928177	-0.191418	-0.175108
H109	H	1.013473	-0.198461	-0.123102
H110	H	1.081435	-0.216378	-0.256817
H111	H	0.996129	-0.209309	-0.308827
H112	H	1.023128	-0.131954	-0.256778
H113	H	0.975235	-0.454549	-0.153451
H114	H	0.931447	0.248382	0.420894
H115	H	1.091528	0.197997	0.578122
C116	C	0.549972	0.256207	0.083942
C117	C	0.637290	0.257942	0.084461
C118	C	0.660059	0.302840	0.161787
H119	H	0.533448	0.229584	0.138593
H120	H	0.522718	0.312121	0.081381
H121	H	0.664534	0.202038	0.087030
H122	H	0.653835	0.284571	0.029828
H123	H	0.632805	0.358754	0.159226
H124	H	0.643530	0.276213	0.216432
H125	H	0.719304	0.304030	0.162145
C126	C	1.146597	0.068560	0.412223
C127	C	1.186567	0.027122	0.488176
C128	C	1.251185	-0.032668	0.457071
H129	H	1.186320	0.095865	0.378033
H130	H	1.123586	0.028793	0.373800
H131	H	1.209578	0.066883	0.526583
H132	H	1.146867	-0.000200	0.522373
H133	H	1.228174	-0.072435	0.418649
H134	H	1.290901	-0.005356	0.422881
H135	H	1.278307	-0.060796	0.508599
H136	H	0.872841	-0.441548	0.087511
C137	C	1.032232	-0.044035	0.410303
C138	C	1.028122	-0.046466	0.313717
C139	C	1.085861	-0.111997	0.280636
H140	H	1.018994	-0.096011	0.434853
H141	H	1.087433	-0.034852	0.428818
H142	H	0.972933	-0.055655	0.295210
H143	H	1.041368	0.005494	0.289142
H144	H	1.141062	-0.102814	0.299151
H145	H	1.072619	-0.163968	0.305193
H146	H	1.083086	-0.113650	0.215099
H147	H	1.129031	0.085962	0.579050
H148	H	1.092286	0.196779	0.419187
H149	H	0.978365	-0.312518	0.152995
H150	H	1.118502	-0.330404	0.062879
C151	C	0.833169	0.168001	0.587824
C152	C	0.781653	0.155116	0.512137
C153	C	0.701586	0.141328	0.543620
H154	H	0.809277	0.215646	0.621803
H155	H	0.837695	0.119728	0.626533
H156	H	0.777125	0.203384	0.473444
H157	H	0.805518	0.107469	0.478151
H158	H	0.706111	0.093055	0.582329
H159	H	0.677702	0.188976	0.577599
H160	H	0.666624	0.132577	0.492273
H161	H	0.855302	0.171842	0.420272
H162	H	0.576632	0.003044	-0.093416
C163	C	0.883873	0.007691	0.412470
C164	C	0.867195	-0.070232	0.447707
C165	C	0.788266	-0.088155	0.416675
H166	H	0.883692	0.005747	0.346871
H167	H	0.841821	0.050333	0.433133
H168	H	0.909237	-0.112863	0.427038
H169	H	0.867359	-0.068307	0.513303
H170	H	0.746214	-0.045514	0.437338
H171	H	0.788093	-0.090096	0.351077
H172	H	0.776937	-0.141023	0.440585
C173	C	0.855459	-0.287044	0.094967
C174	C	0.839616	-0.232319	0.019902
C175	C	0.757508	-0.191745	0.026210
H176	H	0.849338	-0.255911	0.150926
H177	H	0.816626	-0.327781	0.094187
H178	H	0.878438	-0.191588	0.020690
H179	H	0.845718	-0.263430	-0.036068
H180	H	0.718675	-0.232482	0.025430
H181	H	0.751395	-0.160617	0.082172
H182	H	0.746745	-0.154616	-0.024724
C183	C	0.852355	-0.447069	-0.093366
C184	C	0.815603	-0.412725	-0.174715
C185	C	0.732029	-0.430537	-0.179845
H186	H	0.821930	-0.423227	-0.041545
H187	H	0.851021	-0.506299	-0.093501
H188	H	0.816932	-0.353507	-0.174572
H189	H	0.846003	-0.436560	-0.226550
H190	H	0.730695	-0.489766	-0.179980
H191	H	0.701612	-0.406694	-0.128020
H192	H	0.707085	-0.407244	-0.235043
C193	C	0.391178	0.253277	-0.084307
C194	C	0.346509	0.200079	-0.137257
C195	C	0.311999	0.243878	-0.214587
H196	H	0.435068	0.271755	-0.120545
H197	H	0.354164	0.300593	-0.064602
H198	H	0.383521	0.152778	-0.156963
H199	H	0.302607	0.181598	-0.101046
H200	H	0.274985	0.291194	-0.194882
H201	H	0.355894	0.262355	-0.250817
H202	H	0.281681	0.207793	-0.250519
C203	C	0.389748	0.253075	0.083053
C204	C	0.302124	0.254391	0.079807
C205	C	0.266298	0.298007	0.156646
H206	H	0.404030	0.309113	0.082409
H207	H	0.410593	0.225717	0.138027
H208	H	0.281287	0.281750	0.024847
H209	H	0.287818	0.198365	0.080464
H210	H	0.287144	0.270650	0.211620
H211	H	0.280587	0.354042	0.155995
H212	H	0.206843	0.298899	0.154458
C213	C	0.979892	-0.465415	0.175538
C214	C	0.973218	-0.551928	0.176960
C215	C	1.008911	-0.586821	0.258572
H216	H	0.950996	-0.439407	0.227225
H217	H	1.037537	-0.456418	0.178239
H218	H	0.915584	-0.560918	0.174268
H219	H	1.002117	-0.577959	0.125292
H220	H	1.066556	-0.577825	0.261273
H221	H	0.980012	-0.560807	0.310253
H222	H	1.004395	-0.645525	0.259544
H223	H	0.432435	0.000316	0.091792
H224	H	1.021905	-0.024489	0.578633
H225	H	0.563800	0.101704	0.153049
C226	C	0.586118	-0.020452	0.092045
C227	C	0.524682	-0.076196	0.090805
C228	C	0.563670	-0.159046	0.094757
H229	H	0.618051	-0.028243	0.147329
H230	H	0.622298	-0.031053	0.040268
H231	H	0.488517	-0.065599	0.142577
H232	H	0.492745	-0.068432	0.035526
H233	H	0.599850	-0.169647	0.042980
H234	H	0.595603	-0.166829	0.150041
H235	H	0.521993	-0.196879	0.093907
H236	H	0.418836	0.095463	-0.153472
C237	C	0.568244	0.115002	-0.174709
C238	C	0.495793	0.142821	-0.225307
C239	C	0.518425	0.184387	-0.305075
H240	H	0.604598	0.077433	-0.211449
H241	H	0.596380	0.161912	-0.157753
H242	H	0.467671	0.095918	-0.242264
H243	H	0.459431	0.180401	-0.188594
H244	H	0.546560	0.231296	-0.288119
H245	H	0.554779	0.146812	-0.341806
H246	H	0.469270	0.203273	-0.339410
C247	C	0.428474	-0.024613	-0.087952
C248	C	0.384573	-0.039913	-0.168766
C249	C	0.367356	-0.123797	-0.169713
H250	H	0.395232	-0.034929	-0.035667
H251	H	0.479823	-0.060823	-0.086076
H252	H	0.333232	-0.003714	-0.170633
H253	H	0.417801	-0.029616	-0.221064
H254	H	0.418705	-0.160007	-0.167837
H255	H	0.334116	-0.134106	-0.117425
H256	H	0.337575	-0.134192	-0.224548
H257	H	0.876805	-0.299051	-0.091038
