data_functionalizedCrystal
_audit_creation_method	'MofGen! by Chris Wilmer'
_symmetry_space_group_name_H-M	'P1'
_symmetry_Int_Tables_number	1
_symmetry_cell_setting	triclinic
loop_
_symmetry_equiv_pos_as_xyz
  x,y,z
_cell_length_a	14.044220
_cell_length_b	16.109301
_cell_length_c	15.186229
_cell_angle_alpha	90.005167
_cell_angle_beta	89.998463
_cell_angle_gamma	88.325179
loop_
_atom_site_label
_atom_site_type_symbol
_atom_site_fract_x
_atom_site_fract_y
_atom_site_fract_z
O1	O	-1.257643	-0.200436	-0.073140
O2	O	-0.981676	-0.193203	-0.073163
O3	O	-1.127241	-0.076352	-0.073142
O4	O	-1.112079	-0.317286	-0.073161
O5	O	-1.127231	-0.076350	0.073315
O6	O	-0.981667	-0.193200	0.073295
O7	O	-1.257634	-0.200433	0.073317
Zn8	Zn	-1.119649	-0.196816	0.096559
Zn9	Zn	-1.119661	-0.196820	-0.096405
O10	O	-1.112069	-0.317284	0.073296
C11	C	-0.946358	-0.190036	0.000063
C12	C	-0.841135	-0.180592	0.000055
C13	C	-1.292952	-0.203600	0.000089
C14	C	-1.398175	-0.213044	0.000091
C15	C	-0.648479	-0.163326	0.000074
C16	C	-0.590825	-0.230306	0.000072
C17	C	-0.483625	-0.220699	0.000083
C18	C	-0.755690	-0.172932	0.000064
C19	C	-1.126622	-0.045330	0.000087
C20	C	-1.124781	0.047102	0.000088
C21	C	-1.112688	-0.348306	0.000065
C22	C	-1.114529	-0.440738	0.000058
N23	N	-1.119647	-0.196814	0.228252
C24	C	-1.206874	0.263266	0.000081
C25	C	-1.205137	0.350116	0.000073
C26	C	-1.032429	0.343091	0.000063
C27	C	-1.034168	0.256243	0.000064
C28	C	-1.121393	0.216333	0.000078
C29	C	-1.117917	0.390031	0.000069
C30	C	-1.116032	0.484197	0.000061
C31	C	-1.123278	0.122161	0.000084
N32	N	-1.119671	-0.196816	-0.228097
C33	C	-1.184125	-0.145093	0.453984
C34	C	-1.184128	-0.145092	0.546173
C35	C	-1.055186	-0.248539	0.546164
C36	C	-1.055179	-0.248536	0.453976
C37	C	-1.119654	-0.196814	0.407888
C38	C	-1.119664	-0.196816	0.592266
C39	C	-1.119666	-0.196814	0.692222
C40	C	-1.119650	-0.196814	0.307926
H41	H	-0.621976	-0.294863	0.000063
H42	H	-0.961413	0.375597	0.000054
C43	C	-1.311587	-0.042848	0.536916
C44	C	-1.255000	-0.088242	0.596841
H45	H	-1.355345	-0.007754	0.568198
H46	H	-1.272144	-0.009997	0.500966
H47	H	-1.345662	-0.080012	0.500953
H48	H	-1.220920	-0.051078	0.632800
H49	H	-1.294449	-0.121096	0.632806
H50	H	-0.964554	0.218029	0.000059
C51	C	-0.506834	-0.083413	0.000078
C52	C	-0.606433	-0.076180	0.000075
H53	H	-0.480871	-0.029612	0.000071
H54	H	-0.486046	-0.112751	0.051150
H55	H	-0.486040	-0.112772	-0.050996
H56	H	-0.627228	-0.046826	0.051153
H57	H	-0.627230	-0.046830	-0.051002
C58	C	-1.377412	0.278937	0.000074
C59	C	-1.302750	0.219396	0.000080
H60	H	-1.436602	0.251853	0.000064
H61	H	-1.373146	0.312665	0.051145
H62	H	-1.373129	0.312662	-0.051002
H63	H	-1.307030	0.185674	0.051159
H64	H	-1.307018	0.185653	-0.050996
C65	C	-1.204664	-0.033440	0.350373
C66	C	-1.254963	-0.088195	0.403344
H67	H	-1.248392	0.001697	0.319116
H68	H	-1.165205	-0.000633	0.386359
H69	H	-1.166296	-0.064253	0.309709
H70	H	-1.293326	-0.057382	0.444013
H71	H	-1.294438	-0.121005	0.367355
H72	H	-1.002675	-0.290653	0.416443
C73	C	-1.303383	0.451839	-0.075217
C74	C	-1.299102	0.401703	0.000076
H75	H	-1.361400	0.483681	-0.075218
H76	H	-1.251199	0.488038	-0.075216
H77	H	-1.300471	0.417795	-0.126281
H78	H	-1.302008	0.435747	0.051140
H79	H	-1.351301	0.365500	0.000083
C80	C	-0.997951	-0.294484	0.687479
C81	C	-0.984327	-0.305398	0.596827
H82	H	-0.954209	-0.329594	0.718753
H83	H	-0.987671	-0.238237	0.702592
H84	H	-1.061210	-0.308236	0.702571
H85	H	-0.921070	-0.291641	0.581734
H86	H	-0.994599	-0.361658	0.581708
