data_functionalizedCrystal
_audit_creation_method	'MofGen! by Chris Wilmer'
_symmetry_space_group_name_H-M	'P1'
_symmetry_Int_Tables_number	1
_symmetry_cell_setting	triclinic
loop_
_symmetry_equiv_pos_as_xyz
  x,y,z
_cell_length_a	18.215407
_cell_length_b	18.101397
_cell_length_c	18.215407
_cell_angle_alpha	90.014899
_cell_angle_beta	90.007301
_cell_angle_gamma	90.017925
loop_
_atom_site_label
_atom_site_type_symbol
_atom_site_fract_x
_atom_site_fract_y
_atom_site_fract_z
Zn1	Zn	1.125025	-0.295002	0.416044
Zn2	Zn	1.124963	-0.418815	0.292972
Zn3	Zn	1.001978	-0.294986	0.292998
Zn4	Zn	1.001933	-0.418801	0.416003
O5	O	1.063475	-0.356901	0.354504
O6	O	1.228001	-0.311439	0.399725
O7	O	1.108642	-0.402388	0.189991
O8	O	1.018345	-0.191355	0.309348
O9	O	1.227956	-0.402403	0.309304
O10	O	1.108747	-0.191367	0.399750
O11	O	1.018285	-0.311411	0.190010
O12	O	0.898988	-0.311398	0.309309
O13	O	1.018268	-0.402380	0.518993
O14	O	0.898954	-0.402364	0.399680
O15	O	1.108703	-0.311426	0.519023
O16	O	1.108598	-0.522446	0.309265
O17	O	1.018208	-0.522436	0.399655
C18	C	0.872268	-0.356878	0.354493
C19	C	0.790470	-0.356887	0.354506
C20	C	1.063412	-0.549312	0.354469
C21	C	1.063452	-0.631626	0.354478
C22	C	0.525414	-0.404345	0.401496
C23	C	0.602273	-0.404339	0.401493
C24	C	0.602277	-0.309474	0.307526
C25	C	0.525419	-0.309484	0.307526
C26	C	0.486990	-0.356919	0.354516
C27	C	0.640706	-0.356902	0.354512
C28	C	0.724040	-0.356895	0.354507
C29	C	0.403651	-0.356927	0.354519
C30	C	1.063546	-0.930717	0.354545
C31	C	1.120258	-0.899367	0.297522
C32	C	1.120455	-0.813748	0.297669
C33	C	1.063499	-0.782334	0.354511
C34	C	1.084511	-0.813364	0.432082
C35	C	1.084950	-0.899009	0.431772
C36	C	0.985671	-0.899217	0.334669
C37	C	0.986056	-0.813567	0.332938
C38	C	1.063472	-0.698475	0.354497
C39	C	1.063575	-1.014576	0.354565
C40	C	1.255428	-0.356924	0.354516
C41	C	1.337226	-0.356934	0.354521
C42	C	1.063487	-0.356903	0.546457
C43	C	1.063493	-0.356904	0.628256
C44	C	1.063558	-0.163739	0.354556
C45	C	1.063593	-0.081425	0.354579
C46	C	1.110568	-0.309552	0.816467
C47	C	1.110564	-0.309551	0.893326
C48	C	1.016394	-0.404267	0.893283
C49	C	1.016395	-0.404263	0.816426
C50	C	1.063486	-0.356906	0.778020
C51	C	1.063481	-0.356910	0.931736
C52	C	1.063476	-0.356910	1.015070
C53	C	1.063490	-0.356905	0.694681
C54	C	1.063462	-0.356915	1.163298
C55	C	1.063474	-0.356913	1.081499
H56	H	0.494127	-0.442970	0.439758
N57	N	1.196256	-0.927796	0.314746
H58	H	1.232350	-0.907394	0.277863
H59	H	1.196349	-0.983533	0.312209
H60	H	1.148901	-0.270989	0.924626
N61	N	0.965594	-0.455331	0.934707
H62	H	0.972734	-0.448146	0.989230
H63	H	0.977015	-0.508226	0.921264
H64	H	0.633575	-0.270853	0.269269
N65	N	1.161359	-0.258477	0.775046
H66	H	1.195453	-0.288579	0.743159
H67	H	1.191133	-0.228492	0.811118
N68	N	0.643717	-0.455494	0.452161
H69	H	0.607707	-0.485544	0.481926
H70	H	0.675618	-0.425398	0.486270
H71	H	0.494134	-0.270863	0.269265
N72	N	0.965596	-0.455335	0.774962
H73	H	0.976996	-0.508252	0.788319
H74	H	0.972755	-0.448083	0.720458
N75	N	1.103054	-0.785953	0.221481
H76	H	1.095186	-0.829337	0.187498
H77	H	1.145302	-0.755019	0.202916
H78	H	0.966554	-0.920861	0.279086
H79	H	1.107274	-0.919994	0.239832
N80	N	0.927080	-0.785247	0.383929
H81	H	0.902577	-0.828302	0.409294
H82	H	0.889365	-0.756829	0.354715
H83	H	1.141873	-0.918935	0.448609
N84	N	1.196863	-0.786535	0.315089
H85	H	1.230548	-0.830176	0.322706
H86	H	1.195512	-0.755631	0.361240
H87	H	1.044467	-0.793015	0.475712
N88	N	1.032614	-0.926485	0.489969
H89	H	1.009363	-0.882960	0.515714
H90	H	1.060403	-0.957380	0.526828
N91	N	1.159072	-0.784899	0.454764
H92	H	1.179345	-0.751911	0.414911
H93	H	1.193385	-0.827972	0.462742
H94	H	0.970212	-0.793292	0.275852
H95	H	0.943416	-0.919492	0.376202
