data_functionalizedCrystal
_audit_creation_method	'MofGen! by Chris Wilmer'
_symmetry_space_group_name_H-M	'P1'
_symmetry_Int_Tables_number	1
_symmetry_cell_setting	triclinic
loop_
_symmetry_equiv_pos_as_xyz
  x,y,z
_cell_length_a	6.394989
_cell_length_b	10.654550
_cell_length_c	9.730223
_cell_angle_alpha	90.000043
_cell_angle_beta	89.998669
_cell_angle_gamma	94.508679
loop_
_atom_site_label
_atom_site_type_symbol
_atom_site_fract_x
_atom_site_fract_y
_atom_site_fract_z
O1	O	0.293441	-1.670947	-0.114177
O2	O	0.321399	-1.305765	-0.114201
O3	O	0.003431	-1.493539	-0.114190
O4	O	0.611409	-1.483172	-0.114188
O5	O	0.003422	-1.493527	0.114390
O6	O	0.321390	-1.305752	0.114379
O7	O	0.293433	-1.670934	0.114403
Zn8	Zn	0.307410	-1.488341	0.150683
Zn9	Zn	0.307421	-1.488358	-0.150481
O10	O	0.611400	-1.483160	0.114392
C11	C	0.319341	-1.258939	0.000085
C12	C	0.313200	-1.119430	0.000076
C13	C	0.689256	-1.485216	0.000096
C14	C	0.925582	-1.491480	0.000092
C15	C	0.295490	-1.717760	0.000113
C16	C	0.301631	-1.857269	0.000114
N17	N	0.307401	-1.488339	0.356219
N18	N	0.307414	-1.488369	-0.356018
C19	C	0.500414	-1.041927	0.000080
C20	C	0.494631	-0.910845	0.000104
C21	C	0.114403	-0.934782	0.000113
C22	C	0.120188	-1.065861	0.000099
C23	C	0.166665	-1.571516	0.428150
C24	C	0.166665	-1.571528	0.572033
C25	C	0.448157	-1.405184	0.572041
C26	C	0.448144	-1.405166	0.428161
H27	H	0.657577	-1.085539	0.000072
H28	H	0.052063	-1.639256	0.630595
F29	F	0.693891	-0.828366	0.000111
F30	F	-0.091003	-0.877758	0.000132
H31	H	-0.032274	-1.128967	0.000099
H32	H	0.052060	-1.639238	0.369578
F33	F	0.597945	-1.316673	0.648617
H34	H	0.562749	-1.337428	0.369591
