data_functionalizedCrystal
_audit_creation_method	'MofGen! by Chris Wilmer'
_symmetry_space_group_name_H-M	'P1'
_symmetry_Int_Tables_number	1
_symmetry_cell_setting	triclinic
loop_
_symmetry_equiv_pos_as_xyz
  x,y,z
_cell_length_a	16.959455
_cell_length_b	16.120484
_cell_length_c	16.959447
_cell_angle_alpha	92.866538
_cell_angle_beta	89.985678
_cell_angle_gamma	92.922454
loop_
_atom_site_label
_atom_site_type_symbol
_atom_site_fract_x
_atom_site_fract_y
_atom_site_fract_z
Zn1	Zn	1.192394	-0.331957	-0.462851
Zn2	Zn	1.692394	0.168043	0.037149
Zn3	Zn	1.185600	-0.471386	-0.337369
Zn4	Zn	1.685600	0.028614	0.162631
Zn5	Zn	1.060221	-0.331984	-0.330690
Zn6	Zn	1.560221	0.168016	0.169310
Zn7	Zn	1.053474	-0.471323	-0.469504
Zn8	Zn	1.553474	0.028677	0.030496
O9	O	1.122922	-0.401662	-0.400103
O10	O	1.622922	0.098338	0.099897
O11	O	1.302103	-0.350468	-0.446216
O12	O	1.802103	0.149532	0.053784
O13	O	1.168949	-0.452931	-0.225874
O14	O	1.668949	0.047069	0.274126
O15	O	1.083421	-0.215315	-0.342642
O16	O	1.583421	0.284685	0.157358
O17	O	1.297112	-0.452905	-0.354025
O18	O	1.797112	0.047095	0.145975
O19	O	1.180528	-0.215296	-0.439740
O20	O	1.680528	0.284704	0.060260
O21	O	1.076833	-0.350513	-0.220967
O22	O	1.576833	0.149487	0.279033
O23	O	0.948716	-0.350452	-0.349093
O24	O	1.448716	0.149548	0.150907
O25	O	1.071921	-0.452799	-0.579231
O26	O	1.571921	0.047201	-0.079231
O27	O	0.943759	-0.452824	-0.451079
O28	O	1.443759	0.047176	0.048921
O29	O	1.173985	-0.350408	-0.574343
O30	O	1.673985	0.149592	-0.074343
O31	O	1.162407	-0.588043	-0.360476
O32	O	1.662407	-0.088043	0.139524
O33	O	1.065334	-0.587997	-0.457556
O34	O	1.565334	-0.087997	0.042444
C35	C	0.917557	-0.401635	-0.400084
C36	C	1.417557	0.098365	0.099916
C37	C	0.829700	-0.401643	-0.400095
C38	C	1.329700	0.098357	0.099905
C39	C	0.460783	-0.348314	-0.347103
C40	C	0.960783	0.151686	0.152897
C41	C	0.455662	-0.455080	-0.453153
C42	C	0.955662	0.044920	0.046847
C43	C	0.538208	-0.455068	-0.453147
C44	C	1.038208	0.044932	0.046853
C45	C	0.582046	-0.401679	-0.400118
C46	C	1.082046	0.098321	0.099882
C47	C	0.543337	-0.348302	-0.347094
C48	C	1.043337	0.151698	0.152906
C49	C	0.576923	-0.508450	-0.506165
C50	C	1.076923	-0.008450	-0.006165
C51	C	0.659474	-0.508441	-0.506161
C52	C	1.159474	-0.008441	-0.006161
C53	C	0.703314	-0.455047	-0.453135
C54	C	1.203314	0.044953	0.046865
C55	C	0.664600	-0.401667	-0.400109
C56	C	1.164600	0.098333	0.099891
C57	C	0.708437	-0.348278	-0.347080
C58	C	1.208437	0.151722	0.152920
C59	C	0.669725	-0.294893	-0.294058
C60	C	1.169725	0.205107	0.205942
C61	C	0.587176	-0.294908	-0.294068
C62	C	1.087176	0.205092	0.205932
C63	C	0.785863	-0.455032	-0.453125
C64	C	1.285863	0.044968	0.046875
C65	C	0.790991	-0.348266	-0.347071
C66	C	1.290991	0.151734	0.152929
C67	C	1.112422	-0.618270	-0.410480
C68	C	1.612422	-0.118270	0.089520
C69	C	1.108003	-0.710935	-0.414945
C70	C	1.608003	-0.210935	0.085055
C71	C	1.099938	-0.880596	-0.423114
C72	C	1.599938	-0.380596	0.076886
C73	C	1.146048	-0.921888	-0.377106
C74	C	1.646048	-0.421888	0.122894
C75	C	1.141561	-1.016293	-0.381651
C76	C	1.641561	-0.516293	0.118349
C77	C	1.104424	-0.786182	-0.418570
C78	C	1.604424	-0.286182	0.081430
C79	C	1.329089	-0.401691	-0.400123
C80	C	1.829089	0.098309	0.099877
C81	C	1.416945	-0.401703	-0.400132
C82	C	1.916945	0.098297	0.099868
C83	C	1.122959	-0.401593	-0.606268
C84	C	1.622959	0.098407	-0.106268
C85	C	1.122974	-0.401564	-0.694124
C86	C	1.622974	0.098436	-0.194124
C87	C	1.133485	-0.184209	-0.389704
C88	C	1.633485	0.315791	0.110296
C89	C	1.137986	-0.091544	-0.385272
C90	C	1.637986	0.408456	0.114728
C91	C	1.069933	-0.454787	-1.068143
C92	C	1.569933	0.045213	-0.568143
C93	C	1.176213	-0.348166	-1.063048
C94	C	1.676213	0.151834	-0.563048
C95	C	1.176191	-0.348183	-0.980503
C96	C	1.676191	0.151817	-0.480503
C97	C	1.123040	-0.401504	-0.941774
C98	C	1.623040	0.098496	-0.441774
C99	C	1.069911	-0.454808	-0.985590
C100	C	1.569911	0.045192	-0.485590
C101	C	1.229324	-0.294887	-0.936681
C102	C	1.729324	0.205113	-0.436681
C103	C	1.229305	-0.294903	-0.854130
C104	C	1.729305	0.205097	-0.354130
C105	C	1.176150	-0.348221	-0.815400
C106	C	1.676150	0.151779	-0.315400
C107	C	1.123018	-0.401525	-0.859221
C108	C	1.623018	0.098475	-0.359221
C109	C	1.069867	-0.454846	-0.820492
C110	C	1.569867	0.045154	-0.320492
C111	C	1.016731	-0.508148	-0.864312
C112	C	1.516731	-0.008148	-0.364312
C113	C	1.016755	-0.508125	-0.946860
C114	C	1.516755	-0.008125	-0.446860
C115	C	1.176125	-0.348243	-0.732853
C116	C	1.676125	0.151757	-0.232853
C117	C	1.069845	-0.454867	-0.737940
C118	C	1.569845	0.045133	-0.237940
C119	C	1.122935	-0.401671	-0.194738
C120	C	1.622935	0.098329	0.305262
C121	C	1.123084	-0.401466	-0.106872
C122	C	1.623084	0.098534	0.393128
H123	H	0.826679	-0.304784	-0.303892
H124	H	1.326679	0.195216	0.196108
H125	H	1.272571	-0.251501	-0.818459
H126	H	1.772571	0.248499	-0.318459
H127	H	0.429260	-0.304847	-0.303935
H128	H	0.929260	0.195153	0.196065
Cl129	Cl	1.033790	-0.935478	-0.489193
Cl130	Cl	1.533790	-0.435478	0.010807
H131	H	1.026555	-0.498281	-0.706413
H132	H	1.526555	0.001719	-0.206413
Cl133	Cl	1.242924	-0.281247	-0.677769
Cl134	Cl	1.742924	0.218753	-0.177769
Cl135	Cl	0.949919	-0.575181	-0.815615
Cl136	Cl	1.449919	-0.075181	-0.315615
Cl137	Cl	1.212195	-0.867007	-0.311017
Cl138	Cl	1.712195	-0.367007	0.188983
H139	H	1.026668	-0.498181	-1.103824
H140	H	1.526668	0.001819	-0.603824
Cl141	Cl	0.724845	-0.227783	-0.227390
Cl142	Cl	1.224845	0.272217	0.272610
H143	H	0.973497	-0.551523	-0.982545
H144	H	1.473497	-0.051523	-0.482545
H145	H	0.555649	-0.251446	-0.250899
H146	H	1.055649	0.248554	0.249101
H147	H	1.219490	-0.304759	-1.094586
H148	H	1.719490	0.195241	-0.594586
Cl149	Cl	0.400550	-0.522211	-0.519798
Cl150	Cl	0.900550	-0.022211	-0.019798
H151	H	0.541224	-0.551923	-0.549333
H152	H	1.041224	-0.051923	-0.049333
Cl153	Cl	0.708134	-0.575549	-0.572819
Cl154	Cl	1.208134	-0.075549	-0.072819
H155	H	1.272602	-0.251481	-0.968220
H156	H	1.772602	0.248519	-0.468220
H157	H	0.817378	-0.498500	-0.496292
H158	H	1.317378	0.001500	0.003708
