data_functionalizedCrystal
_audit_creation_method	'MofGen! by Chris Wilmer'
_symmetry_space_group_name_H-M	'P1'
_symmetry_Int_Tables_number	1
_symmetry_cell_setting	triclinic
loop_
_symmetry_equiv_pos_as_xyz
  x,y,z
_cell_length_a	13.032831
_cell_length_b	12.759400
_cell_length_c	13.032268
_cell_angle_alpha	97.150187
_cell_angle_beta	90.886977
_cell_angle_gamma	82.819639
loop_
_atom_site_label
_atom_site_type_symbol
_atom_site_fract_x
_atom_site_fract_y
_atom_site_fract_z
Zn1	Zn	1.498516	-0.709532	-0.780845
Zn2	Zn	1.520267	-0.866067	-0.608867
Zn3	Zn	1.348373	-0.665643	-0.587085
Zn4	Zn	1.326515	-0.860387	-0.758992
O5	O	1.423418	-0.775407	-0.683947
O6	O	1.645323	-0.751042	-0.776293
O7	O	1.515715	-0.823490	-0.462060
O8	O	1.368334	-0.524453	-0.612817
O9	O	1.661303	-0.866048	-0.649941
O10	O	1.478644	-0.556699	-0.755172
O11	O	1.389425	-0.676239	-0.446057
O12	O	1.201551	-0.670731	-0.591628
O13	O	1.331081	-0.856366	-0.905808
O14	O	1.185493	-0.813808	-0.717927
O15	O	1.457450	-0.745534	-0.921863
O16	O	1.494520	-1.012325	-0.628751
O17	O	1.352172	-1.008152	-0.739048
C18	C	1.156205	-0.736891	-0.650043
C19	C	1.041887	-0.720442	-0.635563
C20	C	1.423359	-1.048363	-0.683918
C21	C	1.423424	-1.165153	-0.683952
C22	C	0.983014	-0.783992	-0.691504
C23	C	0.864860	-0.766993	-0.676540
C24	C	1.497609	-1.222171	-0.626602
C25	C	1.497668	-1.331908	-0.626642
C26	C	1.349348	-1.327596	-0.741382
C27	C	1.349295	-1.217863	-0.741348
C28	C	1.571738	-1.169461	-0.569206
C29	C	1.645929	-1.226480	-0.511852
C30	C	1.645988	-1.336216	-0.511891
C31	C	1.571857	-1.388934	-0.569286
C32	C	1.691674	-0.814074	-0.717984
C33	C	1.805989	-0.830552	-0.732489
C34	C	1.389401	-0.805212	-0.952195
C35	C	1.374905	-0.817913	-1.066506
C36	C	1.423501	-0.501392	-0.684002
C37	C	1.423537	-0.384623	-0.684026
C38	C	1.430967	-0.768738	-1.125413
C39	C	1.415986	-0.781864	-1.243560
C40	C	1.457361	-0.745651	-0.416751
C41	C	1.472056	-0.732683	-0.302465
H42	H	0.827794	-0.699991	-0.617568
H43	H	0.843052	-0.897545	-0.791471
H44	H	1.571696	-1.080107	-0.569164
O45	O	0.997512	-0.640606	-0.565210
C46	C	0.839283	-0.550817	-0.486209
C47	C	0.889400	-0.641282	-0.565911
H48	H	0.751866	-0.551319	-0.486765
H49	H	0.870777	-0.562929	-0.405870
H50	H	0.858109	-0.471173	-0.507041
H51	H	0.870595	-0.720966	-0.545176
H52	H	0.857904	-0.629077	-0.646229
O53	O	1.542676	-0.670939	-1.258421
C54	C	1.721804	-0.641534	-1.247479
C55	C	1.641940	-0.711532	-1.297463
H56	H	1.802080	-0.674340	-1.279008
H57	H	1.701197	-0.556540	-1.266295
H58	H	1.721261	-0.641942	-1.160064
H59	H	1.642440	-0.711214	-1.384887
H60	H	1.662575	-0.796493	-1.278564
O61	O	1.572104	-1.495561	-0.569359
C62	C	1.667380	-1.670090	-0.608487
C63	C	1.667250	-1.549363	-0.608442
H64	H	1.744289	-1.713625	-0.640103
H65	H	1.656289	-1.688091	-0.526144
H66	H	1.601615	-1.697933	-0.659319
H67	H	1.733010	-1.521436	-0.557661
H68	H	1.678291	-1.531430	-0.690816
O69	O	1.717836	-1.175103	-0.456125
C70	C	1.783521	-1.007974	-0.405261
C71	C	1.702010	-1.066017	-0.468398
H72	H	1.770767	-0.919772	-0.415179
H73	H	1.776057	-1.017715	-0.320021
H74	H	1.864140	-1.043490	-0.433903
H75	H	1.621355	-1.030540	-0.439846
H76	H	1.709565	-1.056281	-0.553627
O77	O	1.304492	-0.879736	-1.110849
C78	C	1.225291	-0.949105	-1.269025
C79	C	1.305085	-0.879075	-1.218947
H80	H	1.225728	-0.948576	-1.356427
H81	H	1.245975	-1.034127	-1.250315
H82	H	1.145034	-0.916393	-1.237386
H83	H	1.385370	-0.911693	-1.250557
H84	H	1.284312	-0.794063	-1.237651
O85	O	1.277367	-1.162450	-0.797181
C86	C	1.245779	-1.051863	-0.934165
C87	C	1.327338	-1.114599	-0.871023
H88	H	1.286149	-1.013141	-0.993866
H89	H	1.192805	-1.108341	-0.975268
H90	H	1.197993	-0.987598	-0.880045
H91	H	1.375196	-1.178866	-0.925072
H92	H	1.380240	-1.058055	-0.829908
H93	H	1.020083	-0.850982	-0.750480
O94	O	1.718099	-1.391438	-0.456092
C95	C	1.865241	-1.384137	-0.342327
C96	C	1.783620	-1.321470	-0.405462
H97	H	1.918249	-1.327599	-0.301393
H98	H	1.824972	-1.422771	-0.282484
H99	H	1.912971	-1.448462	-0.396431
H100	H	1.735864	-1.257095	-0.351438
H101	H	1.823953	-1.282912	-0.465315
H102	H	1.288994	-1.370528	-0.788109
H103	H	1.490051	-0.716916	-1.088378
H104	H	1.356888	-0.833678	-1.280589
