data_functionalizedCrystal
_audit_creation_method	'MofGen! by Chris Wilmer'
_symmetry_space_group_name_H-M	'P1'
_symmetry_Int_Tables_number	1
_symmetry_cell_setting	triclinic
loop_
_symmetry_equiv_pos_as_xyz
  x,y,z
_cell_length_a	29.839131
_cell_length_b	12.827893
_cell_length_c	12.827885
_cell_angle_alpha	90.021189
_cell_angle_beta	89.963179
_cell_angle_gamma	89.960371
loop_
_atom_site_label
_atom_site_type_symbol
_atom_site_fract_x
_atom_site_fract_y
_atom_site_fract_z
Zn1	Zn	-0.178853	-1.597481	-0.590851
Zn2	Zn	0.321147	-1.097481	-0.090851
Zn3	Zn	-0.253990	-1.597295	-0.416090
Zn4	Zn	0.246010	-1.097295	0.083910
Zn5	Zn	-0.178873	-1.422722	-0.416119
Zn6	Zn	0.321127	-0.922722	0.083881
Zn7	Zn	-0.253954	-1.422628	-0.590784
Zn8	Zn	0.246046	-0.922628	-0.090784
O9	O	-0.216418	-1.510031	-0.503461
O10	O	0.283582	-1.010031	-0.003461
O11	O	-0.188827	-1.743692	-0.567684
O12	O	0.311173	-1.243692	-0.067684
O13	O	-0.244049	-1.574100	-0.269857
O14	O	0.255951	-1.074100	0.230143
O15	O	-0.116003	-1.446021	-0.439338
O16	O	0.383997	-0.946021	0.060662
O17	O	-0.244030	-1.743556	-0.439288
O18	O	0.255970	-1.243556	0.060712
O19	O	-0.115988	-1.574415	-0.567713
O20	O	0.384012	-1.074415	-0.067713
O21	O	-0.188860	-1.445841	-0.269879
O22	O	0.311140	-0.945841	0.230121
O23	O	-0.188826	-1.276473	-0.439273
O24	O	0.311174	-0.776473	0.060727
O25	O	-0.243969	-1.445861	-0.737029
O26	O	0.256031	-0.945861	-0.237029
O27	O	-0.243988	-1.276404	-0.567598
O28	O	0.256012	-0.776404	-0.067598
O29	O	-0.188792	-1.574324	-0.737078
O30	O	0.311208	-1.074324	-0.237078
O31	O	-0.316853	-1.574008	-0.439223
O32	O	0.183147	-1.074008	0.060777
O33	O	-0.316826	-1.445681	-0.567570
O34	O	0.183174	-0.945681	-0.067570
C35	C	-0.216405	-1.238522	-0.503432
C36	C	0.283595	-0.738522	-0.003432
C37	C	-0.216411	-1.122368	-0.503444
C38	C	0.283589	-0.622368	-0.003444
C39	C	-0.189142	-1.070651	-0.567076
C40	C	0.310858	-0.570651	-0.067076
C41	C	-0.189148	-0.950600	-0.567090
C42	C	0.310852	-0.450600	-0.067090
C43	C	-0.333140	-1.509843	-0.503409
C44	C	0.166860	-1.009843	-0.003409
C45	C	-0.383075	-1.509858	-0.503422
C46	C	0.116925	-1.009858	-0.003422
C47	C	-0.692719	-1.576973	-0.436728
C48	C	-0.192719	-1.076973	0.063272
C49	C	-0.880392	-1.577102	-0.436769
C50	C	-0.380392	-1.077102	0.063231
O51	O	-0.904658	-1.634016	-0.380024
O52	O	-0.404658	-1.134016	0.119976
N53	N	-0.903860	-1.510248	-0.503540
N54	N	-0.403860	-1.010248	-0.003540
C55	C	-0.880406	-1.443362	-0.570310
C56	C	-0.380406	-0.943362	-0.070310
O57	O	-0.904673	-1.386509	-0.627111
O58	O	-0.404673	-0.886509	-0.127111
C59	C	-0.692734	-1.443239	-0.570274
C60	C	-0.192734	-0.943239	-0.070274
C61	C	-0.669269	-1.510090	-0.503491
C62	C	-0.169269	-1.010090	-0.003491
C63	C	-0.669254	-1.643819	-0.369952
C64	C	-0.169254	-1.143819	0.130048
C65	C	-0.622338	-1.643782	-0.369938
C66	C	-0.122338	-1.143782	0.130062
C67	C	-0.598888	-1.576899	-0.436701
C68	C	-0.098888	-1.076899	0.063299
C69	C	-0.622353	-1.510053	-0.503478
C70	C	-0.122353	-1.010053	-0.003478
C71	C	-0.669281	-1.376359	-0.637049
C72	C	-0.169281	-0.876359	-0.137049
C73	C	-0.622360	-1.376336	-0.637036
C74	C	-0.122360	-0.876336	-0.137036
C75	C	-0.598895	-1.443187	-0.570253
C76	C	-0.098895	-0.943187	-0.070253
C77	C	-0.551988	-1.443133	-0.570227
C78	C	-0.051988	-0.943133	-0.070227
N79	N	-0.528520	-1.509987	-0.503456
N80	N	-0.028520	-1.009987	-0.003456
C81	C	-0.551970	-1.576870	-0.436693
C82	C	-0.051970	-1.076870	0.063307
C83	C	-0.978937	-1.443430	-0.570323
C84	C	-0.478937	-0.943430	-0.070323
C85	C	-1.025854	-1.443459	-0.570331
C86	C	-0.525854	-0.943459	-0.070331
C87	C	-1.025837	-1.577201	-0.436791
C88	C	-0.525837	-1.077201	0.063209
C89	C	-0.978918	-1.577165	-0.436778
C90	C	-0.478918	-1.077165	0.063222
C91	C	-0.955469	-1.510284	-0.503552
C92	C	-0.455469	-1.010284	-0.003552
C93	C	-0.453444	-1.576787	-0.436669
C94	C	0.046556	-1.076787	0.063331
C95	C	-0.406525	-1.576741	-0.436659
C96	C	0.093475	-1.076741	0.063341
C97	C	-0.406546	-1.443003	-0.570202
C98	C	0.093454	-0.943003	-0.070202
C99	C	-0.453462	-1.443045	-0.570210
C100	C	0.046538	-0.943045	-0.070210
C101	C	-0.476910	-1.509945	-0.503440
C102	C	0.023090	-1.009945	-0.003440
O103	O	-0.527693	-1.386257	-0.626951
O104	O	-0.027693	-0.886257	-0.126951
O105	O	-0.527695	-1.633731	-0.379917
O106	O	-0.027695	-1.133731	0.120083
C107	C	-0.739634	-1.577010	-0.436742
C108	C	-0.239634	-1.077010	0.063258
C109	C	-0.763100	-1.510164	-0.503518
C110	C	-0.263100	-1.010164	-0.003518
C111	C	-0.739649	-1.443281	-0.570281
C112	C	-0.239649	-0.943281	-0.070281
C113	C	-0.810017	-1.510193	-0.503526
C114	C	-0.310017	-1.010193	-0.003526
C115	C	-0.833468	-1.577076	-0.436763
C116	C	-0.333468	-1.077076	0.063237
C117	C	-0.810000	-1.643930	-0.369992
C118	C	-0.310000	-1.143930	0.130008
C119	C	-0.763085	-1.643893	-0.369979
C120	C	-0.263085	-1.143893	0.130021
C121	C	-0.763117	-1.376427	-0.637052
C122	C	-0.263117	-0.876427	-0.137052
C123	C	-0.810032	-1.376468	-0.637059
C124	C	-0.310032	-0.876468	-0.137059
C125	C	-0.833483	-1.443351	-0.570296
C126	C	-0.333483	-0.943351	-0.070296
C127	C	-0.099239	-1.510249	-0.503536
C128	C	0.400761	-1.010249	-0.003536
C129	C	-0.049305	-1.510342	-0.503568
C130	C	0.450695	-1.010342	-0.003568
C131	C	-0.216374	-1.510103	-0.776031
C132	C	0.283626	-1.010103	-0.276031
C133	C	-0.216356	-1.510133	-0.892184
C134	C	0.283644	-1.010133	-0.392184
C135	C	-0.216426	-0.782602	-0.503482
C136	C	0.283574	-0.282602	-0.003482
C137	C	-0.216421	-0.898755	-0.503470
C138	C	0.283579	-0.398755	-0.003470
C139	C	-0.189048	-1.573708	-0.943994
C140	C	0.310952	-1.073708	-0.443994
C141	C	-0.189028	-1.573740	-1.064044
C142	C	0.310972	-1.073740	-0.564044
C143	C	-0.216428	-1.510021	-0.231951
C144	C	0.283572	-1.010021	0.268049
C145	C	-0.216320	-1.510193	-0.115798
C146	C	0.283680	-1.010193	0.384202
H147	H	-0.165791	-1.115250	-0.621539
H148	H	0.334209	-0.615250	-0.121539
H149	H	-0.165803	-0.906124	-0.621571
H150	H	0.334197	-0.406124	-0.121571
H151	H	-0.239770	-0.943224	-0.448995
H152	H	0.260230	-0.443224	0.051005
H153	H	-1.044956	-1.389013	-0.624702
H154	H	-0.544956	-0.889013	-0.124702
C155	C	-0.247956	-1.062122	-0.429858
C156	C	0.252044	-0.562122	0.070142
N157	N	-0.271717	-1.016745	-0.374433
N158	N	0.228283	-0.516745	0.125567
C159	C	-0.953148	-1.369877	-0.643812
C160	C	-0.453148	-0.869877	-0.143812
N161	N	-0.933726	-1.314485	-0.699173
N162	N	-0.433726	-0.814485	-0.199173
H163	H	-0.165650	-1.628173	-1.108598
H164	H	0.334350	-1.128173	-0.608598
H165	H	-0.239718	-1.455722	-0.936706
H166	H	0.260282	-0.955722	-0.436706
H167	H	-0.387421	-1.631178	-0.382273
H168	H	0.112579	-1.131178	0.117727
C169	C	-0.479230	-1.650374	-0.363213
C170	C	0.020770	-1.150374	0.136787
N171	N	-0.498652	-1.705794	-0.307879
N172	N	0.001348	-1.205794	0.192121
C173	C	-0.596533	-1.717316	-0.296463
C174	C	-0.096533	-1.217316	0.203537
N175	N	-0.577099	-1.772702	-0.241114
N176	N	-0.077099	-1.272702	0.258886
C177	C	-0.479274	-1.369503	-0.643670
C178	C	0.020726	-0.869503	-0.143670
N179	N	-0.498713	-1.314117	-0.699010
N180	N	0.001287	-0.814117	-0.199010
H181	H	-0.829134	-1.322021	-0.691441
H182	H	-0.329134	-0.822021	-0.191441
C183	C	-0.695082	-1.302820	-0.710520
C184	C	-0.195082	-0.802820	-0.210520
N185	N	-0.714515	-1.247427	-0.765864
N186	N	-0.214515	-0.747427	-0.265864
C187	C	-0.157479	-1.647205	-0.883853
C188	C	0.342521	-1.147205	-0.383853
N189	N	-0.133702	-1.702566	-0.838556
N190	N	0.366298	-1.202566	-0.338556
H191	H	-0.688342	-1.698289	-0.315585
H192	H	-0.188342	-1.198289	0.184415
C193	C	-0.953111	-1.650709	-0.363316
C194	C	-0.453111	-1.150709	0.136684
N195	N	-0.933675	-1.706107	-0.307982
N196	N	-0.433675	-1.206107	0.192018
H197	H	-1.044938	-1.631660	-0.382430
H198	H	-0.544938	-1.131660	0.117570
H199	H	-0.239703	-1.455765	-1.071251
H200	H	0.260297	-0.955765	-0.571251
H201	H	-0.603270	-1.321874	-0.691414
H202	H	-0.103270	-0.821874	-0.191414
C203	C	-0.380742	-1.369440	-0.643642
C204	C	0.119258	-0.869440	-0.143642
N205	N	-0.361305	-1.314037	-0.698964
N206	N	0.138695	-0.814037	-0.198964
C207	C	-0.737279	-1.717431	-0.296508
C208	C	-0.237279	-1.217431	0.203492
N209	N	-0.717845	-1.772823	-0.241165
N210	N	-0.217845	-1.272823	0.258835
H211	H	-0.744027	-1.321964	-0.691420
H212	H	-0.244027	-0.821964	-0.191420
H213	H	-0.829101	-1.698386	-0.315628
H214	H	-0.329101	-1.198386	0.184372
