data_functionalizedCrystal
_audit_creation_method	'MofGen! by Chris Wilmer'
_symmetry_space_group_name_H-M	'P1'
_symmetry_Int_Tables_number	1
_symmetry_cell_setting	triclinic
loop_
_symmetry_equiv_pos_as_xyz
  x,y,z
_cell_length_a	19.121102
_cell_length_b	19.077068
_cell_length_c	19.077174
_cell_angle_alpha	85.342852
_cell_angle_beta	85.348236
_cell_angle_gamma	90.021182
loop_
_atom_site_label
_atom_site_type_symbol
_atom_site_fract_x
_atom_site_fract_y
_atom_site_fract_z
Zn1	Zn	1.078213	0.344773	-0.457820
Zn2	Zn	1.069055	0.457519	-0.344256
Zn3	Zn	0.956235	0.334618	-0.334522
Zn4	Zn	0.956188	0.457180	-0.457080
O5	O	1.014923	0.398523	-0.398419
O6	O	1.175281	0.364121	-0.447139
O7	O	1.050276	0.437108	-0.244147
O8	O	0.976267	0.237488	-0.347114
O9	O	1.168553	0.446955	-0.363704
O10	O	1.065884	0.244949	-0.437700
O11	O	0.967387	0.346813	-0.236996
O12	O	0.857945	0.346484	-0.346396
O13	O	0.976188	0.446377	-0.555995
O14	O	0.857910	0.436530	-0.436439
O15	O	1.065839	0.363792	-0.556539
O16	O	1.050231	0.555952	-0.362986
O17	O	0.967308	0.555703	-0.445877
C18	C	1.007790	0.581363	-0.405424
C19	C	1.004804	0.659586	-0.408447
C20	C	0.832444	0.390369	-0.390281
C21	C	0.754379	0.386898	-0.386817
C22	C	1.022030	0.406180	-0.582606
C23	C	1.025058	0.409443	-0.661095
C24	C	0.717698	0.432215	-0.432002
C25	C	0.644348	0.428944	-0.428750
C26	C	0.607679	0.380361	-0.380310
C27	C	0.644365	0.335039	-0.335123
C28	C	0.717714	0.338306	-0.338379
C29	C	0.386213	0.368143	-0.368141
C30	C	0.312859	0.364881	-0.364887
C31	C	0.312848	0.458786	-0.458515
C32	C	0.386198	0.462052	-0.461763
C33	C	0.422877	0.416728	-0.416579
C34	C	0.532704	0.377018	-0.376983
C35	C	0.497852	0.420067	-0.419910
C36	C	1.198114	0.406709	-0.406590
C37	C	1.276179	0.410198	-0.410071
C38	C	1.022102	0.214970	-0.391404
C39	C	1.025162	0.136751	-0.388414
C40	C	1.046611	0.696446	-0.366749
C41	C	1.043807	0.769945	-0.369596
C42	C	0.999191	0.806584	-0.414139
C43	C	0.957383	0.769720	-0.455841
C44	C	0.960191	0.696222	-0.452997
C45	C	0.986162	1.026389	-0.427272
C46	C	0.983355	1.099892	-0.430112
C47	C	1.069780	1.100112	-0.343868
C48	C	1.072582	1.026612	-0.341025
C49	C	1.030776	0.989755	-0.382730
N50	N	0.996322	0.881713	-0.417049
N51	N	1.033649	0.914628	-0.379823
C52	C	0.983327	0.363965	-0.694246
C53	C	0.986170	0.367036	-0.767995
C54	C	1.030748	0.415583	-0.808593
C55	C	1.072480	0.461066	-0.775437
C56	C	1.069633	0.457997	-0.701689
C57	C	1.043886	0.429805	-1.029555
C58	C	1.046732	0.432869	-1.103308
C59	C	0.960420	0.338840	-1.095861
C60	C	0.957580	0.335773	-1.022112
C61	C	0.999310	0.381258	-0.988963
N62	N	1.033656	0.418722	-0.883976
N63	N	0.996397	0.378122	-0.913580
C64	C	1.007886	0.390846	-0.214949
C65	C	1.005001	0.387391	-0.136458
H66	H	0.747549	0.471779	-0.471445
H67	H	1.103621	0.495025	-0.674699
H68	H	0.283006	0.325310	-0.325445
H69	H	1.082938	0.666619	-0.330475
H70	H	0.614503	0.295478	-0.295685
H71	H	0.747578	0.301401	-0.301588
H72	H	0.614487	0.465847	-0.465543
O73	O	0.914139	0.805393	-0.499151
C74	C	0.954229	0.851524	-0.548228
H75	H	1.006096	0.863843	-0.526165
H76	H	0.965006	0.825689	-0.599811
C77	C	0.849694	0.905040	-0.589056
C78	C	0.913396	0.920176	-0.561956
H79	H	0.824505	0.947387	-0.597527
H80	H	0.822684	0.873959	-0.555994
H81	H	0.858684	0.883510	-0.632039
H82	H	0.904404	0.941697	-0.518969
H83	H	0.940403	0.951262	-0.595011
H84	H	0.527711	0.459621	-0.459353
H85	H	0.952185	0.330006	-0.794983
H86	H	0.947033	1.129722	-0.466396
H87	H	1.103817	1.130129	-0.309915
H88	H	0.926148	0.666212	-0.486952
O89	O	0.421709	0.509266	-0.508882
C90	C	0.373604	0.548577	-0.548054
H91	H	0.322538	0.517531	-0.547125
H92	H	0.362713	0.600556	-0.523803
C93	C	0.467468	0.601371	-0.625996
C94	C	0.404750	0.563237	-0.624861
H95	H	0.486681	0.610418	-0.673374
H96	H	0.499878	0.574889	-0.599604
H97	H	0.458384	0.644683	-0.605784
H98	H	0.413836	0.519924	-0.645065
H99	H	0.372342	0.589713	-0.651258
H100	H	0.947031	0.324429	-0.661197
H101	H	0.502840	0.337462	-0.337541
O102	O	1.084440	0.805639	-0.329019
C103	C	1.124429	0.757541	-0.289105
H104	H	1.097567	0.703789	-0.283329
H105	H	1.179052	0.753123	-0.317077
C106	C	1.163605	0.849600	-0.222616
C107	C	1.130609	0.783582	-0.215516
H108	H	1.167420	0.865664	-0.177224
H109	H	1.136665	0.882005	-0.249508
H110	H	1.209120	0.845909	-0.245928
H111	H	1.085091	0.787275	-0.192212
H112	H	1.157541	0.751177	-0.188618
H113	H	0.282976	0.495685	-0.495302
O114	O	0.914217	0.288592	-0.982783
C115	C	0.878007	0.249096	-1.027858
H116	H	0.876471	0.279999	-1.081420
H117	H	0.906126	0.197128	-1.034811
C118	C	0.804434	0.196449	-0.929567
C119	C	0.802541	0.234409	-0.995350
H120	H	0.757884	0.187386	-0.909513
H121	H	0.828830	0.223057	-0.899198
H122	H	0.827869	0.153148	-0.935369
H123	H	0.779114	0.277713	-0.989545
H124	H	0.778139	0.207808	-1.025717
O125	O	1.115989	0.991135	-0.297747
C126	C	1.152278	1.039428	-0.261542
H127	H	1.153798	1.093117	-0.292600
H128	H	1.124236	1.043910	-0.207046
C129	C	1.225880	0.947661	-0.215511
C130	C	1.227751	1.013601	-0.253659
H131	H	1.272434	0.931729	-0.210645
H132	H	1.201430	0.915124	-0.239900
H133	H	1.202508	0.951405	-0.170101
H134	H	1.251115	1.009855	-0.299070
H135	H	1.252207	1.046138	-0.229277
H136	H	0.926445	0.301809	-1.122859
O137	O	1.090051	0.480095	-1.142640
C138	C	1.126286	0.519572	-1.097568
H139	H	1.095394	0.518540	-1.043809
H140	H	1.180334	0.495862	-1.091117
C141	C	1.172529	0.597384	-1.195698
C142	C	1.134583	0.596122	-1.129672
H143	H	1.177650	0.644603	-1.215502
H144	H	1.148119	0.570786	-1.226064
H145	H	1.217564	0.577622	-1.190313
H146	H	1.089546	0.615875	-1.135059
H147	H	1.158986	0.622725	-1.099307
H148	H	0.952121	0.996385	-0.461229
O149	O	1.084460	0.473882	-0.997277
C150	C	1.129754	0.434068	-0.955123
H151	H	1.106641	0.379172	-0.940934
H152	H	1.183202	0.429843	-0.985569
C153	C	1.166640	0.537866	-0.904543
C154	C	1.138249	0.470443	-0.887111
H155	H	1.171883	0.560305	-0.862591
H156	H	1.136127	0.564690	-0.932945
H157	H	1.211177	0.534335	-0.929916
H158	H	1.093709	0.473975	-0.861746
H159	H	1.168755	0.443620	-0.858703
O160	O	0.421727	0.324087	-0.324179
C161	C	0.373632	0.280496	-0.280740
H162	H	0.320129	0.306890	-0.277028
H163	H	0.368912	0.227824	-0.304301
C164	C	0.465456	0.235958	-0.211038
C165	C	0.399745	0.268379	-0.206474
H166	H	0.481565	0.228480	-0.165228
H167	H	0.497860	0.265324	-0.240305
H168	H	0.461515	0.192068	-0.230675
H169	H	0.403689	0.312271	-0.186846
H170	H	0.367342	0.239020	-0.177202
H171	H	1.108773	0.500597	-0.808497
