data_functionalizedCrystal
_audit_creation_method	'MofGen! by Chris Wilmer'
_symmetry_space_group_name_H-M	'P1'
_symmetry_Int_Tables_number	1
_symmetry_cell_setting	triclinic
loop_
_symmetry_equiv_pos_as_xyz
  x,y,z
_cell_length_a	16.992694
_cell_length_b	22.610064
_cell_length_c	16.992695
_cell_angle_alpha	89.995894
_cell_angle_beta	90.668223
_cell_angle_gamma	90.003118
loop_
_atom_site_label
_atom_site_type_symbol
_atom_site_fract_x
_atom_site_fract_y
_atom_site_fract_z
O1	O	1.050855	0.049111	0.166906
O2	O	1.550855	0.549111	0.666906
O3	O	0.822455	0.049128	0.165075
O4	O	1.322455	0.549128	0.665075
O5	O	0.935740	0.049115	0.051791
O6	O	1.435740	0.549115	0.551791
O7	O	0.937571	0.049124	0.280191
O8	O	1.437571	0.549124	0.780191
O9	O	0.935719	-0.049254	0.051807
O10	O	1.435719	0.450746	0.551807
O11	O	0.822435	-0.049241	0.165091
O12	O	1.322435	0.450759	0.665091
O13	O	1.050835	-0.049258	0.166923
O14	O	1.550835	0.450742	0.666923
Zn15	Zn	0.936632	-0.064868	0.166010
Zn16	Zn	1.436632	0.435132	0.666010
Zn17	Zn	0.936659	0.064738	0.165988
Zn18	Zn	1.436659	0.564738	0.665988
O19	O	0.937551	-0.049245	0.280207
O20	O	1.437551	0.450755	0.780207
C21	C	0.793085	-0.000054	0.162727
C22	C	1.293085	0.499946	0.662727
C23	C	0.705600	-0.000047	0.155699
C24	C	1.205600	0.499953	0.655699
N25	N	0.936619	-0.153320	0.166024
N26	N	1.436619	0.346680	0.666024
C27	C	0.659610	-0.000045	0.223517
C28	C	1.159610	0.499955	0.723517
C29	C	0.577409	-0.000054	0.216908
C30	C	1.077409	0.499946	0.716908
C31	C	0.541201	-0.000060	0.142480
C32	C	1.041201	0.499940	0.642480
C33	C	0.587198	-0.000064	0.074657
C34	C	1.087198	0.499936	0.574657
C35	C	0.669397	-0.000060	0.081267
C36	C	1.169397	0.499940	0.581267
C37	C	0.295886	-0.000077	0.115086
C38	C	0.795886	0.499923	0.615086
C39	C	0.213681	-0.000079	0.108481
C40	C	0.713681	0.499921	0.608481
C41	C	0.203898	-0.000070	0.250732
C42	C	0.703898	0.499930	0.750732
C43	C	0.286099	-0.000062	0.257336
C44	C	0.786099	0.499938	0.757336
C45	C	0.332089	-0.000069	0.189512
C46	C	0.832089	0.499931	0.689512
N47	N	0.457178	-0.000067	0.135723
N48	N	0.957178	0.499933	0.635723
N49	N	0.416110	-0.000067	0.196270
N50	N	0.916110	0.499933	0.696270
C51	C	0.986824	-0.561967	0.115834
C52	C	1.486824	-0.061967	0.615834
C53	C	0.986827	-0.623887	0.115829
C54	C	1.486827	-0.123887	0.615829
O55	O	1.029480	-0.655911	0.073165
O56	O	1.529480	-0.155911	0.573165
N57	N	0.936657	-0.654857	0.165972
N58	N	1.436657	-0.154857	0.665972
C59	C	0.886474	-0.623904	0.216118
C60	C	1.386474	-0.123904	0.716118
O61	O	0.843800	-0.655932	0.258767
O62	O	1.343800	-0.155932	0.758767
C63	C	0.886467	-0.561985	0.216119
C64	C	1.386467	-0.061985	0.716119
C65	C	0.936646	-0.531019	0.165978
C66	C	1.436646	-0.031019	0.665978
C67	C	1.036999	-0.531001	0.065697
C68	C	1.536999	-0.031001	0.565697
C69	C	1.036996	-0.469085	0.065704
C70	C	1.536996	0.030915	0.565704
C71	C	0.986818	-0.438136	0.115847
C72	C	1.486818	0.061864	0.615847
C73	C	0.936643	-0.469103	0.165985
C74	C	1.436643	0.030897	0.665985
C75	C	0.836280	-0.531033	0.266260
C76	C	1.336280	-0.031033	0.766260
C77	C	0.836277	-0.469110	0.266256
C78	C	1.336277	0.030890	0.766256
C79	C	0.886456	-0.438144	0.216116
C80	C	1.386456	0.061856	0.716116
C81	C	0.886463	-0.376239	0.216135
C82	C	1.386463	0.123761	0.716135
N83	N	0.936634	-0.345269	0.165992
N84	N	1.436634	0.154731	0.665992
C85	C	0.986811	-0.376217	0.115848
C86	C	1.486811	0.123783	0.615848
C87	C	0.886491	-0.753938	0.216111
C88	C	1.386491	-0.253938	0.716111
C89	C	0.886502	-0.815855	0.216115
C90	C	1.386502	-0.315855	0.716115
C91	C	0.986855	-0.815834	0.115825
C92	C	1.486855	-0.315834	0.615825
C93	C	0.986848	-0.753916	0.115825
C94	C	1.486848	-0.253916	0.615825
C95	C	0.936662	-0.722968	0.165968
C96	C	1.436662	-0.222968	0.665968
C97	C	0.986802	-0.246190	0.115867
C98	C	1.486802	0.253810	0.615867
C99	C	0.986797	-0.184269	0.115880
C100	C	1.486797	0.315731	0.615880
C101	C	0.886441	-0.184295	0.216167
C102	C	1.386441	0.315705	0.716167
C103	C	0.886449	-0.246211	0.216157
C104	C	1.386449	0.253789	0.716157
C105	C	0.936632	-0.277157	0.166000
C106	C	1.436632	0.222843	0.666000
O107	O	0.843830	-0.344175	0.258775
O108	O	1.343830	0.155825	0.758775
O109	O	1.029471	-0.344182	0.073199
O110	O	1.529471	0.155818	0.573199
C111	C	1.080205	-0.000075	0.169270
C112	C	1.580205	0.499925	0.669270
C113	C	1.167690	-0.000077	0.176299
C114	C	1.667690	0.499923	0.676299
C115	C	0.933374	-0.000069	0.022439
C116	C	1.433374	0.499931	0.522439
C117	C	0.926345	-0.000069	-0.065046
C118	C	1.426345	0.499931	0.434954
N119	N	0.936677	0.153190	0.165968
N120	N	1.436677	0.653190	0.665968
C121	C	0.994163	-0.000074	-0.111037
C122	C	1.494163	0.499926	0.388963
C123	C	0.987554	-0.000068	-0.193238
C124	C	1.487554	0.499932	0.306762
C125	C	0.913127	-0.000061	-0.229446
C126	C	1.413127	0.499939	0.270554
C127	C	0.845303	-0.000053	-0.183449
C128	C	1.345303	0.499947	0.316551
C129	C	0.851913	-0.000055	-0.101250
C130	C	1.351913	0.499945	0.398750
C131	C	0.885732	-0.000050	-0.474760
C132	C	1.385732	0.499950	0.025240
C133	C	0.879127	-0.000050	-0.556966
C134	C	1.379127	0.499950	-0.056966
C135	C	1.021379	-0.000064	-0.566749
C136	C	1.521379	0.499936	-0.066749
C137	C	1.027982	-0.000070	-0.484547
C138	C	1.527982	0.499930	0.015453
C139	C	0.960159	-0.000059	-0.438558
C140	C	1.460159	0.499941	0.061442
N141	N	0.906369	-0.000056	-0.313468
N142	N	1.406369	0.499944	0.186532
N143	N	0.966917	-0.000059	-0.354537
N144	N	1.466917	0.499941	0.145463
C145	C	0.939917	-0.000059	0.309559
C146	C	1.439917	0.499941	0.809559
C147	C	0.946945	-0.000056	0.397044
C148	C	1.446945	0.499944	0.897044
H149	H	0.689084	-0.000039	0.284124
H150	H	1.189084	0.499961	0.784124
C151	C	0.831245	-0.150244	0.271315
C152	C	1.331245	0.349756	0.771315
H153	H	0.838426	-0.108933	0.264126
H154	H	1.338426	0.391067	0.764126
H155	H	0.843071	-0.160390	0.324397
H156	H	1.343071	0.339610	0.824397
H157	H	0.778173	-0.160394	0.259429
H158	H	1.278173	0.339606	0.759429
C159	C	0.763435	-0.000046	-0.223276
C160	C	1.263435	0.499954	0.276724
H161	H	0.769210	-0.000053	-0.278818
H162	H	1.269210	0.499947	0.221182
H163	H	0.735299	0.034259	-0.207798
H164	H	1.235299	0.534259	0.292202
H165	H	0.735291	-0.034353	-0.207789
H166	H	1.235291	0.465647	0.292211
H167	H	1.027711	-0.841044	0.074993
H168	H	1.527711	-0.341044	0.574993
H169	H	1.077859	-0.556194	0.024860
H170	H	1.577859	-0.056194	0.524860
C171	C	1.076032	-0.000085	-0.071211
C172	C	1.576032	0.499915	0.428789
H173	H	1.070258	-0.000091	-0.015669
H174	H	1.570258	0.499909	0.484331
H175	H	1.104182	0.034216	-0.086695
H176	H	1.604182	0.534216	0.413305
H177	H	1.104162	-0.034395	-0.086693
H178	H	1.604162	0.465605	0.413307
C179	C	0.831305	-0.849912	0.271270
C180	C	1.331305	-0.349912	0.771270
H181	H	0.801418	-0.822607	0.301127
H182	H	1.301418	-0.322607	0.801127
H183	H	0.861665	-0.874071	0.305832
H184	H	1.361665	-0.374071	0.805832
H185	H	0.796761	-0.874062	0.240870
H186	H	1.296761	-0.374062	0.740870
H187	H	1.027708	-0.728706	0.074996
H188	H	1.527708	-0.228706	0.574996
H189	H	0.845626	-0.728743	0.256950
H190	H	1.345626	-0.228743	0.756950
C191	C	1.042005	-0.280222	0.060699
C192	C	1.542005	0.219778	0.560699
H193	H	1.071888	-0.252904	0.030849
H194	H	1.571888	0.247096	0.530849
H195	H	1.011646	-0.304376	0.026132
H196	H	1.511646	0.195624	0.526132
H197	H	1.076553	-0.304375	0.091091
H198	H	1.576553	0.195625	0.591091
H199	H	0.557710	-0.000078	0.014056
H200	H	1.057710	0.499922	0.514056
C201	C	1.062152	-0.000069	-0.243828
C202	C	1.562152	0.499931	0.256172
H203	H	1.047558	-0.000057	-0.297968
H204	H	1.547558	0.499943	0.202032
H205	H	1.092456	-0.034374	-0.232371
H206	H	1.592456	0.465626	0.267629
H207	H	1.092460	0.034238	-0.232362
H208	H	1.592460	0.534238	0.267638
H209	H	1.077854	-0.443876	0.024873
H210	H	1.577854	0.056124	0.524873
C211	C	1.109852	-0.000071	-0.444724
C212	C	1.609852	0.499929	0.055276
H213	H	1.149297	-0.000067	-0.483888
H214	H	1.649297	0.499933	0.016112
H215	H	1.115384	-0.034373	-0.412856
H216	H	1.615384	0.465627	0.087144
H217	H	1.115389	0.034238	-0.412867
H218	H	1.615389	0.534238	0.087133
C219	C	0.777316	-0.000048	-0.050656
C220	C	1.277316	0.499952	0.449344
H221	H	0.791911	-0.000044	0.003484
H222	H	1.291911	0.499956	0.503484
H223	H	0.746998	-0.034348	-0.062112
H224	H	1.246998	0.465652	0.437888
H225	H	0.747021	0.034264	-0.062121
H226	H	1.247021	0.534264	0.437879
H227	H	0.539966	-0.000051	0.272133
H228	H	1.039966	0.499949	0.772133
C229	C	0.781089	-0.565083	0.321423
C230	C	1.281089	-0.065083	0.821423
H231	H	0.751205	-0.537775	0.351278
H232	H	1.251205	-0.037775	0.851278
H233	H	0.811458	-0.589236	0.355986
H234	H	1.311458	-0.089236	0.855986
H235	H	0.746541	-0.589239	0.291036
H236	H	1.246541	-0.089239	0.791036
H237	H	1.076596	-0.000072	-0.604202
H238	H	1.576596	0.499928	-0.104202
C239	C	0.797254	-0.000032	-0.596793
C240	C	1.297254	0.499968	-0.096793
H241	H	0.757807	-0.000018	-0.557631
H242	H	1.257807	0.499982	-0.057631
H243	H	0.791703	-0.034333	-0.628655
H244	H	1.291703	0.465667	-0.128655
H245	H	0.791739	0.034279	-0.628657
H246	H	1.291739	0.534279	-0.128657
H247	H	0.315574	-0.000050	0.317942
H248	H	0.815574	0.499950	0.817942
H249	H	0.795407	-0.443916	0.307088
H250	H	1.295407	0.056084	0.807088
H251	H	0.845596	-0.271425	0.256994
H252	H	1.345596	0.228575	0.756994
C253	C	0.811132	-0.000038	-0.424178
C254	C	1.311132	0.499962	0.075822
H255	H	0.825722	-0.000032	-0.370037
H256	H	1.325722	0.499968	0.129963
H257	H	0.780813	-0.034337	-0.435634
H258	H	1.280813	0.465663	0.064366
H259	H	0.780839	0.034274	-0.435648
H260	H	1.280839	0.534274	0.064352
C261	C	0.153308	-0.000070	0.325330
C262	C	0.653308	0.499930	0.825330
H263	H	0.099167	-0.000078	0.310738
H264	H	0.599167	0.499922	0.810738
H265	H	0.164768	0.034234	0.355634
H266	H	0.664768	0.534234	0.855634
H267	H	0.164772	-0.034377	0.355639
H268	H	0.664772	0.465623	0.855639
H269	H	0.706842	-0.000061	0.026042
H270	H	1.206842	0.499939	0.526042
H271	H	0.184203	-0.000084	0.047870
H272	H	0.684203	0.499916	0.547870
H273	H	1.027662	-0.159058	0.075050
H274	H	1.527662	0.340942	0.575050
C275	C	0.346465	-0.000081	0.040483
C276	C	0.846465	0.499919	0.540483
H277	H	0.313125	-0.000079	-0.004788
H278	H	0.813125	0.499921	0.495212
H279	H	0.378733	-0.034383	0.040108
H280	H	0.878733	0.465617	0.540108
H281	H	0.378734	0.034228	0.040096
H282	H	0.878734	0.534228	0.540096
