data_functionalizedCrystal
_audit_creation_method	'MofGen! by Chris Wilmer'
_symmetry_space_group_name_H-M	'P1'
_symmetry_Int_Tables_number	1
_symmetry_cell_setting	triclinic
loop_
_symmetry_equiv_pos_as_xyz
  x,y,z
_cell_length_a	18.101398
_cell_length_b	21.395361
_cell_length_c	21.395355
_cell_angle_alpha	89.978489
_cell_angle_beta	89.970130
_cell_angle_gamma	90.025974
loop_
_atom_site_label
_atom_site_type_symbol
_atom_site_fract_x
_atom_site_fract_y
_atom_site_fract_z
Zn1	Zn	1.132164	-0.249590	-0.354337
Zn2	Zn	1.465497	0.083743	-0.021004
Zn3	Zn	1.798830	0.417076	0.312329
Zn4	Zn	1.132048	-0.354350	-0.249554
Zn5	Zn	1.465382	-0.021017	0.083779
Zn6	Zn	1.798715	0.312317	0.417112
Zn7	Zn	1.008310	-0.249582	-0.249564
Zn8	Zn	1.341644	0.083752	0.083769
Zn9	Zn	1.674977	0.417085	0.417102
Zn10	Zn	1.008274	-0.354325	-0.354285
Zn11	Zn	1.341607	-0.020992	-0.020951
Zn12	Zn	1.674941	0.312341	0.312382
O13	O	1.070199	-0.301962	-0.301935
O14	O	1.403532	0.031372	0.031398
O15	O	1.736866	0.364705	0.364732
O16	O	1.235781	-0.263501	-0.340455
O17	O	1.569114	0.069833	-0.007122
O18	O	1.902448	0.403166	0.326211
O19	O	1.115601	-0.340459	-0.161878
O20	O	1.448935	-0.007126	0.171456
O21	O	1.782268	0.326208	0.504789
O22	O	1.024803	-0.161905	-0.263489
O23	O	1.358137	0.171428	0.069845
O24	O	1.691470	0.504762	0.403178
O25	O	1.235696	-0.340467	-0.263472
O26	O	1.569030	-0.007134	0.069862
O27	O	1.902363	0.326199	0.403195
O28	O	1.115798	-0.161911	-0.340465
O29	O	1.449131	0.171422	-0.007132
O30	O	1.782464	0.504755	0.326202
O31	O	1.024692	-0.263486	-0.161885
O32	O	1.358025	0.069847	0.171448
O33	O	1.691358	0.403180	0.504782
O34	O	0.904673	-0.263462	-0.263438
O35	O	1.238006	0.069871	0.069895
O36	O	1.571339	0.403204	0.403229
O37	O	1.024741	-0.340425	-0.441970
O38	O	1.358075	-0.007092	-0.108636
O39	O	1.691408	0.326242	0.224697
O40	O	0.904646	-0.340417	-0.340376
O41	O	1.237979	-0.007084	-0.007042
O42	O	1.571313	0.326250	0.326291
O43	O	1.115762	-0.263477	-0.442008
O44	O	1.449096	0.069857	-0.108675
O45	O	1.782429	0.403190	0.224658
O46	O	1.115566	-0.442025	-0.263421
O47	O	1.448899	-0.108691	0.069912
O48	O	1.782233	0.224642	0.403246
O49	O	1.024629	-0.442006	-0.340366
O50	O	1.357963	-0.108673	-0.007033
O51	O	1.691296	0.224660	0.326301
C52	C	1.070101	-0.464749	-0.301900
C53	C	1.403435	-0.131416	0.031433
C54	C	1.736768	0.201917	0.364766
C55	C	1.070127	-0.534391	-0.301906
C56	C	1.403461	-0.201057	0.031427
C57	C	1.736794	0.132276	0.364760
C58	C	0.877789	-0.301936	-0.301902
C59	C	1.211122	0.031397	0.031431
C60	C	1.544455	0.364730	0.364764
C61	C	0.795474	-0.301941	-0.301903
C62	C	1.128808	0.031393	0.031430
C63	C	1.462141	0.364726	0.364763
C64	C	1.117520	-0.567092	-0.261882
C65	C	1.450853	-0.233759	0.071451
C66	C	1.784186	0.099574	0.404785
C67	C	1.117554	-0.632528	-0.261896
C68	C	1.450888	-0.299195	0.071437
C69	C	1.784221	0.034139	0.404771
C70	C	1.070183	-0.665259	-0.301928
C71	C	1.403516	-0.331926	0.031406
C72	C	1.736850	0.001408	0.364739
C73	C	1.022787	-0.632549	-0.341960
C74	C	1.356120	-0.299216	-0.008626
C75	C	1.689454	0.034117	0.324707
C76	C	1.022759	-0.567115	-0.341949
C77	C	1.356093	-0.233782	-0.008616
C78	C	1.689426	0.099552	0.324718
C79	C	1.003502	-0.768969	-0.306832
C80	C	1.336836	-0.435636	0.026501
C81	C	1.670169	-0.102303	0.359834
C82	C	1.003529	-0.834402	-0.306839
C83	C	1.336862	-0.501069	0.026495
C84	C	1.670196	-0.167736	0.359828
C85	C	1.070269	-0.867080	-0.301965
C86	C	1.403603	-0.533746	0.031369
C87	C	1.736936	-0.200413	0.364702
C88	C	1.136985	-0.834316	-0.297071
C89	C	1.470318	-0.500983	0.036263
C90	C	1.803652	-0.167649	0.369596
C91	C	1.136957	-0.768882	-0.297060
C92	C	1.470290	-0.435548	0.036273
C93	C	1.803624	-0.102215	0.369607
C94	C	1.070208	-0.736211	-0.301944
C95	C	1.403541	-0.402878	0.031389
C96	C	1.736875	-0.069545	0.364723
C97	C	1.117703	-0.970734	-0.261953
C98	C	1.451036	-0.637401	0.071380
C99	C	1.784370	-0.304067	0.404713
C100	C	1.117739	-1.036171	-0.261972
C101	C	1.451072	-0.702837	0.071362
C102	C	1.784405	-0.369504	0.404695
C103	C	1.022965	-1.036191	-0.342032
C104	C	1.356298	-0.702857	-0.008699
C105	C	1.689632	-0.369524	0.324634
C106	C	1.022936	-0.970755	-0.342017
C107	C	1.356269	-0.637422	-0.008684
C108	C	1.689603	-0.304089	0.324650
C109	C	1.070304	-0.938031	-0.301974
C110	C	1.403637	-0.604698	0.031359
C111	C	1.736971	-0.271364	0.364692
C112	C	0.496383	-0.301980	-0.301956
C113	C	0.829717	0.031354	0.031377
C114	C	1.163050	0.364687	0.364711
C115	C	0.527701	-0.253320	-0.253785
C116	C	0.861034	0.080013	0.079548
C117	C	1.194368	0.413347	0.412882
C118	C	0.613319	-0.253450	-0.253579
C119	C	0.946652	0.079883	0.079754
C120	C	1.279986	0.413216	0.413087
C121	C	0.644766	-0.301960	-0.301930
C122	C	0.978099	0.031374	0.031404
C123	C	1.311433	0.364707	0.364737
C124	C	0.613646	-0.367957	-0.283884
C125	C	0.946980	-0.034624	0.049450
C126	C	1.280313	0.298709	0.382783
C127	C	0.528001	-0.367687	-0.283549
C128	C	0.861335	-0.034354	0.049785
C129	C	1.194668	0.298980	0.383118
C130	C	0.528006	-0.285215	-0.368286
C131	C	0.861339	0.048118	-0.034953
C132	C	1.194672	0.381451	0.298380
C133	C	0.613656	-0.283746	-0.367925
C134	C	0.946990	0.049588	-0.034591
C135	C	1.280323	0.382921	0.298742
C136	C	0.728626	-0.301953	-0.301916
C137	C	1.061959	0.031381	0.031417
C138	C	1.395292	0.364714	0.364751
C139	C	0.412524	-0.301991	-0.301968
C140	C	0.745857	0.031342	0.031365
C141	C	1.079191	0.364675	0.364699
C142	C	1.263361	-0.301988	-0.301968
C143	C	1.596694	0.031346	0.031365
C144	C	1.930028	0.364679	0.364698
C145	C	1.345675	-0.301999	-0.301982
C146	C	1.679008	0.031334	0.031351
C147	C	2.012342	0.364668	0.364684
C148	C	1.070261	-0.301949	-0.465358
C149	C	1.403594	0.031384	-0.132025
C150	C	1.736927	0.364718	0.201308
C151	C	1.070287	-0.301944	-0.535000
C152	C	1.403620	0.031390	-0.201666
C153	C	1.736953	0.364723	0.131667
C154	C	1.070317	-0.138538	-0.301984
C155	C	1.403651	0.194795	0.031349
C156	C	1.736984	0.528128	0.364683
C157	C	1.070368	-0.068897	-0.302005
C158	C	1.403701	0.264436	0.031329
C159	C	1.737035	0.597769	0.364662
C160	C	1.117679	-0.261875	-0.567734
C161	C	1.451013	0.071458	-0.234401
C162	C	1.784346	0.404792	0.098933
C163	C	1.117678	-0.261848	-0.633169
C164	C	1.451012	0.071485	-0.299836
C165	C	1.784345	0.404819	0.033497
C166	C	1.070293	-0.301901	-0.665868
C167	C	1.403626	0.031432	-0.332535
C168	C	1.736959	0.364766	0.000799
C169	C	1.022891	-0.341973	-0.633126
C170	C	1.356224	-0.008639	-0.299793
C171	C	1.689557	0.324694	0.033541
C172	C	1.022888	-0.341994	-0.567692
C173	C	1.356221	-0.008661	-0.234359
C174	C	1.689554	0.324673	0.098975
C175	C	1.064411	-0.358316	-0.769530
C176	C	1.397744	-0.024983	-0.436197
C177	C	1.731078	0.308351	-0.102864
C178	C	1.064419	-0.358296	-0.834963
C179	C	1.397753	-0.024962	-0.501630
C180	C	1.731086	0.308371	-0.168297
C181	C	1.070297	-0.301835	-0.867689
C182	C	1.403630	0.031499	-0.534356
C183	C	1.736964	0.364832	-0.201022
C184	C	1.076183	-0.245393	-0.834974
C185	C	1.409516	0.087941	-0.501640
C186	C	1.742849	0.421274	-0.168307
C187	C	1.076180	-0.245414	-0.769540
C188	C	1.409513	0.087919	-0.436206
C189	C	1.742846	0.421253	-0.102873
C190	C	1.070290	-0.301882	-0.736821
C191	C	1.403623	0.031451	-0.403487
C192	C	1.736957	0.364785	-0.070154
C193	C	1.117691	-0.261734	-0.971376
C194	C	1.451025	0.071600	-0.638042
C195	C	1.784358	0.404933	-0.304709
C196	C	1.117685	-0.261706	-1.036812
C197	C	1.451018	0.071628	-0.703479
C198	C	1.784352	0.404961	-0.370146
C199	C	1.022901	-0.341836	-1.036768
C200	C	1.356235	-0.008502	-0.703434
C201	C	1.689568	0.324831	-0.370101
C202	C	1.022904	-0.341858	-0.971332
C203	C	1.356237	-0.008525	-0.637999
C204	C	1.689570	0.324809	-0.304666
C205	C	1.070302	-0.301808	-0.938640
C206	C	1.403636	0.031526	-0.605307
C207	C	1.736969	0.364859	-0.271974
C208	C	1.070180	-0.301929	-0.139148
C209	C	1.403514	0.031404	0.194186
C210	C	1.736847	0.364737	0.527519
C211	C	1.070298	-0.301758	-0.069507
C212	C	1.403631	0.031575	0.263827
C213	C	1.736964	0.364909	0.597160
H214	H	1.156091	-0.540450	-0.229278
H215	H	1.489425	-0.207117	0.104055
H216	H	1.822758	0.126217	0.437388
O217	O	1.168783	-0.218614	-0.668483
O218	O	1.502116	0.114719	-0.335150
O219	O	1.835450	0.448052	-0.001816
H220	H	1.160811	-0.225321	-0.719476
H221	H	1.494145	0.108012	-0.386142
H222	H	1.827478	0.441345	-0.052809
O223	O	1.168797	-0.218481	-1.072124
O224	O	1.502130	0.114853	-0.738790
O225	O	1.835463	0.448186	-0.405457
H226	H	1.206447	-0.246518	-1.101958
H227	H	1.539780	0.086815	-0.768625
H228	H	1.873113	0.420149	-0.435292
O229	O	0.971639	-0.531836	-0.385117
O230	O	1.304972	-0.198503	-0.051783
O231	O	1.638306	0.134831	0.281550
H232	H	0.933971	-0.502064	-0.357031
H233	H	1.267304	-0.168731	-0.023698
H234	H	1.600638	0.164602	0.309635
O235	O	1.082523	-0.184543	-0.734251
O236	O	1.415857	0.148790	-0.400917
O237	O	1.749190	0.482123	-0.067584
H238	H	1.086609	-0.145276	-0.767995
H239	H	1.419942	0.188058	-0.434661
H240	H	1.753275	0.521391	-0.101328
H241	H	0.984311	-0.374441	-1.063390
H242	H	1.317645	-0.041108	-0.730057
H243	H	1.650978	0.292226	-0.396724
O244	O	1.082503	-0.184487	-0.870259
O245	O	1.415836	0.148847	-0.536925
O246	O	1.749170	0.482180	-0.203592
H247	H	1.081500	-0.193950	-0.921255
H248	H	1.414834	0.139384	-0.587922
H249	H	1.748167	0.472717	-0.254588
O250	O	0.971692	-0.667854	-0.385132
O251	O	1.305025	-0.334521	-0.051799
O252	O	1.638358	-0.001187	0.281535
H253	H	0.984362	-0.655269	-0.434317
H254	H	1.317696	-0.321935	-0.100983
H255	H	1.651029	0.011398	0.232350
H256	H	0.949205	-0.861074	-0.310817
H257	H	1.282538	-0.527740	0.022516
H258	H	1.615871	-0.194407	0.355849
H259	H	0.949150	-0.742370	-0.310804
H260	H	1.282483	-0.409037	0.022529
H261	H	1.615817	-0.075703	0.355863
H262	H	0.633767	-0.264532	-0.204429
H263	H	0.967100	0.068801	0.128904
H264	H	1.300434	0.402135	0.462237
H265	H	0.984341	-0.944128	-0.374606
H266	H	1.317675	-0.610795	-0.041273
H267	H	1.651008	-0.277461	0.292061
O268	O	0.971754	-0.385199	-0.532379
O269	O	1.305087	-0.051865	-0.199046
O270	O	1.638420	0.281468	0.134288
H271	H	0.938796	-0.413042	-0.566107
H272	H	1.272129	-0.079709	-0.232773
H273	H	1.605462	0.253624	0.100560
H274	H	1.156282	-0.229119	-0.944756
H275	H	1.489615	0.104215	-0.611423
H276	H	1.822949	0.437548	-0.278090
O277	O	0.971767	-0.385058	-0.936019
O278	O	1.305101	-0.051725	-0.602686
O279	O	1.638434	0.281608	-0.269353
H280	H	0.938810	-0.412901	-0.969748
H281	H	1.272143	-0.079568	-0.636415
H282	H	1.605476	0.253766	-0.303081
O283	O	1.058064	-0.419168	-0.870248
O284	O	1.391397	-0.085834	-0.536915
O285	O	1.724730	0.247499	-0.203582
H286	H	1.053958	-0.458431	-0.836501
H287	H	1.387291	-0.125097	-0.503167
H288	H	1.720624	0.208236	-0.169834
O289	O	1.168796	-0.218674	-0.532475
O290	O	1.502129	0.114659	-0.199142
O291	O	1.835462	0.447993	0.134192
H292	H	1.206455	-0.246733	-0.502681
H293	H	1.539788	0.086600	-0.169347
H294	H	1.873121	0.419934	0.163986
O295	O	1.058061	-0.419216	-0.734234
O296	O	1.391395	-0.085882	-0.400901
O297	O	1.724728	0.247451	-0.067568
H298	H	1.053978	-0.458458	-0.767974
H299	H	1.387311	-0.125125	-0.434641
H300	H	1.720645	0.208208	-0.101307
O301	O	0.500559	-0.417337	-0.327995
O302	O	0.833892	-0.084004	0.005338
O303	O	1.167226	0.249330	0.338672
H304	H	0.466555	-0.451770	-0.301911
H305	H	0.799888	-0.118437	0.031422
H306	H	1.133222	0.214897	0.364756
H307	H	1.156336	-1.062795	-0.229380
H308	H	1.489669	-0.729462	0.103953
H309	H	1.823003	-0.396129	0.437286
H310	H	1.191279	-0.742207	-0.293077
H311	H	1.524612	-0.408874	0.040256
H312	H	1.857945	-0.075540	0.373590
O313	O	0.641995	-0.387129	-0.220345
O314	O	0.975328	-0.053795	0.112988
O315	O	1.308662	0.279538	0.446321
H316	H	0.623909	-0.352444	-0.184943
H317	H	0.957242	-0.019110	0.148390
H318	H	1.290576	0.314223	0.481723
O319	O	1.168802	-0.935426	-0.218783
O320	O	1.502135	-0.602092	0.114551
O321	O	1.835469	-0.268759	0.447884
H322	H	1.156151	-0.948018	-0.169596
H323	H	1.489484	-0.614685	0.163737
H324	H	1.822818	-0.281351	0.497070
H325	H	0.984306	-0.374582	-0.659754
H326	H	1.317640	-0.041249	-0.326420
H327	H	1.650973	0.292085	0.006913
O328	O	0.640621	-0.417274	-0.328899
O329	O	0.973955	-0.083940	0.004434
O330	O	1.307288	0.249393	0.337768
H331	H	0.701886	-0.419049	-0.327725
H332	H	1.035220	-0.085715	0.005609
H333	H	1.368553	0.247618	0.338942
H334	H	0.507984	-0.381906	-0.235058
H335	H	0.841317	-0.048572	0.098276
H336	H	1.174651	0.284761	0.431609
H337	H	1.156150	-0.659159	-0.229304
H338	H	1.489483	-0.325826	0.104030
H339	H	1.822816	0.007508	0.437363
H340	H	0.634360	-0.204510	-0.264892
H341	H	0.967694	0.128823	0.068442
H342	H	1.301027	0.462157	0.401775
H343	H	1.191331	-0.860920	-0.293102
H344	H	1.524665	-0.527587	0.040231
H345	H	1.857998	-0.194254	0.373565
H346	H	0.507131	-0.204230	-0.264973
H347	H	0.840465	0.129103	0.068360
H348	H	1.173798	0.462437	0.401694
H349	H	0.984398	-1.062840	-0.374630
H350	H	1.317731	-0.729506	-0.041296
H351	H	1.651064	-0.396173	0.292037
H352	H	0.635066	-0.316605	-0.405739
H353	H	0.968399	0.016728	-0.072406
H354	H	1.301733	0.350062	0.260927
O355	O	0.499174	-0.267838	-0.189052
O356	O	0.832507	0.065496	0.144281
O357	O	1.165841	0.398829	0.477615
H358	H	0.462786	-0.309559	-0.191038
H359	H	0.796120	0.023775	0.142295
H360	H	1.129453	0.357108	0.475628
O361	O	0.499443	-0.222576	-0.390023
O362	O	0.832777	0.110757	-0.056690
O363	O	1.166110	0.444090	0.276644
H364	H	0.462386	-0.202692	-0.353787
H365	H	0.795719	0.130641	-0.020453
H366	H	1.129053	0.463974	0.312880
O367	O	0.640604	-0.219415	-0.385959
O368	O	0.973938	0.113918	-0.052625
O369	O	1.307271	0.447252	0.280708
H370	H	0.676011	-0.200489	-0.348083
H371	H	1.009345	0.132845	-0.014750
H372	H	1.342678	0.466178	0.318583
H373	H	0.507753	-0.320657	-0.404178
H374	H	0.841087	0.012676	-0.070845
H375	H	1.174420	0.346009	0.262488
