data_functionalizedCrystal
_audit_creation_method	'MofGen! by Chris Wilmer'
_symmetry_space_group_name_H-M	'P1'
_symmetry_Int_Tables_number	1
_symmetry_cell_setting	triclinic
loop_
_symmetry_equiv_pos_as_xyz
  x,y,z
_cell_length_a	31.640172
_cell_length_b	31.640172
_cell_length_c	27.440280
_cell_angle_alpha	59.998477
_cell_angle_beta	90.008206
_cell_angle_gamma	59.998920
loop_
_atom_site_label
_atom_site_type_symbol
_atom_site_fract_x
_atom_site_fract_y
_atom_site_fract_z
Zr1	Zr	0.407162	0.462612	-0.063978
O2	O	0.339668	0.550795	-0.141816
O3	O	0.427855	0.374429	-0.040105
O4	O	0.427850	0.462601	-0.141785
O5	O	0.339673	0.462631	0.040057
O6	O	0.497407	0.462593	-0.141774
O7	O	0.339672	0.462623	-0.040136
O8	O	0.497416	0.304868	0.040113
O9	O	0.339665	0.620355	-0.141830
O10	O	0.488587	0.410693	-0.029930
O11	O	0.436678	0.410706	0.029910
O12	O	0.436672	0.514518	-0.089806
O13	O	0.384763	0.514530	-0.029966
Zr14	Zr	0.518099	0.462611	0.063938
Zr15	Zr	0.518097	0.462598	-0.063961
Zr16	Zr	0.407163	0.462625	0.063921
Zr17	Zr	0.407157	0.573552	-0.064000
Zr18	Zr	0.518104	0.351671	0.063960
O19	O	0.497406	0.550794	0.040064
O20	O	0.497403	0.550775	-0.141792
O21	O	0.339670	0.550814	0.040040
O22	O	0.585593	0.374428	0.141775
O23	O	0.585591	0.374409	-0.040081
O24	O	0.427857	0.374448	0.141751
O25	O	0.585587	0.462592	-0.040098
O26	O	0.497411	0.462622	0.141744
O27	O	0.427854	0.462630	0.141734
O28	O	0.585588	0.462600	0.040095
O29	O	0.427844	0.620344	-0.141816
O30	O	0.497417	0.304879	0.141776
O31	O	0.585596	0.304868	0.141789
O32	O	0.585595	0.304857	0.040126
O33	O	0.339666	0.620366	-0.040167
O34	O	0.427845	0.620355	-0.040154
O35	O	0.488588	0.410705	0.089765
O36	O	0.540497	0.410693	0.029926
O37	O	0.488583	0.514517	-0.029950
O38	O	0.436674	0.514530	0.029889
C39	C	0.462636	0.323842	0.000007
C40	C	0.462638	0.276745	0.000016
C41	C	0.424310	0.023071	-0.044224
C42	C	0.424306	-0.153910	-0.044240
O43	O	0.391727	-0.144203	-0.081841
N44	N	0.462627	-0.214362	-0.000047
C45	C	0.500954	-0.230570	0.044151
O46	O	0.533551	-0.286049	0.081736
C47	C	0.500959	-0.053589	0.044164
C48	C	0.462633	0.006864	-0.000028
C49	C	0.385987	0.083521	-0.088413
C50	C	0.385986	0.127763	-0.088407
C51	C	0.424309	0.111556	-0.044211
C52	C	0.462633	0.051106	-0.000022
C53	C	0.539288	-0.069796	0.088359
C54	C	0.539287	-0.025545	0.088358
C55	C	0.500960	0.034908	0.044165
C56	C	0.500955	0.079141	0.044180
N57	N	0.462634	0.139593	-0.000013
C58	C	0.424311	0.155801	-0.044208
C59	C	0.500947	-0.323484	0.044141
C60	C	0.500946	-0.367729	0.044139
C61	C	0.424298	-0.291067	-0.044253
C62	C	0.424298	-0.246821	-0.044248
C63	C	0.462626	-0.263032	-0.000052
C64	C	0.424313	0.248710	-0.044191
C65	C	0.424315	0.292952	-0.044179
C66	C	0.500964	0.216286	0.044210
C67	C	0.500961	0.172047	0.044201
C68	C	0.462633	0.188263	-0.000005
O69	O	0.533520	0.069479	0.081757
O70	O	0.391725	0.211283	-0.081795
C71	C	0.424310	-0.021171	-0.044230
C72	C	0.462633	-0.081621	-0.000041
C73	C	0.500956	-0.097828	0.044155
C74	C	0.462631	-0.125866	-0.000044
C75	C	0.424308	-0.109658	-0.044239
C76	C	0.385987	-0.049206	-0.088432
C77	C	0.385987	-0.004964	-0.088426
C78	C	0.539277	-0.158280	0.088348
C79	C	0.539274	-0.202520	0.088338
C80	C	0.500951	-0.186312	0.044142
C81	C	0.323867	0.462629	-0.000042
C82	C	0.276772	0.462635	-0.000049
C83	C	0.011865	0.408411	0.031246
C84	C	-0.165120	0.408400	0.031258
O85	O	-0.164959	0.362309	0.057861
N86	N	-0.214349	0.462595	0.000003
C87	C	-0.219330	0.516796	-0.031255
O88	O	-0.265263	0.562892	-0.057834
C89	C	-0.042346	0.516806	-0.031263
C90	C	0.006882	0.462608	-0.000010
C91	C	0.061091	0.354217	0.062497
C92	C	0.105334	0.354220	0.062491
C93	C	0.100352	0.408417	0.031234
C94	C	0.051126	0.462611	-0.000016
C95	C	-0.047328	0.571007	-0.062516
C96	C	-0.003077	0.571004	-0.062514
C97	C	0.046152	0.516806	-0.031262
C98	C	0.090386	0.516811	-0.031278
N99	N	0.139615	0.462616	-0.000023
C100	C	0.144598	0.408419	0.031233
C101	C	-0.312248	0.516787	-0.031249
C102	C	-0.356494	0.516785	-0.031248
C103	C	-0.302280	0.408389	0.031266
C104	C	-0.258034	0.408392	0.031261
C105	C	-0.263019	0.462593	0.000006
C106	C	0.237510	0.408430	0.031218
C107	C	0.281755	0.408438	0.031208
C108	C	0.227538	0.516834	-0.031304
C109	C	0.183296	0.516826	-0.031296
C110	C	0.188286	0.462619	-0.000030
O111	O	0.090265	0.562878	-0.057862
O112	O	0.190535	0.362330	0.057820
C113	C	-0.032378	0.408408	0.031252
C114	C	-0.081604	0.462601	0.000002
C115	C	-0.086587	0.516799	-0.031255
C116	C	-0.125850	0.462599	0.000003
C117	C	-0.120868	0.408402	0.031259
C118	C	-0.071639	0.354207	0.062515
C119	C	-0.027396	0.354211	0.062509
C120	C	-0.135816	0.570993	-0.062510
C121	C	-0.180057	0.570986	-0.062502
C122	C	-0.175074	0.516789	-0.031246
C123	C	0.601394	0.462594	0.000001
C124	C	0.648489	0.462588	0.000008
C125	C	0.462628	0.462595	-0.160003
C126	C	0.462628	0.462590	-0.214299
C127	C	0.462625	0.601381	-0.000048
C128	C	0.462623	0.648478	-0.000057
C129	C	0.435536	0.516817	-0.582288
C130	C	0.435538	0.516820	-0.633310
O131	O	0.412507	0.562911	-0.686279
N132	N	0.462635	0.462625	-0.627573
C133	C	0.489738	0.408424	-0.570809
O134	O	0.512787	0.362327	-0.570614
C135	C	0.489739	0.408421	-0.519788
C136	C	0.462635	0.462619	-0.525530
C137	C	0.408435	0.571010	-0.588027
C138	C	0.408433	0.571007	-0.537009
C139	C	0.435532	0.516810	-0.480250
C140	C	0.462633	0.462616	-0.474511
C141	C	0.516844	0.354220	-0.463025
C142	C	0.516844	0.354222	-0.412003
C143	C	0.489740	0.408420	-0.417745
C144	C	0.489730	0.408415	-0.366734
N145	N	0.462632	0.462610	-0.372471
C146	C	0.435533	0.516807	-0.429229
C147	C	0.489734	0.408434	-0.677959
C148	C	0.489730	0.408436	-0.728979
C149	C	0.435530	0.516832	-0.791477
C150	C	0.435532	0.516829	-0.740456
C151	C	0.462636	0.462628	-0.683696
C152	C	0.435530	0.516795	-0.322084
C153	C	0.435529	0.516787	-0.271058
C154	C	0.489730	0.408391	-0.208564
C155	C	0.489730	0.408399	-0.259586
C156	C	0.462629	0.462606	-0.316347
O157	O	0.512751	0.362348	-0.313746
O158	O	0.412493	0.562895	-0.429414
C159	C	0.462632	0.462628	0.159962
C160	C	0.462633	0.462633	0.214259
C161	C	0.601400	0.323825	0.000028
C162	C	0.648496	0.276722	0.000045
C163	C	0.462638	0.323858	0.159989
C164	C	0.462641	0.276767	0.214295
C165	C	0.601402	0.323841	0.160011
C166	C	0.648499	0.276743	0.214324
C167	C	0.323859	0.601382	-0.160051
C168	C	0.276762	0.648480	-0.214365
C169	C	0.323861	0.601398	-0.000069
C170	C	0.276764	0.648501	-0.000086
C171	C	0.462623	0.601365	-0.160030
C172	C	0.462620	0.648456	-0.214336
C173	C	0.643517	0.254602	-0.031197
C174	C	0.687765	0.210350	-0.031193
C175	C	0.736993	0.188215	0.000056
C176	C	0.741971	0.210339	0.031298
C177	C	0.697723	0.254594	0.031291
C178	C	0.489739	0.254652	0.271047
C179	C	0.489739	0.210411	0.322078
C180	C	0.462645	0.188282	0.316356
C181	C	0.435543	0.210401	0.259598
C182	C	0.435540	0.254645	0.208568
C183	C	0.697717	0.254619	0.208594
C184	C	0.741975	0.210372	0.259622
C185	C	0.737013	0.188247	0.316379
C186	C	0.687790	0.210376	0.322108
C187	C	0.643533	0.254625	0.271080
C188	C	0.227544	0.670609	-0.208635
C189	C	0.183286	0.714870	-0.259663
C190	C	0.188248	0.736997	-0.316420
C191	C	0.237471	0.714866	-0.322148
C192	C	0.281727	0.670609	-0.271121
C193	C	0.281744	0.670626	0.031151
C194	C	0.237495	0.714890	0.031133
C195	C	0.188268	0.737026	-0.000118
C196	C	0.183290	0.714900	-0.031358
C197	C	0.227538	0.670639	-0.031343
C198	C	0.489720	0.670571	-0.208595
C199	C	0.489728	0.714812	-0.259616
C200	C	0.462632	0.736942	-0.316378
C201	C	0.435531	0.714823	-0.322118
C202	C	0.435527	0.670579	-0.271097
H203	H	0.393104	0.261922	-0.080189
H204	H	0.152243	0.773066	-0.000125
H205	H	0.511792	0.364265	-0.162343
H206	H	0.413457	0.652578	-0.275780
O207	O	0.703098	0.278439	0.065001
H208	H	0.724590	0.298589	0.046956
O209	O	0.130202	0.738723	-0.253470
H210	H	0.108739	0.787536	-0.275212
O211	O	0.406300	0.575287	-0.746654
H212	H	0.376347	0.577887	-0.724917
H213	H	0.354781	0.176984	-0.124397
H214	H	0.570486	-0.171486	0.124337
O215	O	0.682391	0.186489	-0.064889
H216	H	0.660912	0.166327	-0.046823
O217	O	0.379200	0.629464	-0.543206
H218	H	0.394862	0.655445	-0.567974
H219	H	0.773018	0.152180	0.000058
O220	O	0.130192	0.738780	-0.065064
H221	H	0.108741	0.730292	-0.033520
H222	H	0.223476	0.652627	-0.056778
H223	H	0.773054	0.152217	0.357924
H224	H	0.701767	0.272627	0.162384
H225	H	0.538916	0.310084	-0.365788
O226	O	0.379206	0.629471	-0.649244
H227	H	0.349257	0.632071	-0.673994
O228	O	0.590448	0.278474	0.277263
H229	H	0.594438	0.255645	0.325304
H230	H	0.782050	0.192360	0.254948
H231	H	0.683757	0.192355	0.368326
O232	O	0.382981	0.358157	-0.091851
H233	H	0.356338	0.361990	-0.122588
O234	O	0.795067	0.186459	0.065008
H235	H	0.824995	0.151965	0.059767
H236	H	-0.396574	0.560919	-0.056705
H237	H	0.511804	0.364294	-0.631743
H238	H	0.511784	0.652560	-0.162381
H239	H	0.413471	0.732847	-0.368340
O240	O	0.334836	0.646756	0.064857
H241	H	0.356291	0.655238	0.033316
H242	H	0.223494	0.652595	-0.162425
O243	O	0.140512	0.784738	-0.371456
H244	H	0.105456	0.796404	-0.357930
H245	H	0.511795	0.732817	-0.254931
O246	O	0.344650	0.101009	-0.136087
H247	H	0.322555	0.082687	-0.114850
O248	O	0.242820	0.738730	-0.383366
H249	H	0.203774	0.773215	-0.417881
H250	H	0.570484	-0.251743	0.124330
H251	H	0.462651	0.152256	0.357913
H252	H	0.570498	-0.119014	0.124345
H253	H	0.511803	0.272664	0.275718
H254	H	0.511810	0.192406	0.368288
H255	H	0.603438	0.272623	-0.056650
O256	O	0.462631	0.784669	-0.371406
H257	H	0.486023	0.796332	-0.357872
O258	O	0.334813	0.646734	-0.277304
H259	H	0.330823	0.669554	-0.325344
O260	O	0.158428	0.295762	0.096201
H261	H	0.162933	0.269782	0.144223
O262	O	-0.317628	0.575250	-0.064969
H263	H	-0.359295	0.612929	-0.086706
H264	H	-0.220140	0.615124	-0.087958
H265	H	0.393094	-0.277877	-0.080240
O266	O	0.382967	-0.181620	-0.091918
H267	H	0.356323	-0.177790	-0.122650
O268	O	-0.100418	0.629464	-0.096221
H269	H	-0.096439	0.667145	-0.117946
H270	H	-0.298230	0.364259	0.056712
O271	O	-0.008453	0.629465	-0.096230
H272	H	-0.050119	0.667147	-0.117963
H273	H	0.511793	0.364267	-0.254909
O274	O	0.406308	0.575291	-0.852701
H275	H	0.410869	0.566183	-0.887210
H276	H	0.065157	0.310081	0.087953
O277	O	0.542284	-0.432930	0.091802
H278	H	0.568935	-0.436760	0.122526
O279	O	0.242870	0.738743	0.064837
H280	H	0.284536	0.715902	0.086579
O281	O	0.542290	-0.340975	0.091813
H282	H	0.523867	-0.322647	0.117284
O283	O	0.406324	0.278438	0.147379
H284	H	0.376347	0.327254	0.122581
H285	H	0.413484	0.192378	0.254948
O286	O	0.546106	0.295763	-0.456825
H287	H	0.564961	0.258083	-0.408781
O288	O	0.580626	-0.043026	0.136025
H289	H	0.578743	-0.069895	0.180573
O290	O	0.542298	0.106843	0.091865
H291	H	0.540418	0.096952	0.136415
O292	O	0.542305	0.198809	0.091870
H293	H	0.535868	0.239734	0.084439
O294	O	0.344653	0.060235	-0.136100
H295	H	0.306016	0.070122	-0.133943
O296	O	0.344656	-0.031727	-0.136108
H297	H	0.351103	-0.072653	-0.128686
H298	H	0.321839	0.364301	0.056659
H299	H	0.241580	0.364290	0.056678
H300	H	-0.217953	0.364259	0.056715
O301	O	0.130197	0.575280	-0.065004
H302	H	0.134168	0.612967	-0.086737
O303	O	0.222167	0.575288	-0.065087
H304	H	0.261206	0.566180	-0.059858
O305	O	0.025698	0.295754	0.096219
H306	H	0.021721	0.258072	0.117956
H307	H	0.511794	0.364302	-0.724296
O308	O	-0.066267	0.295750	0.096229
H309	H	-0.105307	0.304860	0.090982
H310	H	-0.139881	0.615128	-0.087964
H311	H	0.413455	0.560924	-0.275740
H312	H	0.413462	0.560936	-0.368296
