data_functionalizedCrystal
_audit_creation_method	'MofGen! by Chris Wilmer'
_symmetry_space_group_name_H-M	'P1'
_symmetry_Int_Tables_number	1
_symmetry_cell_setting	triclinic
loop_
_symmetry_equiv_pos_as_xyz
  x,y,z
_cell_length_a	10.654550
_cell_length_b	15.995350
_cell_length_c	9.130313
_cell_angle_alpha	90.000982
_cell_angle_beta	89.996220
_cell_angle_gamma	83.988639
loop_
_atom_site_label
_atom_site_type_symbol
_atom_site_fract_x
_atom_site_fract_y
_atom_site_fract_z
O1	O	1.666298	0.117599	-0.121912
O2	O	1.300673	0.128803	-0.121888
O3	O	1.493480	0.001371	-0.121899
O4	O	1.473491	0.245030	-0.121900
O5	O	1.493478	0.001375	0.121700
O6	O	1.300671	0.128807	0.121711
O7	O	1.666295	0.117602	0.121687
Cu8	Cu	1.483483	0.123205	0.143942
Cu9	Cu	1.483486	0.123201	-0.144142
O10	O	1.473488	0.245034	0.121698
C11	C	1.253885	0.127982	-0.000085
C12	C	1.114473	0.125521	-0.000076
C13	C	1.034008	0.200551	-0.000098
C14	C	0.903017	0.198233	-0.000123
C15	C	0.932971	0.045849	-0.000111
C16	C	1.063959	0.048168	-0.000075
C17	C	1.084522	0.277904	-0.000099
C18	C	1.004055	0.352940	-0.000122
C19	C	0.873064	0.350622	-0.000147
C20	C	0.822541	0.273268	-0.000149
C21	C	1.492652	-0.029827	-0.000102
C22	C	1.490175	-0.122791	-0.000110
C23	C	1.481278	-0.460591	-0.000105
C24	C	1.343964	-0.413954	-0.000642
C25	C	1.346442	-0.317249	-0.000093
C26	C	1.485691	-0.293004	-0.000108
C27	C	1.553417	-0.333687	0.138991
C28	C	1.549968	-0.430342	0.139108
C29	C	1.552807	-0.430688	-0.137910
C30	C	1.552775	-0.333743	-0.139748
C31	C	1.488192	-0.198292	-0.000106
C32	C	1.478780	-0.555303	-0.000098
C33	C	1.713084	0.118423	-0.000119
C34	C	1.852495	0.120884	-0.000137
C35	C	1.474316	0.276232	-0.000101
C36	C	1.476793	0.369197	-0.000103
N37	N	1.483490	0.123207	0.346564
N38	N	1.483488	0.123192	-0.346765
C39	C	1.568887	0.066800	0.423211
C40	C	1.568883	0.066789	0.576548
C41	C	1.398083	0.179602	0.576578
C42	C	1.398081	0.179607	0.423244
C43	C	1.654296	0.010399	0.346532
C44	C	1.739700	-0.046012	0.423179
C45	C	1.739697	-0.046022	0.576516
C46	C	1.654289	0.010379	0.653206
H47	H	1.191179	0.279800	-0.000085
N48	N	1.055678	0.431943	-0.000097
N49	N	1.172632	0.434004	-0.000069
H50	H	1.209091	0.489802	-0.000048
N51	N	1.146179	-0.028464	-0.000077
N52	N	1.263129	-0.026380	-0.000049
H53	H	1.321200	-0.080502	-0.000048
H54	H	0.807551	0.411720	-0.000152
H55	H	1.654308	0.010404	0.221678
H56	H	1.654285	0.010361	0.778063
N57	N	1.679823	-0.469772	-0.139096
N58	N	1.752213	-0.458217	-0.034992
H59	H	1.841917	-0.485819	-0.035819
H60	H	0.715878	0.271387	-0.000147
N61	N	0.881345	-0.033153	-0.000109
N62	N	0.764390	-0.035212	-0.000140
H63	H	0.727928	-0.091009	-0.000141
N64	N	1.681749	-0.315214	0.145522
N65	N	1.750814	-0.342527	0.249273
H66	H	1.841448	-0.329477	0.253889
N67	N	1.310835	0.237213	0.654889
N68	N	1.194765	0.235343	0.637773
H69	H	1.133145	0.276033	0.693078
H70	H	1.293204	-0.289138	-0.099805
N71	N	1.310858	0.237239	0.344961
N72	N	1.312571	0.314643	0.362094
H73	H	1.250966	0.355347	0.306807
H74	H	1.500580	-0.448929	0.243098
N75	N	1.275077	-0.437604	-0.125749
N76	N	1.163569	-0.406771	-0.144842
H77	H	1.114913	-0.423480	-0.233201
N78	N	1.275425	-0.438936	0.123806
N79	N	1.327269	-0.490939	0.212893
H80	H	1.278868	-0.508585	0.300787
H81	H	1.809230	-0.091937	0.360730
N82	N	1.826925	-0.103656	0.654788
N83	N	1.903166	-0.154008	0.586301
H84	H	1.964777	-0.194713	0.641577
H85	H	1.292844	-0.289694	0.099796
H86	H	1.650782	-0.462005	0.145409
N87	N	1.494382	-0.298433	0.268854
N88	N	1.380287	-0.305127	0.292342
H89	H	1.338583	-0.280231	0.384055
N90	N	1.496490	-0.456796	-0.270161
N91	N	1.402939	-0.497764	-0.264452
H92	H	1.363154	-0.516206	-0.357848
N93	N	1.490726	-0.299857	-0.268834
N94	N	1.397446	-0.245902	-0.258144
H95	H	1.353620	-0.221965	-0.349308
H96	H	1.654321	-0.317791	-0.148158
