data_functionalizedCrystal
_audit_creation_method	'MofGen! by Chris Wilmer'
_symmetry_space_group_name_H-M	'P1'
_symmetry_Int_Tables_number	1
_symmetry_cell_setting	triclinic
loop_
_symmetry_equiv_pos_as_xyz
  x,y,z
_cell_length_a	17.639617
_cell_length_b	25.639239
_cell_length_c	17.640968
_cell_angle_alpha	101.231536
_cell_angle_beta	109.666032
_cell_angle_gamma	101.223388
loop_
_atom_site_label
_atom_site_type_symbol
_atom_site_fract_x
_atom_site_fract_y
_atom_site_fract_z
Zn1	Zn	1.354421	0.069164	0.721261
Zn2	Zn	1.854421	0.569164	1.221261
Zn3	Zn	1.326397	-0.040455	0.583391
Zn4	Zn	1.826397	0.459545	1.083391
Zn5	Zn	1.188688	0.024850	0.555521
Zn6	Zn	1.688688	0.524850	1.055521
Zn7	Zn	1.216486	-0.040404	0.693274
Zn8	Zn	1.716486	0.459596	1.193274
O9	O	1.271498	0.003289	0.638362
O10	O	1.771498	0.503289	1.138362
O11	O	1.466061	0.073147	0.726349
O12	O	1.966061	0.573147	1.226349
O13	O	1.284768	-0.050359	0.464345
O14	O	1.784768	0.449641	0.964345
O15	O	1.210767	0.103912	0.577556
O16	O	1.710767	0.603912	1.077556
O17	O	1.445472	-0.007389	0.625056
O18	O	1.945472	0.492611	1.125056
O19	O	1.332530	0.136470	0.699324
O20	O	1.832530	0.636470	1.199324
O21	O	1.183593	-0.002380	0.443869
O22	O	1.683593	0.497620	0.943869
O23	O	1.077018	-0.002331	0.550418
O24	O	1.577018	0.497669	1.050418
O25	O	1.258145	-0.007302	0.812335
O26	O	1.758145	0.492698	1.312335
O27	O	1.097441	-0.050272	0.651624
O28	O	1.597441	0.449728	1.151624
O29	O	1.359485	0.073196	0.832897
O30	O	1.859485	0.573196	1.332897
O31	O	1.311723	-0.113632	0.597918
O32	O	1.811723	0.386368	1.097918
O33	O	1.230972	-0.113595	0.678649
O34	O	1.730972	0.386405	1.178649
C35	C	1.057318	-0.031105	0.594960
C36	C	1.557318	0.468895	1.094960
C37	C	0.965695	-0.045828	0.576412
C38	C	1.465695	0.454172	1.076412
C39	C	0.718003	0.115183	0.779472
C40	C	1.218003	0.615183	1.279472
C41	C	0.631906	0.101332	0.762026
C42	C	1.131906	0.601332	1.262026
C43	C	0.610458	0.017557	0.656399
C44	C	1.110458	0.517557	1.156399
C45	C	0.696556	0.031399	0.673838
C46	C	1.196556	0.531399	1.173838
C47	C	0.750322	0.080213	0.735375
C48	C	1.250322	0.580213	1.235375
C49	C	0.728874	-0.003571	0.629741
C50	C	1.228874	0.496429	1.129741
C51	C	0.814964	0.010271	0.647176
C52	C	1.314964	0.510271	1.147176
C53	C	0.868735	0.059084	0.708708
C54	C	1.368735	0.559084	1.208708
C55	C	0.836412	0.094055	0.752810
C56	C	1.336412	0.594055	1.252810
C57	C	0.675106	-0.052383	0.568201
C58	C	1.175106	0.447617	1.068201
C59	C	0.707425	-0.087353	0.524104
C60	C	1.207425	0.412647	1.024104
C61	C	0.793516	-0.073513	0.541542
C62	C	1.293516	0.426487	1.041542
C63	C	0.847287	-0.024700	0.603074
C64	C	1.347287	0.475300	1.103074
C65	C	0.825840	-0.108484	0.497441
C66	C	1.325840	0.391516	0.997441
C67	C	0.911929	-0.094642	0.514876
C68	C	1.411929	0.405358	1.014876
C69	C	0.933377	-0.010858	0.620509
C70	C	1.433377	0.489142	1.120509
C71	C	1.271349	-0.132583	0.638293
C72	C	1.771349	0.367417	1.138293
C73	C	1.271366	-0.190693	0.638307
C74	C	1.771366	0.309307	1.138307
C75	C	1.229438	-0.441859	0.680379
C76	C	1.729438	0.058141	1.180379
C77	C	1.229405	-0.387261	0.680363
C78	C	1.729405	0.112739	1.180363
O79	O	1.193615	-0.359027	0.716080
O80	O	1.693615	0.140973	1.216080
N81	N	1.271479	-0.359943	0.638371
N82	N	1.771479	0.140057	1.138371
C83	C	1.313595	-0.387224	0.596399
C84	C	1.813595	0.112776	1.096399
O85	O	1.349379	-0.358975	0.560680
O86	O	1.849379	0.141025	1.060680
C87	C	1.313632	-0.441820	0.596420
C88	C	1.813632	0.058180	1.096420
C89	C	1.271548	-0.469136	0.638408
C90	C	1.771548	0.030864	1.138408
C91	C	1.187358	-0.469175	0.722365
C92	C	1.687358	0.030825	1.222365
C93	C	1.187390	-0.523770	0.722379
C94	C	1.687390	-0.023770	1.222379
C95	C	1.229500	-0.551047	0.680408
C96	C	1.729500	-0.051047	1.180408
C97	C	1.271579	-0.523731	0.638422
C98	C	1.771579	-0.023731	1.138422
C99	C	1.355752	-0.469099	0.554453
C100	C	1.855752	0.030901	1.054453
C101	C	1.355786	-0.523698	0.554479
C102	C	1.855786	-0.023698	1.054479
C103	C	1.313702	-0.551014	0.596467
C104	C	1.813702	-0.051014	1.096467
C105	C	1.313721	-0.605603	0.596466
C106	C	1.813721	-0.105603	1.096466
N107	N	1.271648	-0.632921	0.638458
N108	N	1.771648	-0.132921	1.138458
C109	C	1.229537	-0.605643	0.680429
C110	C	1.729537	-0.105643	1.180429
C111	C	1.313515	-0.272570	0.596359
C112	C	1.813515	0.227430	1.096359
C113	C	1.313473	-0.217976	0.596332
C114	C	1.813473	0.282024	1.096332
C115	C	1.229285	-0.218016	0.680298
C116	C	1.729285	0.281984	1.180298
C117	C	1.229322	-0.272612	0.680319
C118	C	1.729322	0.227388	1.180319
C119	C	1.271441	-0.299887	0.638351
C120	C	1.771441	0.200113	1.138351
C121	C	1.229606	-0.720295	0.680455
C122	C	1.729606	-0.220295	1.180455
C123	C	1.229638	-0.774895	0.680463
C124	C	1.729638	-0.274895	1.180463
C125	C	1.313830	-0.774850	0.596501
C126	C	1.813830	-0.274850	1.096501
C127	C	1.313794	-0.720255	0.596489
C128	C	1.813794	-0.220255	1.096489
C129	C	1.271681	-0.692979	0.638473
C130	C	1.771681	-0.192979	1.138473
O131	O	1.349496	-0.633871	0.560770
O132	O	1.849496	-0.133871	1.060770
O133	O	1.193768	-0.633896	0.716151
O134	O	1.693768	-0.133896	1.216151
C135	C	1.486514	0.037816	0.681933
C136	C	1.986514	0.537816	1.181933
C137	C	1.578141	0.052530	0.700501
C138	C	2.078141	0.552530	1.200501
C139	C	1.315042	0.037896	0.853361
C140	C	1.815042	0.537896	1.353361
C141	C	1.333598	0.052643	0.944981
C142	C	1.833598	0.552643	1.444981
C143	C	1.271674	0.139697	0.638453
C144	C	1.771674	0.639697	1.138453
C145	C	1.271748	0.197827	0.638492
C146	C	1.771748	0.697827	1.138492
C147	C	1.228170	-0.031138	0.424208
C148	C	1.728170	0.468862	0.924208
C149	C	1.209774	-0.045713	0.332621
C150	C	1.709774	0.454287	0.832621
C151	C	1.130847	-0.108411	1.192787
C152	C	1.630847	0.391589	1.692787
C153	C	1.148300	-0.094544	1.278881
C154	C	1.648300	0.405456	1.778881
C155	C	1.253816	-0.010728	1.300280
C156	C	1.753816	0.489272	1.800280
C157	C	1.236369	-0.024586	1.214185
C158	C	1.736369	0.475414	1.714185
C159	C	1.174884	-0.073429	1.160445
C160	C	1.674884	0.426571	1.660445
C161	C	1.280406	0.010396	1.181843
C162	C	1.780406	0.510396	1.681843
C163	C	1.262963	-0.003463	1.095757
C164	C	1.762963	0.496537	1.595757
C165	C	1.201482	-0.052304	1.042012
C166	C	1.701482	0.447696	1.542012
C167	C	1.157441	-0.087288	1.074358
C168	C	1.657441	0.412712	1.574358
C169	C	1.341895	0.059236	1.235586
C170	C	1.841895	0.559236	1.735586
C171	C	1.385932	0.094218	1.203244
C172	C	1.885932	0.594218	1.703244
C173	C	1.368485	0.080361	1.117155
C174	C	1.868485	0.580361	1.617155
C175	C	1.307004	0.031520	1.063410
C176	C	1.807004	0.531520	1.563410
C177	C	1.412526	0.115345	1.084808
C178	C	1.912526	0.615345	1.584808
C179	C	1.395083	0.101486	0.998722
C180	C	1.895083	0.601486	1.498722
C181	C	1.289561	0.017661	0.977323
C182	C	1.789561	0.517661	1.477323
H183	H	0.605597	0.129815	0.797936
H184	H	1.105597	0.629815	1.297936
H185	H	1.195367	-0.797134	0.714656
H186	H	1.695367	-0.297134	1.214656
H187	H	0.782050	-0.148226	0.447332
H188	H	1.282050	0.351774	0.947332
H189	H	1.347731	-0.195742	0.562130
H190	H	1.847731	0.304258	1.062130
H191	H	1.195314	-0.698093	0.714643
H192	H	1.695314	-0.198093	1.214643
H193	H	0.663637	-0.127096	0.473998
H194	H	1.163637	0.372904	0.973998
H195	H	0.761784	0.154931	0.829584
H196	H	1.261784	0.654931	1.329584
H197	H	1.153119	-0.546006	0.756568
H198	H	1.653119	-0.046006	1.256568
H199	H	0.566670	-0.022187	0.606293
H200	H	1.066670	0.477813	1.106293
H201	H	0.605003	-0.063643	0.553989
H202	H	1.105003	0.436357	1.053989
H203	H	1.080760	-0.148174	1.149024
H204	H	1.580760	0.351826	1.649024
H205	H	1.462593	0.155109	1.128577
H206	H	1.962593	0.655109	1.628577
H207	H	1.348111	-0.797070	0.562325
H208	H	1.848111	-0.297070	1.062325
H209	H	0.938243	-0.123118	0.478968
H210	H	1.438243	0.376882	0.978968
H211	H	1.390021	-0.446865	0.520264
H212	H	1.890021	0.053135	1.020264
H213	H	1.153068	-0.446970	0.756546
H214	H	1.653068	0.053030	1.256546
H215	H	0.880192	0.133803	0.802922
H216	H	1.380192	0.633803	1.302922
H217	H	1.194998	-0.195796	0.714475
H218	H	1.694998	0.304204	1.214475
H219	H	1.195059	-0.294848	0.714515
H220	H	1.695059	0.205152	1.214515
H221	H	1.347810	-0.294775	0.562176
H222	H	1.847810	0.205225	1.062176
H223	H	1.112436	-0.123034	1.305209
H224	H	1.612436	0.376966	1.805209
H225	H	1.390088	-0.545902	0.520305
H226	H	1.890088	-0.045902	1.020305
H227	H	1.303880	0.029039	1.344047
H228	H	1.803880	0.529039	1.844047
H229	H	1.348052	-0.698016	0.562289
H230	H	1.848052	-0.198016	1.062289
H231	H	1.435995	0.133985	1.247011
H232	H	1.935995	0.633985	1.747011
H233	H	0.938834	0.070355	0.722899
H234	H	1.438834	0.570355	1.222899
H235	H	1.430941	0.129972	0.972389
H236	H	1.930941	0.629972	1.472389
H237	H	1.239474	-0.022102	0.933560
H238	H	1.739474	0.477898	1.433560
H239	H	1.187284	-0.063589	0.971915
H240	H	1.687284	0.436411	1.471915
H241	H	0.977158	0.028890	0.670622
H242	H	1.477158	0.528890	1.170622
H243	H	1.107354	-0.127051	1.030595
H244	H	1.607354	0.372949	1.530595
H245	H	1.356097	0.070518	1.305683
H246	H	1.856097	0.570518	1.805683
