data_functionalizedCrystal
_audit_creation_method	'MofGen! by Chris Wilmer'
_symmetry_space_group_name_H-M	'P1'
_symmetry_Int_Tables_number	1
_symmetry_cell_setting	triclinic
loop_
_symmetry_equiv_pos_as_xyz
  x,y,z
_cell_length_a	12.594509
_cell_length_b	12.759401
_cell_length_c	12.759400
_cell_angle_alpha	90.016169
_cell_angle_beta	89.972045
_cell_angle_gamma	89.980791
loop_
_atom_site_label
_atom_site_type_symbol
_atom_site_fract_x
_atom_site_fract_y
_atom_site_fract_z
Zn1	Zn	-0.601802	1.606249	-0.418192
Zn2	Zn	-0.423824	1.606145	-0.593902
Zn3	Zn	-0.423837	1.430553	-0.418242
Zn4	Zn	-0.601761	1.430540	-0.593834
O5	O	-0.512806	1.518372	-0.506042
O6	O	-0.578205	1.753256	-0.441508
O7	O	-0.274880	1.582815	-0.570650
O8	O	-0.447467	1.453908	-0.271214
O9	O	-0.447445	1.753180	-0.570601
O10	O	-0.578217	1.582991	-0.271178
O11	O	-0.274890	1.453808	-0.441593
O12	O	-0.447428	1.283530	-0.441527
O13	O	-0.750712	1.453886	-0.570485
O14	O	-0.578147	1.283520	-0.570534
O15	O	-0.750742	1.582978	-0.441442
O16	O	-0.447405	1.582802	-0.740914
O17	O	-0.578135	1.453785	-0.740864
C18	C	-0.512785	1.245404	-0.506030
C19	C	-0.512801	1.128628	-0.506049
C20	C	-0.580760	1.073788	-0.573325
C21	C	-0.580781	0.964064	-0.573329
C22	C	-0.444876	0.964029	-0.438779
C23	C	-0.444861	1.073751	-0.438770
C24	C	-0.790427	1.518442	-0.505950
C25	C	-0.908733	1.518472	-0.505911
C26	C	-0.977969	1.448280	-0.576058
C27	C	-1.048756	1.544147	-0.601726
C28	C	-1.048745	1.422681	-0.480180
C29	C	-0.977961	1.614388	-0.531629
C30	C	-0.977944	1.492858	-0.410039
C31	C	-1.048699	1.588790	-0.435670
C32	C	-0.236265	1.518362	-0.506058
C33	C	-0.117960	1.518536	-0.505802
C34	C	-0.512787	1.518310	-0.779010
C35	C	-0.512815	1.518379	-0.895786
C36	C	-0.512828	1.792405	-0.506056
C37	C	-0.512837	1.909182	-0.506062
C38	C	-0.580954	1.585563	-0.950539
C39	C	-0.580983	1.585622	-1.060263
C40	C	-0.444724	1.451310	-1.060472
C41	C	-0.444701	1.451246	-0.950750
C42	C	-0.512848	1.518463	-0.232009
C43	C	-0.512866	1.518501	-0.115232
H44	H	-0.636084	1.118466	-0.628106
O45	O	-0.647319	1.650836	-1.113334
C46	C	-0.753377	1.627791	-1.086485
H47	H	-0.755529	1.587357	-1.006852
H48	H	-0.801166	1.703590	-1.082632
H49	H	-0.789197	1.573793	-1.148257
H50	H	-0.946914	1.388968	-0.635471
H51	H	-0.389559	0.919335	-0.384004
H52	H	-1.079838	1.341645	-0.458463
H53	H	-0.389214	1.396532	-0.906167
H54	H	-0.946816	1.471130	-0.329032
H55	H	-1.079861	1.565846	-0.682756
H56	H	-0.636121	0.919419	-0.628111
H57	H	-0.389521	1.118402	-0.383979
H58	H	-1.079558	1.648244	-0.376302
O59	O	-0.940856	1.711018	-0.557686
C60	C	-0.828914	1.709812	-0.557448
H61	H	-0.799611	1.626076	-0.569142
H62	H	-0.798007	1.761349	-0.623743
H63	H	-0.798604	1.741035	-0.479271
O64	O	-0.647176	1.650618	-0.897030
C65	C	-0.715870	1.590725	-0.833587
H66	H	-0.678253	1.511118	-0.817244
H67	H	-0.730159	1.633466	-0.756384
H68	H	-0.794746	1.579160	-0.875830
H69	H	-0.389267	1.396655	-1.105237
