data_functionalizedCrystal
_audit_creation_method	'MofGen! by Chris Wilmer'
_symmetry_space_group_name_H-M	'P1'
_symmetry_Int_Tables_number	1
_symmetry_cell_setting	triclinic
loop_
_symmetry_equiv_pos_as_xyz
  x,y,z
_cell_length_a	11.026607
_cell_length_b	19.188930
_cell_length_c	9.482900
_cell_angle_alpha	99.297616
_cell_angle_beta	78.636152
_cell_angle_gamma	95.865399
loop_
_atom_site_label
_atom_site_type_symbol
_atom_site_fract_x
_atom_site_fract_y
_atom_site_fract_z
O1	O	1.627581	0.283622	-0.120957
O2	O	1.274451	0.250352	-0.120952
O3	O	1.461202	0.166632	-0.120926
O4	O	1.440830	0.367342	-0.120983
O5	O	1.423268	0.183725	0.120861
O6	O	1.236517	0.267445	0.120835
O7	O	1.589648	0.300715	0.120830
Cu8	Cu	1.409619	0.285641	0.142910
Cu9	Cu	1.454480	0.265426	-0.143032
O10	O	1.402896	0.384435	0.120804
C11	C	1.210306	0.252761	-0.000057
C12	C	1.075688	0.234464	-0.000054
C13	C	1.001617	0.284984	-0.000069
C14	C	0.862482	0.266075	-0.000066
C15	C	1.441575	0.149084	-0.000029
C16	C	1.439592	0.071328	-0.000016
C17	C	1.549173	0.040370	-0.000011
C18	C	1.547315	-0.032693	-0.000034
C19	C	1.435865	-0.074793	-0.000033
C20	C	1.326271	-0.043828	-0.000047
C21	C	1.328134	0.029233	-0.000038
N22	N	1.337766	-0.187838	0.082253
N23	N	1.336003	-0.257242	0.082248
C24	C	1.430246	-0.294921	-0.000063
N25	N	1.526334	-0.260572	-0.082349
N26	N	1.528099	-0.191161	-0.082338
C27	C	1.433833	-0.154016	-0.000044
C28	C	1.537820	-0.405101	-0.000085
C29	C	1.535959	-0.478166	-0.000117
C30	C	1.314910	-0.489299	-0.000115
C31	C	1.316776	-0.416236	-0.000098
C32	C	1.428234	-0.374141	-0.000075
C33	C	1.653793	0.298306	-0.000068
C34	C	1.788412	0.316602	-0.000081
C35	C	1.422524	0.401983	-0.000097
C36	C	1.424509	0.479738	-0.000119
N37	N	1.378075	0.299859	0.344025
N38	N	1.486034	0.251204	-0.344148
C39	C	1.445167	0.269615	0.416234
C40	C	1.418931	0.281452	0.583648
H41	H	0.827994	0.373857	-0.000087
H42	H	1.235528	-0.078111	-0.000050
H43	H	1.036104	0.177212	-0.000075
H44	H	1.562899	0.216543	0.593739
O45	O	1.327149	0.322707	0.657899
C46	C	1.238585	0.282209	0.745944
H47	H	1.283395	0.235198	0.768596
H48	H	1.202683	0.316484	0.853037
H49	H	1.158065	0.262196	0.687396
O50	O	1.206550	-0.530088	-0.000179
C51	C	1.110219	-0.487088	-0.000134
H52	H	1.151130	-0.436607	-0.045900
H53	H	1.043397	-0.517046	-0.070334
H54	H	1.058236	-0.472842	0.115865
H55	H	1.041206	0.342235	-0.000077
O56	O	1.221559	0.059200	0.000029
C57	C	1.122794	0.006375	-0.000021
H58	H	1.146682	-0.040844	0.045743
H59	H	1.035021	0.028546	0.070180
H60	H	1.106815	-0.011293	-0.116021
H61	H	1.301206	0.334511	0.406145
O62	O	1.657556	0.081151	-0.000063
C63	C	1.753872	0.038156	-0.000025
H64	H	1.727325	-0.018788	-0.045808
H65	H	1.842725	0.058202	-0.070215
H66	H	1.769451	0.040287	0.115974
O67	O	0.815079	0.197801	-0.000113
C68	C	0.686710	0.194121	-0.000075
H69	H	0.664024	0.241632	-0.045862
H70	H	0.658998	0.143216	-0.070262
H71	H	0.633307	0.194540	0.115925
O72	O	1.653772	-0.062827	-0.000276
C73	C	1.678947	-0.113611	-0.125480
H74	H	1.630540	-0.100932	-0.213016
H75	H	1.783272	-0.112489	-0.167495
H76	H	1.643387	-0.168477	-0.097174
O77	O	1.646204	-0.364315	-0.000154
C78	C	1.742527	-0.407309	-0.000138
H79	H	1.715975	-0.464253	-0.045916
H80	H	1.831370	-0.387263	-0.070344
H81	H	1.758125	-0.405178	0.115853
H82	H	1.625199	-0.503371	-0.000121
H83	H	1.522028	0.234957	0.354116
O84	O	1.210397	-0.386145	-0.000344
C85	C	1.224517	-0.353043	-0.125544
H86	H	1.300406	-0.378079	-0.213072
H87	H	1.133383	-0.360106	-0.167577
H88	H	1.251178	-0.294177	-0.097226
