data_functionalizedCrystal
_audit_creation_method	'MofGen! by Chris Wilmer'
_symmetry_space_group_name_H-M	'P1'
_symmetry_Int_Tables_number	1
_symmetry_cell_setting	triclinic
loop_
_symmetry_equiv_pos_as_xyz
  x,y,z
_cell_length_a	9.065218
_cell_length_b	10.489716
_cell_length_c	8.140239
_cell_angle_alpha	90.000513
_cell_angle_beta	89.997198
_cell_angle_gamma	84.772511
loop_
_atom_site_label
_atom_site_type_symbol
_atom_site_fract_x
_atom_site_fract_y
_atom_site_fract_z
O1	O	1.959475	0.187045	-0.136601
O2	O	2.459475	0.687045	0.363399
O3	O	1.530115	0.202387	-0.136602
O4	O	2.030115	0.702387	0.363398
O5	O	1.754584	0.009151	-0.136607
O6	O	2.254584	0.509151	0.363393
O7	O	1.735006	0.380280	-0.136596
O8	O	2.235006	0.880280	0.363404
O9	O	1.754571	0.009149	0.136620
O10	O	2.254571	0.509149	0.636620
O11	O	1.530102	0.202385	0.136625
O12	O	2.030102	0.702385	0.636625
O13	O	1.959463	0.187042	0.136626
O14	O	2.459463	0.687042	0.636626
Zn15	Zn	1.744780	0.194713	0.180006
Zn16	Zn	2.244780	0.694713	0.680006
Zn17	Zn	1.744797	0.194716	-0.179982
Zn18	Zn	2.244797	0.694716	0.320018
O19	O	1.734994	0.380278	0.136631
O20	O	2.234994	0.880278	0.636631
C21	C	1.475129	0.200911	0.000011
C22	C	1.975129	0.700911	0.500011
C23	C	1.311308	0.196503	0.000010
C24	C	1.811308	0.696503	0.500010
C25	C	1.753106	-0.038387	0.000001
C26	C	2.253106	0.461613	0.500001
C27	C	1.748706	-0.180034	-0.000014
C28	C	2.248706	0.319966	0.499986
C29	C	1.886357	-0.277211	0.000001
C30	C	2.386357	0.222789	0.500001
C31	C	1.813625	-0.354833	-0.134710
C32	C	2.313625	0.145167	0.365290
C33	C	1.813581	-0.354800	0.134671
C34	C	2.313581	0.145200	0.634671
C35	C	1.676031	-0.255791	-0.134836
C36	C	2.176031	0.244209	0.365164
C37	C	1.676007	-0.255752	0.134665
C38	C	2.176007	0.244248	0.634665
C39	C	1.603174	-0.333325	-0.000079
C40	C	2.103174	0.166675	0.499921
C41	C	2.014448	0.188518	0.000009
C42	C	2.514448	0.688518	0.500009
C43	C	2.178269	0.192927	-0.000001
C44	C	2.678269	0.692927	0.499999
C45	C	1.736471	0.427817	0.000019
C46	C	2.236471	0.927817	0.500019
C47	C	1.740872	0.569464	0.000023
C48	C	2.240872	1.069464	0.500023
N49	N	1.744780	0.194710	0.425689
N50	N	2.244780	0.694710	0.925689
N51	N	1.744809	0.194709	-0.425665
N52	N	2.244809	0.694709	0.074335
H53	H	2.006090	-0.252102	-0.000135
H54	H	2.506090	0.247898	0.499865
H55	H	1.871738	-0.398117	-0.248600
H56	H	2.371738	0.101883	0.251400
H57	H	1.871713	-0.398063	0.248556
H58	H	2.371713	0.101937	0.748556
N59	N	1.452871	-0.364551	-0.000175
N60	N	1.952871	0.135449	0.499825
N61	N	1.425055	-0.479090	0.000910
N62	N	1.925055	0.020910	0.500910
H63	H	1.318905	-0.501148	0.000835
H64	H	1.818905	-0.001148	0.500835
H65	H	1.617945	-0.212444	0.248560
H66	H	2.117945	0.287556	0.748560
H67	H	1.617960	-0.212696	-0.248850
H68	H	2.117960	0.287304	0.251150
