data_functionalizedCrystal
_audit_creation_method	'MofGen! by Chris Wilmer'
_symmetry_space_group_name_H-M	'P1'
_symmetry_Int_Tables_number	1
_symmetry_cell_setting	triclinic
loop_
_symmetry_equiv_pos_as_xyz
  x,y,z
_cell_length_a	19.805407
_cell_length_b	19.805405
_cell_length_c	11.169409
_cell_angle_alpha	89.961958
_cell_angle_beta	90.028745
_cell_angle_gamma	89.973026
loop_
_atom_site_label
_atom_site_type_symbol
_atom_site_fract_x
_atom_site_fract_y
_atom_site_fract_z
Zn1	Zn	1.034760	0.269422	0.678781
Zn2	Zn	1.034663	0.382631	0.478078
Zn3	Zn	0.921566	0.269460	0.478084
Zn4	Zn	0.921535	0.382573	0.678691
O5	O	0.978131	0.326021	0.578408
O6	O	1.129464	0.284448	0.652192
O7	O	1.019633	0.367659	0.310129
O8	O	0.936634	0.174738	0.504747
O9	O	1.129393	0.367622	0.504736
O10	O	1.019798	0.174710	0.652198
O11	O	0.936540	0.284513	0.310133
O12	O	0.826845	0.284456	0.504660
O13	O	0.936583	0.367523	0.846653
O14	O	0.826823	0.367560	0.652045
O15	O	1.019768	0.284391	0.846719
O16	O	1.019603	0.477340	0.504649
O17	O	0.936489	0.477297	0.652039
C18	C	0.802275	0.326006	0.578344
C19	C	0.727043	0.326016	0.578346
C20	C	0.265258	0.369375	0.655108
C21	C	0.335947	0.369374	0.655083
C22	C	0.371281	0.326038	0.578455
C23	C	0.335924	0.282705	0.501840
C24	C	0.265237	0.282710	0.501860
C25	C	0.620997	0.282684	0.501755
C26	C	0.691689	0.282681	0.501743
C27	C	0.691707	0.369348	0.654978
C28	C	0.621020	0.369353	0.654999
C29	C	0.585669	0.326023	0.578379
C30	C	0.509020	0.326026	0.578406
C31	C	0.447928	0.326031	0.578434
C32	C	0.978051	0.501878	0.578360
C33	C	0.978078	0.577109	0.578380
C34	C	1.021397	0.612453	0.501716
C35	C	1.021424	0.683142	0.501747
C36	C	0.978129	0.718485	0.578436
C37	C	0.934808	0.683136	0.655108
C38	C	0.934785	0.612449	0.655082
C39	C	0.934901	0.968209	0.655213
C40	C	0.934926	1.038901	0.655229
C41	C	1.021541	1.038902	0.501877
C42	C	1.021518	0.968215	0.501852
C43	C	0.978200	0.932872	0.578528
C44	C	0.978172	0.856224	0.578495
C45	C	0.978153	0.795132	0.578463
C46	C	1.154674	0.326037	0.578473
C47	C	1.229906	0.326044	0.578501
C48	C	0.978183	0.325946	0.891451
C49	C	0.978205	0.325914	1.024851
C50	C	0.978224	1.149479	0.578497
C51	C	0.978249	1.074247	0.578571
C52	C	0.978118	0.326047	0.266584
C53	C	0.978227	0.325889	0.133184
H54	H	0.364728	0.404660	0.717462
C55	C	0.226393	0.417043	0.739400
H56	H	0.179231	0.410837	0.728450
H57	H	0.237953	0.462508	0.721690
H58	H	0.238013	0.407182	0.820070
C59	C	0.887242	0.929341	0.739531
H60	H	0.861454	0.960516	0.785192
H61	H	0.913100	0.901717	0.791870
H62	H	0.857754	0.901816	0.693540
H63	H	0.364699	0.247423	0.439443
H64	H	0.236454	0.247424	0.439481
H65	H	1.056699	0.711916	0.439319
H66	H	0.720457	0.247389	0.439341
H67	H	0.592223	0.247405	0.439362
C68	C	0.887305	1.077778	0.739601
H69	H	0.861508	1.046606	0.785273
H70	H	0.857834	1.105399	0.693653
H71	H	0.913200	1.105306	0.791946
H72	H	1.056815	1.067687	0.439448
C73	C	0.887182	0.722012	0.739461
H74	H	0.893394	0.769173	0.728488
H75	H	0.897058	0.710382	0.820115
H76	H	0.841705	0.710470	0.721799
C77	C	0.887135	0.573571	0.739414
H78	H	0.861349	0.604742	0.785086
H79	H	0.913006	0.545951	0.791742
H80	H	0.857645	0.546041	0.693439
H81	H	0.592254	0.404639	0.717401
H82	H	1.056771	0.939441	0.439400
H83	H	0.720499	0.404631	0.717363
H84	H	1.056651	0.583682	0.439262
