data_functionalizedCrystal
_audit_creation_method	'MofGen! by Chris Wilmer'
_symmetry_space_group_name_H-M	'P1'
_symmetry_Int_Tables_number	1
_symmetry_cell_setting	triclinic
loop_
_symmetry_equiv_pos_as_xyz
  x,y,z
_cell_length_a	35.277628
_cell_length_b	35.288095
_cell_length_c	35.277682
_cell_angle_alpha	59.997929
_cell_angle_beta	89.998958
_cell_angle_gamma	60.000166
loop_
_atom_site_label
_atom_site_type_symbol
_atom_site_fract_x
_atom_site_fract_y
_atom_site_fract_z
O1	O	-0.323087	-0.271234	0.011271
O2	O	-0.267964	-0.193634	-0.011228
O3	O	-0.267962	-0.271233	0.066395
O4	O	-0.323089	-0.193635	-0.066351
O5	O	-0.204915	-0.334261	0.066394
O6	O	-0.204918	-0.256661	-0.011228
O7	O	-0.260040	-0.334261	0.011271
Cu8	Cu	-0.226722	-0.301216	0.000022
Cu9	Cu	-0.301282	-0.226679	0.000022
O10	O	-0.260043	-0.256662	-0.066351
C11	C	-0.163481	-0.071298	-0.023519
C12	C	-0.186872	-0.024531	-0.020298
C13	C	-0.117860	-0.093995	-0.023838
C14	C	-0.163483	-0.139918	-0.023524
C15	C	-0.186875	-0.166518	-0.020308
C16	C	-0.117862	-0.162510	-0.023843
C17	C	-0.094838	-0.139921	-0.023519
C18	C	-0.044836	-0.166525	-0.020298
C19	C	-0.186401	-0.093991	-0.023843
C20	C	-0.004439	-0.188019	-0.017694
C21	C	-0.205769	0.013252	-0.017695
C22	C	-0.205774	-0.188010	-0.017709
C23	C	0.046241	-0.214983	-0.014429
C24	C	-0.229477	0.060653	-0.014430
C25	C	-0.229483	-0.214971	-0.014450
C26	C	-0.500364	-0.466062	0.034181
C27	C	-0.477341	-0.511990	0.034503
C28	C	-0.431722	-0.466060	0.034178
C29	C	-0.408804	-0.511988	0.034500
C30	C	-0.431721	-0.534685	0.034181
C31	C	-0.477342	-0.443470	0.034500
C32	C	-0.665895	-0.342485	0.021756
C33	C	-0.712772	-0.317221	0.018243
C34	C	-0.736287	-0.338907	0.016481
C35	C	-0.787116	-0.311512	0.012664
C36	C	-0.712921	-0.385861	0.018236
C37	C	-0.666047	-0.411125	0.021755
C38	C	-0.642533	-0.389434	0.023515
C39	C	-0.389805	-0.687746	0.021758
C40	C	-0.368199	-0.731097	0.018245
C41	C	-0.322995	-0.752841	0.016478
C42	C	-0.299567	-0.799839	0.012662
C43	C	-0.299393	-0.731235	0.018230
C44	C	-0.320995	-0.687892	0.021751
C45	C	-0.366205	-0.666148	0.023512
C46	C	-0.389808	-0.342477	0.021744
C47	C	-0.368205	-0.317208	0.018222
C48	C	-0.322998	-0.338892	0.016457
C49	C	-0.299573	-0.311495	0.012637
C50	C	-0.299398	-0.385842	0.018210
C51	C	-0.321003	-0.411107	0.021730
C52	C	-0.366208	-0.389423	0.023501
C53	C	-0.591706	-0.416830	0.027326
C54	C	-0.551191	-0.438667	0.030366
C55	C	-0.408299	-0.438663	0.030360
C56	C	-0.389629	-0.416824	0.027317
C57	C	-0.408298	-0.581682	0.030365
C58	C	-0.389627	-0.619146	0.027325
C59	C	-0.432024	-0.061845	-0.438511
C60	C	-0.477645	-0.015917	-0.461431
C61	C	-0.432025	-0.061844	-0.369869
C62	C	-0.477645	-0.015916	-0.392892
C63	C	-0.500668	0.006779	-0.438513
C64	C	-0.409106	-0.084435	-0.392891
C65	C	-0.320834	-0.185425	-0.480424
C66	C	-0.299076	-0.210690	-0.502029
C67	C	-0.322531	-0.189005	-0.547237
C68	C	-0.298945	-0.216401	-0.570661
C69	C	-0.367745	-0.142051	-0.570839
C70	C	-0.389497	-0.116787	-0.549237
C71	C	-0.366040	-0.138476	-0.504027
C72	C	-0.666200	0.159838	-0.549704
C73	C	-0.713077	0.203188	-0.571462
C74	C	-0.736595	0.224934	-0.548009
C75	C	-0.787423	0.271931	-0.571594
C76	C	-0.713230	0.203329	-0.502796
C77	C	-0.666353	0.159987	-0.481041
C78	C	-0.642841	0.138241	-0.504500
C79	C	-0.320836	-0.185423	-0.204335
C80	C	-0.299080	-0.210691	-0.157455
C81	C	-0.322536	-0.189006	-0.133940
C82	C	-0.298950	-0.216402	-0.083110
C83	C	-0.367748	-0.142056	-0.157305
C84	C	-0.389502	-0.116792	-0.204182
C85	C	-0.366040	-0.138478	-0.227695
C86	C	-0.389632	-0.111079	-0.480604
C87	C	-0.408436	-0.089241	-0.461934
C88	C	-0.408437	-0.089240	-0.319041
C89	C	-0.389634	-0.111078	-0.278525
C90	C	-0.551496	0.053776	-0.462102
C91	C	-0.592011	0.091239	-0.480906
O92	O	0.196122	-0.334274	0.011291
O93	O	0.063378	-0.256674	-0.011208
O94	O	0.140994	-0.334276	0.066414
O95	O	0.118506	-0.256671	-0.066331
O96	O	0.140996	-0.271251	0.066419
O97	O	0.063380	-0.193649	-0.011203
O98	O	0.196124	-0.271249	0.011296
Cu99	Cu	0.129752	-0.226694	0.000047
Cu100	Cu	0.129750	-0.301228	0.000041
O101	O	0.118508	-0.193647	-0.066327
O102	O	-0.260036	0.184774	0.011294
O103	O	-0.204910	0.074561	-0.011204
O104	O	-0.204913	0.074554	0.066418
O105	O	-0.260033	0.184781	-0.066328
O106	O	-0.267961	0.074557	0.066413
O107	O	-0.267958	0.074564	-0.011209
O108	O	-0.323083	0.184777	0.011289
Cu109	Cu	-0.301278	0.129670	0.000040
Cu110	Cu	-0.226716	0.129668	0.000045
O111	O	-0.323081	0.184784	-0.066333
O112	O	-0.936929	0.397535	-0.602582
O113	O	-0.804185	0.287317	-0.547454
O114	O	-0.881802	0.287315	-0.547452
O115	O	-0.859312	0.397537	-0.602584
O116	O	-0.881801	0.287314	-0.610498
O117	O	-0.804183	0.287316	-0.610500
O118	O	-0.936927	0.397533	-0.665628
Cu119	Cu	-0.870555	0.342425	-0.643820
Cu120	Cu	-0.870557	0.342426	-0.569261
O121	O	-0.859310	0.397536	-0.665629
O122	O	-0.267961	-0.271234	-0.665316
O123	O	-0.323086	-0.193638	-0.610192
O124	O	-0.323085	-0.271236	-0.610189
O125	O	-0.267962	-0.193636	-0.665319
O126	O	-0.260038	-0.334264	-0.547142
O127	O	-0.260039	-0.256666	-0.547145
O128	O	-0.204914	-0.334262	-0.602269
Cu129	Cu	-0.226720	-0.301219	-0.568950
Cu130	Cu	-0.301280	-0.226681	-0.643511
O131	O	-0.204915	-0.256664	-0.602272
C132	C	-0.094840	-0.456607	0.293255
C133	C	-0.044837	-0.503376	0.316647
C134	C	-0.117862	-0.433912	0.316174
C135	C	-0.163483	-0.387984	0.224612
C136	C	-0.186875	-0.361381	0.174609
C137	C	-0.186401	-0.365393	0.247634
C138	C	-0.163483	-0.387984	0.293255
C139	C	-0.186874	-0.361382	0.316646
C140	C	-0.117862	-0.433912	0.247635
C141	C	-0.205772	-0.339889	0.335543
C142	C	-0.004440	-0.541160	0.335545
C143	C	-0.205773	-0.339888	0.134212
C144	C	-0.229480	-0.312925	0.359250
C145	C	0.046239	-0.588562	0.359254
C146	C	-0.229481	-0.312924	0.083532
C147	C	0.153295	-0.388013	0.293279
C148	C	0.150076	-0.361413	0.316673
C149	C	0.153614	-0.433940	0.316196
C150	C	0.153297	-0.388008	0.224634
C151	C	0.150079	-0.361403	0.174632
C152	C	0.153616	-0.433935	0.247655
C153	C	0.153293	-0.456633	0.293275
C154	C	0.150072	-0.503401	0.316665
C155	C	0.153617	-0.365420	0.247659
C156	C	0.147469	-0.541185	0.335561
C157	C	0.147474	-0.339922	0.335572
C158	C	0.147479	-0.339908	0.134234
C159	C	0.144204	-0.588587	0.359267
C160	C	0.144211	-0.312962	0.359282
C161	C	0.144218	-0.312942	0.083555
C162	C	-0.163482	-0.139963	0.293267
C163	C	-0.186875	-0.166567	0.316654
C164	C	-0.117861	-0.162559	0.316187
C165	C	-0.163482	-0.071333	0.224628
C166	C	-0.186873	-0.024557	0.174627
C167	C	-0.117860	-0.094033	0.247653
C168	C	-0.094838	-0.139967	0.293272
C169	C	-0.044835	-0.166574	0.316665
C170	C	-0.186401	-0.094030	0.247648
C171	C	-0.004438	-0.188070	0.335563
C172	C	-0.205773	-0.188061	0.335549
C173	C	-0.205771	0.013233	0.134231
C174	C	0.046242	-0.215038	0.359273
C175	C	-0.229482	-0.215026	0.359253
C176	C	-0.229479	0.060643	0.083553
C177	C	0.095627	0.006487	-0.438489
C178	C	0.095306	-0.016206	-0.461409
C179	C	0.095623	-0.062137	-0.369847
C180	C	0.095303	-0.084726	-0.392871
C181	C	0.095625	-0.062133	-0.438492
C182	C	0.095305	-0.016210	-0.392868
C183	C	0.108059	0.159543	-0.480399
C184	C	0.111575	0.202893	-0.502003
C185	C	0.113340	0.224640	-0.547210
C186	C	0.117161	0.271637	-0.570634
C187	C	0.111587	0.203038	-0.570814
C188	C	0.108065	0.159695	-0.549212
C189	C	0.106302	0.137948	-0.504002
C190	C	0.108054	-0.116452	-0.549685
C191	C	0.111568	-0.141562	-0.571444
C192	C	0.113332	-0.188519	-0.547992
C193	C	0.117148	-0.215753	-0.571578
C194	C	0.111577	-0.210363	-0.502779
C195	C	0.108055	-0.185249	-0.481023
C196	C	0.106297	-0.138292	-0.504481
C197	C	0.108046	-0.116473	-0.204312
C198	C	0.111564	-0.141591	-0.157432
C199	C	0.113326	-0.188548	-0.133918
C200	C	0.117142	-0.215786	-0.083088
C201	C	0.111574	-0.210388	-0.157283
C202	C	0.108058	-0.185270	-0.204161
C203	C	0.106290	-0.138308	-0.227673
C204	C	0.102487	0.090947	-0.480580
C205	C	0.099445	0.053484	-0.461911
C206	C	0.099438	-0.089371	-0.319019
C207	C	0.102477	-0.111078	-0.278503
C208	C	0.099442	-0.089362	-0.462081
C209	C	0.102482	-0.111066	-0.480886
O210	O	0.118477	-0.256700	0.452885
O211	O	0.140984	-0.334299	0.397762
O212	O	0.063360	-0.256699	0.397752
O213	O	0.196101	-0.334300	0.452895
O214	O	0.063367	-0.193672	0.334708
O215	O	0.140992	-0.271271	0.334718
O216	O	0.118484	-0.193673	0.389842
Cu217	Cu	0.129739	-0.226717	0.356523
Cu218	Cu	0.129730	-0.301254	0.431080
O219	O	0.196108	-0.271272	0.389852
C220	C	-0.500364	0.533998	-0.438484
C221	C	-0.477341	0.556591	-0.461399
C222	C	-0.431721	0.465364	-0.369840
C223	C	-0.408802	0.488061	-0.392859
C224	C	-0.431720	0.533995	-0.438478
C225	C	-0.477342	0.488064	-0.392865
C226	C	-0.665898	0.588334	-0.480407
C227	C	-0.712776	0.613450	-0.502014
C228	C	-0.736291	0.660414	-0.547220
C229	C	-0.787122	0.687654	-0.570647
C230	C	-0.712926	0.682257	-0.570819
C231	C	-0.666050	0.657138	-0.549214
C232	C	-0.642536	0.610174	-0.504006
C233	C	-0.389802	0.657585	-0.549654
C234	C	-0.368196	0.682850	-0.571408
C235	C	-0.322990	0.661164	-0.547952
C236	C	-0.299561	0.688558	-0.571532
C237	C	-0.299388	0.614205	-0.502740
C238	C	-0.320990	0.588935	-0.480990
C239	C	-0.366202	0.610633	-0.504452
C240	C	-0.389804	0.312282	-0.204314
C241	C	-0.368201	0.268929	-0.157436
C242	C	-0.322993	0.247179	-0.133918
C243	C	-0.299567	0.200174	-0.083089
C244	C	-0.299392	0.268786	-0.157278
C245	C	-0.320998	0.312139	-0.204154
C246	C	-0.366204	0.333881	-0.227670
C247	C	-0.591708	0.582942	-0.480581
C248	C	-0.551193	0.561234	-0.461909
C249	C	-0.408297	0.418359	-0.319013
C250	C	-0.389626	0.380890	-0.278499
C251	C	-0.408296	0.561393	-0.462062
C252	C	-0.389624	0.583232	-0.480862
H253	H	-0.371321	-0.530978	0.035012
C254	C	-0.249325	-0.303954	-0.471849
C255	C	-0.249382	-0.262298	-0.476081
H256	H	-0.218644	-0.335813	-0.455831
H257	H	-0.269108	-0.309648	-0.454983
H258	H	-0.260177	-0.294653	-0.501866
H259	H	-0.238533	-0.271597	-0.446064
H260	H	-0.229591	-0.256604	-0.492948
C261	C	-0.117533	-0.474853	0.394856
C262	C	-0.092910	-0.459569	0.366780
H263	H	-0.102126	-0.490699	0.426098
H264	H	-0.148048	-0.444199	0.384447
H265	H	-0.119115	-0.500036	0.393069
H266	H	-0.091331	-0.434384	0.368564
H267	H	-0.062386	-0.490228	0.377192
C268	C	-0.117534	-0.015668	-0.064504
C269	C	-0.092899	-0.068347	-0.024583
H270	H	-0.102123	0.000167	-0.064976
H271	H	-0.119142	-0.015881	-0.091266
H272	H	-0.148044	0.004438	-0.064338
H273	H	-0.062390	-0.088455	-0.024750
H274	H	-0.091286	-0.068137	0.002187
H275	H	0.113009	-0.248624	-0.138135
H276	H	-0.223884	-0.075035	0.229163
H277	H	-0.223885	-0.074993	-0.024363
H278	H	-0.099376	-0.075038	0.229168
C279	C	-0.737966	0.773658	-0.621555
C280	C	-0.738770	0.733877	-0.620506
H281	H	-0.753918	0.805526	-0.652231
H282	H	-0.752733	0.780615	-0.601090
H283	H	-0.706702	0.761814	-0.612060
H284	H	-0.770035	0.745720	-0.629997
H285	H	-0.724005	0.726921	-0.640978
H286	H	-0.731792	-0.278991	0.016812
H287	H	-0.099381	-0.199518	0.353671
C288	C	-0.122776	-0.429911	0.177694
C289	C	-0.092913	-0.459550	0.222680
H290	H	-0.107372	-0.445737	0.162288
H291	H	-0.149736	-0.429733	0.179284
H292	H	-0.131465	-0.394165	0.160997
H293	H	-0.084226	-0.495296	0.239378
H294	H	-0.065944	-0.459734	0.221092
C295	C	-0.453477	0.649340	-0.546804
C296	C	-0.439494	0.681429	-0.575442
H297	H	-0.484155	0.664062	-0.562723
H298	H	-0.433014	0.614125	-0.539010
H299	H	-0.452749	0.648078	-0.519260
H300	H	-0.440218	0.682687	-0.602985
H301	H	-0.459962	0.716653	-0.583243
C302	C	0.154524	-0.429937	0.177713
C303	C	0.154315	-0.459577	0.222703
H304	H	0.154959	-0.445771	0.162313
H305	H	0.127455	-0.394198	0.161018
H306	H	0.181305	-0.429749	0.179298
H307	H	0.127532	-0.459762	0.221118
H308	H	0.181386	-0.495326	0.239403
C309	C	0.154502	-0.429940	0.382138
C310	C	0.154300	-0.459580	0.366794
H311	H	0.154919	-0.445767	0.413372
H312	H	0.181283	-0.429759	0.380379
H313	H	0.127433	-0.394195	0.363073
H314	H	0.181370	-0.495325	0.385858
H315	H	0.127515	-0.459767	0.368557
C316	C	-0.283555	-0.645571	-0.016775
C317	C	-0.295053	-0.664144	0.023672
H318	H	-0.267542	-0.630906	-0.015592
H319	H	-0.264220	-0.674499	-0.019116
H320	H	-0.311107	-0.618704	-0.043049
H321	H	-0.267500	-0.691014	0.049945
H322	H	-0.314388	-0.635212	0.026018
H323	H	-0.262268	-0.248920	-0.138435
C324	C	0.075939	-0.104854	-0.650303
C325	C	0.113504	-0.117554	-0.621137
H326	H	0.077135	-0.090029	-0.680981
H327	H	0.077493	-0.136409	-0.639451
H328	H	0.047712	-0.079502	-0.650261
H329	H	0.141731	-0.142909	-0.621176
H330	H	0.111954	-0.085994	-0.631991
C331	C	0.094371	-0.149732	-0.322940
C332	C	0.094586	-0.134603	-0.367929
H333	H	0.093921	-0.180518	-0.307547
H334	H	0.121444	-0.157761	-0.306236
H335	H	0.067595	-0.121180	-0.324527
H336	H	0.121364	-0.163154	-0.366341
H337	H	0.067510	-0.126576	-0.384636
H338	H	-0.387416	0.721084	-0.608218
H339	H	-0.495827	-0.530983	0.035020
H340	H	0.154133	-0.328462	0.229178
H341	H	-0.732378	0.221040	-0.483702
H342	H	-0.496124	0.003081	-0.498917
C343	C	-0.547285	-0.378443	0.035395
C344	C	-0.502294	-0.393577	0.035190
H345	H	-0.562687	-0.347643	0.035823
H346	H	-0.563977	-0.370437	0.008329
H347	H	-0.545703	-0.406985	0.062180
H348	H	-0.503876	-0.365036	0.008404
H349	H	-0.485598	-0.401580	0.062260
H350	H	-0.223883	-0.328432	0.229146
H351	H	-0.387425	-0.278978	0.016792
H352	H	-0.099380	-0.199466	-0.024359
H353	H	-0.426308	-0.078556	-0.568458
H354	H	0.094791	0.002793	-0.498893
C355	C	0.094393	0.054618	-0.397769
C356	C	0.094601	0.009432	-0.367915
H357	H	0.093954	0.070448	-0.382364
H358	H	0.121464	0.044247	-0.406445
H359	H	0.067615	0.079807	-0.424741
H360	H	0.121381	-0.015759	-0.340944
H361	H	0.067527	0.019801	-0.359232
H362	H	-0.647059	0.142138	-0.568809
C363	C	-0.455657	-0.272086	0.021389
C364	C	-0.439501	-0.318635	0.023679
H365	H	-0.486338	-0.257366	0.022578
H366	H	-0.435935	-0.280636	0.046872
H367	H	-0.455664	-0.246683	-0.006842
H368	H	-0.439491	-0.344039	0.051912
H369	H	-0.459229	-0.310086	-0.001806
C370	C	-0.670446	-0.272121	0.021446
C371	C	-0.640045	-0.318657	0.023716
H372	H	-0.654483	-0.257419	0.022664
H373	H	-0.695842	-0.246704	-0.006786
H374	H	-0.681626	-0.280684	0.046927
H375	H	-0.628868	-0.310094	-0.001767
H376	H	-0.614641	-0.344079	0.051951
C377	C	0.111190	-0.071060	-0.162291
C378	C	0.113486	-0.117583	-0.131752
H379	H	0.112371	-0.056235	-0.146437
H380	H	0.136674	-0.079672	-0.173453
H381	H	0.082961	-0.045717	-0.187689
H382	H	0.141716	-0.142927	-0.106355
H383	H	0.087999	-0.108972	-0.120582
C384	C	-0.784847	-0.377608	0.012840
C385	C	-0.738768	-0.409697	0.016300
H386	H	-0.800803	-0.392324	0.011642
H387	H	-0.785381	-0.376350	0.039120
H388	H	-0.799609	-0.342387	-0.014594
H389	H	-0.724005	-0.444917	0.043735
H390	H	-0.738232	-0.410961	-0.009983
C391	C	0.064494	-0.023280	-0.267602
C392	C	0.106107	-0.064857	-0.230157
H393	H	0.063298	0.008585	-0.283556
H394	H	0.062948	-0.032692	-0.288222
H395	H	0.039014	-0.017531	-0.256420
H396	H	0.131587	-0.070609	-0.241339
H397	H	0.107658	-0.055443	-0.209533
C398	C	-0.594257	0.649180	-0.546639
C399	C	-0.640368	0.681146	-0.575151
H400	H	-0.578403	0.664002	-0.562654
H401	H	-0.593662	0.647908	-0.519094
H402	H	-0.579434	0.613953	-0.538841
H403	H	-0.655192	0.716373	-0.582947
H404	H	-0.640966	0.682424	-0.602705
H405	H	0.106623	0.141841	-0.443588
H406	H	0.113004	0.220477	-0.482781
C407	C	0.116973	-0.279409	-0.505638
C408	C	0.113512	-0.261976	-0.476997
H409	H	0.118173	-0.311276	-0.489719
H410	H	0.090694	-0.252411	-0.533177
H411	H	0.144406	-0.286370	-0.513434
H412	H	0.086078	-0.255011	-0.469203
H413	H	0.139795	-0.288979	-0.449449
C414	C	0.116996	0.269541	-0.634479
C415	C	0.113532	0.226938	-0.620502
H416	H	0.118202	0.284292	-0.665153
H417	H	0.090715	0.296351	-0.633759
H418	H	0.144427	0.256871	-0.614005
H419	H	0.086100	0.239609	-0.640973
H420	H	0.139816	0.200123	-0.621225
H421	H	-0.647026	-0.449354	0.023185
C422	C	-0.439469	-0.668007	0.065309
C423	C	-0.439496	-0.663846	0.023698
H424	H	-0.470147	-0.653247	0.066503
H425	H	-0.419745	-0.704652	0.090790
H426	H	-0.428504	-0.648936	0.066849
H427	H	-0.450458	-0.682920	0.022160
H428	H	-0.459228	-0.627194	-0.001789
H429	H	0.106637	0.142110	-0.568432
C430	C	-0.438383	-0.726602	0.018606
C431	C	-0.394142	-0.754842	0.016317
H432	H	-0.454399	-0.741261	0.017414
H433	H	-0.435509	-0.729435	0.046833
H434	H	-0.455248	-0.689960	-0.006881
H435	H	-0.377276	-0.791484	0.041806
H436	H	-0.397014	-0.752014	-0.011913
H437	H	-0.262587	-0.403497	0.016771
C438	C	-0.594561	0.093602	-0.417206
C439	C	-0.640671	0.136240	-0.431347
H440	H	-0.578706	0.078945	-0.386527
H441	H	-0.593965	0.066738	-0.417876
H442	H	-0.579737	0.106212	-0.437623
H443	H	-0.655496	0.123630	-0.410932
H444	H	-0.641269	0.163109	-0.430674
C445	C	-0.365634	0.202537	-0.085647
C446	C	-0.394142	0.245180	-0.131758
H447	H	-0.381651	0.187878	-0.069796
H448	H	-0.338091	0.175676	-0.085053
H449	H	-0.357831	0.215142	-0.070819
H450	H	-0.401942	0.232574	-0.146588
H451	H	-0.421694	0.272046	-0.132355
C452	C	0.108392	-0.050963	-0.619749
C453	C	0.106113	-0.064834	-0.575472
H454	H	0.107192	-0.019095	-0.635667
H455	H	0.136619	-0.079167	-0.616936
H456	H	0.082906	-0.045210	-0.636675
H457	H	0.131602	-0.070591	-0.558544
H458	H	0.077884	-0.036623	-0.578283
H459	H	-0.262584	-0.748943	0.016794
H460	H	-0.301784	-0.449335	0.023157
C461	C	-0.542345	0.009973	-0.365607
C462	C	-0.502597	0.009710	-0.367931
H463	H	-0.557746	0.025786	-0.350192
H464	H	-0.562594	0.030086	-0.396129
H465	H	-0.533648	-0.025776	-0.348918
H466	H	-0.511295	0.045460	-0.384623
H467	H	-0.482344	-0.010402	-0.337404
H468	H	-0.495826	0.593550	-0.498882
C469	C	0.108418	-0.255777	-0.415333
C470	C	0.106127	-0.209258	-0.431328
H471	H	0.107232	-0.270602	-0.384651
H472	H	0.082934	-0.247161	-0.435115
H473	H	0.136647	-0.281122	-0.415378
H474	H	0.077896	-0.183912	-0.431286
H475	H	0.131613	-0.217874	-0.411540
H476	H	-0.371622	-0.121391	-0.374409
H477	H	0.106630	-0.203055	-0.223182
H478	H	-0.301727	-0.203079	-0.223479
H479	H	-0.371318	0.469063	-0.374372
H480	H	-0.495832	0.469078	-0.374381
H481	H	-0.426614	0.329984	-0.223458
H482	H	-0.301729	-0.203089	-0.443614
H483	H	-0.646757	0.550094	-0.443598
H484	H	-0.386837	-0.124397	-0.607648
H485	H	-0.731797	0.595663	-0.482796
C486	C	-0.235716	0.622455	-0.505590
C487	C	-0.249696	0.590362	-0.476955
H488	H	-0.205040	0.607737	-0.489669
H489	H	-0.236440	0.623719	-0.533131
H490	H	-0.256185	0.657673	-0.513384
H491	H	-0.229229	0.555144	-0.469163
H492	H	-0.248969	0.589092	-0.449405
C493	C	-0.250808	0.523620	-0.415297
C494	C	-0.295050	0.537323	-0.431296
H495	H	-0.234796	0.491760	-0.384617
H496	H	-0.233942	0.517923	-0.435080
H497	H	-0.253684	0.551884	-0.415339
H498	H	-0.292174	0.509061	-0.431258
H499	H	-0.311920	0.543018	-0.411509
C500	C	-0.250811	0.307639	-0.199293
C501	C	-0.295054	0.335885	-0.229832
H502	H	-0.234794	0.322297	-0.215148
H503	H	-0.253683	0.310465	-0.173897
H504	H	-0.233949	0.270998	-0.188131
H505	H	-0.311918	0.372525	-0.240992
H506	H	-0.292184	0.333064	-0.255237
C507	C	-0.708224	0.198682	-0.637144
C508	C	-0.738760	0.226926	-0.621153
H509	H	-0.724082	0.213334	-0.667820
H510	H	-0.682833	0.201520	-0.637112
H511	H	-0.697053	0.162039	-0.617350
H512	H	-0.749928	0.263568	-0.640946
H513	H	-0.764159	0.224093	-0.621189
C514	C	-0.440168	-0.025479	-0.228977
C515	C	-0.439195	-0.065181	-0.229864
H516	H	-0.470847	0.006384	-0.244834
H517	H	-0.430571	-0.037425	-0.197696
H518	H	-0.419753	-0.018467	-0.243807
H519	H	-0.459608	-0.072197	-0.215031
H520	H	-0.448798	-0.053234	-0.261150
C521	C	-0.364894	-0.150299	-0.085381
C522	C	-0.393533	-0.118214	-0.131460
H523	H	-0.380812	-0.135576	-0.069429
H524	H	-0.357096	-0.185515	-0.070615
H525	H	-0.337352	-0.151556	-0.084851
H526	H	-0.421073	-0.116960	-0.131990
H527	H	-0.401337	-0.082988	-0.146230
C528	C	-0.235714	0.202264	-0.085353
C529	C	-0.249698	0.244880	-0.131430
H530	H	-0.205035	0.187506	-0.069398
H531	H	-0.256176	0.214921	-0.070587
H532	H	-0.236441	0.175459	-0.084826
H533	H	-0.248974	0.271687	-0.131957
H534	H	-0.229230	0.232224	-0.146200
