data_functionalizedCrystal
_audit_creation_method	'MofGen! by Chris Wilmer'
_symmetry_space_group_name_H-M	'P1'
_symmetry_Int_Tables_number	1
_symmetry_cell_setting	triclinic
loop_
_symmetry_equiv_pos_as_xyz
  x,y,z
_cell_length_a	23.532355
_cell_length_b	23.532407
_cell_length_c	8.140239
_cell_angle_alpha	89.992224
_cell_angle_beta	90.004360
_cell_angle_gamma	82.838088
loop_
_atom_site_label
_atom_site_type_symbol
_atom_site_fract_x
_atom_site_fract_y
_atom_site_fract_z
O1	O	0.755276	0.068993	-0.136407
O2	O	0.589409	0.079027	-0.136461
O3	O	0.677344	-0.008923	-0.136402
O4	O	0.667341	0.156943	-0.136466
O5	O	0.677341	-0.008923	0.136825
O6	O	0.589406	0.079027	0.136766
O7	O	0.755274	0.068992	0.136821
Zn8	Zn	0.672339	0.074009	0.180174
Zn9	Zn	0.672343	0.074010	-0.179815
O10	O	0.667338	0.156942	0.136761
C11	C	0.568191	0.078776	0.000146
C12	C	0.504972	0.078022	0.000126
C13	C	0.677088	-0.030139	0.000216
C14	C	0.676322	-0.093356	0.000228
C15	C	0.112957	0.073284	0.149133
C16	C	0.053557	0.072566	0.149140
O17	O	0.022837	0.072175	0.275803
N18	N	0.023850	0.072211	0.000204
C19	C	0.053547	0.072567	-0.148748
O20	O	0.022824	0.072198	-0.275428
C21	C	0.112946	0.073280	-0.148752
C22	C	0.142649	0.073641	0.000193
C23	C	0.142660	0.073644	0.298066
C24	C	0.202055	0.074363	0.298059
C25	C	0.231747	0.074721	0.149118
C26	C	0.202044	0.074360	0.000185
C27	C	0.142641	0.073632	-0.297703
C28	C	0.202044	0.074345	-0.297695
C29	C	0.231748	0.074707	-0.148749
C30	C	0.291131	0.075436	-0.148762
N31	N	0.320838	0.075792	0.000173
C32	C	0.291146	0.075434	0.149114
C33	C	-0.071195	0.071068	-0.148726
C34	C	-0.130593	0.070359	-0.148723
C35	C	-0.130578	0.070357	0.149165
C36	C	-0.071179	0.071070	0.149160
C37	C	-0.041488	0.071423	0.000210
C38	C	0.415880	0.076943	0.149087
C39	C	0.475280	0.077664	0.149067
C40	C	0.475261	0.077663	-0.148820
C41	C	0.415865	0.076945	-0.148801
C42	C	0.386177	0.076583	0.000166
O43	O	0.321889	0.075825	-0.275360
O44	O	0.321877	0.075795	0.275773
C45	C	0.723557	-0.492468	0.000153
C46	C	0.722845	-0.551868	0.000141
O47	O	0.766632	-0.588620	0.000094
N48	N	0.670568	-0.574484	0.000125
C49	C	0.618998	-0.537697	0.000105
O50	O	0.574467	-0.562388	0.000088
C51	C	0.619710	-0.478298	0.000106
C52	C	0.671991	-0.455685	0.000138
C53	C	0.775834	-0.469854	0.000184
C54	C	0.776545	-0.410458	0.000200
C55	C	0.724979	-0.373676	0.000185
C56	C	0.672703	-0.396289	0.000154
C57	C	0.568141	-0.441512	0.000074
C58	C	0.568858	-0.382110	0.000074
C59	C	0.621139	-0.359497	0.000106
C60	C	0.621848	-0.300110	0.000155
N61	N	0.674126	-0.277494	0.000171
C62	C	0.725691	-0.314277	0.000186
C63	C	0.617507	-0.662439	0.000100
C64	C	0.616794	-0.721837	0.000111
C65	C	0.720642	-0.736004	0.000144
C66	C	0.721354	-0.676605	0.000145
C67	C	0.669784	-0.639823	0.000116
C68	C	0.727181	-0.189540	0.000220
C69	C	0.727888	-0.130138	0.000243
C70	C	0.624041	-0.115977	0.000201
C71	C	0.623334	-0.175373	0.000187
C72	C	0.674909	-0.212154	0.000191
O73	O	0.578084	-0.263323	0.000194
O74	O	0.770216	-0.289577	0.000181
C75	C	0.776492	0.069244	0.000210
C76	C	0.839710	0.069998	0.000219
C77	C	0.667594	0.178158	0.000140
C78	C	0.668360	0.241375	0.000117
N79	N	0.672341	0.074009	0.425856
N80	N	0.672346	0.074007	-0.425497
H81	H	0.499462	0.077960	0.270361
H82	H	0.762629	-0.765963	0.000150
H83	H	0.499446	0.077957	-0.270084
H84	H	0.118467	0.073338	-0.418990
H85	H	0.526863	-0.352164	0.000048
H86	H	0.525569	-0.459912	0.000037
H87	H	0.118491	0.073351	0.419358
H88	H	0.226235	0.074653	0.419345
H89	H	0.582057	-0.086018	0.000195
H90	H	0.580762	-0.193785	0.000207
H91	H	0.574222	-0.740243	0.000112
H92	H	0.769178	-0.219481	0.000217
H93	H	0.819117	-0.392053	0.000220
H94	H	-0.154774	0.070074	-0.270009
H95	H	0.391714	0.076654	0.270390
H96	H	-0.046999	0.071365	0.270445
H97	H	0.575510	-0.632494	0.000091
H98	H	0.226216	0.074633	-0.418991
H99	H	-0.047024	0.071361	-0.270027
H100	H	-0.154764	0.070064	0.270441
H101	H	0.391678	0.076660	-0.270084
H102	H	0.770463	-0.111731	0.000274
H103	H	0.817827	-0.499797	0.000191
H104	H	0.763925	-0.658198	0.000170
