data_functionalizedCrystal
_audit_creation_method	'MofGen! by Chris Wilmer'
_symmetry_space_group_name_H-M	'P1'
_symmetry_Int_Tables_number	1
_symmetry_cell_setting	triclinic
loop_
_symmetry_equiv_pos_as_xyz
  x,y,z
_cell_length_a	13.339070
_cell_length_b	17.038272
_cell_length_c	11.804365
_cell_angle_alpha	102.699962
_cell_angle_beta	74.875130
_cell_angle_gamma	103.370425
loop_
_atom_site_label
_atom_site_type_symbol
_atom_site_fract_x
_atom_site_fract_y
_atom_site_fract_z
O1	O	1.396109	0.387847	-0.099077
O2	O	1.097069	0.335421	-0.099069
O3	O	1.244810	0.247434	-0.099063
O4	O	1.248368	0.475834	-0.099082
O5	O	1.205912	0.270565	0.098991
O6	O	1.058171	0.358552	0.098986
O7	O	1.357212	0.410978	0.098978
Cu8	Cu	1.204140	0.386877	0.117066
Cu9	Cu	1.250141	0.359522	-0.117157
O10	O	1.209471	0.498965	0.098972
C11	C	1.039168	0.338131	-0.000041
C12	C	0.924594	0.311734	-0.000037
C13	C	0.577473	0.516981	-0.000073
C14	C	0.685121	0.541784	-0.000080
C15	C	0.744995	0.484274	-0.000069
C16	C	0.697209	0.401956	-0.000052
C17	C	0.589551	0.377149	-0.000054
C18	C	0.757074	0.344442	-0.000050
C19	C	0.709288	0.262124	-0.000033
C20	C	0.601641	0.237322	-0.000034
C21	C	0.541767	0.294832	-0.000046
C22	C	0.864731	0.369249	-0.000048
C23	C	0.876810	0.229417	-0.000029
C24	C	0.769161	0.204614	-0.000022
C25	C	1.222128	0.229169	-0.000036
C26	C	1.212483	0.140282	-0.000036
C27	C	1.301040	0.109396	-0.000037
C28	C	1.291973	0.025875	-0.000048
C29	C	1.194346	-0.026758	-0.000050
C30	C	1.105783	0.004133	-0.000052
C31	C	1.114853	0.087651	-0.000050
C32	C	1.162306	-0.279475	-0.000065
C33	C	1.153243	-0.362998	-0.000064
C34	C	1.339434	-0.341250	-0.000063
C35	C	1.348493	-0.257730	-0.000053
C36	C	1.259932	-0.226848	-0.000062
C37	C	1.185075	-0.112129	-0.000057
C38	C	1.269205	-0.141478	-0.000063
C39	C	1.415113	0.408268	-0.000053
C40	C	1.529688	0.434664	-0.000064
C41	C	1.232153	0.517230	-0.000058
C42	C	1.241800	0.606116	-0.000065
N43	N	1.171793	0.406119	0.281805
N44	N	1.282495	0.340276	-0.281896
C45	C	1.360170	0.294055	0.655761
C46	C	1.384639	0.279495	0.531100
C47	C	1.331430	0.311149	0.468770
C48	C	1.253747	0.357367	0.531113
C49	C	1.229282	0.371933	0.655786
C50	C	1.200541	0.389028	0.468796
C51	C	1.122858	0.435245	0.531139
C52	C	1.098396	0.449809	0.655799
C53	C	1.151606	0.418154	0.718129
C54	C	1.225006	0.374461	0.344123
C55	C	1.094118	0.452340	0.344148
C56	C	1.069649	0.466900	0.468809
H57	H	0.454110	0.274641	-0.000040
H58	H	1.351356	0.299293	0.367266
F59	F	0.718291	0.117007	-0.000005
F60	F	1.020599	0.120521	-0.000052
F61	F	1.433681	-0.374124	-0.000055
F62	F	1.015731	0.499007	0.722150
F63	F	0.859564	0.510674	-0.000074
F64	F	0.735972	0.629388	-0.000103
H65	H	0.925560	0.182587	-0.000025
H66	H	1.348697	-0.098624	-0.000088
H67	H	1.447888	0.241866	0.480345
H68	H	1.403493	0.268291	0.706518
F69	F	0.513749	0.578175	-0.000101
H70	H	1.380536	0.152246	-0.000029
H71	H	1.105587	-0.154992	-0.000056
H72	H	0.562740	0.170292	-0.000034
H73	H	1.364085	0.000733	-0.000047
H74	H	1.288256	0.336832	0.293374
H75	H	1.006398	0.504531	0.519584
H76	H	1.427991	-0.214881	-0.000052
H77	H	1.050791	0.478118	0.293400
F78	F	1.049329	-0.419013	-0.000060
F79	F	1.068050	-0.246619	-0.000078
F80	F	1.125560	0.433646	0.850810
F81	F	0.915576	0.456854	-0.000065
F82	F	1.001884	-0.051887	-0.000067
