data_functionalizedCrystal
_audit_creation_method	'MofGen! by Chris Wilmer'
_symmetry_space_group_name_H-M	'P1'
_symmetry_Int_Tables_number	1
_symmetry_cell_setting	triclinic
loop_
_symmetry_equiv_pos_as_xyz
  x,y,z
_cell_length_a	19.805407
_cell_length_b	29.839131
_cell_length_c	19.805399
_cell_angle_alpha	89.962782
_cell_angle_beta	89.982197
_cell_angle_gamma	90.032545
loop_
_atom_site_label
_atom_site_type_symbol
_atom_site_fract_x
_atom_site_fract_y
_atom_site_fract_z
Zn1	Zn	1.034694	-0.178896	-0.382642
Zn2	Zn	1.534694	0.321104	0.117358
Zn3	Zn	1.034592	-0.254024	-0.269435
Zn4	Zn	1.534592	0.245976	0.230565
Zn5	Zn	0.921509	-0.178905	-0.269470
Zn6	Zn	1.421509	0.321095	0.230530
Zn7	Zn	0.921455	-0.253996	-0.382585
Zn8	Zn	1.421455	0.246004	0.117415
O9	O	0.978062	-0.216455	-0.326033
O10	O	1.478062	0.283545	0.173967
O11	O	1.129397	-0.188870	-0.367634
O12	O	1.629397	0.311130	0.132366
O13	O	1.019571	-0.244074	-0.174723
O14	O	1.519571	0.255926	0.325277
O15	O	0.936589	-0.116036	-0.284522
O16	O	1.436589	0.383964	0.215478
O17	O	1.129322	-0.244065	-0.284461
O18	O	1.629322	0.255935	0.215539
O19	O	1.019745	-0.116030	-0.367668
O20	O	1.519745	0.383970	0.132332
O21	O	0.936489	-0.188885	-0.174749
O22	O	1.436489	0.311115	0.325251
O23	O	0.826785	-0.188858	-0.284466
O24	O	1.326785	0.311142	0.215534
O25	O	0.936497	-0.244019	-0.477309
O26	O	1.436497	0.255981	0.022691
O27	O	0.826745	-0.244027	-0.367571
O28	O	1.326745	0.255973	0.132429
O29	O	1.019693	-0.188843	-0.477351
O30	O	1.519693	0.311157	0.022649
O31	O	1.019518	-0.316887	-0.284406
O32	O	1.519518	0.183113	0.215594
O33	O	0.936397	-0.316867	-0.367537
O34	O	1.436397	0.183133	0.132463
C35	C	0.802206	-0.216441	-0.326017
C36	C	1.302206	0.283559	0.173983
C37	C	0.726974	-0.216446	-0.326026
C38	C	1.226974	0.283554	0.173974
C39	C	0.691670	-0.187756	-0.369400
C40	C	1.191670	0.312244	0.130600
C41	C	0.620982	-0.187758	-0.369402
C42	C	1.120982	0.312242	0.130598
C43	C	0.585599	-0.216453	-0.326034
C44	C	1.085599	0.283547	0.173966
C45	C	0.620908	-0.245144	-0.282655
C46	C	1.120908	0.254856	0.217345
C47	C	0.691595	-0.245139	-0.282650
C48	C	1.191595	0.254861	0.217350
C49	C	0.335835	-0.245164	-0.282676
C50	C	0.835835	0.254836	0.217324
C51	C	0.265143	-0.245168	-0.282686
C52	C	0.765143	0.254832	0.217314
C53	C	0.265221	-0.187784	-0.369429
C54	C	0.765221	0.312216	0.130571
C55	C	0.335908	-0.187779	-0.369423
C56	C	0.835908	0.312221	0.130577
C57	C	0.371211	-0.216468	-0.326042
C58	C	0.871211	0.283532	0.173958
C59	C	0.447860	-0.216464	-0.326039
C60	C	0.947860	0.283536	0.173961
C61	C	0.508952	-0.216459	-0.326040
C62	C	1.008952	0.283541	0.173960
C63	C	0.977959	-0.333178	-0.325976
C64	C	1.477959	0.166822	0.174024
C65	C	0.977977	-0.383112	-0.325974
C66	C	1.477977	0.116888	0.174026
C67	C	1.021353	-0.692717	-0.369390
C68	C	1.521353	-0.192717	0.130610
C69	C	1.021426	-0.880390	-0.369430
C70	C	1.521426	-0.380390	0.130570
O71	O	1.058205	-0.904622	-0.406301
O72	O	1.558205	-0.404622	0.093699
N73	N	0.978177	-0.903897	-0.326108
N74	N	1.478177	-0.403897	0.173892
C75	C	0.934904	-0.880483	-0.282776
C76	C	1.434904	-0.380483	0.217224
O77	O	0.898115	-0.904783	-0.245934
O78	O	1.398115	-0.404783	0.254066
C79	C	0.934828	-0.692811	-0.282740
C80	C	1.434828	-0.192811	0.217260
C81	C	0.978084	-0.669306	-0.326059
C82	C	1.478084	-0.169306	0.173941
C83	C	1.064605	-0.669213	-0.412706
C84	C	1.564605	-0.169213	0.087294
C85	C	1.064589	-0.622297	-0.412693
C86	C	1.564589	-0.122297	0.087307
C87	C	1.021320	-0.598886	-0.369363
C88	C	1.521320	-0.098886	0.130637
C89	C	0.978068	-0.622391	-0.326046
C90	C	1.478068	-0.122391	0.173954
C91	C	0.891551	-0.669397	-0.239412
C92	C	1.391551	-0.169397	0.260588
C93	C	0.891535	-0.622476	-0.239407
C94	C	1.391535	-0.122476	0.260593
C95	C	0.934791	-0.598972	-0.282727
C96	C	1.434791	-0.098972	0.217273
C97	C	0.934783	-0.552064	-0.282703
C98	C	1.434783	-0.052064	0.217297
N99	N	0.978032	-0.528558	-0.326025
N100	N	1.478032	-0.028558	0.173975
C101	C	1.021300	-0.551968	-0.369355
C102	C	1.521300	-0.051968	0.130645
C103	C	0.934948	-0.979013	-0.282798
C104	C	1.434948	-0.479013	0.217202
C105	C	0.934968	-1.025931	-0.282806
C106	C	1.434968	-0.525931	0.217194
C107	C	1.021489	-1.025835	-0.369461
C108	C	1.521489	-0.525835	0.130539
C109	C	1.021472	-0.978917	-0.369449
C110	C	1.521472	-0.478917	0.130551
C111	C	0.978197	-0.955507	-0.326120
C112	C	1.478197	-0.455507	0.173880
C113	C	1.021264	-0.453443	-0.369324
C114	C	1.521264	0.046557	0.130676
C115	C	1.021246	-0.406523	-0.369304
C116	C	1.521246	0.093477	0.130696
C117	C	0.934722	-0.406623	-0.282652
C118	C	1.434722	0.093377	0.217348
C119	C	0.934742	-0.453539	-0.282669
C120	C	1.434742	0.046461	0.217331
C121	C	0.978015	-0.476947	-0.326010
C122	C	1.478015	0.023053	0.173990
O123	O	0.898018	-0.527803	-0.245857
O124	O	1.398018	-0.027803	0.254143
O125	O	1.058073	-0.527660	-0.406202
O126	O	1.558073	-0.027660	0.093798
C127	C	1.021369	-0.739633	-0.369403
C128	C	1.521369	-0.239633	0.130597
C129	C	0.978116	-0.763137	-0.326086
C130	C	1.478116	-0.263137	0.173914
C131	C	0.934848	-0.739726	-0.282756
C132	C	1.434848	-0.239726	0.217244
C133	C	0.978136	-0.810055	-0.326094
C134	C	1.478136	-0.310055	0.173906
C135	C	1.021405	-0.833466	-0.369424
C136	C	1.521405	-0.333466	0.130576
C137	C	1.064654	-0.809959	-0.412746
C138	C	1.564654	-0.309959	0.087254
C139	C	1.064637	-0.763044	-0.412733
C140	C	1.564637	-0.263044	0.087267
C141	C	0.891599	-0.763233	-0.239434
C142	C	1.391599	-0.263233	0.260566
C143	C	0.891619	-0.810149	-0.239450
C144	C	1.391619	-0.310149	0.260550
C145	C	0.934888	-0.833560	-0.282780
C146	C	1.434888	-0.333560	0.217220
C147	C	1.154605	-0.216470	-0.326050
C148	C	1.654605	0.283530	0.173950
C149	C	1.229837	-0.216476	-0.326057
C150	C	1.729837	0.283524	0.173943
C151	C	0.978100	-0.216427	-0.502576
C152	C	1.478100	0.283573	-0.002576
C153	C	0.978117	-0.216415	-0.577808
C154	C	1.478117	0.283585	-0.077808
C155	C	0.978184	-0.099277	-0.326105
C156	C	1.478184	0.400723	0.173895
C157	C	0.978236	-0.049342	-0.326136
C158	C	1.478236	0.450658	0.173864
C159	C	1.021438	-0.187683	-0.613175
C160	C	1.521438	0.312317	-0.113175
C161	C	1.021445	-0.187670	-0.683864
C162	C	1.521445	0.312330	-0.183864
C163	C	0.978133	-0.216391	-0.719184
C164	C	1.478133	0.283609	-0.219184
C165	C	0.934807	-0.245124	-0.683812
C166	C	1.434807	0.254876	-0.183812
C167	C	0.934797	-0.245134	-0.613125
C168	C	1.434797	0.254866	-0.113125
C169	C	0.934845	-0.245082	-0.968885
C170	C	1.434845	0.254918	-0.468885
C171	C	0.934860	-0.245070	-1.039577
C172	C	1.434860	0.254930	-0.539577
C173	C	1.021493	-0.187618	-1.039624
C174	C	1.521493	0.312382	-0.539624
C175	C	1.021483	-0.187628	-0.968937
C176	C	1.521483	0.312372	-0.468937
C177	C	0.978155	-0.216359	-0.933571
C178	C	1.478155	0.283641	-0.433571
C179	C	0.978147	-0.216372	-0.856923
C180	C	1.478147	0.283628	-0.356923
C181	C	0.978144	-0.216381	-0.795831
C182	C	1.478144	0.283619	-0.295831
C183	C	0.978063	-0.216451	-0.150177
C184	C	1.478063	0.283549	0.349823
C185	C	0.978178	-0.216336	-0.074946
C186	C	1.478178	0.283664	0.425054
H187	H	1.056473	-0.387387	-0.404581
H188	H	1.556473	0.112613	0.095419
C189	C	1.069147	-0.156008	-1.078533
C190	C	1.569147	0.343992	-0.578533
N191	N	1.105039	-0.132199	-1.107838
N192	N	1.605039	0.367801	-0.607838
H193	H	1.056754	-0.164242	-0.940183
H194	H	1.556754	0.335758	-0.440183
H195	H	0.364714	-0.164414	-0.404740
H196	H	0.864714	0.335586	0.095260
C197	C	0.887162	-0.479394	-0.235011
C198	C	1.387162	0.020606	0.264989
N199	N	0.851318	-0.498866	-0.199119
N200	N	1.351318	0.001134	0.300881
C201	C	0.887388	-1.051781	-0.235145
C202	C	1.387388	-0.551781	0.264855
N203	N	0.851545	-1.071249	-0.199249
N204	N	1.351545	-0.571249	0.300751
H205	H	0.899540	-0.268508	-0.712575
H206	H	1.399540	0.231492	-0.212575
C207	C	1.112177	-0.596448	-0.460347
C208	C	1.612177	-0.096448	0.039653
N209	N	1.148024	-0.576982	-0.496241
N210	N	1.648024	-0.076982	0.003759
H211	H	0.364570	-0.268525	-0.247353
H212	H	0.864570	0.231475	0.252647
H213	H	1.056723	-0.164275	-0.712656
H214	H	1.556723	0.335725	-0.212656
H215	H	0.592094	-0.268506	-0.247341
H216	H	1.092094	0.231494	0.252659
H217	H	0.592240	-0.164397	-0.404723
H218	H	1.092240	0.335603	0.095277
C219	C	0.887207	-0.276664	-1.078428
C220	C	1.387207	0.223336	-0.578428
N221	N	0.851316	-0.300459	-1.107690
N222	N	1.351316	0.199541	-0.607690
H223	H	0.899575	-0.268483	-0.940099
H224	H	1.399575	0.231517	-0.440099
C225	C	1.068871	-0.479185	-0.416996
C226	C	1.568871	0.020815	0.083004
N227	N	1.104733	-0.498574	-0.452900
N228	N	1.604733	0.001426	0.047100
C229	C	0.843928	-0.596728	-0.191740
C230	C	1.343928	-0.096728	0.308260
N231	N	0.808072	-0.577336	-0.155835
N232	N	1.308072	-0.077336	0.344165
H233	H	0.236469	-0.164422	-0.404749
H234	H	0.736469	0.335578	0.095251
C235	C	0.226223	-0.276732	-0.234970
C236	C	0.726223	0.223268	0.265030
N237	N	0.196908	-0.300504	-0.199030
N238	N	0.696908	0.199496	0.300970
C239	C	0.887142	-0.276742	-0.574221
C240	C	1.387142	0.223258	-0.074221
N241	N	0.851245	-0.300549	-0.544920
N242	N	1.351245	0.199451	-0.044920
H243	H	0.720474	-0.164391	-0.404717
H244	H	1.220474	0.335609	0.095283
H245	H	0.720339	-0.268501	-0.247330
H246	H	1.220339	0.231499	0.252670
H247	H	1.099839	-0.688269	-0.447995
H248	H	1.599839	-0.188269	0.052005
H249	H	1.056695	-0.959782	-0.404724
H250	H	1.556695	-0.459782	0.095276
H251	H	1.056721	-1.044905	-0.404741
H252	H	1.556721	-0.544905	0.095259
H253	H	0.856327	-0.688527	-0.204136
H254	H	1.356327	-0.188527	0.295864
C255	C	0.887331	-0.953268	-0.235136
C256	C	1.387331	-0.453268	0.264864
N257	N	0.851465	-0.933879	-0.199238
N258	N	1.351465	-0.433879	0.300762
C259	C	0.887126	-0.380862	-0.234994
C260	C	1.387126	0.119138	0.265006
N261	N	0.851272	-0.361457	-0.199102
N262	N	1.351272	0.138543	0.300898
H263	H	1.099861	-0.743910	-0.448008
H264	H	1.599861	-0.243910	0.051992
C265	C	1.112248	-0.835720	-0.460410
C266	C	1.612248	-0.335720	0.039590
N267	N	1.148092	-0.855126	-0.496312
N268	N	1.648092	-0.355126	0.003688
H269	H	0.856396	-0.829282	-0.204168
H270	H	1.356396	-0.329282	0.295832
C271	C	0.843989	-0.737488	-0.191773
C272	C	1.343989	-0.237488	0.308227
N273	N	0.808126	-0.718098	-0.155871
N274	N	1.308126	-0.218098	0.344129
C275	C	1.069084	-0.156087	-0.574330
C276	C	1.569084	0.343913	-0.074330
N277	N	1.104970	-0.132286	-0.545073
N278	N	1.604970	0.367714	-0.045073
