data_functionalizedCrystal
_audit_creation_method	'MofGen! by Chris Wilmer'
_symmetry_space_group_name_H-M	'P1'
_symmetry_Int_Tables_number	1
_symmetry_cell_setting	triclinic
loop_
_symmetry_equiv_pos_as_xyz
  x,y,z
_cell_length_a	18.101395
_cell_length_b	18.101398
_cell_length_c	19.805399
_cell_angle_alpha	90.023953
_cell_angle_beta	89.974882
_cell_angle_gamma	89.973629
loop_
_atom_site_label
_atom_site_type_symbol
_atom_site_fract_x
_atom_site_fract_y
_atom_site_fract_z
Zn1	Zn	-0.294940	-1.132118	-0.382810
Zn2	Zn	0.205060	-0.632118	0.117190
Zn3	Zn	-0.418784	-1.132015	-0.269627
Zn4	Zn	0.081216	-0.632015	0.230373
Zn5	Zn	-0.294950	-1.008278	-0.269626
Zn6	Zn	0.205050	-0.508278	0.230374
Zn7	Zn	-0.418734	-1.008228	-0.382765
Zn8	Zn	0.081266	-0.508228	0.117235
O9	O	-0.356852	-1.070160	-0.326207
O10	O	0.143148	-0.570160	0.173793
O11	O	-0.311385	-1.235737	-0.367815
O12	O	0.188615	-0.735737	0.132185
O13	O	-0.402382	-1.115579	-0.174910
O14	O	0.097618	-0.615579	0.325090
O15	O	-0.191316	-1.024770	-0.284659
O16	O	0.308684	-0.524770	0.215341
O17	O	-0.402372	-1.235662	-0.284660
O18	O	0.097628	-0.735662	0.215340
O19	O	-0.191309	-1.115755	-0.367815
O20	O	0.308691	-0.615755	0.132185
O21	O	-0.311402	-1.024670	-0.174910
O22	O	0.188598	-0.524670	0.325090
O23	O	-0.311354	-0.904638	-0.284615
O24	O	0.188646	-0.404638	0.215385
O25	O	-0.402288	-1.024685	-0.477488
O26	O	0.097712	-0.524685	0.022512
O27	O	-0.402298	-0.904602	-0.367738
O28	O	0.097702	-0.404602	0.132262
O29	O	-0.311337	-1.115706	-0.477521
O30	O	0.188663	-0.615706	0.022479
O31	O	-0.522410	-1.115530	-0.284616
O32	O	-0.022410	-0.615530	0.215384
O33	O	-0.522374	-1.024584	-0.367738
O34	O	-0.022374	-0.524584	0.132262
C35	C	-0.549263	-1.070061	-0.326187
C36	C	-0.049263	-0.570061	0.173813
C37	C	-0.631577	-1.070086	-0.326201
C38	C	-0.131577	-0.570086	0.173799
C39	C	-0.356822	-0.877749	-0.326172
C40	C	0.143178	-0.377749	0.173828
C41	C	-0.356827	-0.795435	-0.326173
C42	C	0.143173	-0.295435	0.173827
C43	C	-0.356806	-1.070201	-0.502750
C44	C	0.143194	-0.570201	-0.002750
C45	C	-0.356786	-1.070219	-0.577982
C46	C	0.143214	-0.570219	-0.077982
C47	C	-0.930668	-1.070249	-0.326238
C48	C	-0.430668	-0.570249	0.173762
C49	C	-0.899351	-1.013161	-0.378666
C50	C	-0.399351	-0.513161	0.121334
C51	C	-0.813733	-1.012889	-0.378502
C52	C	-0.313733	-0.512889	0.121498
C53	C	-0.782285	-1.070168	-0.326220
C54	C	-0.282285	-0.570168	0.173780
C55	C	-0.813432	-1.049039	-0.254884
C56	C	-0.313432	-0.549039	0.245116
C57	C	-0.899077	-1.048671	-0.255198
C58	C	-0.399077	-0.548671	0.244802
C59	C	-0.899019	-1.148590	-0.344518
C60	C	-0.399019	-0.648590	0.155482
C61	C	-0.813368	-1.148129	-0.346082
C62	C	-0.313368	-0.648129	0.153918
C63	C	-0.698426	-1.070124	-0.326206
C64	C	-0.198426	-0.570124	0.173794
C65	C	-1.014527	-1.070291	-0.326247
C66	C	-0.514527	-0.570291	0.173753
C67	C	-0.163690	-1.070279	-0.326242
C68	C	0.336310	-0.570279	0.173758
C69	C	-0.081376	-1.070330	-0.326257
C70	C	0.418624	-0.570330	0.173743
C71	C	-0.356883	-1.263322	-0.326243
C72	C	0.143117	-0.763322	0.173757
C73	C	-0.356896	-1.345636	-0.326258
C74	C	0.143104	-0.845636	0.173742
C75	C	-0.356873	-0.496344	-0.326230
C76	C	0.143127	0.003656	0.173770
C77	C	-0.299368	-0.527668	-0.274186
C78	C	0.200632	-0.027668	0.225814
C79	C	-0.299522	-0.613286	-0.273964
C80	C	0.200478	-0.113286	0.226036
C81	C	-0.356850	-0.644727	-0.326201
C82	C	0.143150	-0.144727	0.173799
C83	C	-0.434861	-0.613609	-0.306714
C84	C	0.065139	-0.113609	0.193286
C85	C	-0.434541	-0.527964	-0.306352
C86	C	0.065459	-0.027964	0.193648
C87	C	-0.337046	-0.527958	-0.397883
C88	C	0.162954	-0.027958	0.102117
C89	C	-0.335308	-0.613609	-0.397492
C90	C	0.164692	-0.113609	0.102508
C91	C	-0.356841	-0.728586	-0.326187
C92	C	0.143159	-0.228586	0.173813
C93	C	-0.356887	-0.412485	-0.326243
C94	C	0.143113	0.087515	0.173757
C95	C	-0.309425	-1.117615	-0.613344
C96	C	0.190575	-0.617615	-0.113344
C97	C	-0.309404	-1.117623	-0.684033
C98	C	0.190596	-0.617623	-0.184033
C99	C	-0.356747	-1.070237	-0.719358
C100	C	0.143253	-0.570237	-0.219358
C101	C	-0.404110	-1.022836	-0.683990
C102	C	0.095890	-0.522836	-0.183990
C103	C	-0.404127	-1.022825	-0.613303
C104	C	0.095873	-0.522825	-0.113303
C105	C	-0.404041	-1.022878	-0.969063
C106	C	0.095959	-0.522878	-0.469063
C107	C	-0.404021	-1.022894	-1.039756
C108	C	0.095979	-0.522894	-0.539756
C109	C	-0.309317	-1.117675	-1.039794
C110	C	0.190683	-0.617675	-0.539794
C111	C	-0.309335	-1.117665	-0.969106
C112	C	0.190665	-0.617665	-0.469106
C113	C	-0.356694	-1.070261	-0.933745
C114	C	0.143306	-0.570261	-0.433745
C115	C	-0.356716	-1.070252	-0.857097
C116	C	0.143284	-0.570252	-0.357097
C117	C	-0.356730	-1.070249	-0.796005
C118	C	0.143270	-0.570249	-0.296005
C119	C	-0.356845	-1.070161	-0.150351
C120	C	0.143155	-0.570161	0.349649
C121	C	-0.356656	-1.070287	-0.075120
C122	C	0.143344	-0.570287	0.424880
H123	H	-0.792672	-1.026108	-0.431397
H124	H	-0.292672	-0.526108	0.068603
H125	H	-0.241674	-0.634326	-0.286179
H126	H	0.258326	-0.134326	0.213821
H127	H	-0.281150	-0.506386	-0.415602
H128	H	0.218850	-0.006386	0.084398
H129	H	-0.270840	-1.156219	-0.712822
H130	H	0.229160	-0.656219	-0.212822
H131	H	-0.793008	-1.164063	-0.398582
H132	H	-0.293008	-0.664063	0.101418
H133	H	-0.451357	-0.507952	-0.253969
H134	H	0.048643	-0.007952	0.246031
H135	H	-0.919796	-1.088448	-0.214803
H136	H	-0.419796	-0.588448	0.285197
H137	H	-0.919115	-0.991404	-0.239714
H138	H	-0.419115	-0.491404	0.260286
H139	H	-0.793063	-1.089311	-0.214756
H140	H	-0.293063	-0.589311	0.285244
H141	H	-0.919901	-1.026248	-0.431732
H142	H	-0.419901	-0.526248	0.068268
H143	H	-0.442575	-0.984304	-1.068515
H144	H	0.057425	-0.484304	-0.568515
H145	H	-0.241343	-0.507097	-0.286267
H146	H	0.258657	-0.007097	0.213733
H147	H	-0.920570	-1.167854	-0.395650
H148	H	-0.420570	-0.667854	0.104350
H149	H	-0.793304	-0.954821	-0.366392
H150	H	-0.293304	-0.454821	0.133608
H151	H	-0.920932	-0.955445	-0.366709
H152	H	-0.420932	-0.455445	0.133291
H153	H	-0.277901	-0.633953	-0.412187
H154	H	0.222099	-0.133953	0.087813
H155	H	-0.270785	-1.156253	-0.940349
H156	H	0.229215	-0.656253	-0.440349
H157	H	-0.451968	-0.635024	-0.254897
H158	H	0.048032	-0.135024	0.245103
H159	H	-0.442614	-0.984290	-0.940281
H160	H	0.057386	-0.484290	-0.440281
H161	H	-0.791957	-1.192913	-0.310680
H162	H	-0.291957	-0.692913	0.189320
H163	H	-0.442685	-0.984223	-0.584512
H164	H	0.057315	-0.484223	-0.084512
H165	H	-0.312328	-0.506119	-0.221401
H166	H	0.187672	-0.006119	0.278599
H167	H	-0.312630	-0.633740	-0.220869
H168	H	0.187370	-0.133740	0.279131
H169	H	-0.270752	-1.156271	-1.068593
H170	H	0.229248	-0.656271	-0.568593
H171	H	-0.442655	-0.984252	-0.712757
H172	H	0.057345	-0.484252	-0.212757
H173	H	-0.478838	-0.507241	-0.342605
H174	H	0.021162	-0.007241	0.157395
H175	H	-0.919270	-1.191123	-0.306333
H176	H	-0.419270	-0.691123	0.193667
H177	H	-0.792042	-0.992379	-0.239122
H178	H	-0.292042	-0.492379	0.260878
H179	H	-0.478854	-0.633973	-0.343433
H180	H	0.021146	-0.133973	0.156567
H181	H	-0.374140	-0.635014	-0.438346
H182	H	0.125860	-0.135014	0.061654
H183	H	-0.378930	-0.507701	-0.436660
H184	H	0.121070	-0.007701	0.063340
H185	H	-0.270875	-1.156204	-0.584588
H186	H	0.229125	-0.656204	-0.084588
