data_functionalizedCrystal
_audit_creation_method	'MofGen! by Chris Wilmer'
_symmetry_space_group_name_H-M	'P1'
_symmetry_Int_Tables_number	1
_symmetry_cell_setting	triclinic
loop_
_symmetry_equiv_pos_as_xyz
  x,y,z
_cell_length_a	11.026607
_cell_length_b	10.908878
_cell_length_c	9.482900
_cell_angle_alpha	82.984801
_cell_angle_beta	101.363848
_cell_angle_gamma	84.335404
loop_
_atom_site_label
_atom_site_type_symbol
_atom_site_fract_x
_atom_site_fract_y
_atom_site_fract_z
O1	O	1.528431	0.498728	0.120894
O2	O	1.186931	0.440226	0.120896
O3	O	1.402950	0.293010	0.120889
O4	O	1.312412	0.645943	0.120901
O5	O	1.359040	0.323067	-0.120902
O6	O	1.143022	0.470282	-0.120895
O7	O	1.484521	0.528784	-0.120897
Cu8	Cu	1.309762	0.502278	-0.142974
Cu9	Cu	1.361690	0.466732	0.142972
O10	O	1.268502	0.676000	-0.120891
C11	C	1.121943	0.444461	0.000001
C12	C	0.993722	0.412288	0.000001
C13	C	0.901990	0.501123	0.000005
C14	C	0.769466	0.467873	0.000006
C15	C	1.389457	0.262153	-0.000005
C16	C	1.414656	0.125424	0.000000
C17	C	1.322712	0.055161	0.000003
C18	C	1.348755	-0.086155	0.000008
C19	C	1.549509	0.524548	0.000001
C20	C	1.677732	0.556720	0.000010
C21	C	1.281996	0.706857	0.000007
C22	C	1.256798	0.843584	0.000011
N23	N	1.273247	0.527279	-0.344093
C24	C	1.350913	0.474098	-0.416294
C25	C	1.320539	0.494912	-0.583711
N26	N	1.398216	0.441723	0.344091
H27	H	0.921564	0.601794	0.000000
H28	H	1.224715	0.099628	-0.000005
Br29	Br	1.512100	-0.160246	-0.000007
H30	H	1.487198	0.380775	-0.593787
H31	H	1.439890	0.413154	-0.354169
Br32	Br	0.961107	0.244493	-0.000020
Br33	Br	1.093445	-0.082324	-0.000013
Br34	Br	0.710329	0.724528	-0.000012
H35	H	1.512651	0.080959	-0.000005
H36	H	1.231550	0.555849	-0.645832
H37	H	0.749903	0.367191	0.000040
Br38	Br	1.124930	0.628840	-0.447629
