data_functionalizedCrystal
_audit_creation_method	'MofGen! by Chris Wilmer'
_symmetry_space_group_name_H-M	'P1'
_symmetry_Int_Tables_number	1
_symmetry_cell_setting	triclinic
loop_
_symmetry_equiv_pos_as_xyz
  x,y,z
_cell_length_a	27.731994
_cell_length_b	27.732048
_cell_length_c	26.210047
_cell_angle_alpha	89.999521
_cell_angle_beta	89.997128
_cell_angle_gamma	82.631595
loop_
_atom_site_label
_atom_site_type_symbol
_atom_site_fract_x
_atom_site_fract_y
_atom_site_fract_z
O1	O	0.640948	0.057385	-0.042362
O2	O	0.974282	0.390719	0.290972
O3	O	1.307615	0.724052	0.624305
O4	O	0.500151	0.066158	-0.042379
O5	O	0.833484	0.399491	0.290954
O6	O	1.166818	0.732825	0.624287
O7	O	0.574923	-0.008626	-0.042360
O8	O	0.908256	0.324707	0.290973
O9	O	1.241589	0.658041	0.624306
O10	O	0.566177	0.132169	-0.042381
O11	O	0.899510	0.465503	0.290953
O12	O	1.232844	0.798836	0.624286
O13	O	0.574908	-0.008614	0.042498
O14	O	0.908242	0.324719	0.375831
O15	O	1.241575	0.658052	0.709164
O16	O	0.500137	0.066170	0.042479
O17	O	0.833470	0.399503	0.375812
O18	O	1.166803	0.732837	0.709145
O19	O	0.640934	0.057397	0.042496
O20	O	0.974267	0.390730	0.375830
O21	O	1.307601	0.724064	0.709163
Cu22	Cu	0.570534	0.061784	0.050236
Cu23	Cu	0.903867	0.395118	0.383569
Cu24	Cu	1.237201	0.728451	0.716902
Cu25	Cu	0.570551	0.061771	-0.050119
Cu26	Cu	0.903884	0.395104	0.283215
Cu27	Cu	1.237218	0.728437	0.616548
O28	O	0.566162	0.132181	0.042477
O29	O	0.899496	0.465514	0.375811
O30	O	1.232829	0.798848	0.709144
C31	C	0.482137	0.065984	0.000047
C32	C	0.815470	0.399317	0.333381
C33	C	1.148803	0.732651	0.666714
C34	C	0.428480	0.065442	0.000041
C35	C	0.761814	0.398775	0.333374
C36	C	1.095147	0.732108	0.666708
C37	C	0.095754	0.062032	0.046317
C38	C	0.429087	0.395366	0.379651
C39	C	0.762421	0.728699	0.712984
C40	C	-0.105904	0.059971	0.046324
C41	C	0.227429	0.393304	0.379657
C42	C	0.560762	0.726637	0.712990
O43	O	-0.131984	0.059689	0.085663
O44	O	0.201350	0.393022	0.418996
O45	O	0.534683	0.726355	0.752329
N46	N	-0.131111	0.059708	0.000067
N47	N	0.202222	0.393042	0.333401
N48	N	0.535555	0.726375	0.666734
C49	C	-0.105900	0.059958	-0.046193
C50	C	0.227433	0.393291	0.287140
C51	C	0.560767	0.726625	0.620473
O52	O	-0.131967	0.059683	-0.085537
O53	O	0.201367	0.393016	0.247796
O54	O	0.534700	0.726349	0.581130
C55	C	0.095758	0.062016	-0.046199
C56	C	0.429091	0.395350	0.287134
C57	C	0.762424	0.728683	0.620468
C58	C	0.120961	0.062283	0.000060
C59	C	0.454295	0.395617	0.333393
C60	C	0.787628	0.728950	0.666727
C61	C	0.120958	0.062299	0.092573
C62	C	0.454291	0.395632	0.425906
C63	C	0.787624	0.728966	0.759239
C64	C	0.171369	0.062817	0.092571
C65	C	0.504702	0.396150	0.425904
C66	C	0.838036	0.729484	0.759237
C67	C	0.196576	0.063068	0.046313
C68	C	0.529910	0.396402	0.379647
C69	C	0.863243	0.729735	0.712980
C70	C	0.171372	0.062802	0.000058
C71	C	0.504706	0.396135	0.333391
C72	C	0.838039	0.729468	0.666725
C73	C	0.120968	0.062263	-0.092459
C74	C	0.454302	0.395596	0.240874
C75	C	0.787635	0.728929	0.574207
C76	C	0.171386	0.062776	-0.092457
C77	C	0.504719	0.396109	0.240877
C78	C	0.838053	0.729443	0.574210
C79	C	0.196590	0.063043	-0.046197
C80	C	0.529923	0.396377	0.287136
C81	C	0.863256	0.729710	0.620469
C82	C	0.246991	0.063571	-0.046201
C83	C	0.580324	0.396904	0.287132
C84	C	0.913658	0.730237	0.620466
N85	N	0.272198	0.063833	0.000055
N86	N	0.605531	0.397167	0.333388
N87	N	0.938865	0.730500	0.666722
C88	C	0.246991	0.063582	0.046312
C89	C	0.580324	0.396915	0.379646
C90	C	0.913657	0.730249	0.712979
C91	C	-0.211773	0.058878	-0.046187
C92	C	0.121560	0.392212	0.287146
C93	C	0.454893	0.725545	0.620479
C94	C	-0.262188	0.058365	-0.046186
C95	C	0.071146	0.391698	0.287147
C96	C	0.404479	0.725031	0.620481
C97	C	-0.262188	0.058376	0.046331
C98	C	0.071145	0.391710	0.379665
C99	C	0.404478	0.725043	0.712998
C100	C	-0.211774	0.058894	0.046329
C101	C	0.121560	0.392227	0.379663
C102	C	0.454893	0.725560	0.712996
C103	C	-0.186566	0.059141	0.000069
C104	C	0.146767	0.392474	0.333402
C105	C	0.480100	0.725808	0.666736
C106	C	0.352858	0.064670	0.046305
C107	C	0.686191	0.398004	0.379638
C108	C	1.019524	0.731337	0.712971
C109	C	0.403273	0.065190	0.046298
C110	C	0.736606	0.398524	0.379632
C111	C	1.069940	0.731857	0.712965
C112	C	0.403269	0.065176	-0.046218
C113	C	0.736603	0.398509	0.287115
C114	C	1.069936	0.731843	0.620448
C115	C	0.352858	0.064659	-0.046213
C116	C	0.686191	0.397992	0.287121
C117	C	1.019525	0.731325	0.620454
C118	C	0.327654	0.064404	0.000053
C119	C	0.660987	0.397737	0.333386
C120	C	0.994320	0.731071	0.666720
O121	O	0.273102	0.063848	-0.085520
O122	O	0.606435	0.397181	0.247814
O123	O	0.939769	0.730514	0.581147
O124	O	0.273067	0.063847	0.085650
O125	O	0.606401	0.397180	0.418983
O126	O	0.939734	0.730513	0.752316
C127	C	0.045343	0.061514	0.046319
C128	C	0.378676	0.394848	0.379653
C129	C	0.712009	0.728181	0.712986
C130	C	0.020139	0.061247	0.000064
C131	C	0.353472	0.394581	0.333397
C132	C	0.686806	0.727914	0.666731
C133	C	0.045346	0.061499	-0.046193
C134	C	0.378680	0.394832	0.287140
C135	C	0.712013	0.728165	0.620473
C136	C	-0.030275	0.060734	0.000065
C137	C	0.303058	0.394067	0.333399
C138	C	0.636391	0.727400	0.666732
C139	C	-0.055483	0.060482	0.046323
C140	C	0.277851	0.393816	0.379656
C141	C	0.611184	0.727149	0.712989
C142	C	-0.030276	0.060745	0.092579
C143	C	0.303058	0.394078	0.425912
C144	C	0.636391	0.727412	0.759245
C145	C	0.020135	0.061263	0.092577
C146	C	0.353469	0.394596	0.425910
C147	C	0.686802	0.727930	0.759243
C148	C	0.020139	0.061236	-0.092449
C149	C	0.353473	0.394570	0.240884
C150	C	0.686806	0.727903	0.574217
C151	C	-0.030272	0.060719	-0.092443
C152	C	0.303061	0.394052	0.240890
C153	C	0.636395	0.727385	0.574223
C154	C	-0.055479	0.060468	-0.046186
C155	C	0.277854	0.393801	0.287147
C156	C	0.611187	0.727134	0.620481
C157	C	0.574732	-0.026627	0.000070
C158	C	0.908065	0.306706	0.333403
C159	C	1.241398	0.640040	0.666737
C160	C	0.574179	-0.080282	0.000074
C161	C	0.907512	0.253052	0.333408
C162	C	1.240846	0.586385	0.666741
C163	C	0.614884	-0.419105	0.000053
C164	C	0.948217	-0.085771	0.333387
C165	C	1.281551	0.247562	0.666720
C166	C	0.612833	-0.620764	0.000046
C167	C	0.946166	-0.287431	0.333379
C168	C	1.279499	0.045903	0.666712
O169	O	0.650055	-0.652027	0.000028
O170	O	0.983388	-0.318693	0.333362
O171	O	1.316721	0.014640	0.666695
N172	N	0.568496	-0.639879	0.000041
N173	N	0.901830	-0.306546	0.333374
N174	N	1.235163	0.026788	0.666707
C175	C	0.524670	-0.608576	0.000034
C176	C	0.858003	-0.275242	0.333367
C177	C	1.191336	0.058091	0.666701
O178	O	0.486912	-0.629462	0.000024
O179	O	0.820245	-0.296128	0.333358
O180	O	1.153578	0.037205	0.666691
C181	C	0.526721	-0.406918	0.000038
C182	C	0.860055	-0.073584	0.333371
C183	C	1.193388	0.259749	0.666704
C184	C	0.571061	-0.387805	0.000048
C185	C	0.904394	-0.054472	0.333381
C186	C	1.237727	0.278861	0.666715
C187	C	0.659220	-0.399992	0.000063
C188	C	0.992553	-0.066659	0.333396
C189	C	1.325886	0.266675	0.666730
C190	C	0.659732	-0.349580	0.000068
C191	C	0.993065	-0.016247	0.333401
C192	C	1.326399	0.317086	0.666734
C193	C	0.615908	-0.318281	0.000062
C194	C	0.949242	0.015052	0.333396
C195	C	1.282575	0.348386	0.666729
C196	C	0.571573	-0.337394	0.000053
C197	C	0.904906	-0.004060	0.333386
C198	C	1.238239	0.329273	0.666719
C199	C	0.482895	-0.375615	0.000028
C200	C	0.816228	-0.042282	0.333361
C201	C	1.149562	0.291051	0.666694
C202	C	0.483412	-0.325198	0.000027
C203	C	0.816745	0.008135	0.333361
C204	C	1.150079	0.341468	0.666694
C205	C	0.527751	-0.306086	0.000037
C206	C	0.861084	0.027247	0.333371
C207	C	1.194418	0.360581	0.666704
C208	C	0.528262	-0.255683	0.000052
C209	C	0.861595	0.077651	0.333386
C210	C	1.194928	0.410984	0.666719
N211	N	0.572598	-0.236567	0.000057
N212	N	0.905931	0.096766	0.333391
N213	N	1.239265	0.430099	0.666724
C214	C	0.616421	-0.267867	0.000062
C215	C	0.949755	0.065467	0.333396
C216	C	1.283088	0.398800	0.666729
C217	C	0.523596	-0.714450	0.000033
C218	C	0.856929	-0.381116	0.333366
C219	C	1.190262	-0.047783	0.666700
C220	C	0.523083	-0.764864	0.000033
C221	C	0.856416	-0.431531	0.333366
C222	C	1.189749	-0.098197	0.666700
C223	C	0.611246	-0.777049	0.000044
C224	C	0.944579	-0.443715	0.333377
C225	C	1.277913	-0.110382	0.666711
C226	C	0.611759	-0.726633	0.000048
C227	C	0.945092	-0.393300	0.333381
C228	C	1.278425	-0.059967	0.666714
C229	C	0.567932	-0.695335	0.000038
C230	C	0.901265	-0.362001	0.333372
C231	C	1.234599	-0.028668	0.666705
C232	C	0.617494	-0.161998	0.000073
C233	C	0.950827	0.171336	0.333406
C234	C	1.284161	0.504669	0.666739
C235	C	0.618002	-0.111581	0.000079
C236	C	0.951336	0.221752	0.333413
C237	C	1.284669	0.555086	0.666746
C238	C	0.529839	-0.099401	0.000066
C239	C	0.863173	0.233933	0.333399
C240	C	1.196506	0.567266	0.666733
C241	C	0.529331	-0.149813	0.000062
C242	C	0.862664	0.183520	0.333395
C243	C	1.195997	0.516854	0.666729
C244	C	0.573162	-0.181111	0.000063
C245	C	0.906495	0.152222	0.333397
C246	C	1.239829	0.485556	0.666730
O247	O	0.491060	-0.224391	0.000064
O248	O	0.824393	0.108942	0.333397
O249	O	1.157727	0.442275	0.666731
O250	O	0.654174	-0.246971	0.000061
O251	O	0.987507	0.086362	0.333394
O252	O	1.320841	0.419695	0.666728
C253	C	0.614372	-0.469517	0.000049
C254	C	0.947705	-0.136183	0.333382
C255	C	1.281038	0.197150	0.666715
C256	C	0.570036	-0.488629	0.000039
C257	C	0.903369	-0.155296	0.333372
C258	C	1.236703	0.178037	0.666706
C259	C	0.526213	-0.457330	0.000034
C260	C	0.859546	-0.123997	0.333367
C261	C	1.192879	0.209337	0.666700
C262	C	0.569523	-0.539043	0.000039
C263	C	0.902856	-0.205710	0.333372
C264	C	1.236190	0.127623	0.666706
C265	C	0.613346	-0.570343	0.000044
C266	C	0.946680	-0.237009	0.333377
C267	C	1.280013	0.096324	0.666711
C268	C	0.657683	-0.551228	0.000049
C269	C	0.991016	-0.217894	0.333382
C270	C	1.324349	0.115439	0.666716
C271	C	0.658195	-0.500816	0.000054
C272	C	0.991528	-0.167482	0.333387
C273	C	1.324862	0.165851	0.666720
C274	C	0.481876	-0.476445	0.000029
C275	C	0.815209	-0.143112	0.333362
C276	C	1.148543	0.190222	0.666695
C277	C	0.481367	-0.526857	0.000025
C278	C	0.814701	-0.193524	0.333358
C279	C	1.148034	0.139809	0.666691
C280	C	0.525191	-0.558157	0.000030
C281	C	0.858524	-0.224823	0.333363
C282	C	1.191858	0.108510	0.666696
C283	C	0.658949	0.057571	0.000068
C284	C	0.992282	0.390905	0.333402
C285	C	1.325615	0.724238	0.666735
C286	C	0.712605	0.058114	0.000071
C287	C	1.045938	0.391447	0.333405
C288	C	1.379272	0.724780	0.666738
C289	C	0.566353	0.150182	0.000046
C290	C	0.899687	0.483515	0.333379
C291	C	1.233020	0.816849	0.666712
C292	C	0.566906	0.203837	0.000038
C293	C	0.900239	0.537170	0.333372
C294	C	1.233573	0.870503	0.666705
N295	N	0.570526	0.061794	0.120820
N296	N	0.903859	0.395127	0.454153
N297	N	1.237192	0.728461	0.787486
N298	N	0.570563	0.061757	-0.120703
N299	N	0.903897	0.395091	0.212631
N300	N	1.237230	0.728424	0.545964
C301	C	0.603656	0.028664	0.473342
C302	C	0.936990	0.361997	0.806675
C303	C	1.270323	0.695330	1.140009
C304	C	0.603667	0.028657	0.687001
C305	C	0.937000	0.361990	1.020334
C306	C	1.270334	0.695324	1.353667
O307	O	0.631818	0.000491	0.714630
O308	O	0.965151	0.333824	1.047963
O309	O	1.298484	0.667157	1.381297
N310	N	0.570554	0.061760	0.713714
N311	N	0.903887	0.395093	1.047047
N312	N	1.237220	0.728427	1.380380
C313	C	0.537433	0.094865	0.687008
C314	C	0.870766	0.428198	1.020342
C315	C	1.204100	0.761532	1.353675
O316	O	0.509265	0.123018	0.714632
O317	O	0.842598	0.456351	1.047965
O318	O	1.175932	0.789684	1.381299
C319	C	0.537421	0.094869	0.473351
C320	C	0.870754	0.428202	0.806684
C321	C	1.204087	0.761536	1.140017
C322	C	0.570539	0.061767	0.446641
C323	C	0.903873	0.395100	0.779974
C324	C	1.237206	0.728434	1.113307
C325	C	0.636772	-0.004436	0.446632
C326	C	0.970106	0.328897	0.779965
C327	C	1.303439	0.662231	1.113299
C328	C	0.636771	-0.004432	0.393221
C329	C	0.970104	0.328901	0.726554
C330	C	1.303438	0.662235	1.059887
C331	C	0.603654	0.028671	0.366519
C332	C	0.936987	0.362005	0.699853
C333	C	1.270321	0.695338	1.033186
C334	C	0.570538	0.061771	0.393229
C335	C	0.903871	0.395104	0.726563
C336	C	1.237205	0.728438	1.059896
C337	C	0.504298	0.127971	0.446647
C338	C	0.837631	0.461305	0.779980
C339	C	1.170965	0.794638	1.113313
C340	C	0.504297	0.127969	0.393229
C341	C	0.837630	0.461302	0.726562
C342	C	1.170964	0.794635	1.059896
C343	C	0.537416	0.094867	0.366519
C344	C	0.870749	0.428200	0.699852
C345	C	1.204083	0.761533	1.033186
C346	C	0.537420	0.094878	0.313117
C347	C	0.870753	0.428211	0.646450
C348	C	1.204086	0.761545	0.979783
N349	N	0.570533	0.061775	0.286404
N350	N	0.903867	0.395108	0.619737
N351	N	1.237200	0.728442	0.953070
C352	C	0.603650	0.028672	0.313105
C353	C	0.936984	0.362005	0.646438
C354	C	1.270317	0.695338	0.979772
C355	C	0.537443	0.094861	0.799182
C356	C	0.870776	0.428195	1.132515
C357	C	1.204109	0.761528	1.465848
C358	C	0.537446	0.094861	0.852596
C359	C	0.870780	0.428194	1.185929
C360	C	1.204113	0.761527	1.519263
C361	C	0.603680	0.028652	0.852585
C362	C	0.937013	0.361985	1.185918
C363	C	1.270347	0.695319	1.519251
C364	C	0.603678	0.028655	0.799169
C365	C	0.937012	0.361988	1.132503
C366	C	1.270345	0.695322	1.465836
C367	C	0.570556	0.061758	0.772469
C368	C	0.903889	0.395091	1.105802
C369	C	1.237223	0.728425	1.439136
C370	C	0.603645	0.028682	0.200937
C371	C	0.936979	0.362016	0.534271
C372	C	1.270312	0.695349	0.867604
C373	C	0.603643	0.028690	0.147521
C374	C	0.936976	0.362024	0.480854
C375	C	1.270309	0.695357	0.814188
C376	C	0.537408	0.094897	0.147537
C377	C	0.870741	0.428231	0.480870
C378	C	1.204074	0.761564	0.814204
C379	C	0.537412	0.094891	0.200949
C380	C	0.870745	0.428225	0.534282
C381	C	1.204079	0.761558	0.867615
C382	C	0.570533	0.061780	0.227647
C383	C	0.903866	0.395113	0.560981
C384	C	1.237199	0.728446	0.894314
O385	O	0.509281	0.123026	0.285454
O386	O	0.842614	0.456359	0.618788
O387	O	1.175947	0.789693	0.952121
O388	O	0.631807	0.000516	0.285473
O389	O	0.965140	0.333849	0.618806
O390	O	1.298474	0.667183	0.952139
C391	C	0.603658	0.028660	0.526754
C392	C	0.936991	0.361993	0.860087
C393	C	1.270324	0.695327	1.193420
C394	C	0.570542	0.061760	0.553464
C395	C	0.903875	0.395093	0.886797
C396	C	1.237209	0.728426	1.220130
C397	C	0.537425	0.094863	0.526762
C398	C	0.870758	0.428196	0.860096
C399	C	1.204092	0.761530	1.193429
C400	C	0.570546	0.061759	0.606878
C401	C	0.903879	0.395093	0.940211
C402	C	1.237212	0.728426	1.273545
C403	C	0.603663	0.028656	0.633579
C404	C	0.936996	0.361989	0.966913
C405	C	1.270329	0.695322	1.300246
C406	C	0.636776	-0.004447	0.606866
C407	C	0.970109	0.328886	0.940200
C408	C	1.303443	0.662219	1.273533
C409	C	0.636775	-0.004443	0.553455
C410	C	0.970108	0.328890	0.886788
C411	C	1.303441	0.662223	1.220122
C412	C	0.504311	0.127966	0.553475
C413	C	0.837645	0.461299	0.886808
C414	C	1.170978	0.794633	1.220142
C415	C	0.504316	0.127960	0.606887
C416	C	0.837649	0.461293	0.940220
C417	C	1.170982	0.794627	1.273553
C418	C	0.537433	0.094857	0.633588
C419	C	0.870766	0.428190	0.966921
C420	C	1.204099	0.761523	1.300255
H421	H	-0.050809	0.060543	0.130243
H422	H	0.282525	0.393876	0.463576
H423	H	0.615858	0.727209	0.796910
H424	H	0.694301	-0.485260	0.000062
H425	H	1.027634	-0.151926	0.333395
H426	H	1.360967	0.181407	0.666729
N427	N	0.093775	0.062026	0.142469
N428	N	0.427108	0.395360	0.475802
N429	N	0.760442	0.728693	0.809136
H430	H	0.117443	0.061943	0.171765
H431	H	0.450777	0.395277	0.505099
H432	H	0.784110	0.728610	0.838432
H433	H	0.068937	0.091958	0.144633
H434	H	0.402271	0.425291	0.477966
H435	H	0.735604	0.758625	0.811300
N436	N	0.704947	-0.584995	0.000053
N437	N	1.038281	-0.251662	0.333386
N438	N	1.371614	0.081671	0.666720
H439	H	0.724314	-0.578887	-0.031401
H440	H	1.057647	-0.245554	0.301932
H441	H	1.390981	0.087779	0.635266
H442	H	0.724267	-0.578876	0.031533
H443	H	1.057601	-0.245543	0.364867
H444	H	1.390934	0.087790	0.698200
N445	N	-0.184591	0.059183	0.096222
N446	N	0.148742	0.392516	0.429555
N447	N	0.482075	0.725849	0.762889
H448	H	-0.208215	0.058947	0.125524
H449	H	0.125118	0.392281	0.458857
H450	H	0.458452	0.725614	0.792190
H451	H	-0.159530	0.029418	0.098245
H452	H	0.173803	0.362752	0.431579
H453	H	0.507136	0.696085	0.764912
H454	H	0.445258	-0.542413	0.000021
H455	H	0.778592	-0.209080	0.333354
H456	H	1.111925	0.124253	0.666687
N457	N	0.658515	-0.810810	0.000044
N458	N	0.991848	-0.477477	0.333377
N459	N	1.325181	-0.144144	0.666711
H460	H	0.677875	-0.804705	0.031502
H461	H	1.011208	-0.471372	0.364835
H462	H	1.344542	-0.138039	0.698168
H463	H	0.651418	-0.845632	0.000023
H464	H	0.984751	-0.512299	0.333356
H465	H	1.318085	-0.178966	0.666689
N466	N	0.434607	-0.442690	0.000023
N467	N	0.767940	-0.109357	0.333356
N468	N	1.101274	0.223976	0.666689
H469	H	0.406446	-0.462454	0.000019
H470	H	0.739779	-0.129121	0.333352
H471	H	1.073113	0.204213	0.666686
H472	H	0.432893	-0.421511	0.031483
H473	H	0.766226	-0.088177	0.364816
H474	H	1.099560	0.245156	0.698150
H475	H	0.653186	-0.187475	0.000072
H476	H	0.986519	0.145858	0.333405
H477	H	1.319852	0.479192	0.666739
N478	N	0.659581	-0.706021	0.000055
N479	N	0.992914	-0.372688	0.333388
N480	N	1.326247	-0.039354	0.666722
H481	H	0.661754	-0.685376	0.031513
H482	H	0.995088	-0.352043	0.364846
H483	H	1.328421	-0.018710	0.698179
H484	H	0.687234	-0.733530	0.000041
H485	H	1.020567	-0.400197	0.333374
H486	H	1.353900	-0.066863	0.666708
N487	N	0.047324	0.061503	-0.142344
N488	N	0.380657	0.394837	0.190990
N489	N	0.713991	0.728170	0.524323
H490	H	0.023702	0.061258	-0.171642
H491	H	0.357035	0.394591	0.161691
H492	H	0.690368	0.727924	0.495024
H493	H	0.064094	0.091695	-0.144368
H494	H	0.397427	0.425029	0.188966
H495	H	0.730761	0.758362	0.522299
N496	N	-0.057453	0.060432	-0.142341
N497	N	0.275880	0.393766	0.190993
N498	N	0.609213	0.727099	0.524326
H499	H	-0.033830	0.060668	-0.171642
H500	H	0.299503	0.394002	0.161691
H501	H	0.632837	0.727335	0.495025
H502	H	-0.074220	0.030238	-0.144348
H503	H	0.259113	0.363571	0.188985
H504	H	0.592446	0.696904	0.522318
H505	H	0.630614	0.001735	0.125775
H506	H	0.963947	0.335068	0.459109
H507	H	1.297280	0.668401	0.792442
N508	N	-0.289381	0.058097	0.096223
N509	N	0.043952	0.391431	0.429557
N510	N	0.377286	0.724764	0.762890
H511	H	-0.265680	0.057674	0.125526
H512	H	0.067653	0.391007	0.458860
H513	H	0.400986	0.724340	0.792193
H514	H	-0.313993	0.088193	0.098541
H515	H	0.019340	0.421526	0.431875
H516	H	0.352673	0.754859	0.765208
N517	N	-0.289370	0.058084	-0.096079
N518	N	0.043963	0.391417	0.237254
N519	N	0.377297	0.724751	0.570587
H520	H	-0.265747	0.058320	-0.125381
H521	H	0.067587	0.391653	0.207953
H522	H	0.400920	0.724986	0.541286
H523	H	-0.306141	0.027892	-0.098090
H524	H	0.027192	0.361226	0.235243
H525	H	0.360525	0.694559	0.568577
H526	H	0.663743	-0.031398	0.531712
H527	H	0.997077	0.301935	0.865045
H528	H	1.330410	0.635268	1.198378
N529	N	0.665829	-0.090970	0.000093
N530	N	0.999162	0.242363	0.333426
N531	N	1.332495	0.575696	0.666759
H532	H	0.685016	-0.102406	-0.031363
H533	H	1.018350	0.230927	0.301971
H534	H	1.351683	0.564260	0.635304
H535	H	0.659467	-0.054287	0.000116
H536	H	0.992801	0.279047	0.333449
H537	H	1.326134	0.612380	0.666782
H538	H	0.695837	-0.334024	0.000074
H539	H	1.029171	-0.000691	0.333407
H540	H	1.362504	0.332642	0.666740
N541	N	0.476324	-0.680693	0.000027
N542	N	0.809657	-0.347359	0.333360
N543	N	1.142991	-0.014026	0.666694
H544	H	0.456968	-0.686806	-0.031431
H545	H	0.790301	-0.353472	0.301902
H546	H	1.123635	-0.020139	0.635236
H547	H	0.457000	-0.686821	0.031504
H548	H	0.790334	-0.353488	0.364837
H549	H	1.123667	-0.020155	0.698170
N550	N	0.325678	0.064395	0.096204
N551	N	0.659012	0.397728	0.429538
N552	N	0.992345	0.731062	0.762871
H553	H	0.349346	0.064313	0.125501
H554	H	0.682680	0.397646	0.458834
H555	H	1.016013	0.730980	0.792168
H556	H	0.300839	0.094325	0.098369
H557	H	0.634172	0.427658	0.431703
H558	H	0.967505	0.760992	0.765036
H559	H	-0.191254	0.059079	-0.083860
H560	H	0.142079	0.392413	0.249473
H561	H	0.475412	0.725746	0.582806
N562	N	0.468589	0.163664	0.635690
N563	N	0.801923	0.496997	0.969023
N564	N	1.135256	0.830331	1.302357
H565	H	0.447328	0.145337	0.657849
H566	H	0.780661	0.478671	0.991182
H567	H	1.113995	0.812004	1.324516
H568	H	0.486928	0.184931	0.657825
H569	H	0.820261	0.518264	0.991158
H570	H	1.153594	0.851598	1.324491
N571	N	0.475260	-0.785475	0.000036
N572	N	0.808593	-0.452142	0.333369
N573	N	1.141927	-0.118809	0.666703
H574	H	0.447579	-0.757993	0.000033
H575	H	0.780912	-0.424660	0.333366
H576	H	1.114245	-0.091326	0.666700
H577	H	0.473128	-0.806128	-0.031421
H578	H	0.806461	-0.472794	0.301912
H579	H	1.139794	-0.139461	0.635245
N580	N	0.468569	0.163674	0.364435
N581	N	0.801902	0.497007	0.697768
N582	N	1.135235	0.830340	1.031101
H583	H	0.473876	0.197943	0.373733
H584	H	0.807209	0.531276	0.707066
H585	H	1.140543	0.864609	1.040399
H586	H	0.473607	0.158614	0.326552
H587	H	0.806940	0.491947	0.659885
H588	H	1.140273	0.825280	0.993219
N589	N	0.093793	0.061970	-0.142354
N590	N	0.427126	0.395303	0.190980
N591	N	0.760460	0.728636	0.524313
H592	H	0.117420	0.062202	-0.171653
H593	H	0.450753	0.395536	0.161681
H594	H	0.784086	0.728869	0.495014
H595	H	0.077026	0.031775	-0.144360
H596	H	0.410359	0.365109	0.188973
H597	H	0.743692	0.698442	0.522306
N598	N	0.501700	0.130601	0.229761
N599	N	0.835034	0.463934	0.563094
N600	N	1.168367	0.797267	0.896428
H601	H	0.480723	0.151574	0.204739
H602	H	0.814056	0.484907	0.538072
H603	H	1.147390	0.818241	0.871405
H604	H	0.480468	0.112246	0.251923
H605	H	0.813801	0.445579	0.585256
H606	H	1.147134	0.778913	0.918589
H607	H	0.694908	-0.425472	0.000065
H608	H	1.028241	-0.092138	0.333399
H609	H	1.361575	0.241195	0.666732
H610	H	0.630615	0.001719	0.222669
H611	H	0.963948	0.335053	0.556003
H612	H	1.297282	0.668386	0.889336
H613	H	0.446789	-0.391167	0.000016
H614	H	0.780123	-0.057834	0.333349
H615	H	1.113456	0.275499	0.666683
H616	H	0.630646	0.001698	0.874334
H617	H	0.963979	0.335032	1.207667
H618	H	1.297313	0.668365	1.541000
H619	H	0.447722	-0.299716	0.000019
H620	H	0.781055	0.033617	0.333352
H621	H	1.114389	0.366950	0.666686
H622	H	0.493226	-0.165375	0.000068
H623	H	0.826559	0.167959	0.333401
H624	H	1.159893	0.501292	0.666734
N625	N	0.672490	-0.040137	0.364416
N626	N	1.005824	0.293196	0.697749
N627	N	1.339157	0.626530	1.031082
H628	H	0.693466	-0.061107	0.389443
H629	H	1.026799	0.272227	0.722776
H630	H	1.360133	0.605560	1.056109
H631	H	0.654145	-0.061378	0.342257
H632	H	0.987478	0.271956	0.675590
H633	H	1.320811	0.605289	1.008924
N634	N	0.482574	-0.065638	0.000074
N635	N	0.815908	0.267696	0.333408
N636	N	1.149241	0.601029	0.666741
H637	H	0.489631	-0.030802	0.000080
H638	H	0.822964	0.302532	0.333413
H639	H	1.156298	0.635865	0.666747
H640	H	0.463235	-0.071781	-0.031385
H641	H	0.796568	0.261553	0.301949
H642	H	1.129901	0.594886	0.635282
H643	H	0.477343	0.154922	0.531739
H644	H	0.810676	0.488256	0.865072
H645	H	1.144010	0.821589	1.198406
N646	N	0.501690	0.130601	0.118733
N647	N	0.835023	0.463934	0.452066
N648	N	1.168356	0.797267	0.785399
H649	H	0.506715	0.125575	0.080843
H650	H	0.840049	0.458908	0.414176
H651	H	1.173382	0.792242	0.747509
H652	H	0.467442	0.125254	0.128071
H653	H	0.800775	0.458588	0.461404
H654	H	1.134109	0.791921	0.794738
H655	H	0.191907	0.062977	-0.130128
H656	H	0.525240	0.396311	0.203205
H657	H	0.858574	0.729644	0.536538
N658	N	0.672503	-0.040137	0.475424
N659	N	1.005836	0.293197	0.808758
N660	N	1.339169	0.626530	1.142091
H661	H	0.667202	-0.074408	0.466128
H662	H	1.000535	0.258926	0.799461
H663	H	1.333868	0.592259	1.132794
H664	H	0.706744	-0.034757	0.466101
H665	H	1.040078	0.298576	0.799434
H666	H	1.373411	0.631910	1.132767
N667	N	0.468568	0.163668	0.475445
N668	N	0.801901	0.497001	0.808779
N669	N	1.135235	0.830334	1.142112
H670	H	0.473867	0.197939	0.466148
H671	H	0.807200	0.531273	0.799481
H672	H	1.140533	0.864606	1.132815
H673	H	0.434325	0.158287	0.466130
H674	H	0.767659	0.491621	0.799464
H675	H	1.100992	0.824954	1.132797
H676	H	0.630646	0.001700	0.777425
H677	H	0.963979	0.335034	1.110759
H678	H	1.297313	0.668367	1.444092
H679	H	0.510483	0.121820	0.874340
H680	H	0.843816	0.455154	1.207673
H681	H	1.177150	0.788487	1.541006
H682	H	0.663743	-0.031400	0.628615
H683	H	0.997076	0.301933	0.961949
H684	H	1.330410	0.635267	1.295282
H685	H	0.191886	0.063032	0.130240
H686	H	0.525219	0.396365	0.463573
H687	H	0.858552	0.729698	0.796906
H688	H	0.510470	0.121819	0.777446
H689	H	0.843803	0.455152	1.110779
H690	H	1.177137	0.788486	1.444112
H691	H	0.423791	0.065410	0.083970
H692	H	0.757125	0.398743	0.417303
H693	H	1.090458	0.732076	0.750636
H694	H	0.332335	0.064449	-0.083880
H695	H	0.665668	0.397782	0.249453
H696	H	0.999002	0.731115	0.582786
H697	H	0.040652	0.061481	0.130246
H698	H	0.373985	0.394814	0.463579
H699	H	0.707318	0.728147	0.796912
N700	N	0.430462	0.065447	-0.096108
N701	N	0.763795	0.398781	0.237225
N702	N	1.097129	0.732114	0.570558
H703	H	0.466223	0.065813	-0.089086
H704	H	0.799556	0.399146	0.244247
H705	H	1.132890	0.732480	0.577581
H706	H	0.425798	0.035374	-0.116300
H707	H	0.759131	0.368708	0.217033
H708	H	1.092465	0.702041	0.550366
