data_functionalizedCrystal
_audit_creation_method	'MofGen! by Chris Wilmer'
_symmetry_space_group_name_H-M	'P1'
_symmetry_Int_Tables_number	1
_symmetry_cell_setting	triclinic
loop_
_symmetry_equiv_pos_as_xyz
  x,y,z
_cell_length_a	14.971486
_cell_length_b	10.489716
_cell_length_c	13.448316
_cell_angle_alpha	89.997460
_cell_angle_beta	89.998199
_cell_angle_gamma	84.071632
loop_
_atom_site_label
_atom_site_type_symbol
_atom_site_fract_x
_atom_site_fract_y
_atom_site_fract_z
O1	O	1.187883	0.166224	-0.082568
O2	O	0.927595	0.186130	-0.082594
O3	O	1.063673	-0.009491	-0.082584
O4	O	1.051805	0.361846	-0.082578
O5	O	1.063656	-0.009504	0.082800
O6	O	0.927578	0.186118	0.082789
O7	O	1.187866	0.166212	0.082815
Cu8	Cu	1.057720	0.176164	0.097903
Cu9	Cu	1.057741	0.176178	-0.097682
O10	O	1.051788	0.361834	0.082805
C11	C	0.894257	0.185234	0.000094
C12	C	0.794945	0.182566	0.000084
C13	C	0.738366	0.297488	0.000087
C14	C	0.645053	0.294974	0.000102
C15	C	0.608319	0.177536	0.000106
C16	C	0.664905	0.062605	0.000106
C17	C	0.758217	0.065121	0.000098
C18	C	0.470413	0.057370	0.000120
C19	C	0.377095	0.054854	0.000125
C20	C	0.357249	0.287223	0.000123
C21	C	0.450561	0.289739	0.000115
C22	C	0.507140	0.174807	0.000113
C23	C	1.062773	-0.057019	0.000104
C24	C	1.060105	-0.198619	0.000095
C25	C	1.143552	-0.297259	0.000113
C26	C	1.099465	-0.374104	-0.081432
C27	C	1.099429	-0.374079	0.081623
C28	C	1.016053	-0.273599	-0.081517
C29	C	1.016029	-0.273569	0.081612
C30	C	0.971880	-0.350364	0.000047
C31	C	1.221204	0.167108	0.000125
C32	C	1.320516	0.169776	0.000129
C33	C	1.052688	0.409361	0.000114
C34	C	1.055356	0.550961	0.000117
N35	N	1.057712	0.176153	0.235468
N36	N	1.057756	0.176179	-0.235246
C37	C	1.117987	0.089568	0.287512
C38	C	1.117992	0.089567	0.391616
C39	C	1.057727	0.176158	0.443672
C40	C	0.997446	0.262748	0.391620
C41	C	0.997437	0.262742	0.287519
C42	C	0.997471	0.262756	0.608600
C43	C	0.997481	0.262764	0.712709
C44	C	1.118026	0.089581	0.712697
C45	C	1.118017	0.089575	0.608596
C46	C	1.057737	0.176167	0.556551
H47	H	0.480466	0.385367	0.000102
Cl48	Cl	1.153829	-0.441832	0.188060
H49	H	1.167094	0.019072	0.566212
Cl50	Cl	0.859732	-0.386792	-0.000028
H51	H	0.598990	0.388555	0.000103
Cl52	Cl	0.618726	-0.085032	0.000118
H53	H	1.216137	-0.273423	0.000037
Cl54	Cl	1.193807	-0.019273	0.778128
H55	H	0.311177	0.380805	0.000129
Cl56	Cl	0.921656	0.371593	0.222092
H57	H	1.167072	0.019061	0.433990
Cl58	Cl	0.330917	-0.092784	0.000164
H59	H	1.134699	-0.418001	-0.150367
H60	H	0.804283	-0.028461	0.000095
Cl61	Cl	0.921713	0.371625	0.778143
Cl62	Cl	0.541540	-0.087118	0.000119
H63	H	0.980853	-0.229882	-0.150533
H64	H	0.948381	0.333264	0.566229
Cl65	Cl	1.193758	-0.019292	0.222081
H66	H	0.948372	0.333248	0.434011
Cl67	Cl	0.784535	0.445133	0.000075
Cl68	Cl	0.961697	-0.205724	0.188047
