data_functionalizedCrystal
_audit_creation_method	'MofGen! by Chris Wilmer'
_symmetry_space_group_name_H-M	'P1'
_symmetry_Int_Tables_number	1
_symmetry_cell_setting	triclinic
loop_
_symmetry_equiv_pos_as_xyz
  x,y,z
_cell_length_a	14.971475
_cell_length_b	14.048226
_cell_length_c	14.971486
_cell_angle_alpha	89.992713
_cell_angle_beta	83.611904
_cell_angle_gamma	89.999545
loop_
_atom_site_label
_atom_site_type_symbol
_atom_site_fract_x
_atom_site_fract_y
_atom_site_fract_z
O1	O	-1.186946	0.079142	-0.116520
O2	O	-0.926545	0.079148	-0.130489
O3	O	-1.063725	0.079138	0.006696
O4	O	-1.049766	0.079152	-0.253705
O5	O	-1.063722	-0.079184	0.006707
O6	O	-0.926542	-0.079173	-0.130477
O7	O	-1.186943	-0.079180	-0.116509
Zn8	Zn	-1.056742	-0.104313	-0.123491
Zn9	Zn	-1.056746	0.104282	-0.123506
O10	O	-1.049763	-0.079170	-0.253693
C11	C	-0.893218	-0.000012	-0.129860
C12	C	-0.793921	-0.000010	-0.127993
C13	C	-0.747274	-0.086312	-0.127108
C14	C	-0.653976	-0.086312	-0.125340
C15	C	-0.607324	-0.000010	-0.124463
C16	C	-0.653977	0.086298	-0.125346
C17	C	-0.747275	0.086298	-0.127108
C18	C	-0.459515	0.086293	-0.121675
C19	C	-0.366210	0.086294	-0.119915
C20	C	-0.366215	-0.086317	-0.119907
C21	C	-0.459513	-0.086317	-0.121669
C22	C	-0.506160	-0.000009	-0.122554
C23	C	-1.063099	-0.000023	0.040026
C24	C	-1.061228	-0.000022	0.139323
C25	C	-0.220269	-0.000016	-0.117144
C26	C	-0.319564	-0.000008	-0.119030
N27	N	-1.056749	0.246642	-0.123510
N28	N	-1.056746	-0.246674	-0.123481
C29	C	-1.117606	0.296456	-0.062884
C30	C	-1.117610	0.396114	-0.062881
C31	C	-1.056751	0.445956	-0.123500
C32	C	-0.995892	0.396135	-0.184133
C33	C	-0.995893	0.296479	-0.184139
C34	C	-0.995892	0.603849	-0.184114
C35	C	-0.995889	0.703512	-0.184106
C36	C	-1.117608	0.703484	-0.062856
C37	C	-1.117610	0.603828	-0.062862
C38	C	-1.056749	0.554014	-0.123493
C39	C	-1.050389	-0.000007	-0.287024
C40	C	-1.052260	-0.000002	-0.386321
C41	C	-1.141818	-0.000024	0.196552
C42	C	-1.140055	-0.000015	0.289851
C43	C	-1.057701	-0.000009	0.325920
C44	C	-0.977106	-0.000004	0.268685
C45	C	-0.978870	-0.000007	0.175387
C46	C	-0.973434	-0.000000	0.463147
C47	C	-0.971670	0.000001	0.556451
C48	C	-1.134620	-0.000008	0.577611
C49	C	-1.136384	-0.000011	0.484314
C50	C	-1.055788	-0.000007	0.427084
H51	H	-0.497492	0.156575	-0.122396
C52	C	-0.798589	-0.181246	-0.128077
C53	C	-0.775678	-0.252439	-0.205441
C54	C	-0.826990	-0.347376	-0.206409
C55	C	-0.901214	-0.371118	-0.130013
C56	C	-0.924129	-0.299923	-0.052643
C57	C	-0.872816	-0.204987	-0.051675
H58	H	-0.720729	-0.234865	-0.261999
H59	H	-0.810027	-0.400079	-0.263684
H60	H	-0.939199	-0.441396	-0.130729
H61	H	-0.979077	-0.317497	0.003916
H62	H	-0.889780	-0.152283	0.005600
C63	C	-1.223280	-0.000009	0.640557
C64	C	-1.244471	-0.082219	0.707621
C65	C	-1.333127	-0.082226	0.770569
C66	C	-1.400594	-0.000024	0.766453
C67	C	-1.379405	0.082191	0.699386
C68	C	-1.290748	0.082199	0.636438
H69	H	-1.194526	-0.143075	0.710671
H70	H	-1.348812	-0.143088	0.820217
H71	H	-1.466223	-0.000030	0.813051
H72	H	-1.429349	0.143047	0.696336
H73	H	-1.275063	0.143061	0.586790
H74	H	-0.328231	-0.156593	-0.119187
H75	H	-0.913245	-0.000004	0.128792
H76	H	-0.616002	-0.156588	-0.124604
C77	C	-0.884780	0.000003	0.400191
C78	C	-0.817321	0.082215	0.404274
C79	C	-0.728670	0.082214	0.341317
C80	C	-0.707477	0.000001	0.274277
C81	C	-0.774938	-0.082217	0.270191
C82	C	-0.863589	-0.082215	0.333148
H83	H	-0.833007	0.143079	0.453904
H84	H	-0.678731	0.143078	0.344343
H85	H	-0.641853	0.000001	0.227673
H86	H	-0.759252	-0.143081	0.220561
H87	H	-0.913528	-0.143079	0.330122
C88	C	-0.314888	0.181222	-0.118935
C89	C	-0.337787	0.252401	-0.041556
C90	C	-0.286462	0.347329	-0.040572
C91	C	-0.212239	0.371078	-0.116967
C92	C	-0.189336	0.299897	-0.194352
C93	C	-0.240661	0.204970	-0.195336
H94	H	-0.392735	0.234822	0.015001
H95	H	-0.303417	0.400021	0.016714
H96	H	-0.174245	0.441349	-0.116238
H97	H	-0.134389	0.317476	-0.250909
H98	H	-0.223707	0.152277	-0.252622
C99	C	-0.602662	0.181232	-0.124382
C100	C	-0.548596	0.204962	-0.045565
C101	C	-0.497281	0.299898	-0.044604
C102	C	-0.500033	0.371104	-0.122461
C103	C	-0.554100	0.347375	-0.201283
C104	C	-0.605415	0.252440	-0.202244
H105	H	-0.546558	0.152250	0.012074
H106	H	-0.457257	0.317463	0.013746
H107	H	-0.462046	0.441381	-0.121749
H108	H	-0.556139	0.400088	-0.258922
H109	H	-0.645440	0.234875	-0.260594
H110	H	-0.910052	0.000007	0.298059
C111	C	-0.798591	0.181231	-0.128085
C112	C	-0.795842	0.252426	-0.050237
C113	C	-0.847157	0.347361	-0.051209
C114	C	-0.901222	0.371101	-0.130029
C115	C	-0.903974	0.299904	-0.207883
C116	C	-0.852658	0.204969	-0.206911
H117	H	-0.755818	0.234854	0.008116
H118	H	-0.845120	0.400066	0.006424
H119	H	-0.939209	0.441378	-0.130749
H120	H	-0.943998	0.317477	-0.266236
H121	H	-0.854695	0.152265	-0.264544
H122	H	-1.167160	0.255881	-0.013517
H123	H	-1.167163	0.744048	-0.013488
H124	H	-0.497494	-0.156592	-0.122388
H125	H	-1.167160	0.563247	-0.013497
C126	C	-1.184548	0.450914	0.003810
C127	C	-1.183128	0.437198	0.105693
C128	C	-1.250070	0.492000	0.172386
C129	C	-1.318430	0.560517	0.137195
C130	C	-1.319852	0.574236	0.035307
C131	C	-1.252911	0.519434	-0.031386
H132	H	-1.132522	0.386475	0.131748
H133	H	-1.249016	0.481844	0.247810
H134	H	-1.367984	0.601085	0.186565
H135	H	-1.370459	0.624959	0.009252
H136	H	-1.253964	0.529590	-0.106811
H137	H	-0.946333	0.744089	-0.233470
C138	C	-0.928942	0.548923	-0.250700
C139	C	-0.860704	0.480402	-0.215307
C140	C	-0.793752	0.425414	-0.281836
C141	C	-0.795038	0.438946	-0.383758
C142	C	-0.863278	0.507470	-0.419155
C143	C	-0.930230	0.562459	-0.352626
H144	H	-0.859750	0.470382	-0.139854
H145	H	-0.743236	0.374688	-0.255632
H146	H	-0.745476	0.398240	-0.433006
H147	H	-0.864232	0.517490	-0.494608
H148	H	-0.980746	0.613185	-0.378830
H149	H	-0.946343	0.436723	-0.233495
H150	H	-1.208880	-0.000035	0.167192
C151	C	-0.928948	0.241680	-0.250827
C152	C	-0.928949	0.132063	-0.250840
C153	C	-0.862006	0.077265	-0.317534
C154	C	-0.795060	0.132085	-0.384213
C155	C	-0.795056	0.241708	-0.384202
C156	C	-0.862000	0.296506	-0.317509
H157	H	-0.978509	0.091477	-0.201478
H158	H	-0.862009	-0.003886	-0.317541
H159	H	-0.745504	0.091520	-0.433583
H160	H	-0.745497	0.282295	-0.433565
H161	H	-0.861997	0.377657	-0.317501
C162	C	-1.228708	-0.000021	0.352799
C163	C	-1.296157	-0.082241	0.348713
C164	C	-1.384815	-0.082244	0.411659
C165	C	-1.406024	-0.000028	0.478692
C166	C	-1.338573	0.082198	0.482781
C167	C	-1.249915	0.082202	0.419835
H168	H	-1.280459	-0.143108	0.299089
H169	H	-1.434747	-0.143114	0.408632
H170	H	-1.471654	-0.000031	0.525288
H171	H	-1.354271	0.143065	0.532405
H172	H	-1.199983	0.143072	0.422862
H173	H	-1.203443	-0.000022	0.454950
H174	H	-0.904610	-0.000010	0.585815
