data_functionalizedCrystal
_audit_creation_method	'MofGen! by Chris Wilmer'
_symmetry_space_group_name_H-M	'P1'
_symmetry_Int_Tables_number	1
_symmetry_cell_setting	triclinic
loop_
_symmetry_equiv_pos_as_xyz
  x,y,z
_cell_length_a	10.686285
_cell_length_b	12.759401
_cell_length_c	12.759393
_cell_angle_alpha	89.980324
_cell_angle_beta	85.602987
_cell_angle_gamma	85.632238
loop_
_atom_site_label
_atom_site_type_symbol
_atom_site_fract_x
_atom_site_fract_y
_atom_site_fract_z
Zn1	Zn	-0.502274	1.638403	-0.561967
Zn2	Zn	-0.713314	1.651797	-0.372834
Zn3	Zn	-0.502337	1.462706	-0.386302
Zn4	Zn	-0.713221	1.476190	-0.548481
O5	O	-0.607787	1.557274	-0.467396
O6	O	-0.530281	1.787201	-0.536886
O7	O	-0.685392	1.626675	-0.227596
O8	O	-0.325753	1.474763	-0.420885
O9	O	-0.685331	1.797042	-0.397931
O10	O	-0.325706	1.603847	-0.549945
O11	O	-0.530389	1.487751	-0.237490
O12	O	-0.530299	1.317473	-0.407808
O13	O	-0.685174	1.497746	-0.697296
O14	O	-0.685235	1.327380	-0.526960
O15	O	-0.530192	1.616923	-0.707203
O16	O	-0.889878	1.639751	-0.384854
O17	O	-0.889810	1.510734	-0.513901
C18	C	-0.607765	1.284305	-0.467383
C19	C	-0.607786	1.167530	-0.467400
C20	C	-0.527198	1.107554	-0.539848
C21	C	-0.527210	0.997831	-0.539854
C22	C	-0.688411	1.008070	-0.394961
C23	C	-0.688391	1.117790	-0.394950
C24	C	-0.378478	0.838395	-0.587104
C25	C	-0.297901	0.778416	-0.659568
C26	C	-0.278669	0.812844	-0.763332
C27	C	-0.340033	0.907251	-0.794652
C28	C	-0.420620	0.967224	-0.722193
C29	C	-0.439828	0.932796	-0.618416
C30	C	-0.837125	1.277228	-0.347712
C31	C	-0.917719	1.337204	-0.275257
C32	C	-0.936964	1.302779	-0.171490
C33	C	-0.875622	1.208371	-0.140172
C34	C	-0.795028	1.148395	-0.212627
C35	C	-0.775781	1.182827	-0.316393
C36	C	-0.935628	1.578187	-0.446476
C37	C	-1.075880	1.587230	-0.437561
C38	C	-0.278665	1.536307	-0.488421
C39	C	-0.138413	1.527373	-0.497381
C40	C	-0.607666	1.557345	-0.741437
C41	C	-0.607614	1.557375	-0.858217
C42	C	-0.607809	1.831309	-0.467410
C43	C	-0.607819	1.948086	-0.467416
C44	C	-0.526902	1.619434	-0.918241
C45	C	-0.526848	1.619449	-1.027969
C46	C	-0.688228	1.495342	-1.017639
C47	C	-0.688275	1.495322	-0.907914
C48	C	-0.377973	1.647536	-1.187436
C49	C	-0.297272	1.709612	-1.247462
C50	C	-0.277925	1.810887	-1.213102
C51	C	-0.339298	1.850107	-1.118716
C52	C	-0.420008	1.788037	-1.058694
C53	C	-0.439331	1.686746	-1.093055
C54	C	-0.837151	1.467247	-0.748444
C55	C	-0.917869	1.405181	-0.688420
C56	C	-0.937229	1.303905	-0.722778
C57	C	-0.875878	1.264690	-0.817166
C58	C	-0.795161	1.326756	-0.877190
C59	C	-0.775799	1.428030	-0.842825
C60	C	-0.607816	1.557258	-0.194427
C61	C	-0.607512	1.557408	-0.077670
H62	H	-0.754038	0.967558	-0.335976
H63	H	-1.129647	1.645391	-0.379515
H64	H	-0.323547	1.932580	-1.090752
Br65	Br	-0.417431	1.703646	-0.850799
H66	H	-0.745080	1.071522	-0.187119
Br67	Br	-0.711897	1.273535	-1.005291
H68	H	-1.084654	1.469208	-0.555417
Br69	Br	-0.503300	1.841254	-0.930608
H70	H	-0.212216	1.861430	-1.261984
Br71	Br	-0.313953	0.953957	-0.935491
Br72	Br	-0.503899	1.095338	-0.764688
H73	H	-0.967650	1.414086	-0.300760
Br74	Br	-0.404203	1.510076	-1.234065
H75	H	-0.213060	0.764001	-0.822333
Br76	Br	-1.046806	1.219685	-0.641331
H77	H	-0.247303	1.677669	-1.324312
H78	H	-0.753902	1.444823	-1.058115
H79	H	-0.891646	1.182225	-0.845143
Br80	Br	-0.901754	1.161635	0.000654
Br81	Br	-0.214652	0.650283	-0.617071
Br82	Br	-0.810834	1.604681	-0.701785
Br83	Br	-1.046362	1.384168	-0.073162
Br84	Br	-0.810994	1.323963	-0.488541
H85	H	-0.394116	0.810361	-0.502608
Br86	Br	-0.417803	1.175054	-0.638169
H87	H	-0.967835	1.437124	-0.611570
