data_functionalizedCrystal
_audit_creation_method	'MofGen! by Chris Wilmer'
_symmetry_space_group_name_H-M	'P1'
_symmetry_Int_Tables_number	1
_symmetry_cell_setting	triclinic
loop_
_symmetry_equiv_pos_as_xyz
  x,y,z
_cell_length_a	16.959455
_cell_length_b	16.120444
_cell_length_c	16.959447
_cell_angle_alpha	92.867280
_cell_angle_beta	89.985299
_cell_angle_gamma	92.925987
loop_
_atom_site_label
_atom_site_type_symbol
_atom_site_fract_x
_atom_site_fract_y
_atom_site_fract_z
Zn1	Zn	1.192391	-0.331904	-0.462860
Zn2	Zn	1.185595	-0.471333	-0.337380
Zn3	Zn	1.060218	-0.331937	-0.330699
Zn4	Zn	1.053468	-0.471277	-0.469515
O5	O	1.122918	-0.401613	-0.400113
O6	O	1.302100	-0.350410	-0.446226
O7	O	1.168944	-0.452879	-0.225884
O8	O	1.083420	-0.215266	-0.342649
O9	O	1.297107	-0.452848	-0.354036
O10	O	1.180527	-0.215243	-0.439748
O11	O	1.076830	-0.350465	-0.220976
O12	O	0.948712	-0.350410	-0.349102
O13	O	1.071916	-0.452752	-0.579241
O14	O	0.943753	-0.452783	-0.451089
O15	O	1.173982	-0.350355	-0.574352
O16	O	1.162399	-0.587992	-0.360489
O17	O	1.065326	-0.587951	-0.457568
C18	C	0.917552	-0.401595	-0.400093
C19	C	0.829695	-0.401607	-0.400104
C20	C	0.785823	-0.454866	-0.352029
C21	C	0.791013	-0.348355	-0.448185
C22	C	0.708467	-0.348361	-0.448195
C23	C	0.664595	-0.401620	-0.400120
C24	C	0.703270	-0.454872	-0.352036
C25	C	0.669787	-0.295104	-0.496273
C26	C	0.587236	-0.295108	-0.496284
C27	C	0.543362	-0.348372	-0.448213
C28	C	0.582041	-0.401627	-0.400127
C29	C	0.538170	-0.454885	-0.352052
C30	C	0.576847	-0.508145	-0.303970
C31	C	0.659396	-0.508136	-0.303965
C32	C	0.460813	-0.348381	-0.448218
C33	C	0.455616	-0.454892	-0.352059
C34	C	1.112414	-0.618221	-0.410492
C35	C	1.107993	-0.710887	-0.414959
C36	C	1.146046	-0.921830	-0.377113
C37	C	1.099936	-0.880544	-0.423122
C38	C	1.104420	-0.786138	-0.418579
C39	C	1.141563	-1.016245	-0.381655
C40	C	1.329085	-0.401632	-0.400134
C41	C	1.416941	-0.401640	-0.400143
C42	C	1.122954	-0.401544	-0.606278
C43	C	1.122970	-0.401514	-0.694134
C44	C	1.133484	-0.184158	-0.389711
C45	C	1.137987	-0.091492	-0.385278
C46	C	1.069927	-0.454740	-1.068153
C47	C	1.176209	-0.348113	-1.063057
C48	C	1.176187	-0.348131	-0.980512
C49	C	1.123035	-0.401455	-0.941784
C50	C	1.069905	-0.454761	-0.985601
C51	C	1.229322	-0.294832	-0.936690
C52	C	1.229303	-0.294848	-0.854140
C53	C	1.176146	-0.348168	-0.815409
C54	C	1.123013	-0.401476	-0.859231
C55	C	1.069861	-0.454799	-0.820503
C56	C	1.016724	-0.508103	-0.864323
C57	C	1.016749	-0.508081	-0.946870
C58	C	1.176122	-0.348191	-0.732862
C59	C	1.069839	-0.454820	-0.737950
C60	C	1.122930	-0.401621	-0.194748
C61	C	1.123079	-0.401416	-0.106882
H62	H	0.826739	-0.304990	-0.487322
H63	H	0.705513	-0.251741	-0.535409
H64	H	0.973451	-0.551523	-0.832780
C65	C	0.528587	-0.566726	-0.251088
H66	H	0.563440	-0.598442	-0.222448
H67	H	0.494628	-0.603085	-0.283016
H68	H	0.497925	-0.534785	-0.215165
H69	H	0.555751	-0.251742	-0.535436
H70	H	1.057091	-0.916099	-0.465924
C71	C	0.828364	-0.513444	-0.299140
H72	H	0.883811	-0.505813	-0.306016
H73	H	0.812122	-0.569475	-0.313308
H74	H	0.815412	-0.501171	-0.245461
C75	C	0.958310	-0.566714	-0.995073
H76	H	0.965943	-0.559070	-1.049782
H77	H	0.905789	-0.554515	-0.980967
H78	H	0.967159	-0.622736	-0.984219
C79	C	0.418271	-0.289807	-0.501105
H80	H	0.456222	-0.258090	-0.529737
H81	H	0.387814	-0.253449	-0.469186
H82	H	0.384538	-0.321751	-0.537036
H83	H	1.026662	-0.498136	-1.103835
H84	H	1.188888	-0.886280	-0.334313
C85	C	1.011382	-0.513490	-0.695356
H86	H	0.979748	-0.545236	-0.733278
H87	H	0.978481	-0.481616	-0.661621
H88	H	1.039860	-0.549828	-0.664899
H89	H	0.690895	-0.551495	-0.264817
C90	C	1.234667	-0.289458	-1.105656
H91	H	1.227067	-0.297076	-1.161094
H92	H	1.287182	-0.301658	-1.092712
H93	H	1.225805	-0.233443	-1.089453
H94	H	1.272600	-0.251424	-0.968229
H95	H	1.219387	-0.304794	-0.697188
C96	C	0.407363	-0.513477	-0.299175
H97	H	0.442222	-0.545188	-0.270537
H98	H	0.373405	-0.549840	-0.331100
H99	H	0.376701	-0.481539	-0.263248
C100	C	1.287744	-0.236211	-0.805944
H101	H	1.319398	-0.204447	-0.840833
H102	H	1.320625	-0.268108	-0.775261
H103	H	1.259255	-0.199886	-0.772013
