data_functionalizedCrystal
_audit_creation_method	'MofGen! by Chris Wilmer'
_symmetry_space_group_name_H-M	'P1'
_symmetry_Int_Tables_number	1
_symmetry_cell_setting	triclinic
loop_
_symmetry_equiv_pos_as_xyz
  x,y,z
_cell_length_a	10.685980
_cell_length_b	18.101397
_cell_length_c	10.686551
_cell_angle_alpha	94.411465
_cell_angle_beta	98.408259
_cell_angle_gamma	94.386743
loop_
_atom_site_label
_atom_site_type_symbol
_atom_site_fract_x
_atom_site_fract_y
_atom_site_fract_z
Zn1	Zn	1.995758	-0.165993	0.866672
Zn2	Zn	1.979312	-0.300156	0.654382
Zn3	Zn	1.767182	-0.186605	0.638132
Zn4	Zn	1.783435	-0.300084	0.850293
O5	O	1.881422	-0.238209	0.752370
O6	O	2.171212	-0.175194	0.852167
O7	O	1.937487	-0.293749	0.474593
O8	O	1.797584	-0.080232	0.668502
O9	O	2.159128	-0.273763	0.696198
O10	O	1.965518	-0.065088	0.836409
O11	O	1.781636	-0.210324	0.462654
O12	O	1.591703	-0.210254	0.652620
O13	O	1.825286	-0.273640	1.030099
O14	O	1.603644	-0.293627	0.808494
O15	O	1.981278	-0.175124	1.042133
O16	O	1.953248	-0.403785	0.680316
O17	O	1.809338	-0.403732	0.824251
C18	C	1.551615	-0.254170	0.727017
C19	C	1.410524	-0.261014	0.716201
C20	C	1.881308	-0.430628	0.752300
C21	C	1.881379	-0.512938	0.752321
C22	C	1.881550	-0.812015	0.752450
C23	C	1.971800	-0.780719	0.661606
C24	C	1.972159	-0.695071	0.661887
C25	C	1.881465	-0.663640	0.752385
C26	C	1.928007	-0.686392	0.888967
C27	C	1.928722	-0.772027	0.888490
C28	C	1.744587	-0.788696	0.707848
C29	C	1.745021	-0.703159	0.704913
C30	C	1.881416	-0.579784	0.752356
C31	C	1.881604	-0.895871	0.752487
C32	C	2.212517	-0.222187	0.777822
C33	C	2.353610	-0.215359	0.788669
C34	C	1.906930	-0.222075	1.083462
C35	C	1.917800	-0.215199	1.224554
C36	C	1.881572	-0.045036	0.752470
C37	C	1.881636	0.037283	0.752513
C38	C	1.856086	-0.254224	0.422571
C39	C	1.845462	-0.260879	0.281499
H40	H	1.351305	-0.305340	0.645874
H41	H	1.941851	-0.680027	0.560936
C42	C	1.433586	-0.155477	0.883669
H43	H	1.378963	-0.127750	0.927675
H44	H	1.489561	-0.178684	0.942807
H45	H	1.481567	-0.123044	0.839123
H46	H	1.988057	-0.170830	1.283748
H47	H	1.941743	-0.807280	0.560379
H48	H	2.029142	-0.785779	0.925073
C49	C	1.750559	-0.320817	1.201550
H50	H	1.755449	-0.317727	1.114027
H51	H	1.770742	-0.368637	1.224616
H52	H	1.666924	-0.313055	1.216664
C53	C	2.062236	-0.649058	0.938937
H54	H	2.090103	-0.619597	0.876767
H55	H	2.060466	-0.618333	1.014721
H56	H	2.118959	-0.686222	0.956125
C57	C	2.107816	-0.801772	0.702149
H58	H	2.161722	-0.782654	0.646767
H59	H	2.137949	-0.781267	0.786669
H60	H	2.107687	-0.854392	0.697997
C61	C	2.108926	-0.659311	0.702865
H62	H	2.109615	-0.606783	0.703167
H63	H	2.139989	-0.671882	0.785710
H64	H	2.161553	-0.677197	0.644982
C65	C	1.844551	-0.799516	0.983806
H66	H	1.810079	-0.758346	1.022655
H67	H	1.777449	-0.833696	0.940471
H68	H	1.894220	-0.823453	1.047120
C69	C	1.842538	-0.658467	0.983471
H70	H	1.777559	-0.632618	0.940366
H71	H	1.805213	-0.699660	1.019073
H72	H	1.892116	-0.625878	1.049267
C73	C	1.690067	-0.826396	0.574907
H74	H	1.607385	-0.811582	0.549785
H75	H	1.743613	-0.811982	0.515820
H76	H	1.685556	-0.878888	0.577107
C77	C	1.697851	-0.684037	0.569066
H78	H	1.761034	-0.652100	0.541387
H79	H	1.681353	-0.728465	0.513714
H80	H	1.622072	-0.659731	0.568298
H81	H	1.673328	-0.682268	0.765406
H82	H	1.677217	-0.809012	0.773888
