data_functionalizedCrystal
_audit_creation_method	'MofGen! by Chris Wilmer'
_symmetry_space_group_name_H-M	'P1'
_symmetry_Int_Tables_number	1
_symmetry_cell_setting	triclinic
loop_
_symmetry_equiv_pos_as_xyz
  x,y,z
_cell_length_a	18.101398
_cell_length_b	18.101395
_cell_length_c	10.686551
_cell_angle_alpha	85.593544
_cell_angle_beta	85.597251
_cell_angle_gamma	90.026371
loop_
_atom_site_label
_atom_site_type_symbol
_atom_site_fract_x
_atom_site_fract_y
_atom_site_fract_z
Zn1	Zn	1.164303	-0.262737	-0.713686
Zn2	Zn	1.154684	-0.396102	-0.502675
Zn3	Zn	1.030947	-0.272269	-0.502674
Zn4	Zn	1.040409	-0.386535	-0.713602
O5	O	1.097586	-0.329411	-0.608159
O6	O	1.266661	-0.280443	-0.685731
O7	O	1.130284	-0.387668	-0.326091
O8	O	1.048703	-0.167370	-0.530700
O9	O	1.259594	-0.378426	-0.530702
O10	O	1.146679	-0.160367	-0.685730
O11	O	1.039375	-0.296688	-0.326090
O12	O	0.928567	-0.287411	-0.530618
O13	O	1.064829	-0.362120	-0.890197
O14	O	0.935519	-0.371362	-0.685586
O15	O	1.155854	-0.271166	-0.890259
O16	O	1.139459	-0.498467	-0.530620
O17	O	1.055502	-0.491438	-0.685587
C18	C	0.905172	-0.329383	-0.608093
C19	C	0.822858	-0.329388	-0.608095
C20	C	0.523772	-0.329430	-0.608201
C21	C	0.550720	-0.276303	-0.511175
C22	C	0.636319	-0.276476	-0.510761
C23	C	0.672152	-0.329409	-0.608148
C24	C	0.639396	-0.409059	-0.571817
C25	C	0.553720	-0.408770	-0.571142
C26	C	0.561410	-0.303574	-0.741787
C27	C	0.647028	-0.301870	-0.741058
C28	C	0.756010	-0.329401	-0.608121
C29	C	0.439914	-0.329442	-0.608226
C30	C	1.097485	-0.521823	-0.608122
C31	C	1.097511	-0.604136	-0.608148
C32	C	1.097677	-0.903223	-0.608216
C33	C	1.044997	-0.867496	-0.705960
C34	C	1.044712	-0.781892	-0.705654
C35	C	1.097595	-0.754842	-0.608184
C36	C	1.070469	-0.791990	-0.475189
C37	C	1.070127	-0.877609	-0.475774
C38	C	1.177555	-0.870037	-0.642297
C39	C	1.177226	-0.784254	-0.645213
C40	C	1.097549	-0.670984	-0.608157
C41	C	1.097720	-0.987082	-0.608234
C42	C	1.290750	-0.329438	-0.608226
C43	C	1.373066	-0.329450	-0.608254
C44	C	1.112470	-0.314512	-0.937294
C45	C	1.118813	-0.308164	-1.077552
C46	C	1.097708	-0.136246	-0.608224
C47	C	1.097760	-0.053930	-0.608252
C48	C	1.082802	-0.344197	-0.280305
C49	C	1.076603	-0.350337	-0.140048
H50	H	0.662847	-0.449964	-0.640274
H51	H	1.012483	-0.771926	-0.445804
H52	H	1.159809	-0.267201	-1.131354
O53	O	1.205544	-0.890651	-0.756069
C54	C	1.153332	-0.935462	-0.806613
H55	H	1.095507	-0.923722	-0.762879
H56	H	1.155137	-0.922575	-0.912917
H57	H	1.167133	-0.996322	-0.784916
O58	O	1.201409	-0.754601	-0.761963
C59	C	1.146577	-0.707495	-0.810039
H60	H	1.108933	-0.687970	-0.728795
H61	H	1.174173	-0.657495	-0.866262
H62	H	1.112287	-0.738926	-0.873936
O63	O	1.227004	-0.762231	-0.566333
C64	C	1.190755	-0.719509	-0.475545
H65	H	1.129128	-0.733757	-0.465498
H66	H	1.215295	-0.732086	-0.381183
H67	H	1.198530	-0.658140	-0.506537
H68	H	0.524733	-0.293703	-0.412765
O69	O	0.541035	-0.349697	-0.827889
C70	C	0.493032	-0.405101	-0.767779
H71	H	0.465546	-0.384612	-0.677391
H72	H	0.448678	-0.418214	-0.833102
H73	H	0.526056	-0.457276	-0.744239
H74	H	0.658387	-0.217600	-0.533534
O75	O	0.659777	-0.434545	-0.456528
C76	C	0.703662	-0.380584	-0.408466
H77	H	0.691434	-0.323687	-0.455440
H78	H	0.690278	-0.380478	-0.302485
H79	H	0.764759	-0.393954	-0.428605
O80	O	0.655440	-0.297318	-0.392650
C81	C	0.696685	-0.240047	-0.348142
H82	H	0.683533	-0.185076	-0.400926
H83	H	0.681504	-0.236756	-0.243205
H84	H	0.758369	-0.251998	-0.364304
O85	O	1.224380	-0.898129	-0.557305
C86	C	1.185188	-0.947506	-0.467408
H87	H	1.133968	-0.969045	-0.509068
H88	H	1.222351	-0.996026	-0.440228
H89	H	1.167556	-0.917377	-0.380237
O90	O	1.065794	-0.886713	-0.824024
C91	C	1.007168	-0.924973	-0.870673
H92	H	0.952524	-0.909704	-0.819000
H93	H	1.005285	-0.908942	-0.975644
H94	H	1.016289	-0.987210	-0.855099
O95	O	1.113426	-0.906371	-0.385772
C96	C	1.085200	-0.885541	-0.267018
H97	H	1.023870	-0.871847	-0.270085
H98	H	1.092282	-0.933181	-0.192809
H99	H	1.116622	-0.834754	-0.242132
H100	H	0.986276	-0.890083	-0.683668
O101	O	1.027784	-0.399314	-1.075932
C102	C	1.045351	-0.471687	-1.108053
H103	H	1.106133	-0.473805	-1.144393
H104	H	1.035078	-0.512154	-1.021305
H105	H	1.009046	-0.487625	-1.184432
H106	H	0.531165	-0.217261	-0.533697
H107	H	0.529305	-0.429992	-0.473484
H108	H	1.062378	-0.756381	-0.804267
O109	O	0.974179	-0.758814	-0.678861
C110	C	0.928742	-0.780909	-0.770887
H111	H	0.954829	-0.830229	-0.817396
H112	H	0.871674	-0.797383	-0.724566
H113	H	0.922981	-0.732984	-0.845113
H114	H	1.107367	-0.774997	-0.400377
H115	H	0.536046	-0.450016	-0.638730
O116	O	0.537403	-0.235097	-0.780989
C117	C	0.486140	-0.209506	-0.688233
H118	H	0.495586	-0.239336	-0.592968
H119	H	0.493994	-0.147327	-0.683396
H120	H	0.427389	-0.221161	-0.713329
H121	H	0.668608	-0.243226	-0.768454
O122	O	0.676689	-0.344190	-0.831766
C123	C	0.721052	-0.399866	-0.776788
H124	H	0.702583	-0.410324	-0.672519
H125	H	0.714933	-0.453111	-0.825621
H126	H	0.781512	-0.381184	-0.787769
H127	H	1.011558	-0.898949	-0.446906
