data_functionalizedCrystal
_audit_creation_method	'MofGen! by Chris Wilmer'
_symmetry_space_group_name_H-M	'P1'
_symmetry_Int_Tables_number	1
_symmetry_cell_setting	triclinic
loop_
_symmetry_equiv_pos_as_xyz
  x,y,z
_cell_length_a	18.050590
_cell_length_b	25.639240
_cell_length_c	18.050583
_cell_angle_alpha	89.958294
_cell_angle_beta	89.997453
_cell_angle_gamma	90.021926
loop_
_atom_site_label
_atom_site_type_symbol
_atom_site_fract_x
_atom_site_fract_y
_atom_site_fract_z
Zn1	Zn	1.135293	-0.208284	-0.419554
Zn2	Zn	1.135187	-0.295727	-0.295344
Zn3	Zn	1.011105	-0.208291	-0.295412
Zn4	Zn	1.011051	-0.295674	-0.419526
O5	O	1.073159	-0.251994	-0.357459
O6	O	1.239204	-0.219903	-0.403060
O7	O	1.118706	-0.284154	-0.191428
O8	O	1.027646	-0.135125	-0.311920
O9	O	1.239126	-0.284147	-0.311804
O10	O	1.118887	-0.135120	-0.403126
O11	O	1.027543	-0.219915	-0.191478
O12	O	0.907173	-0.219863	-0.311893
O13	O	1.027553	-0.284056	-0.523455
O14	O	0.907133	-0.284063	-0.403079
O15	O	1.118834	-0.219852	-0.523475
O16	O	1.118653	-0.368885	-0.311777
O17	O	1.027450	-0.368846	-0.403013
C18	C	0.880207	-0.251958	-0.357491
C19	C	0.797661	-0.251956	-0.357522
C20	C	0.598210	-0.286968	-0.406992
C21	C	0.548823	-0.239293	-0.425278
C22	C	0.646531	-0.251985	-0.357486
C23	C	0.548836	-0.299687	-0.339199
C24	C	0.500546	-0.252017	-0.357452
C25	C	0.598231	-0.204284	-0.375808
C26	C	0.598248	-0.264711	-0.289697
C27	C	0.548884	-0.217003	-0.307958
C28	C	0.730629	-0.251967	-0.357507
C29	C	0.416449	-0.252030	-0.357431
C30	C	1.073054	-0.387837	-0.357401
C31	C	1.073077	-0.445951	-0.357401
C32	C	1.120691	-0.806273	-0.405036
C33	C	1.120713	-0.860877	-0.405051
O34	O	1.161072	-0.889079	-0.445492
N35	N	1.073262	-0.888233	-0.357531
C36	C	1.025780	-0.860982	-0.309998
O37	O	0.985421	-0.889265	-0.269580
C38	C	1.025755	-0.806379	-0.309987
C39	C	1.073215	-0.779025	-0.357505
C40	C	1.168147	-0.778919	-0.452551
C41	C	1.168126	-0.724319	-0.452534
C42	C	1.120649	-0.697072	-0.405003
C43	C	1.073194	-0.724425	-0.357489
C44	C	0.978271	-0.779129	-0.262458
C45	C	0.978249	-0.724522	-0.262452
C46	C	1.025709	-0.697168	-0.309970
C47	C	1.025696	-0.642577	-0.309941
N48	N	1.073148	-0.615221	-0.357462
C49	C	1.120624	-0.642468	-0.404993
C50	C	1.025836	-0.975653	-0.310025
C51	C	1.025864	-1.030255	-0.310031
C52	C	1.120796	-1.030146	-0.405086
C53	C	1.120771	-0.975543	-0.405075
C54	C	1.073287	-0.948297	-0.357545
C55	C	1.120577	-0.527803	-0.404954
C56	C	1.120554	-0.473198	-0.404932
C57	C	1.025619	-0.473312	-0.309880
C58	C	1.025645	-0.527912	-0.309900
C59	C	1.073126	-0.555157	-0.357443
O60	O	0.985356	-0.614341	-0.269523
O61	O	1.160970	-0.614179	-0.445411
C62	C	1.266865	-0.252030	-0.357427
C63	C	1.349410	-0.252046	-0.357414
C64	C	1.073199	-0.251947	-0.551165
C65	C	1.073217	-0.251927	-0.633711
C66	C	1.073285	-0.115621	-0.357534
C67	C	1.073338	-0.057507	-0.357565
C68	C	1.122901	-0.216978	-0.882547
C69	C	1.141018	-0.264687	-0.833117
C70	C	1.073264	-0.251894	-0.930831
C71	C	1.055159	-0.204204	-0.833179
C72	C	1.073243	-0.251908	-0.784846
C73	C	1.091416	-0.299629	-0.882488
C74	C	1.005526	-0.239114	-0.882555
C75	C	1.023617	-0.286856	-0.833147
C76	C	1.073279	-0.251886	-1.014929
C77	C	1.073228	-0.251922	-0.700749
C78	C	1.073162	-0.252003	-0.164507
C79	C	1.073288	-0.251876	-0.081962
H80	H	0.527361	-0.187399	-0.266078
H81	H	1.198293	-0.275505	-0.811400
N82	N	0.520055	-0.225046	-0.501189
H83	H	0.563156	-0.218899	-0.535799
H84	H	0.488456	-0.254460	-0.520842
N85	N	0.974627	-0.946272	-0.258743
H86	H	1.004819	-0.923625	-0.224341
H87	H	0.940185	-0.923645	-0.288940
N88	N	1.111786	-0.353075	-0.911047
H89	H	1.074537	-0.379485	-0.892656
H90	H	1.111702	-0.352690	-0.966997
H91	H	0.987226	-1.052522	-0.271329
N92	N	1.172003	-1.059529	-0.456368
H93	H	1.206451	-1.082190	-0.426225
H94	H	1.141753	-1.082144	-0.490760
N95	N	0.927083	-0.808623	-0.211204
H96	H	0.897005	-0.783068	-0.181100
H97	H	0.892703	-0.831274	-0.241417
H98	H	0.619838	-0.163945	-0.391325
N99	N	1.034875	-0.150777	-0.804488
H100	H	1.034546	-0.151260	-0.748539
H101	H	1.072428	-0.124456	-0.822510
N102	N	0.627022	-0.278967	-0.213797
H103	H	0.609083	-0.315013	-0.200038
H104	H	0.682967	-0.278481	-0.214305
N105	N	0.927031	-0.695135	-0.211188
H106	H	0.896973	-0.720752	-0.181091
H107	H	0.957270	-0.672488	-0.176830
N108	N	0.968004	-0.326017	-0.804584
H109	H	0.943175	-0.343934	-0.847774
H110	H	0.994229	-0.352811	-0.773035
N111	N	0.520095	-0.353104	-0.318721
H112	H	0.538040	-0.379486	-0.356165
H113	H	0.538856	-0.362927	-0.267882
H114	H	1.159204	-0.450928	-0.443627
N115	N	1.171779	-0.557184	-0.456239
H116	H	1.201833	-0.531563	-0.486335
H117	H	1.206180	-0.579845	-0.426047
N118	N	0.929679	-0.224769	-0.911343
H119	H	0.916054	-0.188713	-0.893439
H120	H	0.930188	-0.225238	-0.967288
H121	H	1.206769	-0.702051	-0.491230
H122	H	1.206808	-0.801098	-0.491261
H123	H	0.987005	-0.550184	-0.271201
N124	N	0.626901	-0.326091	-0.462500
H125	H	0.608920	-0.316419	-0.513682
H126	H	0.682847	-0.326023	-0.461725
H127	H	0.986966	-0.451118	-0.271179
N128	N	1.171958	-0.946042	-0.456327
H129	H	1.202036	-0.971594	-0.486435
H130	H	1.141699	-0.923382	-0.490674
H131	H	1.164919	-0.187481	-0.904237
