data_functionalizedCrystal
_audit_creation_method	'MofGen! by Chris Wilmer'
_symmetry_space_group_name_H-M	'P1'
_symmetry_Int_Tables_number	1
_symmetry_cell_setting	triclinic
loop_
_symmetry_equiv_pos_as_xyz
  x,y,z
_cell_length_a	14.908558
_cell_length_b	12.594516
_cell_length_c	14.908308
_cell_angle_alpha	86.729931
_cell_angle_beta	89.824401
_cell_angle_gamma	86.707217
loop_
_atom_site_label
_atom_site_type_symbol
_atom_site_fract_x
_atom_site_fract_y
_atom_site_fract_z
Zn1	Zn	1.345367	-0.555488	0.587594
Zn2	Zn	1.353969	-0.723844	0.437242
Zn3	Zn	1.203680	-0.535041	0.428592
Zn4	Zn	1.194996	-0.722576	0.578895
O5	O	1.274503	-0.634237	0.508081
O6	O	1.472336	-0.586908	0.574910
O7	O	1.341267	-0.690772	0.310269
O8	O	1.222509	-0.388811	0.449705
O9	O	1.478655	-0.710599	0.464447
O10	O	1.326607	-0.403833	0.566523
O11	O	1.230850	-0.552059	0.303915
O12	O	1.076701	-0.550830	0.441270
O13	O	1.207709	-0.708438	0.705874
O14	O	1.070321	-0.688612	0.551696
O15	O	1.318186	-0.585679	0.712265
O16	O	1.332846	-0.872618	0.456011
O17	O	1.216050	-0.871687	0.560083
C18	C	1.040885	-0.617366	0.494601
C19	C	0.940941	-0.610175	0.488856
C20	C	0.803364	-0.528211	0.423359
C21	C	0.897271	-0.534962	0.428754
C22	C	0.890697	-0.678640	0.543569
C23	C	0.796791	-0.671889	0.538174
C24	C	0.753128	-0.596673	0.478066
C25	C	0.659220	-0.589928	0.472668
C26	C	0.652648	-0.733601	0.587487
C27	C	0.746554	-0.740352	0.592881
C28	C	1.274462	-0.910774	0.508063
C29	C	1.274525	-1.029086	0.508090
C30	C	1.338117	-1.098816	0.451553
C31	C	1.355351	-1.176364	0.534886
C32	C	1.257401	-1.162348	0.424815
C33	C	1.291799	-1.105081	0.591468
C34	C	1.193813	-1.091053	0.481340
C35	C	1.211013	-1.168570	0.564728
C36	C	1.509033	-0.651176	0.521614
C37	C	1.608976	-0.658394	0.527381
C38	C	1.261020	-0.649198	0.742607
C39	C	1.255274	-0.655573	0.842548
C40	C	1.274567	-0.356623	0.508120
C41	C	1.274595	-0.238321	0.508137
C42	C	1.287986	-0.619262	0.274470
C43	C	1.293906	-0.612599	0.174540
C44	C	1.359514	-0.539699	1.037005
C45	C	1.354118	-0.545686	1.130908
C46	C	1.239082	-0.673527	1.124260
C47	C	1.244478	-0.667541	1.030357
C48	C	1.304697	-0.600625	0.986732
C49	C	1.310097	-0.594645	0.892827
C50	C	1.195057	-0.722480	0.886181
C51	C	1.189661	-0.728467	0.980084
H52	H	0.926264	-0.739873	0.592510
H53	H	1.408551	-0.485220	1.001485
H54	H	0.782118	-0.801588	0.641821
H55	H	1.398754	-0.496070	1.171837
O56	O	0.946039	-0.468565	0.375477
C57	C	0.983480	-0.408889	0.224250
C58	C	0.928216	-0.484159	0.284483
H59	H	0.969075	-0.421455	0.150670
H60	H	1.058113	-0.426632	0.238351
H61	H	0.964116	-0.322790	0.239148
H62	H	0.947502	-0.570284	0.269620
H63	H	0.853595	-0.466324	0.270371
H64	H	0.611735	-0.789349	0.632033
H65	H	1.391900	-1.068180	0.403788
O66	O	1.180458	-0.738394	1.166592
C67	C	1.025846	-0.780882	1.186443
C68	C	1.092141	-0.707329	1.138461
H69	H	0.954430	-0.755807	1.163704
H70	H	1.031320	-0.774684	1.262201
H71	H	1.042724	-0.866667	1.168899
H72	H	1.075307	-0.621513	1.155932
H73	H	1.086655	-0.713618	1.062716
H74	H	1.140631	-0.782945	1.015616
H75	H	1.423637	-1.213598	0.557537
O76	O	1.309242	-1.074795	0.675476
C77	C	1.328718	-0.928613	0.769708
C78	C	1.308972	-0.962767	0.674527
H79	H	1.328487	-0.838035	0.768977
H80	H	1.397348	-0.964508	0.792657
H81	H	1.274868	-0.958019	0.817973
H82	H	1.362764	-0.933370	0.626197
H83	H	1.240315	-0.926884	0.651653
H84	H	0.767813	-0.466969	0.374415
O85	O	1.146982	-1.204871	0.621983
C86	C	1.092726	-1.216857	0.774438
C87	C	1.165305	-1.175706	0.709697
H88	H	1.107503	-1.193275	0.845365
H89	H	1.092828	-1.307327	0.773681
H90	H	1.024071	-1.180369	0.752176
H91	H	1.233996	-1.212116	0.731914
H92	H	1.165123	-1.085233	0.710463
O93	O	1.112412	-1.046637	0.454138
C94	C	1.002264	-1.025206	0.335570
C95	C	1.094473	-1.075554	0.366267
H96	H	0.987723	-1.048585	0.264531
H97	H	1.002808	-0.934787	0.336388
H98	H	0.947965	-1.055035	0.383101
H99	H	1.148824	-1.045810	0.318764
H100	H	1.093854	-1.165969	0.365473
H101	H	1.150423	-0.772094	0.845239
H102	H	1.242887	-1.187731	0.354372
O103	O	1.368490	-0.529487	0.850484
C104	C	1.413846	-0.349758	0.824341
C105	C	1.347645	-0.423431	0.872326
H106	H	1.397027	-0.264001	0.841997
H107	H	1.408288	-0.355847	0.748579
H108	H	1.485281	-0.374906	0.846975
H109	H	1.276181	-0.398333	0.849765
H110	H	1.353280	-0.417333	0.948080
O111	O	0.616943	-0.516774	0.414263
C112	C	0.633381	-0.375014	0.300919
C113	C	0.681368	-0.457800	0.367037
H114	H	0.685448	-0.327326	0.262706
H115	H	0.587076	-0.318843	0.339714
H116	H	0.592085	-0.417644	0.251342
H117	H	0.722713	-0.415260	0.416629
H118	H	0.727620	-0.513966	0.328182
