data_functionalizedCrystal
_audit_creation_method	'MofGen! by Chris Wilmer'
_symmetry_space_group_name_H-M	'P1'
_symmetry_Int_Tables_number	1
_symmetry_cell_setting	triclinic
loop_
_symmetry_equiv_pos_as_xyz
  x,y,z
_cell_length_a	6.394989
_cell_length_b	8.559649
_cell_length_c	7.088929
_cell_angle_alpha	95.344185
_cell_angle_beta	83.614363
_cell_angle_gamma	78.138188
loop_
_atom_site_label
_atom_site_type_symbol
_atom_site_fract_x
_atom_site_fract_y
_atom_site_fract_z
O1	O	-2.705644	-0.276866	-0.158957
O2	O	-2.095406	-0.290011	-0.158965
O3	O	-2.454288	-0.051919	-0.158958
O4	O	-2.346762	-0.514958	-0.158964
O5	O	-2.502260	-0.020027	0.159018
O6	O	-2.143378	-0.258119	0.159011
O7	O	-2.753617	-0.244973	0.159019
Cu8	Cu	-2.452878	-0.248634	0.188049
Cu9	Cu	-2.396144	-0.286351	-0.187995
O10	O	-2.394735	-0.483066	0.159012
C11	C	-2.486422	0.023393	0.000026
C12	C	-2.510676	0.200283	0.000016
C13	C	-2.362600	-0.558378	0.000024
C14	C	-2.338344	-0.735270	0.000022
N15	N	-2.492796	-0.222106	0.452538
C16	C	-2.041989	-0.271465	0.000033
C17	C	-1.807029	-0.263521	0.000041
N18	N	-2.356244	-0.312867	-0.452483
H19	H	-2.676786	0.280446	0.000033
C20	C	-2.165045	-0.439926	0.437226
C21	C	-1.995435	-0.388356	0.299086
C22	C	-1.804231	-0.515417	0.188782
C23	C	-1.782639	-0.694049	0.216618
C24	C	-1.952255	-0.745628	0.354764
C25	C	-2.143458	-0.618566	0.465069
H26	H	-2.011414	-0.256114	0.278474
H27	H	-1.678671	-0.477234	0.086516
H28	H	-1.641099	-0.788107	0.134964
H29	H	-1.936276	-0.877869	0.375376
H30	H	-2.269019	-0.656749	0.567334
C31	C	-2.113945	0.156460	0.000010
C32	C	-1.933119	0.150096	-0.165106
C33	C	-1.708716	0.041814	-0.165118
C34	C	-1.665139	-0.060105	-0.000014
C35	C	-1.845970	-0.053745	0.165114
C36	C	-2.070373	0.054537	0.165126
H37	H	-1.965373	0.225546	-0.287337
H38	H	-1.574853	0.037107	-0.287358
H39	H	-1.499022	-0.140262	-0.000023
H40	H	-1.813716	-0.129194	0.287345
H41	H	-2.204236	0.059245	0.287366
H42	H	-2.634338	-0.128056	0.534196
