data_functionalizedCrystal
_audit_creation_method	'MofGen! by Chris Wilmer'
_symmetry_space_group_name_H-M	'P1'
_symmetry_Int_Tables_number	1
_symmetry_cell_setting	triclinic
loop_
_symmetry_equiv_pos_as_xyz
  x,y,z
_cell_length_a	13.635800
_cell_length_b	7.076018
_cell_length_c	7.076093
_cell_angle_alpha	83.945325
_cell_angle_beta	117.701465
_cell_angle_gamma	117.700341
loop_
_atom_site_label
_atom_site_type_symbol
_atom_site_fract_x
_atom_site_fract_y
_atom_site_fract_z
V1	V	-1.676726	0.291699	0.663495
O2	O	-1.783335	-0.017518	0.652432
O3	O	-1.552415	0.581756	0.657450
O4	O	-1.552405	0.285676	0.953556
O5	O	-1.783344	0.280612	0.354277
V6	V	-1.944486	0.254894	0.626693
O7	O	-1.750327	0.372432	0.744223
O8	O	-2.095985	0.174161	0.545965
O9	O	-1.957195	-0.035163	0.632738
O10	O	-1.896576	0.564111	0.637757
O11	O	-1.896567	0.265981	0.935912
O12	O	-1.957204	0.260917	0.336633
V13	V	-1.176726	0.291699	0.663495
O14	O	-1.283335	-0.017518	0.652432
O15	O	-1.052415	0.581756	0.657450
O16	O	-1.052405	0.285676	0.953556
O17	O	-1.283344	0.280612	0.354277
V18	V	-1.444486	0.254894	0.626693
O19	O	-1.250327	0.372432	0.744223
O20	O	-1.595985	0.174161	0.545965
O21	O	-1.457195	-0.035163	0.632738
O22	O	-1.396576	0.564111	0.637757
O23	O	-1.396567	0.265981	0.935912
O24	O	-1.457204	0.260917	0.336633
C25	C	-1.390974	0.894087	0.643565
C26	C	-1.453800	0.652508	0.646593
C27	C	-1.453798	0.274824	1.024304
C28	C	-1.390973	0.271759	1.265877
C29	C	-1.887486	0.271765	0.265873
C30	C	-1.939739	0.274824	0.024299
C31	C	-0.953804	0.652516	0.646604
C32	C	-0.890980	0.894090	0.643544
