data_functionalizedCrystal
_audit_creation_method	'MofGen! by Chris Wilmer'
_symmetry_space_group_name_H-M	'P1'
_symmetry_Int_Tables_number	1
_symmetry_cell_setting	triclinic
loop_
_symmetry_equiv_pos_as_xyz
  x,y,z
_cell_length_a	25.639239
_cell_length_b	14.908571
_cell_length_c	14.908308
_cell_angle_alpha	89.824947
_cell_angle_beta	93.262277
_cell_angle_gamma	93.265364
loop_
_atom_site_label
_atom_site_type_symbol
_atom_site_fract_x
_atom_site_fract_y
_atom_site_fract_z
Zn1	Zn	-0.272845	-1.345148	-0.587542
Zn2	Zn	-0.355542	-1.353683	-0.437170
Zn3	Zn	-0.262803	-1.203468	-0.428541
Zn4	Zn	-0.354921	-1.194711	-0.578822
O5	O	-0.311528	-1.274253	-0.508019
O6	O	-0.288277	-1.472104	-0.574855
O7	O	-0.339297	-1.340994	-0.310201
O8	O	-0.190974	-1.222355	-0.449671
O9	O	-0.349035	-1.478375	-0.464378
O10	O	-0.198352	-1.326446	-0.566488
O11	O	-0.271162	-1.230632	-0.303862
O12	O	-0.270560	-1.076483	-0.441216
O13	O	-0.347976	-1.207430	-0.705803
O14	O	-0.338239	-1.070049	-0.551626
O15	O	-0.287675	-1.317955	-0.712209
O16	O	-0.428620	-1.332503	-0.455922
O17	O	-0.428164	-1.215707	-0.559993
C18	C	-0.303242	-1.040642	-0.494539
C19	C	-0.299711	-0.940701	-0.488793
C20	C	-0.447364	-1.274104	-0.507969
C21	C	-0.505479	-1.274121	-0.507982
C22	C	-0.318877	-1.260764	-0.742543
C23	C	-0.322008	-1.255015	-0.842483
C24	C	-0.866081	-1.335213	-0.453936
C25	C	-0.920687	-1.335247	-0.453950
O26	O	-0.949120	-1.387035	-0.407943
N27	N	-0.947774	-1.274407	-0.508087
C28	C	-0.920253	-1.213536	-0.562222
O29	O	-0.948307	-1.161791	-0.608272
C30	C	-0.865649	-1.213506	-0.562212
C31	C	-0.838564	-1.274344	-0.508064
C32	C	-0.838996	-1.396046	-0.399793
C33	C	-0.784393	-1.396010	-0.399778
C34	C	-0.756876	-1.335142	-0.453906
C35	C	-0.783961	-1.274309	-0.508048
C36	C	-0.838129	-1.152640	-0.616350
C37	C	-0.783521	-1.152616	-0.616336
C38	C	-0.756436	-1.213454	-0.562188
C39	C	-0.701842	-1.213404	-0.562161
N40	N	-0.674754	-1.274244	-0.508024
C41	C	-0.702272	-1.335113	-0.453896
C42	C	-1.034927	-1.213603	-0.562239
C43	C	-1.089530	-1.213627	-0.562245
C44	C	-1.089960	-1.335339	-0.453974
C45	C	-1.035355	-1.335310	-0.453964
C46	C	-1.007839	-1.274442	-0.508102
C47	C	-0.587603	-1.335033	-0.453867
C48	C	-0.532996	-1.334989	-0.453854
C49	C	-0.532571	-1.213280	-0.562128
C50	C	-0.587173	-1.213320	-0.562138
C51	C	-0.614688	-1.274204	-0.508005
O52	O	-0.673375	-1.161645	-0.608147
O53	O	-0.674211	-1.386857	-0.407862
C54	C	-0.175163	-1.274426	-0.508090
C55	C	-0.117052	-1.274499	-0.508120
C56	C	-0.319846	-1.508776	-0.521552
C57	C	-0.323390	-1.608716	-0.527319
C58	C	-0.363649	-0.746258	-0.592813
C59	C	-0.360332	-0.652355	-0.587418
C60	C	-0.289761	-0.658987	-0.472613
C61	C	-0.293077	-0.752891	-0.478008
C62	C	-0.330022	-0.796523	-0.538109
C63	C	-0.333341	-0.890429	-0.543499
C64	C	-0.262767	-0.897060	-0.428700
C65	C	-0.259451	-0.803156	-0.423304
C66	C	-0.265089	-1.359301	-1.036954
C67	C	-0.268030	-1.353903	-1.130857
C68	C	-0.330827	-1.238817	-1.124193
C69	C	-0.327887	-1.244215	-1.030291
C70	C	-0.295017	-1.304460	-0.986674
C71	C	-0.292079	-1.309862	-0.892770
C72	C	-0.354874	-1.194772	-0.886108
C73	C	-0.357814	-1.189374	-0.980011
C74	C	-0.304171	-1.287741	-0.274410
C75	C	-0.300899	-1.293664	-0.174480
H76	H	-0.510945	-1.384531	-0.409757
H77	H	-0.243658	-1.398557	-1.171792
H78	H	-0.357588	-1.189768	-1.159722
H79	H	-0.860172	-1.103095	-0.660439
N80	N	-0.249917	-0.611916	-0.407794
H81	H	-0.229116	-0.658006	-0.373955
H82	H	-0.225528	-0.570879	-0.442236
H83	H	-1.012526	-1.164029	-0.606321
H84	H	-0.379244	-1.150119	-0.845160
N85	N	-0.403499	-0.793321	-0.657626
H86	H	-0.384976	-0.829914	-0.701601
H87	H	-0.427910	-0.834307	-0.623174
N88	N	-0.393253	-1.124381	-1.027055
H89	H	-0.390572	-1.129275	-1.094171
H90	H	-0.430577	-1.139263	-1.011440
H91	H	-0.363425	-0.925953	-0.592435
N92	N	-0.256632	-1.374845	-0.845728
H93	H	-0.278139	-1.418729	-0.809169
H94	H	-0.238129	-1.408700	-0.891891
H95	H	-0.387713	-0.611432	-0.631965
H96	H	-1.013306	-1.384850	-0.409873
H97	H	-0.609999	-1.384612	-0.409789
H98	H	-0.762344	-1.445552	-0.355688
H99	H	-0.235387	-0.937996	-0.384154
N100	N	-0.753843	-1.086966	-0.674730
H101	H	-0.779291	-1.048436	-0.709030
H102	H	-0.728600	-1.047475	-0.635695
H103	H	-0.609227	-1.163784	-0.606233
H104	H	-0.238328	-1.408359	-1.001442
N105	N	-0.219615	-0.756088	-0.358469
H106	H	-0.195187	-0.715042	-0.392831
H107	H	-0.238195	-0.719557	-0.314525
N108	N	-0.502881	-1.147632	-0.620500
H109	H	-0.482795	-1.181736	-0.664292
H110	H	-0.528351	-1.109107	-0.654749
N111	N	-0.868670	-1.461704	-0.341408
H112	H	-0.843218	-1.500230	-0.307113
H113	H	-0.888753	-1.427546	-0.297658
H114	H	-1.111578	-1.164079	-0.606329
N115	N	-1.119644	-1.400993	-0.395591
H116	H	-1.158345	-1.391777	-0.403820
H117	H	-1.112775	-1.464385	-0.413341
