data_functionalizedCrystal
_audit_creation_method	'MofGen! by Chris Wilmer'
_symmetry_space_group_name_H-M	'P1'
_symmetry_Int_Tables_number	1
_symmetry_cell_setting	triclinic
loop_
_symmetry_equiv_pos_as_xyz
  x,y,z
_cell_length_a	21.295420
_cell_length_b	25.639239
_cell_length_c	25.639233
_cell_angle_alpha	90.018747
_cell_angle_beta	90.013450
_cell_angle_gamma	90.034468
loop_
_atom_site_label
_atom_site_type_symbol
_atom_site_fract_x
_atom_site_fract_y
_atom_site_fract_z
Zn1	Zn	0.962250	-0.208273	0.295621
Zn2	Zn	0.962158	-0.295692	0.208185
Zn3	Zn	0.856994	-0.208266	0.208198
Zn4	Zn	0.856928	-0.295673	0.295588
O5	O	0.909583	-0.251976	0.251898
O6	O	1.050327	-0.219881	0.284030
O7	O	0.948197	-0.284100	0.135022
O8	O	0.871023	-0.135102	0.219814
O9	O	1.050260	-0.284107	0.219792
O10	O	0.948354	-0.135107	0.284043
O11	O	0.870933	-0.219868	0.135031
O12	O	0.768896	-0.219850	0.219782
O13	O	0.870910	-0.284074	0.368758
O14	O	0.768847	-0.284067	0.283988
O15	O	0.948290	-0.219862	0.368782
O16	O	0.948133	-0.368855	0.219760
O17	O	0.870821	-0.368841	0.283975
C18	C	0.746031	-0.251956	0.251883
C19	C	0.676063	-0.251960	0.251889
C20	C	0.176639	-0.218612	0.285409
C21	C	0.242382	-0.218608	0.285409
C22	C	0.275223	-0.251992	0.251910
C23	C	0.242317	-0.285391	0.218418
C24	C	0.176576	-0.285398	0.218423
N25	N	0.378423	-0.255925	0.206129
N26	N	0.440875	-0.255915	0.206126
C27	C	0.473298	-0.251975	0.251895
N28	N	0.440911	-0.248034	0.297668
N29	N	0.378454	-0.248040	0.297670
C30	C	0.346509	-0.251989	0.251902
C31	C	0.577482	-0.218576	0.285387
C32	C	0.643226	-0.218576	0.285388
C33	C	0.643160	-0.285356	0.218392
C34	C	0.577417	-0.285359	0.218396
C35	C	0.544582	-0.251966	0.251893
C36	C	0.909477	-0.387819	0.251874
C37	C	0.909489	-0.445933	0.251881
C38	C	0.949944	-0.806290	0.218518
C39	C	0.949968	-0.860895	0.218525
O40	O	0.984255	-0.889127	0.190133
N41	N	0.909693	-0.888215	0.251933
C42	C	0.869395	-0.860928	0.285339
O43	O	0.835141	-0.889180	0.313755
C44	C	0.869375	-0.806325	0.285334
C45	C	0.909648	-0.779008	0.251921
C46	C	0.990215	-0.778973	0.185108
C47	C	0.990189	-0.724372	0.185101
C48	C	0.949893	-0.697089	0.218503
C49	C	0.909623	-0.724407	0.251913
C50	C	0.829081	-0.779039	0.318743
C51	C	0.829064	-0.724432	0.318735
C52	C	0.869337	-0.697115	0.285322
C53	C	0.869301	-0.642524	0.285308
N54	N	0.909577	-0.615203	0.251901
C55	C	0.949873	-0.642486	0.218498
C56	C	0.869443	-0.975599	0.285347
C57	C	0.869460	-1.030201	0.285349
C58	C	0.950034	-1.030164	0.218536
C59	C	0.950013	-0.975561	0.218532
C60	C	0.909718	-0.948279	0.251940
C61	C	0.949816	-0.527821	0.218485
C62	C	0.949785	-0.473216	0.218479
C63	C	0.869214	-0.473258	0.285293
C64	C	0.869242	-0.527858	0.285298
C65	C	0.909548	-0.555139	0.251892
O66	O	0.835034	-0.614257	0.313688
O67	O	0.984127	-0.614227	0.190092
C68	C	1.073773	-0.251997	0.251913
C69	C	1.143741	-0.252005	0.251920
C70	C	0.909603	-0.251967	0.388271
C71	C	0.909612	-0.251963	0.446385
C72	C	0.909706	-0.115603	0.251933
C73	C	0.909759	-0.057489	0.251949
C74	C	0.909599	-0.251947	0.116055
C75	C	0.909712	-0.251804	0.057942
C76	C	0.949954	-0.218428	0.806766
C77	C	0.949962	-0.218414	0.861371
O78	O	0.984212	-0.189963	0.889623
N79	N	0.909681	-0.251840	0.888668
C80	C	0.869385	-0.285280	0.861358
O81	O	0.835123	-0.313710	0.889590
C82	C	0.869374	-0.285291	0.806754
C83	C	0.909663	-0.251866	0.779460
C84	C	0.990239	-0.185006	0.779472
C85	C	0.990232	-0.185021	0.724871
C86	C	0.949940	-0.218459	0.697565
C87	C	0.909656	-0.251882	0.724860
C88	C	0.829076	-0.318728	0.779445
C89	C	0.829068	-0.318736	0.724838
C90	C	0.869357	-0.285311	0.697544
C91	C	0.869357	-0.285335	0.642953
N92	N	0.909638	-0.251908	0.615656
C93	C	0.949930	-0.218470	0.642962
C94	C	0.869409	-0.285253	0.976028
C95	C	0.869422	-0.285244	1.030631
C96	C	0.949999	-0.218377	1.030640
C97	C	0.949988	-0.218389	0.976037
C98	C	0.909690	-0.251826	0.948731
C99	C	0.949912	-0.218505	0.528297
C100	C	0.949903	-0.218525	0.473691
C101	C	0.869325	-0.285390	0.473687
C102	C	0.869335	-0.285372	0.528287
C103	C	0.909631	-0.251926	0.555591
O104	O	0.835122	-0.313770	0.614666
O105	O	0.984180	-0.190040	0.614723
H106	H	0.550747	-0.191385	0.312662
F107	F	0.826520	-0.320847	0.946973
F108	F	0.992878	-0.946492	0.182969
F109	F	0.542403	-0.320894	0.182745
F110	F	0.141698	-0.183076	0.321063
H111	H	1.022985	-0.702133	0.157894
F112	F	0.992787	-0.182949	0.444646
F113	F	0.826445	-0.320974	0.444616
H114	H	0.670011	-0.191385	0.312663
H115	H	0.982580	-0.450975	0.191268
H116	H	1.023038	-0.157802	0.702653
H117	H	0.836659	-1.052439	0.312553
F118	F	0.141562	-0.320939	0.182775
F119	F	0.992714	-0.556847	0.182930
F120	F	0.826332	-0.444212	0.320842
H121	H	0.269173	-0.191414	0.312680
H122	H	0.982847	-1.052388	0.191340
H123	H	0.982794	-0.191170	0.953817
F124	F	0.826548	-0.946568	0.320903
F125	F	0.678108	-0.320889	0.182743
F126	F	1.033108	-0.808001	0.149554
H127	H	0.982723	-0.191268	0.550521
F128	F	0.786196	-0.354306	0.808482
F129	F	0.786221	-0.808101	0.354311
H130	H	0.796245	-0.345960	0.702609
H131	H	0.836450	-0.550102	0.312507
F132	F	0.277270	-0.320922	0.182768
F133	F	0.786176	-0.695400	0.354295
H134	H	1.023049	-0.157774	0.801699
H135	H	0.982805	-0.191149	1.052883
H136	H	0.836622	-0.312468	1.052849
F137	F	0.826461	-0.320950	0.557337
