data_functionalizedCrystal
_audit_creation_method	'MofGen! by Chris Wilmer'
_symmetry_space_group_name_H-M	'P1'
_symmetry_Int_Tables_number	1
_symmetry_cell_setting	triclinic
loop_
_symmetry_equiv_pos_as_xyz
  x,y,z
_cell_length_a	16.959455
_cell_length_b	12.827892
_cell_length_c	16.959447
_cell_angle_alpha	89.974395
_cell_angle_beta	89.982031
_cell_angle_gamma	90.012339
loop_
_atom_site_label
_atom_site_type_symbol
_atom_site_fract_x
_atom_site_fract_y
_atom_site_fract_z
Zn1	Zn	1.208438	-0.416111	-0.446928
Zn2	Zn	1.208363	-0.590875	-0.314757
Zn3	Zn	1.076258	-0.416140	-0.314765
Zn4	Zn	1.076242	-0.590801	-0.446896
O5	O	1.142325	-0.503482	-0.380836
O6	O	1.319039	-0.439313	-0.429405
O7	O	1.190814	-0.567739	-0.204147
O8	O	1.093830	-0.269900	-0.332314
O9	O	1.318984	-0.567711	-0.332300
O10	O	1.190942	-0.269878	-0.429413
O11	O	1.093757	-0.439362	-0.204153
O12	O	0.965645	-0.439290	-0.332282
O13	O	1.093803	-0.567585	-0.557511
O14	O	0.965633	-0.567613	-0.429358
O15	O	1.190927	-0.439241	-0.557534
O16	O	1.190799	-0.737101	-0.332269
O17	O	1.093730	-0.737047	-0.429350
C18	C	1.142276	-0.774992	-0.380822
C19	C	1.142327	-0.891145	-0.380843
C20	C	0.936959	-0.503447	-0.380818
C21	C	0.849102	-0.503458	-0.380829
C22	C	1.190417	-0.942922	-0.332857
C23	C	1.190471	-1.062972	-0.332877
C24	C	0.477608	-0.436609	-0.330395
C25	C	0.477645	-0.570440	-0.431323
C26	C	0.560191	-0.570425	-0.431318
C27	C	0.601449	-0.503502	-0.380850
C28	C	0.560162	-0.436594	-0.330386
C29	C	0.601484	-0.637339	-0.481775
C30	C	0.684035	-0.637328	-0.481772
C31	C	0.725295	-0.570399	-0.431307
C32	C	0.684003	-0.503487	-0.380842
C33	C	0.725261	-0.436564	-0.330374
C34	C	0.683970	-0.369647	-0.279912
C35	C	0.601422	-0.369665	-0.279921
C36	C	0.807844	-0.570381	-0.431298
C37	C	0.807815	-0.436550	-0.330366
C38	C	1.348493	-0.503517	-0.380855
C39	C	1.436350	-0.503532	-0.380863
C40	C	1.142371	-0.503401	-0.587005
C41	C	1.142391	-0.503367	-0.674861
C42	C	1.142396	-0.230912	-0.380868
C43	C	1.142427	-0.114758	-0.380881
C44	C	1.192934	-0.570190	-0.716134
C45	C	1.091861	-0.436518	-0.716142
C46	C	1.091875	-0.436487	-0.798688
C47	C	1.142418	-0.503310	-0.839961
C48	C	1.192947	-0.570163	-0.798687
C49	C	1.041341	-0.369642	-0.839968
C50	C	1.041351	-0.369610	-0.922519
C51	C	1.091899	-0.436428	-0.963793
C52	C	1.142431	-0.503283	-0.922514
C53	C	1.192974	-0.570106	-0.963787
C54	C	1.243511	-0.636957	-0.922510
C55	C	1.243495	-0.636982	-0.839961
C56	C	1.091915	-0.436404	-1.046341
C57	C	1.192988	-0.570080	-1.046340
C58	C	1.142325	-0.503486	-0.175470
C59	C	1.142458	-0.503226	-0.087614
H60	H	1.231640	-1.107499	-0.291793
H61	H	1.050707	-0.382120	-0.682533
H62	H	1.101199	-0.935693	-0.421943
H63	H	0.717574	-0.315163	-0.238817
C64	C	1.036956	-0.364006	-1.091199
C65	C	0.986280	-0.423160	-1.138561
C66	C	0.935632	-0.356500	-1.179886
H67	H	1.067114	-0.318441	-1.123475
H68	H	1.006803	-0.324234	-1.054821
H69	H	1.016429	-0.462914	-1.174935
H70	H	0.956104	-0.468722	-1.106304
H71	H	0.905479	-0.316728	-1.143508
H72	H	0.965797	-0.310938	-1.212158
H73	H	0.901238	-0.396626	-1.212021
H74	H	1.000202	-0.315175	-0.956120
H75	H	1.231552	-0.898376	-0.291762
C76	C	0.556833	-0.710090	-0.536611
C77	C	0.610659	-0.768700	-0.580790
C78	C	0.569552	-0.835731	-0.631315
H79	H	0.524655	-0.670273	-0.571171
H80	H	0.524622	-0.755636	-0.506349
H81	H	0.642857	-0.723160	-0.611050
H82	H	0.642839	-0.808538	-0.546251
H83	H	0.537340	-0.881277	-0.601053
H84	H	0.537374	-0.795906	-0.665870
H85	H	0.606066	-0.875512	-0.661291
C86	C	1.087439	-1.055591	-0.435698
C87	C	1.043115	-1.126642	-0.479976
C88	C	0.992446	-1.072167	-0.530475
H89	H	1.117579	-1.012945	-0.470198
H90	H	1.052983	-1.013098	-0.405414
H91	H	1.077567	-1.169117	-0.510258
H92	H	1.012958	-1.169290	-0.445497
H93	H	0.957990	-1.029674	-0.500190
H94	H	1.022593	-1.029524	-0.564969
H95	H	0.962361	-1.120367	-0.560518
C96	C	0.556449	-0.297125	-0.225174
C97	C	0.475326	-0.311481	-0.235971
C98	C	0.433870	-0.244683	-0.185548
H99	H	0.569892	-0.226888	-0.236789
H100	H	0.569905	-0.312327	-0.172024
H101	H	0.461876	-0.296272	-0.289109
H102	H	0.461860	-0.381705	-0.224351
H103	H	0.447326	-0.259885	-0.132398
H104	H	0.447319	-0.174450	-0.197167
H105	H	0.378824	-0.254422	-0.192862
C106	C	1.247739	-0.642688	-1.091251
C107	C	1.202982	-0.709637	-1.138639
C108	C	1.253393	-0.776525	-1.180030
H109	H	1.277853	-0.682601	-1.054936
H110	H	1.282177	-0.602729	-1.123511
H111	H	1.168559	-0.749592	-1.106382
H112	H	1.172871	-0.669753	-1.174969
H113	H	1.287831	-0.736566	-1.212290
H114	H	1.283504	-0.816431	-1.143710
H115	H	1.223033	-0.821951	-1.212193
H116	H	0.841402	-0.382046	-0.289272
C117	C	0.852531	-0.643064	-0.486165
C118	C	0.798731	-0.701661	-0.530375
C119	C	0.839867	-0.768620	-0.580938
H120	H	0.884725	-0.688629	-0.455955
H121	H	0.884730	-0.603163	-0.520699
H122	H	0.766545	-0.741559	-0.495845
H123	H	0.766536	-0.656123	-0.560601
H124	H	0.872066	-0.728719	-0.615472
H125	H	0.872059	-0.814178	-0.550722
H126	H	0.803370	-0.808379	-0.610946
C127	C	0.432710	-0.642984	-0.486084
C128	C	0.351580	-0.628661	-0.475301
C129	C	0.310159	-0.695462	-0.525744
H130	H	0.446136	-0.713219	-0.474477
H131	H	0.446213	-0.627763	-0.539229
H132	H	0.338083	-0.643889	-0.422169
H133	H	0.338131	-0.558440	-0.486914
H134	H	0.323662	-0.680241	-0.578888
H135	H	0.323591	-0.765693	-0.514132
H136	H	0.255108	-0.685746	-0.518440
C137	C	1.298484	-0.709332	-0.967366
C138	C	1.349172	-0.650145	-1.014764
C139	C	1.399828	-0.716778	-1.056092
H140	H	1.268332	-0.754873	-0.999619
H141	H	1.328627	-0.749131	-0.930990
H142	H	1.319031	-0.610364	-1.051137
H143	H	1.379341	-0.604607	-0.982531
H144	H	1.429972	-0.756576	-1.019715
H145	H	1.369670	-0.762315	-1.088340
H146	H	1.434230	-0.676629	-1.088250
C147	C	1.298268	-0.709524	-0.795004
C148	C	1.287418	-0.695267	-0.713878
C149	C	1.337850	-0.762086	-0.672436
H150	H	1.351416	-0.694301	-0.808442
H151	H	1.286678	-0.779755	-0.808476
H152	H	1.299014	-0.625052	-0.700411
H153	H	1.234280	-0.710498	-0.700416
H154	H	1.326260	-0.832316	-0.685908
H155	H	1.390995	-0.746857	-0.685880
H156	H	1.330491	-0.752428	-0.617388
H157	H	1.000186	-0.315246	-0.806358
H158	H	0.443986	-0.382124	-0.289312
H159	H	0.717647	-0.691816	-0.522861
H160	H	1.234082	-0.624615	-0.682522
