data_functionalizedCrystal
_audit_creation_method	'MofGen! by Chris Wilmer'
_symmetry_space_group_name_H-M	'P1'
_symmetry_Int_Tables_number	1
_symmetry_cell_setting	triclinic
loop_
_symmetry_equiv_pos_as_xyz
  x,y,z
_cell_length_a	16.992701
_cell_length_b	8.559649
_cell_length_c	16.053802
_cell_angle_alpha	92.204030
_cell_angle_beta	87.243340
_cell_angle_gamma	80.222917
loop_
_atom_site_label
_atom_site_type_symbol
_atom_site_fract_x
_atom_site_fract_y
_atom_site_fract_z
O1	O	1.023831	0.329949	-0.069429
O2	O	0.795767	0.326264	-0.069429
O3	O	0.929891	0.098070	-0.069428
O4	O	0.889706	0.558143	-0.069430
O5	O	0.922512	0.110575	0.069431
O6	O	0.788388	0.338770	0.069430
O7	O	1.016451	0.342454	0.069430
Zn8	Zn	0.901248	0.342597	0.091477
Zn9	Zn	0.910971	0.326121	-0.091476
O10	O	0.882327	0.570648	0.069429
C11	C	0.763151	0.327772	0.000000
C12	C	0.676959	0.313616	-0.000000
C13	C	0.193727	0.218495	-0.000003
C14	C	0.274712	0.231810	0.000002
C15	C	0.297227	0.381732	-0.000002
C16	C	0.238753	0.518349	-0.000003
C17	C	0.157770	0.505034	-0.000002
C18	C	0.537501	0.436917	-0.000000
C19	C	0.618492	0.450222	-0.000004
C20	C	0.654445	0.163682	0.000003
C21	C	0.573459	0.150379	-0.000001
C22	C	0.514991	0.286997	0.000003
N23	N	0.380006	0.395345	0.000000
N24	N	0.432214	0.273383	0.000006
C25	C	0.929247	0.045181	-0.000000
C26	C	0.938312	-0.131042	-0.000005
C27	C	1.049068	0.340946	-0.000001
C28	C	1.135260	0.355102	-0.000006
N29	N	0.894618	0.353842	0.216337
C30	C	0.882971	0.623537	-0.000001
C31	C	0.873907	0.799759	-0.000002
N32	N	0.917607	0.314865	-0.216336
C33	C	0.951705	0.256784	0.260031
C34	C	0.947074	0.264665	0.347438
C35	C	0.885359	0.369614	0.391149
C36	C	0.828267	0.466675	0.347448
C37	C	0.832895	0.458785	0.260043
C38	C	0.865144	0.404036	0.652558
C39	C	0.860521	0.411923	0.739970
C40	C	0.979327	0.209910	0.739953
C41	C	0.983953	0.202035	0.652546
C42	C	0.926859	0.299091	0.608854
N43	N	0.880625	0.377676	0.480493
N44	N	0.931590	0.291019	0.519511
H45	H	0.110164	0.616274	-0.000002
H46	H	1.001962	0.171331	0.224448
H47	H	0.810262	0.497391	0.775555
O48	O	1.012384	-0.221113	0.000145
C49	C	1.050338	-0.180242	0.072048
H50	H	1.003207	-0.124327	0.122312
H51	H	1.087263	-0.291493	0.096191
H52	H	1.091232	-0.091860	0.055782
H53	H	0.811831	-0.124669	0.000001
H54	H	0.555134	0.028297	0.000003
O55	O	1.002621	0.170341	0.389753
C56	C	1.058079	0.076007	0.332430
H57	H	1.058329	0.135505	0.270119
H58	H	1.120334	0.062134	0.357667
H59	H	1.040420	-0.045896	0.323152
O60	O	0.711219	0.030922	-0.000142
C61	C	0.706176	-0.065994	-0.072044
H62	H	0.676066	0.009640	-0.122313
H63	H	0.768871	-0.124403	-0.096181
H64	H	0.669514	-0.161585	-0.055780
H65	H	1.034206	0.116578	0.616959
O66	O	1.034695	0.115688	0.782526
C67	C	1.017392	0.145178	0.869045
H68	H	0.951334	0.197553	0.880996
H69	H	1.031522	0.029206	0.902268
H70	H	1.055327	0.232617	0.893833
H71	H	0.818656	0.483066	0.616990
H72	H	0.489906	0.548162	-0.000001
O73	O	0.768388	0.568585	0.390036
C74	C	0.776532	0.554715	0.476552
H75	H	0.841327	0.504500	0.488478
H76	H	0.758884	0.676683	0.509762
H77	H	0.735973	0.471751	0.501374
H78	H	0.786409	0.537817	0.224468
O79	O	0.171724	0.072977	-0.000036
C80	C	0.087708	0.090512	-0.000016
H81	H	0.062591	0.209447	-0.026311
H82	H	0.070556	-0.009684	-0.040326
H83	H	0.062038	0.085950	0.066602
H84	H	0.636818	0.572314	0.000005
O85	O	0.260670	0.663935	-0.000153
C86	C	0.310275	0.673715	-0.072060
H87	H	0.298742	0.583874	-0.122323
H88	H	0.296576	0.798403	-0.096202
H89	H	0.375617	0.646778	-0.055802
O90	O	0.331407	0.098945	-0.000031
C91	C	0.294167	-0.036232	-0.000011
H92	H	0.232568	-0.006090	-0.026305
H93	H	0.332284	-0.136220	-0.040320
H94	H	0.287538	-0.075694	0.066608
