data_functionalizedCrystal
_audit_creation_method	'MofGen! by Chris Wilmer'
_symmetry_space_group_name_H-M	'P1'
_symmetry_Int_Tables_number	1
_symmetry_cell_setting	triclinic
loop_
_symmetry_equiv_pos_as_xyz
  x,y,z
_cell_length_a	18.101398
_cell_length_b	19.121449
_cell_length_c	18.101389
_cell_angle_alpha	92.458273
_cell_angle_beta	90.024327
_cell_angle_gamma	87.580180
loop_
_atom_site_label
_atom_site_type_symbol
_atom_site_fract_x
_atom_site_fract_y
_atom_site_fract_z
Zn1	Zn	1.144729	-0.279771	0.406263
Zn2	Zn	1.478063	0.053563	0.739596
Zn3	Zn	1.811396	0.386896	1.072929
Zn4	Zn	1.149918	-0.397203	0.277143
Zn5	Zn	1.483251	-0.063870	0.610476
Zn6	Zn	1.816584	0.269463	0.943809
Zn7	Zn	1.020888	-0.279763	0.282424
Zn8	Zn	1.354221	0.053570	0.615758
Zn9	Zn	1.687555	0.386903	0.949091
Zn10	Zn	1.026130	-0.397173	0.400933
Zn11	Zn	1.359463	-0.063840	0.734266
Zn12	Zn	1.692797	0.269493	1.067599
O13	O	1.085416	-0.338478	0.341691
O14	O	1.418750	-0.005144	0.675024
O15	O	1.752083	0.328189	1.008357
O16	O	1.249051	-0.295364	0.389155
O17	O	1.582384	0.037969	0.722488
O18	O	1.915718	0.371303	1.055822
O19	O	1.132779	-0.381634	0.174210
O20	O	1.466112	-0.048301	0.507543
O21	O	1.799446	0.285032	0.840877
O22	O	1.032951	-0.181482	0.303293
O23	O	1.366284	0.151852	0.636626
O24	O	1.699617	0.485185	0.969960
O25	O	1.252863	-0.381641	0.294291
O26	O	1.586196	-0.048308	0.627624
O27	O	1.919530	0.285025	0.960958
O28	O	1.123936	-0.181487	0.394277
O29	O	1.457270	0.151846	0.727610
O30	O	1.790603	0.485180	1.060943
O31	O	1.037981	-0.295351	0.178090
O32	O	1.371315	0.037982	0.511424
O33	O	1.704648	0.371315	0.844757
O34	O	0.917950	-0.295322	0.298124
O35	O	1.251283	0.038011	0.631458
O36	O	1.584616	0.371344	0.964791
O37	O	1.041885	-0.381590	0.505273
O38	O	1.375218	-0.048257	0.838606
O39	O	1.708552	0.285077	1.171940
O40	O	0.921801	-0.381583	0.385192
O41	O	1.255134	-0.048250	0.718525
O42	O	1.588468	0.285084	1.051858
O43	O	1.129019	-0.295335	0.509189
O44	O	1.462353	0.037999	0.842522
O45	O	1.795686	0.371332	1.175856
O46	O	1.137862	-0.495482	0.289122
O47	O	1.471195	-0.162149	0.622456
O48	O	1.804529	0.171185	0.955789
O49	O	1.046916	-0.495460	0.380070
O50	O	1.380249	-0.162127	0.713404
O51	O	1.713582	0.171207	1.046737
C52	C	0.893004	-0.338449	0.341653
C53	C	1.226338	-0.005116	0.674987
C54	C	1.559671	0.328218	1.008320
C55	C	0.810690	-0.338454	0.341654
C56	C	1.144024	-0.005121	0.674987
C57	C	1.477357	0.328213	1.008321
C58	C	0.511601	-0.338498	0.341714
C59	C	0.844935	-0.005164	0.675048
C60	C	1.178268	0.328169	1.008381
C61	C	0.540467	-0.283954	0.287225
C62	C	0.873800	0.049380	0.620558
C63	C	1.207133	0.382713	0.953892
C64	C	0.626091	-0.284100	0.286976
C65	C	0.959425	0.049233	0.620309
C66	C	1.292758	0.382567	0.953642
C67	C	0.659983	-0.338475	0.341684
C68	C	0.993316	-0.005142	0.675018
C69	C	1.326650	0.328191	1.008351
C70	C	0.632199	-0.412456	0.317034
C71	C	0.965532	-0.079123	0.650368
C72	C	1.298866	0.254211	0.983701
C73	C	0.546540	-0.412153	0.316652
C74	C	0.879874	-0.078819	0.649985
C75	C	1.213207	0.254514	0.983319
C76	C	0.542369	-0.319704	0.420958
C77	C	0.875703	0.013629	0.754292
C78	C	1.209036	0.346962	1.087625
C79	C	0.627946	-0.318057	0.420605
C80	C	0.961279	0.015277	0.753938
C81	C	1.294612	0.348610	1.087271
C82	C	0.743842	-0.338467	0.341669
C83	C	1.077175	-0.005134	0.675002
C84	C	1.410509	0.328199	1.008335
C85	C	0.427743	-0.338511	0.341728
C86	C	0.761076	-0.005177	0.675061
C87	C	1.094409	0.328156	1.008395
C88	C	1.093541	-0.520955	0.333461
C89	C	1.426874	-0.187621	0.666794
C90	C	1.760207	0.145712	1.000128
C91	C	1.097084	-0.599019	0.329965
C92	C	1.430418	-0.265686	0.663298
C93	C	1.763751	0.067648	0.996632
C94	C	1.051366	-0.635708	0.375635
C95	C	1.384699	-0.302374	0.708969
C96	C	1.718032	0.030959	1.042302
C97	C	1.054698	-0.709058	0.372348
C98	C	1.388032	-0.375724	0.705681
C99	C	1.721365	-0.042391	1.039014
C100	C	1.103754	-0.745717	0.323393
C101	C	1.437087	-0.412384	0.656726
C102	C	1.770420	-0.079050	0.990060
C103	C	1.149474	-0.709023	0.277718
C104	C	1.482807	-0.375690	0.611051
C105	C	1.816141	-0.042356	0.944384
C106	C	1.146137	-0.635675	0.281002
C107	C	1.479471	-0.302341	0.614336
C108	C	1.812804	0.030992	0.947669
C109	C	1.116196	-0.967181	0.311105
C110	C	1.449530	-0.633848	0.644439
C111	C	1.782863	-0.300515	0.977772
C112	C	1.119531	-1.040535	0.307826
C113	C	1.452865	-0.707202	0.641159
C114	C	1.786198	-0.373868	0.974493
C115	C	1.024754	-1.040564	0.402455
C116	C	1.358088	-0.707231	0.735788
C117	C	1.691421	-0.373898	1.069122
C118	C	1.021425	-0.967214	0.405738
C119	C	1.354758	-0.633881	0.739072
C120	C	1.688092	-0.300548	1.072405
C121	C	1.067142	-0.930527	0.360061
C122	C	1.400476	-0.597194	0.693394
C123	C	1.733809	-0.263860	1.026727
C124	C	1.107163	-0.820692	0.320033
C125	C	1.440496	-0.487359	0.653366
C126	C	1.773830	-0.154026	0.986699
C127	C	1.063729	-0.855553	0.363417
C128	C	1.397062	-0.522220	0.696751
C129	C	1.730396	-0.188886	1.030084
C130	C	1.278579	-0.338507	0.341728
C131	C	1.611913	-0.005173	0.675062
C132	C	1.945246	0.328160	1.008395
C133	C	1.360894	-0.338519	0.341745
C134	C	1.694227	-0.005186	0.675078
C135	C	2.027561	0.328147	1.008411
C136	C	1.085458	-0.338460	0.534853
C137	C	1.418792	-0.005127	0.868187
C138	C	1.752125	0.328207	1.201520
C139	C	1.085476	-0.338452	0.617168
C140	C	1.418809	-0.005119	0.950501
C141	C	1.752143	0.328214	1.283834
C142	C	1.077280	-0.155288	0.349968
C143	C	1.410613	0.178045	0.683302
C144	C	1.743947	0.511378	1.016635
C145	C	1.073813	-0.077224	0.353496
C146	C	1.407146	0.256110	0.686829
C147	C	1.740480	0.589443	1.020163
C148	C	1.085415	-0.338445	0.149282
C149	C	1.418748	-0.005111	0.482615
C150	C	1.752081	0.328222	0.815948
C151	C	1.085531	-0.338254	0.066976
C152	C	1.418865	-0.004921	0.400310
C153	C	1.752198	0.328412	0.733643
C154	C	1.085513	-0.338321	0.916265
C155	C	1.418847	-0.004987	1.249598
C156	C	1.752180	0.328346	1.582932
C157	C	1.030486	-0.392418	0.882483
C158	C	1.363819	-0.059084	1.215817
C159	C	1.697152	0.274249	1.549150
C160	C	1.030652	-0.392669	0.796854
C161	C	1.363986	-0.059335	1.130187
C162	C	1.697319	0.273998	1.463521
C163	C	1.085494	-0.338386	0.767879
C164	C	1.418828	-0.005053	1.101213
C165	C	1.752161	0.328281	1.434546
C166	C	1.164425	-0.358482	0.798082
C167	C	1.497759	-0.025149	1.131415
C168	C	1.831092	0.308184	1.464748
C169	C	1.164121	-0.358838	0.883711
C170	C	1.497454	-0.025504	1.217044
C171	C	1.830788	0.307829	1.550377
C172	C	1.062283	-0.264007	0.888030
C173	C	1.395616	0.069326	1.221363
C174	C	1.728949	0.402660	1.554696
C175	C	1.060566	-0.264436	0.802359
C176	C	1.393899	0.068897	1.135693
C177	C	1.727233	0.402230	1.469026
C178	C	1.085488	-0.338422	0.684018
C179	C	1.418821	-0.005088	1.017352
C180	C	1.752155	0.328245	1.350685
C181	C	1.085525	-0.338287	1.000126
C182	C	1.418858	-0.004953	1.333459
C183	C	1.752191	0.328380	1.666793
H184	H	0.644660	-0.229240	0.302808
H185	H	0.977993	0.104094	0.636141
H186	H	1.311326	0.437427	0.969475
Cl187	Cl	1.173683	-0.921069	0.253694
Cl188	Cl	1.507017	-0.587736	0.587027
Cl189	Cl	1.840350	-0.254403	0.920361
Cl190	Cl	0.974690	-0.235741	0.922623
Cl191	Cl	1.308024	0.097592	1.255956
Cl192	Cl	1.641357	0.430925	1.589289
Cl193	Cl	0.666533	-0.476882	0.376169
Cl194	Cl	0.999866	-0.143549	0.709503
Cl195	Cl	1.333199	0.189784	1.042836
H196	H	1.002463	-0.249281	0.782709
H197	H	1.335797	0.084052	1.116042
H198	H	1.669130	0.417385	1.449375
H199	H	1.206671	-0.320319	0.779451
H200	H	1.540005	0.013014	1.112785
H201	H	1.873338	0.346348	1.446118
H202	H	1.102322	-0.223702	0.910117
H203	H	1.435655	0.109631	1.243451
H204	H	1.768988	0.442965	1.576784
H205	H	0.517416	-0.228926	0.302918
H206	H	0.850750	0.104407	0.636251
H207	H	1.184083	0.437741	0.969585
Cl208	Cl	0.663550	-0.374927	0.487062
Cl209	Cl	0.996883	-0.041594	0.820396
Cl210	Cl	1.330216	0.291739	1.153729
H211	H	0.518408	-0.266697	0.442729
H212	H	0.851742	0.066636	0.776063
H213	H	1.185075	0.399969	1.109396
H214	H	0.519471	-0.296236	0.228918
H215	H	0.852804	0.037097	0.562251
H216	H	1.186137	0.370431	0.895585
H217	H	0.971892	-0.379970	0.903629
H218	H	1.305225	-0.046637	1.236962
H219	H	1.638558	0.286697	1.570296
Cl220	Cl	0.658540	-0.303277	0.196421
Cl221	Cl	0.991873	0.030057	0.529754
Cl222	Cl	1.325207	0.363390	0.863088
Cl223	Cl	1.054314	-0.476934	0.911971
Cl224	Cl	1.387647	-0.143601	1.245305
Cl225	Cl	1.720980	0.189732	1.578638
Cl226	Cl	0.655580	-0.234010	0.449219
Cl227	Cl	0.988914	0.099324	0.782553
Cl228	Cl	1.322247	0.432657	1.115886
H229	H	0.527247	-0.428092	0.258622
H230	H	0.860580	-0.094759	0.591955
H231	H	1.193913	0.238575	0.925288
Cl232	Cl	0.517467	-0.477023	0.374968
Cl233	Cl	0.850800	-0.143690	0.708302
Cl234	Cl	1.184133	0.189644	1.041635
H235	H	0.654345	-0.428672	0.259611
H236	H	0.987678	-0.095339	0.592944
H237	H	1.321011	0.237995	0.926277
Cl238	Cl	0.513858	-0.381039	0.483705
Cl239	Cl	0.847192	-0.047706	0.817038
Cl240	Cl	1.180525	0.285628	1.150372
H241	H	1.011423	-0.605864	0.415503
H242	H	1.344756	-0.272531	0.748836
H243	H	1.678090	0.060802	1.082169
Cl244	Cl	0.959756	-0.921133	0.467287
Cl245	Cl	1.293089	-0.587800	0.800620
Cl246	Cl	1.626422	-0.254467	1.133954
Cl247	Cl	0.997229	-0.755178	0.429773
Cl248	Cl	1.330562	-0.421844	0.763106
Cl249	Cl	1.663896	-0.088511	1.096439
H250	H	1.147105	-0.850549	0.280174
H251	H	1.480438	-0.517215	0.613508
H252	H	1.813771	-0.183882	0.946841
H253	H	1.097454	-0.221991	0.782883
H254	H	1.430788	0.111342	1.116217
H255	H	1.764121	0.444676	1.449550
H256	H	0.987533	-1.070443	0.439643
H257	H	1.320866	-0.737110	0.772976
H258	H	1.654200	-0.403777	1.106309
H259	H	1.159483	-1.070381	0.267961
H260	H	1.492816	-0.737048	0.601295
H261	H	1.826149	-0.403714	0.934628
Cl262	Cl	1.203610	-0.589551	0.223581
Cl263	Cl	1.536943	-0.256218	0.556915
Cl264	Cl	1.870277	0.077115	0.890248
Cl265	Cl	1.211144	-0.755110	0.216174
Cl266	Cl	1.544478	-0.421776	0.549508
Cl267	Cl	1.877811	-0.088443	0.882841
Cl268	Cl	1.194640	-0.441464	0.761250
Cl269	Cl	1.527973	-0.108131	1.094583
Cl270	Cl	1.861306	0.225202	1.427916
H271	H	1.023785	-0.825703	0.403274
H272	H	1.357118	-0.492369	0.736607
H273	H	1.690452	-0.159036	1.069940
Cl274	Cl	0.940448	-0.373249	0.765251
Cl275	Cl	1.273781	-0.039915	1.098584
Cl276	Cl	1.607115	0.293418	1.431917
H277	H	1.183424	-0.413162	0.901252
H278	H	1.516757	-0.079829	1.234585
H279	H	1.850090	0.253505	1.567919
Cl280	Cl	1.054792	-0.477705	0.761403
Cl281	Cl	1.388126	-0.144371	1.094736
Cl282	Cl	1.721459	0.188962	1.428069
Cl283	Cl	1.229802	-0.300607	0.918353
Cl284	Cl	1.563136	0.032726	1.251687
Cl285	Cl	1.896469	0.366060	1.585020
