data_functionalizedCrystal
_audit_creation_method	'MofGen! by Chris Wilmer'
_symmetry_space_group_name_H-M	'P1'
_symmetry_Int_Tables_number	1
_symmetry_cell_setting	triclinic
loop_
_symmetry_equiv_pos_as_xyz
  x,y,z
_cell_length_a	16.959455
_cell_length_b	21.295417
_cell_length_c	16.959447
_cell_angle_alpha	90.034146
_cell_angle_beta	90.014322
_cell_angle_gamma	90.026649
loop_
_atom_site_label
_atom_site_type_symbol
_atom_site_fract_x
_atom_site_fract_y
_atom_site_fract_z
Zn1	Zn	1.208331	-0.250648	0.446888
Zn2	Zn	1.208231	-0.355925	0.314700
Zn3	Zn	1.076159	-0.250668	0.314725
Zn4	Zn	1.076102	-0.355878	0.446839
O5	O	1.142206	-0.303280	0.380788
O6	O	1.318929	-0.264625	0.429363
O7	O	1.190694	-0.341990	0.204093
O8	O	1.093758	-0.162576	0.332288
O9	O	1.318855	-0.341971	0.332245
O10	O	1.190864	-0.162561	0.429387
O11	O	1.093661	-0.264658	0.204111
O12	O	0.965541	-0.264613	0.332240
O13	O	1.093660	-0.341891	0.557456
O14	O	0.965499	-0.341910	0.429304
O15	O	1.190808	-0.264579	0.557492
O16	O	1.190638	-0.444008	0.332198
O17	O	1.093563	-0.443973	0.429280
C18	C	0.936840	-0.303259	0.380770
C19	C	0.848983	-0.303265	0.380781
C20	C	0.477505	-0.262998	0.330353
C21	C	0.477510	-0.343613	0.431269
C22	C	0.560056	-0.343604	0.431264
C23	C	0.601330	-0.303292	0.380802
C24	C	0.560058	-0.262989	0.330345
C25	C	0.601333	-0.383911	0.481714
C26	C	0.683884	-0.383904	0.481711
C27	C	0.725160	-0.343588	0.431252
C28	C	0.683884	-0.303283	0.380794
C29	C	0.725158	-0.262971	0.330332
C30	C	0.683883	-0.222662	0.279877
C31	C	0.601334	-0.222673	0.279886
C32	C	0.807709	-0.343577	0.431243
C33	C	0.807711	-0.262962	0.330324
C34	C	1.142105	-0.466831	0.380748
C35	C	1.142134	-0.536799	0.380757
C36	C	1.192668	-0.569601	0.431353
C37	C	1.192696	-0.635344	0.431372
C38	C	1.142198	-0.668282	0.380782
C39	C	1.091654	-0.635472	0.330183
C40	C	1.091622	-0.569731	0.330170
N41	N	1.136233	-0.771547	0.311606
N42	N	1.136268	-0.833998	0.311620
C43	C	1.142291	-0.866356	0.380818
N44	N	1.148292	-0.833904	0.450002
N45	N	1.148261	-0.771447	0.449987
C46	C	1.142227	-0.739567	0.380790
C47	C	1.192858	-0.970444	0.431439
C48	C	1.192880	-1.036188	0.431460
C49	C	1.091842	-1.036315	0.330263
C50	C	1.091816	-0.970572	0.330249
C51	C	1.142328	-0.937641	0.380836
C52	C	1.348374	-0.303301	0.380807
C53	C	1.436231	-0.303310	0.380815
C54	C	1.142239	-0.303228	0.586956
C55	C	1.142253	-0.303205	0.674813
C56	C	1.142328	-0.139089	0.380845
C57	C	1.142381	-0.069121	0.380870
C58	C	1.142219	-0.303286	0.175422
C59	C	1.142358	-0.303131	0.087566
C60	C	1.091767	-0.343392	1.046273
C61	C	1.192928	-0.262886	1.046305
C62	C	1.192907	-0.262900	0.963759
C63	C	1.142316	-0.303160	0.922466
C64	C	1.091746	-0.343407	0.963719
C65	C	1.243482	-0.222658	0.922500
C66	C	1.243463	-0.222670	0.839949
C67	C	1.192867	-0.262928	0.798654
C68	C	1.142295	-0.303176	0.839912
C69	C	1.091704	-0.343437	0.798619
C70	C	1.041126	-0.383682	0.839876
C71	C	1.041150	-0.383665	0.922425
C72	C	1.192844	-0.262945	0.716106
C73	C	1.091683	-0.343453	0.716066
H74	H	0.567722	-0.416735	0.522792
H75	H	0.567721	-0.189857	0.238807
H76	H	1.050478	-0.376232	0.682451
F77	F	1.246660	-1.071098	0.485322
H78	H	1.050537	-0.662294	0.288994
H79	H	1.050721	-1.063132	0.289077
F80	F	1.246673	-0.220119	0.672201
H81	H	0.717483	-0.416725	0.522795
H82	H	1.050670	-0.943863	0.289046
F83	F	1.037834	-0.534819	0.276318
H84	H	0.443895	-0.230178	0.289275
H85	H	0.443899	-0.376437	0.472348
H86	H	0.841311	-0.230131	0.289236
F87	F	0.987289	-0.426532	0.795920
F88	F	1.297326	-0.179817	0.966451
F89	F	1.246487	-0.670261	0.485222
F90	F	1.297289	-0.179836	0.796048
F91	F	0.851633	-0.386477	0.484932
F92	F	1.246424	-0.534557	0.485196
H93	H	1.233985	-0.943630	0.472632
H94	H	0.999975	-0.416433	0.956023
H95	H	1.234121	-0.230111	1.079931
F96	F	0.727819	-0.179764	0.226169
F97	F	1.037939	-0.386220	1.090180
