data_functionalizedCrystal
_audit_creation_method	'MofGen! by Chris Wilmer'
_symmetry_space_group_name_H-M	'P1'
_symmetry_Int_Tables_number	1
_symmetry_cell_setting	triclinic
loop_
_symmetry_equiv_pos_as_xyz
  x,y,z
_cell_length_a	16.109301
_cell_length_b	15.625429
_cell_length_c	15.186229
_cell_angle_alpha	71.919106
_cell_angle_beta	89.999006
_cell_angle_gamma	83.866959
loop_
_atom_site_label
_atom_site_type_symbol
_atom_site_fract_x
_atom_site_fract_y
_atom_site_fract_z
O1	O	1.103292	0.115880	-0.110177
O2	O	1.603292	0.615880	0.389823
O3	O	0.861250	0.130301	-0.114794
O4	O	1.361250	0.630301	0.385206
O5	O	0.988738	-0.008148	-0.070579
O6	O	1.488738	0.491852	0.429421
O7	O	0.975804	0.254328	-0.154392
O8	O	1.475804	0.754328	0.345608
O9	O	0.988729	-0.008150	0.075879
O10	O	1.488729	0.491850	0.575879
O11	O	0.861241	0.130299	0.031664
O12	O	1.361241	0.630299	0.531664
O13	O	1.103283	0.115878	0.036281
O14	O	1.603283	0.615878	0.536281
Zn15	Zn	0.982261	0.123088	0.057226
Zn16	Zn	1.482261	0.623088	0.557226
Zn17	Zn	0.982272	0.123090	-0.135739
Zn18	Zn	1.482272	0.623090	0.364261
O19	O	0.975795	0.254327	-0.007934
O20	O	1.475795	0.754327	0.492066
C21	C	0.830270	0.129715	-0.041380
C22	C	1.330270	0.629715	0.458620
C23	C	0.737972	0.127964	-0.040825
C24	C	1.237972	0.627964	0.459175
C25	C	0.429080	0.204391	-0.065215
C26	C	0.929080	0.704391	0.434785
C27	C	0.515803	0.206045	-0.065748
C28	C	1.015803	0.706045	0.434252
C29	C	0.535447	0.041781	-0.013307
C30	C	1.035447	0.541781	0.486693
C31	C	0.448726	0.040128	-0.012780
C32	C	0.948726	0.540128	0.487220
C33	C	0.395545	0.121436	-0.038731
C34	C	0.895545	0.621436	0.461269
C35	C	0.568988	0.124743	-0.039790
C36	C	1.068988	0.624743	0.460210
C37	C	0.663017	0.126535	-0.040368
C38	C	1.163017	0.626535	0.459632
C39	C	0.301510	0.119643	-0.038154
C40	C	0.801510	0.619643	0.461846
C41	C	0.988148	-0.041736	0.013373
C42	C	1.488148	0.458264	0.513373
C43	C	0.986394	-0.141815	0.045324
C44	C	1.486394	0.358185	0.545324
C45	C	0.980624	-0.470959	-0.248731
C46	C	1.480624	0.029041	0.251269
C47	C	0.978972	-0.564998	-0.218681
C48	C	1.478972	-0.064998	0.281319
C49	C	0.978963	-0.564987	-0.059022
C50	C	1.478963	-0.064987	0.440978
C51	C	0.980619	-0.470946	-0.089059
C52	C	1.480619	0.029054	0.410941
C53	C	0.981448	-0.423940	-0.183914
C54	C	1.481448	0.076060	0.316086
C55	C	0.981444	-0.423927	-0.024243
C56	C	1.481444	0.076073	0.475757
C57	C	0.983095	-0.329894	-0.054278
C58	C	1.483095	0.170106	0.445722
C59	C	0.983922	-0.282881	-0.149129
C60	C	1.483922	0.217119	0.350871
C61	C	0.983100	-0.329907	-0.213949
C62	C	1.483100	0.170093	0.286051
C63	C	0.980608	-0.470934	0.070612
C64	C	1.480608	0.029066	0.570612
C65	C	0.981433	-0.423915	0.135428
C66	C	1.481433	0.076085	0.635428
C67	C	0.983090	-0.329881	0.105394
C68	C	1.483090	0.170119	0.605394
C69	C	0.983918	-0.282868	0.010543
C70	C	1.483918	0.217132	0.510543
C71	C	0.983913	-0.282855	0.170214
C72	C	1.483913	0.217145	0.670214
C73	C	0.985564	-0.188822	0.140180
C74	C	1.485564	0.311178	0.640180
C75	C	0.985569	-0.188835	-0.019492
C76	C	1.485569	0.311165	0.480508
C77	C	1.134263	0.116463	-0.037135
C78	C	1.634263	0.616463	0.462865
C79	C	1.226561	0.118214	-0.037696
C80	C	1.726561	0.618214	0.462304
C81	C	0.976385	0.287915	-0.091888
C82	C	1.476385	0.787915	0.408112
C83	C	0.978139	0.387994	-0.123845
C84	C	1.478139	0.887994	0.376155
N85	N	0.982259	0.123086	0.188919
N86	N	1.482259	0.623086	0.688919
N87	N	0.982280	0.123086	-0.267430
N88	N	1.482280	0.623086	0.232570
C89	C	1.038730	0.061801	0.434214
C90	C	1.538730	0.561801	0.934214
C91	C	1.038733	0.061799	0.526404
C92	C	1.538733	0.561799	1.026404
C93	C	0.925803	0.184373	0.487268
C94	C	1.425803	0.684373	0.987268
C95	C	0.925797	0.184370	0.395081
C96	C	1.425797	0.684370	0.895081
C97	C	0.982265	0.123085	0.368556
C98	C	1.482265	0.623085	0.868556
C99	C	0.982274	0.123086	0.552933
C100	C	1.482274	0.623086	1.052933
C101	C	0.982276	0.123084	0.652890
C102	C	1.482276	0.623084	1.152890
C103	C	0.982262	0.123086	0.268593
C104	C	1.482262	0.623086	0.768593
H105	H	0.986252	-0.150560	-0.096732
H106	H	1.486252	0.349440	0.403268
C107	C	0.986476	-0.137098	0.211481
C108	C	1.486476	0.362902	0.711481
N109	N	0.987162	-0.098140	0.265188
N110	N	1.487162	0.401860	0.765188
C111	C	0.552687	0.297303	-0.094876
C112	C	1.052687	0.797303	0.405124
N113	N	0.580467	0.366043	-0.116814
N114	N	1.080467	0.866043	0.383186
H115	H	0.978293	-0.603277	-0.271470
H116	H	1.478293	-0.103277	0.228530
H117	H	1.084709	0.011898	0.412621
H118	H	1.584709	0.511898	0.912621
H119	H	1.084710	0.011895	0.579862
H120	H	1.584710	0.511895	1.079862
H121	H	0.985258	-0.206312	-0.173582
H122	H	1.485258	0.293688	0.326418
H123	H	0.879829	0.234271	0.508874
H124	H	1.379829	0.734271	1.008874
H125	H	0.879813	0.234275	0.341617
H126	H	1.379813	0.734275	0.841617
H127	H	0.983783	-0.291632	-0.291189
H128	H	1.483783	0.208368	0.208811
H129	H	0.385781	0.270598	-0.086346
H130	H	0.885781	0.770598	0.413654
H131	H	0.578758	-0.024417	0.007823
H132	H	1.078758	0.475583	0.507823
C133	C	0.981540	-0.419247	-0.353077
C134	C	1.481540	0.080753	0.146923
N135	N	0.982228	-0.380297	-0.431667
N136	N	1.482228	0.119703	0.068333
H137	H	0.421423	-0.027429	0.008785
H138	H	0.921423	0.472571	0.508785
H139	H	0.978284	-0.603272	0.018209
H140	H	1.478284	-0.103272	0.518209
H141	H	0.979254	-0.547500	0.095063
H142	H	1.479254	-0.047500	0.595063
H143	H	0.980754	-0.462200	0.212660
H144	H	1.480754	0.037800	0.712660
H145	H	0.983229	-0.321140	0.247445
H146	H	1.483229	0.178860	0.747445
