data_functionalizedCrystal
_audit_creation_method	'MofGen! by Chris Wilmer'
_symmetry_space_group_name_H-M	'P1'
_symmetry_Int_Tables_number	1
_symmetry_cell_setting	triclinic
loop_
_symmetry_equiv_pos_as_xyz
  x,y,z
_cell_length_a	13.635800
_cell_length_b	23.752963
_cell_length_c	10.943624
_cell_angle_alpha	84.939885
_cell_angle_beta	108.838799
_cell_angle_gamma	79.933268
loop_
_atom_site_label
_atom_site_type_symbol
_atom_site_fract_x
_atom_site_fract_y
_atom_site_fract_z
V1	V	2.035767	-0.079147	0.403309
O2	O	2.037663	0.003819	0.394852
O3	O	2.003135	-0.156950	0.401300
O4	O	2.025088	-0.077923	0.578863
O5	O	2.015557	-0.075756	0.216059
V6	V	2.276921	-0.069224	0.380821
O7	O	2.167728	-0.100914	0.452637
O8	O	2.370060	-0.047458	0.331493
O9	O	2.197950	0.008579	0.382830
O10	O	2.333724	-0.152190	0.389278
O11	O	2.355830	-0.072616	0.568070
O12	O	2.175997	-0.070449	0.205266
V13	V	2.535767	-0.079147	0.403309
O14	O	2.537663	0.003819	0.394852
O15	O	2.503135	-0.156950	0.401300
O16	O	2.525088	-0.077923	0.578863
O17	O	2.515557	-0.075756	0.216059
V18	V	2.776921	-0.069224	0.380821
O19	O	2.667728	-0.100914	0.452637
O20	O	2.870060	-0.047458	0.331493
O21	O	2.697950	0.008579	0.382830
O22	O	2.833724	-0.152190	0.389278
O23	O	2.855830	-0.072616	0.568070
O24	O	2.675997	-0.070449	0.205266
C25	C	1.923146	-0.175917	0.395131
C26	C	1.937199	-0.239523	0.394659
C27	C	1.996127	-0.625769	0.273280
C28	C	2.009341	-0.685532	0.272819
O29	O	1.992156	-0.709497	0.171966
N30	N	2.044229	-0.723587	0.390902
C31	C	2.065914	-0.701878	0.509456
O32	O	2.096803	-0.739735	0.609853
C33	C	2.052707	-0.642116	0.509917
C34	C	2.017807	-0.604063	0.391824
C35	C	1.961231	-0.587716	0.155197
C36	C	1.948016	-0.527957	0.155659
C37	C	1.969696	-0.506251	0.274204
C38	C	2.004592	-0.544304	0.392286
C39	C	2.074399	-0.620408	0.628469
C40	C	2.061189	-0.560641	0.628920
C41	C	2.026289	-0.522588	0.510828
C42	C	2.013057	-0.462839	0.511292
N43	N	1.978169	-0.424783	0.393208
C44	C	1.956489	-0.446489	0.274664
C45	C	2.093650	-0.827381	0.508480
C46	C	2.106850	-0.887141	0.508020
C47	C	2.050278	-0.870791	0.271382
C48	C	2.037071	-0.811029	0.271843
C49	C	2.058762	-0.789325	0.390396
C50	C	1.928737	-0.320992	0.275643
C51	C	1.915519	-0.261229	0.276115
C52	C	1.972097	-0.277584	0.512752
C53	C	1.985309	-0.337342	0.512281
C54	C	1.963629	-0.359044	0.393716
O55	O	2.030226	-0.438832	0.612094
O56	O	1.925615	-0.408627	0.174285
C57	C	1.951150	-0.075109	0.621629
C58	C	1.983005	-0.074623	0.765151
C59	C	2.109609	0.027543	0.388995
C60	C	2.085176	0.091147	0.389475
C61	C	2.081606	-0.073264	0.162494
C62	C	2.039370	-0.073747	0.018971
C63	C	2.423146	-0.175917	0.395131
C64	C	2.437199	-0.239523	0.394659
C65	C	2.451150	-0.075109	0.621629
C66	C	2.483005	-0.074623	0.765151
C67	C	1.906329	-0.071350	0.842267
C68	C	1.987513	-0.119940	0.948722
C69	C	1.958591	-0.025172	0.914428
C70	C	2.063782	-0.123259	0.869730
C71	C	2.034832	-0.028448	0.835412
C72	C	2.116081	-0.077053	0.941838
C73	C	2.609609	0.027543	0.388995
C74	C	2.585176	0.091147	0.389475
C75	C	2.581606	-0.073264	0.162494
C76	C	2.539370	-0.073747	0.018971
C77	C	2.535050	-0.272309	0.400916
C78	C	2.548273	-0.332075	0.400492
C79	C	2.463641	-0.359052	0.393802
C80	C	2.365783	-0.326261	0.387549
C81	C	2.352564	-0.266497	0.387982
C82	C	2.659819	0.123934	0.383222
C83	C	2.636868	0.183699	0.383652
C84	C	2.539277	0.210676	0.390345
C85	C	2.464628	0.177885	0.396595
C86	C	2.487576	0.118122	0.396155
C87	C	2.406329	-0.071350	0.842267
C88	C	2.487513	-0.119940	0.948722
C89	C	2.458591	-0.025172	0.914428
C90	C	2.563782	-0.123259	0.869730
C91	C	2.534832	-0.028448	0.835412
C92	C	2.616081	-0.077053	0.941838
H93	H	1.887096	-0.230247	0.179945
F94	F	1.999930	-0.770535	0.146155
F95	F	2.060490	0.022110	0.770898
H96	H	2.426791	0.091431	0.401259
H97	H	2.474420	-0.407716	0.393451
H98	H	2.205065	-0.079475	0.985105
F99	F	2.560490	0.022110	0.770898
F100	F	2.111491	-0.660893	0.754158
F101	F	2.290067	-0.068282	0.785442
F102	F	1.961802	-0.170496	1.013189
H103	H	2.078865	-0.542974	0.725463
F104	F	2.461802	-0.170496	1.013189
F105	F	2.275719	-0.354980	0.380425
H106	H	2.607948	-0.164759	0.849583
H107	H	1.914427	0.016272	0.934794
F108	F	2.732389	-0.080217	0.998393
H109	H	2.107948	-0.164759	0.849583
F110	F	2.763691	0.095234	0.376099
H111	H	2.603971	-0.250352	0.406356
F112	F	2.652427	-0.366963	0.407143
F113	F	1.790067	-0.068282	0.785442
H114	H	2.697664	0.210389	0.378564
F115	F	2.360765	0.206605	0.403710
H116	H	2.520604	0.259339	0.390701
F117	F	2.400865	0.029013	0.940990
H118	H	1.911081	-0.338654	0.179096
F119	F	1.910880	-0.487465	0.029968
H120	H	1.943576	-0.605381	0.058659
F121	F	2.027207	-0.893902	0.145216
H122	H	2.272880	-0.239806	0.382880
H123	H	2.135251	-0.918120	0.604182
F124	F	2.022488	-0.377844	0.637969
F125	F	1.995160	-0.254472	0.638909
F126	F	2.116730	-0.804287	0.634668
