data_functionalizedCrystal
_audit_creation_method	'MofGen! by Chris Wilmer'
_symmetry_space_group_name_H-M	'P1'
_symmetry_Int_Tables_number	1
_symmetry_cell_setting	triclinic
loop_
_symmetry_equiv_pos_as_xyz
  x,y,z
_cell_length_a	14.446369
_cell_length_b	14.628931
_cell_length_c	14.628931
_cell_angle_alpha	60.000000
_cell_angle_beta	90.000536
_cell_angle_gamma	59.998591
loop_
_atom_site_label
_atom_site_type_symbol
_atom_site_fract_x
_atom_site_fract_y
_atom_site_fract_z
Zr1	Zr	0.891772	1.000530	-0.119930
O2	O	0.743964	1.191243	-0.265896
O3	O	0.937084	0.809822	-0.075183
O4	O	0.937084	1.000527	-0.265889
O5	O	0.743963	1.000538	0.075241
O6	O	1.089421	1.000519	-0.265883
O7	O	0.743963	1.000538	-0.075190
O8	O	1.089420	0.659382	0.075254
O9	O	0.743964	1.341675	-0.265896
O10	O	1.070096	0.888255	-0.056095
O11	O	0.956408	0.888261	0.056166
O12	O	0.956409	1.112792	-0.168365
O13	O	0.842721	1.112798	-0.056104
Zr14	Zr	1.134732	1.000517	0.120000
Zr15	Zr	1.134733	1.000517	-0.119921
Zr16	Zr	0.891772	1.000531	0.119992
Zr17	Zr	0.891773	1.240451	-0.119930
Zr18	Zr	1.134732	0.760596	0.120001
O19	O	1.089421	1.191225	0.075254
O20	O	1.089422	1.191224	-0.265883
O21	O	0.743963	1.191244	0.075241
O22	O	1.282541	0.809804	0.265967
O23	O	1.282542	0.809803	-0.075170
O24	O	0.937083	0.809823	0.265954
O25	O	1.282542	1.000509	-0.075171
O26	O	1.089420	1.000520	0.265959
O27	O	0.937083	1.000528	0.265954
O28	O	1.282542	1.000509	0.075261
O29	O	0.937085	1.341664	-0.265889
O30	O	1.089420	0.659383	0.265960
O31	O	1.282541	0.659372	0.265967
O32	O	1.282541	0.659372	0.075261
O33	O	0.743963	1.341675	-0.075191
O34	O	0.937084	1.341665	-0.075184
O35	O	1.070096	0.888255	0.168436
O36	O	1.183783	0.888249	0.056174
O37	O	1.070096	1.112786	-0.056095
O38	O	0.956409	1.112792	0.056166
C39	C	1.013252	0.700418	0.000036
C40	C	1.013252	0.598565	0.000036
C41	C	1.069648	0.553153	-0.055653
C42	C	1.069650	0.447883	-0.055654
C43	C	0.709346	1.000540	0.000024
C44	C	0.606203	1.000546	0.000021
C45	C	0.387835	1.142146	-0.070431
C46	C	0.495067	1.142242	-0.070827
C47	C	0.602880	0.930204	-0.051626
C48	C	0.495111	0.931103	-0.052143
C49	C	0.496474	0.928187	0.122209
C50	C	0.602443	0.930856	0.122017
C51	C	1.317158	1.000507	0.000046
C52	C	1.420301	1.000502	0.000050
C53	C	1.013253	1.000523	-0.300069
C54	C	1.013253	1.000522	-0.401922
C55	C	1.013253	1.300629	0.000035
C56	C	1.013253	1.402482	0.000035
C57	C	0.956856	1.111908	-0.503025
C58	C	0.956855	1.111910	-0.608296
C59	C	1.013252	1.000524	0.300140
C60	C	1.013252	1.000525	0.401993
C61	C	1.317158	0.700402	0.000047
C62	C	1.420301	0.598543	0.000051
C63	C	1.013251	0.700419	0.300141
C64	C	1.013251	0.598567	0.401994
C65	C	1.317157	0.700403	0.300152
C66	C	1.420300	0.598544	0.402008
C67	C	0.709347	1.300644	-0.300081
C68	C	0.606204	1.402503	-0.401938
C69	C	0.709347	1.300645	0.000024
C70	C	0.606204	1.402504	0.000020
C71	C	1.013253	1.300628	-0.300070
C72	C	1.013253	1.402481	-0.401923
C73	C	1.409888	0.553134	-0.055641
C74	C	1.516491	0.447858	-0.055638
C75	C	1.069648	0.553155	0.503096
C76	C	1.069649	0.447884	0.608368
C77	C	1.522681	0.553130	0.391730
C78	C	1.629286	0.447854	0.497003
H79	H	0.964972	0.559507	0.047715
Br80	Br	1.150140	0.382789	0.752925
Br81	Br	1.150134	0.618231	-0.135116
H82	H	1.117928	0.408835	-0.103337
Br83	Br	0.932780	0.467551	0.453524
H84	H	0.332850	1.197467	-0.160000
Br85	Br	0.932759	0.467572	0.079497
Br86	Br	1.263496	0.618242	-0.135128
H87	H	0.908566	1.207271	-0.695028
Br88	Br	0.492380	1.234222	-0.013087
Br89	Br	0.601608	1.016316	0.186341
H90	H	0.964964	0.559516	0.393372
H91	H	1.531414	0.592190	0.304995
H92	H	1.507753	0.408804	-0.103314
Br93	Br	0.297899	1.234813	-0.012988
Br94	Br	1.775671	0.382754	0.482615
H95	H	1.061538	0.905163	-0.393300
H96	H	0.605015	0.979061	-0.140666
Br97	Br	1.472486	0.467522	0.612494
Br98	Br	0.542232	0.754268	0.210144
H99	H	0.492620	1.197769	-0.160940
H100	H	1.061531	0.905159	-0.511278
H101	H	0.908580	1.207267	-0.511647
Br102	Br	1.633450	0.467512	0.079544
H103	H	1.508136	0.559485	0.047728
Br104	Br	1.150114	0.618252	0.517482
H105	H	0.681602	0.827480	0.178949
H106	H	1.411571	0.559492	0.488745
H107	H	0.521764	0.827180	-0.004127
Br108	Br	0.411190	1.014431	-0.201970
H109	H	0.446450	0.973508	0.165354
Br110	Br	0.733326	0.756552	0.029814
