data_functionalizedCrystal
_audit_creation_method	'MofGen! by Chris Wilmer'
_symmetry_space_group_name_H-M	'P1'
_symmetry_Int_Tables_number	1
_symmetry_cell_setting	triclinic
loop_
_symmetry_equiv_pos_as_xyz
  x,y,z
_cell_length_a	16.625539
_cell_length_b	12.759401
_cell_length_c	12.759400
_cell_angle_alpha	89.985155
_cell_angle_beta	89.974233
_cell_angle_gamma	90.017397
loop_
_atom_site_label
_atom_site_type_symbol
_atom_site_fract_x
_atom_site_fract_y
_atom_site_fract_z
Zn1	Zn	-0.455855	-1.606244	-0.418260
Zn2	Zn	-0.321029	-1.606142	-0.593961
Zn3	Zn	-0.321043	-1.430549	-0.418297
Zn4	Zn	-0.455826	-1.430535	-0.593898
O5	O	-0.388438	-1.518368	-0.506104
O6	O	-0.437976	-1.753252	-0.441578
O7	O	-0.208198	-1.582812	-0.570701
O8	O	-0.338945	-1.453905	-0.271271
O9	O	-0.338920	-1.753176	-0.570665
O10	O	-0.437991	-1.582987	-0.271244
O11	O	-0.208209	-1.453805	-0.441641
O12	O	-0.338916	-1.283526	-0.441580
O13	O	-0.568662	-1.453880	-0.570557
O14	O	-0.437941	-1.283516	-0.570593
O15	O	-0.568684	-1.582973	-0.441517
O16	O	-0.338891	-1.582798	-0.740974
O17	O	-0.437926	-1.453780	-0.740927
C18	C	-0.388427	-1.245400	-0.506085
C19	C	-0.388442	-1.128624	-0.506102
C20	C	-0.598747	-1.518436	-0.506026
C21	C	-0.688368	-1.518465	-0.505992
C22	C	-0.388421	-1.518305	-0.779071
C23	C	-0.388441	-1.518375	-0.895848
C24	C	-1.016544	-1.518513	-0.505875
C25	C	-0.925236	-1.518497	-0.505911
C26	C	-0.852459	-1.518490	-0.505934
C27	C	-0.761145	-1.518472	-0.505969
C28	C	-0.178947	-1.518360	-0.506106
C29	C	-0.089327	-1.518534	-0.505844
C30	C	-0.388450	-1.792401	-0.506124
C31	C	-0.388455	-1.909177	-0.506133
C32	C	-0.439918	-1.073783	-0.573386
C33	C	-0.439927	-0.964059	-0.573400
C34	C	-0.336976	-0.964025	-0.438841
C35	C	-0.336972	-1.073747	-0.438823
C36	C	-0.491388	-1.128660	-0.640665
C37	C	-0.542869	-1.073819	-0.707956
C38	C	-0.542877	-0.964095	-0.707969
C39	C	-0.491406	-0.909212	-0.640692
C40	C	-0.336931	-1.585629	-0.950699
C41	C	-0.336956	-1.585693	-1.060423
C42	C	-0.440004	-1.451241	-1.060435
C43	C	-0.439982	-1.451182	-0.950713
C44	C	-0.285390	-1.652821	-0.895834
C45	C	-0.233874	-1.720080	-0.950686
C46	C	-0.233899	-1.720144	-1.060410
C47	C	-0.285439	-1.652950	-1.115282
C48	C	-0.388473	-1.518459	-0.232071
C49	C	-0.388488	-1.518498	-0.115294
H50	H	-0.584780	-1.118513	-0.762724
H51	H	-0.584801	-0.919447	-0.762753
H52	H	-0.491424	-0.819867	-0.640699
O53	O	-0.285341	-1.653117	-1.221869
C54	C	-0.228844	-1.726912	-1.258520
H55	H	-0.181729	-1.741621	-1.195324
H56	H	-0.198245	-1.695276	-1.331983
H57	H	-0.260871	-1.803508	-1.277890
O58	O	-0.491378	-1.235244	-0.640845
C59	C	-0.470507	-1.271876	-0.741489
H60	H	-0.484205	-1.208645	-0.802037
H61	H	-0.506843	-1.345299	-0.760219
H62	H	-0.403600	-1.291307	-0.743594
H63	H	-0.481965	-1.396533	-1.105121
O64	O	-0.490132	-1.385910	-0.897534
C65	C	-0.570514	-1.408854	-0.924233
H66	H	-0.572226	-1.449271	-1.003871
H67	H	-0.606627	-1.333011	-0.928000
H68	H	-0.597687	-1.462831	-0.862419
O69	O	-0.286997	-0.910552	-0.373602
C70	C	-0.298051	-0.801949	-0.388032
H71	H	-0.324357	-0.786972	-0.469155
H72	H	-0.237665	-0.760223	-0.380823
H73	H	-0.341067	-0.770831	-0.325787
O74	O	-0.286885	-1.126863	-0.373440
C75	C	-0.241463	-1.054903	-0.314054
H76	H	-0.238620	-0.976680	-0.357089
H77	H	-0.177947	-1.086578	-0.302748
H78	H	-0.271089	-1.043262	-0.234308
O79	O	-0.183785	-1.785448	-0.897550
C80	C	-0.138312	-1.844804	-0.969496
H81	H	-0.171360	-1.848468	-1.047673
H82	H	-0.129754	-1.927569	-0.937732
H83	H	-0.077054	-1.806377	-0.981259
H84	H	-0.191959	-1.774917	-1.105067
O85	O	-0.285289	-1.652926	-0.789250
C86	C	-0.228739	-1.726631	-0.752583
H87	H	-0.217497	-1.788059	-0.815771
H88	H	-0.253076	-1.766439	-0.679120
H89	H	-0.169916	-1.684996	-0.733208
