data_functionalizedCrystal
_audit_creation_method	'MofGen! by Chris Wilmer'
_symmetry_space_group_name_H-M	'P1'
_symmetry_Int_Tables_number	1
_symmetry_cell_setting	triclinic
loop_
_symmetry_equiv_pos_as_xyz
  x,y,z
_cell_length_a	11.792241
_cell_length_b	10.868271
_cell_length_c	11.792254
_cell_angle_alpha	90.001586
_cell_angle_beta	84.196007
_cell_angle_gamma	90.000156
loop_
_atom_site_label
_atom_site_type_symbol
_atom_site_fract_x
_atom_site_fract_y
_atom_site_fract_z
O1	O	1.506916	0.102203	0.155561
O2	O	1.176576	0.102232	0.171594
O3	O	1.349755	0.102208	-0.001592
O4	O	1.333737	0.102227	0.328747
O5	O	1.349739	-0.102436	-0.001586
O6	O	1.176560	-0.102413	0.171600
O7	O	1.506900	-0.102441	0.155567
Zn8	Zn	1.341728	-0.134919	0.163584
Zn9	Zn	1.341748	0.134709	0.163577
O10	O	1.333721	-0.102418	0.328753
C11	C	1.134277	-0.000087	0.170590
C12	C	1.008263	-0.000076	0.167576
N13	N	1.341722	-0.318933	0.163589
C14	C	0.777551	-0.000112	0.162033
C15	C	0.905936	-0.000092	0.165112
C16	C	1.341731	-0.430270	0.163589
C17	C	1.341745	-0.569948	0.163579
C18	C	1.549199	-0.000120	0.156571
C19	C	1.675213	-0.000123	0.159586
C20	C	1.348738	-0.000114	-0.043880
C21	C	1.345718	-0.000112	-0.169893
N22	N	1.341763	0.318724	0.163564
C23	C	1.343264	-0.000108	-0.272229
C24	C	1.340196	-0.000096	-0.400616
C25	C	1.334738	-0.000093	0.371041
C26	C	1.337758	-0.000086	0.497054
