data_functionalizedCrystal
_audit_creation_method	'MofGen! by Chris Wilmer'
_symmetry_space_group_name_H-M	'P1'
_symmetry_Int_Tables_number	1
_symmetry_cell_setting	triclinic
loop_
_symmetry_equiv_pos_as_xyz
  x,y,z
_cell_length_a	14.044220
_cell_length_b	10.540539
_cell_length_c	12.503572
_cell_angle_alpha	93.560877
_cell_angle_beta	86.164750
_cell_angle_gamma	88.857185
loop_
_atom_site_label
_atom_site_type_symbol
_atom_site_fract_x
_atom_site_fract_y
_atom_site_fract_z
O1	O	1.265193	0.299541	-0.089197
O2	O	0.989150	0.288487	-0.089224
O3	O	1.133469	0.109945	-0.089208
O4	O	1.120874	0.478084	-0.089212
O5	O	1.122616	0.123396	0.089432
O6	O	0.978297	0.301939	0.089417
O7	O	1.254339	0.312993	0.089444
Cu8	Cu	1.115327	0.308694	0.105742
Cu9	Cu	1.128163	0.292786	-0.105522
O10	O	1.110020	0.491536	0.089428
C11	C	0.948377	0.290375	0.000093
C12	C	0.843054	0.275945	0.000082
C13	C	0.650213	0.249566	0.000104
C14	C	0.593272	0.351908	0.000107
C15	C	0.485969	0.337231	0.000119
C16	C	0.757526	0.264241	0.000092
C17	C	1.127098	0.069272	0.000110
C18	C	1.124272	-0.071962	0.000104
C19	C	1.016008	-0.266368	-0.000308
C20	C	1.018848	-0.119430	0.000095
C21	C	1.168809	-0.120809	0.102122
C22	C	1.165206	-0.267711	0.102207
C23	C	1.179693	-0.283309	-0.100941
C24	C	1.180746	-0.136331	-0.102289
C25	C	1.295113	0.311105	0.000125
C26	C	1.400436	0.325535	0.000129
C27	C	1.116392	0.532208	0.000108
C28	C	1.119218	0.673442	0.000107
N29	N	1.106306	0.319883	0.254333
N30	N	1.137191	0.281588	-0.254113
C31	C	1.093036	0.336354	0.473447
C32	C	1.150458	0.265121	0.526780
C33	C	1.143074	0.274286	0.648703
C34	C	1.100419	0.327191	0.351513
H35	H	0.983371	-0.086369	-0.073036
H36	H	0.978808	-0.304687	-0.073467
H37	H	1.148208	-0.104908	-0.177759
H38	H	1.205164	0.197256	0.480873
H39	H	0.625111	0.450550	0.000101
O40	O	0.612084	0.131981	0.000055
C41	C	0.468798	0.009974	0.000122
C42	C	0.511868	0.143208	0.000157
H43	H	0.387766	0.019008	0.000227
H44	H	0.497842	-0.049500	-0.074662
H45	H	0.488905	-0.038223	0.074859
H46	H	0.491777	0.191514	-0.074530
H47	H	0.482824	0.202589	0.074991
H48	H	1.038335	0.404216	0.519348
H49	H	1.257982	-0.104802	-0.108442
H50	H	0.970113	-0.295291	0.072433
O51	O	0.965591	-0.068082	0.087559
C52	C	0.866181	-0.107931	0.245990
C53	C	0.926480	-0.166249	0.146984
H54	H	0.834527	-0.187271	0.294050
H55	H	0.913263	-0.047290	0.298501
H56	H	0.806055	-0.046041	0.218665
H57	H	0.986611	-0.228198	0.174212
H58	H	0.879334	-0.226816	0.094494
O59	O	1.121399	-0.067296	0.192719
C60	C	1.131588	0.063270	0.356528
C61	C	1.185399	0.002771	0.253963
H62	H	1.183313	0.119911	0.406083
H63	H	1.072062	0.129363	0.333635
H64	H	1.099556	-0.014764	0.405834
H65	H	1.217491	0.080719	0.204609
H66	H	1.244874	-0.063351	0.276930
O67	O	1.114881	-0.298814	0.193199
C68	C	1.027298	-0.222353	0.357644
C69	C	1.084255	-0.186960	0.254627
H70	H	1.002538	-0.131942	0.407348
H71	H	0.962532	-0.279246	0.335335
H72	H	1.074722	-0.282092	0.406551
H73	H	1.036909	-0.127180	0.205672
H74	H	1.149029	-0.130131	0.277010
H75	H	1.240744	-0.307665	0.106843
H76	H	1.245999	-0.090342	0.105922
H77	H	1.150270	-0.324134	-0.178263
H78	H	1.255882	-0.322888	-0.101619
