data_functionalizedCrystal
_audit_creation_method	'MofGen! by Chris Wilmer'
_symmetry_space_group_name_H-M	'P1'
_symmetry_Int_Tables_number	1
_symmetry_cell_setting	triclinic
loop_
_symmetry_equiv_pos_as_xyz
  x,y,z
_cell_length_a	23.532361
_cell_length_b	23.532357
_cell_length_c	16.053802
_cell_angle_alpha	92.543277
_cell_angle_beta	87.439726
_cell_angle_gamma	82.828980
loop_
_atom_site_label
_atom_site_type_symbol
_atom_site_fract_x
_atom_site_fract_y
_atom_site_fract_z
O1	O	0.757678	0.066601	-0.069355
O2	O	1.257678	0.566601	0.430645
O3	O	0.591810	0.076631	-0.069376
O4	O	1.091810	0.576631	0.430624
O5	O	0.679760	-0.011318	-0.069348
O6	O	1.179760	0.488682	0.430652
O7	O	0.669728	0.154550	-0.069383
O8	O	1.169728	0.654550	0.430617
O9	O	0.674919	-0.006497	0.069510
O10	O	1.174919	0.493503	0.569510
O11	O	0.586969	0.081452	0.069481
O12	O	1.086969	0.581452	0.569481
O13	O	0.752838	0.071422	0.069502
O14	O	1.252838	0.571422	0.569502
Zn15	Zn	0.669135	0.077203	0.091538
Zn16	Zn	1.169135	0.577203	0.591538
Zn17	Zn	0.675513	0.070851	-0.091412
Zn18	Zn	1.175513	0.570851	0.408588
O19	O	0.664887	0.159371	0.069474
O20	O	1.164887	0.659371	0.569474
C21	C	0.568173	0.078791	0.000050
C22	C	1.068173	0.578791	0.500050
C23	C	0.504955	0.078035	0.000042
C24	C	1.004955	0.578035	0.500042
C25	C	0.234351	0.072104	-0.075643
C26	C	0.734351	0.572104	0.424357
C27	C	0.293750	0.072819	-0.075645
C28	C	0.793750	0.572819	0.424355
O29	O	0.326720	0.070934	-0.140016
O30	O	0.826720	0.570934	0.359984
N31	N	0.320817	0.075808	0.000046
N32	N	0.820817	0.575808	0.500046
C33	C	0.288482	0.078076	0.075745
C34	C	0.788482	0.578076	0.575745
O35	O	0.316959	0.080684	0.140126
O36	O	0.816959	0.580684	0.640126
C37	C	0.229084	0.077357	0.075746
C38	C	0.729084	0.577357	0.575746
C39	C	0.202020	0.074374	0.000050
C40	C	0.702020	0.574374	0.500050
C41	C	0.207286	0.069120	-0.151333
C42	C	0.707286	0.569120	0.348667
C43	C	0.147890	0.068406	-0.151331
C44	C	0.647890	0.568406	0.348669
C45	C	0.115559	0.070676	-0.075638
C46	C	0.615559	0.570676	0.424362
C47	C	0.142624	0.073660	0.000052
C48	C	0.642624	0.573660	0.500052
C49	C	0.196750	0.079622	0.151444
C50	C	0.696750	0.579622	0.651444
C51	C	0.137348	0.078902	0.151439
C52	C	0.637348	0.578902	0.651439
C53	C	0.110284	0.075919	0.075742
C54	C	0.610284	0.575919	0.575742
C55	C	0.050897	0.075217	0.075747
C56	C	0.550897	0.575217	0.575747
N57	N	0.023830	0.072227	0.000056
N58	N	0.523830	0.572227	0.500056
C59	C	0.056161	0.069957	-0.075637
C60	C	0.556161	0.569957	0.424363
C61	C	0.413222	0.079585	0.075736
C62	C	0.913222	0.579585	0.575736
C63	C	0.472618	0.080308	0.075736
C64	C	0.972618	0.580308	0.575736
C65	C	0.477883	0.075049	-0.075655
C66	C	0.977883	0.575049	0.424345
C67	C	0.418485	0.074330	-0.075653
C68	C	0.918485	0.574330	0.424347
C69	C	0.386155	0.076596	0.000045
C70	C	0.886155	0.576596	0.500045
C71	C	-0.068574	0.068459	-0.075626
C72	C	0.431426	0.568459	0.424374
C73	C	-0.127976	0.067748	-0.075616
C74	C	0.372024	0.567748	0.424384
C75	C	-0.133235	0.073004	0.075773
C76	C	0.366765	0.573004	0.575773
C77	C	-0.073839	0.073718	0.075765
C78	C	0.426161	0.573718	0.575765
C79	C	-0.041510	0.071443	0.000058
C80	C	0.458490	0.571443	0.500058
O81	O	0.017891	0.077098	0.140086
O82	O	0.517891	0.577098	0.640086
O83	O	0.027678	0.067342	-0.140007
O84	O	0.527678	0.567342	0.359993
C85	C	0.677089	-0.030124	0.000083
C86	C	1.177089	0.469876	0.500083
C87	C	0.676334	-0.093342	0.000091
C88	C	1.176334	0.406658	0.500091
C89	C	0.674238	-0.487982	-0.075646
C90	C	1.174238	0.012018	0.424354
C91	C	0.673520	-0.547381	-0.075650
C92	C	1.173520	-0.047381	0.424350
O93	O	0.675374	-0.580333	-0.140023
O94	O	1.175374	-0.080333	0.359977
N95	N	0.670526	-0.574465	0.000040
N96	N	1.170526	-0.074465	0.500040
C97	C	0.668243	-0.542144	0.075739
C98	C	1.168243	-0.042144	0.575739
O99	O	0.665629	-0.570635	0.140119
O100	O	1.165629	-0.070635	0.640119
C101	C	0.668956	-0.482745	0.075743
C102	C	1.168956	0.017255	0.575743
C103	C	0.671956	-0.455666	0.000048
C104	C	1.171956	0.044334	0.500048
C105	C	0.677237	-0.460902	-0.151334
C106	C	1.177237	0.039098	0.348666
C107	C	0.677955	-0.401507	-0.151329
C108	C	1.177955	0.098493	0.348671
C109	C	0.675674	-0.369191	-0.075635
C110	C	1.175674	0.130809	0.424365
C111	C	0.672674	-0.396271	0.000054
C112	C	1.172674	0.103729	0.500054
C113	C	0.666668	-0.450426	0.151442
C114	C	1.166668	0.049574	0.651442
C115	C	0.667381	-0.391023	0.151440
C116	C	1.167381	0.108977	0.651440
C117	C	0.670382	-0.363944	0.075745
C118	C	1.170382	0.136056	0.575745
C119	C	0.671111	-0.304560	0.075753
C120	C	1.171111	0.195440	0.575753
N121	N	0.674105	-0.277477	0.000063
N122	N	1.174105	0.222523	0.500063
C123	C	0.676387	-0.309793	-0.075631
C124	C	1.176387	0.190207	0.424369
C125	C	0.666745	-0.666886	0.075725
C126	C	1.166745	-0.166886	0.575725
C127	C	0.666036	-0.726284	0.075722
C128	C	1.166036	-0.226284	0.575722
C129	C	0.671312	-0.731517	-0.075668
C130	C	1.171312	-0.231517	0.424332
C131	C	0.672025	-0.672118	-0.075664
C132	C	1.172025	-0.172118	0.424336
C133	C	0.669739	-0.639803	0.000035
C134	C	1.169739	-0.139803	0.500035
C135	C	0.677895	-0.185058	-0.075615
C136	C	1.177895	0.314942	0.424385
C137	C	0.678615	-0.125658	-0.075603
C138	C	1.178615	0.374342	0.424397
C139	C	0.673336	-0.120429	0.075787
C140	C	1.173336	0.379571	0.575787
C141	C	0.672618	-0.179825	0.075776
C142	C	1.172618	0.320175	0.575776
C143	C	0.674897	-0.212138	0.000068
C144	C	1.174897	0.287862	0.500068
O145	O	0.669256	-0.271572	0.140092
O146	O	1.169256	0.228428	0.640092
O147	O	0.678992	-0.281293	-0.140000
O148	O	1.178992	0.218707	0.360000
C149	C	0.776474	0.069263	0.000074
C150	C	1.276474	0.569263	0.500074
C151	C	0.839693	0.070018	0.000076
C152	C	1.339693	0.570018	0.500076
C153	C	0.667559	0.178177	0.000041
C154	C	1.167559	0.678177	0.500041
C155	C	0.668314	0.241395	0.000028
C156	C	1.168314	0.741395	0.500028
N157	N	0.664786	0.081537	0.216397
N158	N	1.164786	0.581537	0.716397
N159	N	0.679866	0.066511	-0.216271
N160	N	1.179866	0.566511	0.283729
C161	C	0.702223	0.044128	0.260103
C162	C	1.202223	0.544128	0.760103
C163	C	0.699186	0.047166	0.347509
C164	C	1.199186	0.547166	0.847509
C165	C	0.658715	0.087616	0.391207
C166	C	1.158715	0.587616	0.891207
C167	C	0.621275	0.125027	0.347495
C168	C	1.121275	0.625027	0.847495
C169	C	0.624309	0.121986	0.260091
C170	C	1.124309	0.621986	0.760091
C171	C	0.645460	0.100882	0.652613
C172	C	1.145460	0.600882	1.152613
C173	C	0.642430	0.103921	0.740023
C174	C	1.142430	0.603921	1.240023
C175	C	0.720341	0.026059	0.740031
C176	C	1.220341	0.526059	1.240031
C177	C	0.723374	0.023024	0.652625
C178	C	1.223374	0.523024	1.152625
C179	C	0.685931	0.060433	0.608920
C180	C	1.185931	0.560433	1.108920
N181	N	0.655611	0.090723	0.480550
N182	N	1.155611	0.590723	0.980550
N183	N	0.689033	0.057323	0.519579
N184	N	1.189033	0.557323	1.019579
H185	H	0.218776	0.082050	0.213084
H186	H	0.718776	0.582050	0.713084
H187	H	0.674468	-0.650075	-0.137302
H188	H	1.174468	-0.150075	0.362698
H189	H	0.588320	0.157960	0.383079
H190	H	1.088320	0.657960	0.883079
F191	F	-0.034175	0.066038	-0.156201
F192	F	0.465825	0.566038	0.343799
F193	F	0.745300	0.001078	0.213605
F194	F	1.245300	0.501078	0.713605
H195	H	0.680396	-0.379465	-0.212968
H196	H	1.180396	0.120535	0.287032
H197	H	0.233605	0.067269	-0.212975
H198	H	0.733605	0.567269	0.287025
F199	F	0.663473	-0.479232	0.232009
F200	F	1.163473	0.020768	0.732009
F201	F	0.584462	0.161801	0.213577
F202	F	1.084462	0.661801	0.713577
H203	H	0.670181	-0.201875	0.137413
H204	H	1.170181	0.298125	0.637413
H205	H	0.111028	0.080752	0.213082
H206	H	0.611028	0.580752	0.713082
H207	H	0.664884	-0.640578	0.137373
H208	H	1.164884	-0.140578	0.637373
H209	H	0.609472	0.136862	0.775598
H210	H	1.109472	0.636862	1.275598
F211	F	0.739029	0.007350	0.394025
F212	F	1.239029	0.507350	0.894025
F213	F	0.389687	0.071154	-0.156219
F214	F	0.889687	0.571154	0.343781
F215	F	0.680320	-0.219440	-0.156191
F216	F	1.180320	0.280560	0.343809
F217	F	0.664947	-0.356633	0.232012
F218	F	1.164947	0.143367	0.732012
H219	H	0.756328	-0.009914	0.617048
H220	H	1.256328	0.490086	1.117048
F221	F	0.760185	-0.013753	0.786550
F222	F	1.260185	0.486247	1.286550
H223	H	0.494648	0.082747	0.137375
H224	H	0.994648	0.582747	0.637375
F225	F	0.670909	-0.086027	0.156342
F226	F	1.170909	0.413973	0.656342
H227	H	-0.051804	0.076159	0.137403
H228	H	0.448196	0.576159	0.637403
F229	F	0.378818	0.082003	0.156310
F230	F	0.878818	0.582003	0.656310
F231	F	-0.156777	0.064574	-0.156186
F232	F	0.343223	0.564574	0.343814
H233	H	-0.159570	0.074854	0.137400
H234	H	0.340430	0.574854	0.637400
H235	H	0.614974	0.131343	0.617035
H236	H	1.114974	0.631343	1.117035
H237	H	0.504218	0.073200	-0.137288
H238	H	1.004218	0.573200	0.362712
F239	F	0.119095	0.065227	-0.231898
F240	F	0.619095	0.565227	0.268102
F241	F	0.681811	-0.096842	-0.156171
F242	F	1.181811	0.403158	0.343829
F243	F	0.679665	-0.495287	-0.231906
F244	F	1.179665	0.004713	0.268094
H245	H	0.673168	-0.757840	-0.137302
H246	H	1.173168	-0.257840	0.362698
H247	H	0.663601	-0.748328	0.137361
H248	H	1.163601	-0.248328	0.637361
