data_functionalizedCrystal
_audit_creation_method	'MofGen! by Chris Wilmer'
_symmetry_space_group_name_H-M	'P1'
_symmetry_Int_Tables_number	1
_symmetry_cell_setting	triclinic
loop_
_symmetry_equiv_pos_as_xyz
  x,y,z
_cell_length_a	11.792241
_cell_length_b	16.974885
_cell_length_c	15.455313
_cell_angle_alpha	90.969048
_cell_angle_beta	87.311612
_cell_angle_gamma	96.207982
loop_
_atom_site_label
_atom_site_type_symbol
_atom_site_fract_x
_atom_site_fract_y
_atom_site_fract_z
O1	O	-0.144717	1.049683	0.001495
O2	O	-0.162043	0.820326	-0.014591
O3	O	0.011822	0.940571	-0.006163
O4	O	-0.318582	0.929439	-0.006933
O5	O	0.001921	0.933694	0.137617
O6	O	-0.171944	0.813450	0.129189
O7	O	-0.154618	1.042807	0.145275
Cu8	Cu	-0.164185	0.927501	0.150360
Cu9	Cu	-0.152476	0.935633	-0.019676
O10	O	-0.328484	0.922562	0.136847
C11	C	-0.166152	0.787526	0.055240
C12	C	-0.163631	0.700034	0.049103
C13	C	-0.148818	0.207958	0.006088
C14	C	-0.151187	0.290165	0.011866
C15	C	-0.157778	0.327511	0.093130
C16	C	-0.161987	0.282647	0.168621
C17	C	-0.159609	0.200443	0.162843
C18	C	-0.165462	0.572965	0.118816
C19	C	-0.167843	0.655176	0.124589
C20	C	-0.157041	0.662688	-0.032167
C21	C	-0.154670	0.580480	-0.037939
C22	C	-0.158874	0.535624	0.037553
N23	N	-0.160204	0.411540	0.099037
N24	N	-0.156439	0.451598	0.031644
C25	C	-0.365820	0.926700	0.065007
C26	C	-0.491822	0.928792	0.065158
C27	C	-0.722511	0.932642	0.065406
C28	C	-0.594139	0.930503	0.065268
C29	C	0.049159	0.936434	0.065675
C30	C	0.175161	0.934341	0.065519
C31	C	-0.150509	1.075608	0.075443
C32	C	-0.153030	1.163099	0.081574
N33	N	-0.172421	0.921787	0.269956
N34	N	-0.144232	0.941353	-0.139271
C35	C	-0.098584	0.972889	0.318931
C36	C	-0.104822	0.968575	0.409437
C37	C	-0.184904	0.913162	0.450965
C38	C	-0.258744	0.862055	0.401982
C39	C	-0.252499	0.866365	0.311478
C40	C	-0.211827	0.894556	0.721242
C41	C	-0.218069	0.890251	0.811753
C42	C	-0.064145	0.996770	0.819201
C43	C	-0.057912	1.001079	0.728695
C44	C	-0.131748	0.949969	0.679721
N45	N	-0.191285	0.908753	0.543476
N46	N	-0.125361	0.954375	0.587211
H47	H	-0.153617	0.699219	-0.093628
H48	H	-0.312623	0.824752	0.271603
H49	H	-0.323944	0.816933	0.435800
C50	C	-0.293070	0.838359	0.667379
H51	H	-0.277886	0.848857	0.607529
H52	H	-0.369869	0.846547	0.682838
H53	H	-0.281568	0.785001	0.678527
C54	C	-0.164309	0.151089	0.245874
H55	H	-0.161957	0.096782	0.230794
H56	H	-0.233060	0.157302	0.278594
H57	H	-0.100805	0.168729	0.279453
H58	H	-0.004030	1.038381	0.859085
C59	C	-0.141571	0.166880	-0.083302
H60	H	-0.140768	0.111495	-0.075935
H61	H	-0.073616	0.187626	-0.114156
H62	H	-0.205875	0.176168	-0.114958
C63	C	-0.023612	1.024795	0.463307
H64	H	0.024963	1.058422	0.425613
H65	H	0.021322	0.994575	0.496624
H66	H	-0.067027	1.056087	0.500912
C67	C	0.030125	1.062067	0.683019
H68	H	0.023245	1.057331	0.622105
H69	H	0.104911	1.052524	0.697214
H70	H	0.016496	1.113990	0.701551
C71	C	-0.306101	0.829252	0.857430
H72	H	-0.349158	0.799413	0.815300
H73	H	-0.355926	0.856076	0.894747
H74	H	-0.267503	0.794615	0.890412
C75	C	-0.147419	0.539401	-0.127327
H76	H	-0.146618	0.484017	-0.119957
H77	H	-0.079466	0.560145	-0.158185
H78	H	-0.211725	0.548688	-0.158982
H79	H	-0.147750	0.326686	-0.049603
C80	C	-0.175036	0.696260	0.213984
H81	H	-0.177173	0.657775	0.258117
H82	H	-0.242301	0.722455	0.219121
H83	H	-0.110038	0.733893	0.219865
H84	H	-0.168868	0.536454	0.180287
C85	C	-0.169240	0.323726	0.258010
H86	H	-0.170066	0.379108	0.250642
H87	H	-0.104947	0.314441	0.289672
H88	H	-0.237205	0.302977	0.288860
C89	C	-0.010492	1.033842	0.273258
H90	H	0.032596	1.063653	0.315392
H91	H	-0.049013	1.068501	0.240253
H92	H	0.039310	1.006970	0.235963
