data_functionalizedCrystal
_audit_creation_method	'MofGen! by Chris Wilmer'
_symmetry_space_group_name_H-M	'P1'
_symmetry_Int_Tables_number	1
_symmetry_cell_setting	triclinic
loop_
_symmetry_equiv_pos_as_xyz
  x,y,z
_cell_length_a	10.654550
_cell_length_b	17.038272
_cell_length_c	9.730223
_cell_angle_alpha	89.998176
_cell_angle_beta	89.996251
_cell_angle_gamma	87.798229
loop_
_atom_site_label
_atom_site_type_symbol
_atom_site_fract_x
_atom_site_fract_y
_atom_site_fract_z
O1	O	1.678036	0.109875	-0.114405
O2	O	1.313530	0.120343	-0.114384
O3	O	1.493617	0.001281	-0.114383
O4	O	1.497950	0.228936	-0.114406
O5	O	1.493615	0.001284	0.114196
O6	O	1.313528	0.120346	0.114196
O7	O	1.678034	0.109878	0.114175
Zn8	Zn	1.495781	0.115112	0.150477
Zn9	Zn	1.495783	0.115108	-0.150686
O10	O	1.497948	0.228939	0.114174
C11	C	1.266660	0.119576	-0.000091
C12	C	1.127003	0.117276	-0.000082
C13	C	1.489675	-0.027867	-0.000093
C14	C	1.477918	-0.114726	-0.000093
C15	C	1.054026	0.187378	-0.000109
C16	C	0.922804	0.185212	-0.000132
C17	C	0.937548	0.042837	-0.000108
C18	C	1.068767	0.045004	-0.000075
C19	C	1.045513	0.269577	-0.000129
C20	C	0.914292	0.267411	-0.000152
C21	C	1.585862	-0.164237	-0.000098
C22	C	1.574808	-0.245850	-0.000111
C23	C	1.455808	-0.277949	-0.000108
C24	C	1.347856	-0.228431	-0.000107
C25	C	1.358911	-0.146821	-0.000105
C26	C	1.416750	-0.523925	-0.000125
C27	C	1.405702	-0.605542	-0.000123
C28	C	1.632656	-0.622955	-0.000129
C29	C	1.643701	-0.541342	-0.000118
C30	C	1.535749	-0.491831	-0.000124
C31	C	1.444505	-0.361370	-0.000116
C32	C	1.547052	-0.408412	-0.000126
C33	C	1.724905	0.110645	-0.000121
C34	C	1.864562	0.112944	-0.000139
C35	C	1.501889	0.258088	-0.000119
C36	C	1.513646	0.344947	-0.000128
N37	N	1.495788	0.115115	0.356014
N38	N	1.495785	0.115100	-0.356223
C39	C	1.575554	0.062412	0.427940
C40	C	1.575550	0.062402	0.571823
C41	C	1.416010	0.167805	0.571841
C42	C	1.416009	0.167810	0.427961
C43	C	1.667667	0.001561	0.427931
C44	C	1.667663	0.001551	0.571814
H45	H	0.890116	-0.016005	-0.000123
H46	H	1.662708	-0.286159	-0.000112
H47	H	1.760620	0.020614	0.383297
H48	H	1.740603	-0.515213	-0.000120
H49	H	1.077829	0.301726	0.095534
H50	H	1.351055	0.210708	0.630436
C51	C	0.862313	0.308572	-0.127768
C52	C	0.794813	0.255548	-0.205827
C53	C	0.746902	0.293438	-0.323381
H54	H	0.929649	0.327244	-0.181060
H55	H	0.808242	0.351566	-0.101261
H56	H	0.848881	0.212568	-0.232336
H57	H	0.727459	0.236873	-0.152576
H58	H	0.692831	0.336432	-0.296874
H59	H	0.814245	0.312109	-0.376661
H60	H	0.701088	0.257469	-0.376352
C61	C	1.096222	0.304632	-0.131625
C62	C	1.047499	0.381634	-0.146835
C63	C	1.094196	0.413953	-0.267945
H64	H	1.071909	0.273988	-0.207990
H65	H	1.185271	0.304979	-0.127083
H66	H	0.958469	0.381283	-0.151388
H67	H	1.071808	0.412299	-0.070500
H68	H	1.183246	0.414300	-0.263403
H69	H	1.069881	0.383303	-0.344300
H70	H	1.061154	0.466204	-0.278274
H71	H	1.271011	-0.106509	-0.000101
H72	H	1.720544	-0.663275	-0.000126
C73	C	1.329605	0.225070	0.349698
C74	C	1.401641	0.273343	0.267071
C75	C	1.322086	0.326097	0.194945
H76	H	1.282072	0.256527	0.413003
H77	H	1.274316	0.196647	0.293491
H78	H	1.456908	0.301763	0.323273
H79	H	1.449171	0.241908	0.203740
H80	H	1.266797	0.297675	0.138738
H81	H	1.274558	0.357548	0.258260
H82	H	1.370950	0.358852	0.138865
C83	C	1.299397	-0.470309	-0.000040
C84	C	1.192821	-0.515891	0.000009
C85	C	1.084689	-0.466524	0.000111
H86	H	1.298805	-0.438090	-0.079727
H87	H	1.298924	-0.438126	0.079706
H88	H	1.193294	-0.548061	-0.079729
H89	H	1.193372	-0.548109	0.079689
H90	H	1.084216	-0.434340	0.079856
H91	H	1.084110	-0.434307	-0.079577
H92	H	1.012365	-0.497444	0.000156
C93	C	1.218733	-0.263388	-0.000319
C94	C	1.205772	-0.309747	-0.117898
C95	C	1.086846	-0.341968	-0.118127
H96	H	1.155909	-0.222293	-0.000388
H97	H	1.209686	-0.294908	0.079352
H98	H	1.214806	-0.278229	-0.197549
H99	H	1.268567	-0.350854	-0.117854
H100	H	1.077799	-0.373488	-0.038455
H101	H	1.024032	-0.300868	-0.118192
H102	H	1.078040	-0.373432	-0.197896
H103	H	1.631874	-0.055271	0.616437
H104	H	0.870926	0.292254	0.098529
H105	H	1.682764	-0.138109	-0.000092
C106	C	1.676169	-0.373456	-0.000342
C107	C	1.689134	-0.327093	-0.117923
C108	C	1.808053	-0.294863	-0.118154
H109	H	1.739001	-0.414547	-0.000412
H110	H	1.685202	-0.341938	0.079328
H111	H	1.680114	-0.358609	-0.197572
H112	H	1.626331	-0.285990	-0.117878
H113	H	1.817086	-0.263344	-0.038483
H114	H	1.870875	-0.335958	-0.118219
H115	H	1.816861	-0.263396	-0.197923
H116	H	1.308794	-0.631674	-0.000099
C117	C	1.631540	-0.078650	0.376122
C118	C	1.609443	-0.127721	0.488274
C119	C	1.576143	-0.201610	0.440600
H120	H	1.697907	-0.100979	0.321910
H121	H	1.557551	-0.073156	0.321932
H122	H	1.683423	-0.133217	0.542441
H123	H	1.543070	-0.105416	0.542496
H124	H	1.502155	-0.196116	0.386410
H125	H	1.642515	-0.223932	0.386389
H126	H	1.561135	-0.234911	0.516687
C127	C	1.798074	0.019468	0.623618
C128	C	1.877848	0.030437	0.511463
C129	C	1.997982	0.046951	0.559132
H130	H	1.830010	-0.023157	0.677812
H131	H	1.793518	0.065867	0.677825
H132	H	1.882409	-0.015956	0.457279
H133	H	1.845953	0.073064	0.457258
H134	H	1.993426	0.093350	0.613338
H135	H	2.029905	0.004323	0.613326
H136	H	2.052121	0.054402	0.483043
H137	H	1.128180	-0.012080	-0.000033
H138	H	1.347615	-0.387514	-0.000111
