data_functionalizedCrystal
_audit_creation_method	'MofGen! by Chris Wilmer'
_symmetry_space_group_name_H-M	'P1'
_symmetry_Int_Tables_number	1
_symmetry_cell_setting	triclinic
loop_
_symmetry_equiv_pos_as_xyz
  x,y,z
_cell_length_a	10.654550
_cell_length_b	15.944551
_cell_length_c	9.730223
_cell_angle_alpha	89.997716
_cell_angle_beta	89.996251
_cell_angle_gamma	83.991820
loop_
_atom_site_label
_atom_site_type_symbol
_atom_site_fract_x
_atom_site_fract_y
_atom_site_fract_z
O1	O	1.666308	0.117973	-0.114406
O2	O	1.300684	0.129213	-0.114384
O3	O	1.493480	0.001376	-0.114384
O4	O	1.473511	0.245810	-0.114407
O5	O	1.493478	0.001379	0.114196
O6	O	1.300681	0.129216	0.114196
O7	O	1.666305	0.117976	0.114174
Zn8	Zn	1.483493	0.123597	0.150477
Zn9	Zn	1.483496	0.123592	-0.150687
O10	O	1.473509	0.245813	0.114173
C11	C	1.253895	0.128389	-0.000092
C12	C	1.114484	0.125920	-0.000083
C13	C	1.492650	-0.029921	-0.000093
C14	C	1.490165	-0.123182	-0.000092
C15	C	1.034024	0.201188	-0.000110
C16	C	0.903034	0.198863	-0.000134
C17	C	0.932975	0.045995	-0.000108
C18	C	1.063963	0.048321	-0.000075
C19	C	1.016737	0.289446	-0.000131
C20	C	0.885746	0.287121	-0.000154
C21	C	1.364720	-0.338765	-0.000104
C22	C	1.422971	-0.399443	0.112596
C23	C	1.485668	-0.293934	-0.000103
C24	C	1.423002	-0.399430	-0.112765
C25	C	1.481317	-0.458872	-0.000119
C26	C	1.543953	-0.353384	0.112691
C27	C	1.543967	-0.353364	-0.112772
C28	C	1.602306	-0.414024	-0.000045
C29	C	1.488172	-0.198917	-0.000092
C30	C	1.478822	-0.553887	-0.000119
C31	C	1.713094	0.118800	-0.000122
C32	C	1.852505	0.121269	-0.000140
C33	C	1.474339	0.277110	-0.000120
C34	C	1.476824	0.370371	-0.000130
N35	N	1.483500	0.123599	0.356013
N36	N	1.483499	0.123583	-0.356224
C37	C	1.568892	0.067012	0.427939
C38	C	1.568889	0.067002	0.571822
C39	C	1.398098	0.180173	0.571840
C40	C	1.398096	0.180178	0.427959
C41	C	1.667501	0.001676	0.427931
C42	C	1.667498	0.001666	0.571814
H43	H	1.129470	-0.012970	-0.000033
C44	C	1.851053	-0.046431	0.704467
C45	C	1.797526	0.021092	0.624539
H46	H	1.931325	-0.034439	0.737011
H47	H	1.797538	-0.054429	0.780382
H48	H	1.860615	-0.096217	0.650203
H49	H	1.787955	0.070877	0.678806
H50	H	1.851054	0.029100	0.548613
C51	C	1.601106	-0.134794	0.524891
C52	C	1.627428	-0.080707	0.632068
H53	H	1.576389	-0.185650	0.562095
H54	H	1.534677	-0.108316	0.469976
H55	H	1.674410	-0.147107	0.469930
H56	H	1.554121	-0.068389	0.687024
H57	H	1.693862	-0.107190	0.687007
C58	C	0.948385	0.361968	0.207307
C59	C	1.055743	0.336039	0.129009
H60	H	0.972470	0.390726	0.287034
H61	H	0.891662	0.398725	0.154146
H62	H	0.908226	0.314034	0.233861
H63	H	1.095897	0.383974	0.102446
H64	H	1.112487	0.299280	0.182179
C65	C	1.249887	-0.468072	0.201271
C66	C	1.353916	-0.426996	0.241225
H67	H	1.207256	-0.485083	0.280678
H68	H	1.193934	-0.430722	0.148226
H69	H	1.277925	-0.516280	0.147829
H70	H	1.325878	-0.378784	0.294658
H71	H	1.409879	-0.464349	0.294292
H72	H	0.891824	-0.017184	-0.000123
H73	H	1.595065	-0.333096	0.208074
C74	C	1.180702	0.228130	0.616161
C75	C	1.304227	0.242362	0.650932
H76	H	1.122751	0.266521	0.664996
H77	H	1.168490	0.236239	0.520190
H78	H	1.167088	0.171979	0.639740
H79	H	1.317844	0.298511	0.627344
H80	H	1.316443	0.234260	0.746925
C81	C	1.800955	-0.434775	0.118126
C82	C	1.737944	-0.458014	0.000030
H83	H	1.884687	-0.461938	0.118178
H84	H	1.803256	-0.375387	0.118873
H85	H	1.757663	-0.451253	0.197421
H86	H	1.781231	-0.441529	-0.079265
H87	H	1.735650	-0.517414	-0.000730
H88	H	1.758420	0.022134	0.383297
C89	C	0.962090	0.349932	-0.220875
C90	C	1.064393	0.327387	-0.133349
H91	H	0.991515	0.373357	-0.303115
H92	H	0.921430	0.301320	-0.242287
H93	H	0.903955	0.390420	-0.176586
H94	H	1.122524	0.286894	-0.177634
H95	H	1.105073	0.376004	-0.111939
H96	H	0.839729	0.313795	0.098527
C97	C	1.549448	-0.348771	-0.359313
C98	C	1.612966	-0.325779	-0.241406
H99	H	1.592036	-0.331733	-0.438732
H100	H	1.547712	-0.408202	-0.360695
H101	H	1.465523	-0.321956	-0.358484
H102	H	1.696889	-0.352599	-0.242231
H103	H	1.614716	-0.266336	-0.240025
H104	H	0.843584	0.320374	-0.095825
H105	H	1.264327	-0.306038	0.000015
H106	H	1.371831	-0.419804	-0.208051
H107	H	1.328552	0.226248	0.369398
H108	H	1.646893	-0.062885	0.388884
