data_functionalizedCrystal
_audit_creation_method	'MofGen! by Chris Wilmer'
_symmetry_space_group_name_H-M	'P1'
_symmetry_Int_Tables_number	1
_symmetry_cell_setting	triclinic
loop_
_symmetry_equiv_pos_as_xyz
  x,y,z
_cell_length_a	15.944551
_cell_length_b	15.944551
_cell_length_c	14.421503
_cell_angle_alpha	90.003141
_cell_angle_beta	90.003340
_cell_angle_gamma	96.501262
loop_
_atom_site_label
_atom_site_type_symbol
_atom_site_fract_x
_atom_site_fract_y
_atom_site_fract_z
O1	O	0.108320	-1.114529	-0.077017
O2	O	0.358320	-0.864529	0.172983
O3	O	0.608320	-0.614529	0.422983
O4	O	0.858320	-0.364529	0.672983
O5	O	0.121677	-0.869980	-0.077040
O6	O	0.371677	-0.619980	0.172960
O7	O	0.621677	-0.369980	0.422960
O8	O	0.871677	-0.119980	0.672960
O9	O	-0.007276	-0.998933	-0.077020
O10	O	0.242724	-0.748933	0.172980
O11	O	0.492724	-0.498933	0.422980
O12	O	0.742724	-0.248933	0.672980
O13	O	0.237273	-0.985576	-0.077038
O14	O	0.487273	-0.735576	0.172962
O15	O	0.737273	-0.485576	0.422962
O16	O	0.987273	-0.235576	0.672962
O17	O	-0.007257	-0.998911	0.077204
O18	O	0.242743	-0.748911	0.327204
O19	O	0.492743	-0.498911	0.577204
O20	O	0.742743	-0.248911	0.827204
O21	O	0.121696	-0.869958	0.077183
O22	O	0.371696	-0.619958	0.327183
O23	O	0.621696	-0.369958	0.577183
O24	O	0.871696	-0.119958	0.827183
O25	O	0.108340	-1.114508	0.077206
O26	O	0.358340	-0.864508	0.327206
O27	O	0.608340	-0.614508	0.577206
O28	O	0.858340	-0.364508	0.827206
Cu29	Cu	0.115020	-0.992231	0.091277
Cu30	Cu	0.365020	-0.742231	0.341277
Cu31	Cu	0.615020	-0.492231	0.591277
Cu32	Cu	0.865020	-0.242231	0.841277
Cu33	Cu	0.114997	-0.992256	-0.091110
Cu34	Cu	0.364997	-0.742256	0.158890
Cu35	Cu	0.614997	-0.492256	0.408890
Cu36	Cu	0.864997	-0.242256	0.658890
O37	O	0.237293	-0.985555	0.077186
O38	O	0.487293	-0.735555	0.327186
O39	O	0.737293	-0.485555	0.577186
O40	O	0.987293	-0.235555	0.827186
C41	C	0.121132	-0.838675	0.000069
C42	C	0.371132	-0.588675	0.250069
C43	C	0.621132	-0.338675	0.500069
C44	C	0.871132	-0.088675	0.750069
C45	C	0.119470	-0.745429	0.000060
C46	C	0.369470	-0.495429	0.250060
C47	C	0.619470	-0.245429	0.500060
C48	C	0.869470	0.004571	0.750060
C49	C	-0.038561	-0.998367	0.000092
C50	C	0.211439	-0.748367	0.250092
C51	C	0.461439	-0.498367	0.500092
C52	C	0.711439	-0.248367	0.750092
C53	C	-0.131807	-0.996705	0.000093
C54	C	0.118193	-0.746705	0.250093
C55	C	0.368193	-0.496705	0.500093
C56	C	0.618193	-0.246705	0.750093
N57	N	0.115035	-0.992219	0.219558
N58	N	0.365035	-0.742219	0.469558
N59	N	0.615035	-0.492219	0.719558
N60	N	0.865035	-0.242219	0.969558
C61	C	-0.346663	-0.912801	0.000072
C62	C	-0.096663	-0.662801	0.250072
C63	C	0.153337	-0.412801	0.500072
C64	C	0.403337	-0.162801	0.750072
C65	C	-0.407671	-0.951753	0.076117
C66	C	-0.157671	-0.701753	0.326117
C67	C	0.092329	-0.451753	0.576117
C68	C	0.342329	-0.201753	0.826117
C69	C	-0.302533	-0.993698	0.000085
C70	C	-0.052533	-0.743698	0.250085
C71	C	0.197467	-0.493698	0.500085
C72	C	0.447467	-0.243698	0.750085
C73	C	-0.407674	-0.951793	-0.075935
C74	C	-0.157674	-0.701793	0.174065
C75	C	0.092326	-0.451793	0.424065
C76	C	0.342326	-0.201793	0.674065
C77	C	-0.467445	-0.990787	0.000074
C78	C	-0.217445	-0.740787	0.250074
C79	C	0.032555	-0.490787	0.500074
C80	C	0.282555	-0.240787	0.750074
C81	C	-0.362312	-1.032672	0.076193
C82	C	-0.112312	-0.782672	0.326193
C83	C	0.137688	-0.532672	0.576193
C84	C	0.387688	-0.282672	0.826193
C85	C	-0.362308	-1.032701	-0.075927
C86	C	-0.112308	-0.782701	0.174073
C87	C	0.137692	-0.532701	0.424073
C88	C	0.387692	-0.282701	0.674073
C89	C	-0.423298	-1.071711	0.000136
C90	C	-0.173298	-0.821711	0.250136
C91	C	0.076702	-0.571711	0.500136
C92	C	0.326702	-0.321711	0.750136
C93	C	-0.207530	-0.995372	0.000092
C94	C	0.042470	-0.745372	0.250092
C95	C	0.292470	-0.495372	0.500092
C96	C	0.542470	-0.245372	0.750092
C97	C	-0.562446	-0.989119	0.000073
C98	C	-0.312446	-0.739119	0.250073
C99	C	-0.062446	-0.489119	0.500073
C100	C	0.187554	-0.239119	0.750073
C101	C	0.268577	-0.986120	0.000072
C102	C	0.518577	-0.736120	0.250072
C103	C	0.768577	-0.486120	0.500072
C104	C	1.018577	-0.236120	0.750072
C105	C	0.361823	-0.987782	0.000066
C106	C	0.611823	-0.737782	0.250066
C107	C	0.861823	-0.487782	0.500066
C108	C	1.111823	-0.237782	0.750066
C109	C	0.108885	-1.145813	0.000096
C110	C	0.358885	-0.895813	0.250096
C111	C	0.608885	-0.645813	0.500096
C112	C	0.858885	-0.395813	0.750096
C113	C	0.110547	-1.239059	0.000098
C114	C	0.360547	-0.989059	0.250098
C115	C	0.610547	-0.739059	0.500098
C116	C	0.860547	-0.489059	0.750098
C117	C	0.035565	-0.530572	0.000084
C118	C	0.285565	-0.280572	0.250084
C119	C	0.535565	-0.030572	0.500084
C120	C	0.785565	0.219428	0.750084
C121	C	0.074518	-0.469563	-0.075959
C122	C	0.324518	-0.219563	0.174041
C123	C	0.574518	0.030437	0.424041
C124	C	0.824518	0.280437	0.674041
C125	C	0.116462	-0.574703	0.000071
C126	C	0.366462	-0.324703	0.250071
C127	C	0.616462	-0.074703	0.500071
C128	C	0.866462	0.175297	0.750071
C129	C	0.074556	-0.469564	0.076093
C130	C	0.324556	-0.219564	0.326093
C131	C	0.574556	0.030436	0.576093
C132	C	0.824556	0.280436	0.826093
C133	C	0.113551	-0.409790	0.000086
C134	C	0.363551	-0.159790	0.250086
C135	C	0.613551	0.090210	0.500086
C136	C	0.863551	0.340210	0.750086
C137	C	0.155437	-0.514922	-0.076035
C138	C	0.405437	-0.264922	0.173965
C139	C	0.655437	-0.014922	0.423965
C140	C	0.905437	0.235078	0.673965
C141	C	0.155464	-0.514929	0.076086
C142	C	0.405464	-0.264929	0.326086
C143	C	0.655464	-0.014929	0.576086
C144	C	0.905464	0.235071	0.826086
C145	C	0.194476	-0.453937	0.000024
C146	C	0.444476	-0.203937	0.250024
C147	C	0.694476	0.046063	0.500024
C148	C	0.944476	0.296063	0.750024
C149	C	0.118137	-0.669705	0.000062
C150	C	0.368137	-0.419705	0.250062
C151	C	0.618137	-0.169705	0.500062
C152	C	0.868137	0.080295	0.750062
C153	C	0.111883	-0.314789	0.000089
C154	C	0.361883	-0.064789	0.250089
C155	C	0.611883	0.185211	0.500089
C156	C	0.861883	0.435211	0.750089
N157	N	0.114975	-0.992275	-0.219392
N158	N	0.364975	-0.742275	0.030608
N159	N	0.614975	-0.492275	0.280608
N160	N	0.864975	-0.242275	0.530608
C161	C	0.174636	-0.932581	0.469202
C162	C	0.424636	-0.682581	0.719202
C163	C	0.674636	-0.432581	0.969202
C164	C	0.924636	-0.182581	1.219202
C165	C	0.190943	-1.008481	0.531011
C166	C	0.440943	-0.758481	0.781011
C167	C	0.690943	-0.508481	1.031011
C168	C	0.940943	-0.258481	1.281011
C169	C	0.115015	-0.992240	0.408719
C170	C	0.365015	-0.742240	0.658719
C171	C	0.615015	-0.492240	0.908719
C172	C	0.865015	-0.242240	1.158719
C173	C	0.098727	-0.916359	0.531005
C174	C	0.348727	-0.666359	0.781005
C175	C	0.598727	-0.416359	1.031005
C176	C	0.848727	-0.166359	1.281005
C177	C	0.114997	-0.992253	0.591441
C178	C	0.364997	-0.742253	0.841441
C179	C	0.614997	-0.492253	1.091441
C180	C	0.864997	-0.242253	1.341441
C181	C	0.131360	-1.068178	0.469167
C182	C	0.381360	-0.818178	0.719167
C183	C	0.631360	-0.568178	0.969167
C184	C	0.881360	-0.318178	1.219167
C185	C	0.039111	-0.976007	0.469156
C186	C	0.289111	-0.726007	0.719156
C187	C	0.539111	-0.476007	0.969156
C188	C	0.789111	-0.226007	1.219156
C189	C	0.055386	-1.051961	0.530936
C190	C	0.305386	-0.801961	0.780936
C191	C	0.555386	-0.551961	1.030936
C192	C	0.805386	-0.301961	1.280936
C193	C	0.115027	-0.992231	0.303458
C194	C	0.365027	-0.742231	0.553458
C195	C	0.615027	-0.492231	0.803458
C196	C	0.865027	-0.242231	1.053458
C197	C	0.114985	-0.992270	0.696700
C198	C	0.364985	-0.742270	0.946700
C199	C	0.614985	-0.492270	1.196700
C200	C	0.864985	-0.242270	1.446700
H201	H	-0.313356	-0.845652	0.000141
H202	H	-0.063356	-0.595652	0.250141
H203	H	0.186644	-0.345652	0.500141
H204	H	0.436644	-0.095652	0.750141
H205	H	-0.025051	-0.962240	0.441965
H206	H	0.224949	-0.712240	0.691965
H207	H	0.474949	-0.462240	0.941965
H208	H	0.724949	-0.212240	1.191965
H209	H	0.189660	-0.535052	0.140373
H210	H	0.439660	-0.285052	0.390373
H211	H	0.689660	-0.035052	0.640373
H212	H	0.939660	0.214948	0.890373
H213	H	-0.427771	-0.917527	0.140401
H214	H	-0.177771	-0.667527	0.390401
H215	H	0.072229	-0.417527	0.640401
H216	H	0.322229	-0.167527	0.890401
F217	F	-0.336177	-1.077349	0.160317
F218	F	-0.086177	-0.827349	0.410317
F219	F	0.163823	-0.577349	0.660317
F220	F	0.413823	-0.327349	0.910317
F221	F	-0.336005	-1.077398	-0.159955
F222	F	-0.086005	-0.827398	0.090045
F223	F	0.163995	-0.577398	0.340045
F224	F	0.413995	-0.327398	0.590045
F225	F	-0.010529	-1.117982	0.566149
F226	F	0.239471	-0.867982	0.816149
F227	F	0.489471	-0.617982	1.066149
F228	F	0.739471	-0.367982	1.316149
F229	F	0.029826	-0.443299	0.160122
F230	F	0.279826	-0.193299	0.410122
F231	F	0.529826	0.056701	0.660122
F232	F	0.779826	0.306701	0.910122
F233	F	0.029787	-0.443290	-0.159985
F234	F	0.279787	-0.193290	0.090015
F235	F	0.529787	0.056710	0.340015
F236	F	0.779787	0.306710	0.590015
H237	H	0.225096	-0.882181	0.442096
H238	H	0.475096	-0.632181	0.692096
H239	H	0.725096	-0.382181	0.942096
H240	H	0.975096	-0.132181	1.192096
H241	H	-0.456457	-1.138919	0.000186
H242	H	-0.206457	-0.888919	0.250186
H243	H	0.043543	-0.638919	0.500186
H244	H	0.293543	-0.388919	0.750186
F245	F	-0.433944	-0.907063	-0.159961
F246	F	-0.183944	-0.657063	0.090039
F247	F	0.066056	-0.407063	0.340039
F248	F	0.316056	-0.157063	0.590039
F249	F	-0.052202	-0.574108	-0.000005
F250	F	0.197798	-0.324108	0.249995
F251	F	0.447798	-0.074108	0.499995
F252	F	0.697798	0.175892	0.749995
F253	F	0.200117	-0.541055	-0.160157
F254	F	0.450117	-0.291055	0.089843
F255	F	0.700117	-0.041055	0.339843
F256	F	0.950117	0.208945	0.589843
H257	H	0.255126	-1.022224	0.558180
H258	H	0.505126	-0.772224	0.808180
H259	H	0.755126	-0.522224	1.058180
H260	H	1.005126	-0.272224	1.308180
F261	F	0.080729	-0.832478	0.566510
F262	F	0.330729	-0.582478	0.816510
F263	F	0.580729	-0.332478	1.066510
F264	F	0.830729	-0.082478	1.316510
F265	F	0.282319	-0.410594	-0.000036
F266	F	0.532319	-0.160594	0.249964
F267	F	0.782319	0.089406	0.499964
F268	F	1.032319	0.339406	0.749964
H269	H	0.145205	-1.132368	0.442119
H270	H	0.395205	-0.882368	0.692119
H271	H	0.645205	-0.632368	0.942119
H272	H	0.895205	-0.382368	1.192119
