data_functionalizedCrystal
_audit_creation_method	'MofGen! by Chris Wilmer'
_symmetry_space_group_name_H-M	'P1'
_symmetry_Int_Tables_number	1
_symmetry_cell_setting	triclinic
loop_
_symmetry_equiv_pos_as_xyz
  x,y,z
_cell_length_a	17.019372
_cell_length_b	17.038272
_cell_length_c	16.098546
_cell_angle_alpha	87.068070
_cell_angle_beta	88.851160
_cell_angle_gamma	87.242864
loop_
_atom_site_label
_atom_site_type_symbol
_atom_site_fract_x
_atom_site_fract_y
_atom_site_fract_z
O1	O	1.053054	0.099887	-0.006200
O2	O	0.825020	0.111766	0.010142
O3	O	0.937681	-0.007992	0.002061
O4	O	0.940393	0.219646	0.001880
O5	O	0.931127	-0.000999	-0.135981
O6	O	0.818466	0.118759	-0.127901
O7	O	1.046500	0.106881	-0.144243
Zn8	Zn	0.931442	0.113931	-0.157989
Zn9	Zn	0.940078	0.104716	0.023888
O10	O	0.933839	0.226639	-0.136162
C11	C	0.792421	0.114675	-0.056778
C12	C	0.705052	0.112916	-0.050517
C13	C	0.211093	0.102745	-0.011276
C14	C	0.293185	0.104399	-0.017170
C15	C	0.330650	0.109044	-0.095365
C16	C	0.286019	0.112027	-0.167671
C17	C	0.203929	0.110368	-0.161776
C18	C	0.578331	0.114240	-0.116928
C19	C	0.660427	0.115901	-0.122817
C20	C	0.667587	0.108272	0.027683
C21	C	0.585495	0.106617	0.033571
C22	C	0.540871	0.109597	-0.038734
C23	C	0.414561	0.110737	-0.101392
C24	C	0.456962	0.107898	-0.032707
C25	C	0.931939	-0.033630	-0.066783
C26	C	0.924584	-0.120443	-0.066256
C27	C	0.992114	-0.170372	-0.071096
C28	C	0.985198	-0.251942	-0.070593
C29	C	0.910752	-0.283581	-0.065255
C30	C	0.843218	-0.233646	-0.060412
C31	C	0.850134	-0.152078	-0.060909
C32	C	0.886318	-0.529407	-0.063492
C33	C	0.879407	-0.610981	-0.062998
C34	C	1.021388	-0.629272	-0.073177
C35	C	1.028298	-0.547701	-0.073679
C36	C	0.960763	-0.497773	-0.068832
C37	C	0.903682	-0.366959	-0.064743
C38	C	0.967835	-0.414398	-0.069338
C39	C	1.079099	0.103971	-0.077321
C40	C	1.166468	0.105731	-0.083576
C41	C	0.939581	0.252277	-0.067316
C42	C	0.946936	0.339090	-0.067838
N43	N	0.925555	0.120218	-0.282116
C44	C	0.898140	0.149240	-0.804969
C45	C	0.902277	0.144856	-0.718077
C46	C	0.954249	0.089658	-0.678203
C47	C	1.002083	0.038835	-0.725226
C48	C	0.997941	0.043215	-0.812116
C49	C	0.969247	0.073776	-0.416029
C50	C	0.973386	0.069401	-0.329133
C51	C	0.873578	0.175422	-0.321989
C52	C	0.869445	0.179801	-0.408881
C53	C	0.917275	0.128975	-0.455897
C54	C	0.958481	0.085177	-0.589386
C55	C	0.913039	0.133452	-0.544712
N56	N	0.945971	0.098422	0.148014
H57	H	0.445075	0.114520	-0.165058
H58	H	0.703929	0.105845	0.086550
H59	H	1.036890	0.001833	-0.850397
H60	H	0.855822	0.194192	-0.837428
O61	O	0.827084	0.224868	-0.276445
C62	C	0.780308	0.274511	-0.330270
H63	H	0.809645	0.278618	-0.394528
H64	H	0.719780	0.249399	-0.335187
C65	C	0.735316	0.352069	-0.216696
C66	C	0.771352	0.357118	-0.295618
H67	H	0.729788	0.403024	-0.195321
H68	H	0.766827	0.318622	-0.180432
H69	H	0.684880	0.331139	-0.220805
H70	H	0.821791	0.378038	-0.291507
H71	H	0.739849	0.390571	-0.331881
H72	H	0.863328	0.186236	-0.679796
H73	H	1.044397	-0.006113	-0.692756
O74	O	1.023990	0.015972	-0.290278
C75	C	1.017449	0.023066	-0.203510
H76	H	0.992601	0.084495	-0.189886
H77	H	0.976429	-0.022680	-0.175680
C78	C	1.129797	-0.065816	-0.181458
C79	C	1.099285	0.009634	-0.164725
H80	H	1.180276	-0.074105	-0.157533
H81	H	1.134203	-0.070598	-0.239915
H82	H	1.095607	-0.103929	-0.158266
H83	H	1.133469	0.047746	-0.187927
H84	H	1.094887	0.014423	-0.106271
O85	O	0.862511	0.186967	-0.583531
C86	C	0.808813	0.147466	-0.630078
H87	H	0.835414	0.087024	-0.645028
H88	H	0.751955	0.140291	-0.592393
C89	C	0.758360	0.269893	-0.693275
C90	C	0.791034	0.195660	-0.711643
H91	H	0.747390	0.299622	-0.743586
H92	H	0.794535	0.296507	-0.661913
H93	H	0.710982	0.263904	-0.661869
H94	H	0.838417	0.201650	-0.743039
H95	H	0.754867	0.169048	-0.743012
H96	H	1.008193	0.032393	-0.454302
H97	H	0.329516	0.101963	0.041704
H98	H	1.000800	0.040235	-0.556914
H99	H	0.554997	0.102834	0.097246
O100	O	0.174831	0.098201	0.064749
C101	C	0.231824	0.095940	0.127298
H102	H	0.290891	0.073506	0.100917
H103	H	0.237601	0.157618	0.150104
C104	C	0.133942	0.068011	0.232851
C105	C	0.206488	0.040451	0.200452
H106	H	0.118313	0.033786	0.277979
H107	H	0.095544	0.069537	0.190712
H108	H	0.138765	0.119410	0.251850
H109	H	0.201661	-0.010942	0.181445
H110	H	0.244885	0.038916	0.242590
O111	O	1.087004	-0.677732	-0.078025
C112	C	1.128499	-0.659735	-0.152723
H113	H	1.086493	-0.629435	-0.199857
H114	H	1.177542	-0.618907	-0.140019
C115	C	1.215915	-0.773375	-0.129921
C116	C	1.164320	-0.736166	-0.187814
H117	H	1.238014	-0.820519	-0.151566
H118	H	1.187961	-0.785498	-0.079594
H119	H	1.256777	-0.739343	-0.119340
H120	H	1.123454	-0.770193	-0.198387
H121	H	1.192268	-0.724050	-0.238144
H122	H	0.827125	0.224748	-0.441344
H123	H	0.542009	0.116654	-0.175805
O124	O	0.696699	0.120372	-0.198846
C125	C	0.639710	0.122663	-0.261402
H126	H	0.583844	0.095630	-0.235259
H127	H	0.625821	0.186332	-0.283624
C128	C	0.740305	0.108876	-0.367139
C129	C	0.671691	0.075668	-0.335032
H130	H	0.760032	0.079891	-0.412559
H131	H	0.778700	0.107336	-0.324995
H132	H	0.728720	0.161932	-0.385651
H133	H	0.683278	0.022616	-0.316511
H134	H	0.633298	0.077198	-0.377175
O135	O	0.807028	-0.641589	-0.057762
C136	C	0.748901	-0.580031	-0.053607
H137	H	0.775883	-0.525888	-0.029322
H138	H	0.724654	-0.565193	-0.118317
C139	C	0.648575	-0.672468	-0.024288
C140	C	0.681713	-0.605971	0.005546
H141	H	0.607128	-0.688469	0.012197
H142	H	0.687735	-0.713942	-0.027091
H143	H	0.628376	-0.660094	-0.078213
H144	H	0.701921	-0.618348	0.059465
H145	H	0.642554	-0.564500	0.008359
O146	O	0.770842	-0.264250	-0.055182
C147	C	0.712721	-0.202687	-0.051035
H148	H	0.739705	-0.148546	-0.026748
H149	H	0.688481	-0.187848	-0.115749
C150	C	0.612383	-0.295113	-0.021727
C151	C	0.645524	-0.228619	0.008110
H152	H	0.570931	-0.311110	0.014753
H153	H	0.651540	-0.336591	-0.024524
H154	H	0.592190	-0.282739	-0.075655
H155	H	0.665725	-0.240997	0.062032
H156	H	0.606369	-0.187144	0.010918
H157	H	0.316530	0.115804	-0.231339
H158	H	0.831326	-0.488765	-0.059545
O159	O	0.420654	0.103493	0.043296
C160	C	0.438490	0.169252	0.087943
H161	H	0.495617	0.194096	0.062380
H162	H	0.388725	0.216225	0.081041
C163	C	0.377863	0.113556	0.211963
C164	C	0.448032	0.144066	0.180571
H165	H	0.383746	0.098023	0.269102
H166	H	0.365844	0.069255	0.181884
H167	H	0.336400	0.152706	0.206204
H168	H	0.489491	0.104914	0.186321
H169	H	0.460058	0.188361	0.210654
H170	H	0.167596	0.112807	-0.220650
H171	H	1.040188	-0.292591	-0.074536
O172	O	1.064493	-0.139773	-0.076247
C173	C	1.122612	-0.201336	-0.080429
H174	H	1.098108	-0.258121	-0.052451
H175	H	1.140562	-0.209473	-0.148165
C176	C	1.225044	-0.111143	-0.065653
C177	C	1.194951	-0.180885	-0.031283
H178	H	1.269668	-0.098527	-0.035341
H179	H	1.185890	-0.069666	-0.062838
H180	H	1.239997	-0.117933	-0.122099
H181	H	1.179990	-0.174091	0.025159
H182	H	1.234105	-0.222361	-0.034087
O183	O	0.784566	-0.103549	-0.056064
C184	C	0.787726	-0.059425	0.015436
H185	H	0.828300	-0.091727	0.062667
H186	H	0.811273	0.000754	-0.002470
C187	C	0.654727	-0.009208	-0.004082
C188	C	0.704556	-0.048886	0.053930
H189	H	0.603424	-0.002703	0.019662
H190	H	0.652599	-0.038933	-0.052255
H191	H	0.674359	0.040937	-0.018999
H192	H	0.684929	-0.099033	0.068839
H193	H	0.706679	-0.019169	0.102107
H194	H	1.028449	-0.388635	-0.073666
H195	H	1.088920	-0.521947	-0.078026
H196	H	0.843067	-0.392728	-0.060398
