data_functionalizedCrystal
_audit_creation_method	'MofGen! by Chris Wilmer'
_symmetry_space_group_name_H-M	'P1'
_symmetry_Int_Tables_number	1
_symmetry_cell_setting	triclinic
loop_
_symmetry_equiv_pos_as_xyz
  x,y,z
_cell_length_a	14.971486
_cell_length_b	10.723023
_cell_length_c	14.048226
_cell_angle_alpha	89.994597
_cell_angle_beta	89.998499
_cell_angle_gamma	84.040838
loop_
_atom_site_label
_atom_site_type_symbol
_atom_site_fract_x
_atom_site_fract_y
_atom_site_fract_z
O1	O	1.187820	0.162616	-0.079049
O2	O	0.927524	0.182090	-0.079075
O3	O	1.063676	-0.009286	-0.079057
O4	O	1.051668	0.353992	-0.079066
O5	O	1.063660	-0.009297	0.079264
O6	O	0.927508	0.182079	0.079247
O7	O	1.187803	0.162605	0.079272
Zn8	Zn	1.057653	0.172340	0.104396
Zn9	Zn	1.057675	0.172355	-0.104199
O10	O	1.051651	0.353981	0.079255
C11	C	0.894187	0.181214	0.000083
C12	C	0.794875	0.178604	0.000073
C13	C	1.062794	-0.055782	0.000102
C14	C	1.060180	-0.194309	0.000099
C15	C	0.738254	0.291032	0.000072
C16	C	0.644941	0.288572	0.000086
C17	C	0.608252	0.173683	0.000095
C18	C	0.664881	0.061246	0.000099
C19	C	0.758192	0.063707	0.000092
C20	C	0.470391	0.056125	0.000112
C21	C	0.377074	0.053663	0.000118
C22	C	0.357140	0.280990	0.000106
C23	C	0.450451	0.283451	0.000099
C24	C	0.507074	0.171013	0.000102
C25	C	1.059023	-0.256057	-0.081918
C26	C	1.056321	-0.399231	-0.081923
C27	C	1.221141	0.163482	0.000113
C28	C	1.320452	0.166091	0.000116
C29	C	1.052533	0.400477	0.000093
C30	C	1.055147	0.539004	0.000090
N31	N	1.057644	0.172329	0.246757
N32	N	1.057690	0.172356	-0.246559
C33	C	1.117952	0.087623	0.296583
C34	C	1.117958	0.087622	0.396241
C35	C	1.057660	0.172335	0.446071
C36	C	0.997346	0.257045	0.396238
C37	C	0.997336	0.257039	0.296582
C38	C	0.997372	0.257054	0.603952
C39	C	0.997383	0.257062	0.703615
C40	C	1.117994	0.087638	0.703611
C41	C	1.117984	0.087631	0.603955
C42	C	1.057671	0.172344	0.554129
H43	H	0.768118	0.384588	0.000064
H44	H	1.167087	0.018659	0.563383
Br45	Br	1.199849	-0.027321	0.771234
Br46	Br	0.327282	-0.102259	0.000162
H47	H	1.056147	-0.407903	0.070312
H48	H	0.948256	0.326032	0.563387
H49	H	0.598843	0.380123	0.000084
Br50	Br	0.915481	0.371994	0.228961
H51	H	0.948281	0.326043	0.744182
H52	H	1.059165	-0.247440	0.070312
H53	H	0.948246	0.326015	0.436815
H54	H	1.167057	0.018646	0.256018
Br55	Br	0.500243	0.439373	0.000073
Br56	Br	0.547236	-0.096470	0.000120
Br57	Br	0.615090	-0.094677	0.000121
H58	H	0.311033	0.372540	0.000109
H59	H	0.804293	-0.027843	0.000092
Br60	Br	1.060727	-0.167517	-0.198952
H61	H	1.167064	0.018648	0.436808
Br62	Br	1.054674	-0.487731	-0.198964
