data_functionalizedCrystal
_audit_creation_method	'MofGen! by Chris Wilmer'
_symmetry_space_group_name_H-M	'P1'
_symmetry_Int_Tables_number	1
_symmetry_cell_setting	triclinic
loop_
_symmetry_equiv_pos_as_xyz
  x,y,z
_cell_length_a	16.974800
_cell_length_b	27.731996
_cell_length_c	16.053802
_cell_angle_alpha	92.537600
_cell_angle_beta	91.074188
_cell_angle_gamma	83.006863
loop_
_atom_site_label
_atom_site_type_symbol
_atom_site_fract_x
_atom_site_fract_y
_atom_site_fract_z
O1	O	1.048309	0.061616	0.001418
O2	O	0.818755	0.069015	-0.014101
O3	O	0.940682	-0.005041	-0.005840
O4	O	0.926382	0.135671	-0.006843
O5	O	0.933971	-0.000981	0.132564
O6	O	0.812044	0.073074	0.124303
O7	O	1.041598	0.065675	0.139823
Zn8	Zn	0.925755	0.070019	0.154038
Zn9	Zn	0.934597	0.064671	-0.028316
O10	O	0.919671	0.139731	0.131561
C11	C	0.786041	0.070689	0.053117
C12	C	0.698561	0.069623	0.047203
C13	C	0.653810	0.071334	0.119871
C14	C	0.571615	0.070325	0.114317
C15	C	0.534173	0.067608	0.036095
C16	C	0.578931	0.065896	-0.036579
C17	C	0.661124	0.066902	-0.031024
C18	C	0.288743	0.064360	0.011392
C19	C	0.206543	0.063356	0.005843
C20	C	0.199233	0.067784	0.156740
C21	C	0.281428	0.068792	0.162287
C22	C	0.326179	0.067077	0.089614
N23	N	0.450157	0.066578	0.030416
N24	N	0.410195	0.068104	0.095294
C25	C	0.937032	-0.021020	0.063345
C26	C	0.936147	-0.074681	0.063294
C27	C	0.934240	-0.409644	-0.012567
C28	C	0.930880	-0.611323	-0.012809
O29	O	0.933523	-0.639278	-0.077004
N30	N	0.926805	-0.634329	0.062606
C31	C	0.923564	-0.606913	0.138087
O32	O	0.920012	-0.631109	0.202226
C33	C	0.926917	-0.405235	0.138327
C34	C	0.931001	-0.382232	0.062908
C35	C	0.938322	-0.386640	-0.087981
C36	C	0.939166	-0.336224	-0.087919
C37	C	0.935928	-0.308812	-0.012444
C38	C	0.931845	-0.331815	0.062969
C39	C	0.923671	-0.377819	0.213807
C40	C	0.924508	-0.327397	0.213860
C41	C	0.928591	-0.304393	0.138440
C42	C	0.929451	-0.253987	0.138506
N43	N	0.933527	-0.230980	0.063090
C44	C	0.936765	-0.258392	-0.012385
C45	C	0.921804	-0.712797	0.137955
C46	C	0.920967	-0.763216	0.137895
C47	C	0.928282	-0.767622	-0.013001
C48	C	0.929125	-0.717203	-0.012940
C49	C	0.925880	-0.689790	0.062540
C50	C	0.938538	-0.152514	-0.012250
C51	C	0.939385	-0.102094	-0.012181
C52	C	0.932066	-0.097692	0.138714
C53	C	0.931223	-0.148108	0.138647
C54	C	0.934457	-0.175518	0.063158
O55	O	0.926802	-0.226001	0.202666
O56	O	0.940299	-0.234186	-0.076515
C57	C	0.933395	-0.460060	-0.012629
C58	C	0.929313	-0.483064	0.062785
C59	C	0.926075	-0.455652	0.138260
C60	C	0.928476	-0.533483	0.062725
C61	C	0.931714	-0.560896	-0.012750
C62	C	0.935790	-0.537889	-0.088165
C63	C	0.936634	-0.487473	-0.088104
C64	C	0.921999	-0.478658	0.213675
C65	C	0.921156	-0.529075	0.213607
C66	C	0.924395	-0.556488	0.138132
C67	C	1.074312	0.064001	0.072603
C68	C	1.161791	0.065067	0.078511
C69	C	0.923320	0.155710	0.062374
C70	C	0.924206	0.209371	0.062420
N71	N	0.919726	0.073669	0.278489
N72	N	0.940632	0.061017	-0.152767
C73	C	0.971625	0.042170	0.325700
C74	C	0.967415	0.044727	0.412821
C75	C	0.911310	0.078787	0.452731
C76	C	0.859406	0.110288	0.405514
C77	C	0.863612	0.107728	0.318394
C78	C	0.892935	0.089958	0.712896
C79	C	0.888733	0.092517	0.800022
C80	C	0.996743	0.026955	0.807323
C81	C	1.000947	0.024399	0.720201
C82	C	0.949040	0.055899	0.672992
N83	N	0.907007	0.081404	0.541783
N84	N	0.953340	0.053280	0.583941
H85	H	0.684288	0.073550	0.183568
O86	O	0.941782	-0.179192	-0.085522
C87	C	1.009806	-0.213873	-0.085480
H88	H	1.029267	-0.221322	-0.018449
H89	H	0.995405	-0.249042	-0.118513
H90	H	1.059750	-0.199298	-0.119444
O91	O	0.940563	-0.465205	-0.161444
C92	C	0.943259	-0.500221	-0.228063
H93	H	0.916628	-0.533542	-0.207664
H94	H	0.907782	-0.484179	-0.283404
H95	H	1.007545	-0.511257	-0.246990
O96	O	0.813125	0.138260	0.272489
C97	C	0.767277	0.110812	0.218841
H98	H	0.765159	0.073461	0.245057
H99	H	0.704437	0.130401	0.213607
H100	H	0.795161	0.106378	0.154479
O101	O	0.918768	-0.686128	0.211235
C102	C	0.987327	-0.662232	0.220413
H103	H	1.013389	-0.658385	0.156455
H104	H	0.971014	-0.624635	0.251358
H105	H	1.033015	-0.684354	0.260846
H106	H	0.813720	0.138019	0.438014
O107	O	0.170100	0.060651	-0.070101
C108	C	0.132238	0.018108	-0.077184
H109	H	0.119899	0.005937	-0.012293
H110	H	0.073862	0.025872	-0.113168
H111	H	0.172336	-0.011886	-0.111818
H112	H	1.009675	0.019078	0.451260
O113	O	0.834331	0.125652	0.838832
C114	C	0.873723	0.157019	0.892042
H115	H	0.937131	0.157169	0.869970
H116	H	0.841034	0.195414	0.890812
H117	H	0.874860	0.143840	0.958368
H118	H	0.929433	-0.075364	0.200164
H119	H	0.921853	-0.305079	0.275326
H120	H	0.850671	0.115607	0.674465
H121	H	1.046633	-0.003335	0.687709
O122	O	0.919661	-0.400077	0.287142
C123	C	0.916997	-0.365061	0.353761
H124	H	0.893715	-0.327799	0.329981
H125	H	0.875909	-0.375057	0.403921
H126	H	0.979209	-0.364014	0.381251
O127	O	0.931461	-0.794185	-0.086391
C128	C	0.935211	-0.763072	-0.152953
H129	H	0.959705	-0.728455	-0.129119
H130	H	0.975794	-0.782209	-0.203154
H131	H	0.873169	-0.753395	-0.180410
H132	H	0.535184	0.071710	0.173492
O133	O	0.917074	-0.551459	0.286819
C134	C	0.848066	-0.575080	0.286680
H135	H	0.828368	-0.582758	0.219623
H136	H	0.861260	-0.610809	0.319626
H137	H	0.798768	-0.550774	0.320678
H138	H	0.548439	0.063681	-0.100269
O139	O	0.918892	-0.452110	0.287073
C140	C	0.915095	-0.483232	0.353613
H141	H	0.940519	-0.521789	0.333124
H142	H	0.951068	-0.470153	0.408984
H143	H	0.850632	-0.482920	0.372537
H144	H	1.039002	0.001309	0.845769
O145	O	0.704546	0.065328	-0.101638
C146	C	0.677222	0.105554	-0.149553
H147	H	0.645879	0.135805	-0.107390
H148	H	0.729763	0.119251	-0.180339
H149	H	0.633931	0.094135	-0.199676
H150	H	0.311908	0.071002	0.225985
H151	H	0.162788	0.069180	0.215906
H152	H	0.942713	-0.083367	-0.073599
O153	O	0.332084	0.062713	-0.059283
C154	C	0.281410	0.060088	-0.129511
H155	H	0.218295	0.075313	-0.111587
H156	H	0.302418	0.082273	-0.181043
H157	H	0.282543	0.020557	-0.152693
O158	O	0.932962	-0.694799	-0.086162
C159	C	0.865362	-0.660394	-0.095266
H160	H	0.839561	-0.649122	-0.031287
H161	H	0.882837	-0.627087	-0.126141
H162	H	0.819026	-0.677151	-0.135730
O163	O	0.943091	-0.313956	-0.161260
C164	C	0.945785	-0.348972	-0.227879
H165	H	0.919158	-0.382294	-0.207478
H166	H	0.910303	-0.332930	-0.283218
H167	H	1.010071	-0.360006	-0.246811
O168	O	0.927226	-0.170378	0.211980
C169	C	0.924574	-0.135370	0.278610
H170	H	0.901294	-0.098105	0.254845
H171	H	0.883491	-0.145370	0.328771
H172	H	0.986790	-0.134329	0.306092
H173	H	0.940956	-0.408955	-0.149445
H174	H	1.017315	0.014436	0.293211
H175	H	0.917654	-0.781942	0.199310
H176	H	0.938430	-0.560218	-0.149620
