data_functionalizedCrystal
_audit_creation_method	'MofGen! by Chris Wilmer'
_symmetry_space_group_name_H-M	'P1'
_symmetry_Int_Tables_number	1
_symmetry_cell_setting	triclinic
loop_
_symmetry_equiv_pos_as_xyz
  x,y,z
_cell_length_a	19.288867
_cell_length_b	27.731996
_cell_length_c	17.766277
_cell_angle_alpha	89.987644
_cell_angle_beta	89.992126
_cell_angle_gamma	82.879228
loop_
_atom_site_label
_atom_site_type_symbol
_atom_site_fract_x
_atom_site_fract_y
_atom_site_fract_z
O1	O	0.920960	0.060306	-0.062578
O2	O	0.718646	0.068439	-0.062586
O3	O	0.826105	-0.006007	-0.062565
O4	O	0.813501	0.134752	-0.062598
O5	O	0.826087	-0.006010	0.062623
O6	O	0.718628	0.068436	0.062602
O7	O	0.920941	0.060302	0.062611
Cu8	Cu	0.819783	0.064369	0.074037
Cu9	Cu	0.819805	0.064373	-0.074013
O10	O	0.813482	0.134748	0.062590
C11	C	0.692762	0.068176	0.000007
C12	C	0.615664	0.067390	0.000005
C13	C	0.060146	0.061729	-0.068226
C14	C	0.132588	0.062465	-0.068229
C15	C	0.168804	0.062833	0.000011
C16	C	0.132574	0.062453	0.068259
C17	C	0.060134	0.061712	0.068260
C18	C	0.277932	0.092317	0.052285
C19	C	0.350370	0.093060	0.052281
C20	C	0.392235	0.065115	0.000011
C21	C	0.361651	0.036433	-0.052268
C22	C	0.289211	0.035692	-0.052267
C23	C	0.247354	0.063636	0.000018
C24	C	0.507008	0.066290	-0.068236
C25	C	0.579453	0.067022	-0.068236
C26	C	0.579436	0.067015	0.068254
C27	C	0.506994	0.066278	0.068252
C28	C	0.470784	0.065917	0.000005
C29	C	0.825837	-0.024017	0.000031
C30	C	0.825057	-0.077675	0.000039
C31	C	0.820161	-0.410404	-0.068238
C32	C	0.817199	-0.612072	-0.068252
O33	O	0.816795	-0.638142	-0.126288
N34	N	0.816821	-0.637292	-0.000012
C35	C	0.817179	-0.612092	0.068236
O36	O	0.816782	-0.638170	0.126278
C37	C	0.820135	-0.410425	0.068248
C38	C	0.820520	-0.385208	0.000004
C39	C	0.820545	-0.385187	-0.136477
C40	C	0.821289	-0.334774	-0.136473
C41	C	0.821649	-0.309578	-0.068230
C42	C	0.821265	-0.334795	0.000008
C43	C	0.820488	-0.385226	0.136495
C44	C	0.821226	-0.334806	0.136493
C45	C	0.821611	-0.309589	0.068248
C46	C	0.822369	-0.259185	0.068255
N47	N	0.822747	-0.233965	0.000015
C48	C	0.822387	-0.259161	-0.068227
C49	C	0.815628	-0.717970	0.068224
C50	C	0.814890	-0.768387	0.068221
C51	C	0.814909	-0.768363	-0.068266
C52	C	0.815652	-0.717946	-0.068262
C53	C	0.816006	-0.692750	-0.000015
C54	C	0.823950	-0.153289	-0.068214
C55	C	0.824697	-0.102872	-0.068203
C56	C	0.824675	-0.102900	0.068284
C57	C	0.823931	-0.153313	0.068274
C58	C	0.823567	-0.178507	0.000019
O59	O	0.822765	-0.233083	0.126261
O60	O	0.822768	-0.233073	-0.126260
C61	C	0.819416	-0.460818	-0.068242
C62	C	0.819032	-0.486035	-0.000004
C63	C	0.819392	-0.460839	0.068239
C64	C	0.818294	-0.536452	-0.000007
C65	C	0.817934	-0.561648	-0.068249
C66	C	0.818312	-0.536428	-0.136489
C67	C	0.819057	-0.486014	-0.136485
C68	C	0.819014	-0.486059	0.136478
C69	C	0.818271	-0.536473	0.136469
C70	C	0.817911	-0.561669	0.068226
C71	C	0.946825	0.060566	0.000016
C72	C	1.023923	0.061352	0.000013
C73	C	0.813750	0.152759	-0.000008
C74	C	0.814530	0.206417	-0.000021
N75	N	0.819772	0.064365	0.178168
N76	N	0.819821	0.064373	-0.178143
C77	C	0.867370	0.031417	0.217564
C78	C	0.867374	0.031414	0.296366
C79	C	0.819787	0.064369	0.335768
C80	C	0.772180	0.097320	0.296363
C81	C	0.772173	0.097318	0.217562
C82	C	0.810201	0.108413	0.460596
C83	C	0.810214	0.108415	0.539394
C84	C	0.819805	0.064375	0.578815
C85	C	0.829400	0.020330	0.539426
C86	C	0.829392	0.020328	0.460626
C87	C	0.819789	0.064375	0.421214
C88	C	0.867410	0.031421	0.703657
C89	C	0.867409	0.031418	0.782460
C90	C	0.772218	0.097328	0.782455
C91	C	0.772216	0.097327	0.703654
C92	C	0.819816	0.064374	0.664259
H93	H	0.608944	0.067326	-0.123807
Cl94	Cl	0.798157	0.163785	0.588903
Cl95	Cl	0.821766	-0.303079	-0.222270
H96	H	0.820249	-0.405697	-0.192051
H97	H	0.477501	0.065972	0.123820
H98	H	0.906127	0.004583	0.185491
H99	H	0.733460	0.124159	0.671575
Cl100	Cl	0.388811	0.129121	0.117997
H101	H	0.815964	-0.697417	-0.123833
H102	H	0.802379	0.144278	0.428506
H103	H	0.243852	0.115070	0.094858
H104	H	0.906167	0.004587	0.671580
Cl105	Cl	0.814420	-0.800083	0.154018
H106	H	0.820176	-0.405749	0.192067
Cl107	Cl	0.178102	0.062914	0.154047
H108	H	0.477525	0.065995	-0.123807
Cl109	Cl	0.250765	-0.000366	-0.117983
Cl110	Cl	0.414273	0.001302	-0.117987
Cl111	Cl	0.825127	-0.071215	0.154070
H112	H	0.906135	0.004582	0.328448
H113	H	0.733412	0.124150	0.185485
Cl114	Cl	0.927248	-0.010009	0.831990
Cl115	Cl	0.819539	-0.454320	-0.222282
Cl116	Cl	0.841464	-0.035039	0.588974
H117	H	0.162086	0.062775	-0.123799
H118	H	0.733432	0.124152	0.328448
H119	H	0.837202	-0.015535	0.428559
Cl120	Cl	0.014629	0.061272	-0.154022
Cl121	Cl	0.624960	0.067470	0.154043
Cl122	Cl	0.014594	0.061240	0.154054
Cl123	Cl	0.814452	-0.800047	-0.154056
Cl124	Cl	0.825183	-0.071174	-0.154002
H125	H	0.817963	-0.557001	0.192046
H126	H	0.823650	-0.173795	-0.123793
Cl127	Cl	0.712389	0.138754	0.831984
H128	H	0.821504	-0.314293	0.192069
Cl129	Cl	0.816070	-0.686302	0.154030
H130	H	0.823624	-0.173847	0.123844
H131	H	0.818023	-0.556952	-0.192054
Cl132	Cl	0.819461	-0.454391	0.222278
