data_functionalizedCrystal
_audit_creation_method	'MofGen! by Chris Wilmer'
_symmetry_space_group_name_H-M	'P1'
_symmetry_Int_Tables_number	1
_symmetry_cell_setting	triclinic
loop_
_symmetry_equiv_pos_as_xyz
  x,y,z
_cell_length_a	14.971486
_cell_length_b	15.995350
_cell_length_c	14.048226
_cell_angle_alpha	89.995798
_cell_angle_beta	89.998499
_cell_angle_gamma	83.553252
loop_
_atom_site_label
_atom_site_type_symbol
_atom_site_fract_x
_atom_site_fract_y
_atom_site_fract_z
O1	O	1.186822	0.109116	-0.079046
O2	O	1.686822	0.609116	0.420954
O3	O	0.926407	0.122183	-0.079072
O4	O	1.426407	0.622183	0.420928
O5	O	1.063733	-0.006231	-0.079057
O6	O	1.563733	0.493769	0.420943
O7	O	1.049496	0.237530	-0.079061
O8	O	1.549496	0.737530	0.420939
O9	O	1.063717	-0.006238	0.079264
O10	O	1.563717	0.493762	0.579264
O11	O	0.926391	0.122176	0.079250
O12	O	1.426391	0.622176	0.579250
O13	O	1.186806	0.109109	0.079275
O14	O	1.686806	0.609109	0.579275
Zn15	Zn	1.056596	0.115641	0.104399
Zn16	Zn	1.556596	0.615641	0.604399
Zn17	Zn	1.056617	0.115651	-0.104196
Zn18	Zn	1.556617	0.615651	0.395804
O19	O	1.049480	0.237523	0.079261
O20	O	1.549480	0.737523	0.579261
C21	C	0.893075	0.121595	0.000086
C22	C	1.393075	0.621595	0.500086
C23	C	0.793780	0.119844	0.000076
C24	C	1.293780	0.619844	0.500076
C25	C	0.736468	0.195284	0.000076
C26	C	1.236468	0.695284	0.500076
C27	C	0.643171	0.193633	0.000090
C28	C	1.143171	0.693633	0.500090
C29	C	0.607187	0.116542	0.000098
C30	C	1.107187	0.616542	0.500098
C31	C	0.664505	0.041097	0.000100
C32	C	1.164505	0.541097	0.500100
C33	C	0.757801	0.042748	0.000093
C34	C	1.257801	0.542748	0.500093
C35	C	0.470047	0.037660	0.000113
C36	C	0.970047	0.537660	0.500113
C37	C	0.376745	0.036008	0.000119
C38	C	0.876745	0.536008	0.500119
C39	C	0.355417	0.188545	0.000111
C40	C	0.855417	0.688545	0.500111
C41	C	0.448712	0.190197	0.000104
C42	C	0.948712	0.690197	0.500104
C43	C	0.506025	0.114751	0.000104
C44	C	1.006025	0.614751	0.500104
C45	C	1.063137	-0.037430	0.000101
C46	C	1.563137	0.462570	0.500101
C47	C	1.061372	-0.130382	0.000096
C48	C	1.561372	0.369618	0.500096
C49	C	1.055035	-0.468136	0.000098
C50	C	1.555035	0.031864	0.500098
C51	C	0.957234	-0.420800	-0.000266
C52	C	1.457234	0.079200	0.499734
C53	C	0.958999	-0.324108	0.000091
C54	C	1.458999	0.175892	0.500091
C55	C	1.058178	-0.300572	0.000097
C56	C	1.558178	0.199428	0.500097
C57	C	1.106408	-0.341606	0.090509
C58	C	1.606408	0.158394	0.590509
C59	C	1.103951	-0.438244	0.090584
C60	C	1.603951	0.061756	0.590584
C61	C	1.105990	-0.438591	-0.089456
C62	C	1.605990	0.061409	0.410544
C63	C	1.105967	-0.341646	-0.090651
C64	C	1.605967	0.158354	0.409349
C65	C	1.059960	-0.205873	0.000099
C66	C	1.559960	0.294127	0.500099
C67	C	1.053256	-0.562835	0.000103
C68	C	1.553256	-0.062835	0.500103
C69	C	1.220138	0.109697	0.000116
C70	C	1.720138	0.609697	0.500116
C71	C	1.319433	0.111448	0.000119
C72	C	1.819433	0.611448	0.500119
C73	C	1.050077	0.268722	0.000100
C74	C	1.550077	0.768722	0.500100
C75	C	1.051841	0.361674	0.000099
C76	C	1.551841	0.861674	0.500099
N77	N	1.056587	0.115634	0.246760
N78	N	1.556587	0.615634	0.746760
N79	N	1.056633	0.115652	-0.246557
N80	N	1.556633	0.615652	0.253443
C81	C	1.117414	0.058795	0.296584
C82	C	1.617414	0.558795	0.796584
C83	C	1.117421	0.058795	0.396242
C84	C	1.617421	0.558795	0.896242
C85	C	1.056603	0.115637	0.446073
C86	C	1.556603	0.615637	0.946073
C87	C	0.995769	0.172478	0.396242
C88	C	1.495769	0.672478	0.896242
C89	C	0.995760	0.172474	0.296586
C90	C	1.495760	0.672474	0.796586
C91	C	0.995795	0.172484	0.603956
C92	C	1.495795	0.672484	1.103956
C93	C	0.995806	0.172490	0.703619
C94	C	1.495806	0.672490	1.203619
C95	C	1.117456	0.058805	0.703612
C96	C	1.617456	0.558805	1.203612
C97	C	1.117446	0.058801	0.603956
C98	C	1.617446	0.558801	1.103956
C99	C	1.056614	0.115643	0.554132
C100	C	1.556614	0.615643	1.054132
H101	H	0.804464	-0.018683	0.000092
H102	H	1.304464	0.481317	0.500092
O103	O	1.063694	-0.465859	-0.180246
O104	O	1.563694	0.034141	0.319754
H105	H	1.040005	-0.409553	-0.223360
H106	H	1.540005	0.090447	0.276640
H107	H	0.946246	0.218758	0.436821
H108	H	1.446246	0.718758	0.936821
H109	H	0.921086	-0.295721	-0.064720
H110	H	1.421086	0.204279	0.435280
H111	H	0.946227	0.218756	0.256020
H112	H	1.446227	0.718756	0.756020
O113	O	1.199056	-0.480874	0.096059
O114	O	1.699056	0.019126	0.596059
H115	H	1.213429	-0.521173	0.032341
H116	H	1.713429	-0.021173	0.532341
H117	H	0.478007	0.252971	0.000089
H118	H	0.978007	0.752971	0.500089
O119	O	0.905670	-0.446791	0.085134
O120	O	1.405670	0.053209	0.585134
H121	H	0.949396	-0.493275	0.127839
H122	H	1.449396	0.006725	0.627839
O123	O	0.293609	0.269923	0.000121
O124	O	0.793609	0.769923	0.500121
H125	H	0.222689	0.255827	0.000141
H126	H	0.722689	0.755827	0.500141
O127	O	0.905444	-0.445405	-0.086133
O128	O	1.405444	0.054595	0.413867
H129	H	0.948851	-0.491638	-0.129469
H130	H	1.448851	0.008362	0.370531
O131	O	1.202924	-0.322796	0.094976
O132	O	1.702924	0.177204	0.594976
H133	H	1.235464	-0.352488	0.159478
H134	H	1.735464	0.147512	0.659478
H135	H	0.765759	0.258060	0.000070
H136	H	1.265759	0.758060	0.500070
O137	O	0.337935	-0.047141	0.000144
O138	O	0.837935	0.452859	0.500144
H139	H	0.263432	-0.035610	0.000141
H140	H	0.763432	0.464390	0.500141
H141	H	0.596511	0.255064	0.000090
H142	H	1.096511	0.755064	0.500090
O143	O	1.201507	-0.480560	-0.090272
O144	O	1.701507	0.019440	0.409728
H145	H	1.201049	-0.549861	-0.092995
H146	H	1.701049	-0.049861	0.407005
O147	O	1.183037	-0.002508	0.550203
O148	O	1.683037	0.497492	1.050203
H149	H	1.225333	-0.042040	0.601589
H150	H	1.725333	0.457960	1.101589
H151	H	1.166943	0.012511	0.256018
H152	H	1.666943	0.512511	0.756018
H153	H	0.516709	-0.023776	0.000115
H154	H	1.016709	0.476224	0.500115
O155	O	0.930207	0.233797	0.757364
O156	O	1.430207	0.733797	1.257364
H157	H	0.940445	0.224256	0.835031
H158	H	1.440445	0.724256	1.335031
H159	H	1.068768	-0.456584	0.158165
H160	H	1.568768	0.043416	0.658165
O161	O	0.625700	-0.042055	0.000116
O162	O	1.125700	0.457945	0.500116
H163	H	0.583709	-0.046461	-0.064414
H164	H	1.083709	0.453539	0.435586
O165	O	0.930169	0.233790	0.550229
O166	O	1.430169	0.733790	1.050229
H167	H	0.886690	0.198467	0.504852
H168	H	1.386690	0.698467	1.004852
H169	H	0.920818	-0.296284	0.065005
H170	H	1.420818	0.203716	0.565005
H171	H	1.072896	-0.313261	0.157786
H172	H	1.572896	0.186739	0.657786
H173	H	1.070705	-0.314429	-0.157536
H174	H	1.570705	0.185571	0.342464
H175	H	1.178293	-0.326211	-0.096106
H176	H	1.678293	0.173789	0.403894
O177	O	1.183042	-0.002493	0.449985
O178	O	1.683042	0.497507	0.949985
H179	H	1.225344	-0.042007	0.398592
H180	H	1.725344	0.457993	0.898592
O181	O	1.183065	-0.002512	0.757342
O182	O	1.683065	0.497488	1.257342
H183	H	1.172849	0.007030	0.835011
H184	H	1.672849	0.507030	1.335011
