data_functionalizedCrystal
_audit_creation_method	'MofGen! by Chris Wilmer'
_symmetry_space_group_name_H-M	'P1'
_symmetry_Int_Tables_number	1
_symmetry_cell_setting	triclinic
loop_
_symmetry_equiv_pos_as_xyz
  x,y,z
_cell_length_a	18.050591
_cell_length_b	25.639239
_cell_length_c	18.050582
_cell_angle_alpha	90.024638
_cell_angle_beta	90.020922
_cell_angle_gamma	90.034692
loop_
_atom_site_label
_atom_site_type_symbol
_atom_site_fract_x
_atom_site_fract_y
_atom_site_fract_z
Zn1	Zn	1.135238	-0.208240	0.420021
Zn2	Zn	1.135126	-0.295667	0.295826
Zn3	Zn	1.011058	-0.208242	0.295832
Zn4	Zn	1.010983	-0.295640	0.419962
O5	O	1.073101	-0.251947	0.357910
O6	O	1.239148	-0.219848	0.403568
O7	O	1.118653	-0.284083	0.191902
O8	O	1.027609	-0.135076	0.312333
O9	O	1.239066	-0.284081	0.312323
O10	O	1.118844	-0.135075	0.403574
O11	O	1.027500	-0.219851	0.191906
O12	O	0.907123	-0.219825	0.312276
O13	O	1.027481	-0.284034	0.523894
O14	O	0.907068	-0.284036	0.403473
O15	O	1.118771	-0.219821	0.523938
O16	O	1.118580	-0.368829	0.312266
O17	O	1.027373	-0.368809	0.403468
C18	C	0.880149	-0.251928	0.357869
C19	C	0.797604	-0.251932	0.357869
C20	C	0.598161	-0.216974	0.308390
C21	C	0.548729	-0.264661	0.290112
C22	C	0.646473	-0.251948	0.357903
C23	C	0.548824	-0.204277	0.376179
C24	C	0.500488	-0.251959	0.357934
C25	C	0.598128	-0.299660	0.339589
C26	C	0.598227	-0.239244	0.425688
C27	C	0.548817	-0.286965	0.407435
C28	C	0.730571	-0.251941	0.357883
C29	C	0.416392	-0.251971	0.357954
C30	C	1.072977	-0.387790	0.357876
C31	C	1.072991	-0.445904	0.357886
C32	C	1.120717	-0.806265	0.310502
C33	C	1.120746	-0.860869	0.310512
O34	O	1.161195	-0.889104	0.270187
N35	N	1.073232	-0.888186	0.357959
C36	C	1.025691	-0.860896	0.405405
O37	O	0.985280	-0.889145	0.445764
C38	C	1.025667	-0.806293	0.405398
C39	C	1.073179	-0.778979	0.357943
C40	C	1.168226	-0.778951	0.263051
C41	C	1.168196	-0.724350	0.263040
C42	C	1.120657	-0.697064	0.310481
C43	C	1.073149	-0.724378	0.357932
C44	C	0.978131	-0.779004	0.452847
C45	C	0.978111	-0.724397	0.452837
C46	C	1.025622	-0.697083	0.405381
C47	C	1.025580	-0.642491	0.405362
N48	N	1.073094	-0.615174	0.357914
C49	C	1.120633	-0.642460	0.310474
C50	C	1.025747	-0.975567	0.405416
C51	C	1.025768	-1.030169	0.405420
C52	C	1.120823	-1.030138	0.310528
C53	C	1.120799	-0.975535	0.310521
C54	C	1.073261	-0.948250	0.357969
C55	C	1.120566	-0.527795	0.310455
C56	C	1.120530	-0.473190	0.310446
C57	C	1.025477	-0.473226	0.405340
C58	C	1.025510	-0.527826	0.405347
C59	C	1.073061	-0.555110	0.357901
O60	O	0.985154	-0.614222	0.445668
O61	O	1.161044	-0.614205	0.270129
C62	C	1.266807	-0.251967	0.357952
C63	C	1.349353	-0.251976	0.357970
C64	C	1.073131	-0.251924	0.551616
C65	C	1.073143	-0.251914	0.634162
C66	C	1.073247	-0.115574	0.357961
C67	C	1.073309	-0.057460	0.357982
C68	C	1.073115	-0.251933	0.164958
C69	C	1.073247	-0.251795	0.082413
C70	C	1.023537	-0.286785	0.833589
C71	C	1.091289	-0.299569	0.882987
C72	C	1.073180	-0.251874	0.785292
C73	C	1.005465	-0.239076	0.882976
C74	C	1.073209	-0.251837	0.931277
C75	C	1.140967	-0.264683	0.833603
C76	C	1.055097	-0.204168	0.833588
C77	C	1.122896	-0.216933	0.882963
C78	C	1.073162	-0.251897	0.701194
C79	C	1.073235	-0.251814	1.015374
H80	H	0.619985	-0.228476	0.482982
O81	O	1.166656	-0.554356	0.264339
C82	C	1.176767	-0.616016	0.164071
C83	C	1.124489	-0.585976	0.216257
H84	H	1.142695	-0.641580	0.125173
H85	H	1.215577	-0.641571	0.198178
H86	H	1.210737	-0.587102	0.130191
H87	H	1.090471	-0.614852	0.250147
H88	H	1.085728	-0.560413	0.182107
O89	O	1.109435	-0.347710	0.908845
C90	C	1.077653	-0.438957	0.912988
C91	C	1.057014	-0.384464	0.883673
H92	H	1.035291	-0.468689	0.892635
H93	H	1.077986	-0.438411	0.976141
H94	H	1.135002	-0.450117	0.891846
H95	H	0.999662	-0.373271	0.904759
H96	H	1.056733	-0.385039	0.820521
H97	H	0.527126	-0.163963	0.391599
O98	O	0.979531	-1.056723	0.451407
C99	C	0.879315	-1.118455	0.461320
C100	C	0.931617	-1.088410	0.409148
H101	H	0.840574	-1.144090	0.427175
H102	H	0.845281	-1.089592	0.495209
H103	H	0.913414	-1.143956	0.500209
H104	H	0.897576	-1.062908	0.370214
H105	H	0.965653	-1.117301	0.375311
O106	O	0.522696	-0.277395	0.221741
C107	C	0.449295	-0.250744	0.116864
C108	C	0.478708	-0.236283	0.194301
H109	H	0.413738	-0.217509	0.094649
H110	H	0.414466	-0.287749	0.120742
H111	H	0.497959	-0.257670	0.077848
H112	H	0.430090	-0.229330	0.233359
H113	H	0.513560	-0.199292	0.190365
O114	O	0.624139	-0.181733	0.258444
C115	C	0.731565	-0.141957	0.202866
C116	C	0.702245	-0.181871	0.259469
H117	H	0.794717	-0.142063	0.203665
H118	H	0.710493	-0.101397	0.217860
H119	H	0.711183	-0.152889	0.145122
H120	H	0.722615	-0.170987	0.317232
H121	H	0.723311	-0.222420	0.244411
O122	O	0.623976	-0.347739	0.321061
C123	C	0.731260	-0.401680	0.300307
C124	C	0.702086	-0.347206	0.321283
H125	H	0.794414	-0.401270	0.300495
H126	H	0.710484	-0.412596	0.242696
H127	H	0.710470	-0.431515	0.342255
H128	H	0.722863	-0.317335	0.279385
H129	H	0.722855	-0.336334	0.378912
O130	O	1.209266	-0.277652	0.807720
C131	C	1.285886	-0.292191	0.700398
C132	C	1.208502	-0.277506	0.729611
H133	H	1.285298	-0.292067	0.637244
H134	H	1.301426	-0.332729	0.721132
H135	H	1.328242	-0.262608	0.721199
H136	H	1.166094	-0.307053	0.708822
H137	H	1.193025	-0.236954	0.708882
H138	H	1.159219	-0.450952	0.271799
H139	H	1.206886	-0.702114	0.224400
O140	O	0.973409	-0.322016	0.807808
C141	C	0.845504	-0.348897	0.804696
C142	C	0.902193	-0.308969	0.833958
H143	H	0.787910	-0.338356	0.825813
H144	H	0.861012	-0.389546	0.825013
H145	H	0.845620	-0.348327	0.741544
H146	H	0.902106	-0.309492	0.897108
H147	H	0.886664	-0.268338	0.813583
H148	H	1.206941	-0.801161	0.224419
H149	H	1.159487	-0.953299	0.271879
O150	O	1.173148	-0.181753	0.908636
C151	C	1.301287	-0.155473	0.912432
C152	C	1.244456	-0.195356	0.883321
H153	H	1.358950	-0.166451	0.891963
H154	H	1.300656	-0.155473	0.975586
H155	H	1.286313	-0.114944	0.891253
H156	H	1.259390	-0.235905	0.904444
H157	H	1.245098	-0.195311	0.820167
H158	H	0.527288	-0.316580	0.449320
H159	H	1.039765	-0.163851	0.811873
O160	O	1.167034	-1.056730	0.264566
C161	C	1.209280	-1.140843	0.222625
C162	C	1.156894	-1.110791	0.274689
H163	H	1.201089	-1.184557	0.230779
H164	H	1.269141	-1.130076	0.235798
H165	H	1.196354	-1.130138	0.162707
H166	H	1.169752	-1.121480	0.334624
H167	H	1.097048	-1.121561	0.261452
O168	O	0.979489	-0.949145	0.451528
C169	C	0.885241	-0.954950	0.545677
C170	C	0.937575	-0.984933	0.493481
H171	H	0.851350	-0.983871	0.579621
H172	H	0.846366	-0.929439	0.511576
H173	H	0.919306	-0.929335	0.584514
H174	H	0.903569	-1.010576	0.454634
H175	H	0.976451	-1.010411	0.527629
O176	O	0.931956	-0.805447	0.499019
C177	C	0.837654	-0.799691	0.593118
C178	C	0.889923	-0.769681	0.540874
H179	H	0.803646	-0.770787	0.626960
H180	H	0.871701	-0.825201	0.632041
H181	H	0.798880	-0.825309	0.558985
H182	H	0.928708	-0.744034	0.574947
H183	H	0.855830	-0.744204	0.501949
H184	H	0.948187	-0.228267	0.904665
H185	H	0.986824	-0.550067	0.443991
O186	O	0.931999	-0.697812	0.498904
C187	C	0.889790	-0.613708	0.540920
C188	C	0.942061	-0.643749	0.488727
H189	H	0.897896	-0.569993	0.532699
H190	H	0.902802	-0.624374	0.600834
H191	H	0.829930	-0.624524	0.527828
H192	H	1.001939	-0.632949	0.501751
H193	H	0.928986	-0.633080	0.428829
O194	O	0.979371	-0.446633	0.451399
C195	C	0.937189	-0.362521	0.493405
C196	C	0.989448	-0.392573	0.441213
H197	H	0.945307	-0.318807	0.485177
H198	H	0.950202	-0.373184	0.553320
H199	H	0.877325	-0.373329	0.480320
H200	H	1.049330	-0.381780	0.454232
H201	H	0.976371	-0.381907	0.381314
