data_functionalizedCrystal
_audit_creation_method	'MofGen! by Chris Wilmer'
_symmetry_space_group_name_H-M	'P1'
_symmetry_Int_Tables_number	1
_symmetry_cell_setting	triclinic
loop_
_symmetry_equiv_pos_as_xyz
  x,y,z
_cell_length_a	14.044220
_cell_length_b	14.044220
_cell_length_c	13.101039
_cell_angle_alpha	86.332523
_cell_angle_beta	86.335636
_cell_angle_gamma	86.811123
loop_
_atom_site_label
_atom_site_type_symbol
_atom_site_fract_x
_atom_site_fract_y
_atom_site_fract_z
O1	O	1.281975	-0.225342	-0.085218
O2	O	1.531975	0.024658	0.164782
O3	O	1.781975	0.274658	0.414782
O4	O	2.031975	0.524658	0.664782
O5	O	1.005303	-0.217036	-0.085220
O6	O	1.255303	0.032964	0.164780
O7	O	1.505303	0.282964	0.414780
O8	O	1.755303	0.532964	0.664780
O9	O	1.139486	-0.082854	-0.085209
O10	O	1.389486	0.167146	0.164791
O11	O	1.639486	0.417146	0.414791
O12	O	1.889486	0.667146	0.664791
O13	O	1.147792	-0.359524	-0.085229
O14	O	1.397792	-0.109524	0.164771
O15	O	1.647792	0.140476	0.414771
O16	O	1.897792	0.390476	0.664771
O17	O	1.129860	-0.092499	0.085220
O18	O	1.379860	0.157501	0.335220
O19	O	1.629860	0.407501	0.585220
O20	O	1.879860	0.657501	0.835220
O21	O	0.995677	-0.226681	0.085209
O22	O	1.245677	0.023319	0.335209
O23	O	1.495677	0.273319	0.585209
O24	O	1.745677	0.523319	0.835209
O25	O	1.272349	-0.234987	0.085211
O26	O	1.522349	0.015013	0.335211
O27	O	1.772349	0.265013	0.585211
O28	O	2.022349	0.515013	0.835211
Zn29	Zn	1.132485	-0.232365	0.112270
Zn30	Zn	1.382485	0.017635	0.362270
Zn31	Zn	1.632485	0.267635	0.612270
Zn32	Zn	1.882485	0.517635	0.862270
Zn33	Zn	1.145167	-0.219658	-0.112278
Zn34	Zn	1.395167	0.030342	0.137722
Zn35	Zn	1.645167	0.280342	0.387722
Zn36	Zn	1.895167	0.530342	0.637722
O37	O	1.138166	-0.369169	0.085200
O38	O	1.388166	-0.119169	0.335200
O39	O	1.638166	0.130831	0.585200
O40	O	1.888166	0.380831	0.835200
C41	C	1.131037	-0.052055	0.000006
C42	C	1.381037	0.197945	0.250006
C43	C	1.631037	0.447945	0.500006
C44	C	1.881037	0.697945	0.750006
C45	C	1.120192	0.054088	0.000007
C46	C	1.370192	0.304088	0.250007
C47	C	1.620192	0.554088	0.500007
C48	C	1.870192	0.804088	0.750007
C49	C	0.964868	-0.218223	-0.000006
C50	C	1.214868	0.031777	0.249994
C51	C	1.464868	0.281777	0.499994
C52	C	1.714868	0.531777	0.749994
C53	C	0.858726	-0.207378	-0.000006
C54	C	1.108726	0.042622	0.249994
C55	C	1.358726	0.292622	0.499994
C56	C	1.608726	0.542622	0.749994
C57	C	1.312784	-0.233800	-0.000005
C58	C	1.562784	0.016200	0.249995
C59	C	1.812784	0.266200	0.499995
C60	C	2.062784	0.516200	0.749995
C61	C	1.418927	-0.244644	-0.000011
C62	C	1.668927	0.005356	0.249989
C63	C	1.918927	0.255356	0.499989
C64	C	2.168927	0.505356	0.749989
C65	C	1.613264	-0.264471	-0.000012
C66	C	1.863264	-0.014471	0.249988
C67	C	2.113264	0.235529	0.499988
C68	C	2.363264	0.485529	0.749988
C69	C	1.664394	-0.187556	-0.000006
C70	C	1.914394	0.062444	0.249994
C71	C	2.164394	0.312444	0.499994
C72	C	2.414394	0.562444	0.749994
C73	C	1.772530	-0.198588	-0.000006
C74	C	2.022530	0.051412	0.249994
C75	C	2.272530	0.301412	0.499994
C76	C	2.522530	0.551412	0.749994
C77	C	1.505118	-0.253440	-0.000012
C78	C	1.755118	-0.003440	0.249988
C79	C	2.005118	0.246560	0.499988
C80	C	2.255118	0.496560	0.749988
C81	C	1.146615	-0.399968	-0.000017
C82	C	1.396615	-0.149968	0.249983
C83	C	1.646615	0.100032	0.499983
C84	C	1.896615	0.350032	0.749983
C85	C	1.157460	-0.506111	-0.000025
C86	C	1.407460	-0.256111	0.249975
C87	C	1.657460	-0.006111	0.499975
C88	C	1.907460	0.243889	0.749975
N89	N	1.123836	-0.241038	0.265517
N90	N	1.373836	0.008962	0.515517
N91	N	1.623836	0.258962	0.765517
N92	N	1.873836	0.508962	1.015517
C93	C	1.100367	0.248427	-0.000008
C94	C	1.350367	0.498427	0.249992
C95	C	1.600367	0.748427	0.499992
C96	C	1.850367	0.998427	0.749992
C97	C	1.177281	0.299557	-0.000010
C98	C	1.427281	0.549557	0.249990
C99	C	1.677281	0.799557	0.499990
C100	C	1.927281	1.049557	0.749990
C101	C	1.166250	0.407693	-0.000018
C102	C	1.416250	0.657693	0.249982
C103	C	1.666250	0.907693	0.499982
C104	C	1.916250	1.157693	0.749982
C105	C	1.111396	0.140280	0.000001
C106	C	1.361396	0.390280	0.250001
C107	C	1.611396	0.640280	0.500001
C108	C	1.861396	0.890280	0.750001
N109	N	1.153823	-0.210978	-0.265526
N110	N	1.403823	0.039022	-0.015526
N111	N	1.653823	0.289022	0.234474
N112	N	1.903823	0.539022	0.484474
C113	C	1.112070	-0.252846	0.474559
C114	C	1.362070	-0.002846	0.724559
C115	C	1.612070	0.247154	0.974559
C116	C	1.862070	0.497154	1.224559
C117	C	1.165586	-0.199173	0.525439
C118	C	1.415586	0.050827	0.775439
C119	C	1.665586	0.300827	1.025439
C120	C	1.915586	0.550827	1.275439
C121	C	1.159039	-0.205743	0.641757
C122	C	1.409039	0.044257	0.891757
C123	C	1.659039	0.294257	1.141757
C124	C	1.909039	0.544257	1.391757
C125	C	1.118616	-0.246277	0.358230
C126	C	1.368616	0.003723	0.608230
C127	C	1.618616	0.253723	0.858230
C128	C	1.868616	0.503723	1.108230
H129	H	1.626959	-0.113419	-0.000075
H130	H	1.876959	0.136581	0.249925
H131	H	2.126959	0.386581	0.499925
H132	H	2.376959	0.636581	0.749925
O133	O	1.662845	-0.362666	-0.000029
O134	O	1.912845	-0.112666	0.249971
O135	O	2.162845	0.137334	0.499971
O136	O	2.412845	0.387334	0.749971
H137	H	1.741231	-0.356028	-0.000038
H138	H	1.991231	-0.106028	0.249962
H139	H	2.241231	0.143972	0.499962
H140	H	2.491231	0.393972	0.749962
H141	H	1.026239	0.285864	-0.000011
H142	H	1.276239	0.535864	0.249989
H143	H	1.526239	0.785864	0.499989
H144	H	1.776239	1.035864	0.749989
O145	O	1.275483	0.249975	0.000009
O146	O	1.525483	0.499975	0.250009
O147	O	1.775483	0.749975	0.500009
O148	O	2.025483	0.999975	0.750009
H149	H	1.268852	0.171589	0.000027
H150	H	1.518852	0.421589	0.250027
H151	H	1.768852	0.671589	0.500027
H152	H	2.018852	0.921589	0.750027
O153	O	1.232793	-0.131768	0.467437
O154	O	1.482793	0.118232	0.717437
O155	O	1.732793	0.368232	0.967437
O156	O	1.982793	0.618232	1.217437
H157	H	1.227461	-0.137123	0.383854
H158	H	1.477461	0.112877	0.633854
H159	H	1.727461	0.362877	0.883854
H160	H	1.977461	0.612877	1.133854
H161	H	1.061341	-0.303728	0.518352
H162	H	1.311341	-0.053728	0.768352
H163	H	1.561341	0.196272	1.018352
H164	H	1.811341	0.446272	1.268352
