data_functionalizedCrystal
_audit_creation_method	'MofGen! by Chris Wilmer'
_symmetry_space_group_name_H-M	'P1'
_symmetry_Int_Tables_number	1
_symmetry_cell_setting	triclinic
loop_
_symmetry_equiv_pos_as_xyz
  x,y,z
_cell_length_a	14.519709
_cell_length_b	10.540539
_cell_length_c	12.996460
_cell_angle_alpha	89.996006
_cell_angle_beta	90.000034
_cell_angle_gamma	84.102818
loop_
_atom_site_label
_atom_site_type_symbol
_atom_site_fract_x
_atom_site_fract_y
_atom_site_fract_z
O1	O	1.224765	0.166400	-0.085428
O2	O	1.724765	0.666400	0.414572
O3	O	0.956394	0.185995	-0.085459
O4	O	1.456394	0.685995	0.414541
O5	O	1.096702	-0.008571	-0.085441
O6	O	1.596702	0.491429	0.414559
O7	O	1.084457	0.360967	-0.085445
O8	O	1.584457	0.860967	0.414555
O9	O	1.096688	-0.008582	0.085693
O10	O	1.596688	0.491418	0.585693
O11	O	0.956379	0.185985	0.085675
O12	O	1.456379	0.685985	0.585675
O13	O	1.224751	0.166389	0.085706
O14	O	1.724751	0.666389	0.585706
Cu15	Cu	1.090563	0.176186	0.101316
Cu16	Cu	1.590563	0.676186	0.601316
Cu17	Cu	1.090581	0.176199	-0.101069
Cu18	Cu	1.590581	0.676199	0.398931
O19	O	1.084442	0.360956	0.085689
O20	O	1.584442	0.860956	0.585689
C21	C	0.922022	0.185077	0.000104
C22	C	1.422022	0.685077	0.500104
C23	C	0.819626	0.182340	0.000092
C24	C	1.319626	0.682340	0.500092
C25	C	0.444676	0.172265	0.000139
C26	C	0.944676	0.672265	0.500139
C27	C	0.548999	0.175063	0.000126
C28	C	1.048999	0.675063	0.500126
C29	C	0.632148	0.177303	0.000115
C30	C	1.132148	0.677303	0.500115
C31	C	0.736477	0.180101	0.000103
C32	C	1.236477	0.680101	0.500103
C33	C	1.095777	-0.055870	0.000124
C34	C	1.595777	0.444130	0.500124
C35	C	1.093029	-0.196790	0.000118
C36	C	1.593029	0.303210	0.500118
C37	C	0.987750	-0.379142	-0.000278
C38	C	1.487750	0.120858	0.499722
C39	C	0.990535	-0.232553	0.000107
C40	C	1.490535	0.267447	0.500107
C41	C	1.142346	-0.258958	0.097849
C42	C	1.642346	0.241042	0.597849
C43	C	1.138848	-0.405467	0.097931
C44	C	1.638848	0.094533	0.597931
C45	C	1.140949	-0.405994	-0.096680
C46	C	1.640949	0.094006	0.403320
C47	C	1.141893	-0.259021	-0.097972
C48	C	1.641893	0.240979	0.402028
C49	C	1.259123	0.167308	0.000141
C50	C	1.759123	0.667308	0.500141
C51	C	1.361519	0.170044	0.000146
C52	C	1.861519	0.670044	0.500146
C53	C	1.085368	0.408255	0.000121
C54	C	1.585368	0.908255	0.500121
C55	C	1.088115	0.549175	0.000120
C56	C	1.588115	1.049175	0.500120
N57	N	1.090558	0.176176	0.243664
N58	N	1.590558	0.676176	0.743664
N59	N	1.090594	0.176198	-0.243416
N60	N	1.590594	0.676198	0.256584
C61	C	1.090580	0.176200	0.663478
C62	C	1.590580	0.676200	1.163478
C63	C	1.090571	0.176198	0.546673
C64	C	1.590571	0.676198	1.046673
C65	C	1.090569	0.176189	0.453574
C66	C	1.590569	0.676189	0.953574
C67	C	1.090560	0.176185	0.336762
C68	C	1.590560	0.676185	0.836762
H69	H	0.951730	-0.189549	-0.069951
H70	H	1.451730	0.310451	0.430049
O71	O	1.231032	-0.231054	-0.105222
O72	O	1.731032	0.268946	0.394778
C73	C	1.373157	-0.256946	-0.202221
C74	C	1.873157	0.243054	0.297779
C75	C	1.272224	-0.288732	-0.194136
C76	C	1.772224	0.211268	0.305864
H77	H	1.406496	-0.303585	-0.274091
H78	H	1.906496	0.196415	0.225909
H79	H	1.374438	-0.149159	-0.207220
H80	H	1.874438	0.350841	0.292780
H81	H	1.413282	-0.294635	-0.131281
H82	H	1.913282	0.205365	0.368719
H83	H	1.232039	-0.251124	-0.265056
H84	H	1.732039	0.248876	0.234944
H85	H	1.271012	-0.396525	-0.189087
H86	H	1.771012	0.103475	0.310913
H87	H	1.102388	-0.433299	0.170979
H88	H	1.602388	0.066701	0.670979
O89	O	1.101516	-0.443384	-0.185078
O90	O	1.601516	0.056616	0.314922
C91	C	1.122346	-0.565178	-0.341757
C92	C	1.622346	-0.065178	0.158243
C93	C	1.167125	-0.522956	-0.241682
C94	C	1.667125	-0.022956	0.258318
H95	H	1.175376	-0.629498	-0.387559
H96	H	1.675376	-0.129498	0.112441
H97	H	1.060752	-0.619674	-0.322235
H98	H	1.560752	-0.119674	0.177765
H99	H	1.097770	-0.477530	-0.389600
H100	H	1.597770	0.022470	0.110400
H101	H	1.191758	-0.610534	-0.193791
H102	H	1.691758	-0.110534	0.306209
H103	H	1.228678	-0.468416	-0.261276
H104	H	1.728678	0.031584	0.238724
O105	O	1.226724	-0.463805	0.103206
O106	O	1.726724	0.036195	0.603206
C107	C	1.324038	-0.663114	0.109448
C108	C	1.824038	-0.163114	0.609448
C109	C	1.224477	-0.597219	0.103434
C110	C	1.724477	-0.097219	0.603434
H111	H	1.322254	-0.770989	0.109656
H112	H	1.822254	-0.270989	0.609656
H113	H	1.365253	-0.634349	0.040095
H114	H	1.865253	-0.134349	0.540095
H115	H	1.358316	-0.632770	0.183125
H116	H	1.858316	-0.132770	0.683125
H117	H	1.190119	-0.627528	0.029800
H118	H	1.690119	-0.127528	0.529800
H119	H	1.183330	-0.625983	0.172838
H120	H	1.683330	-0.125983	0.672838
H121	H	0.947421	-0.408943	0.069405
H122	H	1.447421	0.091057	0.569405
H123	H	1.108076	-0.216013	0.170570
H124	H	1.608076	0.283987	0.670570
O125	O	0.943917	-0.182473	0.083895
O126	O	1.443917	0.317527	0.583895
C127	C	0.856615	-0.224293	0.235667
C128	C	1.356615	0.275707	0.735667
C129	C	0.909398	-0.281177	0.140822
C130	C	1.409398	0.218823	0.640822
H131	H	0.828675	-0.304065	0.281707
H132	H	1.328675	0.195935	0.781707
H133	H	0.905485	-0.173191	0.285973
H134	H	1.405485	0.326809	0.785973
H135	H	0.796549	-0.153485	0.209490
H136	H	1.296549	0.346515	0.709490
H137	H	0.969464	-0.352037	0.166907
H138	H	1.469464	0.147963	0.666907
H139	H	0.860466	-0.332200	0.090538
H140	H	1.360466	0.167800	0.590538
O141	O	1.098846	-0.209942	-0.184260
O142	O	1.598846	0.290058	0.315740
C143	C	1.015980	-0.253139	-0.338894
C144	C	1.515980	0.246861	0.161106
C145	C	1.064682	-0.308896	-0.241202
C146	C	1.564682	0.191104	0.258798
H147	H	0.988363	-0.333120	-0.384970
H148	H	1.488363	0.166880	0.115030
H149	H	0.956058	-0.180017	-0.316277
H150	H	1.456058	0.319983	0.183723
H151	H	1.067531	-0.205002	-0.387797
H152	H	1.567531	0.294998	0.112203
H153	H	1.013202	-0.357099	-0.192255
H154	H	1.513202	0.142901	0.307745
H155	H	1.124619	-0.381954	-0.263891
H156	H	1.624619	0.118046	0.236109
H157	H	0.947268	-0.407325	-0.070364
H158	H	1.447268	0.092675	0.429636
H159	H	1.217614	-0.237372	0.101491
H160	H	1.717614	0.262628	0.601491
H161	H	1.214980	-0.453975	-0.097328
H162	H	1.714980	0.046025	0.402672
