data_functionalizedCrystal
_audit_creation_method	'MofGen! by Chris Wilmer'
_symmetry_space_group_name_H-M	'P1'
_symmetry_Int_Tables_number	1
_symmetry_cell_setting	triclinic
loop_
_symmetry_equiv_pos_as_xyz
  x,y,z
_cell_length_a	19.188900
_cell_length_b	17.038272
_cell_length_c	18.266242
_cell_angle_alpha	89.995358
_cell_angle_beta	90.014008
_cell_angle_gamma	92.877977
loop_
_atom_site_label
_atom_site_type_symbol
_atom_site_fract_x
_atom_site_fract_y
_atom_site_fract_z
O1	O	-0.932215	0.097478	-0.061025
O2	O	-0.432215	0.597478	0.438975
O3	O	-0.729719	0.110640	-0.060995
O4	O	-0.229719	0.610640	0.439005
O5	O	-0.829764	-0.009753	-0.061004
O6	O	-0.329764	0.490247	0.438996
O7	O	-0.832171	0.217870	-0.061016
O8	O	-0.332171	0.717870	0.438984
O9	O	-0.829752	-0.009755	0.060758
O10	O	-0.329752	0.490245	0.560758
O11	O	-0.729707	0.110637	0.060767
O12	O	-0.229707	0.610637	0.560767
O13	O	-0.932204	0.097475	0.060737
O14	O	-0.432204	0.597475	0.560737
Zn15	Zn	-0.830953	0.104056	0.080084
Zn16	Zn	-0.330953	0.604056	0.580084
Zn17	Zn	-0.830969	0.104059	-0.080342
Zn18	Zn	-0.330969	0.604059	0.419658
O19	O	-0.832159	0.217868	0.060746
O20	O	-0.332159	0.717868	0.560746
C21	C	-0.703675	0.110216	-0.000110
C22	C	-0.203675	0.610216	0.499890
C23	C	-0.626091	0.108948	-0.000099
C24	C	-0.126091	0.608948	0.499901
C25	C	-0.589668	0.108341	-0.066472
C26	C	-0.089668	0.608341	0.433528
C27	C	-0.516769	0.107141	-0.066480
C28	C	-0.016769	0.607141	0.433520
C29	C	-0.480298	0.106533	-0.000110
C30	C	0.019702	0.606533	0.499890
C31	C	-0.516730	0.107145	0.066272
C32	C	-0.016730	0.607145	0.566272
C33	C	-0.589626	0.108353	0.066278
C34	C	-0.089626	0.608353	0.566278
N35	N	-0.368391	0.060152	0.049287
N36	N	0.131609	0.560152	0.549287
N37	N	-0.299143	0.059003	0.049278
N38	N	0.200857	0.559003	0.549278
C39	C	-0.260665	0.102896	-0.000122
C40	C	0.239335	0.602896	0.499878
N41	N	-0.294052	0.147972	-0.049523
N42	N	0.205948	0.647972	0.450477
N43	N	-0.363307	0.149117	-0.049516
N44	N	0.136693	0.649117	0.450484
C45	C	-0.401254	0.105224	-0.000108
C46	C	0.098746	0.605224	0.499892
C47	C	-0.145197	0.100989	-0.066508
C48	C	0.354803	0.600989	0.433492
C49	C	-0.072297	0.099794	-0.066513
C50	C	0.427703	0.599794	0.433487
C51	C	-0.072259	0.099790	0.066241
C52	C	0.427741	0.599790	0.566241
C53	C	-0.145157	0.100992	0.066244
C54	C	0.354843	0.600992	0.566244
C55	C	-0.181622	0.101588	-0.000133
C56	C	0.318378	0.601588	0.499867
C57	C	-0.827568	-0.038875	-0.000123
C58	C	-0.327568	0.461125	0.499877
C59	C	-0.821037	-0.125647	-0.000122
C60	C	-0.321037	0.374353	0.499878
C61	C	-0.881004	-0.175956	-0.000130
C62	C	-0.381004	0.324044	0.499870
C63	C	-0.874863	-0.257486	-0.000136
C64	C	-0.374863	0.242514	0.499864
C65	C	-0.808754	-0.288706	-0.000129
C66	C	-0.308754	0.211294	0.499871
C67	C	-0.748783	-0.238391	-0.000123
C68	C	-0.248783	0.261609	0.499877
C69	C	-0.754924	-0.156862	-0.000122
C70	C	-0.254924	0.343138	0.499878
C71	C	-0.787056	-0.534394	-0.000136
C72	C	-0.287056	-0.034394	0.499864
C73	C	-0.780918	-0.615929	-0.000134
C74	C	-0.280918	-0.115929	0.499866
C75	C	-0.906999	-0.635019	-0.000149
C76	C	-0.406999	-0.135019	0.499851
C77	C	-0.913135	-0.553488	-0.000143
C78	C	-0.413135	-0.053488	0.499857
C79	C	-0.853164	-0.503179	-0.000142
C80	C	-0.353164	-0.003179	0.499858
C81	C	-0.802475	-0.372044	-0.000133
C82	C	-0.302475	0.127956	0.499867
C83	C	-0.859443	-0.419844	-0.000143
C84	C	-0.359443	0.080156	0.499857
C85	C	0.041753	0.097904	-0.000143
C86	C	0.541753	0.597904	0.499857
C87	C	-0.035830	0.099187	-0.000142
C88	C	0.464170	0.599187	0.499858
C89	C	-0.834354	0.246990	-0.000137
C90	C	-0.334354	0.746990	0.499863
C91	C	-0.840885	0.333762	-0.000142
C92	C	-0.340885	0.833762	0.499858
N93	N	-0.830980	0.104056	-0.189829
N94	N	-0.330980	0.604056	0.310171
N95	N	-0.830948	0.104053	0.189571
N96	N	-0.330948	0.604053	0.689571
C97	C	-0.875281	0.050761	0.771845
C98	C	-0.375281	0.550761	1.271845
C99	C	-0.875282	0.050763	0.695200
C100	C	-0.375282	0.550763	1.195200
C101	C	-0.830969	0.104052	0.656884
C102	C	-0.330969	0.604052	1.156884
C103	C	-0.786664	0.157357	0.695219
C104	C	-0.286664	0.657357	1.195219
C105	C	-0.786670	0.157359	0.771863
C106	C	-0.286670	0.657359	1.271863
N107	N	-0.769786	0.114190	0.536566
N108	N	-0.269786	0.614190	1.036566
N109	N	-0.769783	0.114183	0.463758
N110	N	-0.269783	0.614183	0.963758
C111	C	-0.830952	0.104051	0.425961
C112	C	-0.330952	0.604051	0.925961
N113	N	-0.892125	0.093910	0.463724
N114	N	-0.392125	0.593910	0.963724
N115	N	-0.892127	0.093912	0.536538
N116	N	-0.392127	0.593912	1.036538
C117	C	-0.830959	0.104056	0.573777
C118	C	-0.330959	0.604056	1.073777
C119	C	-0.875258	0.050754	0.304528
C120	C	-0.375258	0.550754	0.804528
C121	C	-0.875261	0.050762	0.227882
C122	C	-0.375261	0.550762	0.727882
C123	C	-0.786636	0.157353	0.227903
C124	C	-0.286636	0.657353	0.727903
C125	C	-0.786640	0.157349	0.304548
C126	C	-0.286640	0.657349	0.804548
C127	C	-0.830950	0.104046	0.342856
C128	C	-0.330950	0.604046	0.842856
H129	H	-0.487108	0.106648	-0.120531
H130	H	0.012892	0.606648	0.379469
H131	H	-0.727082	-0.641345	-0.000117
H132	H	-0.227082	-0.141345	0.499883
H133	H	-0.911341	0.007354	0.335720
H134	H	-0.411341	0.507354	0.835720
N135	N	-0.971678	-0.689281	-0.000164
N136	N	-0.471678	-0.189281	0.499836
H137	H	-1.014489	-0.657131	-0.000170
H138	H	-0.514489	-0.157131	0.499830
H139	H	-0.971874	-0.723530	0.044973
H140	H	-0.471874	-0.223530	0.544973
H141	H	-0.487030	0.106652	0.120311
H142	H	0.012970	0.606652	0.620311
H143	H	-0.619282	0.108848	0.120329
H144	H	-0.119282	0.608848	0.620329
N145	N	-0.677481	-0.272067	-0.000113
N146	N	-0.177481	0.227933	0.499887
H147	H	-0.650986	-0.253707	0.045028
H148	H	-0.150986	0.246293	0.545028
H149	H	-0.651050	-0.253694	-0.045276
H150	H	-0.151050	0.246306	0.454724
N151	N	-0.628994	0.109002	-0.138063
N152	N	-0.128994	0.609002	0.361937
H153	H	-0.680701	0.109861	-0.127990
H154	H	-0.180701	0.609861	0.372010
H155	H	-0.619053	0.060345	-0.167048
H156	H	-0.119053	0.560345	0.332952
H157	H	-0.911363	0.007360	0.803033
H158	H	-0.411363	0.507360	1.303033
H159	H	-0.911340	0.007365	0.196676
H160	H	-0.411340	0.507365	0.696676
H161	H	-0.750585	0.200748	0.664019
H162	H	-0.250585	0.700748	1.164019
H163	H	-0.738223	-0.493442	-0.000134
H164	H	-0.238223	0.006558	0.499866
N165	N	-0.923068	-0.006721	0.653850
N166	N	-0.423068	0.493279	1.153850
H167	H	-0.951139	-0.040486	0.689748
H168	H	-0.451139	0.459514	1.189748
H169	H	-0.894283	-0.041197	0.622064
H170	H	-0.394283	0.458803	1.122064
H171	H	-0.750563	0.200744	0.335755
H172	H	-0.250563	0.700744	0.835755
H173	H	-0.750559	0.200745	0.196707
H174	H	-0.250559	0.700745	0.696707
H175	H	-0.174887	0.101482	-0.120556
H176	H	0.325113	0.601482	0.379444
H177	H	-0.706093	-0.115901	-0.000116
H178	H	-0.206093	0.384099	0.499884
H179	H	-0.042642	0.099304	-0.120564
H180	H	0.457358	0.599304	0.379436
H181	H	-0.042564	0.099299	0.120281
H182	H	0.457436	0.599299	0.620281
N183	N	-0.184448	0.101647	0.137833
N184	N	0.315552	0.601647	0.637833
H185	H	-0.150284	0.101081	0.179878
H186	H	0.349716	0.601081	0.679878
H187	H	-0.217484	0.053701	0.140731
H188	H	0.282516	0.553701	0.640731
N189	N	-0.738880	0.214839	0.813206
N190	N	-0.238880	0.714839	1.313206
H191	H	-0.710806	0.248600	0.777306
H192	H	-0.210806	0.748600	1.277306
H193	H	-0.706246	0.184996	0.845014
H194	H	-0.206246	0.684996	1.345014
N195	N	-0.952307	-0.142285	-0.000131
N196	N	-0.452307	0.357715	0.499869
H197	H	-0.989364	-0.186531	-0.000138
H198	H	-0.489364	0.313469	0.499862
H199	H	-0.957608	-0.108869	-0.045269
H200	H	-0.457608	0.391131	0.454731
H201	H	-0.923694	-0.298445	-0.000141
H202	H	-0.423694	0.201555	0.499859
N203	N	-0.930745	-0.386177	-0.000144
N204	N	-0.430745	0.113823	0.499856
H205	H	-0.936112	-0.352768	-0.045279
H206	H	-0.436112	0.147232	0.454721
H207	H	-0.936042	-0.352820	0.045025
H208	H	-0.436042	0.147180	0.545025
H209	H	-0.966968	-0.528075	-0.000149
H210	H	-0.466968	-0.028075	0.499851
H211	H	-0.748649	-0.397472	-0.000125
H212	H	-0.248649	0.102528	0.499875
