data_functionalizedCrystal
_audit_creation_method	'MofGen! by Chris Wilmer'
_symmetry_space_group_name_H-M	'P1'
_symmetry_Int_Tables_number	1
_symmetry_cell_setting	triclinic
loop_
_symmetry_equiv_pos_as_xyz
  x,y,z
_cell_length_a	12.811457
_cell_length_b	12.811415
_cell_length_c	9.130313
_cell_angle_alpha	84.567879
_cell_angle_beta	95.431704
_cell_angle_gamma	84.559489
loop_
_atom_site_label
_atom_site_type_symbol
_atom_site_fract_x
_atom_site_fract_y
_atom_site_fract_z
O1	O	1.393278	0.141366	0.044495
O2	O	1.087763	0.156740	0.001869
O3	O	1.248207	-0.003705	0.044500
O4	O	1.232834	0.301811	0.001865
O5	O	1.248205	-0.003701	0.288098
O6	O	1.087761	0.156744	0.245467
O7	O	1.393276	0.141371	0.288093
Cu8	Cu	1.240518	0.149058	0.289023
Cu9	Cu	1.240521	0.149053	0.000940
O10	O	1.232832	0.301816	0.245463
C11	C	1.048654	0.155881	0.118588
C12	C	0.932126	0.153301	0.103451
C13	C	0.713155	0.148440	0.340610
C14	C	0.603666	0.146016	0.326395
C15	C	0.603658	0.146023	0.060808
C16	C	0.713147	0.148446	0.075023
C17	C	0.767891	0.149656	0.214929
C18	C	0.877381	0.152088	0.229141
C19	C	0.877372	0.152087	-0.036443
C20	C	0.767883	0.149663	-0.050658
C21	C	1.247345	-0.042811	0.171377
C22	C	1.244766	-0.159340	0.186508
C23	C	1.239902	-0.378304	-0.050663
C24	C	1.237479	-0.487793	-0.036453
C25	C	1.237488	-0.487809	0.229135
C26	C	1.239911	-0.378320	0.214925
C27	C	1.241120	-0.323571	0.075022
C28	C	1.243551	-0.214081	0.060815
C29	C	1.243552	-0.214098	0.326400
C30	C	1.241129	-0.323587	0.340610
C31	C	1.432385	0.142230	0.171372
C32	C	1.548913	0.144809	0.186499
C33	C	1.233694	0.340921	0.118582
C34	C	1.236273	0.457450	0.103441
N35	N	1.240524	0.149061	0.491646
N36	N	1.240523	0.149041	-0.201681
C37	C	1.311587	0.078040	0.587174
C38	C	1.311585	0.078027	0.740512
C39	C	1.169452	0.220066	0.702779
C40	C	1.169451	0.220072	0.549444
C41	C	1.393649	-0.003962	0.608960
C42	C	1.393647	-0.003975	0.762298
H43	H	0.757727	0.149439	0.454524
H44	H	0.559103	0.145031	0.428738
H45	H	0.559068	0.145020	-0.053093
H46	H	1.236484	-0.532352	-0.138800
C47	C	0.707652	0.148332	-0.204546
N48	N	0.662286	0.147333	-0.320458
H49	H	1.236495	-0.532403	0.343036
C50	C	1.239795	-0.383823	0.494495
N51	N	1.238793	-0.429191	0.610405
H52	H	1.244548	-0.169523	0.428743
H53	H	1.368476	-0.080105	0.816616
H54	H	1.376079	-0.084563	0.575715
C55	C	0.937599	0.153415	0.383039
N56	N	0.982952	0.154409	0.498960
H57	H	1.469747	0.021271	0.568157
C58	C	1.244877	-0.153858	-0.093081
N59	N	1.245871	-0.108501	-0.209001
C60	C	0.937591	0.153426	-0.174702
N61	N	0.982948	0.154437	-0.278837
C62	C	1.241238	-0.318078	-0.204555
N63	N	1.242243	-0.272718	-0.320469
H64	H	1.111577	0.277894	0.471665
H65	H	1.111586	0.277881	0.749855
C66	C	1.502482	0.019928	0.829808
N67	N	1.584444	0.037962	0.880651
