data_functionalizedCrystal
_audit_creation_method	'MofGen! by Chris Wilmer'
_symmetry_space_group_name_H-M	'P1'
_symmetry_Int_Tables_number	1
_symmetry_cell_setting	triclinic
loop_
_symmetry_equiv_pos_as_xyz
  x,y,z
_cell_length_a	12.594517
_cell_length_b	12.594516
_cell_length_c	8.497374
_cell_angle_alpha	90.007299
_cell_angle_beta	90.004279
_cell_angle_gamma	90.017972
loop_
_atom_site_label
_atom_site_type_symbol
_atom_site_fract_x
_atom_site_fract_y
_atom_site_fract_z
Zn1	Zn	1.627072	-0.423923	0.892068
Zn2	Zn	1.627009	-0.601872	0.628280
Zn3	Zn	1.449129	-0.423908	0.628286
Zn4	Zn	1.449052	-0.601860	0.892002
O5	O	1.538066	-0.512891	0.760159
O6	O	1.776010	-0.447541	0.857102
O7	O	1.603419	-0.578263	0.407519
O8	O	1.472792	-0.274964	0.663307
O9	O	1.775963	-0.578279	0.663298
O10	O	1.603526	-0.274976	0.857107
O11	O	1.472731	-0.447514	0.407523
O12	O	1.300173	-0.447501	0.663243
O13	O	1.472660	-0.578257	1.112773
O14	O	1.300116	-0.578242	0.856994
O15	O	1.603451	-0.447528	1.112822
O16	O	1.603344	-0.750816	0.663233
O17	O	1.472599	-0.750807	0.856988
C18	C	1.261525	-0.512869	0.760113
C19	C	1.143219	-0.512886	0.760130
C20	C	1.537986	-0.789432	0.760137
C21	C	1.538049	-0.907737	0.760181
C22	C	1.466995	-1.047787	0.865511
C23	C	1.564022	-0.976886	0.904217
C24	C	1.441031	-0.977067	0.721545
C25	C	1.635301	-1.047621	0.799020
C26	C	1.512245	-1.047809	0.616282
C27	C	1.609339	-0.976939	0.654933
C28	C	1.073966	-0.441679	0.654950
C29	C	1.003159	-0.538759	0.616150
C30	C	1.003227	-0.415854	0.798957
C31	C	1.073971	-0.610017	0.721255
C32	C	1.074045	-0.487046	0.904129
C33	C	1.003270	-0.584193	0.865384
C34	C	1.815686	-0.512913	0.760207
C35	C	1.933992	-0.512922	0.760227
C36	C	1.538072	-0.512908	1.350279
C37	C	1.538061	-0.512903	1.171635
C38	C	1.538175	-0.235270	0.760215
C39	C	1.538221	-0.116964	0.760239
H40	H	1.585926	-0.945734	1.025934
H41	H	0.972097	-0.333790	0.831703
H42	H	1.406908	-1.078892	0.954628
C43	C	1.746269	-1.089307	0.843396
H44	H	1.745645	-1.164737	0.843199
H45	H	1.796840	-1.064481	0.769064
H46	H	1.764771	-1.064434	0.945327
H47	H	1.669569	-0.946029	0.565883
H48	H	1.490312	-1.078984	0.494600
H49	H	1.358911	-0.946070	0.688844
H50	H	0.972024	-0.560637	0.494414
C51	C	1.115913	-0.360415	0.534651
H52	H	1.091639	-0.378966	0.432419
H53	H	1.090652	-0.291646	0.561194
H54	H	1.191336	-0.360519	0.536106
H55	H	1.104916	-0.692115	0.688320
C56	C	0.961586	-0.665650	0.985593
H57	H	0.985940	-0.734528	0.957788
H58	H	0.986930	-0.647870	1.087542
H59	H	0.886161	-0.664818	0.985580
C60	C	1.116150	-0.457452	1.068528
H61	H	1.091973	-0.388437	1.095928
H62	H	1.090893	-0.507341	1.143548
H63	H	1.191572	-0.458291	1.067520
