data_functionalizedCrystal
_audit_creation_method	'MofGen! by Chris Wilmer'
_symmetry_space_group_name_H-M	'P1'
_symmetry_Int_Tables_number	1
_symmetry_cell_setting	triclinic
loop_
_symmetry_equiv_pos_as_xyz
  x,y,z
_cell_length_a	10.489768
_cell_length_b	9.565339
_cell_length_c	14.044220
_cell_angle_alpha	90.000736
_cell_angle_beta	91.130317
_cell_angle_gamma	89.998724
loop_
_atom_site_label
_atom_site_type_symbol
_atom_site_fract_x
_atom_site_fract_y
_atom_site_fract_z
O1	O	-1.707619	0.116190	0.133955
O2	O	-1.207619	0.616190	0.633955
O3	O	-1.337699	0.116209	0.146490
O4	O	-0.837699	0.616209	0.646490
O5	O	-1.517106	0.116186	0.002200
O6	O	-1.017106	0.616186	0.502200
O7	O	-1.528211	0.116213	0.278245
O8	O	-1.028211	0.616213	0.778245
O9	O	-1.517092	-0.116334	0.002209
O10	O	-1.017092	0.383666	0.502209
O11	O	-1.337684	-0.116311	0.146499
O12	O	-0.837684	0.383689	0.646499
O13	O	-1.707604	-0.116331	0.133964
O14	O	-1.207604	0.383669	0.633964
Zn15	Zn	-1.522642	-0.153238	0.140233
Zn16	Zn	-1.022642	0.346762	0.640233
Zn17	Zn	-1.522661	0.153117	0.140221
Zn18	Zn	-1.022661	0.653117	0.640221
O19	O	-1.528197	-0.116307	0.278254
O20	O	-1.028197	0.383693	0.778254
C21	C	-1.290064	-0.000049	0.145542
C22	C	-0.790064	0.499951	0.645542
C23	C	-1.148147	-0.000042	0.142693
C24	C	-0.648147	0.499958	0.642693
N25	N	-1.522638	-0.362318	0.140240
N26	N	-1.022638	0.137682	0.640240
C27	C	-0.985807	-0.000072	0.049187
C28	C	-0.485807	0.499928	0.549187
C29	C	-1.067935	-0.114707	0.095941
C30	C	-0.567935	0.385293	0.595941
C31	C	-1.067907	0.114539	0.095954
C32	C	-0.567907	0.614539	0.595954
C33	C	-0.977418	-0.114809	0.184418
C34	C	-0.477418	0.385191	0.684418
C35	C	-0.977383	0.114540	0.184418
C36	C	-0.477383	0.614540	0.684418
C37	C	-1.059468	-0.000123	0.231237
C38	C	-0.559468	0.499877	0.731237
C39	C	-1.439638	-0.453510	0.206948
C40	C	-0.939638	0.046490	0.706948
C41	C	-1.557082	-0.546693	0.226151
C42	C	-1.057082	-0.046693	0.726151
C43	C	-1.405246	-0.546690	0.121045
C44	C	-0.905246	-0.046690	0.621045
C45	C	-1.640144	-0.453449	0.159487
C46	C	-1.140144	0.046551	0.659487
C47	C	-1.488228	-0.453438	0.054343
C48	C	-0.988228	0.046562	0.554343
C49	C	-1.605751	-0.546579	0.073510
C50	C	-1.105751	-0.046579	0.573510
C51	C	-0.755240	-0.000073	0.134897
C52	C	-0.255240	0.499927	0.634897
C53	C	-0.897160	-0.000079	0.137701
C54	C	-0.397160	0.499921	0.637701
C55	C	-1.512238	-0.000075	-0.033144
C56	C	-1.012238	0.499925	0.466856
C57	C	-1.497738	-0.000076	-0.138470
C58	C	-0.997738	0.499924	0.361530
N59	N	-1.522674	0.362196	0.140206
N60	N	-1.022674	0.862196	0.640206
C61	C	-1.471230	-0.000054	-0.331314
C62	C	-0.971230	0.499946	0.168686
C63	C	-1.574067	-0.000055	-0.388238
C64	C	-1.074067	0.499945	0.111762
C65	C	-1.559318	-0.000043	-0.495543
C66	C	-1.059318	0.499957	0.004457
C67	C	-1.485978	-0.000066	-0.223999
C68	C	-0.985978	0.499934	0.276001
C69	C	-1.533065	-0.000044	0.313598
C70	C	-1.033065	0.499956	0.813598
C71	C	-1.547565	-0.000034	0.418924
C72	C	-1.047565	0.499966	0.918924
H73	H	-0.953280	-0.000196	-0.027785
H74	H	-0.453280	0.499804	0.472215
Br75	Br	-0.911596	-0.276532	0.246663
Br76	Br	-0.411596	0.223468	0.746663
H77	H	-1.459067	-0.412444	-0.018260
H78	H	-0.959067	0.087556	0.481740
H79	H	-0.937675	0.211471	0.221747
H80	H	-0.437675	0.711471	0.721747
H81	H	-1.673186	0.000033	-0.356383
H82	H	-1.173186	0.500033	0.143617
H83	H	-1.676040	-0.587186	0.017081
H84	H	-1.176040	-0.087186	0.517081
Br85	Br	-1.134066	-0.276263	0.033674
Br86	Br	-0.634066	0.223737	0.533674
Br87	Br	-1.134011	0.276074	0.033643
Br88	Br	-0.634011	0.776074	0.533643
H89	H	-1.372119	-0.000046	-0.363167
H90	H	-0.872119	0.499954	0.136833
H91	H	-1.369524	-0.412646	0.263412
H92	H	-0.869524	0.087354	0.763412
Br93	Br	-1.113282	-0.000200	0.359626
Br94	Br	-0.613282	0.499800	0.859626
H95	H	-1.586210	-0.587654	0.298777
H96	H	-1.086210	-0.087654	0.798777
H97	H	-1.739467	-0.412664	0.175794
H98	H	-1.239467	0.087336	0.675794
H99	H	-1.305954	-0.587651	0.104825
H100	H	-0.805954	-0.087651	0.604825
