data_functionalizedCrystal
_audit_creation_method	'MofGen! by Chris Wilmer'
_symmetry_space_group_name_H-M	'P1'
_symmetry_Int_Tables_number	1
_symmetry_cell_setting	triclinic
loop_
_symmetry_equiv_pos_as_xyz
  x,y,z
_cell_length_a	10.723024
_cell_length_b	10.723023
_cell_length_c	16.053802
_cell_angle_alpha	92.591082
_cell_angle_beta	87.394595
_cell_angle_gamma	84.467709
loop_
_atom_site_label
_atom_site_type_symbol
_atom_site_fract_x
_atom_site_fract_y
_atom_site_fract_z
O1	O	1.662407	0.169819	-0.069422
O2	O	1.299255	0.186572	-0.069425
O3	O	1.489208	-0.003381	-0.069420
O4	O	1.472454	0.359771	-0.069427
O5	O	1.478752	0.007031	0.069439
O6	O	1.288799	0.196984	0.069434
O7	O	1.651951	0.180231	0.069437
Zn8	Zn	1.468715	0.190261	0.091482
Zn9	Zn	1.482491	0.176542	-0.091470
O10	O	1.461998	0.370183	0.069432
C11	C	1.247527	0.190559	0.000004
C12	C	1.108973	0.186911	0.000003
C13	C	0.917216	0.073604	0.000004
C14	C	1.060419	0.077371	0.000005
C15	C	1.482761	-0.044674	0.000009
C16	C	1.479114	-0.183229	0.000006
C17	C	1.482905	-0.250388	-0.071928
C18	C	1.479135	-0.393592	-0.071933
C19	C	1.703679	0.176244	0.000006
C20	C	1.842233	0.179891	0.000001
C21	C	1.468445	0.411477	0.000002
C22	C	1.472093	0.550031	-0.000001
N23	N	1.459322	0.199622	0.216342
N24	N	1.491894	0.167171	-0.216330
C25	C	1.540178	0.118826	0.260038
C26	C	1.533619	0.125387	0.347445
C27	C	1.446210	0.212750	0.391154
C28	C	1.365346	0.293550	0.347452
C29	C	1.371900	0.286982	0.260047
C30	C	1.417583	0.241403	0.652563
C31	C	1.411038	0.247967	0.739974
C32	C	1.579310	0.079801	0.739961
C33	C	1.585861	0.073247	0.652554
C34	C	1.504993	0.154042	0.608860
N35	N	1.439507	0.219461	0.480497
N36	N	1.511691	0.147324	0.519518
H37	H	0.875393	-0.020181	0.000018
H38	H	1.124853	-0.013619	0.000002
C39	C	1.470960	-0.248762	0.083205
C40	C	1.358868	-0.323505	0.103943
C41	C	1.350714	-0.389034	0.187145
C42	C	1.454651	-0.379820	0.249609
C43	C	1.566751	-0.305073	0.228873
C44	C	1.574905	-0.239544	0.145671
H45	H	1.281920	-0.330328	0.057702
H46	H	1.267730	-0.444366	0.202495
H47	H	1.448615	-0.428328	0.311201
H48	H	1.643699	-0.298250	0.275114
H49	H	1.657889	-0.184212	0.130321
H50	H	1.611360	0.047691	0.224456
C51	C	1.021947	0.309847	0.000000
C52	C	0.934029	0.333202	-0.072106
C53	C	0.846993	0.456138	-0.072109
C54	C	0.847873	0.555719	-0.000006
C55	C	0.935794	0.532367	0.072107
C56	C	1.022831	0.409431	0.072110
H57	H	0.933375	0.259483	-0.125487
H58	H	0.781908	0.473424	-0.125492
H59	H	0.783443	0.646723	-0.000008
H60	H	0.936449	0.606086	0.125487
H61	H	1.087915	0.392145	0.125492
C62	C	1.314876	0.344070	0.788052
C63	C	1.307672	0.351305	0.884194
C64	C	1.211517	0.447406	0.932271
C65	C	1.122566	0.536273	0.884206
C66	C	1.129767	0.529041	0.788058
C67	C	1.225922	0.432940	0.739982
H68	H	1.373521	0.285518	0.919780
H69	H	1.206187	0.452759	1.003446
H70	H	1.051387	0.607413	0.919795
H71	H	1.063918	0.594829	0.752473
H72	H	1.231253	0.427587	0.668807
H73	H	1.488935	-0.201868	-0.133510
H74	H	1.645148	0.014021	0.775545
C75	C	1.483512	-0.471577	-0.155136
C76	C	1.590890	-0.575911	-0.175880
C77	C	1.595266	-0.653899	-0.259087
C78	C	1.492265	-0.627553	-0.321550
C79	C	1.384879	-0.523214	-0.300808
C80	C	1.380503	-0.445226	-0.217601
H81	H	1.667144	-0.595418	-0.129640
H82	H	1.674761	-0.731137	-0.274441
H83	H	1.495505	-0.685284	-0.383145
H84	H	1.308624	-0.503707	-0.347048
H85	H	1.301008	-0.367988	-0.202247
H86	H	0.884055	0.273677	0.000005
H87	H	1.294170	0.364679	0.383045
H88	H	1.468860	-0.392243	0.061587
H89	H	1.599457	0.059596	0.383022
H90	H	1.657036	0.002109	0.616968
H91	H	1.351739	0.307191	0.616994
H92	H	1.306057	0.352773	0.224470
