data_functionalizedCrystal
_audit_creation_method	'MofGen! by Chris Wilmer'
_symmetry_space_group_name_H-M	'P1'
_symmetry_Int_Tables_number	1
_symmetry_cell_setting	triclinic
loop_
_symmetry_equiv_pos_as_xyz
  x,y,z
_cell_length_a	10.723023
_cell_length_b	11.026607
_cell_length_c	9.798715
_cell_angle_alpha	90.001395
_cell_angle_beta	90.002994
_cell_angle_gamma	96.526782
loop_
_atom_site_label
_atom_site_type_symbol
_atom_site_fract_x
_atom_site_fract_y
_atom_site_fract_z
O1	O	1.693991	0.170514	0.113473
O2	O	1.334362	0.186837	0.113478
O3	O	1.484371	0.001774	0.113471
O4	O	1.543982	0.355577	0.113480
O5	O	1.484357	0.001773	-0.113511
O6	O	1.334348	0.186836	-0.113504
O7	O	1.693978	0.170513	-0.113509
Zn8	Zn	1.514161	0.178674	-0.149545
Zn9	Zn	1.514179	0.178676	0.149514
O10	O	1.543969	0.355575	-0.113502
C11	C	1.287599	0.185649	-0.000012
C12	C	1.148278	0.182095	-0.000010
C13	C	1.086157	0.180510	-0.117593
C14	C	0.942161	0.176838	-0.117593
C15	C	1.473367	-0.043529	-0.000018
C16	C	1.440583	-0.178516	-0.000013
C17	C	1.531104	-0.251568	-0.000012
C18	C	1.497223	-0.391084	-0.000007
C19	C	1.740740	0.171701	-0.000016
C20	C	1.880062	0.175254	-0.000009
C21	C	1.554973	0.400878	-0.000010
C22	C	1.587756	0.535865	-0.000006
N23	N	1.514158	0.178672	-0.353645
C24	C	1.451262	0.256714	-0.421452
C25	C	1.451279	0.256713	-0.578615
N26	N	1.514190	0.178668	0.353613
H27	H	0.888739	0.175481	-0.218260
Br28	Br	1.269603	-0.246413	0.000009
H29	H	1.397407	0.323536	-0.363155
H30	H	1.094857	0.180730	0.100656
Br31	Br	1.326235	-0.458976	0.000015
Br32	Br	0.969087	0.177540	0.167792
H33	H	1.397426	0.323524	-0.636926
H34	H	1.633684	-0.210823	-0.000022
H35	H	1.568023	0.111860	-0.411943
H36	H	1.139576	0.181865	-0.218259
Br37	Br	1.758745	-0.396247	0.000003
Br38	Br	1.603944	0.067292	-0.549214
