data_functionalizedCrystal
_audit_creation_method	'MofGen! by Chris Wilmer'
_symmetry_space_group_name_H-M	'P1'
_symmetry_Int_Tables_number	1
_symmetry_cell_setting	triclinic
loop_
_symmetry_equiv_pos_as_xyz
  x,y,z
_cell_length_a	25.639243
_cell_length_b	25.639240
_cell_length_c	21.295411
_cell_angle_alpha	90.026709
_cell_angle_beta	90.027104
_cell_angle_gamma	90.035481
loop_
_atom_site_label
_atom_site_type_symbol
_atom_site_fract_x
_atom_site_fract_y
_atom_site_fract_z
Zn1	Zn	0.799304	-0.208172	0.355932
Zn2	Zn	0.799220	-0.295592	0.250648
Zn3	Zn	0.711863	-0.208177	0.250672
Zn4	Zn	0.711835	-0.295583	0.355875
O5	O	0.755555	-0.251881	0.303282
O6	O	0.872458	-0.219771	0.341979
O7	O	0.787608	-0.284002	0.162562
O8	O	0.723510	-0.135011	0.264669
O9	O	0.872396	-0.283998	0.264628
O10	O	0.787752	-0.135008	0.342003
O11	O	0.723428	-0.219779	0.162580
O12	O	0.638694	-0.219769	0.264614
O13	O	0.723461	-0.283982	0.443972
O14	O	0.638673	-0.283986	0.341906
O15	O	0.787724	-0.219762	0.444014
O16	O	0.787580	-0.368756	0.264573
O17	O	0.723379	-0.368749	0.341883
C18	C	0.619713	-0.251878	0.303257
C19	C	0.561599	-0.251889	0.303261
C20	C	0.201262	-0.218491	0.343626
C21	C	0.146658	-0.218490	0.343630
O22	O	0.118444	-0.190084	0.377918
N23	N	0.119316	-0.251880	0.303299
C24	C	0.146582	-0.285268	0.262957
O25	O	0.118311	-0.313668	0.228653
C26	C	0.201185	-0.285265	0.262951
C27	C	0.228524	-0.251877	0.303289
C28	C	0.228602	-0.185105	0.383960
C29	C	0.283202	-0.185106	0.383957
C30	C	0.310464	-0.218493	0.343620
C31	C	0.283125	-0.251879	0.303285
C32	C	0.228449	-0.318650	0.222606
C33	C	0.283056	-0.318645	0.222603
C34	C	0.310395	-0.285257	0.262941
C35	C	0.364987	-0.285267	0.262945
N36	N	0.392328	-0.251877	0.303276
C37	C	0.365067	-0.218491	0.343613
C38	C	0.031911	-0.285270	0.262974
C39	C	-0.022691	-0.285276	0.262983
C40	C	-0.022611	-0.218497	0.343655
C41	C	0.031992	-0.218495	0.343648
C42	C	0.059253	-0.251881	0.303304
C43	C	0.479732	-0.218496	0.343603
C44	C	0.534337	-0.218502	0.343598
C45	C	0.534252	-0.285278	0.262925
C46	C	0.479652	-0.285275	0.262932
C47	C	0.452393	-0.251879	0.303273
O48	O	0.393235	-0.313657	0.228672
O49	O	0.393344	-0.190091	0.377906
C50	C	0.755482	-0.387724	0.303233
C51	C	0.755498	-0.445838	0.303233
C52	C	0.789023	-0.806161	0.343622
C53	C	0.789038	-0.860765	0.343635
O54	O	0.817455	-0.888967	0.377925
N55	N	0.755628	-0.888120	0.303343
C56	C	0.722196	-0.860868	0.263039
O57	O	0.693779	-0.889150	0.228769
C58	C	0.722179	-0.806265	0.263030
C59	C	0.755595	-0.778912	0.303321
C60	C	0.822436	-0.778808	0.383910
C61	C	0.822421	-0.724207	0.383896
C62	C	0.788993	-0.696959	0.343595
C63	C	0.755580	-0.724312	0.303307
C64	C	0.688744	-0.779014	0.222731
C65	C	0.688729	-0.724407	0.222725
C66	C	0.722146	-0.697055	0.263016
C67	C	0.722137	-0.642463	0.262992
N68	N	0.755547	-0.615108	0.303284
C69	C	0.788976	-0.642356	0.343586
C70	C	0.722235	-0.975539	0.263063
C71	C	0.722255	-1.030141	0.263068
C72	C	0.789097	-1.030034	0.343665
C73	C	0.789079	-0.975431	0.343655
C74	C	0.755646	-0.948184	0.303355
C75	C	0.788942	-0.527691	0.343553
C76	C	0.788926	-0.473086	0.343534
C77	C	0.722082	-0.473198	0.262940
C78	C	0.722100	-0.527798	0.262957
C79	C	0.755532	-0.555044	0.303268
O80	O	0.693734	-0.614226	0.228721
O81	O	0.817383	-0.614068	0.377856
C82	C	0.891928	-0.251885	0.303307
C83	C	0.950042	-0.251887	0.303318
C84	C	0.755599	-0.251870	0.467472
C85	C	0.755617	-0.251865	0.537440
C86	C	0.755644	-0.115508	0.303345
C87	C	0.755682	-0.057394	0.303372
C88	C	0.755542	-0.251854	0.139730
C89	C	0.755625	-0.251712	0.069763
C90	C	0.789078	-0.218424	0.570330
C91	C	0.789077	-0.218402	0.636072
C92	C	0.755621	-0.251829	0.668923
C93	C	0.722154	-0.285273	0.636026
C94	C	0.722152	-0.285291	0.570284
N95	N	0.751586	-0.297568	0.772133
N96	N	0.751591	-0.297549	0.834585
C97	C	0.755625	-0.251776	0.866998
N98	N	0.759664	-0.206022	0.834600
N99	N	0.759661	-0.206041	0.772143
C100	C	0.755620	-0.251813	0.740208
C101	C	0.789086	-0.218308	0.971173
C102	C	0.789082	-0.218285	1.036917
C103	C	0.722162	-0.285160	1.036869
C104	C	0.722163	-0.285179	0.971126
C105	C	0.755628	-0.251754	0.938282
H106	H	-0.044946	-0.312469	0.230143
H107	H	0.694867	-0.451004	0.230125
N108	N	0.562254	-0.184386	0.384802
N109	N	0.556180	-0.136137	0.380738
H110	H	0.575894	-0.112042	0.409836
H111	H	0.695050	-1.052407	0.230253
N112	N	0.059908	-0.184379	0.384847
N113	N	0.053828	-0.136130	0.380782
H114	H	0.073540	-0.112033	0.409879
N115	N	0.687994	-0.319348	0.937525
N116	N	0.706367	-0.352676	0.900845
H117	H	0.682233	-0.376808	0.877113
N118	N	0.451901	-0.184385	0.384820
N119	N	0.476326	-0.154586	0.420831
H120	H	0.456671	-0.130498	0.449945
H121	H	0.661533	-0.801275	0.189922
N122	N	0.562113	-0.319380	0.221731
N123	N	0.610866	-0.319371	0.221738
H124	H	0.630544	-0.343455	0.192642
H125	H	0.694916	-0.312372	1.063615
H126	H	0.816327	-0.191206	0.543592
H127	H	0.816324	-0.191167	0.662856
N128	N	-0.050472	-0.184396	0.384857
N129	N	-0.099224	-0.184406	0.384851
H130	H	-0.118903	-0.160325	0.413949
H131	H	0.816329	-0.191050	1.063694
N132	N	0.311132	-0.150994	0.425145
N133	N	0.359884	-0.150988	0.425139
H134	H	0.379608	-0.126892	0.454228
N135	N	0.687985	-0.555758	0.221798
N136	N	0.706414	-0.586237	0.181724
H137	H	0.682320	-0.605984	0.152658
N138	N	0.823269	-0.184161	0.937629
N139	N	0.853139	-0.154300	0.967006
H140	H	0.877281	-0.130183	0.943317
N141	N	0.200768	-0.150992	0.425168
N142	N	0.225195	-0.121188	0.461172
H143	H	0.205542	-0.097095	0.490280
H144	H	0.206199	-0.345838	0.189758
N145	N	0.059747	-0.319380	0.221758
N146	N	0.035323	-0.349187	0.185754
H147	H	0.054979	-0.373277	0.156644
N148	N	0.310893	-0.352749	0.181383
N149	N	0.286472	-0.382552	0.145372
H150	H	0.306131	-0.406638	0.116259
N151	N	0.687980	-0.319411	0.669588
N152	N	0.687986	-0.319391	0.728285
H153	H	0.663847	-0.343501	0.751989
N154	N	0.451730	-0.319388	0.221732
N155	N	0.476080	-0.349197	0.185722
H156	H	0.456365	-0.373287	0.156619
N157	N	0.687966	-0.319453	0.536695
N158	N	0.658093	-0.349294	0.566029
H159	H	0.633949	-0.373422	0.542306
N160	N	0.823073	-0.445152	0.384683
N161	N	0.871319	-0.451219	0.380558
H162	H	0.895437	-0.431494	0.409619
N163	N	0.823101	-0.555508	0.384726
N164	N	0.871345	-0.549360	0.380599
H165	H	0.895472	-0.569004	0.409674
N166	N	0.856558	-0.696280	0.425057
N167	N	0.886399	-0.720624	0.461035
H168	H	0.910509	-0.700904	0.490109
N169	N	0.823205	-0.947491	0.384819
N170	N	0.804786	-0.917021	0.424909
H171	H	0.828888	-0.897290	0.453983
H172	H	0.816315	-1.052229	0.376481
N173	N	0.856595	-0.806626	0.425078
N174	N	0.904838	-0.800473	0.420951
H175	H	0.928968	-0.820115	0.450026
N176	N	0.688080	-0.947717	0.221887
N177	N	0.658253	-0.972153	0.185918
H178	H	0.634130	-0.952506	0.156839
H179	H	0.661502	-0.702225	0.189909
