data_functionalizedCrystal
_audit_creation_method	'MofGen! by Chris Wilmer'
_symmetry_space_group_name_H-M	'P1'
_symmetry_Int_Tables_number	1
_symmetry_cell_setting	triclinic
loop_
_symmetry_equiv_pos_as_xyz
  x,y,z
_cell_length_a	8.597340
_cell_length_b	15.995362
_cell_length_c	14.472311
_cell_angle_alpha	89.993933
_cell_angle_beta	82.291558
_cell_angle_gamma	95.579549
loop_
_atom_site_label
_atom_site_type_symbol
_atom_site_fract_x
_atom_site_fract_y
_atom_site_fract_z
O1	O	2.082441	-0.124959	-0.088968
O2	O	1.625504	-0.134551	-0.052588
O3	O	1.866453	-0.007970	-0.071765
O4	O	1.841492	-0.251540	-0.069791
O5	O	1.866485	-0.007947	-0.225450
O6	O	1.625536	-0.134528	-0.206272
O7	O	2.082473	-0.124935	-0.242653
Cu8	Cu	1.854007	-0.129729	-0.238495
Cu9	Cu	1.853969	-0.129757	-0.056745
O10	O	1.841524	-0.251516	-0.223475
C11	C	1.567048	-0.133510	-0.124774
C12	C	1.392819	-0.130434	-0.110902
C13	C	1.865434	0.023245	-0.148521
C14	C	1.862330	0.116220	-0.148263
C15	C	1.851183	0.454057	-0.147358
C16	C	1.679579	0.408026	-0.133353
C17	C	1.682684	0.311311	-0.133953
C18	C	1.856712	0.286452	-0.147807
C19	C	1.941370	0.326851	-0.242303
C20	C	1.937051	0.423521	-0.242027
C21	C	1.940559	0.423824	-0.067541
C22	C	1.940526	0.326879	-0.066384
C23	C	1.859846	0.191729	-0.148064
C24	C	1.848054	0.548780	-0.147108
C25	C	2.140929	-0.125976	-0.170464
C26	C	2.315158	-0.129052	-0.184330
N27	N	1.854045	-0.129710	-0.366329
C28	C	1.842522	0.717268	-0.146700
C29	C	1.845565	0.624289	-0.146902
N30	N	1.853944	-0.129770	0.071088
C31	C	1.854011	-0.129729	0.445174
C32	C	1.725222	-0.197536	0.416258
C33	C	1.724745	-0.197367	0.309208
C34	C	1.853978	-0.129750	0.259585
C35	C	1.818633	-0.042026	0.301257
C36	C	1.817728	-0.042410	0.408451
C37	C	2.018527	-0.148869	0.392587
C38	C	2.017410	-0.150858	0.285549
C39	C	1.853962	-0.129756	0.154698
C40	C	1.854024	-0.129717	0.550061
H41	H	1.610975	0.427109	-0.064957
N42	N	1.403642	-0.130603	-0.281665
H43	H	1.362521	-0.181865	-0.315038
H44	H	1.387928	-0.078295	-0.316987
N45	N	2.150273	-0.089853	0.239505
H46	H	2.106207	-0.047477	0.200994
H47	H	2.205989	-0.059792	0.288953
H48	H	1.326010	-0.129264	-0.037416
H49	H	2.063040	0.454740	-0.256035
H50	H	2.067082	0.454550	-0.077020
H51	H	1.611305	0.428187	-0.190499
N52	N	1.863550	0.289901	-0.322624
H53	H	1.773473	0.247004	-0.298002
H54	H	1.821894	0.336108	-0.356923
H55	H	1.909954	0.009704	0.268507
H56	H	1.616139	0.283423	-0.065748
H57	H	1.603817	-0.185313	0.452847
H58	H	1.745735	-0.262525	0.281266
H59	H	1.615717	0.284003	-0.191639
N60	N	1.855307	0.448446	-0.322413
H61	H	1.744273	0.419810	-0.315058
H62	H	1.851800	0.511371	-0.322998
N63	N	2.108636	0.305166	-0.072747
H64	H	2.159408	0.331981	-0.019590
H65	H	2.109458	0.242167	-0.068941
N66	N	2.110746	0.306790	-0.260099
H67	H	2.134283	0.271231	-0.206953
H68	H	2.128231	0.275007	-0.320304
H69	H	2.044226	-0.215405	0.258033
H70	H	2.114364	-0.099442	0.410290
H71	H	1.884437	0.444812	0.003445
N72	N	1.858644	0.291388	0.026136
H73	H	1.767639	0.249295	0.015363
H74	H	1.935909	0.262752	0.058930
N75	N	1.752549	-0.284125	0.448223
H76	H	1.859838	-0.298403	0.418780
H77	H	1.747412	-0.285243	0.518347
N78	N	1.563027	-0.180943	0.288133
H79	H	1.491774	-0.173782	0.348428
H80	H	1.571696	-0.128106	0.248808
N81	N	1.658825	-0.020382	0.454212
H82	H	1.590024	-0.010516	0.404700
H83	H	1.607028	-0.068157	0.496662
H84	H	1.907986	0.009642	0.427174
N85	N	1.661534	-0.019520	0.278234
H86	H	1.575443	-0.063514	0.305621
H87	H	1.639988	0.037043	0.305346
H88	H	2.052598	-0.211548	0.416904
