data_functionalizedCrystal
_audit_creation_method	'MofGen! by Chris Wilmer'
_symmetry_space_group_name_H-M	'P1'
_symmetry_Int_Tables_number	1
_symmetry_cell_setting	triclinic
loop_
_symmetry_equiv_pos_as_xyz
  x,y,z
_cell_length_a	14.971482
_cell_length_b	10.489711
_cell_length_c	13.448316
_cell_angle_alpha	90.001030
_cell_angle_beta	89.995640
_cell_angle_gamma	84.069809
loop_
_atom_site_label
_atom_site_type_symbol
_atom_site_fract_x
_atom_site_fract_y
_atom_site_fract_z
O1	O	1.187881	0.166195	-0.082671
O2	O	0.927592	0.186106	-0.082674
O3	O	1.063673	-0.009519	-0.082675
O4	O	1.051800	0.361819	-0.082670
O5	O	1.063660	-0.009517	0.082709
O6	O	0.927579	0.186108	0.082709
O7	O	1.187867	0.166197	0.082713
Cu8	Cu	1.057722	0.176152	0.097812
Cu9	Cu	1.057738	0.176150	-0.097773
O10	O	1.051786	0.361821	0.082714
C11	C	0.894256	0.185217	0.000017
C12	C	0.794943	0.182551	0.000015
C13	C	0.748284	0.181297	0.090167
C14	C	0.654972	0.178771	0.090168
C15	C	0.608319	0.177510	0.000016
C16	C	0.654985	0.178761	-0.090143
C17	C	0.748297	0.181277	-0.090143
C18	C	0.460494	0.173520	-0.090136
C19	C	0.367175	0.171006	-0.090137
C20	C	0.367169	0.171014	0.090174
C21	C	0.460480	0.173530	0.090174
C22	C	0.507140	0.174783	0.000015
C23	C	1.062775	-0.057040	0.000014
C24	C	1.060109	-0.198640	0.000005
C25	C	1.141944	-0.381975	0.000017
C26	C	1.101060	-0.289356	0.081558
C27	C	1.101051	-0.289382	-0.081497
C28	C	1.014430	-0.358303	0.081633
C29	C	1.014433	-0.358338	-0.081495
C30	C	0.973486	-0.265746	0.000066
C31	C	1.221204	0.167086	0.000020
C32	C	1.320516	0.169751	0.000015
C33	C	1.052684	0.409342	0.000023
C34	C	1.055350	0.550943	0.000024
N35	N	1.057717	0.176153	0.235376
N36	N	1.057750	0.176139	-0.235338
C37	C	1.003012	0.098649	0.712622
C38	C	1.003009	0.098645	0.608519
C39	C	1.057739	0.176139	0.556458
C40	C	1.112483	0.253632	0.608505
C41	C	1.112490	0.253629	0.712607
C42	C	1.112463	0.253637	0.391525
C43	C	1.112455	0.253643	0.287417
C44	C	1.002982	0.098654	0.287437
C45	C	1.002989	0.098650	0.391539
C46	C	1.057731	0.176146	0.443579
H47	H	0.786285	0.182301	-0.163554
H48	H	1.137695	-0.258793	0.150497
O49	O	0.793466	0.182460	0.177831
C50	C	0.732266	0.180840	0.257400
H51	H	0.669201	0.138698	0.230967
H52	H	0.764509	0.119686	0.320451
H53	H	0.713603	0.282822	0.285125
O54	O	0.888562	-0.205540	0.000060
C55	C	0.892038	-0.071735	-0.000738
H56	H	0.959239	-0.049215	-0.032503
H57	H	0.835174	-0.024599	-0.048770
H58	H	0.884511	-0.033194	0.078411
H59	H	0.329174	0.169994	0.163585
O60	O	0.609812	0.177491	-0.177806
C61	C	0.671004	0.179173	-0.257377
H62	H	0.740965	0.140605	-0.230950
H63	H	0.649332	0.116578	-0.320435
H64	H	0.672198	0.281693	-0.285089
H65	H	0.958439	0.035542	0.566152
O66	O	0.949666	0.023516	0.236945
C67	C	0.859112	0.058639	0.262430
H68	H	0.851127	0.161486	0.291040
H69	H	0.815048	0.051100	0.193984
H70	H	0.837935	-0.008267	0.322869
O71	O	0.970894	-0.394816	-0.163841
C72	C	1.016772	-0.360073	-0.249650
H73	H	1.089767	-0.349743	-0.230114
H74	H	1.014077	-0.437403	-0.308822
H75	H	0.983572	-0.264983	-0.279403
O76	O	1.165680	0.328726	0.236738
C77	C	1.226222	0.251078	0.176529
H78	H	1.197776	0.156377	0.160937
H79	H	1.236512	0.302375	0.103324
H80	H	1.293333	0.231693	0.216639
H81	H	0.977814	-0.388687	0.150647
O82	O	1.144900	-0.253129	-0.163712
C83	C	1.233696	-0.312874	-0.163383
H84	H	1.237382	-0.403067	-0.115644
H85	H	1.254966	-0.339745	-0.242685
H86	H	1.280540	-0.244124	-0.131557
H87	H	0.498462	0.174565	0.163584
O88	O	0.321777	0.169598	-0.177648
C89	C	0.277251	0.057746	-0.183046
H90	H	0.266409	0.020581	-0.104769
H91	H	0.209516	0.080799	-0.221205
H92	H	0.319820	-0.018589	-0.227530
O93	O	0.949821	0.023253	0.763036
C94	C	0.901492	-0.045120	0.694776
H95	H	0.938467	-0.052470	0.620563
H96	H	0.895316	-0.145438	0.724852
H97	H	0.831615	0.007257	0.683717
H98	H	1.213118	-0.432490	0.000098
H99	H	1.157042	0.316739	0.433893
H100	H	0.958418	0.035554	0.433924
H101	H	1.157064	0.316728	0.754976
O102	O	0.609529	0.177711	0.177674
C103	C	0.546126	0.286645	0.183083
H104	H	0.529010	0.323074	0.104810
H105	H	0.482629	0.260033	0.221230
H106	H	0.575468	0.364911	0.227583
O107	O	0.505676	0.174800	-0.177805
C108	C	0.444494	0.173125	-0.257377
H109	H	0.374527	0.211671	-0.230943
H110	H	0.466168	0.235742	-0.320423
H111	H	0.443315	0.070609	-0.285108
O112	O	1.165598	0.329092	0.558045
C113	C	1.141617	0.458505	0.583474
H114	H	1.106970	0.463892	0.659066
H115	H	1.204569	0.510897	0.587025
H116	H	1.093924	0.505372	0.524897
