data_functionalizedCrystal
_audit_creation_method	'MofGen! by Chris Wilmer'
_symmetry_space_group_name_H-M	'P1'
_symmetry_Int_Tables_number	1
_symmetry_cell_setting	triclinic
loop_
_symmetry_equiv_pos_as_xyz
  x,y,z
_cell_length_a	13.032831
_cell_length_b	25.639240
_cell_length_c	13.032268
_cell_angle_alpha	82.864661
_cell_angle_beta	89.113023
_cell_angle_gamma	82.835975
loop_
_atom_site_label
_atom_site_type_symbol
_atom_site_fract_x
_atom_site_fract_y
_atom_site_fract_z
Zn1	Zn	1.498317	-0.353075	0.780663
Zn2	Zn	1.520023	-0.430970	0.608645
Zn3	Zn	1.348185	-0.331235	0.586915
Zn4	Zn	1.326273	-0.428143	0.758772
O5	O	1.423200	-0.385856	0.683749
O6	O	1.645112	-0.373732	0.776101
O7	O	1.515483	-0.409783	0.461850
O8	O	1.368187	-0.260977	0.612683
O9	O	1.661060	-0.430960	0.649720
O10	O	1.478488	-0.277023	0.755029
O11	O	1.389235	-0.336508	0.445884
O12	O	1.201363	-0.333767	0.591456
O13	O	1.330840	-0.426143	0.905589
O14	O	1.185264	-0.404965	0.717719
O15	O	1.457240	-0.370991	0.921672
O16	O	1.494236	-0.503750	0.628493
O17	O	1.351888	-0.501674	0.738790
C18	C	1.155997	-0.366690	0.649854
C19	C	1.041684	-0.358504	0.635379
C20	C	1.423064	-0.521684	0.683650
C21	C	1.423096	-0.579800	0.683654
C22	C	0.982793	-0.390128	0.691304
C23	C	0.864644	-0.381669	0.676344
C24	C	1.480651	-0.948501	0.757991
C25	C	1.480679	-1.003109	0.758016
O26	O	1.529451	-1.038418	0.821116
N27	N	1.423330	-1.022111	0.683866
C28	C	1.365941	-0.986502	0.609693
O29	O	1.317163	-1.007678	0.546626
C30	C	1.365908	-0.931895	0.609674
C31	C	1.423269	-0.912896	0.683822
C32	C	1.538006	-0.929502	0.832134
C33	C	1.537980	-0.874898	0.832108
C34	C	1.480598	-0.839293	0.757939
C35	C	1.423243	-0.858293	0.683796
C36	C	1.308514	-0.896287	0.535507
C37	C	1.308486	-0.841677	0.535494
C38	C	1.365847	-0.822679	0.609642
C39	C	1.365835	-0.768084	0.609601
N40	N	1.423184	-0.749082	0.683750
C41	C	1.480565	-0.784687	0.757919
C42	C	1.366013	-1.101180	0.609741
C43	C	1.366051	-1.155785	0.609755
C44	C	1.480787	-1.172389	0.758079
C45	C	1.480754	-1.117782	0.758059
C46	C	1.423362	-1.082178	0.683890
C47	C	1.480506	-0.670014	0.757858
C48	C	1.480478	-0.615405	0.757823
C49	C	1.365738	-0.598806	0.609503
C50	C	1.365770	-0.653411	0.609534
C51	C	1.423156	-0.689014	0.683721
O52	O	1.317084	-0.732744	0.546536
O53	O	1.529324	-0.763502	0.820984
C54	C	1.691445	-0.405097	0.717776
C55	C	1.805755	-0.413297	0.732276
C56	C	1.389174	-0.400687	0.951989
C57	C	1.374675	-0.407008	1.066297
C58	C	1.423360	-0.249501	0.683874
C59	C	1.423429	-0.191395	0.683928
C60	C	1.457151	-0.371049	0.416560
C61	C	1.471850	-0.364595	0.302278
C62	C	1.430751	-0.382537	1.125216
C63	C	1.415766	-0.389069	1.243360
H64	H	0.827597	-0.348328	0.617389
H65	H	0.842799	-0.446634	0.791242
O66	O	1.337467	-0.423227	1.292378
H67	H	1.337988	-0.422999	1.377480
O68	O	0.992624	-0.314351	0.557264
H69	H	0.907526	-0.314642	0.557758
H70	H	1.527509	-1.201389	0.818473
O71	O	1.542361	-0.594913	0.837789
H72	H	1.582262	-0.628848	0.889368
H73	H	1.584685	-0.859433	0.892488
H74	H	1.530951	-0.338805	1.265262
H75	H	1.527228	-0.698997	0.818274
O76	O	1.509039	-0.348380	1.076184
H77	H	1.547832	-0.331445	1.137315
H78	H	1.315566	-0.432789	1.103317
H79	H	1.319281	-1.072192	0.549335
H80	H	1.019844	-0.423463	0.750262
O81	O	1.599906	-0.967901	0.912133
H82	H	1.639782	-0.945506	0.963673
O83	O	1.542625	-1.097291	0.838028
H84	H	1.582528	-1.131229	0.889601
H85	H	1.319354	-1.171249	0.549366
H86	H	1.261805	-0.911745	0.475127
O87	O	1.246593	-0.803274	0.455488
H88	H	1.206726	-0.825663	0.403931
O89	O	1.303908	-0.673908	0.529562
H90	H	1.263999	-0.639973	0.477986
O91	O	1.303846	-0.560400	0.529509
H92	H	1.313459	-0.519238	0.541963
