data_functionalizedCrystal
_audit_creation_method	'MofGen! by Chris Wilmer'
_symmetry_space_group_name_H-M	'P1'
_symmetry_Int_Tables_number	1
_symmetry_cell_setting	triclinic
loop_
_symmetry_equiv_pos_as_xyz
  x,y,z
_cell_length_a	10.654556
_cell_length_b	12.837942
_cell_length_c	9.130313
_cell_angle_alpha	89.998975
_cell_angle_beta	89.999332
_cell_angle_gamma	89.658175
loop_
_atom_site_label
_atom_site_type_symbol
_atom_site_fract_x
_atom_site_fract_y
_atom_site_fract_z
O1	O	1.683734	0.145749	-0.121814
O2	O	1.319771	0.159626	-0.121813
O3	O	1.493682	0.001726	-0.121804
O4	O	1.509823	0.303648	-0.121822
O5	O	1.493680	0.001731	0.121794
O6	O	1.319769	0.159630	0.121786
O7	O	1.683732	0.145753	0.121785
Cu8	Cu	1.501751	0.152692	0.144028
Cu9	Cu	1.501753	0.152687	-0.144056
O10	O	1.509821	0.303652	0.121776
C11	C	1.272861	0.158608	-0.000014
C12	C	1.133085	0.155555	-0.000013
C13	C	0.936087	0.151257	-0.132811
C14	C	1.067422	0.154119	-0.132805
C15	C	1.067407	0.154118	0.132780
C16	C	0.936075	0.151249	0.132772
C17	C	0.936096	0.151263	-0.286144
C18	C	1.067431	0.154125	-0.286138
C19	C	1.488229	-0.036931	-0.000006
C20	C	1.471966	-0.152126	-0.000008
C21	C	1.667470	-0.391675	-0.000039
C22	C	1.652196	-0.499911	-0.000041
C23	C	1.426145	-0.476836	-0.000026
C24	C	1.441419	-0.368600	-0.000024
C25	C	1.562086	-0.326024	-0.000028
C26	C	1.577359	-0.217786	-0.000015
C27	C	1.351308	-0.194712	-0.000010
C28	C	1.336034	-0.302948	-0.000012
C29	C	1.730643	0.146771	-0.000018
C30	C	1.870418	0.149824	-0.000027
N31	N	1.501758	0.152695	0.346651
C32	C	1.515275	0.342310	-0.000025
C33	C	1.531537	0.457505	-0.000033
N34	N	1.501754	0.152676	-0.346679
C35	C	1.578791	0.082801	0.423306
C36	C	1.578786	0.082788	0.576643
C37	C	1.424713	0.222573	0.576655
C38	C	1.424712	0.222580	0.423321
C39	C	1.667747	0.002100	0.423301
C40	C	1.667742	0.002088	0.576638
H41	H	0.903279	0.078008	-0.345019
O42	O	1.627832	-0.103520	0.368121
H43	H	1.531971	-0.120798	0.408650
O44	O	1.341614	0.297961	0.340649
H45	H	1.275300	0.253809	0.270803
H46	H	1.675611	-0.183122	-0.000013
O47	O	1.237630	-0.123904	0.000020
H48	H	1.180484	-0.139143	-0.099253
H49	H	1.100259	0.227385	-0.345000
O50	O	1.296003	-0.522762	-0.000040
H51	H	1.244732	-0.496458	0.099244
O52	O	0.865249	0.149745	0.275993
H53	H	0.762895	0.147521	0.253683
O54	O	1.797608	-0.345741	-0.000046
H55	H	1.868326	-0.409578	-0.000060
O56	O	1.205890	-0.348870	0.000012
H57	H	1.212971	-0.435164	0.000023
O58	O	1.138220	0.155668	0.276012
H59	H	1.240577	0.157911	0.253713
H60	H	1.629006	-0.073272	0.624189
H61	H	0.892454	0.225151	-0.333726
O62	O	1.125261	0.056254	-0.349158
H63	H	1.049711	0.002053	-0.382585
O64	O	1.341626	0.297956	0.659346
H65	H	1.354572	0.286215	0.778849
O66	O	1.765858	-0.570726	-0.000036
H67	H	1.852326	-0.522932	-0.000025
O68	O	1.792184	0.035550	0.360280
H69	H	1.858159	0.053277	0.450871
O70	O	1.798138	0.025651	0.631789
H71	H	1.864582	-0.034690	0.591214
