data_functionalizedCrystal
_audit_creation_method	'MofGen! by Chris Wilmer'
_symmetry_space_group_name_H-M	'P1'
_symmetry_Int_Tables_number	1
_symmetry_cell_setting	triclinic
loop_
_symmetry_equiv_pos_as_xyz
  x,y,z
_cell_length_a	14.044220
_cell_length_b	17.699104
_cell_length_c	12.503552
_cell_angle_alpha	86.482801
_cell_angle_beta	93.839943
_cell_angle_gamma	88.240197
loop_
_atom_site_label
_atom_site_type_symbol
_atom_site_fract_x
_atom_site_fract_y
_atom_site_fract_z
O1	O	0.114453	1.016340	-0.089346
O2	O	0.130025	0.797038	-0.089344
O3	O	-0.015738	0.903396	-0.089334
O4	O	0.260216	0.909981	-0.089355
O5	O	-0.004766	0.895388	0.089308
O6	O	0.140997	0.789029	0.089298
O7	O	0.125425	1.008332	0.089296
Cu8	Cu	0.134213	0.897949	0.105609
Cu9	Cu	0.121237	0.907420	-0.105656
O10	O	0.271188	0.901973	0.089286
C11	C	0.134950	0.764798	-0.000022
C12	C	0.133266	0.680665	-0.000021
C13	C	0.209328	0.161041	-0.000038
C14	C	0.210904	0.240094	-0.000041
C15	C	0.125336	0.282808	-0.000035
C16	C	0.038185	0.246467	-0.000035
C17	C	0.036609	0.167416	-0.000040
C18	C	0.044538	0.565270	-0.000019
C19	C	0.046121	0.644326	-0.000011
C20	C	0.218834	0.637948	-0.000020
C21	C	0.217258	0.558897	-0.000025
C22	C	0.130107	0.522563	-0.000031
C23	C	0.128399	0.436845	-0.000030
C24	C	0.127044	0.368525	-0.000028
C25	C	-0.045560	0.896511	-0.000013
C26	C	-0.150766	0.887915	-0.000011
C27	C	-0.343394	0.872200	-0.000027
C28	C	-0.401162	0.933166	-0.000030
C29	C	-0.508347	0.924422	-0.000039
C30	C	-0.236199	0.880943	-0.000018
C31	C	0.301010	0.908859	-0.000037
C32	C	0.406216	0.917455	-0.000046
C33	C	0.120500	1.040571	-0.000028
C34	C	0.122184	1.124705	-0.000036
N35	N	0.143338	0.891294	0.254201
N36	N	0.112104	0.914081	-0.254248
C37	C	0.098677	0.923868	0.526637
C38	C	0.156763	0.881509	0.473309
C39	C	0.149291	0.886955	0.351386
C40	C	0.106147	0.918423	0.648571
H41	H	-0.026425	0.535697	-0.000021
N42	N	0.312832	0.677141	-0.000039
H43	H	0.366799	0.638085	-0.000041
H44	H	0.321319	0.706833	0.066184
H45	H	0.279008	0.126268	-0.000036
N46	N	-0.360050	1.011002	-0.000004
H47	H	-0.413539	1.050472	-0.000003
H48	H	-0.323576	1.020250	-0.066222
H49	H	-0.031487	0.281252	-0.000036
N50	N	-0.384501	0.794367	-0.000027
H51	H	-0.456354	0.799076	-0.000030
H52	H	-0.358220	0.763016	0.066203
H53	H	0.043342	0.964219	0.480730
N54	N	0.230069	0.828055	0.534113
H55	H	0.225087	0.831691	0.613854
H56	H	0.296094	0.842234	0.514517
H57	H	0.281865	0.269676	-0.000053
H58	H	-0.023563	0.679103	-0.000008
N59	N	0.309552	0.512824	0.000034
H60	H	0.365000	0.547838	0.000050
H61	H	0.308629	0.482838	-0.066174
H62	H	-0.034353	0.137832	-0.000040
