data_functionalizedCrystal
_audit_creation_method	'MofGen! by Chris Wilmer'
_symmetry_space_group_name_H-M	'P1'
_symmetry_Int_Tables_number	1
_symmetry_cell_setting	triclinic
loop_
_symmetry_equiv_pos_as_xyz
  x,y,z
_cell_length_a	15.455313
_cell_length_b	17.699083
_cell_length_c	17.699083
_cell_angle_alpha	83.283015
_cell_angle_beta	92.658725
_cell_angle_gamma	87.330194
loop_
_atom_site_label
_atom_site_type_symbol
_atom_site_fract_x
_atom_site_fract_y
_atom_site_fract_z
O1	O	0.072010	-1.007394	-0.092400
O2	O	0.405344	-0.674060	0.240933
O3	O	0.738677	-0.340727	0.574267
O4	O	0.072039	-0.787017	-0.104851
O5	O	0.405372	-0.453683	0.228482
O6	O	0.738706	-0.120350	0.561815
O7	O	0.072016	-0.903431	0.011563
O8	O	0.405350	-0.570098	0.344897
O9	O	0.738683	-0.236764	0.678230
O10	O	0.072033	-0.890979	-0.208814
O11	O	0.405367	-0.557646	0.124519
O12	O	0.738700	-0.224313	0.457852
O13	O	-0.072244	-0.896774	0.004933
O14	O	0.261089	-0.563441	0.338267
O15	O	0.594422	-0.230107	0.671600
O16	O	-0.072222	-0.780360	-0.111481
O17	O	0.261112	-0.447026	0.221852
O18	O	0.594445	-0.113693	0.555186
O19	O	-0.072250	-1.000737	-0.099030
O20	O	0.261083	-0.667403	0.234304
O21	O	0.594416	-0.334070	0.567637
Cu22	Cu	-0.085408	-0.889940	-0.105861
Cu23	Cu	0.247925	-0.556607	0.227473
Cu24	Cu	0.581258	-0.223274	0.560806
Cu25	Cu	0.085197	-0.897813	-0.098020
Cu26	Cu	0.418530	-0.564480	0.235313
Cu27	Cu	0.751864	-0.231146	0.568646
O28	O	-0.072228	-0.884322	-0.215444
O29	O	0.261106	-0.550989	0.117889
O30	O	0.594439	-0.217656	0.451222
C31	C	-0.000088	-0.755491	-0.107720
C32	C	0.333246	-0.422158	0.225614
C33	C	0.666579	-0.088825	0.558947
C34	C	-0.000077	-0.671474	-0.106381
C35	C	0.333256	-0.338140	0.226953
C36	C	0.666590	-0.004807	0.560286
N37	N	-0.205403	-0.884409	-0.111375
N38	N	0.127931	-0.551075	0.221959
N39	N	0.461264	-0.217742	0.555292
C40	C	-0.000114	-0.899656	0.036445
C41	C	0.333219	-0.566323	0.369779
C42	C	0.666553	-0.232990	0.703112
C43	C	-0.000114	-0.898318	0.120463
C44	C	0.333219	-0.564984	0.453797
C45	C	0.666552	-0.231651	0.787130
C46	C	-0.250806	-0.933883	-0.061936
C47	C	0.082527	-0.600549	0.271397
C48	C	0.415860	-0.267216	0.604731
C49	C	-0.341613	-0.929706	-0.066113
C50	C	-0.008280	-0.596373	0.267220
C51	C	0.325053	-0.263040	0.600554
C52	C	-0.387015	-0.876059	-0.119733
C53	C	-0.053682	-0.542725	0.213600
C54	C	0.279652	-0.209392	0.546934
C55	C	-0.341605	-0.826580	-0.169174
C56	C	-0.008272	-0.493246	0.164159
C57	C	0.325062	-0.159913	0.497493
C58	C	-0.250800	-0.830753	-0.164993
C59	C	0.082534	-0.497420	0.168341
C60	C	0.415867	-0.164086	0.501674
C61	C	-0.658593	-0.858045	-0.137760
C62	C	-0.325260	-0.524712	0.195573
C63	C	0.008074	-0.191378	0.528907
C64	C	-0.749405	-0.853877	-0.141939
C65	C	-0.416071	-0.520543	0.191394
C66	C	-0.082738	-0.187210	0.524728
C67	C	-0.749407	-0.957003	-0.038877
C68	C	-0.416074	-0.623670	0.294457
C69	C	-0.082740	-0.290336	0.627790
C70	C	-0.658600	-0.961175	-0.034703
C71	C	-0.325267	-0.627841	0.298630
C72	C	0.008067	-0.294508	0.631963
C73	C	-0.613198	-0.911693	-0.084142
C74	C	-0.279864	-0.578359	0.249192
C75	C	0.053469	-0.245026	0.582525
N76	N	-0.479835	-0.871790	-0.124005
N77	N	-0.146501	-0.538457	0.209328
N78	N	0.186832	-0.205123	0.542661
N79	N	-0.520380	-0.915958	-0.079865
N80	N	-0.187047	-0.582625	0.253468
N81	N	0.146287	-0.249292	0.586802
N82	N	0.205191	-0.903351	-0.092500
N83	N	0.538525	-0.570018	0.240833
N84	N	0.871858	-0.236684	0.574166
C85	C	-0.000122	-1.032262	-0.096161
C86	C	0.333212	-0.698929	0.237172
C87	C	0.666545	-0.365596	0.570505
C88	C	-0.000127	-1.116280	-0.097500
C89	C	0.333207	-0.782947	0.235833
C90	C	0.666540	-0.449613	0.569167
C91	C	-0.000072	-0.622853	-0.174714
C92	C	0.333261	-0.289520	0.158620
C93	C	0.666595	0.043814	0.491953
C94	C	-0.000083	-0.543909	-0.173452
C95	C	0.333250	-0.210576	0.159881
C96	C	0.666583	0.122757	0.493215
C97	C	-0.000093	-0.513588	-0.103856
C98	C	0.333240	-0.180255	0.229477
C99	C	0.666573	0.153079	0.562811
C100	C	-0.000101	-0.562215	-0.035518
C101	C	0.333232	-0.228881	0.297816
C102	C	0.666566	0.104452	0.631149
C103	C	-0.000096	-0.641157	-0.036781
C104	C	0.333237	-0.307823	0.296553
C105	C	0.666571	0.025510	0.629886
C106	C	-0.000123	-0.243851	-0.030423
C107	C	0.333210	0.089483	0.302910
C108	C	0.666544	0.422816	0.636243
C109	C	-0.000125	-0.164903	-0.029166
C110	C	0.333208	0.168431	0.304168
C111	C	0.666541	0.501764	0.637501
C112	C	-0.000110	-0.146603	-0.167095
C113	C	0.333223	0.186730	0.166238
C114	C	0.666556	0.520064	0.499572
C115	C	-0.000105	-0.225545	-0.168358
C116	C	0.333228	0.107788	0.164976
C117	C	0.666561	0.441122	0.498309
C118	C	-0.000117	-0.274165	-0.100020
C119	C	0.333216	0.059169	0.233313
C120	C	0.666549	0.392502	0.566647
C121	C	-0.000107	-0.359764	-0.101389
C122	C	0.333227	-0.026431	0.231944
C123	C	0.666560	0.306902	0.565278
C124	C	-0.000098	-0.427990	-0.102486
C125	C	0.333235	-0.094657	0.230847
C126	C	0.666569	0.238677	0.564181
C127	C	-0.000095	-0.888097	-0.240326
C128	C	0.333238	-0.554764	0.093007
C129	C	0.666571	-0.221431	0.426340
C130	C	-0.000089	-0.889436	-0.324344
C131	C	0.333244	-0.556103	0.008989
C132	C	0.666577	-0.222769	0.342323
C133	C	-0.000124	-0.966651	0.169084
C134	C	0.333209	-0.633317	0.502417
C135	C	0.666542	-0.299984	0.835751
C136	C	-0.000117	-0.965389	0.248028
C137	C	0.333217	-0.632055	0.581361
C138	C	0.666550	-0.298722	0.914694
C139	C	-0.000105	-0.895793	0.278349
C140	C	0.333228	-0.562460	0.611682
C141	C	0.666562	-0.229126	0.945016
C142	C	-0.000092	-0.827455	0.229722
C143	C	0.333241	-0.494121	0.563056
C144	C	0.666575	-0.160788	0.896389
C145	C	-0.000094	-0.828718	0.150780
C146	C	0.333240	-0.495384	0.484114
C147	C	0.666573	-0.162051	0.817447
C148	C	-0.000084	-0.822360	0.548086
C149	C	0.333249	-0.489027	0.881419
C150	C	0.666582	-0.155693	1.214752
C151	C	-0.000085	-0.821102	0.627034
C152	C	0.333248	-0.487769	0.960367
C153	C	0.666581	-0.154435	1.293700
C154	C	-0.000107	-0.959031	0.645333
C155	C	0.333226	-0.625698	0.978666
C156	C	0.666559	-0.292364	1.311999
C157	C	-0.000109	-0.960294	0.566391
C158	C	0.333224	-0.626961	0.899724
C159	C	0.666558	-0.293627	1.233058
C160	C	-0.000092	-0.891956	0.517772
C161	C	0.333242	-0.558623	0.851105
C162	C	0.666575	-0.225290	1.184438
C163	C	-0.000098	-0.893326	0.432172
C164	C	0.333235	-0.559992	0.765505
C165	C	0.666568	-0.226659	1.098839
C166	C	-0.000104	-0.894423	0.363947
C167	C	0.333229	-0.561089	0.697280
C168	C	0.666562	-0.227756	1.030613
H169	H	-0.213846	-0.977571	-0.018276
H170	H	0.119487	-0.644238	0.315057
H171	H	0.452820	-0.310904	0.648391
Br172	Br	-0.000049	-0.663995	-0.269170
Br173	Br	0.333284	-0.330662	0.064163
Br174	Br	0.666617	0.002671	0.397496
H175	H	-0.000139	-1.023324	0.144403
H176	H	0.333194	-0.689990	0.477736
H177	H	0.666527	-0.356657	0.811069
Br178	Br	-0.000124	-1.054749	0.525245
Br179	Br	0.333209	-0.721415	0.858578
Br180	Br	0.666542	-0.388082	1.191911
Br181	Br	-0.000110	-0.707143	0.055961
Br182	Br	0.333223	-0.373810	0.389294
Br183	Br	0.666556	-0.040477	0.722627
Br184	Br	-0.189180	-0.763601	-0.232087
Br185	Br	0.144153	-0.430268	0.101247
Br186	Br	0.477487	-0.096935	0.434580
Br187	Br	-0.000137	-0.123753	0.065293
Br188	Br	0.333197	0.209580	0.398626
Br189	Br	0.666530	0.542913	0.731959
Br190	Br	-0.403236	-0.996848	0.000986
Br191	Br	-0.069903	-0.663514	0.334319
Br192	Br	0.263431	-0.330181	0.667653
Br193	Br	-0.000130	-1.058131	0.314011
Br194	Br	0.333203	-0.724797	0.647344
Br195	Br	0.666537	-0.391464	0.980677
H196	H	-0.621636	-1.004859	0.008958
H197	H	-0.288302	-0.671525	0.342292
H198	H	0.045031	-0.338192	0.675625
H199	H	-0.000117	-1.014675	0.684929
H200	H	0.333216	-0.681341	1.018262
H201	H	0.666550	-0.348008	1.351596
H202	H	-0.000078	-0.764425	0.651717
H203	H	0.333256	-0.431092	0.985051
H204	H	0.666589	-0.097759	1.318384
Br205	Br	-0.403218	-0.753765	-0.241940
Br206	Br	-0.069885	-0.420432	0.091393
Br207	Br	0.263449	-0.087098	0.424726
Br208	Br	-0.000055	-0.729616	0.482112
Br209	Br	0.333278	-0.396283	0.815446
Br210	Br	0.666611	-0.062950	1.148779
H211	H	-0.621634	-0.817756	-0.178016
H212	H	-0.288300	-0.484423	0.155317
H213	H	0.045033	-0.151089	0.488651
Br214	Br	-0.000062	-0.733002	0.270872
Br215	Br	0.333272	-0.399669	0.604206
Br216	Br	0.666605	-0.066336	0.937539
Br217	Br	-0.000074	-0.477926	-0.266194
Br218	Br	0.333260	-0.144593	0.067139
Br219	Br	0.666593	0.188741	0.400473
H220	H	-0.000085	-0.773074	0.111194
H221	H	0.333248	-0.439741	0.444527
H222	H	0.666581	-0.106407	0.777860
Br223	Br	-0.811027	-1.024152	0.028216
Br224	Br	-0.477694	-0.690819	0.361550
Br225	Br	-0.144361	-0.357486	0.694883
H226	H	-0.786367	-0.810188	-0.185606
H227	H	-0.453033	-0.476855	0.147727
H228	H	-0.119700	-0.143522	0.481061
Br229	Br	-0.000083	-0.266692	-0.262812
Br230	Br	0.333250	0.066642	0.070521
Br231	Br	0.666583	0.399975	0.403854
H232	H	-0.000105	-0.107007	-0.222739
H233	H	0.333228	0.226326	0.110594
H234	H	0.666562	0.559660	0.443928
H235	H	-0.000122	-0.537520	0.021148
H236	H	0.333212	-0.204187	0.354481
H237	H	0.666545	0.129146	0.687815
Br238	Br	-0.000142	-0.309825	0.062321
Br239	Br	0.333192	0.023509	0.395654
Br240	Br	0.666525	0.356842	0.728987
