data_functionalizedCrystal
_audit_creation_method	'MofGen! by Chris Wilmer'
_symmetry_space_group_name_H-M	'P1'
_symmetry_Int_Tables_number	1
_symmetry_cell_setting	triclinic
loop_
_symmetry_equiv_pos_as_xyz
  x,y,z
_cell_length_a	21.395362
_cell_length_b	21.395361
_cell_length_c	21.395355
_cell_angle_alpha	89.978489
_cell_angle_beta	89.956060
_cell_angle_gamma	90.046585
loop_
_atom_site_label
_atom_site_type_symbol
_atom_site_fract_x
_atom_site_fract_y
_atom_site_fract_z
Zn1	Zn	-0.957859	0.249246	0.354573
Zn2	Zn	-0.957762	0.354005	0.249790
Zn3	Zn	-0.853074	0.249275	0.249774
Zn4	Zn	-0.853044	0.354018	0.354494
O5	O	-0.905435	0.301636	0.302158
O6	O	-1.045524	0.263125	0.340712
O7	O	-0.943847	0.340119	0.162110
O8	O	-0.867028	0.161593	0.263702
O9	O	-1.045453	0.340091	0.263729
O10	O	-0.944013	0.161572	0.340697
O11	O	-0.866934	0.263174	0.162098
O12	O	-0.765392	0.263187	0.263626
O13	O	-0.866976	0.340113	0.442183
O14	O	-0.765370	0.340141	0.340564
O15	O	-0.943983	0.263137	0.442240
O16	O	-0.943817	0.441685	0.263653
O17	O	-0.866881	0.441695	0.340579
C18	C	-0.742647	0.301669	0.302085
C19	C	-0.673006	0.301698	0.302069
C20	C	-0.905487	0.301623	0.465581
C21	C	-0.905509	0.301618	0.535222
C22	C	-0.905352	0.464424	0.302123
C23	C	-0.905374	0.534065	0.302129
C24	C	-1.068858	0.301603	0.302231
C25	C	-1.138499	0.301589	0.302262
C26	C	-0.640297	0.341822	0.342070
C27	C	-0.574862	0.341806	0.342098
C28	C	-0.542138	0.301674	0.302113
C29	C	-0.574854	0.261543	0.262109
C30	C	-0.640288	0.261555	0.262087
C31	C	-0.438413	0.296627	0.245708
C32	C	-0.372980	0.296619	0.245730
C33	C	-0.340317	0.301633	0.302182
C34	C	-0.373095	0.306668	0.358616
C35	C	-0.438529	0.306681	0.358594
C36	C	-0.471185	0.301656	0.302133
C37	C	-0.236656	0.341742	0.342218
C38	C	-0.171219	0.341723	0.342247
C39	C	-0.171213	0.261462	0.262252
C40	C	-0.236648	0.261479	0.262229
C41	C	-0.269366	0.301622	0.302211
C42	C	-0.905535	0.138213	0.302206
C43	C	-0.905578	0.068571	0.302227
C44	C	-0.945470	0.566752	0.262114
C45	C	-0.945499	0.632188	0.262128
C46	C	-0.905421	0.664933	0.302150
C47	C	-0.865322	0.632238	0.342172
C48	C	-0.865299	0.566804	0.342162
C49	C	-0.849006	0.768664	0.307041
C50	C	-0.849029	0.834097	0.307047
C51	C	-0.905494	0.866754	0.302187
C52	C	-0.961939	0.833970	0.297307
C53	C	-0.961915	0.768536	0.297296
C54	C	-0.905443	0.735886	0.302167
C55	C	-0.945625	0.970394	0.262186
C56	C	-0.945655	1.035830	0.262204
C57	C	-0.865473	1.035879	0.342245
C58	C	-0.865448	0.970444	0.342230
C59	C	-0.905524	0.937705	0.302197
C60	C	-0.905419	0.301603	0.139370
C61	C	-0.905518	0.301432	0.069729
C62	C	-0.945605	0.261535	0.567966
C63	C	-0.945604	0.261508	0.633402
C64	C	-0.905514	0.301575	0.666091
C65	C	-0.865410	0.341661	0.633339
C66	C	-0.865407	0.341682	0.567904
C67	C	-0.900538	0.357992	0.769752
C68	C	-0.900545	0.357972	0.835185
C69	C	-0.905518	0.301509	0.867911
C70	C	-0.910497	0.245065	0.835197
C71	C	-0.910495	0.245086	0.769763
C72	C	-0.905512	0.301556	0.737043
C73	C	-0.945615	0.261393	0.971608
C74	C	-0.945610	0.261365	1.037045
C75	C	-0.865419	0.341524	1.036980
C76	C	-0.865421	0.341547	0.971545
C77	C	-0.905522	0.301482	0.938863
H78	H	-0.548226	0.374479	0.374674
H79	H	-0.896321	0.403959	0.743111
O80	O	-0.988841	0.218259	0.668726
H81	H	-0.982097	0.224968	0.719717
H82	H	-0.978153	0.658807	0.229544
O83	O	-0.822171	0.384736	1.072229
H84	H	-0.832880	0.433913	1.059673
O85	O	-0.822166	0.384877	0.668590
H86	H	-0.828907	0.378132	0.719592
O87	O	-0.473636	0.291217	0.184814
H88	H	-0.524643	0.292064	0.194278
O89	O	-0.915844	0.184157	0.870484
H90	H	-0.914996	0.193621	0.921480
O91	O	-1.022841	0.869192	0.292059
H92	H	-1.046226	0.856636	0.247502
H93	H	-0.978258	0.228910	0.541360
O94	O	-0.988857	0.218177	0.936350
H95	H	-1.016732	0.190291	0.970116
O96	O	-0.822037	0.531548	0.385313
H97	H	-0.832755	0.544068	0.434505
H98	H	-0.978259	0.943737	0.229590
H99	H	-0.263280	0.228809	0.229652
H100	H	-0.548206	0.228866	0.229554
H101	H	-0.914547	0.199128	0.743130
H102	H	-0.978103	0.540098	0.229519
H103	H	-0.832774	0.374190	0.944885
O104	O	-0.988853	0.218125	1.072367
H105	H	-1.020706	0.246151	1.102209
O106	O	-0.822197	0.935179	0.385382
H107	H	-0.790330	0.905417	0.357289
O108	O	-0.675573	0.218290	0.218929
H109	H	-0.641828	0.190384	0.191124
O110	O	-1.022789	0.733173	0.292042
H111	H	-1.062060	0.766869	0.288669
H112	H	-0.465214	0.310778	0.404543
H113	H	-0.978310	1.062443	0.229621
H114	H	-0.896494	0.403932	0.861815
H115	H	-0.832843	1.062540	0.374834
H116	H	-0.832753	0.374322	0.541245
H117	H	-0.144589	0.374395	0.374824
O118	O	-0.675587	0.385108	0.385200
H119	H	-0.641845	0.413001	0.413025
H120	H	-0.346502	0.310751	0.404585
H121	H	-0.803022	0.742081	0.311001
O122	O	-0.788154	0.869456	0.312310
H123	H	-0.748887	0.835756	0.315701
O124	O	-0.822089	0.667556	0.385331
H125	H	-0.850123	0.697326	0.417244
O126	O	-0.271958	0.385020	0.385349
H127	H	-0.259342	0.434180	0.374531
O128	O	-0.135922	0.218182	0.219120
H129	H	-0.106168	0.186344	0.247230
O130	O	-0.337627	0.291185	0.184867
H131	H	-0.371331	0.287686	0.145609
