data_functionalizedCrystal
_audit_creation_method	'MofGen! by Chris Wilmer'
_symmetry_space_group_name_H-M	'P1'
_symmetry_Int_Tables_number	1
_symmetry_cell_setting	triclinic
loop_
_symmetry_equiv_pos_as_xyz
  x,y,z
_cell_length_a	10.540535
_cell_length_b	10.540539
_cell_length_c	13.448316
_cell_angle_alpha	89.995557
_cell_angle_beta	89.995644
_cell_angle_gamma	84.524567
loop_
_atom_site_label
_atom_site_type_symbol
_atom_site_fract_x
_atom_site_fract_y
_atom_site_fract_z
O1	O	1.685894	0.178876	-0.082632
O2	O	1.316481	0.195738	-0.082646
O3	O	1.509616	0.002600	-0.082638
O4	O	1.492760	0.372014	-0.082641
O5	O	1.509591	0.002588	0.082746
O6	O	1.316456	0.195726	0.082738
O7	O	1.685870	0.178864	0.082751
Cu8	Cu	1.501161	0.187294	0.097846
Cu9	Cu	1.501190	0.187308	-0.097740
O10	O	1.492735	0.372002	0.082743
C11	C	1.269165	0.194469	0.000044
C12	C	1.128217	0.190689	0.000039
C13	C	1.091546	0.049675	0.000044
C14	C	0.944946	0.045698	0.000429
C15	C	0.918867	0.255052	0.094309
C16	C	1.065632	0.258053	0.094378
C17	C	1.065544	0.260119	-0.093701
C18	C	0.919198	0.253597	-0.094930
C19	C	1.508339	-0.044709	0.000053
C20	C	1.504557	-0.185657	0.000047
C21	C	1.359640	-0.369081	-0.000329
C22	C	1.363474	-0.222463	0.000043
C23	C	1.572439	-0.247322	0.094492
C24	C	1.567624	-0.393867	0.094571
C25	C	1.570521	-0.394371	-0.093501
C26	C	1.571821	-0.247389	-0.094750
C27	C	1.733185	0.180133	0.000059
C28	C	1.874134	0.183913	0.000058
C29	C	1.494011	0.419311	0.000051
C30	C	1.497793	0.560259	0.000050
N31	N	1.501150	0.187283	0.235410
N32	N	1.501211	0.187309	-0.235304
C33	C	1.586697	0.101797	0.287454
C34	C	1.586705	0.101796	0.391557
C35	C	1.501171	0.187288	0.443614
C36	C	1.415614	0.272778	0.391563
C37	C	1.415601	0.272772	0.287462
C38	C	1.415650	0.272787	0.608543
C39	C	1.415664	0.272795	0.712652
C40	C	1.586753	0.101811	0.712639
C41	C	1.586740	0.101805	0.608537
C42	C	1.501185	0.187297	0.556493
H43	H	1.108014	0.216122	-0.165165
C44	C	1.680860	0.007765	0.769889
N45	N	1.751741	-0.063066	0.813015
H46	H	0.870151	0.354471	-0.100915
H47	H	1.517435	-0.422071	0.165167
H48	H	1.669089	-0.441837	0.098859
H49	H	1.088663	0.361427	0.098405
C50	C	1.680792	0.007747	0.230200
N51	N	1.751664	-0.063098	0.187080
H52	H	1.346012	0.342410	0.755032
C53	C	1.321521	0.366819	0.551297
N54	N	1.250624	0.437643	0.508179
H55	H	1.309665	-0.180711	0.067854
H56	H	1.656394	0.032198	0.566152
C57	C	1.680783	0.007724	0.448801
N58	N	1.751635	-0.063147	0.491916
H59	H	0.915618	-0.009939	-0.067120
C60	C	1.148281	-0.023486	-0.091242
N61	N	1.191032	-0.078595	-0.159998
C62	C	1.710788	-0.214680	-0.102446
N63	N	1.815466	-0.190048	-0.108234
H64	H	1.345938	0.342381	0.245089
H65	H	1.134994	-0.003574	0.067535
H66	H	1.345964	0.342383	0.433954
H67	H	0.916483	-0.009676	0.068393
C68	C	1.119892	0.193127	0.189921
N69	N	1.160755	0.144218	0.261885
C70	C	1.708186	-0.458181	-0.094359
N71	N	1.811869	-0.506250	-0.094999
H72	H	0.887954	0.206235	0.164722
C73	C	0.854880	0.392529	0.098694
N74	N	0.806678	0.496075	0.101996
C75	C	1.284655	-0.409855	0.090671
N76	N	1.228185	-0.440555	0.159221
H77	H	0.890606	0.201826	-0.164658
H78	H	1.676046	-0.224970	0.098007
H79	H	1.087729	0.363870	-0.094613
C80	C	1.284351	-0.407724	-0.091820
N81	N	1.227641	-0.436842	-0.160732
H82	H	1.525264	-0.204727	0.164771
C83	C	1.508844	-0.436983	-0.190207
N84	N	1.462374	-0.469076	-0.263041
H85	H	1.310060	-0.179854	-0.067659
H86	H	1.522153	-0.206525	-0.164617
