data_functionalizedCrystal
_audit_creation_method	'MofGen! by Chris Wilmer'
_symmetry_space_group_name_H-M	'P1'
_symmetry_Int_Tables_number	1
_symmetry_cell_setting	triclinic
loop_
_symmetry_equiv_pos_as_xyz
  x,y,z
_cell_length_a	11.026607
_cell_length_b	19.188930
_cell_length_c	9.482900
_cell_angle_alpha	99.297616
_cell_angle_beta	78.636152
_cell_angle_gamma	95.865399
loop_
_atom_site_label
_atom_site_type_symbol
_atom_site_fract_x
_atom_site_fract_y
_atom_site_fract_z
O1	O	1.627581	0.283622	-0.120957
O2	O	1.274451	0.250352	-0.120952
O3	O	1.461202	0.166632	-0.120926
O4	O	1.440830	0.367342	-0.120983
O5	O	1.423268	0.183725	0.120861
O6	O	1.236517	0.267445	0.120835
O7	O	1.589648	0.300715	0.120830
Cu8	Cu	1.409619	0.285641	0.142910
Cu9	Cu	1.454480	0.265426	-0.143032
O10	O	1.402896	0.384435	0.120804
C11	C	1.210306	0.252761	-0.000057
C12	C	1.075688	0.234464	-0.000054
C13	C	1.001617	0.284984	-0.000069
C14	C	0.862482	0.266075	-0.000066
C15	C	1.441575	0.149084	-0.000029
C16	C	1.439592	0.071328	-0.000016
C17	C	1.549173	0.040370	-0.000011
C18	C	1.547315	-0.032693	-0.000034
C19	C	1.435865	-0.074793	-0.000033
C20	C	1.326271	-0.043828	-0.000047
C21	C	1.328134	0.029233	-0.000038
N22	N	1.337766	-0.187838	0.082253
N23	N	1.336003	-0.257242	0.082248
C24	C	1.430246	-0.294921	-0.000063
N25	N	1.526334	-0.260572	-0.082349
N26	N	1.528099	-0.191161	-0.082338
C27	C	1.433833	-0.154016	-0.000044
C28	C	1.537820	-0.405101	-0.000085
C29	C	1.535959	-0.478166	-0.000117
C30	C	1.314910	-0.489299	-0.000115
C31	C	1.316776	-0.416236	-0.000098
C32	C	1.428234	-0.374141	-0.000075
C33	C	1.653793	0.298306	-0.000068
C34	C	1.788412	0.316602	-0.000081
C35	C	1.422524	0.401983	-0.000097
C36	C	1.424509	0.479738	-0.000119
N37	N	1.378075	0.299859	0.344025
N38	N	1.486034	0.251204	-0.344148
C39	C	1.445167	0.269615	0.416234
C40	C	1.418931	0.281452	0.583648
H41	H	1.639931	0.074639	0.000002
H42	H	1.041206	0.342235	-0.000077
O43	O	1.028662	0.166132	0.000026
C44	C	1.124554	0.122827	-0.000001
H45	H	1.203258	0.156358	0.045767
H46	H	1.160710	0.097456	-0.115995
C47	C	0.977480	0.023319	0.038619
C48	C	1.074141	0.064501	0.094845
H49	H	0.946383	-0.012661	0.097118
H50	H	0.912875	0.052493	0.038632
H51	H	1.007623	0.002183	-0.058042
H52	H	1.043993	0.085643	0.191496
H53	H	1.138739	0.035329	0.094850
O54	O	0.835715	0.384879	-0.000376
C55	C	0.927677	0.389603	-0.125592
H56	H	0.911600	0.343205	-0.213089
H57	H	1.023052	0.387981	-0.097281
C58	C	0.940757	0.516620	-0.074958
C59	C	0.921005	0.459636	-0.182427
H60	H	0.936647	0.559821	-0.110014
H61	H	0.878804	0.513438	0.009406
H62	H	1.020235	0.515259	-0.051375
H63	H	0.841522	0.460993	-0.205995
H64	H	0.982945	0.462821	-0.266797
H65	H	1.628576	-0.370826	-0.000073
H66	H	1.636553	-0.057905	-0.000036
H67	H	1.522028	0.234957	0.354116
H68	H	1.235528	-0.078111	-0.000050
H69	H	0.822904	0.208818	-0.000087
H70	H	1.238897	0.054438	-0.000042
O71	O	1.210203	-0.386267	-0.000019
C72	C	1.111439	-0.439093	-0.000060
H73	H	1.135330	-0.486310	0.045706
H74	H	1.095455	-0.456763	-0.116058
C75	C	0.963530	-0.351151	0.038558
C76	C	0.992869	-0.409142	0.094780
H77	H	0.890389	-0.332676	0.097053
H78	H	1.030069	-0.315561	0.038580
H79	H	0.950218	-0.365884	-0.058106
H80	H	1.006196	-0.394406	0.191434
H81	H	0.926329	-0.444728	0.094776
H82	H	1.625199	-0.503371	-0.000121
O83	O	1.577795	0.209892	0.581776
C84	C	1.692214	0.238706	0.618586
H85	H	1.675010	0.273339	0.729173
H86	H	1.743000	0.272097	0.532918
C87	C	1.792965	0.135754	0.489307
C88	C	1.771835	0.178286	0.625139
H89	H	1.842083	0.098485	0.493344
H90	H	1.715881	0.116342	0.464503
H91	H	1.835282	0.163588	0.417932
H92	H	1.729506	0.150454	0.696508
H93	H	1.848915	0.197691	0.649956
O94	O	1.327298	0.322888	0.657577
C95	C	1.352781	0.391826	0.620497
H96	H	1.416779	0.389782	0.509936
H97	H	1.399798	0.426943	0.706112
C98	C	1.152046	0.424965	0.749485
C99	C	1.230642	0.422454	0.613686
H100	H	1.076707	0.443860	0.745289
H101	H	1.134879	0.378521	0.774471
H102	H	1.191242	0.454228	0.820816
H103	H	1.191453	0.393185	0.542361
H104	H	1.247800	0.468894	0.588687
O105	O	1.286447	0.341293	0.417960
C106	C	1.311929	0.410231	0.380881
H107	H	1.375928	0.408187	0.270320
H108	H	1.358947	0.445348	0.466496
C109	C	1.111195	0.443370	0.509868
C110	C	1.189791	0.440859	0.374069
H111	H	1.035855	0.462265	0.505673
H112	H	1.094028	0.396926	0.534855
H113	H	1.150391	0.472633	0.581200
H114	H	1.150601	0.411590	0.302744
H115	H	1.206949	0.487299	0.349071
H116	H	1.224167	-0.523576	-0.000122
