data_functionalizedCrystal
_audit_creation_method	'MofGen! by Chris Wilmer'
_symmetry_space_group_name_H-M	'P1'
_symmetry_Int_Tables_number	1
_symmetry_cell_setting	triclinic
loop_
_symmetry_equiv_pos_as_xyz
  x,y,z
_cell_length_a	27.731994
_cell_length_b	11.792241
_cell_length_c	10.268362
_cell_angle_alpha	89.994572
_cell_angle_beta	90.001501
_cell_angle_gamma	83.406975
loop_
_atom_site_label
_atom_site_type_symbol
_atom_site_fract_x
_atom_site_fract_y
_atom_site_fract_z
O1	O	0.641726	0.134748	-0.108115
O2	O	0.501048	0.155345	-0.108159
O3	O	0.574801	-0.020235	-0.108127
O4	O	0.567973	0.310328	-0.108147
O5	O	0.574795	-0.020242	0.108474
O6	O	0.501042	0.155338	0.108442
O7	O	0.641720	0.134741	0.108485
Cu8	Cu	0.571380	0.145039	0.128241
Cu9	Cu	0.571388	0.145047	-0.127914
O10	O	0.567967	0.310321	0.108453
C11	C	0.574369	-0.062515	0.000173
C12	C	0.573085	-0.188487	0.000171
C13	C	0.483035	0.154919	0.000136
C14	C	0.429372	0.153645	0.000120
C15	C	0.570725	-0.419123	0.000149
C16	C	0.572036	-0.290780	0.000161
C17	C	0.096603	0.145622	0.118240
C18	C	-0.105083	0.140782	0.118255
O19	O	-0.131163	0.140104	0.218668
N20	N	-0.130298	0.140184	0.000186
C21	C	-0.105088	0.140790	-0.117895
O22	O	-0.131161	0.140159	-0.218320
C23	C	0.096598	0.145622	-0.117909
C24	C	0.121810	0.146231	0.000168
C25	C	0.121815	0.146230	0.236307
C26	C	0.172233	0.147446	0.236302
C27	C	0.197440	0.148055	0.118230
C28	C	0.172228	0.147447	0.000163
C29	C	0.121808	0.146219	-0.235989
C30	C	0.172233	0.147424	-0.235982
C31	C	0.197444	0.148033	-0.117905
C32	C	0.247853	0.149272	-0.117914
N33	N	0.273067	0.149869	0.000155
C34	C	0.247861	0.149261	0.118227
C35	C	-0.210976	0.138255	-0.117880
C36	C	-0.261397	0.137049	-0.117877
C37	C	-0.261389	0.137039	0.118274
C38	C	-0.210967	0.138253	0.118269
C39	C	-0.185761	0.138852	0.000189
C40	C	0.353743	0.151816	0.118207
C41	C	0.404165	0.153037	0.118192
C42	C	0.404153	0.153041	-0.117958
C43	C	0.353735	0.151826	-0.117943
C44	C	0.328531	0.151209	0.000150
O45	O	0.273964	0.149938	-0.218274
O46	O	0.273945	0.149866	0.218636
C47	C	0.046185	0.144406	0.118245
C48	C	0.020973	0.143798	0.000178
C49	C	0.046180	0.144407	-0.117894
C50	C	-0.029448	0.142592	0.000181
C51	C	-0.054655	0.141984	0.118253
C52	C	-0.029440	0.142581	0.236321
C53	C	0.020978	0.143797	0.236317
C54	C	0.020965	0.143810	-0.235963
C55	C	-0.029453	0.142595	-0.235949
C56	C	-0.054660	0.141986	-0.117877
C57	C	0.659733	0.135167	0.000188
C58	C	0.713397	0.136440	0.000195
C59	C	0.568399	0.352601	0.000151
C60	C	0.569683	0.478573	0.000144
N61	N	0.571378	0.145032	0.308407
N62	N	0.571394	0.145045	-0.308080
C63	C	0.571385	0.145045	0.574077
C64	C	0.571380	0.145041	0.426240
H65	H	0.424690	0.153536	0.214348
H66	H	0.041483	0.144302	-0.332114
H67	H	0.101297	0.145731	0.332460
N68	N	-0.183780	0.138900	0.245628
H69	H	-0.159125	0.069019	0.250904
H70	H	-0.166626	0.209825	0.250816
H71	H	-0.190457	0.138742	-0.214040
N72	N	0.326565	0.151149	0.245577
H73	H	0.350234	0.150944	0.320357
H74	H	0.302133	0.221419	0.251109
N75	N	0.199422	0.148102	0.363656
H76	H	0.175797	0.147531	0.438444
H77	H	0.224079	0.078222	0.368812
N78	N	-0.288581	0.136363	0.245624
H79	H	-0.264883	0.135357	0.320420
H80	H	-0.312783	0.207021	0.251547
N81	N	0.199420	0.148080	-0.363340
H82	H	0.224078	0.078203	-0.368599
H83	H	0.175763	0.147554	-0.438059
H84	H	-0.281921	0.136572	-0.214026
N85	N	0.094624	0.145552	-0.363344
H86	H	0.118251	0.146110	-0.438130
H87	H	0.077445	0.074662	-0.368474
N88	N	0.048163	0.144443	0.363679
H89	H	0.072820	0.074565	0.368956
H90	H	0.065315	0.215371	0.368875
N91	N	0.326537	0.151192	-0.245292
H92	H	0.350158	0.151769	-0.320090
H93	H	0.309358	0.080304	-0.250435
N94	N	0.431345	0.153698	-0.245302
H95	H	0.467111	0.154553	-0.227378
H96	H	0.426269	0.083100	-0.296849
H97	H	-0.049972	0.142091	0.332460
N98	N	-0.056643	0.141942	-0.363311
H99	H	-0.033019	0.142508	-0.438103
H100	H	-0.073822	0.071051	-0.368443
