data_functionalizedCrystal
_audit_creation_method	'MofGen! by Chris Wilmer'
_symmetry_space_group_name_H-M	'P1'
_symmetry_Int_Tables_number	1
_symmetry_cell_setting	triclinic
loop_
_symmetry_equiv_pos_as_xyz
  x,y,z
_cell_length_a	16.625548
_cell_length_b	18.050589
_cell_length_c	16.625539
_cell_angle_alpha	89.975176
_cell_angle_beta	89.979432
_cell_angle_gamma	90.029289
loop_
_atom_site_label
_atom_site_type_symbol
_atom_site_fract_x
_atom_site_fract_y
_atom_site_fract_z
Zn1	Zn	1.232648	-0.295637	-0.455929
Zn2	Zn	1.232538	-0.419835	-0.321104
Zn3	Zn	1.097810	-0.295665	-0.321109
Zn4	Zn	1.097767	-0.419792	-0.455894
O5	O	1.165191	-0.357732	-0.388509
O6	O	1.345466	-0.312118	-0.438056
O7	O	1.214638	-0.403393	-0.208272
O8	O	1.115761	-0.191737	-0.339010
O9	O	1.345385	-0.403366	-0.339001
O10	O	1.214826	-0.191716	-0.438061
O11	O	1.115654	-0.312166	-0.208276
O12	O	0.984972	-0.312125	-0.338976
O13	O	1.115687	-0.403293	-0.568731
O14	O	0.984940	-0.403320	-0.438002
O15	O	1.214784	-0.312077	-0.568757
O16	O	1.214596	-0.523754	-0.338968
O17	O	1.115580	-0.523722	-0.437997
C18	C	0.955700	-0.357722	-0.388487
C19	C	0.866079	-0.357735	-0.388496
C20	C	0.537903	-0.357740	-0.388531
C21	C	0.629212	-0.357736	-0.388518
C22	C	0.701988	-0.357738	-0.388513
C23	C	0.793302	-0.357734	-0.388502
C24	C	1.165093	-0.550684	-0.388496
C25	C	1.165126	-0.633230	-0.388517
C26	C	1.111334	-0.832691	-0.442350
C27	C	1.091677	-0.882133	-0.368775
C28	C	1.165205	-0.784360	-0.388528
C29	C	1.184901	-0.882000	-0.462112
C30	C	1.165280	-0.930346	-0.388544
C31	C	1.145510	-0.832715	-0.314913
C32	C	1.238767	-0.832578	-0.408300
C33	C	1.219139	-0.881998	-0.334673
C34	C	1.165160	-0.700262	-0.388519
C35	C	1.165325	-1.014442	-0.388544
C36	C	1.375500	-0.357743	-0.388532
C37	C	1.465121	-0.357748	-0.388542
C38	C	1.165243	-0.357677	-0.598818
C39	C	1.165266	-0.357653	-0.688439
C40	C	1.165310	-0.164027	-0.388540
C41	C	1.165361	-0.081481	-0.388553
C42	C	1.165303	-0.357570	-1.016615
C43	C	1.165290	-0.357596	-0.925307
C44	C	1.165285	-0.357612	-0.852530
C45	C	1.165271	-0.357637	-0.761216
C46	C	1.165185	-0.357734	-0.179018
C47	C	1.165319	-0.357548	-0.089398
H48	H	1.065710	-0.811040	-0.487802
C49	C	1.322736	-0.803137	-0.430927
N50	N	1.385980	-0.780957	-0.447981
H51	H	1.128809	-0.811156	-0.252673
C52	C	1.207367	-0.911247	-0.546172
N53	N	1.224283	-0.933272	-0.609487
H54	H	1.029503	-0.903916	-0.352066
C55	C	1.280725	-0.911069	-0.273122
N56	N	1.327108	-0.932967	-0.226760
