data_functionalizedCrystal
_audit_creation_method	'MofGen! by Chris Wilmer'
_symmetry_space_group_name_H-M	'P1'
_symmetry_Int_Tables_number	1
_symmetry_cell_setting	triclinic
loop_
_symmetry_equiv_pos_as_xyz
  x,y,z
_cell_length_a	13.635800
_cell_length_b	27.923559
_cell_length_c	10.992421
_cell_angle_alpha	84.530097
_cell_angle_beta	108.764763
_cell_angle_gamma	81.034929
loop_
_atom_site_label
_atom_site_type_symbol
_atom_site_fract_x
_atom_site_fract_y
_atom_site_fract_z
V1	V	2.001990	-0.151261	0.179588
O2	O	1.982101	-0.148389	-0.006750
O3	O	1.991159	-0.150220	0.354284
O4	O	1.966739	-0.217235	0.177651
O5	O	2.006690	-0.080910	0.171107
V6	V	2.243504	-0.142848	0.157202
O7	O	2.133163	-0.169718	0.228693
O8	O	2.337429	-0.124392	0.108098
O9	O	2.142731	-0.143889	-0.017494
O10	O	2.322091	-0.145720	0.343540
O11	O	2.297502	-0.213199	0.165683
O12	O	2.167151	-0.076874	0.159140
V13	V	2.501990	-0.151261	0.179588
O14	O	2.482101	-0.148389	-0.006750
O15	O	2.491159	-0.150220	0.354284
O16	O	2.466739	-0.217235	0.177651
O17	O	2.506690	-0.080910	0.171107
V18	V	2.743504	-0.142848	0.157202
O19	O	2.633163	-0.169718	0.228693
O20	O	2.837429	-0.124392	0.108098
O21	O	2.642731	-0.143889	-0.017494
O22	O	2.822091	-0.145720	0.343540
O23	O	2.797502	-0.213199	0.165683
O24	O	2.667151	-0.076874	0.159140
C25	C	1.886119	-0.233315	0.171530
C26	C	1.898027	-0.287249	0.171102
C27	C	1.999888	-0.628630	0.286343
C28	C	2.044706	-0.831339	0.284811
O29	O	2.074253	-0.863441	0.384748
N30	N	2.022427	-0.849760	0.166876
C31	C	1.988947	-0.817500	0.049316
O32	O	1.971036	-0.837819	-0.051029
C33	C	1.944137	-0.614792	0.050850
C34	C	1.966408	-0.596374	0.168792
C35	C	2.022158	-0.610212	0.404276
C36	C	2.010948	-0.559537	0.404657
C37	C	1.977469	-0.527281	0.287106
C38	C	1.955199	-0.545700	0.169174
C39	C	1.910665	-0.582534	-0.066708
C40	C	1.899467	-0.531854	-0.066313
C41	C	1.921738	-0.513436	0.051629
C42	C	1.910510	-0.462770	0.052004
N43	N	1.932789	-0.444349	0.169939
C44	C	1.966268	-0.476605	0.287490
C45	C	2.012473	-0.923925	0.048519
C46	C	2.023674	-0.974601	0.048135
C47	C	2.079434	-0.988437	0.283630
C48	C	2.068225	-0.937759	0.284012
C49	C	2.034752	-0.905504	0.166454
C50	C	1.942724	-0.370184	0.288282
C51	C	1.931507	-0.319505	0.288653
C52	C	1.875754	-0.305674	0.053159
C53	C	1.886965	-0.356349	0.052787
C54	C	1.920455	-0.388604	0.170360
O55	O	1.880979	-0.430640	-0.047879
O56	O	1.984196	-0.456276	0.387822
C57	C	2.011098	-0.679305	0.285962
C58	C	1.988827	-0.697723	0.168029
C59	C	1.955348	-0.665467	0.050478
C60	C	2.000028	-0.748400	0.167645
C61	C	2.033508	-0.780656	0.285196
C62	C	2.055787	-0.762235	0.403131
C63	C	2.044577	-0.711560	0.403513
C64	C	1.933069	-0.683888	-0.067457
C65	C	1.944280	-0.734563	-0.067829
C66	C	1.977759	-0.766819	0.049722
C67	C	1.917269	-0.147832	0.396846
C68	C	1.948983	-0.147421	0.539668
C69	C	2.048293	-0.146276	-0.060049
C70	C	2.006198	-0.146690	-0.202869
C71	C	2.079443	-0.060791	0.165264
C72	C	2.057154	-0.006857	0.165686
C73	C	2.417269	-0.147832	0.396846
C74	C	2.448983	-0.147421	0.539668
C75	C	1.884024	-0.144103	0.734915
C76	C	1.850898	-0.144339	0.586273
C77	C	2.000779	-0.102177	0.577756
C78	C	2.033071	-0.101698	0.726294
C79	C	2.065018	-0.194445	0.765996
C80	C	2.030133	-0.195427	0.617494
C81	C	2.386119	-0.233315	0.171530
C82	C	2.398027	-0.287249	0.171102
C83	C	2.548293	-0.146276	-0.060049
C84	C	2.506198	-0.146690	-0.202869
C85	C	2.579443	-0.060791	0.165264
C86	C	2.557154	-0.006857	0.165686
C87	C	2.494763	-0.315049	0.177337
C88	C	2.505962	-0.365725	0.176918
C89	C	2.420427	-0.388600	0.170273
C90	C	2.323683	-0.360795	0.164034
C91	C	2.312483	-0.310120	0.164444
C92	C	2.460455	0.016005	0.172316
C93	C	2.439493	0.066682	0.172697
C94	C	2.515233	0.094496	0.166457
C95	C	2.611938	0.071631	0.159822
C96	C	2.632897	0.020955	0.159432
C97	C	2.384024	-0.144103	0.734915
C98	C	2.350898	-0.144339	0.586273
C99	C	2.500779	-0.102177	0.577756
C100	C	2.533071	-0.101698	0.726294
C101	C	2.565018	-0.194445	0.765996
C102	C	2.530133	-0.195427	0.617494
H103	H	1.949642	-0.304512	0.384700
H104	H	2.310552	-0.176667	0.560899
F105	F	2.057794	-0.644534	0.529401
F106	F	1.920563	-0.754158	-0.193369
F107	F	2.585811	-0.290714	0.184409
F108	F	2.477776	-0.054744	0.748623
F109	F	2.324754	-0.099089	0.761242
F110	F	1.999949	-0.994197	-0.077396
F111	F	2.091932	-0.918162	0.409541
H112	H	2.493433	-0.228900	0.594002
F113	F	2.625618	-0.202032	0.578096
H114	H	1.872212	-0.505594	-0.162046
F115	F	2.735824	-0.003372	0.152392
F116	F	2.232662	-0.385148	0.156976
F117	F	2.681425	-0.197542	0.819761
F118	F	2.379830	-0.013587	0.178957
F119	F	2.336569	0.091008	0.179766
H120	H	1.859403	-0.176231	0.781723
F121	F	1.886957	-0.602124	-0.192240
H122	H	2.498159	0.135758	0.166791
F123	F	2.692542	0.101238	0.153192
F124	F	2.351836	-0.186095	0.796102
F125	F	2.115051	-1.022774	0.408736
F126	F	1.976814	-0.889601	-0.076614
F127	F	1.840119	-0.271336	-0.071941
F128	F	2.425833	-0.055723	0.506305
F129	F	1.798155	-0.186592	0.553102
H130	H	2.062714	-0.696570	0.499553
H131	H	2.584744	-0.388357	0.182003
F132	F	1.982162	-0.239180	0.586801
F133	F	2.270149	-0.099287	0.517177
F134	F	1.770149	-0.099287	0.517177
F135	F	1.978367	-0.404506	0.413416
F136	F	2.095706	-0.102857	0.538244
H137	H	2.233709	-0.287489	0.159370
H138	H	2.029091	-0.544547	0.500698
F139	F	2.181425	-0.197542	0.819761
F140	F	2.648265	-0.101605	0.779734
F141	F	2.432365	-0.442534	0.169842
F142	F	2.595706	-0.102857	0.538244
H143	H	2.549371	-0.228680	0.815926
F144	F	1.863249	-0.375951	-0.072740
H145	H	1.905809	-0.657629	-0.163183
F146	F	2.091419	-0.796573	0.528238
H147	H	1.838681	-0.109664	0.755058
F148	F	1.925833	-0.055723	0.506305
H149	H	1.990765	-0.065775	0.743374
H150	H	2.121203	-0.101626	0.767176
H151	H	2.103183	-0.200480	0.587348
F152	F	2.044572	-0.239193	0.831264
