data_functionalizedCrystal
_audit_creation_method	'MofGen! by Chris Wilmer'
_symmetry_space_group_name_H-M	'P1'
_symmetry_Int_Tables_number	1
_symmetry_cell_setting	triclinic
loop_
_symmetry_equiv_pos_as_xyz
  x,y,z
_cell_length_a	15.944486
_cell_length_b	10.489716
_cell_length_c	8.965430
_cell_angle_alpha	89.996170
_cell_angle_beta	90.006708
_cell_angle_gamma	95.999225
loop_
_atom_site_label
_atom_site_type_symbol
_atom_site_fract_x
_atom_site_fract_y
_atom_site_fract_z
O1	O	-1.115533	0.164119	-0.124147
O2	O	-0.871097	0.184487	-0.124122
O3	O	-0.998888	-0.011376	-0.124140
O4	O	-0.987742	0.359982	-0.124128
O5	O	-0.998881	-0.011394	0.123939
O6	O	-0.871090	0.184468	0.123957
O7	O	-1.115526	0.164101	0.123932
Cu8	Cu	-0.993307	0.174283	0.146596
Cu9	Cu	-0.993316	0.174305	-0.146786
O10	O	-0.987735	0.359964	0.123950
C11	C	-0.839794	0.183647	-0.000079
C12	C	-0.746530	0.181155	-0.000070
C13	C	-0.455670	0.294961	-0.000081
C14	C	-0.516351	0.235817	-0.122403
C15	C	-0.410838	0.172103	-0.000096
C16	C	-0.516329	0.235766	0.122183
C17	C	-0.575774	0.176557	-0.000081
C18	C	-0.470290	0.112925	-0.122519
C19	C	-0.470263	0.112891	0.122178
C20	C	-0.530925	0.053658	-0.000174
C21	C	-0.315822	0.169541	-0.000105
C22	C	-0.670789	0.179110	-0.000081
C23	C	-0.998047	-0.058906	-0.000105
C24	C	-0.995541	-0.200501	-0.000119
C25	C	-1.073907	-0.299289	-0.000113
C26	C	-1.032500	-0.376052	-0.122421
C27	C	-1.032475	-0.376034	0.122166
C28	C	-0.954168	-0.275399	-0.122527
C29	C	-0.954154	-0.275376	0.122169
C30	C	-0.912690	-0.352089	-0.000169
C31	C	-0.146828	0.164958	-0.000107
C32	C	-0.240087	0.167502	-0.000104
C33	C	-0.988576	0.407493	-0.000088
C34	C	-0.991082	0.549088	-0.000084
N35	N	-0.993307	0.174267	0.352945
N36	N	-0.993322	0.174310	-0.353135
C37	C	-1.051943	0.082986	0.549607
C38	C	-1.069607	0.197884	0.450131
C39	C	-0.975681	0.059378	0.450213
C40	C	-1.011024	0.289266	0.549578
C41	C	-0.917065	0.150685	0.549669
C42	C	-0.934697	0.265667	0.450238
H43	H	-0.563495	-0.048398	-0.000243
H44	H	-0.852602	0.130676	0.593423
O45	O	-1.155257	-0.271153	-0.000097
C46	C	-1.196849	-0.324583	0.127645
H47	H	-1.162903	-0.407933	0.169876
H48	H	-1.264731	-0.360645	0.097995
H49	H	-1.196545	-0.248378	0.218357
O50	O	-0.445748	0.051341	0.245735
C51	C	-0.389185	0.135511	0.329315
H52	H	-0.358418	0.214024	0.253249
H53	H	-0.338451	0.079933	0.380051
H54	H	-0.424945	0.180638	0.422230
H55	H	-0.921108	-0.231617	-0.226044
O56	O	-0.540533	0.297937	0.245509
C57	C	-0.501866	0.425115	0.245027
H58	H	-0.442503	0.431223	0.173421
H59	H	-0.484330	0.455678	0.363983
H60	H	-0.547495	0.491283	0.197288
O61	O	-0.446190	0.051121	-0.246186
C62	C	-0.470197	0.115651	-0.374784
H63	H	-0.524573	0.173793	-0.346281
H64	H	-0.491098	0.042665	-0.465105
H65	H	-0.414334	0.182673	-0.416953
O66	O	-0.831299	-0.380026	-0.000494
C67	C	-0.790298	-0.328266	-0.129604
H68	H	-0.839163	-0.314281	-0.219342
H69	H	-0.744732	-0.396754	-0.172283
H70	H	-0.753846	-0.231910	-0.101589
O71	O	-1.072102	-0.428471	-0.245677
C72	C	-1.157018	-0.402107	-0.245278
H73	H	-1.177185	-0.382264	-0.126252
H74	H	-1.198510	-0.488181	-0.291479
H75	H	-1.164024	-0.314559	-0.317778
H76	H	-1.026008	0.386468	0.593043
H77	H	-0.921099	-0.231395	0.225584
H78	H	-1.065570	-0.419984	0.225565
O79	O	-1.111239	-0.008889	0.601602
C80	C	-1.191533	0.016477	0.550847
H81	H	-1.190402	0.122668	0.522925
H82	H	-1.240276	-0.009721	0.641779
H83	H	-1.208849	-0.043004	0.446801
O84	O	-1.146528	0.221535	0.397779
C85	C	-1.180396	0.117645	0.309127
H86	H	-1.127077	0.063452	0.265566
H87	H	-1.216145	0.155107	0.211022
H88	H	-1.225351	0.050371	0.379105
O89	O	-0.875636	0.358037	0.398571
C90	C	-0.894534	0.478946	0.449507
H91	H	-0.964558	0.474371	0.477242
H92	H	-0.878475	0.553651	0.358758
H93	H	-0.855852	0.506587	0.553706
O94	O	-0.957778	-0.056441	0.397964
C95	C	-0.883553	-0.040227	0.311548
H96	H	-0.873454	0.062539	0.268651
H97	H	-0.889755	-0.109238	0.212995
H98	H	-0.827431	-0.060871	0.383117
O99	O	-0.416525	0.416537	-0.000407
C100	C	-0.365215	0.434992	-0.128267
H101	H	-0.348448	0.338270	-0.170291
H102	H	-0.304982	0.498307	-0.098854
H103	H	-0.400721	0.483320	-0.219044
O104	O	-0.540723	0.298063	-0.245569
C105	C	-0.502071	0.425250	-0.245103
H106	H	-0.483906	0.454764	-0.126084
H107	H	-0.547962	0.491806	-0.291105
H108	H	-0.443090	0.432027	-0.317741
