data_functionalizedCrystal
_audit_creation_method	'MofGen! by Chris Wilmer'
_symmetry_space_group_name_H-M	'P1'
_symmetry_Int_Tables_number	1
_symmetry_cell_setting	triclinic
loop_
_symmetry_equiv_pos_as_xyz
  x,y,z
_cell_length_a	14.908571
_cell_length_b	25.639239
_cell_length_c	25.639234
_cell_angle_alpha	89.978894
_cell_angle_beta	86.696914
_cell_angle_gamma	86.734636
loop_
_atom_site_label
_atom_site_type_symbol
_atom_site_fract_x
_atom_site_fract_y
_atom_site_fract_z
Zn1	Zn	1.378990	-0.254399	-0.341650
Zn2	Zn	1.378864	-0.341817	-0.254210
Zn3	Zn	1.228152	-0.249348	-0.249193
Zn4	Zn	1.228051	-0.336748	-0.336580
O5	O	1.303514	-0.295578	-0.295408
O6	O	1.505215	-0.270229	-0.334273
O7	O	1.358861	-0.329558	-0.180379
O8	O	1.248256	-0.176856	-0.261480
O9	O	1.505122	-0.334455	-0.270031
O10	O	1.359076	-0.180567	-0.329408
O11	O	1.248134	-0.261622	-0.176693
O12	O	1.101897	-0.256707	-0.256563
O13	O	1.248084	-0.325817	-0.410418
O14	O	1.101823	-0.320920	-0.320766
O15	O	1.358978	-0.265315	-0.414143
O16	O	1.358763	-0.414306	-0.265115
O17	O	1.247962	-0.410583	-0.325631
C18	C	1.069127	-0.287716	-0.287570
C19	C	0.968855	-0.284365	-0.284229
C20	C	1.303362	-0.431416	-0.295379
C21	C	1.303380	-0.489530	-0.295387
C22	C	0.780404	-0.345037	-0.344715
C23	C	0.686189	-0.341890	-0.341578
C24	C	0.686209	-0.274923	-0.274820
C25	C	0.780424	-0.278069	-0.277957
C26	C	0.827518	-0.313128	-0.312906
C27	C	0.921734	-0.316277	-0.316040
C28	C	0.921752	-0.249307	-0.249285
C29	C	0.827538	-0.246161	-0.246148
C30	C	1.361359	-0.851829	-0.263959
C31	C	1.361394	-0.906435	-0.263968
O32	O	1.410532	-0.936312	-0.237215
N33	N	1.303673	-0.931822	-0.295448
C34	C	1.245919	-0.902602	-0.326927
O35	O	1.196826	-0.929210	-0.353704
C36	C	1.245889	-0.847998	-0.326921
C37	C	1.303608	-0.822613	-0.295434
C38	C	1.419074	-0.826444	-0.232476
C39	C	1.419037	-0.771842	-0.232467
C40	C	1.361286	-0.742626	-0.263942
C41	C	1.303572	-0.768011	-0.295426
C42	C	1.188141	-0.818778	-0.358402
C43	C	1.188117	-0.764171	-0.358394
C44	C	1.245835	-0.738785	-0.326907
C45	C	1.245784	-0.684193	-0.326892
N46	N	1.303506	-0.658805	-0.295411
C47	C	1.361257	-0.688021	-0.263936
C48	C	1.245987	-1.017275	-0.326937
C49	C	1.246012	-1.071878	-0.326940
C50	C	1.361488	-1.075707	-0.263982
C51	C	1.361458	-1.021103	-0.263976
C52	C	1.303708	-0.991887	-0.295456
C53	C	1.361175	-0.573353	-0.263920
C54	C	1.361131	-0.518747	-0.263912
C55	C	1.245659	-0.514923	-0.326873
C56	C	1.245699	-0.569525	-0.326878
C57	C	1.303465	-0.598739	-0.295400
O58	O	1.196673	-0.654281	-0.353632
O59	O	1.410349	-0.661406	-0.237168
C60	C	1.538817	-0.303471	-0.303278
C61	C	1.639089	-0.306835	-0.306631
C62	C	1.303533	-0.295564	-0.431782
C63	C	1.303542	-0.295558	-0.489896
C64	C	1.303691	-0.159211	-0.295450
C65	C	1.303766	-0.101099	-0.295467
C66	C	1.245859	-0.326997	-0.739146
C67	C	1.245844	-0.327009	-0.684541
O68	O	1.196714	-0.353789	-0.654649
N69	N	1.303576	-0.295517	-0.659171
C70	C	1.361322	-0.264007	-0.688409
O71	O	1.410426	-0.237222	-0.661816
C72	C	1.361332	-0.263994	-0.743013
C73	C	1.303602	-0.295492	-0.768380
C74	C	1.188133	-0.358493	-0.764514
C75	C	1.188151	-0.358482	-0.819115
C76	C	1.245894	-0.326976	-0.848349
C77	C	1.303620	-0.295481	-0.822981
C78	C	1.419073	-0.232482	-0.772249
C79	C	1.419078	-0.232471	-0.826856
C80	C	1.361348	-0.263969	-0.852224
C81	C	1.361380	-0.263965	-0.906816
N82	N	1.303647	-0.295457	-0.932186
C83	C	1.245904	-0.326963	-0.902952
C84	C	1.361294	-0.264038	-0.573737
C85	C	1.361288	-0.264054	-0.519135
C86	C	1.245809	-0.327055	-0.515271
C87	C	1.245820	-0.327041	-0.569875
C88	C	1.303561	-0.295530	-0.599107
C89	C	1.245945	-0.326938	-1.017619
C90	C	1.245971	-0.326926	-1.072225
C91	C	1.361446	-0.263924	-1.076084
C92	C	1.361425	-0.263938	-1.021483
C93	C	1.303667	-0.295446	-0.992251
O94	O	1.410482	-0.237197	-0.936742
O95	O	1.196800	-0.353739	-0.929552
C96	C	1.303547	-0.295556	-0.159567
C97	C	1.303714	-0.295421	-0.101459
H98	H	0.960077	-0.344825	-0.344496
H99	H	1.466106	-0.850226	-0.206845
O100	O	1.132011	-0.389150	-0.736201
C101	C	1.017448	-0.451619	-0.738149
C102	C	1.080974	-0.416928	-0.770272
H103	H	0.976155	-0.474079	-0.765681
H104	H	1.058781	-0.480389	-0.713981
H105	H	0.970333	-0.426040	-0.710998
H106	H	1.128102	-0.442465	-0.797452
H107	H	1.039585	-0.388155	-0.794405
O108	O	1.189739	-0.357609	-0.486788
C109	C	1.138586	-0.385562	-0.400950
C110	C	1.202110	-0.350928	-0.433144
H111	H	1.148579	-0.380181	-0.357573
H112	H	1.065838	-0.373935	-0.409215
H113	H	1.154360	-0.428244	-0.412234
H114	H	1.186418	-0.308236	-0.421878
H115	H	1.274839	-0.362599	-0.424875
O116	O	1.417075	-0.494061	-0.233265
C117	C	1.429269	-0.432830	-0.163098
C118	C	1.365812	-0.460756	-0.197759
H119	H	1.387849	-0.405888	-0.134390
H120	H	1.470536	-0.463071	-0.140567
H121	H	1.476412	-0.408827	-0.188708
H122	H	1.318614	-0.484758	-0.172188
H123	H	1.324608	-0.430489	-0.220293
H124	H	0.818749	-0.373586	-0.373169
O125	O	1.131970	-0.735734	-0.388901
C126	C	1.010079	-0.670103	-0.391801
C127	C	1.073623	-0.702261	-0.357194
H128	H	0.962877	-0.643040	-0.366180
H129	H	1.051397	-0.645849	-0.420530
H130	H	0.968881	-0.697642	-0.414316
H131	H	1.114835	-0.674760	-0.334645
H132	H	1.032254	-0.726521	-0.328497
H133	H	0.647833	-0.367872	-0.367482
H134	H	1.466039	-0.751177	-0.206830
H135	H	1.198810	-0.352689	-0.590525
H136	H	1.141139	-0.384129	-0.839764
H137	H	1.408307	-0.238411	-0.498486
O138	O	1.417748	-1.104023	-0.233441
C139	C	1.571278	-1.125768	-0.213323
C140	C	1.507653	-1.093673	-0.247933
H141	H	1.643980	-1.117421	-0.225034
H142	H	1.555576	-1.114522	-0.170620
H143	H	1.561376	-1.169157	-0.218715
H144	H	1.517519	-1.050276	-0.242586
H145	H	1.523370	-1.104963	-0.290623
H146	H	1.141136	-0.839437	-0.384039
O147	O	0.781745	-0.212180	-0.212145
C148	C	0.675290	-0.201490	-0.138048
C149	C	0.727109	-0.240032	-0.176514
H150	H	0.631090	-0.223993	-0.109238
H151	H	0.725107	-0.179232	-0.115811
H152	H	0.631262	-0.172704	-0.160647
H153	H	0.771138	-0.268850	-0.153955
H154	H	0.677243	-0.262252	-0.198752
H155	H	1.408458	-1.000437	-0.238337
O156	O	1.417483	-0.233418	-0.602054
C157	C	1.531987	-0.170912	-0.600111
C158	C	1.468417	-0.205573	-0.567984
H159	H	1.573170	-0.148381	-0.572578
H160	H	1.579196	-0.196468	-0.627235
H161	H	1.490604	-0.142197	-0.624310
H162	H	1.509727	-0.234292	-0.543754
H163	H	1.421206	-0.179984	-0.540893
O164	O	1.475051	-0.201797	-0.747643
C165	C	1.518956	-0.114325	-0.732481
C166	C	1.455489	-0.149021	-0.760362
H167	H	1.503176	-0.071650	-0.742763
H168	H	1.509046	-0.119685	-0.688423
H169	H	1.591683	-0.125964	-0.745646
H170	H	1.382737	-0.137405	-0.747240
H171	H	1.465477	-0.143658	-0.804415
O172	O	1.189831	-0.988838	-0.357440
C173	C	1.067938	-0.923207	-0.360335
C174	C	1.131489	-0.955364	-0.325731
H175	H	1.020740	-0.896144	-0.334711
H176	H	1.109249	-0.898955	-0.389068
H177	H	1.026734	-0.950748	-0.382845
H178	H	1.172707	-0.927862	-0.303186
H179	H	1.090126	-0.979623	-0.297030
O180	O	1.475043	-0.201801	-0.855271
C181	C	1.487292	-0.131626	-0.917359
C182	C	1.423808	-0.166313	-0.885201
H183	H	1.445895	-0.102933	-0.941574
H184	H	1.528529	-0.109079	-0.889868
H185	H	1.534461	-0.157215	-0.944471
H186	H	1.376584	-0.140762	-0.858087
H187	H	1.382634	-0.188863	-0.912723
H188	H	1.199003	-1.092541	-0.352575
O189	O	1.189601	-0.594105	-0.357510
C190	C	1.075032	-0.584537	-0.419937
C191	C	1.138522	-0.556639	-0.385275
H192	H	1.033705	-0.554257	-0.442385
H193	H	1.116395	-0.611428	-0.448718
H194	H	1.027947	-0.608583	-0.394336
H195	H	1.185620	-0.532564	-0.410834
H196	H	1.097103	-0.529778	-0.356490
H197	H	0.960123	-0.223326	-0.223382
O198	O	0.640399	-0.240932	-0.240834
C199	C	0.533890	-0.230209	-0.166766
C200	C	0.585739	-0.268769	-0.205202
H201	H	0.489671	-0.252699	-0.137955
H202	H	0.583687	-0.207938	-0.144527
H203	H	0.489878	-0.201436	-0.189390
H204	H	0.629752	-0.297574	-0.182619
H205	H	0.535894	-0.291002	-0.227442
H206	H	1.408216	-0.597134	-0.238289
H207	H	1.198959	-0.352578	-1.092876
O208	O	1.189824	-0.357601	-0.989309
C209	C	1.075280	-0.420082	-0.991254
C210	C	1.138793	-0.385385	-1.023378
H211	H	1.033991	-0.442546	-1.018784
H212	H	1.116622	-0.448848	-0.967086
H213	H	1.028159	-0.394506	-0.964101
H214	H	1.185926	-0.410919	-1.050559
H215	H	1.097395	-0.356616	-1.047511
H216	H	1.198635	-0.491126	-0.352497
O217	O	1.417536	-0.233296	-0.996919
C218	C	1.532113	-0.170829	-1.006523
C219	C	1.468605	-0.205501	-1.034401
H220	H	1.573432	-0.148356	-1.036814
H221	H	1.490764	-0.142071	-0.979601
H222	H	1.579204	-0.196424	-0.982509
H223	H	1.421501	-0.179948	-1.058442
H224	H	1.510011	-0.234262	-1.061292
H225	H	1.408462	-0.238275	-1.099896
