data_functionalizedCrystal
_audit_creation_method	'MofGen! by Chris Wilmer'
_symmetry_space_group_name_H-M	'P1'
_symmetry_Int_Tables_number	1
_symmetry_cell_setting	triclinic
loop_
_symmetry_equiv_pos_as_xyz
  x,y,z
_cell_length_a	19.077105
_cell_length_b	13.032721
_cell_length_c	19.077271
_cell_angle_alpha	80.848327
_cell_angle_beta	89.912562
_cell_angle_gamma	95.201395
loop_
_atom_site_label
_atom_site_type_symbol
_atom_site_fract_x
_atom_site_fract_y
_atom_site_fract_z
Zn1	Zn	1.013292	-0.505542	0.481843
Zn2	Zn	1.003041	-0.673461	0.378098
Zn3	Zn	0.901779	-0.491502	0.358487
Zn4	Zn	0.880894	-0.672874	0.490802
O5	O	0.949751	-0.585845	0.427308
O6	O	1.109719	-0.533939	0.472540
O7	O	0.994059	-0.643693	0.276705
O8	O	0.929602	-0.347186	0.362894
O9	O	1.102188	-0.657308	0.396319
O10	O	1.011530	-0.357501	0.453523
O11	O	0.919662	-0.510009	0.262297
O12	O	0.801221	-0.509440	0.371581
O13	O	0.894006	-0.656307	0.588405
O14	O	0.785877	-0.642693	0.468792
O15	O	0.991278	-0.533370	0.581824
O16	O	0.973807	-0.819562	0.405005
O17	O	0.884066	-0.819131	0.487808
C18	C	0.768194	-0.574480	0.419031
C19	C	0.690520	-0.569644	0.415509
C20	C	0.646052	-0.636846	0.464404
C21	C	0.573070	-0.632289	0.461097
C22	C	0.544557	-0.560533	0.408891
C23	C	0.589030	-0.493324	0.359993
C24	C	0.662011	-0.497877	0.363304
C25	C	0.327143	-0.539461	0.393572
C26	C	0.254157	-0.534915	0.390263
C27	C	0.238201	-0.673879	0.491368
C28	C	0.311184	-0.678430	0.494671
C29	C	0.355651	-0.611217	0.445776
N30	N	0.469957	-0.555875	0.405508
N31	N	0.430250	-0.615871	0.449163
C32	C	0.925576	-0.857251	0.449523
C33	C	0.915297	-0.973365	0.459054
C34	C	0.955152	-1.025315	0.422367
C35	C	0.944529	-1.145325	0.432216
C36	C	1.132018	-0.597255	0.435617
C37	C	1.209689	-0.602117	0.439158
C38	C	0.941456	-0.596339	0.611446
C39	C	0.937921	-0.600811	0.689915
C40	C	0.974039	-0.313381	0.405022
C41	C	0.984389	-0.197273	0.395525
C42	C	0.986902	-0.538908	0.723355
C43	C	0.983572	-0.543105	0.797084
C44	C	0.931264	-0.609212	0.837373
C45	C	0.882278	-0.671117	0.803929
C46	C	0.885605	-0.666914	0.730200
C47	C	0.915880	-0.628642	1.058245
C48	C	0.912558	-0.632843	1.131978
C49	C	1.013852	-0.504829	1.125128
C50	C	1.017177	-0.500636	1.051399
C51	C	0.968188	-0.562537	1.017961
N52	N	0.927861	-0.613506	0.912736
N53	N	0.971589	-0.558237	0.942598
C54	C	0.958006	-0.575414	1.243887
C55	C	0.961539	-0.570940	1.165418
H56	H	0.536866	-0.687013	0.500912
H57	H	0.334393	-0.736864	0.537182
F58	F	0.676390	-0.713224	0.519966
F59	F	0.889649	-1.203311	0.482808
H60	H	0.839685	-0.724939	0.836737
H61	H	0.201988	-0.728599	0.531177
F62	F	1.039276	-1.139290	0.344940
F63	F	1.010036	-0.967326	0.371786
H64	H	0.873313	-1.017736	0.497757
H65	H	1.029499	-0.485080	0.690557
H66	H	0.230945	-0.476471	0.347754
H67	H	0.363340	-0.484739	0.353753
H68	H	1.023459	-0.492700	0.824307
F69	F	0.558683	-0.416949	0.304435
F70	F	0.709338	-0.426349	0.311264
H71	H	1.053734	-0.454431	1.152362
H72	H	0.869959	-0.686678	1.164780
F73	F	1.072851	-0.430277	1.008526
F74	F	0.863742	-0.694524	1.022666
H75	H	0.845713	-0.717311	0.702974
