data_functionalizedCrystal
_audit_creation_method	'MofGen! by Chris Wilmer'
_symmetry_space_group_name_H-M	'P1'
_symmetry_Int_Tables_number	1
_symmetry_cell_setting	triclinic
loop_
_symmetry_equiv_pos_as_xyz
  x,y,z
_cell_length_a	10.654546
_cell_length_b	6.394989
_cell_length_c	9.730223
_cell_angle_alpha	89.998443
_cell_angle_beta	90.007820
_cell_angle_gamma	85.490618
loop_
_atom_site_label
_atom_site_type_symbol
_atom_site_fract_x
_atom_site_fract_y
_atom_site_fract_z
O1	O	-1.670944	-0.293399	-0.114524
O2	O	-1.305761	-0.321363	-0.114472
O3	O	-1.493536	-0.003392	-0.114500
O4	O	-1.483169	-0.611370	-0.114496
O5	O	-1.493534	-0.003400	0.114080
O6	O	-1.305759	-0.321371	0.114108
O7	O	-1.670942	-0.293407	0.114056
Zn8	Zn	-1.488350	-0.307390	0.150374
Zn9	Zn	-1.488353	-0.307380	-0.150790
O10	O	-1.483167	-0.611378	0.114084
C11	C	-1.258940	-0.319316	-0.000176
C12	C	-1.119432	-0.313177	-0.000157
C13	C	-1.041929	-0.500393	-0.000170
C14	C	-0.910847	-0.494612	-0.000183
C15	C	-0.934783	-0.114383	-0.000176
C16	C	-1.065863	-0.120166	-0.000153
C17	C	-1.028108	-0.719915	-0.000180
C18	C	-0.897026	-0.714134	-0.000193
C19	C	-0.717762	-0.295460	-0.000224
C20	C	-0.857270	-0.301613	-0.000194
C21	C	-1.491485	0.074455	-0.000214
C22	C	-1.485221	0.310781	-0.000215
N23	N	-1.488357	-0.307396	0.355910
N24	N	-1.488355	-0.307357	-0.356326
C25	C	-1.571526	-0.166647	0.427824
C26	C	-1.571523	-0.166621	0.571707
C27	C	-1.405177	-0.448114	0.571750
C28	C	-1.405175	-0.448127	0.427869
C29	C	-1.667569	-0.004135	0.427801
C30	C	-1.667565	-0.004110	0.571684
H31	H	-1.064505	-0.789810	-0.098870
H32	H	-0.852056	-0.780481	0.098495
C33	C	-1.068199	-0.834357	0.127491
C34	C	-0.961676	-0.898581	0.205563
C35	C	-0.998560	-1.003979	0.323189
H36	H	-1.110214	-0.953682	0.101108
H37	H	-1.123451	-0.742934	0.180721
H38	H	-0.906445	-0.989999	0.152343
H39	H	-0.919647	-0.779297	0.231982
H40	H	-1.053812	-0.912556	0.376419
H41	H	-1.040576	-1.123295	0.296793
H42	H	-0.926292	-1.047552	0.376181
C43	C	-0.842783	-0.824409	-0.127860
C44	C	-0.940650	-0.897638	-0.205939
C45	C	-0.890732	-0.999210	-0.323555
H46	H	-0.786025	-0.939383	-0.101467
H47	H	-0.799308	-0.728636	-0.181091
H48	H	-0.984105	-0.993405	-0.152718
H49	H	-0.997416	-0.782706	-0.232367
H50	H	-0.847256	-0.903437	-0.376785
H51	H	-0.833974	-1.114175	-0.297148
H52	H	-0.957127	-1.048891	-0.376552
H53	H	-1.635445	0.147640	0.616303
C54	C	-1.315016	-0.601272	0.349868
C55	C	-1.338637	-0.806894	0.384854
C56	C	-1.255614	-0.948033	0.313015
H57	H	-1.230782	-0.577548	0.373405
H58	H	-1.326929	-0.581276	0.253858
H59	H	-1.326714	-0.826882	0.480843
H60	H	-1.422855	-0.830685	0.361313
H61	H	-1.267526	-0.928037	0.217005
H62	H	-1.171385	-0.924290	0.336558
H63	H	-1.271637	-1.087563	0.336733
H64	H	-1.764456	-0.039904	0.610721
H65	H	-0.891151	0.042760	-0.000194
C66	C	-1.314808	-0.600572	0.650058
C67	C	-1.236184	-0.488071	0.732686
C68	C	-1.152931	-0.628448	0.804854
H69	H	-1.265153	-0.684461	0.586778
H70	H	-1.361329	-0.688205	0.706268
H71	H	-1.189667	-0.400475	0.676481
H72	H	-1.285804	-0.404189	0.795991
H73	H	-1.199452	-0.716081	0.861064
H74	H	-1.103285	-0.712330	0.741564
H75	H	-1.099583	-0.552137	0.860935
C76	C	-1.636762	0.209851	0.375445
C77	C	-1.636868	0.209287	0.231551
C78	C	-1.608501	0.406369	0.183273
H79	H	-1.556019	0.239880	0.407850
H80	H	-1.698213	0.313901	0.407884
H81	H	-1.575421	0.105270	0.199125
H82	H	-1.717600	0.179295	0.199110
H83	H	-1.669951	0.510418	0.215712
H84	H	-1.527758	0.436381	0.215687
H85	H	-1.608580	0.406018	0.085637
C86	C	-1.789733	-0.072449	0.368217
C87	C	-1.763956	-0.251806	0.287375
C88	C	-1.876459	-0.314856	0.232491
H89	H	-1.828364	0.037149	0.313150
H90	H	-1.844900	-0.103190	0.440903
H91	H	-1.708811	-0.221056	0.214698
H92	H	-1.725343	-0.361445	0.342411
H93	H	-1.931625	-0.345597	0.305177
H94	H	-1.915081	-0.205245	0.177430
H95	H	-1.858986	-0.436566	0.177644
H96	H	-1.128962	0.032284	-0.000122
