data_functionalizedCrystal
_audit_creation_method	'MofGen! by Chris Wilmer'
_symmetry_space_group_name_H-M	'P1'
_symmetry_Int_Tables_number	1
_symmetry_cell_setting	triclinic
loop_
_symmetry_equiv_pos_as_xyz
  x,y,z
_cell_length_a	12.759401
_cell_length_b	15.297327
_cell_length_c	12.759393
_cell_angle_alpha	99.642569
_cell_angle_beta	89.981287
_cell_angle_gamma	99.708126
loop_
_atom_site_label
_atom_site_type_symbol
_atom_site_fract_x
_atom_site_fract_y
_atom_site_fract_z
Zn1	Zn	1.533790	-0.359082	-0.666329
Zn2	Zn	1.503243	-0.509967	-0.521034
Zn3	Zn	1.358085	-0.359130	-0.490674
Zn4	Zn	1.327648	-0.509904	-0.696658
O5	O	1.430691	-0.434521	-0.593674
O6	O	1.676757	-0.379103	-0.647068
O7	O	1.483941	-0.490005	-0.369995
O8	O	1.406915	-0.232877	-0.488577
O9	O	1.654314	-0.489958	-0.540320
O10	O	1.536004	-0.232842	-0.617630
O11	O	1.377295	-0.379185	-0.347690
O12	O	1.207028	-0.379124	-0.517986
O13	O	1.355039	-0.489851	-0.839647
O14	O	1.184666	-0.489897	-0.669321
O15	O	1.506490	-0.379042	-0.817364
O16	O	1.454427	-0.636205	-0.569729
O17	O	1.325419	-0.636158	-0.698760
C18	C	1.157726	-0.434510	-0.593651
C19	C	1.040946	-0.434527	-0.593670
C20	C	0.974450	-0.492294	-0.672383
C21	C	0.864725	-0.492298	-0.672404
C22	C	0.888003	-0.376764	-0.514991
C23	C	0.997727	-0.376756	-0.514975
C24	C	0.708293	-0.524669	-0.802783
C25	C	0.641790	-0.582450	-0.881489
C26	C	0.659622	-0.670493	-0.915167
C27	C	0.743952	-0.700772	-0.870126
C28	C	0.810448	-0.642995	-0.791413
C29	C	0.792620	-0.554940	-0.757754
C30	C	1.154159	-0.344394	-0.384596
C31	C	1.220657	-0.286621	-0.305878
C32	C	1.202827	-0.198577	-0.272190
C33	C	1.118493	-0.168302	-0.317213
C34	C	1.051995	-0.226075	-0.395931
C35	C	1.069833	-0.314118	-0.429621
C36	C	1.383334	-0.668916	-0.640853
C37	C	1.363170	-0.769191	-0.661071
C38	C	1.575237	-1.051821	-0.449528
C39	C	1.594181	-0.957608	-0.430526
C40	C	1.536430	-0.910499	-0.488161
C41	C	1.459732	-0.957613	-0.564800
C42	C	1.440780	-1.051836	-0.583798
C43	C	1.401973	-0.910513	-0.622431
C44	C	1.325274	-0.957627	-0.699070
C45	C	1.306326	-1.051841	-0.718065
C46	C	1.364077	-1.098949	-0.660430
C47	C	1.420925	-0.816290	-0.603434
C48	C	1.286468	-0.816305	-0.737704
C49	C	1.267524	-0.910518	-0.756705
C50	C	1.704722	-0.434532	-0.593698
C51	C	1.821498	-0.434537	-0.593708
C52	C	1.430777	-0.434434	-0.867690
C53	C	1.430813	-0.434397	-0.984459
C54	C	1.478262	-0.199210	-0.546334
C55	C	1.498534	-0.098935	-0.526160
C56	C	1.351981	-0.492068	-1.050920
C57	C	1.352025	-0.492035	-1.160637
C58	C	1.509739	-0.376651	-1.137422
C59	C	1.509698	-0.376690	-1.027708
C60	C	1.293031	-0.598376	-1.331986
C61	C	1.214184	-0.656039	-1.398449
C62	C	1.108857	-0.669897	-1.365624
C63	C	1.082359	-0.626078	-1.266335
C64	C	1.161203	-0.568408	-1.199876
C65	C	1.266540	-0.554568	-1.232703
C66	C	1.568681	-0.270347	-0.856357
C67	C	1.647521	-0.212672	-0.789895
C68	C	1.752851	-0.198805	-0.822716
C69	C	1.779348	-0.242608	-0.922005
C70	C	1.700509	-0.300283	-0.988467
C71	C	1.595179	-0.314151	-0.955639
C72	C	1.430680	-0.434542	-0.320711
C73	C	1.430898	-0.434325	-0.203891
H74	H	0.693774	-0.452975	-0.775378
C75	C	1.557277	-0.806866	-0.467269
H76	H	1.611234	-0.785554	-0.413380
H77	H	1.493766	-0.785606	-0.444764
H78	H	1.579719	-0.785503	-0.530781
H79	H	1.139628	-0.532729	-1.119039
H80	H	1.378797	-0.587108	-1.358716
H81	H	0.996588	-0.637357	-1.239623
C82	C	0.549041	-0.549143	-0.931039
H83	H	0.547955	-0.488424	-0.899726
H84	H	0.483806	-0.585578	-0.918504
H85	H	0.558155	-0.552867	-1.005461
C86	C	0.840455	-0.313231	-0.428425
H87	H	0.765582	-0.321516	-0.439699
H88	H	0.870683	-0.252629	-0.431711
H89	H	0.855754	-0.326371	-0.360449
C90	C	0.959230	-0.192776	-0.445463
H91	H	0.922177	-0.239795	-0.497161
H92	H	0.986300	-0.142633	-0.478365
H93	H	0.911968	-0.175373	-0.391412
H94	H	1.287742	-0.539052	-1.015710
C95	C	1.173780	-0.441242	-0.421658
H96	H	1.233520	-0.451002	-0.383559
H97	H	1.187132	-0.449869	-0.495602
H98	H	1.112791	-0.482607	-0.408654
C99	C	1.222937	-0.764499	-0.801109
H100	H	1.174534	-0.806052	-0.849462
H101	H	1.270506	-0.727686	-0.839498
H102	H	1.184560	-0.727805	-0.753473
C103	C	1.098877	-0.071453	-0.280163
H104	H	1.150565	-0.041379	-0.226842
H105	H	1.029826	-0.072976	-0.251917
H106	H	1.104162	-0.040246	-0.338873
H107	H	1.256973	-0.151542	-0.208084
C108	C	1.022125	-0.733325	-1.438726
H109	H	0.955596	-0.735297	-1.404961
H110	H	1.039610	-0.792053	-1.452399
H111	H	1.017652	-0.711744	-1.503916
C112	C	1.678548	-0.905789	-0.346238
H113	H	1.710236	-0.947336	-0.314641
H114	H	1.645767	-0.869092	-0.293026
H115	H	1.731711	-0.868978	-0.379054
C116	C	0.763558	-0.797623	-0.907168
H117	H	0.711884	-0.827694	-0.960503
H118	H	0.758276	-0.828826	-0.848462
H119	H	0.832615	-0.796097	-0.935416
C120	C	1.183153	-0.962350	-0.840996
H121	H	1.180136	-1.025208	-0.844047
H122	H	1.201603	-0.946855	-0.908477
H123	H	1.115659	-0.946973	-0.822451
C124	C	1.638755	-1.103641	-0.386143
H125	H	1.616486	-1.166500	-0.408440
H126	H	1.626517	-1.088259	-0.312436
H127	H	1.712459	-1.088142	-0.398465
H128	H	1.243861	-1.090198	-0.780458
C129	C	1.596502	-0.313172	-1.184993
H130	H	1.643452	-0.278836	-1.129696
H131	H	1.564279	-0.273845	-1.219882
H132	H	1.635319	-0.347676	-1.234739
H133	H	1.348659	-1.175666	-0.675900
H134	H	1.235767	-0.691716	-1.479290
H135	H	1.625937	-0.176999	-0.709053
C136	C	1.729657	-0.348480	-1.097676
H137	H	1.803683	-0.331971	-1.107704
H138	H	1.690658	-0.331461	-1.152114
H139	H	1.712629	-0.411752	-1.100571
H140	H	1.865116	-0.231312	-0.948733
H141	H	1.817040	-0.151830	-0.768598
H142	H	1.482914	-0.281637	-0.829622
C143	C	1.313417	-0.319926	-0.256346
H144	H	1.314523	-0.380634	-0.287690
H145	H	1.304311	-0.316217	-0.181931
H146	H	1.378651	-0.283478	-0.268879
C147	C	0.903206	-0.676286	-0.741869
H148	H	0.940253	-0.629266	-0.690168
H149	H	0.950461	-0.693706	-0.795910
H150	H	0.876125	-0.726422	-0.708946
C151	C	1.021994	-0.555836	-0.758942
H152	H	1.096864	-0.547567	-0.747654
H153	H	1.006700	-0.542711	-0.826920
H154	H	0.991758	-0.616438	-0.755638
C155	C	0.586476	-0.734048	-1.001746
H156	H	0.533706	-0.703406	-1.023749
H157	H	0.553130	-0.785331	-0.973983
H158	H	0.627472	-0.752600	-1.060934
H159	H	1.483374	-0.777939	-0.541033
