data_functionalizedCrystal
_audit_creation_method	'MofGen! by Chris Wilmer'
_symmetry_space_group_name_H-M	'P1'
_symmetry_Int_Tables_number	1
_symmetry_cell_setting	triclinic
loop_
_symmetry_equiv_pos_as_xyz
  x,y,z
_cell_length_a	25.639242
_cell_length_b	25.639240
_cell_length_c	25.639234
_cell_angle_alpha	89.967912
_cell_angle_beta	89.978465
_cell_angle_gamma	90.025061
loop_
_atom_site_label
_atom_site_type_symbol
_atom_site_fract_x
_atom_site_fract_y
_atom_site_fract_z
Zn1	Zn	0.799284	-0.208290	-0.295607
Zn2	Zn	1.132617	0.125043	0.037726
Zn3	Zn	1.465950	0.458377	0.371060
Zn4	Zn	0.799205	-0.295718	-0.208160
Zn5	Zn	1.132539	0.037615	0.125173
Zn6	Zn	1.465872	0.370949	0.458506
Zn7	Zn	0.711849	-0.208287	-0.208183
Zn8	Zn	1.045182	0.125047	0.125150
Zn9	Zn	1.378516	0.458380	0.458484
Zn10	Zn	0.711814	-0.295684	-0.295562
Zn11	Zn	1.045147	0.037649	0.037771
Zn12	Zn	1.378481	0.370982	0.371104
O13	O	0.755538	-0.251995	-0.251878
O14	O	1.088871	0.081338	0.081455
O15	O	1.422205	0.414672	0.414788
O16	O	0.872438	-0.219903	-0.284016
O17	O	1.205772	0.113430	0.049317
O18	O	1.539105	0.446764	0.382650
O19	O	0.787599	-0.284133	-0.134998
O20	O	1.120932	0.049200	0.198335
O21	O	1.454266	0.382534	0.531668
O22	O	0.723495	-0.135122	-0.219808
O23	O	1.056828	0.198211	0.113525
O24	O	1.390161	0.531545	0.446858
O25	O	0.872381	-0.284136	-0.219770
O26	O	1.205714	0.049197	0.113564
O27	O	1.539047	0.382531	0.446897
O28	O	0.787733	-0.135124	-0.284038
O29	O	1.121066	0.198209	0.049295
O30	O	1.454399	0.531542	0.382628
O31	O	0.723419	-0.219898	-0.135015
O32	O	1.056752	0.113436	0.198318
O33	O	1.390085	0.446769	0.531652
O34	O	0.638679	-0.219865	-0.219765
O35	O	0.972012	0.113468	0.113568
O36	O	1.305346	0.446802	0.446902
O37	O	0.723435	-0.284079	-0.368733
O38	O	1.056769	0.049255	-0.035400
O39	O	1.390102	0.382588	0.297933
O40	O	0.638654	-0.284076	-0.283962
O41	O	0.971987	0.049258	0.049371
O42	O	1.305320	0.382591	0.382705
O43	O	0.787699	-0.219870	-0.368766
O44	O	1.121032	0.113463	-0.035433
O45	O	1.454366	0.446796	0.297900
O46	O	0.787565	-0.368879	-0.219726
O47	O	1.120898	-0.035546	0.113607
O48	O	1.454232	0.297788	0.446940
O49	O	0.723359	-0.368854	-0.283940
O50	O	1.056693	-0.035521	0.049393
O51	O	1.390026	0.297813	0.382727
C52	C	0.619695	-0.251967	-0.251861
C53	C	0.953029	0.081367	0.081472
C54	C	1.286362	0.414700	0.414805
C55	C	0.561581	-0.251967	-0.251867
C56	C	0.894915	0.081366	0.081467
C57	C	1.228248	0.414700	0.414800
C58	C	0.755464	-0.387837	-0.251837
C59	C	1.088797	-0.054504	0.081496
C60	C	1.422131	0.278829	0.414829
C61	C	0.755480	-0.445951	-0.251837
C62	C	1.088814	-0.112618	0.081496
C63	C	1.422147	0.220715	0.414829
C64	C	0.310426	-0.218608	-0.285392
C65	C	0.643759	0.114725	0.047941
C66	C	0.977093	0.448059	0.381274
C67	C	0.365030	-0.218603	-0.285390
C68	C	0.698364	0.114730	0.047944
C69	C	1.031697	0.448064	0.381277
O70	O	0.393299	-0.190217	-0.313891
O71	O	0.726633	0.143116	0.019443
O72	O	1.059966	0.476450	0.352776
N73	N	0.392307	-0.251989	-0.251884
N74	N	0.725641	0.081345	0.081449
N75	N	1.058974	0.414678	0.414782
C76	C	0.364978	-0.285386	-0.218383
C77	C	0.698311	0.047948	0.114950
C78	C	1.031644	0.381281	0.448283
O79	O	0.393193	-0.313783	-0.189885
O80	O	0.726526	0.019550	0.143449
O81	O	1.059860	0.352884	0.476782
C82	C	0.310374	-0.285393	-0.218389
C83	C	0.643708	0.047940	0.114944
C84	C	0.977041	0.381273	0.448277
C85	C	0.283100	-0.252001	-0.251893
C86	C	0.616433	0.081332	0.081440
C87	C	0.949767	0.414665	0.414773
C88	C	0.283152	-0.185219	-0.318894
C89	C	0.616485	0.148114	0.014439
C90	C	0.949818	0.481447	0.347773
C91	C	0.228551	-0.185224	-0.318896
C92	C	0.561884	0.148109	0.014437
C93	C	0.895218	0.481443	0.347771
C94	C	0.201225	-0.218617	-0.285397
C95	C	0.534558	0.114716	0.047937
C96	C	0.867892	0.448049	0.381270
C97	C	0.228499	-0.252006	-0.251895
C98	C	0.561833	0.081327	0.081438
C99	C	0.895166	0.414661	0.414771
C100	C	0.283045	-0.318792	-0.184892
C101	C	0.616379	0.014541	0.148442
C102	C	0.949712	0.347874	0.481775
C103	C	0.228438	-0.318797	-0.184901
C104	C	0.561772	0.014536	0.148432
C105	C	0.895105	0.347869	0.481766
C106	C	0.201164	-0.285405	-0.218405
C107	C	0.534497	0.047928	0.114929
C108	C	0.867831	0.381261	0.448262
C109	C	0.146573	-0.285404	-0.218398
C110	C	0.479906	0.047929	0.114935
C111	C	0.813239	0.381263	0.448268
N112	N	0.119295	-0.252018	-0.251904
N113	N	0.452629	0.081315	0.081430
N114	N	0.785962	0.414649	0.414763
C115	C	0.146622	-0.218625	-0.285403
C116	C	0.479955	0.114709	0.047931
C117	C	0.813288	0.448042	0.381264
C118	C	0.479648	-0.285368	-0.218374
C119	C	0.812981	0.047965	0.114959
C120	C	1.146315	0.381298	0.448293
C121	C	0.534250	-0.285359	-0.218365
C122	C	0.867584	0.047975	0.114968
C123	C	1.200917	0.381308	0.448302
C124	C	0.534299	-0.218576	-0.285372
C125	C	0.867633	0.114757	0.047961
C126	C	1.200966	0.448090	0.381295
C127	C	0.479696	-0.218584	-0.285378
C128	C	0.813030	0.114750	0.047955
C129	C	1.146363	0.448083	0.381289
C130	C	0.452371	-0.251982	-0.251879
C131	C	0.785704	0.081351	0.081454
C132	C	1.119038	0.414684	0.414787
C133	C	0.031956	-0.218637	-0.285404
C134	C	0.365290	0.114697	0.047929
C135	C	0.698623	0.448030	0.381262
C136	C	-0.022649	-0.218643	-0.285402
C137	C	0.310684	0.114691	0.047931
C138	C	0.644018	0.448024	0.381265
C139	C	-0.022693	-0.285427	-0.218397
C140	C	0.310640	0.047907	0.114936
C141	C	0.643974	0.381240	0.448269
C142	C	0.031907	-0.285419	-0.218398
C143	C	0.365241	0.047915	0.114936
C144	C	0.698574	0.381248	0.448269
C145	C	0.059231	-0.252022	-0.251905
C146	C	0.392564	0.081311	0.081428
C147	C	0.725898	0.414645	0.414761
O148	O	0.118269	-0.313777	-0.189913
O149	O	0.451602	0.019557	0.143420
O150	O	0.784936	0.352890	0.476754
O151	O	0.118400	-0.190237	-0.313902
O152	O	0.451733	0.143096	0.019432
O153	O	0.785066	0.476430	0.352765
C154	C	0.789003	-0.806277	-0.285383
C155	C	1.122337	-0.472944	0.047950
C156	C	1.455670	-0.139611	0.381284
C157	C	0.789019	-0.860882	-0.285394
C158	C	1.122352	-0.527548	0.047940
C159	C	1.455685	-0.194215	0.381273
O160	O	0.817433	-0.889087	-0.313874
O161	O	1.150766	-0.555753	0.019460
O162	O	1.484100	-0.222420	0.352793
N163	N	0.755611	-0.888234	-0.251929
N164	N	1.088944	-0.554901	0.081405
N165	N	1.422277	-0.221567	0.414738
C166	C	0.722181	-0.860979	-0.218455
C167	C	1.055514	-0.527646	0.114879
C168	C	1.388848	-0.194312	0.448212
O169	O	0.693766	-0.889258	-0.189991
O170	O	1.027099	-0.555925	0.143342
O171	O	1.360433	-0.222592	0.476675
C172	C	0.722163	-0.806376	-0.218447
C173	C	1.055497	-0.473042	0.114886
C174	C	1.388830	-0.139709	0.448220
C175	C	0.755577	-0.779026	-0.251911
C176	C	1.088911	-0.445693	0.081423
C177	C	1.422244	-0.112360	0.414756
C178	C	0.822414	-0.778928	-0.318844
C179	C	1.155748	-0.445594	0.014489
C180	C	1.489081	-0.112261	0.347822
C181	C	0.822399	-0.724327	-0.318833
C182	C	1.155733	-0.390994	0.014501
C183	C	1.489066	-0.057660	0.347834
C184	C	0.788974	-0.697076	-0.285360
C185	C	1.122307	-0.363743	0.047973
C186	C	1.455640	-0.030409	0.381306
C187	C	0.755563	-0.724426	-0.251899
C188	C	1.088896	-0.391092	0.081434
C189	C	1.422229	-0.057759	0.414768
C190	C	0.688732	-0.779122	-0.184976
C191	C	1.022065	-0.445789	0.148357
C192	C	1.355398	-0.112455	0.481691
C193	C	0.688717	-0.724515	-0.184972
C194	C	1.022050	-0.391182	0.148362
C195	C	1.355383	-0.057848	0.481695
C196	C	0.722131	-0.697165	-0.218435
C197	C	1.055464	-0.363832	0.114898
C198	C	1.388797	-0.030499	0.448232
C199	C	0.722122	-0.642574	-0.218415
C200	C	1.055455	-0.309241	0.114918
C201	C	1.388789	0.024092	0.448252
N202	N	0.755530	-0.615222	-0.251880
N203	N	1.088863	-0.281889	0.081453
N204	N	1.422197	0.051445	0.414787
C205	C	0.788956	-0.642473	-0.285353
C206	C	1.122289	-0.309140	0.047981
C207	C	1.455623	0.024194	0.381314
C208	C	0.722220	-0.975650	-0.218474
C209	C	1.055553	-0.642316	0.114859
C210	C	1.388887	-0.308983	0.448193
C211	C	0.722240	-1.030252	-0.218478
C212	C	1.055573	-0.696919	0.114855
C213	C	1.388907	-0.363585	0.448188
C214	C	0.789077	-1.030151	-0.285418
C215	C	1.122410	-0.696817	0.047915
C216	C	1.455744	-0.363484	0.381248
C217	C	0.789059	-0.975547	-0.285411
C218	C	1.122393	-0.642214	0.047923
C219	C	1.455726	-0.308881	0.381256
C220	C	0.755628	-0.948297	-0.251939
C221	C	1.088962	-0.614964	0.081394
C222	C	1.422295	-0.281631	0.414728
C223	C	0.788922	-0.527808	-0.285326
C224	C	1.122256	-0.194474	0.048008
C225	C	1.455589	0.138859	0.381341
C226	C	0.788906	-0.473202	-0.285310
C227	C	1.122239	-0.139869	0.048024
C228	C	1.455573	0.193464	0.381357
C229	C	0.722067	-0.473309	-0.218372
C230	C	1.055401	-0.139975	0.114961
C231	C	1.388734	0.193358	0.448295
C232	C	0.722085	-0.527909	-0.218386
C233	C	1.055419	-0.194576	0.114947
C234	C	1.388752	0.138758	0.448281
C235	C	0.755515	-0.555157	-0.251867
C236	C	1.088848	-0.221824	0.081466
C237	C	1.422181	0.111509	0.414800
O238	O	0.693720	-0.614335	-0.189951
O239	O	1.027054	-0.281001	0.143382
O240	O	1.360387	0.052332	0.476715
O241	O	0.817361	-0.614187	-0.313816
O242	O	1.150695	-0.280854	0.019517
O243	O	1.484028	0.052480	0.352851
C244	C	0.891911	-0.252024	-0.251896
C245	C	1.225244	0.081310	0.081438
C246	C	1.558578	0.414643	0.414771
C247	C	0.950025	-0.252036	-0.251903
C248	C	1.283358	0.081297	0.081430
C249	C	1.616692	0.414631	0.414764
C250	C	0.755572	-0.251971	-0.388251
C251	C	1.088905	0.081362	-0.054918
C252	C	1.422239	0.414696	0.278415
C253	C	0.755586	-0.251961	-0.446365
C254	C	1.088920	0.081372	-0.113032
C255	C	1.422253	0.414706	0.220301
C256	C	0.755626	-0.115622	-0.251931
C257	C	1.088960	0.217712	0.081403
C258	C	1.422293	0.551045	0.414736
C259	C	0.755664	-0.057508	-0.251953
C260	C	1.088997	0.275826	0.081380
C261	C	1.422331	0.609159	0.414713
C262	C	0.722182	-0.218451	-0.806743
C263	C	1.055516	0.114882	-0.473409
C264	C	1.388849	0.448215	-0.140076
C265	C	0.722185	-0.218442	-0.861347
C266	C	1.055519	0.114892	-0.528014
C267	C	1.388852	0.448225	-0.194680
O268	O	0.693758	-0.190008	-0.889596
O269	O	1.027091	0.143325	-0.556263
O270	O	1.360424	0.476658	-0.222929
N271	N	0.755604	-0.251879	-0.888648
N272	N	1.088937	0.081454	-0.555315
N273	N	1.422270	0.414788	-0.221981
C274	C	0.789018	-0.285331	-0.861342
C275	C	1.122351	0.048002	-0.528009
C276	C	1.455685	0.381335	-0.194675
O277	O	0.817443	-0.313772	-0.889577
O278	O	1.150776	0.019562	-0.556244
O279	O	1.484110	0.352895	-0.222911
C280	C	0.789012	-0.285343	-0.806739
C281	C	1.122345	0.047990	-0.473405
C282	C	1.455679	0.381324	-0.140072
C283	C	0.755595	-0.251900	-0.779440
C284	C	1.088928	0.081433	-0.446107
C285	C	1.422262	0.414767	-0.112774
C286	C	0.688768	-0.185011	-0.779445
C287	C	1.022101	0.148322	-0.446111
C288	C	1.355434	0.481655	-0.112778
C289	C	0.688766	-0.185020	-0.724844
C290	C	1.022099	0.148313	-0.391511
C291	C	1.355432	0.481646	-0.058177
C292	C	0.722178	-0.218469	-0.697542
C293	C	1.055512	0.114864	-0.364208
C294	C	1.388845	0.448198	-0.030875
C295	C	0.755593	-0.251909	-0.724840
C296	C	1.088926	0.081424	-0.391506
C297	C	1.422260	0.414758	-0.058173
C298	C	0.822423	-0.318798	-0.779433
C299	C	1.155756	0.014535	-0.446100
C300	C	1.489090	0.347869	-0.112767
C301	C	0.822414	-0.318807	-0.724826
C302	C	1.155747	0.014526	-0.391493
C303	C	1.489081	0.347860	-0.058160
C304	C	0.788997	-0.285364	-0.697528
C305	C	1.122331	0.047969	-0.364195
C306	C	1.455664	0.381303	-0.030861
C307	C	0.789004	-0.285367	-0.642937
C308	C	1.122337	0.047967	-0.309604
C309	C	1.455670	0.381300	0.023730
N310	N	0.755585	-0.251930	-0.615636
N311	N	1.088919	0.081404	-0.282303
N312	N	1.422252	0.414737	0.051031
C313	C	0.722173	-0.218481	-0.642938
C314	C	1.055506	0.114853	-0.309605
C315	C	1.388839	0.448186	0.023728
C316	C	0.789027	-0.285305	-0.976013
C317	C	1.122360	0.048028	-0.642679
C318	C	1.455694	0.381362	-0.309346
C319	C	0.789036	-0.285291	-1.030615
C320	C	1.122369	0.048042	-0.697282
C321	C	1.455703	0.381376	-0.363948
C322	C	0.722202	-0.218402	-1.030616
C323	C	1.055536	0.114932	-0.697283
C324	C	1.388869	0.448265	-0.363950
C325	C	0.722197	-0.218414	-0.976013
C326	C	1.055530	0.114920	-0.642680
C327	C	1.388863	0.448253	-0.309346
C328	C	0.755608	-0.251868	-0.948712
C329	C	1.088942	0.081466	-0.615378
C330	C	1.422275	0.414799	-0.282045
C331	C	0.722171	-0.218502	-0.528273
C332	C	1.055505	0.114832	-0.194940
C333	C	1.388838	0.448165	0.138394
C334	C	0.722174	-0.218512	-0.473668
C335	C	1.055507	0.114821	-0.140334
C336	C	1.388840	0.448155	0.192999
C337	C	0.789005	-0.285403	-0.473671
C338	C	1.122338	0.047931	-0.140338
C339	C	1.455672	0.381264	0.192996
C340	C	0.789005	-0.285391	-0.528272
C341	C	1.122338	0.047943	-0.194938
C342	C	1.455671	0.381276	0.138395
C343	C	0.755584	-0.251938	-0.555571
C344	C	1.088917	0.081395	-0.222238
C345	C	1.422250	0.414728	0.111095
O346	O	0.817415	-0.313787	-0.614653
O347	O	1.150749	0.019546	-0.281320
O348	O	1.484082	0.352879	0.052013
O349	O	0.693748	-0.190050	-0.614696
O350	O	1.027081	0.143283	-0.281363
O351	O	1.360414	0.476617	0.051971
C352	C	0.755534	-0.251981	-0.116036
C353	C	1.088868	0.081352	0.217298
C354	C	1.422201	0.414686	0.550631
C355	C	0.755621	-0.251844	-0.057922
C356	C	1.088954	0.081490	0.275411
C357	C	1.422288	0.414823	0.608745
H358	H	-0.044853	-0.191448	-0.312685
H359	H	0.288480	0.141885	0.020649
H360	H	0.621813	0.475218	0.353982
H361	H	0.556558	-0.191386	-0.312649
H362	H	0.889892	0.141947	0.020684
H363	H	1.223225	0.475281	0.354018
H364	H	0.054115	-0.312604	-0.191112
H365	H	0.387449	0.020729	0.142222
H366	H	0.720782	0.354062	0.475555
Cl367	Cl	0.194090	-0.360790	-0.142789
Cl368	Cl	0.527423	-0.027457	0.190545
Cl369	Cl	0.860757	0.305877	0.523878
H370	H	0.694881	-0.550178	-0.191133
H371	H	1.028214	-0.216845	0.142200
H372	H	1.361548	0.116488	0.475534
H373	H	-0.044952	-0.312612	-0.191121
H374	H	0.288381	0.020721	0.142212
H375	H	0.621715	0.354054	0.475546
Cl376	Cl	0.680048	-0.439040	-0.176295
Cl377	Cl	1.013382	-0.105707	0.157039
Cl378	Cl	1.346715	0.227627	0.490372
H379	H	0.206349	-0.158035	-0.346181
H380	H	0.539682	0.175298	-0.012847
H381	H	0.873016	0.508631	0.320486
H382	H	0.816210	-0.312634	-0.451432
H383	H	1.149544	0.020699	-0.118098
H384	H	1.482877	0.354032	0.215235
Cl385	Cl	0.680239	-1.064628	-0.176401
Cl386	Cl	1.013572	-0.731294	0.156932
Cl387	Cl	1.346906	-0.397961	0.490266
Cl388	Cl	0.066298	-0.176650	-0.327528
Cl389	Cl	0.399631	0.156683	0.005805
Cl390	Cl	0.732964	0.490016	0.339139
H391	H	0.694998	-0.953465	-0.191213
H392	H	1.028331	-0.620132	0.142121
H393	H	1.361665	-0.286799	0.475454
H394	H	0.661491	-0.702331	-0.157715
H395	H	0.994824	-0.368997	0.175618
H396	H	1.328158	-0.035664	0.508951
Cl397	Cl	0.568532	-0.327329	-0.176235
Cl398	Cl	0.901865	0.006004	0.157099
Cl399	Cl	1.235198	0.339338	0.490432
H400	H	0.694962	-0.191276	-0.451444
H401	H	1.028295	0.142057	-0.118111
H402	H	1.361628	0.475390	0.215223
Cl403	Cl	0.680160	-0.176443	-0.562584
Cl404	Cl	1.013493	0.156891	-0.229251
Cl405	Cl	1.346826	0.490224	0.104082
H406	H	0.849626	-0.346047	-0.702600
H407	H	1.182959	-0.012713	-0.369267
H408	H	1.516293	0.320620	-0.035934
Cl409	Cl	0.445302	-0.327354	-0.176251
Cl410	Cl	0.778635	0.005980	0.157082
Cl411	Cl	1.111969	0.339313	0.490415
H412	H	0.816241	-0.312544	-0.953787
H413	H	1.149575	0.020789	-0.620454
H414	H	1.482908	0.354122	-0.287120
Cl415	Cl	0.646750	-0.142979	-0.690534
Cl416	Cl	0.980083	0.190355	-0.357201
Cl417	Cl	1.313417	0.523688	-0.023868
Cl418	Cl	0.831024	-0.327425	-0.562590
Cl419	Cl	1.164357	0.005908	-0.229257
Cl420	Cl	1.497691	0.339242	0.104076
H421	H	0.661522	-0.801381	-0.157726
H422	H	0.994856	-0.468047	0.175607
H423	H	1.328189	-0.134714	0.508940
Cl424	Cl	0.317495	-0.143234	-0.361014
Cl425	Cl	0.650828	0.190100	-0.027680
Cl426	Cl	0.984161	0.523433	0.305653
Cl427	Cl	0.830916	-0.438824	-0.327381
Cl428	Cl	1.164250	-0.105490	0.005953
Cl429	Cl	1.497583	0.227843	0.339286
H430	H	0.457493	-0.191393	-0.312659
H431	H	0.790826	0.141941	0.020674
H432	H	1.124160	0.475274	0.354008
Cl433	Cl	0.646751	-0.142962	-0.813758
Cl434	Cl	0.980084	0.190372	-0.480424
Cl435	Cl	1.313418	0.523705	-0.147091
Cl436	Cl	0.830950	-0.562054	-0.327415
Cl437	Cl	1.164283	-0.228721	0.005918
Cl438	Cl	1.497617	0.104612	0.339252
Cl439	Cl	0.680184	-0.176371	-0.941701
Cl440	Cl	1.013517	0.156963	-0.608368
Cl441	Cl	1.346851	0.490296	-0.275034
H442	H	0.694996	-0.191166	-1.052856
H443	H	1.028329	0.142167	-0.719522
H444	H	1.361662	0.475501	-0.386189
H445	H	0.305243	-0.345984	-0.157609
H446	H	0.638576	-0.012650	0.175724
H447	H	0.971909	0.320683	0.509057
H448	H	0.816253	-0.312518	-1.052836
H449	H	1.149587	0.020816	-0.719503
H450	H	1.482920	0.354149	-0.386170
Cl451	Cl	0.864404	-0.689953	-0.360908
Cl452	Cl	1.197737	-0.356620	-0.027575
Cl453	Cl	1.531070	-0.023286	0.305759
H454	H	0.849634	-0.346031	-0.801650
H455	H	1.182968	-0.012698	-0.468317
H456	H	1.516301	0.320635	-0.134983
H457	H	0.849633	-0.801110	-0.346105
H458	H	1.182967	-0.467776	-0.012771
H459	H	1.516300	-0.134443	0.320562
Cl460	Cl	0.831066	-0.941171	-0.327482
Cl461	Cl	1.164399	-0.607838	0.005852
Cl462	Cl	1.497733	-0.274504	0.339185
H463	H	0.816293	-1.052348	-0.312674
H464	H	1.149627	-0.719015	0.020659
H465	H	1.482960	-0.385682	0.353992
