data_functionalizedCrystal
_audit_creation_method	'MofGen! by Chris Wilmer'
_symmetry_space_group_name_H-M	'P1'
_symmetry_Int_Tables_number	1
_symmetry_cell_setting	triclinic
loop_
_symmetry_equiv_pos_as_xyz
  x,y,z
_cell_length_a	25.639242
_cell_length_b	18.101395
_cell_length_c	18.101389
_cell_angle_alpha	89.980315
_cell_angle_beta	89.972230
_cell_angle_gamma	90.027478
loop_
_atom_site_label
_atom_site_type_symbol
_atom_site_fract_x
_atom_site_fract_y
_atom_site_fract_z
Zn1	Zn	0.799278	-0.294996	-0.418900
Zn2	Zn	1.132612	0.038338	-0.085567
Zn3	Zn	1.465945	0.371671	0.247766
Zn4	Zn	0.799204	-0.418821	-0.295056
Zn5	Zn	1.132537	-0.085488	0.038277
Zn6	Zn	1.465870	0.247845	0.371611
Zn7	Zn	0.711846	-0.294988	-0.295054
Zn8	Zn	1.045180	0.038345	0.038279
Zn9	Zn	1.378513	0.371678	0.371613
Zn10	Zn	0.711810	-0.418790	-0.418837
Zn11	Zn	1.045143	-0.085457	-0.085504
Zn12	Zn	1.378477	0.247877	0.247830
O13	O	0.755535	-0.356899	-0.356962
O14	O	1.088868	-0.023566	-0.023628
O15	O	1.422201	0.309768	0.309705
O16	O	0.872434	-0.311437	-0.402499
O17	O	1.205767	0.021896	-0.069166
O18	O	1.539100	0.355229	0.264167
O19	O	0.787599	-0.402405	-0.191423
O20	O	1.120933	-0.069071	0.141911
O21	O	1.454266	0.264262	0.475244
O22	O	0.723491	-0.191357	-0.311508
O23	O	1.056824	0.141977	0.021825
O24	O	1.390157	0.475310	0.355159
O25	O	0.872379	-0.402412	-0.311511
O26	O	1.205712	-0.069078	0.021822
O27	O	1.539045	0.264255	0.355155
O28	O	0.787727	-0.191362	-0.402497
O29	O	1.121060	0.141972	-0.069164
O30	O	1.454393	0.475305	0.264169
O31	O	0.723418	-0.311425	-0.191421
O32	O	1.056751	0.021908	0.141912
O33	O	1.390085	0.355241	0.475245
O34	O	0.638676	-0.311395	-0.311447
O35	O	0.972010	0.021938	0.021887
O36	O	1.305343	0.355272	0.355220
O37	O	0.723429	-0.402359	-0.522478
O38	O	1.056763	-0.069025	-0.189145
O39	O	1.390096	0.264308	0.144188
O40	O	0.638650	-0.402352	-0.402390
O41	O	0.971983	-0.069018	-0.069056
O42	O	1.305316	0.264315	0.264277
O43	O	0.787692	-0.311407	-0.522525
O44	O	1.121025	0.021926	-0.189191
O45	O	1.454358	0.355259	0.144142
O46	O	0.787564	-0.522450	-0.311450
O47	O	1.120898	-0.189117	0.021883
O48	O	1.454231	0.144217	0.355216
O49	O	0.723357	-0.522427	-0.402392
O50	O	1.056690	-0.189094	-0.069058
O51	O	1.390023	0.144239	0.264275
C52	C	0.755463	-0.549309	-0.356930
C53	C	1.088796	-0.215976	-0.023597
C54	C	1.422129	0.117357	0.309736
C55	C	0.755480	-0.631624	-0.356942
C56	C	1.088813	-0.298290	-0.023608
C57	C	1.422146	0.035043	0.309725
C58	C	0.619692	-0.356870	-0.356912
C59	C	0.953025	-0.023536	-0.023578
C60	C	1.286359	0.309797	0.309755
C61	C	0.561578	-0.356875	-0.356908
C62	C	0.894911	-0.023542	-0.023574
C63	C	1.228245	0.309792	0.309759
C64	C	0.755540	-0.782332	-0.356971
C65	C	1.088873	-0.448999	-0.023638
C66	C	1.422206	-0.115665	0.309695
C67	C	0.715121	-0.813702	-0.414145
C68	C	1.048455	-0.480369	-0.080812
C69	C	1.381788	-0.147036	0.252522
C70	C	0.715274	-0.899320	-0.414386
C71	C	1.048607	-0.565987	-0.081053
C72	C	1.381941	-0.232654	0.252280
C73	C	0.755598	-0.930714	-0.357000
C74	C	1.088931	-0.597381	-0.023667
C75	C	1.422265	-0.264048	0.309666
C76	C	0.810719	-0.899541	-0.378008
C77	C	1.144053	-0.566208	-0.044675
C78	C	1.477386	-0.232875	0.288659
C79	C	0.810452	-0.813896	-0.378406
C80	C	1.143785	-0.480563	-0.045073
C81	C	1.477118	-0.147230	0.288260
C82	C	0.741331	-0.813954	-0.278653
C83	C	1.074665	-0.480621	0.054681
C84	C	1.407998	-0.147287	0.388014
C85	C	0.740149	-0.899606	-0.279086
C86	C	1.073483	-0.566273	0.054247
C87	C	1.406816	-0.232939	0.387580
C88	C	0.755634	-1.014574	-0.357015
C89	C	1.088968	-0.681241	-0.023682
C90	C	1.422301	-0.347907	0.309651
C91	C	0.755507	-0.698473	-0.356958
C92	C	1.088840	-0.365139	-0.023625
C93	C	1.422174	-0.031806	0.309709
C94	C	0.201210	-0.404339	-0.404271
C95	C	0.534543	-0.071006	-0.070938
C96	C	0.867877	0.262328	0.262396
C97	C	0.146606	-0.404344	-0.404283
C98	C	0.479939	-0.071010	-0.070949
C99	C	0.813272	0.262323	0.262384
O100	O	0.118365	-0.444663	-0.444510
O101	O	0.451698	-0.111330	-0.111177
O102	O	0.785031	0.222004	0.222157
N103	N	0.119296	-0.356919	-0.357010
N104	N	0.452629	-0.023586	-0.023677
N105	N	0.785962	0.309747	0.309657
C106	C	0.146593	-0.309482	-0.309728
C107	C	0.479926	0.023851	0.023605
C108	C	0.813259	0.357185	0.356939
O109	O	0.118349	-0.269144	-0.269521
O110	O	0.451682	0.064190	0.063813
O111	O	0.785016	0.397523	0.397146
C112	C	0.201196	-0.309474	-0.309721
C113	C	0.534529	0.023859	0.023613
C114	C	0.867862	0.357192	0.356946
C115	C	0.228503	-0.356907	-0.356991
C116	C	0.561837	-0.023574	-0.023658
C117	C	0.895170	0.309760	0.309676
C118	C	0.228517	-0.451767	-0.451538
C119	C	0.561851	-0.118434	-0.118205
C120	C	0.895184	0.214899	0.215129
C121	C	0.283118	-0.451764	-0.451525
C122	C	0.616451	-0.118430	-0.118192
C123	C	0.949785	0.214903	0.215142
C124	C	0.310411	-0.404332	-0.404245
C125	C	0.643744	-0.070998	-0.070912
C126	C	0.977078	0.262335	0.262421
C127	C	0.283104	-0.356903	-0.356978
C128	C	0.616437	-0.023570	-0.023645
C129	C	0.949770	0.309763	0.309688
C130	C	0.228492	-0.262034	-0.262443
C131	C	0.561825	0.071300	0.070890
C132	C	0.895158	0.404633	0.404224
C133	C	0.283099	-0.262030	-0.262440
C134	C	0.616432	0.071304	0.070893
C135	C	0.949765	0.404637	0.404226
C136	C	0.310406	-0.309463	-0.309710
C137	C	0.643740	0.023871	0.023623
C138	C	0.977073	0.357204	0.356956
C139	C	0.364997	-0.309467	-0.309685
C140	C	0.698331	0.023866	0.023648
C141	C	1.031664	0.357199	0.356981
N142	N	0.392308	-0.356892	-0.356958
N143	N	0.725641	-0.023559	-0.023625
N144	N	1.058974	0.309775	0.309709
C145	C	0.365014	-0.404324	-0.404238
C146	C	0.698348	-0.070991	-0.070904
C147	C	1.031681	0.262343	0.262429
C148	C	0.031922	-0.309501	-0.309748
C149	C	0.365255	0.023832	0.023585
C150	C	0.698589	0.357166	0.356918
C151	C	-0.022680	-0.309512	-0.309751
C152	C	0.310653	0.023822	0.023582
C153	C	0.643986	0.357155	0.356915
C154	C	-0.022663	-0.404373	-0.404307
C155	C	0.310670	-0.071039	-0.070974
C156	C	0.644003	0.262294	0.262360
C157	C	0.031940	-0.404365	-0.404300
C158	C	0.365273	-0.071032	-0.070966
C159	C	0.698607	0.262302	0.262367
C160	C	0.059232	-0.356925	-0.357021
C161	C	0.392565	-0.023592	-0.023687
C162	C	0.725899	0.309741	0.309646
C163	C	0.479680	-0.404313	-0.404207
C164	C	0.813013	-0.070980	-0.070873
C165	C	1.146346	0.262354	0.262460
C166	C	0.534285	-0.404307	-0.404188
C167	C	0.867618	-0.070974	-0.070854
C168	C	1.200952	0.262360	0.262479
C169	C	0.534263	-0.309444	-0.309635
C170	C	0.867596	0.023889	0.023698
C171	C	1.200930	0.357223	0.357032
C172	C	0.479663	-0.309452	-0.309651
C173	C	0.812996	0.023881	0.023682
C174	C	1.146329	0.357215	0.357015
C175	C	0.452372	-0.356889	-0.356943
C176	C	0.785705	-0.023556	-0.023610
C177	C	1.119039	0.309778	0.309724
O178	O	0.393273	-0.269167	-0.269481
O179	O	0.726606	0.064167	0.063853
O180	O	1.059940	0.397500	0.397186
O181	O	0.393265	-0.444648	-0.444445
O182	O	0.726598	-0.111315	-0.111112
O183	O	1.059931	0.222018	0.222221
C184	C	0.891908	-0.356929	-0.357013
C185	C	1.225241	-0.023595	-0.023679
C186	C	1.558574	0.309738	0.309654
C187	C	0.950022	-0.356941	-0.357034
C188	C	1.283355	-0.023608	-0.023701
C189	C	1.616688	0.309725	0.309632
C190	C	0.755565	-0.356880	-0.550124
C191	C	1.088898	-0.023547	-0.216790
C192	C	1.422232	0.309787	0.116543
C193	C	0.755578	-0.356872	-0.632438
C194	C	1.088911	-0.023539	-0.299105
C195	C	1.422244	0.309794	0.034229
C196	C	0.755621	-0.163737	-0.357009
C197	C	1.088954	0.169596	-0.023676
C198	C	1.422288	0.502930	0.309657
C199	C	0.755658	-0.081423	-0.357030
C200	C	1.088991	0.251910	-0.023696
C201	C	1.422325	0.585244	0.309637
C202	C	0.755608	-0.356733	-0.931529
C203	C	1.088942	-0.023400	-0.598196
C204	C	1.422275	0.309933	-0.264862
C205	C	0.715037	-0.413775	-0.900175
C206	C	1.048370	-0.080442	-0.566841
C207	C	1.381703	0.252891	-0.233508
C208	C	0.715146	-0.414040	-0.814556
C209	C	1.048480	-0.080707	-0.481223
C210	C	1.381813	0.252627	-0.147890
C211	C	0.755593	-0.356802	-0.783146
C212	C	1.088926	-0.023469	-0.449813
C213	C	1.422259	0.309864	-0.116480
C214	C	0.810679	-0.377992	-0.814256
C215	C	1.144012	-0.044659	-0.480923
C216	C	1.477345	0.288674	-0.147590
C217	C	0.810453	-0.378367	-0.899901
C218	C	1.143786	-0.045034	-0.566568
C219	C	1.477119	0.288300	-0.233235
C220	C	0.741573	-0.278374	-0.899954
C221	C	1.074906	0.054959	-0.566621
C222	C	1.408239	0.388292	-0.233287
C223	C	0.740347	-0.278827	-0.814303
C224	C	1.073680	0.054507	-0.480969
C225	C	1.407014	0.387840	-0.147636
C226	C	0.755587	-0.356840	-0.699287
C227	C	1.088921	-0.023507	-0.365954
C228	C	1.422254	0.309827	-0.032620
C229	C	0.755617	-0.356698	-1.015389
C230	C	1.088951	-0.023364	-0.682055
C231	C	1.422284	0.309969	-0.348722
C232	C	0.755535	-0.356864	-0.164551
C233	C	1.088868	-0.023531	0.168782
C234	C	1.422201	0.309803	0.502115
C235	C	0.755623	-0.356663	-0.082238
C236	C	1.088956	-0.023330	0.251096
C237	C	1.422290	0.310003	0.584429
H238	H	0.674405	-0.920402	-0.401254
H239	H	1.007739	-0.587069	-0.067921
H240	H	1.341072	-0.253735	0.265413
H241	H	0.674107	-0.793175	-0.401160
H242	H	1.007440	-0.459842	-0.067827
H243	H	1.340774	-0.126509	0.265506
N244	N	0.563706	-0.258288	-0.258641
N245	N	0.897039	0.075045	0.074693
N246	N	1.230373	0.408378	0.408026
H247	H	0.602440	-0.265485	-0.265812
H248	H	0.935773	0.067848	0.067521
H249	H	1.269106	0.401182	0.400854
H250	H	0.554184	-0.205416	-0.270268
H251	H	0.887517	0.127917	0.063065
H252	H	1.220850	0.461251	0.396398
N253	N	0.563734	-0.455473	-0.455174
N254	N	0.897067	-0.122139	-0.121840
N255	N	1.230401	0.211194	0.211493
H256	H	0.554258	-0.444048	-0.508109
H257	H	0.887592	-0.110715	-0.174776
H258	H	1.220925	0.222619	0.158557
H259	H	0.602458	-0.448256	-0.447932
H260	H	0.935791	-0.114923	-0.114598
H261	H	1.269125	0.218410	0.218735
H262	H	0.771123	-0.235875	-0.920233
H263	H	1.104456	0.097458	-0.586900
H264	H	1.437790	0.430792	-0.253567
H265	H	0.701805	-0.792415	-0.259488
H266	H	1.035139	-0.459082	0.073845
H267	H	1.368472	-0.125748	0.407178
H268	H	0.206267	-0.223411	-0.223949
H269	H	0.539601	0.109922	0.109385
H270	H	0.872934	0.443256	0.442718
H271	H	0.305347	-0.490387	-0.490019
H272	H	0.638680	-0.157054	-0.156686
H273	H	0.972013	0.176280	0.176648
N274	N	0.061350	-0.258336	-0.258739
N275	N	0.394684	0.074997	0.074595
N276	N	0.728017	0.408331	0.407928
H277	H	0.083982	-0.288376	-0.224359
H278	H	0.417315	0.044957	0.108974
H279	H	0.750649	0.378291	0.442308
H280	H	0.083997	-0.224060	-0.288937
H281	H	0.417330	0.109273	0.044396
H282	H	0.750663	0.442607	0.377729
H283	H	0.699584	-0.919990	-0.263240
H284	H	1.032917	-0.586657	0.070093
H285	H	1.366250	-0.253324	0.403426
H286	H	0.841602	-0.793138	-0.338565
H287	H	1.174935	-0.459805	-0.005232
H288	H	1.508269	-0.126472	0.328101
H289	H	0.822351	-0.435648	-0.919884
H290	H	1.155685	-0.102315	-0.586551
H291	H	1.489018	0.231018	-0.253218
H292	H	0.724423	-0.792144	-0.471847
H293	H	1.057757	-0.458810	-0.138513
H294	H	1.391090	-0.125477	0.194820
N295	N	0.851859	-0.325739	-0.927384
N296	N	1.185192	0.007594	-0.594051
N297	N	1.518525	0.340927	-0.260717
H298	H	0.852035	-0.325574	-0.983180
H299	H	1.185369	0.007759	-0.649847
H300	H	1.518702	0.341093	-0.316513
H301	H	0.844140	-0.274335	-0.908673
H302	H	1.177474	0.058998	-0.575340
H303	H	1.510807	0.392332	-0.242007
H304	H	0.841719	-0.337751	-0.793914
H305	H	1.175052	-0.004418	-0.460581
H306	H	1.508386	0.328915	-0.127247
H307	H	0.724724	-0.919769	-0.472420
H308	H	1.058057	-0.586436	-0.139086
H309	H	1.391390	-0.253103	0.194247
N310	N	0.826381	-0.787371	-0.454232
N311	N	1.159714	-0.454038	-0.120898
N312	N	1.493047	-0.120704	0.212435
H313	H	0.833509	-0.831313	-0.487084
H314	H	1.166842	-0.497980	-0.153751
H315	H	1.500176	-0.164647	0.179583
H316	H	0.797332	-0.756775	-0.476194
H317	H	1.130665	-0.423441	-0.142861
H318	H	1.463999	-0.090108	0.190473
H319	H	0.457428	-0.270830	-0.271158
H320	H	0.790761	0.062503	0.062175
H321	H	1.124094	0.395837	0.395508
N322	N	0.661045	-0.396443	-0.786684
N323	N	0.994378	-0.063110	-0.453351
N324	N	1.327712	0.270224	-0.120018
H325	H	0.636910	-0.388448	-0.830034
H326	H	0.970243	-0.055114	-0.496701
H327	H	1.303576	0.278219	-0.163367
H328	H	0.647793	-0.438944	-0.755755
H329	H	0.981126	-0.105611	-0.422422
H330	H	1.314459	0.227723	-0.089089
N331	N	0.851725	-0.926461	-0.324558
N332	N	1.185058	-0.593128	0.008775
N333	N	1.518392	-0.259795	0.342108
H334	H	0.834925	-0.959203	-0.286121
H335	H	1.168258	-0.625870	0.047213
H336	H	1.501591	-0.292537	0.380546
H337	H	0.879088	-0.955444	-0.352313
H338	H	1.212421	-0.622111	-0.018979
H339	H	1.545754	-0.288778	0.314354
N340	N	0.826718	-0.453060	-0.785857
N341	N	1.160051	-0.119727	-0.452524
N342	N	1.493385	0.213606	-0.119191
H343	H	0.798386	-0.473449	-0.752848
H344	H	1.131719	-0.140116	-0.419514
H345	H	1.465052	0.193218	-0.086181
H346	H	0.832350	-0.487570	-0.828956
H347	H	1.165683	-0.154237	-0.495623
H348	H	1.499017	0.179096	-0.162289
H349	H	0.305317	-0.223393	-0.223944
H350	H	0.638651	0.109940	0.109390
H351	H	0.971984	0.443273	0.442723
H352	H	0.457466	-0.442939	-0.442718
H353	H	0.790799	-0.109606	-0.109385
H354	H	1.124133	0.223728	0.223949
H355	H	0.822971	-0.920948	-0.434633
H356	H	1.156304	-0.587614	-0.101300
H357	H	1.489637	-0.254281	0.232034
H358	H	0.767442	-0.920986	-0.234229
H359	H	1.100776	-0.587652	0.099105
H360	H	1.434109	-0.254319	0.432438
N361	N	0.689290	-0.252798	-0.928538
N362	N	1.022623	0.080536	-0.595204
N363	N	1.355957	0.413869	-0.261871
H364	H	0.674172	-0.291752	-0.962250
H365	H	1.007506	0.041582	-0.628917
H366	H	1.340839	0.374915	-0.295584
H367	H	0.664875	-0.244336	-0.885567
H368	H	0.998209	0.088997	-0.552234
H369	H	1.331542	0.422331	-0.218901
N370	N	0.780323	-0.787082	-0.222225
N371	N	1.113656	-0.453749	0.111108
N372	N	1.446989	-0.120415	0.444441
H373	H	0.807063	-0.754584	-0.247230
H374	H	1.140396	-0.421251	0.086103
H375	H	1.473730	-0.087917	0.419437
H376	H	0.761619	-0.757854	-0.182774
H377	H	1.094953	-0.424521	0.150559
H378	H	1.428286	-0.091187	0.483892
H379	H	0.206301	-0.490393	-0.490043
H380	H	0.539634	-0.157059	-0.156710
H381	H	0.872968	0.176274	0.176624
H382	H	0.674065	-0.400650	-0.920757
H383	H	1.007399	-0.067317	-0.587424
H384	H	1.340732	0.266016	-0.254091
N385	N	0.061391	-0.455524	-0.455282
N386	N	0.394724	-0.122191	-0.121949
N387	N	0.728058	0.211143	0.211384
H388	H	0.035810	-0.485572	-0.485231
H389	H	0.369144	-0.152239	-0.151897
H390	H	0.702477	0.181094	0.181436
H391	H	0.084067	-0.425429	-0.489609
H392	H	0.417401	-0.092096	-0.156276
H393	H	0.750734	0.241238	0.177057
N394	N	-0.052106	-0.455534	-0.455304
N395	N	0.281227	-0.122200	-0.121970
N396	N	0.614560	0.211133	0.211363
H397	H	-0.090840	-0.448335	-0.448134
H398	H	0.242493	-0.115002	-0.114800
H399	H	0.575827	0.218331	0.218533
H400	H	-0.042538	-0.444082	-0.508214
H401	H	0.290795	-0.110749	-0.174881
H402	H	0.624129	0.222584	0.158453
H403	H	-0.044910	-0.270895	-0.271252
H404	H	0.288424	0.062439	0.062082
H405	H	0.621757	0.395772	0.395415
H406	H	0.724211	-0.471503	-0.921700
H407	H	1.057544	-0.138170	-0.588366
H408	H	1.390878	0.195164	-0.255033
N409	N	0.727426	-0.490979	-0.787436
N410	N	1.060759	-0.157646	-0.454102
N411	N	1.394092	0.175687	-0.120769
H412	H	0.762848	-0.506455	-0.806315
H413	H	1.096181	-0.173122	-0.472982
H414	H	1.429514	0.160211	-0.139649
H415	H	0.727514	-0.491436	-0.731643
H416	H	1.060848	-0.158103	-0.398310
H417	H	1.394181	0.175231	-0.064976
N418	N	0.686651	-0.257650	-0.787367
N419	N	1.019985	0.075683	-0.454034
N420	N	1.353318	0.409016	-0.120700
H421	H	0.672257	-0.298391	-0.755116
H422	H	1.005591	0.034943	-0.421782
H423	H	1.338924	0.368276	-0.088449
H424	H	0.688948	-0.210414	-0.757866
H425	H	1.022281	0.122919	-0.424533
H426	H	1.355615	0.456252	-0.091200
H427	H	0.767741	-0.234071	-0.792922
H428	H	1.101075	0.099263	-0.459589
H429	H	1.434408	0.432596	-0.126255
