data_functionalizedCrystal
_audit_creation_method	'MofGen! by Chris Wilmer'
_symmetry_space_group_name_H-M	'P1'
_symmetry_Int_Tables_number	1
_symmetry_cell_setting	triclinic
loop_
_symmetry_equiv_pos_as_xyz
  x,y,z
_cell_length_a	14.908571
_cell_length_b	18.101397
_cell_length_c	14.908308
_cell_angle_alpha	93.262730
_cell_angle_beta	90.175053
_cell_angle_gamma	86.716412
loop_
_atom_site_label
_atom_site_type_symbol
_atom_site_fract_x
_atom_site_fract_y
_atom_site_fract_z
Zn1	Zn	1.345297	-0.386471	-0.587546
Zn2	Zn	1.353878	-0.503607	-0.437175
Zn3	Zn	1.203612	-0.372247	-0.428545
Zn4	Zn	1.194906	-0.502728	-0.578827
O5	O	1.274423	-0.441263	-0.508023
O6	O	1.472262	-0.408331	-0.574859
O7	O	1.341180	-0.480597	-0.310206
O8	O	1.222460	-0.270505	-0.449674
O9	O	1.478566	-0.494390	-0.464383
O10	O	1.326555	-0.280955	-0.566491
O11	O	1.230780	-0.384087	-0.303865
O12	O	1.076631	-0.383234	-0.441219
O13	O	1.207621	-0.492891	-0.705807
O14	O	1.070235	-0.479098	-0.551631
O15	O	1.318113	-0.407477	-0.712213
O16	O	1.332737	-0.607119	-0.455928
O17	O	1.215941	-0.606473	-0.559999
C18	C	1.040808	-0.429528	-0.494543
C19	C	0.940865	-0.424526	-0.488797
C20	C	1.274349	-0.633668	-0.507975
C21	C	1.274398	-0.715985	-0.507989
C22	C	0.746458	-0.515090	-0.592818
C23	C	0.652552	-0.510393	-0.587423
C24	C	0.659146	-0.410431	-0.472617
C25	C	0.753052	-0.415128	-0.478012
C26	C	0.796704	-0.467460	-0.538114
C27	C	0.890612	-0.472160	-0.543504
C28	C	0.897204	-0.372196	-0.428703
C29	C	0.803298	-0.367499	-0.423308
C30	C	1.274508	-1.015085	-0.508078
C31	C	1.347810	-0.984118	-0.442402
C32	C	1.348039	-0.898520	-0.442596
C33	C	1.274453	-0.866698	-0.508033
C34	C	1.294669	-0.903220	-0.604287
C35	C	1.295227	-0.988875	-0.603939
C36	C	1.180758	-0.977738	-0.478309
C37	C	1.181350	-0.892017	-0.476221
C38	C	1.274421	-0.782836	-0.508014
C39	C	1.274542	-1.098948	-0.508104
C40	C	1.508951	-0.453045	-0.521556
C41	C	1.608893	-0.458066	-0.527323
C42	C	1.260938	-0.451673	-0.742547
C43	C	1.255192	-0.456108	-0.842488
C44	C	1.274521	-0.248109	-0.508092
C45	C	1.274563	-0.165798	-0.508122
C46	C	1.359446	-0.375486	-1.036958
C47	C	1.354049	-0.379651	-1.130861
C48	C	1.238998	-0.468600	-1.124198
C49	C	1.244395	-0.464435	-1.030295
C50	C	1.304622	-0.417877	-0.986678
C51	C	1.310022	-0.413716	-0.892774
C52	C	1.194967	-0.502661	-0.886113
C53	C	1.189570	-0.506826	-0.980016
C54	C	1.287908	-0.430843	-0.274414
C55	C	1.293829	-0.426208	-0.174484
H56	H	0.926152	-0.514773	-0.592440
H57	H	1.336026	-0.873618	-0.371397
H58	H	1.189964	-0.506505	-1.159727
C59	C	1.123330	-0.558038	-1.027999
H60	H	1.127971	-0.554452	-1.091126
H61	H	1.063804	-0.543491	-1.009128
H62	H	1.137363	-0.607775	-1.013354
C63	C	1.441271	-1.018816	-0.469318
H64	H	1.435813	-1.052091	-0.520408
H65	H	1.466262	-1.044975	-0.420845
H66	H	1.479392	-0.980783	-0.483326
H67	H	1.417595	-0.882229	-0.462726
C68	C	1.376261	-0.362499	-0.844796
H69	H	1.408131	-0.337843	-0.888193
H70	H	1.417536	-0.391162	-0.810412
H71	H	1.343973	-0.326881	-0.806194
C72	C	1.225847	-1.016843	-0.672705
H73	H	1.197451	-0.975854	-0.700734
H74	H	1.181976	-1.042557	-0.642880
H75	H	1.255326	-1.049361	-0.716940
C76	C	1.387583	-1.021741	-0.637132
H77	H	1.424409	-0.982721	-0.650697
H78	H	1.379967	-1.053062	-0.689592
H79	H	1.415359	-1.049703	-0.591568
C80	C	1.224419	-0.875637	-0.672490
H81	H	1.237905	-0.898420	-0.730227
H82	H	1.225630	-0.823368	-0.674798
H83	H	1.166371	-0.888126	-0.654524
H84	H	1.161309	-0.995197	-0.409052
H85	H	1.408490	-0.337580	-1.001445
H86	H	1.398691	-0.345130	-1.171795
H87	H	0.938125	-0.333414	-0.384157
H88	H	1.336002	-1.000822	-0.371003
C89	C	1.134657	-0.549292	-0.830803
H90	H	1.146491	-0.540142	-0.768631
H91	H	1.146908	-0.600391	-0.846939
H92	H	1.073359	-0.536099	-0.842709
H93	H	1.362235	-0.886096	-0.629170
C94	C	1.160600	-0.859120	-0.380505
H95	H	1.104195	-0.874633	-0.361642
H96	H	1.158571	-0.806558	-0.380187
H97	H	1.206228	-0.875878	-0.340634
C98	C	0.794478	-0.572653	-0.658922
H99	H	0.751103	-0.600346	-0.690732
H100	H	0.833079	-0.605176	-0.626559
H101	H	0.828868	-0.547943	-0.700270
H102	H	1.124239	-0.870000	-0.520113
H103	H	0.623588	-0.367821	-0.423691
H104	H	0.611645	-0.549176	-0.631970
C105	C	0.755276	-0.309943	-0.357197
H106	H	0.692153	-0.313970	-0.361813
H107	H	0.769917	-0.261558	-0.371339
H108	H	0.774124	-0.318804	-0.297642
H109	H	1.126209	-0.997676	-0.526077
