data_functionalizedCrystal
_audit_creation_method	'MofGen! by Chris Wilmer'
_symmetry_space_group_name_H-M	'P1'
_symmetry_Int_Tables_number	1
_symmetry_cell_setting	triclinic
loop_
_symmetry_equiv_pos_as_xyz
  x,y,z
_cell_length_a	14.908571
_cell_length_b	15.297327
_cell_length_c	14.908308
_cell_angle_alpha	102.308214
_cell_angle_beta	90.175053
_cell_angle_gamma	96.991395
loop_
_atom_site_label
_atom_site_type_symbol
_atom_site_fract_x
_atom_site_fract_y
_atom_site_fract_z
Zn1	Zn	1.259455	-0.470251	-0.663960
Zn2	Zn	1.759455	0.029749	-0.163960
Zn3	Zn	1.242018	-0.612780	-0.536750
Zn4	Zn	1.742018	-0.112780	-0.036750
Zn5	Zn	1.120930	-0.452943	-0.502147
Zn6	Zn	1.620930	0.047057	-0.002147
Zn7	Zn	1.083241	-0.611710	-0.678228
Zn8	Zn	1.583241	-0.111710	-0.178228
O9	O	1.176411	-0.536921	-0.595271
O10	O	1.676411	-0.036921	-0.095271
O11	O	1.381564	-0.496849	-0.655596
O12	O	1.881564	0.003151	-0.155596
O13	O	1.234431	-0.584782	-0.405232
O14	O	1.734431	-0.084782	0.094768
O15	O	1.162376	-0.329146	-0.503159
O16	O	1.662376	0.170854	-0.003159
O17	O	1.368753	-0.601565	-0.562136
O18	O	1.868753	-0.101565	-0.062136
O19	O	1.264150	-0.341862	-0.622043
O20	O	1.764150	0.158138	-0.122043
O21	O	1.145468	-0.467350	-0.379809
O22	O	1.645468	0.032650	0.120191
O23	O	0.991508	-0.466312	-0.516994
O24	O	1.491508	0.033688	-0.016994
O25	O	1.098141	-0.599740	-0.803264
O26	O	1.598141	-0.099740	-0.303264
O27	O	0.963819	-0.582958	-0.646360
O28	O	1.463819	-0.082958	-0.146360
O29	O	1.227605	-0.495811	-0.792781
O30	O	1.727605	0.004189	-0.292781
O31	O	1.197885	-0.738732	-0.575970
O32	O	1.697885	-0.238732	-0.075970
O33	O	1.081233	-0.737945	-0.679913
O34	O	1.581233	-0.237945	-0.179913
C35	C	0.945402	-0.522641	-0.579471
C36	C	1.445402	-0.022641	-0.079471
C37	C	0.846570	-0.516555	-0.572737
C38	C	1.346570	-0.016555	-0.072737
C39	C	0.632047	-0.626752	-0.694664
C40	C	1.132047	-0.126752	-0.194664
C41	C	0.539185	-0.621037	-0.688340
C42	C	1.039185	-0.121037	-0.188340
C43	C	0.567982	-0.499405	-0.553769
C44	C	1.067982	0.000595	-0.053769
C45	C	0.660844	-0.505121	-0.560093
C46	C	1.160844	-0.005121	-0.060093
C47	C	0.692873	-0.568797	-0.630542
C48	C	1.192873	-0.068797	-0.130542
C49	C	0.785736	-0.574516	-0.636861
C50	C	1.285736	-0.074516	-0.136861
C51	C	0.814532	-0.452881	-0.502295
C52	C	1.314532	0.047119	-0.002295
C53	C	0.721670	-0.447166	-0.495971
C54	C	1.221670	0.052834	0.004029
C55	C	1.133600	-0.771036	-0.633267
C56	C	1.633600	-0.271036	-0.133267
C57	C	1.115365	-0.871198	-0.649557
C58	C	1.615365	-0.371198	-0.149557
C59	C	1.307088	-1.155071	-0.479176
C60	C	1.807088	-0.655071	0.020824
C61	C	1.324221	-1.060963	-0.463866
C62	C	1.824221	-0.560963	0.036134
C63	C	1.272009	-1.013517	-0.510288
C64	C	1.772009	-0.513517	-0.010288
C65	C	1.202660	-1.060188	-0.572022
C66	C	1.702660	-0.560188	-0.072022
C67	C	1.185521	-1.154304	-0.587328
C68	C	1.685521	-0.654304	-0.087328
C69	C	1.150441	-1.012750	-0.618439
C70	C	1.650441	-0.512750	-0.118439
C71	C	1.081092	-1.059421	-0.680173
C72	C	1.581092	-0.559421	-0.180173
C73	C	1.063957	-1.153528	-0.695477
C74	C	1.563957	-0.653528	-0.195477
C75	C	1.116169	-1.200974	-0.649056
C76	C	1.616169	-0.700974	-0.149056
C77	C	1.167580	-0.918634	-0.603133
C78	C	1.667580	-0.418634	-0.103133
C79	C	1.046013	-0.917868	-0.711285
C80	C	1.546013	-0.417868	-0.211285
C81	C	1.028880	-1.011975	-0.726595
C82	C	1.528880	-0.511975	-0.226595
C83	C	1.408322	-0.551257	-0.611134
C84	C	1.908322	-0.051257	-0.111134
C85	C	1.507148	-0.557366	-0.617894
C86	C	2.007148	-0.057366	-0.117894
C87	C	1.160614	-0.549587	-0.831854
C88	C	1.660614	-0.049587	-0.331854
C89	C	1.153882	-0.554984	-0.932671
C90	C	1.653882	-0.054984	-0.432671
C91	C	1.219412	-0.301895	-0.557150
C92	C	1.719412	0.198105	-0.057150
C93	C	1.237736	-0.201741	-0.540904
C94	C	1.737736	0.298259	-0.040904
C95	C	1.276044	-0.456884	-1.111201
C96	C	1.776044	0.043116	-0.611201
C97	C	1.269722	-0.461953	-1.205927
C98	C	1.769722	0.038047	-0.705927
C99	C	1.134914	-0.570184	-1.216852
C100	C	1.634914	-0.070184	-0.716852
C101	C	1.141235	-0.565116	-1.122125
C102	C	1.641235	-0.065116	-0.622125
C103	C	1.211804	-0.508465	-1.069303
C104	C	1.711804	-0.008465	-0.569303
C105	C	1.218128	-0.503402	-0.974576
C106	C	1.718128	-0.003402	-0.474576
C107	C	1.083317	-0.611628	-0.985501
C108	C	1.583317	-0.111628	-0.485501
C109	C	1.076995	-0.616697	-1.080227
C110	C	1.576995	-0.116697	-0.580227
C111	C	1.192210	-0.524243	-0.359602
C112	C	1.692210	-0.024243	0.140398
C113	C	1.199160	-0.518602	-0.258756
C114	C	1.699160	-0.018602	0.241244
H115	H	0.489663	-0.668228	-0.740556
H116	H	0.989663	-0.168228	-0.240556
H117	H	0.541888	-0.447558	-0.496418
H118	H	1.041888	0.052442	0.003582
C119	C	0.987676	-1.204867	-0.763381
C120	C	1.487676	-0.704867	-0.263381
H121	H	0.984944	-1.267710	-0.765843
H122	H	1.484944	-0.767710	-0.265843
H123	H	0.999389	-1.193473	-0.822706
H124	H	1.499389	-0.693473	-0.322706
H125	H	0.931629	-1.185099	-0.743472
H126	H	1.431629	-0.685099	-0.243472
C127	C	1.057291	-0.632484	-1.274963
C128	C	1.557291	-0.132484	-0.774963
H129	H	1.062730	-0.628112	-1.337379
H130	H	1.562730	-0.128112	-0.837379
H131	H	1.001001	-0.614773	-1.253211
H132	H	1.501001	-0.114773	-0.753211
H133	H	1.060263	-0.693007	-1.270162
H134	H	1.560263	-0.193007	-0.770162
H135	H	1.019539	-0.662818	-1.123247
H136	H	1.519539	-0.162818	-0.623247
C137	C	0.820972	-0.644558	-0.714346
C138	C	1.320972	-0.144558	-0.214346
H139	H	0.884988	-0.639671	-0.708925
H140	H	1.384988	-0.139671	-0.208925
H141	H	0.804092	-0.633793	-0.772151
H142	H	1.304092	-0.133793	-0.272151
H143	H	0.795580	-0.703430	-0.709753
H144	H	1.295580	-0.203430	-0.209753
H145	H	1.275590	-0.457275	-0.931569
H146	H	1.775590	0.042725	-0.431569
H147	H	1.380683	-1.022967	-0.413602
H148	H	1.880683	-0.522967	0.086398
C149	C	1.243854	-0.867303	-0.535228
C150	C	1.743854	-0.367303	-0.035228
H151	H	1.246580	-0.804458	-0.532750
H152	H	1.746580	-0.304458	-0.032750
H153	H	1.299899	-0.887071	-0.555126
H154	H	1.799899	-0.387071	-0.055126
H155	H	1.232128	-0.878701	-0.475902
H156	H	1.732128	-0.378701	0.024098
C157	C	0.667282	-0.696794	-0.772149
C158	C	1.167282	-0.196794	-0.272149
H159	H	0.617755	-0.730490	-0.809435
H160	H	1.117755	-0.230490	-0.309435
H161	H	0.698658	-0.736368	-0.746217
H162	H	1.198658	-0.236368	-0.246217
H163	H	0.707160	-0.666727	-0.808612
H164	H	1.207160	-0.166727	-0.308612
C165	C	0.686432	-0.377133	-0.418480
C166	C	1.186432	0.122867	0.081520
H167	H	0.622414	-0.382032	-0.423892
H168	H	1.122414	0.117968	0.076108
H169	H	0.711820	-0.318259	-0.423055
H170	H	1.211820	0.181741	0.076945
H171	H	0.703312	-0.387915	-0.360678
H172	H	1.203312	0.112085	0.139322
H173	H	1.285962	-0.936891	-0.497817
H174	H	1.785962	-0.436891	0.002183
C175	C	0.952596	-1.063318	-0.794492
C176	C	1.452596	-0.563318	-0.294492
H177	H	0.949866	-1.126160	-0.796951
H178	H	1.449866	-0.626160	-0.296951
H179	H	0.964302	-1.051927	-0.853820
H180	H	1.464302	-0.551927	-0.353820
H181	H	0.896550	-1.043550	-0.774578
H182	H	1.396550	-0.543550	-0.274578
C183	C	1.340389	-0.405223	-1.252018
C184	C	1.840389	0.094777	-0.752018
H185	H	1.326517	-0.416350	-1.315998
H186	H	1.826517	0.083650	-0.815998
H187	H	1.398752	-0.421271	-1.242714
H188	H	1.898752	0.078729	-0.742714
H189	H	1.339484	-0.343041	-1.225783
H190	H	1.839484	0.156959	-0.725783
H191	H	0.864067	-0.405692	-0.450081
H192	H	1.364067	0.094308	0.049919
C193	C	1.097321	-1.304492	-0.665891
C194	C	1.597321	-0.804492	-0.165891
H195	H	1.138348	-1.326061	-0.629400
H196	H	1.638348	-0.826061	-0.129400
H197	H	1.104867	-1.329830	-0.728941
H198	H	1.604867	-0.829830	-0.228941
H199	H	1.037117	-1.321450	-0.649698
H200	H	1.537117	-0.821450	-0.149698
H201	H	1.003496	-0.879237	-0.749083
H202	H	1.503496	-0.379237	-0.249083
H203	H	1.333507	-0.410762	-1.068193
H204	H	1.833507	0.089238	-0.568193
C205	C	1.364514	-1.207261	-0.428124
C206	C	1.864514	-0.707261	0.071876
H207	H	1.344377	-1.269994	-0.446087
H208	H	1.844377	-0.769994	0.053913
H209	H	1.358426	-1.187811	-0.363780
H210	H	1.858426	-0.687811	0.136220
H211	H	1.426176	-1.196188	-0.443023
H212	H	1.926176	-0.696188	0.056977
H213	H	1.031010	-0.653632	-0.951379
H214	H	1.531010	-0.153632	-0.451379
