data_functionalizedCrystal
_audit_creation_method	'MofGen! by Chris Wilmer'
_symmetry_space_group_name_H-M	'P1'
_symmetry_Int_Tables_number	1
_symmetry_cell_setting	triclinic
loop_
_symmetry_equiv_pos_as_xyz
  x,y,z
_cell_length_a	21.395364
_cell_length_b	19.120786
_cell_length_c	21.395355
_cell_angle_alpha	92.459295
_cell_angle_beta	90.024552
_cell_angle_gamma	92.480057
loop_
_atom_site_label
_atom_site_type_symbol
_atom_site_fract_x
_atom_site_fract_y
_atom_site_fract_z
Zn1	Zn	0.947247	-0.279432	0.343622
Zn2	Zn	0.942690	-0.396873	0.234373
Zn3	Zn	0.842461	-0.279463	0.238857
Zn4	Zn	0.837971	-0.396885	0.339112
O5	O	0.892592	-0.338163	0.288991
O6	O	1.034321	-0.294993	0.329140
O7	O	0.929366	-0.381306	0.147289
O8	O	0.860148	-0.181168	0.256519
O9	O	1.030973	-0.381276	0.248875
O10	O	0.937134	-0.181146	0.333489
O11	O	0.855728	-0.295045	0.150584
O12	O	0.754187	-0.295057	0.252146
O13	O	0.852495	-0.381297	0.427389
O14	O	0.750888	-0.381327	0.325803
O15	O	0.932780	-0.295005	0.430702
O16	O	0.925012	-0.495165	0.244503
O17	O	0.848076	-0.495174	0.321454
C18	C	0.729803	-0.338197	0.288972
C19	C	0.660161	-0.338229	0.288978
C20	C	0.629211	-0.293375	0.330831
C21	C	0.563776	-0.293356	0.330835
C22	C	0.529294	-0.338204	0.288991
C23	C	0.560251	-0.383061	0.247130
C24	C	0.625685	-0.383074	0.247124
C25	C	0.423167	-0.401459	0.281545
C26	C	0.357734	-0.401447	0.281555
C27	C	0.327474	-0.338165	0.289006
C28	C	0.362655	-0.274893	0.296460
C29	C	0.428088	-0.274905	0.296454
C30	C	0.458341	-0.338195	0.288992
C31	C	0.225573	-0.293287	0.330865
C32	C	0.160137	-0.293268	0.330864
C33	C	0.156613	-0.382979	0.247162
C34	C	0.222048	-0.382992	0.247160
C35	C	0.256524	-0.338148	0.289015
C36	C	0.885579	-0.520655	0.282016
C37	C	0.882636	-0.598726	0.279053
C38	C	0.921306	-0.635331	0.317768
C39	C	0.918538	-0.708687	0.314985
C40	C	0.877103	-0.745436	0.273484
C41	C	0.838429	-0.708825	0.234768
C42	C	0.841194	-0.635471	0.237554
C43	C	0.866748	-0.966923	0.263067
C44	C	0.863987	-1.040282	0.260282
C45	C	0.944096	-1.040139	0.340501
C46	C	0.946860	-0.966783	0.343281
C47	C	0.908184	-0.930179	0.304567
C48	C	0.874275	-0.820417	0.270637
C49	C	0.911010	-0.855199	0.307417
C50	C	1.056017	-0.338129	0.289010
C51	C	1.125659	-0.338115	0.289019
C52	C	0.892645	-0.338149	0.452415
C53	C	0.892667	-0.338143	0.522057
C54	C	0.899650	-0.154959	0.296007
C55	C	0.902657	-0.076888	0.298997
C56	C	0.892578	-0.338127	0.126205
C57	C	0.892684	-0.337935	0.056571
C58	C	0.934470	-0.293209	0.556496
C59	C	0.934470	-0.293179	0.621932
C60	C	0.892674	-0.338095	0.652927
C61	C	0.850863	-0.383032	0.618479
C62	C	0.850860	-0.383056	0.553044
C63	C	0.885296	-0.401340	0.754184
C64	C	0.885304	-0.401318	0.819618
C65	C	0.892681	-0.338021	0.854750
C66	C	0.900063	-0.274745	0.824441
C67	C	0.900060	-0.274769	0.759006
C68	C	0.892673	-0.338074	0.723880
C69	C	0.934486	-0.293050	0.960144
C70	C	0.934482	-0.293019	1.025582
C71	C	0.850878	-0.382879	1.022127
C72	C	0.850879	-0.382904	0.956691
C73	C	0.892686	-0.337991	0.925703
H74	H	0.134939	-0.256738	0.364945
O75	O	0.908018	-0.206528	0.726312
H76	H	0.913146	-0.162506	0.761729
H77	H	0.980600	-0.936864	0.377074
H78	H	0.816841	-0.419444	1.047362
O79	O	0.965999	-0.595698	0.362530
H80	H	0.999154	-0.562258	0.335783
H81	H	0.247247	-0.419520	0.213081
H82	H	0.816831	-0.419601	0.643719
H83	H	0.835257	-0.937125	0.231543
O84	O	0.979556	-0.244762	0.523075
H85	H	1.010223	-0.276205	0.492082
H86	H	0.950032	-0.738488	0.346506
O87	O	0.262765	-0.244913	0.375996
H88	H	0.230248	-0.213709	0.405093
H89	H	0.816842	-0.419498	0.928650
H90	H	0.128538	-0.419495	0.213092
H91	H	0.975584	-1.069950	0.372020
H92	H	0.906071	-0.223202	0.853045
H93	H	0.830243	-1.070201	0.226486
O94	O	0.455798	-0.469719	0.273495
H95	H	0.507208	-0.459098	0.274732
O96	O	0.877335	-0.469560	0.852308
H97	H	0.872190	-0.513577	0.816887
O98	O	0.319791	-0.469685	0.273505
H99	H	0.351824	-0.513689	0.268305
O100	O	0.799491	-0.595987	0.195791
H101	H	0.749778	-0.610127	0.205949
O102	O	0.523065	-0.431434	0.201996
H103	H	0.472364	-0.423896	0.209036
H104	H	0.650884	-0.419600	0.213041
O105	O	0.955707	-0.815566	0.352171
H106	H	0.944414	-0.829625	0.400805
O107	O	0.979564	-0.244719	0.659090
H108	H	1.008637	-0.213496	0.626549
O109	O	0.793745	-0.748456	0.189996
H110	H	0.798326	-0.805614	0.194553
O111	O	0.979568	-0.244603	0.926714
H112	H	1.008629	-0.213343	0.961658
H113	H	0.840540	-0.850347	0.236845
O114	O	0.979572	-0.244553	1.062732
H115	H	1.008645	-0.213334	1.030188
O116	O	0.877331	-0.469614	0.716292
H117	H	0.872206	-0.513608	0.748359
H118	H	0.538572	-0.256827	0.364915
O119	O	0.805758	-0.431507	0.515893
H120	H	0.776689	-0.462732	0.548436
H121	H	0.456730	-0.223387	0.302521
O122	O	0.666398	-0.244996	0.375961
H123	H	0.633879	-0.213796	0.405059
H124	H	0.338019	-0.223363	0.302527
