data_functionalizedCrystal
_audit_creation_method	'MofGen! by Chris Wilmer'
_symmetry_space_group_name_H-M	'P1'
_symmetry_Int_Tables_number	1
_symmetry_cell_setting	triclinic
loop_
_symmetry_equiv_pos_as_xyz
  x,y,z
_cell_length_a	19.805404
_cell_length_b	12.759401
_cell_length_c	19.805399
_cell_angle_alpha	89.984563
_cell_angle_beta	89.970203
_cell_angle_gamma	90.029512
loop_
_atom_site_label
_atom_site_type_symbol
_atom_site_fract_x
_atom_site_fract_y
_atom_site_fract_z
Zn1	Zn	-0.269476	1.606117	-0.382635
Zn2	Zn	-0.382664	1.605975	-0.269442
Zn3	Zn	-0.269495	1.430428	-0.269467
Zn4	Zn	-0.382629	1.430362	-0.382597
O5	O	-0.326066	1.518221	-0.326035
O6	O	-0.284498	1.753119	-0.367624
O7	O	-0.367675	1.582657	-0.174729
O8	O	-0.174776	1.453820	-0.284506
O9	O	-0.367657	1.753015	-0.284462
O10	O	-0.174762	1.582898	-0.367649
O11	O	-0.284530	1.453683	-0.174747
O12	O	-0.284495	1.283398	-0.284469
O13	O	-0.367596	1.453708	-0.477318
O14	O	-0.367614	1.283350	-0.367585
O15	O	-0.284463	1.582834	-0.477346
O16	O	-0.477376	1.582593	-0.284426
O17	O	-0.477350	1.453571	-0.367560
C18	C	-0.501922	1.518088	-0.326001
C19	C	-0.577154	1.518128	-0.326009
C20	C	-0.326054	1.245253	-0.326026
C21	C	-0.326065	1.128477	-0.326038
C22	C	-1.038879	1.585574	-0.369423
C23	C	-0.968190	1.585533	-0.369408
C24	C	-0.932916	1.518362	-0.326077
C25	C	-0.968333	1.451235	-0.282754
C26	C	-1.039020	1.451283	-0.282767
C27	C	-0.683260	1.451043	-0.282702
C28	C	-0.612568	1.450999	-0.282694
C29	C	-0.612430	1.585293	-0.369342
C30	C	-0.683117	1.585340	-0.369355
C31	C	-0.718528	1.518218	-0.326030
C32	C	-0.795177	1.518266	-0.326047
C33	C	-0.856269	1.518308	-0.326063
C34	C	-0.369414	1.073617	-0.369245
C35	C	-0.369422	0.963893	-0.369252
C36	C	-0.282731	0.963898	-0.282840
C37	C	-0.282719	1.073620	-0.282837
C38	C	-0.412759	1.128474	-0.412446
C39	C	-0.456113	1.073614	-0.455656
C40	C	-0.456121	0.963890	-0.455663
C41	C	-0.412776	0.909026	-0.412461
C42	C	-0.149523	1.518382	-0.326084
C43	C	-0.074291	1.518451	-0.326105
C44	C	-0.326023	1.518280	-0.502578
C45	C	-0.326005	1.518305	-0.577810
C46	C	-0.326079	1.792254	-0.326045
C47	C	-0.326085	1.909031	-0.326049
C48	C	-0.282716	1.585542	-0.613170
C49	C	-0.282696	1.585553	-0.683858
C50	C	-0.325970	1.518331	-0.719186
C51	C	-0.369261	1.451086	-0.683821
C52	C	-0.369277	1.451071	-0.613134
C53	C	-0.369198	1.451145	-0.968894
C54	C	-0.369180	1.451168	-1.039587
C55	C	-0.282617	1.585627	-1.039619
C56	C	-0.282633	1.585612	-0.968932
C57	C	-0.325922	1.518364	-0.933573
C58	C	-0.325941	1.518352	-0.856925
C59	C	-0.325954	1.518348	-0.795833
C60	C	-0.326060	1.518222	-0.150179
C61	C	-0.325887	1.518401	-0.074948
H62	H	-1.067594	1.640262	-0.404715
Cl63	Cl	-0.228232	1.670126	-0.924524
H64	H	-1.067852	1.396625	-0.247493
H65	H	-0.247479	1.640285	-0.584411
Cl66	Cl	-0.412754	1.266412	-0.412438
Cl67	Cl	-0.568223	1.366549	-0.228216
Cl68	Cl	-0.727768	1.366654	-0.228240
Cl69	Cl	-0.923988	1.366796	-0.228279
H70	H	-0.247367	1.640381	-1.068416
Cl71	Cl	-0.727459	1.669780	-0.423834
H72	H	-0.404521	1.396308	-0.584345
Cl73	Cl	-0.510596	1.142584	-0.509968
H74	H	-0.491417	0.919226	-0.490852
H75	H	-0.939358	1.640190	-0.404680
H76	H	-0.412781	0.819681	-0.412476
Cl77	Cl	-0.228303	1.670130	-0.728307
Cl78	Cl	-0.228246	0.894925	-0.228531
H79	H	-0.247415	1.118288	-0.247659
H80	H	-0.404420	1.396423	-1.068348
H81	H	-0.404456	1.396403	-0.940114
Cl82	Cl	-0.567909	1.669679	-0.423807
H83	H	-0.404493	1.396349	-0.712590
