data_functionalizedCrystal
_audit_creation_method	'MofGen! by Chris Wilmer'
_symmetry_space_group_name_H-M	'P1'
_symmetry_Int_Tables_number	1
_symmetry_cell_setting	triclinic
loop_
_symmetry_equiv_pos_as_xyz
  x,y,z
_cell_length_a	27.732048
_cell_length_b	26.809956
_cell_length_c	27.732048
_cell_angle_alpha	90.000636
_cell_angle_beta	82.642655
_cell_angle_gamma	90.003258
loop_
_atom_site_label
_atom_site_type_symbol
_atom_site_fract_x
_atom_site_fract_y
_atom_site_fract_z
O1	O	0.640931	0.041421	0.057510
O2	O	1.140931	0.541421	0.557510
O3	O	0.500138	0.041436	0.066256
O4	O	1.000138	0.541436	0.566256
O5	O	0.574907	0.041419	-0.008514
O6	O	1.074907	0.541419	0.491486
O7	O	0.566162	0.041439	0.132280
O8	O	1.066162	0.541439	0.632280
O9	O	0.574893	-0.041541	-0.008502
O10	O	1.074893	0.458459	0.491498
O11	O	0.500123	-0.041523	0.066267
O12	O	1.000123	0.458477	0.566267
O13	O	0.640917	-0.041539	0.057522
O14	O	1.140917	0.458461	0.557522
Zn15	Zn	0.570518	-0.054702	0.061896
Zn16	Zn	1.070518	0.445298	0.561896
Zn17	Zn	0.570536	0.054600	0.061881
Zn18	Zn	1.070536	0.554600	0.561881
O19	O	0.566147	-0.041521	0.132291
O20	O	1.066147	0.458479	0.632291
C21	C	0.482124	-0.000041	0.066078
C22	C	0.982124	0.499959	0.566078
C23	C	0.428469	-0.000036	0.065525
C24	C	0.928469	0.499964	0.565525
N25	N	0.570509	-0.129298	0.061906
N26	N	1.070509	0.370702	0.561906
C27	C	0.089654	-0.000051	0.106229
C28	C	0.589654	0.499949	0.606229
C29	C	-0.112006	-0.000056	0.104178
C30	C	0.387994	0.499944	0.604178
O31	O	-0.143262	-0.000073	0.141398
O32	O	0.356738	0.499927	0.641398
N33	N	-0.131130	-0.000062	0.059843
N34	N	0.368870	0.499938	0.559843
C35	C	-0.099835	-0.000069	0.016017
C36	C	0.400165	0.499931	0.516017
O37	O	-0.120728	-0.000079	-0.021740
O38	O	0.379272	0.499921	0.478260
C39	C	0.101824	-0.000068	0.018068
C40	C	0.601824	0.499932	0.518068
C41	C	0.120944	-0.000057	0.062407
C42	C	0.620944	0.499943	0.562407
C43	C	0.108775	-0.000042	0.150563
C44	C	0.608775	0.499958	0.650563
C45	C	0.159187	-0.000038	0.151076
C46	C	0.659187	0.499962	0.651076
C47	C	0.190477	-0.000044	0.107253
C48	C	0.690477	0.499956	0.607253
C49	C	0.171356	-0.000054	0.062919
C50	C	0.671356	0.499946	0.562919
C51	C	0.133117	-0.000079	-0.025757
C52	C	0.633117	0.499921	0.474243
C53	C	0.183535	-0.000080	-0.025240
C54	C	0.683535	0.499920	0.474760
C55	C	0.202655	-0.000069	0.019098
C56	C	0.702655	0.499931	0.519098
C57	C	0.253059	-0.000056	0.019609
C58	C	0.753059	0.499944	0.519609
N59	N	0.272183	-0.000050	0.063944
N60	N	0.772183	0.499950	0.563944
C61	C	0.240892	-0.000044	0.107766
C62	C	0.740892	0.499956	0.607766
C63	C	-0.205709	-0.000069	0.014943
C64	C	0.294291	0.499931	0.514943
C65	C	-0.256124	-0.000068	0.014430
C66	C	0.243876	0.499932	0.514430
C67	C	-0.268291	-0.000056	0.102591
C68	C	0.231709	0.499944	0.602591
C69	C	-0.217876	-0.000053	0.103104
C70	C	0.282124	0.499947	0.603104
C71	C	-0.186585	-0.000063	0.059278
C72	C	0.313415	0.499937	0.559278
C73	C	0.346761	-0.000036	0.108839
C74	C	0.846761	0.499964	0.608839
C75	C	0.397178	-0.000030	0.109347
C76	C	0.897178	0.499970	0.609347
C77	C	0.409341	-0.000044	0.021186
C78	C	0.909341	0.499956	0.521186
C79	C	0.358929	-0.000048	0.020678
C80	C	0.858929	0.499952	0.520678
C81	C	0.327639	-0.000045	0.064508
C82	C	0.827639	0.499955	0.564508
O83	O	0.284343	-0.000045	-0.017592
O84	O	0.784343	0.499955	0.482408
O85	O	0.261794	-0.000045	0.145518
O86	O	0.761794	0.499955	0.645518
C87	C	0.039242	-0.000055	0.105716
C88	C	0.539242	0.499945	0.605716
C89	C	0.020120	-0.000065	0.061382
C90	C	0.520120	0.499935	0.561382
C91	C	0.051411	-0.000071	0.017560
C92	C	0.551411	0.499929	0.517560
C93	C	-0.030294	-0.000065	0.060869
C94	C	0.469706	0.499935	0.560869
C95	C	-0.061585	-0.000059	0.104691
C96	C	0.438415	0.499941	0.604691
C97	C	-0.042461	-0.000053	0.149026
C98	C	0.457539	0.499947	0.649026
C99	C	0.007951	-0.000049	0.149539
C100	C	0.507951	0.499951	0.649539
C101	C	0.032287	-0.000077	-0.026775
C102	C	0.532287	0.499923	0.473225
C103	C	-0.018125	-0.000080	-0.027284
C104	C	0.481875	0.499920	0.472716
C105	C	-0.049416	-0.000074	0.016538
C106	C	0.450584	0.499926	0.516538
C107	C	0.603640	-0.473932	0.028781
C108	C	1.103640	0.026068	0.528781
C109	C	0.603652	-0.682810	0.028774
C110	C	1.103652	-0.182810	0.528774
O111	O	0.631801	-0.709820	0.000613
O112	O	1.131801	-0.209820	0.500613
N113	N	0.570539	-0.708925	0.061870
N114	N	1.070539	-0.208925	0.561870
C115	C	0.537419	-0.682818	0.094969
C116	C	1.037419	-0.182818	0.594969
O117	O	0.509252	-0.709824	0.123116
O118	O	1.009252	-0.209824	0.623116
C119	C	0.537406	-0.473941	0.094974
C120	C	1.037406	0.026059	0.594974
C121	C	0.570524	-0.447829	0.061878
C122	C	1.070524	0.052171	0.561878
C123	C	0.636755	-0.447819	-0.004312
C124	C	1.136755	0.052181	0.495688
C125	C	0.636754	-0.395603	-0.004308
C126	C	1.136754	0.104397	0.495692
C127	C	0.603637	-0.369500	0.028789
C128	C	1.103637	0.130500	0.528789
C129	C	0.570522	-0.395612	0.061882
C130	C	1.070522	0.104388	0.561882
C131	C	0.504284	-0.447835	0.128070
C132	C	1.004284	0.052165	0.628070
C133	C	0.504283	-0.395613	0.128067
C134	C	1.004283	0.104387	0.628067
C135	C	0.537401	-0.369500	0.094972
C136	C	1.037401	0.130500	0.594972
C137	C	0.537405	-0.317293	0.094983
C138	C	1.037405	0.182707	0.594983
N139	N	0.570517	-0.291177	0.061887
N140	N	1.070517	0.208823	0.561887
C141	C	0.603633	-0.317281	0.028790
C142	C	1.103633	0.182719	0.528790
C143	C	0.537429	-0.792481	0.094965
C144	C	1.037429	-0.292481	0.594965
C145	C	0.537433	-0.844700	0.094964
C146	C	1.037433	-0.344700	0.594964
C147	C	0.603665	-0.844689	0.028768
C148	C	1.103665	-0.344689	0.528768
C149	C	0.603663	-0.792469	0.028772
C150	C	1.103663	-0.292469	0.528772
C151	C	0.570542	-0.766366	0.061868
C152	C	1.070542	-0.266366	0.561868
C153	C	0.603628	-0.207623	0.028801
C154	C	1.103628	0.292377	0.528801
C155	C	0.603625	-0.155402	0.028809
C156	C	1.103625	0.344598	0.528809
C157	C	0.537392	-0.155418	0.095003
C158	C	1.037392	0.344582	0.595003
C159	C	0.537396	-0.207635	0.094997
C160	C	1.037396	0.292365	0.594997
C161	C	0.570516	-0.233735	0.061892
C162	C	1.070516	0.266265	0.561892
O163	O	0.509266	-0.290250	0.123126
O164	O	1.009266	0.209750	0.623126
O165	O	0.631789	-0.290266	0.000640
O166	O	1.131789	0.209734	0.500640
C167	C	0.603642	-0.526149	0.028777
C168	C	1.103642	-0.026149	0.528777
C169	C	0.570527	-0.552261	0.061870
C170	C	1.070527	-0.052261	0.561870
C171	C	0.537410	-0.526158	0.094968
C172	C	1.037410	-0.026158	0.594968
C173	C	0.570531	-0.604480	0.061870
C174	C	1.070531	-0.104480	0.561870
C175	C	0.603647	-0.630584	0.028773
C176	C	1.103647	-0.130584	0.528773
C177	C	0.636759	-0.604468	-0.004324
C178	C	1.136759	-0.104468	0.495676
C179	C	0.636758	-0.552252	-0.004320
C180	C	1.136758	-0.052252	0.495680
C181	C	0.504298	-0.552273	0.128064
C182	C	1.004298	-0.052273	0.628064
C183	C	0.504303	-0.604489	0.128058
C184	C	1.004303	-0.104489	0.628058
C185	C	0.537419	-0.630593	0.094961
C186	C	1.037419	-0.130593	0.594961
C187	C	0.658931	-0.000060	0.057699
C188	C	1.158931	0.499940	0.557699
C189	C	0.712586	-0.000062	0.058252
C190	C	1.212586	0.499938	0.558252
C191	C	0.574716	-0.000062	-0.026515
C192	C	1.074716	0.499938	0.473485
C193	C	0.574164	-0.000066	-0.080170
C194	C	1.074164	0.499934	0.419830
N195	N	0.570549	0.129196	0.061867
N196	N	1.070549	0.629196	0.561867
C197	C	0.614867	-0.000045	-0.418985
C198	C	1.114867	0.499955	0.081015
C199	C	0.612816	-0.000038	-0.620645
C200	C	1.112816	0.499962	-0.120645
O201	O	0.650037	-0.000021	-0.651900
O202	O	1.150037	0.499979	-0.151900
N203	N	0.568481	-0.000034	-0.639768
N204	N	1.068481	0.499966	-0.139768
C205	C	0.524656	-0.000028	-0.608474
C206	C	1.024656	0.499972	-0.108474
O207	O	0.486899	-0.000019	-0.629367
O208	O	0.986899	0.499981	-0.129367
C209	C	0.526707	-0.000031	-0.406815
C210	C	1.026707	0.499969	0.093185
C211	C	0.571045	-0.000041	-0.387694
C212	C	1.071045	0.499959	0.112306
C213	C	0.659202	-0.000054	-0.399864
C214	C	1.159202	0.499946	0.100136
C215	C	0.659714	-0.000059	-0.349452
C216	C	1.159714	0.499941	0.150548
C217	C	0.615892	-0.000054	-0.318161
C218	C	1.115892	0.499946	0.181839
C219	C	0.571557	-0.000045	-0.337282
C220	C	1.071557	0.499955	0.162718
C221	C	0.482882	-0.000022	-0.375521
C222	C	0.982882	0.499978	0.124479
C223	C	0.483399	-0.000021	-0.325104
C224	C	0.983399	0.499979	0.174896
C225	C	0.527737	-0.000031	-0.305983
C226	C	1.027737	0.499969	0.194017
C227	C	0.528247	-0.000045	-0.255580
C228	C	1.028247	0.499955	0.244420
N229	N	0.572583	-0.000050	-0.236456
N230	N	1.072583	0.499950	0.263544
C231	C	0.616405	-0.000054	-0.267747
C232	C	1.116405	0.499946	0.232253
C233	C	0.523582	-0.000027	-0.714348
C234	C	1.023582	0.499973	-0.214348
C235	C	0.523069	-0.000027	-0.764762
C236	C	1.023069	0.499973	-0.264762
C237	C	0.611230	-0.000036	-0.776930
C238	C	1.111230	0.499964	-0.276930
C239	C	0.611742	-0.000040	-0.726514
C240	C	1.111742	0.499960	-0.226514
C241	C	0.567917	-0.000031	-0.695224
C242	C	1.067917	0.499969	-0.195224
C243	C	0.617477	-0.000064	-0.161878
C244	C	1.117477	0.499936	0.338122
C245	C	0.617986	-0.000071	-0.111461
C246	C	1.117986	0.499929	0.388539
C247	C	0.529825	-0.000059	-0.099298
C248	C	1.029825	0.499941	0.400702
C249	C	0.529316	-0.000055	-0.149710
C250	C	1.029316	0.499945	0.350290
C251	C	0.573147	-0.000056	-0.180999
C252	C	1.073147	0.499944	0.319001
O253	O	0.491047	-0.000057	-0.224296
O254	O	0.991047	0.499943	0.275704
O255	O	0.654156	-0.000053	-0.246844
O256	O	1.154156	0.499947	0.253156
C257	C	0.614355	-0.000041	-0.469397
C258	C	1.114355	0.499959	0.030603
C259	C	0.570021	-0.000032	-0.488518
C260	C	1.070021	0.499968	0.011482
C261	C	0.526198	-0.000027	-0.457228
C262	C	1.026198	0.499973	0.042772
C263	C	0.569508	-0.000032	-0.538933
C264	C	1.069508	0.499968	-0.038933
C265	C	0.613330	-0.000036	-0.570223
C266	C	1.113330	0.499964	-0.070223
C267	C	0.657665	-0.000041	-0.551100
C268	C	1.157665	0.499959	-0.051100
C269	C	0.658177	-0.000045	-0.500688
C270	C	1.158177	0.499955	-0.000688
C271	C	0.481863	-0.000023	-0.476351
C272	C	0.981863	0.499977	0.023649
C273	C	0.481355	-0.000019	-0.526764
C274	C	0.981355	0.499981	-0.026764
C275	C	0.525177	-0.000023	-0.558054
C276	C	1.025177	0.499977	-0.058054
C277	C	0.566338	-0.000039	0.150292
C278	C	1.066338	0.499961	0.650292
C279	C	0.566891	-0.000031	0.203947
C280	C	1.066891	0.499969	0.703947
H281	H	0.412743	-0.000021	0.145454
H282	H	0.912743	0.499979	0.645454
C283	C	0.500969	-0.236360	0.131405
C284	C	1.000969	0.263640	0.631405
C285	C	0.445933	-0.229178	0.130972
C286	C	0.945933	0.270822	0.630972
C287	C	0.409502	-0.257898	0.167377
C288	C	0.909502	0.242102	0.667377
C289	C	0.428106	-0.293800	0.204215
C290	C	0.928106	0.206200	0.704215
C291	C	0.483144	-0.300983	0.204650
C292	C	0.983144	0.199017	0.704650
C293	C	0.519576	-0.272263	0.168244
C294	C	1.019576	0.227737	0.668244
H295	H	0.432159	-0.202599	0.103700
H296	H	0.932159	0.297401	0.603700
H297	H	0.368759	-0.252580	0.167055
H298	H	0.868759	0.247420	0.667055
H299	H	0.401137	-0.315060	0.231165
H300	H	0.901137	0.184940	0.731165
H301	H	0.496918	-0.327562	0.231921
H302	H	0.996918	0.172438	0.731921
H303	H	0.560319	-0.277581	0.168566
H304	H	1.060319	0.222419	0.668566
H305	H	0.663722	-0.469068	-0.031266
H306	H	1.163722	0.030932	0.468734
C307	C	0.480543	-0.000042	-0.170743
C308	C	0.980543	0.499958	0.329257
C309	C	0.468077	0.043048	-0.203717
C310	C	0.968077	0.543048	0.296283
C311	C	0.419303	0.043069	-0.224744
C312	C	0.919303	0.543069	0.275256
C313	C	0.382994	-0.000000	-0.212795
C314	C	0.882994	0.500000	0.287205
C315	C	0.395459	-0.043094	-0.179819
C316	C	0.895459	0.456906	0.320181
C317	C	0.444234	-0.043115	-0.158793
C318	C	0.944234	0.456885	0.341207
H319	H	0.494956	0.074934	-0.212563
H320	H	0.994956	0.574934	0.287437
H321	H	0.410075	0.074970	-0.249155
H322	H	0.910075	0.574970	0.250845
H323	H	0.346888	0.000016	-0.228360
H324	H	0.846888	0.500016	0.271640
H325	H	0.368581	-0.074979	-0.170973
H326	H	0.868581	0.425021	0.329027
H327	H	0.453461	-0.075016	-0.134381
H328	H	0.953461	0.424984	0.365619
C329	C	0.180212	-0.000035	0.199850
C330	C	0.680212	0.499965	0.699850
C331	C	0.168247	-0.043113	0.236143
C332	C	0.668247	0.456887	0.736143
C333	C	0.189266	-0.043114	0.284922
C334	C	0.689266	0.456886	0.784922
C335	C	0.222251	-0.000037	0.297407
C336	C	0.722251	0.499963	0.797407
C337	C	0.234217	0.043045	0.261114
C338	C	0.734217	0.543045	0.761114
C339	C	0.213198	0.043046	0.212335
C340	C	0.713198	0.543046	0.712335
H341	H	0.143829	-0.075005	0.226901
H342	H	0.643829	0.424995	0.726901
H343	H	0.180408	-0.075006	0.311788
H344	H	0.680408	0.424994	0.811788
H345	H	0.237810	-0.000037	0.333516
H346	H	0.737810	0.499963	0.833516
H347	H	0.258635	0.074936	0.270355
H348	H	0.758635	0.574936	0.770355
H349	H	0.222056	0.074938	0.185468
H350	H	0.722056	0.574938	0.685468
H351	H	0.487892	-0.000020	-0.688875
H352	H	0.987892	0.499980	-0.188875
C353	C	0.660514	-0.000046	-0.705484
C354	C	1.160514	0.499954	-0.205484
C355	C	0.673002	0.043032	-0.672503
C356	C	1.173002	0.543032	-0.172503
C357	C	0.721776	0.043028	-0.651476
C358	C	1.221776	0.543028	-0.151476
C359	C	0.758063	-0.000055	-0.663431
C360	C	1.258063	0.499945	-0.163431
C361	C	0.745577	-0.043136	-0.696414
C362	C	1.245577	0.456864	-0.196414
C363	C	0.696802	-0.043132	-0.717441
C364	C	1.196802	0.456868	-0.217441
H365	H	0.646139	0.074927	-0.663652
H366	H	1.146139	0.574927	-0.163652
H367	H	0.731019	0.074919	-0.627060
H368	H	1.231019	0.574919	-0.127060
H369	H	0.794169	-0.000058	-0.647865
H370	H	1.294169	0.499942	-0.147865
H371	H	0.772440	-0.075031	-0.705265
H372	H	1.272440	0.424969	-0.205265
H373	H	0.687559	-0.075024	-0.741857
H374	H	1.187559	0.424976	-0.241857
H375	H	0.209009	-0.000089	-0.060929
H376	H	0.709009	0.499911	0.439071
H377	H	0.510471	-0.865958	0.121919
H378	H	1.010471	-0.365958	0.621919
C379	C	0.673179	-0.366882	-0.040718
C380	C	1.173179	0.133118	0.459282
C381	C	0.672776	-0.374067	-0.095758
C382	C	1.172776	0.125933	0.404242
C383	C	0.709202	-0.345349	-0.132171
C384	C	1.209202	0.154651	0.367829
C385	C	0.746029	-0.309446	-0.113545
C386	C	1.246029	0.190554	0.386455
C387	C	0.746433	-0.302259	-0.058502
C388	C	1.246433	0.197741	0.441498
C389	C	0.710007	-0.330977	-0.022089
C390	C	1.210007	0.169023	0.477911
H391	H	0.645513	-0.400646	-0.109549
H392	H	1.145513	0.099354	0.390451
H393	H	0.708903	-0.350669	-0.172918
H394	H	1.208903	0.149331	0.327082
H395	H	0.772993	-0.288187	-0.140500
H396	H	1.272993	0.211813	0.359500
H397	H	0.773696	-0.275680	-0.044711
H398	H	1.273696	0.224320	0.455289
H399	H	0.710306	-0.325657	0.018658
H400	H	1.210306	0.174343	0.518658
H401	H	0.695819	-0.000065	-0.333889
H402	H	1.195819	0.499935	0.166111
H403	H	0.446777	-0.000011	-0.391080
H404	H	0.946777	0.499989	0.108920
H405	H	0.693347	-0.000047	-0.576585
H406	H	1.193347	0.499953	-0.076585
H407	H	0.445246	-0.000015	-0.542327
H408	H	0.945246	0.499985	-0.042327
C409	C	0.665690	-0.000069	-0.196290
C410	C	1.165690	0.499931	0.303710
C411	C	0.677480	0.043009	-0.232620
C412	C	1.177480	0.543009	0.267380
C413	C	0.725692	0.043000	-0.267032
C414	C	1.225692	0.543000	0.232968
C415	C	0.762115	-0.000087	-0.265115
C416	C	1.262115	0.499913	0.234885
C417	C	0.750327	-0.043168	-0.228785
C418	C	1.250327	0.456832	0.271215
C419	C	0.702114	-0.043159	-0.194372
C420	C	1.202114	0.456841	0.305628
H421	H	0.650516	0.074907	-0.234040
H422	H	1.150516	0.574907	0.265960
H423	H	0.734418	0.074892	-0.293927
H424	H	1.234418	0.574892	0.206073
H425	H	0.797805	-0.000094	-0.290590
H426	H	1.297805	0.499906	0.209410
H427	H	0.777290	-0.075067	-0.227364
H428	H	1.277290	0.424933	0.272636
H429	H	0.693388	-0.075051	-0.167478
H430	H	1.193388	0.424949	0.332522
H431	H	0.494146	-0.000057	-0.073812
H432	H	0.994146	0.499943	0.426188
C433	C	0.433654	-0.000022	-0.441937
C434	C	0.933654	0.499978	0.058063
C435	C	0.421879	0.043053	-0.405601
C436	C	0.921879	0.543053	0.094399
C437	C	0.373667	0.043051	-0.371189
C438	C	0.873667	0.543051	0.128811
C439	C	0.337229	-0.000026	-0.373112
C440	C	0.837229	0.499974	0.126888
C441	C	0.349003	-0.043104	-0.409449
C442	C	0.849003	0.456896	0.090551
C443	C	0.397216	-0.043102	-0.443861
C444	C	0.897216	0.456898	0.056139
H445	H	0.448854	0.074945	-0.404176
H446	H	0.948854	0.574945	0.095824
H447	H	0.364951	0.074941	-0.344290
H448	H	0.864951	0.574941	0.155710
H449	H	0.301539	-0.000028	-0.347639
H450	H	0.801539	0.499972	0.152361
H451	H	0.322029	-0.074995	-0.410874
H452	H	0.822029	0.425005	0.089126
H453	H	0.405932	-0.074991	-0.470760
H454	H	0.905932	0.425009	0.029240
H455	H	0.057760	-0.000083	-0.062462
H456	H	0.557760	0.499917	0.437538
H457	H	-0.067947	-0.000046	0.184708
H458	H	0.432053	0.499954	0.684708
C459	C	0.500963	-0.126699	0.131408
C460	C	1.000963	0.373301	0.631408
C461	C	0.500961	-0.069260	0.131406
C462	C	1.000961	0.430740	0.631406
C463	C	0.464528	-0.040540	0.167808
C464	C	0.964528	0.459460	0.667808
C465	C	0.428099	-0.069259	0.204212
C466	C	0.928099	0.430741	0.704212
C467	C	0.428100	-0.126701	0.204215
C468	C	0.928100	0.373299	0.704215
C469	C	0.464532	-0.155421	0.167813
C470	C	0.964532	0.344579	0.667813
H471	H	0.527929	-0.047998	0.104456
H472	H	1.027929	0.452002	0.604456
H473	H	0.464528	0.001982	0.167805
H474	H	0.964528	0.501982	0.667805
H475	H	0.401129	-0.047999	0.231159
H476	H	0.901129	0.452001	0.731159
H477	H	0.401131	-0.147964	0.231165
H478	H	0.901131	0.352036	0.731165
H479	H	0.464533	-0.197944	0.167815
H480	H	0.964533	0.302056	0.667815
H481	H	0.434827	-0.000047	-0.014492
H482	H	0.934827	0.499953	0.485508
H483	H	0.023514	-0.000042	0.185643
H484	H	0.523514	0.499958	0.685643
H485	H	0.477317	-0.469089	0.155019
H486	H	0.977317	0.030911	0.655019
H487	H	0.321291	-0.000035	0.144530
H488	H	0.821291	0.499965	0.644530
H489	H	-0.033688	-0.000085	-0.063392
H490	H	0.466312	0.499915	0.436608
H491	H	0.663725	-0.530995	-0.031269
H492	H	1.163725	-0.030995	0.468731
C493	C	0.706951	-0.000051	-0.479660
C494	C	1.206951	0.499949	0.020340
C495	C	0.743239	-0.043131	-0.491620
C496	C	1.243239	0.456869	0.008380
C497	C	0.792016	-0.043135	-0.470597
C498	C	1.292016	0.456865	0.029403
C499	C	0.804504	-0.000059	-0.437614
C500	C	1.304504	0.499941	0.062386
C501	C	0.768214	0.043025	-0.425652
C502	C	1.268214	0.543025	0.074348
C503	C	0.719438	0.043029	-0.446675
C504	C	1.219438	0.543029	0.053325
H505	H	0.733996	-0.075022	-0.516037
H506	H	1.233996	0.424978	-0.016037
H507	H	0.818880	-0.075029	-0.479452
H508	H	1.318880	0.424971	0.020548
H509	H	0.840611	-0.000061	-0.422051
H510	H	1.340611	0.499939	0.077949
H511	H	0.777457	0.074916	-0.401235
H512	H	1.277457	0.574916	0.098765
H513	H	0.692574	0.074922	-0.437820
H514	H	1.192574	0.574922	0.062180
H515	H	0.083302	-0.000038	0.186251
H516	H	0.583302	0.499962	0.686251
H517	H	0.510457	-0.771232	0.121917
H518	H	1.010457	-0.271232	0.621917
H519	H	0.477310	-0.374362	0.155018
H520	H	0.977310	0.125638	0.655018
H521	H	0.630597	-0.228868	0.001843
H522	H	1.130597	0.271132	0.501843
C523	C	-0.196845	-0.000046	0.151875
C524	C	0.303155	0.499954	0.651875
C525	C	-0.208805	-0.043119	0.188175
C526	C	0.291195	0.456881	0.688175
C527	C	-0.187778	-0.043114	0.236949
C528	C	0.312222	0.456886	0.736949
C529	C	-0.154790	-0.000035	0.249424
C530	C	0.345210	0.499965	0.749424
C531	C	-0.142828	0.043042	0.213123
C532	C	0.357172	0.543042	0.713123
C533	C	-0.163856	0.043036	0.164349
C534	C	0.336144	0.543036	0.664349
H535	H	-0.233226	-0.075012	0.178941
H536	H	0.266774	0.424988	0.678941
H537	H	-0.196633	-0.075002	0.263821
H538	H	0.303367	0.424998	0.763821
H539	H	-0.139224	-0.000030	0.285529
H540	H	0.360776	0.499970	0.785529
H541	H	-0.118407	0.074934	0.222357
H542	H	0.381593	0.574934	0.722357
H543	H	-0.155000	0.074924	0.137477
H544	H	0.345000	0.574924	0.637477
C545	C	0.640055	-0.126678	-0.007599
C546	C	1.140055	0.373322	0.492401
C547	C	0.639657	-0.133856	-0.062641
C548	C	1.139657	0.366144	0.437359
C549	C	0.676085	-0.105134	-0.099048
C550	C	1.176085	0.394866	0.400952
C551	C	0.712911	-0.069235	-0.080415
C552	C	1.212911	0.430765	0.419585
C553	C	0.713311	-0.062055	-0.025370
C554	C	1.213311	0.437945	0.474630
C555	C	0.676883	-0.090777	0.011037
C556	C	1.176883	0.409223	0.511037
H557	H	0.612395	-0.160432	-0.076437
H558	H	1.112395	0.339568	0.423563
H559	H	0.675789	-0.110449	-0.139796
H560	H	1.175789	0.389551	0.360204
H561	H	0.739877	-0.047973	-0.107366
H562	H	1.239877	0.452027	0.392634
H563	H	0.740573	-0.035479	-0.011574
H564	H	1.240573	0.464521	0.488426
H565	H	0.677179	-0.085462	0.051785
H566	H	1.177179	0.414538	0.551785
C567	C	-0.171294	-0.000076	-0.033270
C568	C	0.328706	0.499924	0.466730
C569	C	-0.134967	-0.043156	-0.045045
C570	C	0.365033	0.456844	0.454955
C571	C	-0.100555	-0.043160	-0.093258
C572	C	0.399445	0.456840	0.406742
C573	C	-0.102471	-0.000084	-0.129696
C574	C	0.397529	0.499916	0.370304
C575	C	-0.138800	0.042999	-0.117921
C576	C	0.361200	0.542999	0.382079
C577	C	-0.173212	0.043004	-0.069708
C578	C	0.326788	0.543004	0.430292
H579	H	-0.133548	-0.075046	-0.018071
H580	H	0.366452	0.424954	0.481929
H581	H	-0.073663	-0.075053	-0.101974
H582	H	0.426337	0.424947	0.398026
H583	H	-0.076998	-0.000087	-0.165386
H584	H	0.423002	0.499913	0.334614
H585	H	-0.140219	0.074890	-0.144895
H586	H	0.359781	0.574890	0.355105
H587	H	-0.200105	0.074897	-0.060992
H588	H	0.299895	0.574897	0.439008
C589	C	0.112096	-0.000093	-0.074531
C590	C	0.612096	0.499907	0.425469
C591	C	0.124054	-0.043181	-0.110813
C592	C	0.624054	0.456819	0.389187
C593	C	0.103035	-0.043195	-0.159592
C594	C	0.603035	0.456805	0.340408
C595	C	0.070057	-0.000120	-0.172088
C596	C	0.570057	0.499880	0.327912
C597	C	0.058097	0.042971	-0.135805
C598	C	0.558097	0.542971	0.364195
C599	C	0.079116	0.042985	-0.087027
C600	C	0.579116	0.542985	0.412973
H601	H	0.148468	-0.075069	-0.101563
H602	H	0.648468	0.424931	0.398437
H603	H	0.111889	-0.075094	-0.186451
H604	H	0.611889	0.424906	0.313549
H605	H	0.054497	-0.000131	-0.208197
H606	H	0.554497	0.499869	0.291803
H607	H	0.033683	0.074860	-0.145055
H608	H	0.533683	0.574860	0.354945
H609	H	0.070262	0.074884	-0.060168
H610	H	0.570262	0.574884	0.439832
C611	C	0.337890	-0.000058	-0.028092
C612	C	0.837890	0.499942	0.471908
C613	C	0.349845	-0.043144	-0.064378
C614	C	0.849845	0.456856	0.435622
C615	C	0.328810	-0.043161	-0.113148
C616	C	0.828810	0.456839	0.386852
C617	C	0.295821	-0.000091	-0.125633
C618	C	0.795821	0.499909	0.374367
C619	C	0.283865	0.042998	-0.089346
C620	C	0.783865	0.542998	0.410654
C621	C	0.304899	0.043015	-0.040576
C622	C	0.804899	0.543015	0.459424
H623	H	0.374267	-0.075029	-0.055136
H624	H	0.874267	0.424971	0.444864
H625	H	0.337661	-0.075058	-0.140009
H626	H	0.837661	0.424942	0.359991
H627	H	0.280250	-0.000104	-0.161735
H628	H	0.780250	0.499896	0.338265
H629	H	0.259442	0.074883	-0.098588
H630	H	0.759442	0.574883	0.401412
H631	H	0.296049	0.074912	-0.013715
H632	H	0.796049	0.574912	0.486285
C633	C	0.673187	-0.633189	-0.040732
C634	C	1.173187	-0.133189	0.459268
C635	C	0.654573	-0.669088	-0.077569
C636	C	1.154573	-0.169088	0.422431
C637	C	0.690996	-0.697811	-0.113977
C638	C	1.190996	-0.197811	0.386023
C639	C	0.746034	-0.690634	-0.113549
C640	C	1.246034	-0.190634	0.386451
C641	C	0.764651	-0.654733	-0.076710
C642	C	1.264651	-0.154733	0.423290
C643	C	0.728228	-0.626010	-0.040302
C644	C	1.228228	-0.126010	0.459698
H645	H	0.613828	-0.674402	-0.077887
H646	H	1.113828	-0.174402	0.422113
H647	H	0.677214	-0.724388	-0.141247
H648	H	1.177214	-0.224388	0.358753
H649	H	0.772997	-0.711897	-0.140500
H650	H	1.272997	-0.211897	0.359500
H651	H	0.805396	-0.649419	-0.076392
H652	H	1.305396	-0.149419	0.423608
H653	H	0.742009	-0.599434	-0.013032
H654	H	1.242009	-0.099434	0.486968
H655	H	-0.293777	-0.000051	0.138273
H656	H	0.206223	0.499949	0.638273
H657	H	0.630630	-0.771211	0.001822
H658	H	1.130630	-0.271211	0.501822
C659	C	0.640091	-0.873409	-0.007641
C660	C	1.140091	-0.373409	0.492359
C661	C	0.640088	-0.930848	-0.007639
C662	C	1.140088	-0.430848	0.492361
C663	C	0.676509	-0.959571	-0.044050
C664	C	1.176509	-0.459571	0.455950
C665	C	0.712933	-0.930856	-0.080462
C666	C	1.212933	-0.430856	0.419538
C667	C	0.712937	-0.873414	-0.080466
C668	C	1.212937	-0.373414	0.419534
C669	C	0.676517	-0.844691	-0.044055
C670	C	1.176517	-0.344691	0.455945
H671	H	0.613123	-0.952108	0.019317
H672	H	1.113123	-0.452108	0.519317
H673	H	0.676505	-1.002094	-0.044047
H674	H	1.176505	-0.502094	0.455953
H675	H	0.739894	-0.952119	-0.107415
H676	H	1.239894	-0.452119	0.392585
H677	H	0.739902	-0.852154	-0.107422
H678	H	1.239902	-0.352154	0.392578
H679	H	0.676520	-0.802168	-0.044058
H680	H	1.176520	-0.302168	0.455942
C681	C	0.467870	-0.633211	0.164466
C682	C	0.967870	-0.133211	0.664466
C683	C	0.412835	-0.626029	0.164027
C684	C	0.912835	-0.126029	0.664027
C685	C	0.376400	-0.654748	0.200430
C686	C	0.876400	-0.154748	0.700430
C687	C	0.395000	-0.690649	0.237272
C688	C	0.895000	-0.190649	0.737272
C689	C	0.450038	-0.697832	0.237712
C690	C	0.950038	-0.197832	0.737712
C691	C	0.486473	-0.669113	0.201309
C692	C	0.986473	-0.169113	0.701309
H693	H	0.399063	-0.599452	0.136753
H694	H	0.899063	-0.099452	0.636753
H695	H	0.335658	-0.649431	0.200104
H696	H	0.835658	-0.149431	0.700104
H697	H	0.368029	-0.711909	0.264219
H698	H	0.868029	-0.211909	0.764219
H699	H	0.463809	-0.724410	0.264985
H700	H	0.963809	-0.224410	0.764985
H701	H	0.527215	-0.674431	0.201635
H702	H	1.027215	-0.174431	0.701635
H703	H	-0.271687	-0.000069	-0.021674
H704	H	0.228313	0.499931	0.478326
H705	H	0.477330	-0.531024	0.155015
H706	H	0.977330	-0.031024	0.655015
H707	H	0.694889	-0.000056	-0.425336
H708	H	1.194889	0.499944	0.074664
H709	H	0.654093	-0.000080	-0.095896
H710	H	1.154093	0.499920	0.404104
H711	H	0.646911	-0.000040	-0.802415
H712	H	1.146911	0.499960	-0.302415
H713	H	0.486964	-0.000028	-0.780325
H714	H	0.986964	0.499972	-0.280325
H715	H	0.447710	-0.000014	-0.299629
H716	H	0.947710	0.499986	0.200371
