data_functionalizedCrystal
_audit_creation_method	'MofGen! by Chris Wilmer'
_symmetry_space_group_name_H-M	'P1'
_symmetry_Int_Tables_number	1
_symmetry_cell_setting	triclinic
loop_
_symmetry_equiv_pos_as_xyz
  x,y,z
_cell_length_a	16.992694
_cell_length_b	13.339070
_cell_length_c	16.053802
_cell_angle_alpha	93.267614
_cell_angle_beta	87.249047
_cell_angle_gamma	103.148759
loop_
_atom_site_label
_atom_site_type_symbol
_atom_site_fract_x
_atom_site_fract_y
_atom_site_fract_z
O1	O	1.090314	0.214289	-0.069315
O2	O	0.861508	0.211892	-0.069340
O3	O	0.949651	0.063704	-0.069328
O4	O	1.002170	0.362477	-0.069327
O5	O	0.944792	0.071825	0.069530
O6	O	0.856649	0.220013	0.069518
O7	O	1.085454	0.222410	0.069543
Zn8	Zn	0.970280	0.222501	0.091577
Zn9	Zn	0.976682	0.211801	-0.091374
O10	O	0.997311	0.370598	0.069531
C11	C	0.829196	0.212871	0.000086
C12	C	0.740151	0.203676	0.000076
C13	C	0.709211	0.292389	0.000077
C14	C	0.625543	0.283745	0.000089
C15	C	0.572817	0.186385	0.000093
C16	C	0.603763	0.097665	0.000095
C17	C	0.687429	0.106311	0.000090
C18	C	0.321423	0.150552	0.000116
C19	C	0.237752	0.141912	0.000119
C20	C	0.259538	0.327993	0.000114
C21	C	0.343205	0.336630	0.000103
C22	C	0.374143	0.247910	0.000109
N23	N	0.487295	0.177547	0.000103
N24	N	0.459663	0.256750	0.000106
C25	C	0.938350	0.029358	0.000099
C26	C	0.911906	-0.085082	0.000093
C27	C	1.117519	-0.433251	0.000116
C28	C	1.142367	-0.325729	0.000126
C29	C	1.084754	-0.265562	0.000118
C30	C	1.002289	-0.312928	0.000099
C31	C	0.977439	-0.420460	0.000095
C32	C	0.944673	-0.252771	0.000097
C33	C	0.862209	-0.300136	0.000078
C34	C	0.837363	-0.407658	0.000074
C35	C	0.894976	-0.467825	0.000082
C36	C	0.969524	-0.145239	0.000101
C37	C	0.829443	-0.132447	0.000080
C38	C	0.804596	-0.239970	0.000070
C39	C	1.117767	0.221431	0.000115
C40	C	1.206811	0.230626	0.000120
C41	C	1.008612	0.404944	0.000102
C42	C	1.035056	0.519384	0.000103
N43	N	0.965916	0.229803	0.216437
N44	N	0.981051	0.204492	-0.216234
C45	C	1.003445	0.166774	0.260136
C46	C	1.000402	0.171892	0.347543
C47	C	0.959834	0.240045	0.391248
C48	C	0.922300	0.303076	0.347543
C49	C	0.925339	0.297952	0.260138
C50	C	0.946555	0.262399	0.652656
C51	C	0.943522	0.267520	0.740067
C52	C	1.021623	0.136334	0.740060
C53	C	1.024662	0.131221	0.652654
C54	C	0.987124	0.194248	0.608956
N55	N	0.956725	0.245281	0.480592
N56	N	0.990229	0.189006	0.519615
H57	H	0.600356	0.355985	0.000088
N58	N	0.354783	0.054862	0.000102
H59	H	0.415786	0.075104	0.000099
H60	H	0.333608	0.015728	0.051576
H61	H	1.104990	-0.178013	0.000126
N62	N	1.179656	-0.498135	0.000123
H63	H	1.212796	-0.479210	0.051604
H64	H	1.151345	-0.573417	0.000088
H65	H	1.209509	-0.287171	0.000142
N66	N	0.720802	0.010626	0.000081
H67	H	0.781804	0.030875	0.000080
H68	H	0.699627	-0.028500	0.051560
H69	H	0.194823	0.062627	0.000122
N70	N	1.068420	0.057713	0.605520
H71	H	1.127122	0.075092	0.620729
H72	H	1.042741	-0.015202	0.620758
H73	H	0.737452	-0.278550	0.000055
N74	N	0.868173	-0.583799	0.000069
H75	H	0.917186	-0.614722	0.000073
H76	H	0.832871	-0.604098	0.051542
H77	H	0.770215	-0.446220	0.000065
N78	N	0.546898	-0.007345	0.000113
H79	H	0.489200	0.000637	0.000117
H80	H	0.558558	-0.049480	-0.051360
H81	H	0.782530	-0.083459	0.000077
H82	H	1.036484	0.111281	0.224557
N83	N	1.040915	0.103949	0.394676
H84	H	1.067092	0.060015	0.353726
H85	H	1.083512	0.148418	0.430917
N86	N	0.766080	0.397397	0.000076
H87	H	0.803071	0.402122	-0.051402
H88	H	0.733725	0.452225	0.000112
H89	H	1.052183	0.085019	0.775647
H90	H	0.910485	0.323023	0.775648
N91	N	1.058462	-0.094161	0.000123
H92	H	1.086562	-0.118679	-0.051348
H93	H	1.065396	-0.016926	0.000158
N94	N	0.906065	0.330369	0.605531
H95	H	0.879906	0.374320	0.646484
H96	H	0.947780	0.376263	0.569253
N97	N	0.878537	0.376578	0.394678
H98	H	0.882308	0.370263	0.456680
H99	H	0.904177	0.449486	0.379391
H100	H	0.894777	0.349276	0.224559
H101	H	0.234339	0.400223	0.000111
N102	N	0.400073	0.441638	0.000083
H103	H	0.367776	0.496528	0.000081
H104	H	0.433475	0.452302	0.051552
