data_functionalizedCrystal
_audit_creation_method	'MofGen! by Chris Wilmer'
_symmetry_space_group_name_H-M	'P1'
_symmetry_Int_Tables_number	1
_symmetry_cell_setting	triclinic
loop_
_symmetry_equiv_pos_as_xyz
  x,y,z
_cell_length_a	19.805407
_cell_length_b	18.101395
_cell_length_c	19.805399
_cell_angle_alpha	90.025118
_cell_angle_beta	90.019573
_cell_angle_gamma	90.031104
loop_
_atom_site_label
_atom_site_type_symbol
_atom_site_fract_x
_atom_site_fract_y
_atom_site_fract_z
Zn1	Zn	1.034714	-0.294847	0.382731
Zn2	Zn	1.034619	-0.418690	0.269548
Zn3	Zn	0.921528	-0.294867	0.269556
Zn4	Zn	0.921482	-0.418651	0.382695
O5	O	0.978086	-0.356764	0.326132
O6	O	1.129418	-0.311283	0.367729
O7	O	1.019597	-0.402290	0.174832
O8	O	0.936601	-0.191232	0.284587
O9	O	1.129348	-0.402270	0.284574
O10	O	1.019758	-0.191217	0.367737
O11	O	0.936510	-0.311318	0.174838
O12	O	0.826806	-0.311279	0.284552
O13	O	0.936523	-0.402203	0.477416
O14	O	0.826772	-0.402223	0.367674
O15	O	1.019714	-0.311245	0.477443
O16	O	1.019553	-0.522318	0.284538
O17	O	0.936432	-0.522289	0.367667
C18	C	0.802230	-0.356750	0.326110
C19	C	0.726998	-0.356761	0.326117
C20	C	0.691654	-0.404187	0.369329
C21	C	0.620965	-0.404188	0.369339
C22	C	0.585622	-0.356767	0.326132
C23	C	0.620971	-0.309336	0.282919
C24	C	0.691658	-0.309332	0.282913
C25	C	0.335898	-0.309353	0.282941
C26	C	0.265206	-0.309363	0.282948
C27	C	0.265205	-0.404209	0.369367
C28	C	0.335892	-0.404205	0.369361
C29	C	0.371235	-0.356771	0.326150
C30	C	0.447883	-0.356770	0.326141
C31	C	0.508975	-0.356772	0.326137
C32	C	0.977995	-0.549174	0.326112
C33	C	0.978018	-0.631489	0.326127
C34	C	0.978167	-0.930579	0.326163
C35	C	0.925991	-0.899267	0.378595
C36	C	0.925743	-0.813649	0.378431
C37	C	0.978093	-0.782197	0.326146
C38	C	0.958782	-0.813345	0.254811
C39	C	0.958446	-0.898990	0.255125
C40	C	1.049768	-0.898924	0.344438
C41	C	1.049347	-0.813273	0.346002
C42	C	0.978053	-0.698337	0.326131
C43	C	0.978206	-1.014439	0.326173
C44	C	1.154629	-0.356779	0.326155
C45	C	1.229861	-0.356785	0.326164
C46	C	0.978124	-0.356717	0.502675
C47	C	0.978140	-0.356697	0.577907
C48	C	0.978195	-0.163602	0.326167
C49	C	0.978242	-0.081288	0.326182
C50	C	0.978087	-0.356757	0.150276
C51	C	0.978202	-0.356568	0.075045
C52	C	1.021458	-0.309333	0.613266
C53	C	1.021465	-0.309311	0.683955
C54	C	0.978157	-0.356659	0.719283
C55	C	0.934834	-0.404025	0.683919
C56	C	0.934824	-0.404042	0.613231
C57	C	0.934872	-0.403956	0.968992
C58	C	0.934887	-0.403937	1.039684
C59	C	1.021513	-0.309225	1.039716
C60	C	1.021503	-0.309242	0.969028
C61	C	0.978178	-0.356606	0.933670
C62	C	0.978170	-0.356628	0.857022
C63	C	0.978168	-0.356641	0.795930
H64	H	0.720435	-0.270709	0.247729
C65	C	0.226327	-0.456381	0.416907
C66	C	0.148574	-0.456388	0.416922
C67	C	0.109697	-0.508561	0.464460
C68	C	0.148574	-0.560725	0.511982
C69	C	0.226332	-0.560720	0.511968
C70	C	0.265208	-0.508548	0.464431
H71	H	0.119791	-0.417771	0.381742
H72	H	0.052136	-0.508564	0.464469
H73	H	0.119796	-0.599346	0.547172
H74	H	0.255115	-0.599337	0.547148
H75	H	0.322769	-0.508544	0.464421
C76	C	0.887177	-0.456146	0.574331
C77	C	0.810236	-0.450095	0.584034
C78	C	0.762586	-0.502197	0.545132
C79	C	0.791877	-0.560350	0.496528
C80	C	0.868821	-0.566402	0.486823
C81	C	0.916472	-0.514300	0.525724
H82	H	0.788550	-0.407045	0.620015
H83	H	0.705626	-0.497716	0.552317
H84	H	0.756603	-0.598919	0.467731
H85	H	0.890508	-0.609453	0.450841
H86	H	0.973431	-0.518781	0.518539
H87	H	1.056727	-0.270779	0.584508
C88	C	0.854728	-0.928426	0.362450
C89	C	0.822029	-0.911366	0.293651
C90	C	0.750768	-0.940529	0.277504
C91	C	0.712206	-0.986752	0.330155
C92	C	0.744904	-1.003815	0.398958
C93	C	0.816165	-0.974652	0.415106
H94	H	0.850576	-0.877146	0.254672
H95	H	0.726563	-0.927897	0.226571
H96	H	0.659454	-1.008341	0.318202
H97	H	0.716358	-1.038035	0.437938
H98	H	0.840371	-0.987284	0.466039
C99	C	0.887239	-0.456016	1.078547
C100	C	0.839579	-0.508111	1.039657
C101	C	0.791935	-0.560187	1.078519
C102	C	0.791950	-0.560168	1.156273
C103	C	0.839611	-0.508071	1.195167
C104	C	0.887256	-0.455995	1.156304
H105	H	0.839566	-0.508127	0.982095
H106	H	0.756652	-0.598753	1.049727
H107	H	0.756680	-0.598718	1.185041
H108	H	0.839624	-0.508055	1.252729
H109	H	0.922538	-0.417430	1.185097
C110	C	0.226327	-0.257191	0.235422
C111	C	0.177765	-0.199104	0.264855
C112	C	0.138885	-0.146937	0.217332
C113	C	0.148569	-0.152857	0.140375
C114	C	0.197133	-0.210947	0.110938
C115	C	0.236012	-0.263114	0.158462
H116	H	0.170595	-0.194719	0.321827
H117	H	0.102935	-0.103934	0.239123
H118	H	0.119788	-0.114240	0.105195
H119	H	0.204303	-0.215332	0.053967
H120	H	0.271963	-0.306117	0.136670
C121	C	1.104625	-0.784349	0.298149
C122	C	1.163945	-0.738822	0.326436
C123	C	1.219211	-0.709899	0.278565
C124	C	1.215156	-0.726502	0.202406
C125	C	1.155833	-0.772030	0.174115
C126	C	1.100568	-0.800954	0.221987
H127	H	1.166949	-0.726530	0.382817
H128	H	1.263125	-0.676195	0.299508
H129	H	1.256067	-0.705091	0.166969
H130	H	1.152829	-0.784323	0.117735
H131	H	1.056653	-0.834657	0.201043
H132	H	0.364665	-0.442822	0.404542
H133	H	1.056741	-0.270744	0.712741
H134	H	1.056772	-0.270690	0.940268
H135	H	0.364665	-0.270735	0.247751
C136	C	1.008500	-0.785823	0.200590
C137	C	0.999363	-0.809499	0.126456
C138	C	1.049081	-0.781975	0.072236
C139	C	1.107935	-0.730775	0.092151
C140	C	1.117073	-0.707096	0.166289
C141	C	1.067356	-0.734620	0.220509
H142	H	0.955794	-0.847403	0.111711
H143	H	1.042315	-0.799504	0.017355
H144	H	1.144738	-0.710400	0.052015
H145	H	1.160643	-0.669192	0.181035
H146	H	1.074122	-0.717091	0.275391
H147	H	0.906997	-0.791960	0.239053
C148	C	1.007546	-0.926988	0.200545
C149	C	0.981315	-0.975781	0.142464
C150	C	1.030408	-1.003777	0.087882
C151	C	1.105733	-0.982980	0.091380
C152	C	1.131968	-0.934185	0.149462
C153	C	1.082875	-0.906189	0.204045
H154	H	0.925551	-0.991178	0.139873
H155	H	1.010986	-1.039899	0.044885
H156	H	1.142074	-1.003705	0.050975
H157	H	1.187731	-0.918787	0.152054
H158	H	1.102296	-0.870067	0.247042
H159	H	0.592192	-0.442808	0.404525
H160	H	0.592189	-0.270722	0.247742
C161	C	0.887209	-0.456060	0.930119
C162	C	0.810272	-0.449997	0.939851
C163	C	0.762601	-0.502105	0.900982
C164	C	0.791867	-0.560275	0.852380
C165	C	0.868807	-0.566340	0.842645
C166	C	0.916478	-0.514232	0.881515
H167	H	0.788605	-0.406934	0.975831
H168	H	0.705645	-0.497614	0.908188
H169	H	0.756578	-0.598848	0.823606
H170	H	0.890474	-0.609403	0.806665
H171	H	0.973434	-0.518722	0.874308
H172	H	0.937953	-0.919817	0.431660
C173	C	0.854047	-0.786053	0.362070
C174	C	0.841807	-0.737514	0.299419
C175	C	0.770109	-0.709920	0.283053
C176	C	0.710650	-0.730864	0.329339
C177	C	0.722889	-0.779405	0.391995
C178	C	0.794587	-0.807000	0.408360
H179	H	0.885823	-0.722008	0.265151
H180	H	0.761049	-0.673986	0.236671
H181	H	0.657575	-0.710437	0.317225
H182	H	0.678873	-0.794912	0.426262
H183	H	0.803647	-0.842933	0.454742
C184	C	1.102288	-0.926280	0.292854
C185	C	1.176731	-0.902835	0.299688
C186	C	1.229244	-0.930196	0.248103
C187	C	1.207313	-0.981003	0.189684
C188	C	1.132865	-1.004451	0.182849
C189	C	1.080353	-0.977089	0.234434
H190	H	1.192970	-0.865222	0.342934
H191	H	1.284355	-0.912838	0.253163
H192	H	1.246186	-1.001257	0.151498
H193	H	1.116627	-1.042063	0.139602
H194	H	1.025242	-0.994448	0.229373
C195	C	0.942020	-0.785189	0.449896
C196	C	0.955340	-0.840392	0.507514
C197	C	0.971595	-0.811937	0.578987
C198	C	0.974532	-0.728279	0.592841
C199	C	0.961212	-0.673071	0.535221
C200	C	0.944956	-0.701526	0.463749
H201	H	0.953166	-0.902325	0.497259
H202	H	0.981455	-0.852806	0.621640
H203	H	0.986565	-0.707215	0.645750
H204	H	0.963385	-0.611138	0.545476
H205	H	0.935096	-0.660657	0.421095
C206	C	0.887738	-0.926072	0.234217
C207	C	0.858789	-0.905032	0.164667
C208	C	0.788078	-0.932110	0.143761
C209	C	0.746317	-0.980226	0.192406
C210	C	0.775266	-1.001269	0.261961
C211	C	0.845977	-0.974192	0.282867
H212	H	0.889703	-0.869411	0.128653
H213	H	0.766649	-0.916532	0.092271
H214	H	0.693973	-1.000270	0.176930
H215	H	0.744352	-1.036890	0.297975
H216	H	0.867406	-0.989769	0.334356
H217	H	0.899569	-0.442573	0.712688
H218	H	1.067374	-0.920474	0.395569
H219	H	1.063910	-0.792912	0.398501
H220	H	0.720425	-0.442805	0.404510
H221	H	1.056788	-0.270657	1.068513
