data_functionalizedCrystal
_audit_creation_method	'MofGen! by Chris Wilmer'
_symmetry_space_group_name_H-M	'P1'
_symmetry_Int_Tables_number	1
_symmetry_cell_setting	triclinic
loop_
_symmetry_equiv_pos_as_xyz
  x,y,z
_cell_length_a	15.944551
_cell_length_b	16.109301
_cell_length_c	15.186229
_cell_angle_alpha	90.002208
_cell_angle_beta	90.006780
_cell_angle_gamma	96.519891
loop_
_atom_site_label
_atom_site_type_symbol
_atom_site_fract_x
_atom_site_fract_y
_atom_site_fract_z
O1	O	0.107969	-1.103162	0.073175
O2	O	0.441303	-0.769828	0.406508
O3	O	0.774636	-0.436495	0.739841
O4	O	0.121405	-0.861104	0.073189
O5	O	0.454739	-0.527771	0.406522
O6	O	0.788072	-0.194438	0.739856
O7	O	-0.007590	-0.988743	0.073174
O8	O	0.325744	-0.655410	0.406507
O9	O	0.659077	-0.322076	0.739840
O10	O	0.236964	-0.975523	0.073190
O11	O	0.570298	-0.642190	0.406524
O12	O	0.903631	-0.308856	0.739857
O13	O	-0.007597	-0.988742	-0.073284
O14	O	0.325736	-0.655409	0.260050
O15	O	0.659069	-0.322075	0.593383
O16	O	0.121398	-0.861103	-0.073268
O17	O	0.454731	-0.527770	0.260065
O18	O	0.788064	-0.194437	0.593398
O19	O	0.107961	-1.103161	-0.073282
O20	O	0.441295	-0.769828	0.260051
O21	O	0.774628	-0.436494	0.593384
Zn22	Zn	0.114678	-0.982132	-0.096529
Zn23	Zn	0.448012	-0.648799	0.236805
Zn24	Zn	0.781345	-0.315465	0.570138
Zn25	Zn	0.114689	-0.982133	0.096435
Zn26	Zn	0.448022	-0.648800	0.429768
Zn27	Zn	0.781355	-0.315467	0.763102
O28	O	0.236957	-0.975522	-0.073267
O29	O	0.570290	-0.642189	0.260066
O30	O	0.903623	-0.308855	0.593400
C31	C	0.120857	-0.830129	-0.000038
C32	C	0.454191	-0.496795	0.333295
C33	C	0.787524	-0.163462	0.666629
C34	C	0.119226	-0.737833	-0.000033
C35	C	0.452559	-0.404499	0.333301
C36	C	0.785892	-0.071166	0.666634
N37	N	0.114689	-0.982135	0.228128
N38	N	0.448023	-0.648801	0.561461
N39	N	0.781356	-0.315468	0.894794
C40	C	-0.038887	-0.988194	-0.000055
C41	C	0.294446	-0.654860	0.333278
C42	C	0.627779	-0.321527	0.666611
C43	C	-0.132133	-0.986548	-0.000056
C44	C	0.201201	-0.653215	0.333278
C45	C	0.534534	-0.319882	0.666611
C46	C	-0.346962	-0.903499	-0.000039
C47	C	-0.013629	-0.570166	0.333295
C48	C	0.319705	-0.236832	0.666628
C49	C	-0.407996	-0.942064	-0.072253
C50	C	-0.074663	-0.608731	0.261080
C51	C	0.258671	-0.275397	0.594414
C52	C	-0.302858	-0.983572	-0.000049
C53	C	0.030476	-0.650238	0.333285
C54	C	0.363809	-0.316905	0.666618
C55	C	-0.407972	-0.942084	0.072142
C56	C	-0.074638	-0.608750	0.405476
C57	C	0.258695	-0.275417	0.738809
C58	C	-0.467769	-0.980691	-0.000038
C59	C	-0.134436	-0.647357	0.333295
C60	C	0.198897	-0.314024	0.666629
C61	C	-0.362663	-1.022159	-0.072323
C62	C	-0.029330	-0.688825	0.261011
C63	C	0.304003	-0.355492	0.594344
C64	C	-0.362633	-1.022167	0.072137
C65	C	-0.029299	-0.688834	0.405471
C66	C	0.304034	-0.355501	0.738804
C67	C	-0.423649	-1.060790	-0.000095
C68	C	-0.090316	-0.727457	0.333239
C69	C	0.243018	-0.394124	0.666572
C70	C	-0.207856	-0.985229	-0.000055
C71	C	0.125477	-0.651896	0.333278
C72	C	0.458811	-0.318563	0.666611
C73	C	-0.562770	-0.979039	-0.000038
C74	C	-0.229437	-0.645706	0.333296
C75	C	0.103897	-0.312373	0.666629
C76	C	0.268254	-0.976071	-0.000036
C77	C	0.601588	-0.642738	0.333297
C78	C	0.934921	-0.309405	0.666630
C79	C	0.361500	-0.977717	-0.000030
C80	C	0.694833	-0.644383	0.333303
C81	C	1.028166	-0.311050	0.666636
C82	C	0.108510	-1.134136	-0.000054
C83	C	0.441843	-0.800803	0.333280
C84	C	0.775176	-0.467470	0.666613
C85	C	0.110141	-1.226432	-0.000053
C86	C	0.443475	-0.893099	0.333280
C87	C	0.776808	-0.559766	0.666614
C88	C	0.191975	-0.515584	-0.000038
C89	C	0.525308	-0.182251	0.333295
C90	C	0.858641	0.151083	0.666629
C91	C	0.190435	-0.428863	-0.000044
C92	C	0.523768	-0.095530	0.333290
C93	C	0.857102	0.237804	0.666623
C94	C	0.037387	-0.448688	-0.000050
C95	C	0.370720	-0.115355	0.333283
C96	C	0.704053	0.217979	0.666616
C97	C	0.038927	-0.535407	-0.000051
C98	C	0.372260	-0.202074	0.333282
C99	C	0.705594	0.131260	0.666616
C100	C	0.116224	-0.568853	-0.000040
C101	C	0.449557	-0.235519	0.333293
C102	C	0.782890	0.097814	0.666626
C103	C	0.113143	-0.395412	-0.000045
C104	C	0.446477	-0.062079	0.333288
C105	C	0.779810	0.271254	0.666621
C106	C	0.111473	-0.301386	-0.000052
C107	C	0.444807	0.031947	0.333282
C108	C	0.778140	0.365281	0.666615
C109	C	0.117894	-0.662885	-0.000036
C110	C	0.451227	-0.329552	0.333298
C111	C	0.784561	0.003782	0.666631
N112	N	0.114671	-0.982137	-0.228221
N113	N	0.448004	-0.648804	0.105112
N114	N	0.781338	-0.315470	0.438445
C115	C	0.057681	-1.038762	0.453844
C116	C	0.391014	-0.705429	0.787177
C117	C	0.724347	-0.372096	1.120511
C118	C	0.057678	-1.038765	0.546034
C119	C	0.391012	-0.705431	0.879367
C120	C	0.724345	-0.372098	1.212700
C121	C	0.171686	-0.925507	0.546056
C122	C	0.505019	-0.592173	0.879390
C123	C	0.838352	-0.258840	1.212723
C124	C	0.171691	-0.925509	0.453868
C125	C	0.505025	-0.592176	0.787202
C126	C	0.838358	-0.258842	1.120535
C127	C	0.114684	-0.982136	0.407764
C128	C	0.448017	-0.648802	0.741098
C129	C	0.781351	-0.315469	1.074431
C130	C	0.114676	-0.982136	0.592142
C131	C	0.448010	-0.648803	0.925475
C132	C	0.781343	-0.315469	1.258809
C133	C	0.114674	-0.982138	0.692098
C134	C	0.448008	-0.648805	1.025432
C135	C	0.781341	-0.315471	1.358765
C136	C	0.114687	-0.982135	0.307802
C137	C	0.448020	-0.648802	0.641135
C138	C	0.781353	-0.315468	0.974469
H139	H	-0.313632	-0.837035	-0.000107
H140	H	0.019701	-0.503702	0.333227
H141	H	0.353034	-0.170368	0.666560
H142	H	0.254914	-0.542812	-0.000036
H143	H	0.588248	-0.209479	0.333297
H144	H	0.921581	0.123855	0.666631
Cl145	Cl	0.285669	-0.361900	-0.000042
Cl146	Cl	0.619003	-0.028567	0.333291
Cl147	Cl	0.952336	0.304767	0.666625
H148	H	-0.025546	-0.421446	-0.000064
H149	H	0.307788	-0.088112	0.333269
H150	H	0.641121	0.245221	0.666602
Cl151	Cl	-0.013985	-1.109957	0.603958
Cl152	Cl	0.319349	-0.776624	0.937291
Cl153	Cl	0.652682	-0.443291	1.270625
H154	H	-0.022762	-0.578781	-0.000055
H155	H	0.310571	-0.245448	0.333278
H156	H	0.643904	0.087886	0.666611
H157	H	-0.428096	-0.908196	-0.133301
H158	H	-0.094763	-0.574863	0.200032
H159	H	0.238570	-0.241529	0.533366
Cl160	Cl	-0.013982	-1.109953	0.395889
Cl161	Cl	0.319351	-0.776620	0.729222
Cl162	Cl	0.652684	-0.443287	1.062555
Cl163	Cl	0.243345	-0.854319	0.604019
Cl164	Cl	0.576679	-0.520985	0.937353
Cl165	Cl	0.910012	-0.187652	1.270686
Cl166	Cl	-0.474882	-1.163494	-0.000160
Cl167	Cl	-0.141548	-0.830160	0.333173
Cl168	Cl	0.191785	-0.496827	0.666507
H169	H	0.218114	-0.879397	0.416348
H170	H	0.551448	-0.546063	0.749681
H171	H	0.884781	-0.212730	1.083014
H172	H	-0.342510	-1.056006	0.133188
H173	H	-0.009177	-0.722673	0.466522
H174	H	0.324156	-0.389340	0.799855
Cl175	Cl	-0.331828	-1.074406	-0.166685
Cl176	Cl	0.001506	-0.741072	0.166648
Cl177	Cl	0.334839	-0.407739	0.499981
Cl178	Cl	-0.438968	-0.889774	0.166394
Cl179	Cl	-0.105635	-0.556441	0.499728
Cl180	Cl	0.227698	-0.223107	0.833061
