data_functionalizedCrystal
_audit_creation_method	'MofGen! by Chris Wilmer'
_symmetry_space_group_name_H-M	'P1'
_symmetry_Int_Tables_number	1
_symmetry_cell_setting	triclinic
loop_
_symmetry_equiv_pos_as_xyz
  x,y,z
_cell_length_a	21.295420
_cell_length_b	21.295417
_cell_length_c	21.295411
_cell_angle_alpha	89.979403
_cell_angle_beta	89.975307
_cell_angle_gamma	90.027953
loop_
_atom_site_label
_atom_site_type_symbol
_atom_site_fract_x
_atom_site_fract_y
_atom_site_fract_z
Zn1	Zn	0.962359	-0.250710	-0.355918
Zn2	Zn	1.462359	0.249290	0.144082
Zn3	Zn	0.962263	-0.355962	-0.250646
Zn4	Zn	1.462263	0.144038	0.249354
Zn5	Zn	0.857082	-0.250708	-0.250663
Zn6	Zn	1.357082	0.249292	0.249337
Zn7	Zn	0.857053	-0.355942	-0.355877
Zn8	Zn	1.357053	0.144058	0.144123
O9	O	0.909689	-0.303331	-0.303276
O10	O	1.409689	0.196669	0.196724
O11	O	1.050435	-0.264682	-0.341964
O12	O	1.550435	0.235318	0.158036
O13	O	0.948282	-0.342007	-0.162558
O14	O	1.448282	0.157993	0.337442
O15	O	0.871100	-0.162619	-0.264650
O16	O	1.371100	0.337381	0.235350
O17	O	1.050365	-0.342010	-0.264620
O18	O	1.550365	0.157990	0.235380
O19	O	0.948446	-0.162621	-0.341980
O20	O	1.448446	0.337379	0.158020
O21	O	0.871006	-0.264677	-0.162571
O22	O	1.371006	0.235323	0.337429
O23	O	0.768989	-0.264658	-0.264610
O24	O	1.268989	0.235342	0.235390
O25	O	0.871050	-0.341976	-0.443972
O26	O	1.371050	0.158024	0.056028
O27	O	0.768967	-0.341973	-0.341910
O28	O	1.268967	0.158027	0.158090
O29	O	0.948418	-0.264662	-0.444002
O30	O	1.448418	0.235338	0.055998
O31	O	0.948254	-0.444049	-0.264580
O32	O	1.448254	0.055951	0.235420
O33	O	0.870957	-0.444034	-0.341893
O34	O	1.370957	0.055966	0.158107
C35	C	0.746138	-0.303314	-0.303258
C36	C	1.246138	0.196686	0.196742
C37	C	0.676169	-0.303321	-0.303265
C38	C	1.176169	0.196679	0.196735
C39	C	0.176717	-0.343663	-0.343487
C40	C	0.676717	0.156337	0.156513
C41	C	0.242459	-0.343663	-0.343480
C42	C	0.742459	0.156337	0.156520
C43	C	0.275330	-0.303345	-0.303296
C44	C	0.775330	0.196655	0.196704
C45	C	0.242453	-0.263035	-0.263103
C46	C	0.742453	0.236965	0.236897
C47	C	0.176711	-0.263040	-0.263106
C48	C	0.676711	0.236960	0.236894
N49	N	0.378570	-0.248227	-0.298562
N50	N	0.878570	0.251773	0.201438
N51	N	0.441021	-0.248224	-0.298563
N52	N	0.941021	0.251776	0.201437
C53	C	0.473405	-0.303327	-0.303282
C54	C	0.973405	0.196673	0.196718
N55	N	0.440977	-0.358435	-0.308014
N56	N	0.940977	0.141565	0.191986
N57	N	0.378520	-0.358438	-0.308017
N58	N	0.878520	0.141562	0.191983
C59	C	0.346615	-0.303335	-0.303287
C60	C	0.846615	0.196665	0.196713
C61	C	0.577560	-0.343638	-0.343462
C62	C	1.077560	0.156362	0.156538
C63	C	0.643303	-0.343639	-0.343451
C64	C	1.143303	0.156361	0.156549
C65	C	0.643295	-0.263005	-0.263077
C66	C	1.143295	0.236995	0.236923
C67	C	0.577553	-0.263010	-0.263085
C68	C	1.077553	0.236990	0.236915
C69	C	0.544689	-0.303325	-0.303281
C70	C	1.044689	0.196675	0.196719
C71	C	0.909609	-0.466882	-0.303244
C72	C	1.409609	0.033118	0.196756
C73	C	0.909632	-0.536850	-0.303251
C74	C	1.409632	-0.036850	0.196749
C75	C	0.949883	-0.569661	-0.343546
C76	C	1.449883	-0.069661	0.156454
C77	C	0.949906	-0.635403	-0.343562
C78	C	1.449906	-0.135403	0.156438
C79	C	0.909683	-0.668333	-0.303271
C80	C	1.409683	-0.168333	0.196729
C81	C	0.869424	-0.635514	-0.262974
C82	C	1.369424	-0.135514	0.237026
C83	C	0.869399	-0.569773	-0.262964
C84	C	1.369399	-0.069773	0.237036
N85	N	0.904924	-0.771585	-0.248180
N86	N	1.404924	-0.271585	0.251820
N87	N	0.904952	-0.834036	-0.248191
N88	N	1.404952	-0.334036	0.251809
C89	C	0.909757	-0.866407	-0.303300
C90	C	1.409757	-0.366407	0.196700
N91	N	0.914545	-0.833968	-0.358398
N92	N	1.414545	-0.333968	0.141602
N93	N	0.914520	-0.771511	-0.358386
N94	N	1.414520	-0.271511	0.141614
C95	C	0.909706	-0.739618	-0.303278
C96	C	1.409706	-0.239618	0.196722
C97	C	0.950034	-0.970504	-0.343615
C98	C	1.450034	-0.470504	0.156385
C99	C	0.950052	-1.036247	-0.343631
C100	C	1.450052	-0.536247	0.156369
C101	C	0.869574	-1.036357	-0.263038
C102	C	1.369574	-0.536357	0.236962
C103	C	0.869553	-0.970615	-0.263027
C104	C	1.369553	-0.470615	0.236973
C105	C	0.909786	-0.937692	-0.303314
C106	C	1.409786	-0.437692	0.196686
C107	C	1.073879	-0.303348	-0.303294
C108	C	1.573879	0.196652	0.196706
C109	C	1.143847	-0.303356	-0.303302
C110	C	1.643847	0.196644	0.196698
C111	C	0.909741	-0.303317	-0.467466
C112	C	1.409741	0.196683	0.032534
C113	C	0.909764	-0.303312	-0.537434
C114	C	1.409764	0.196688	-0.037434
C115	C	0.909787	-0.139140	-0.303322
C116	C	1.409787	0.360860	0.196678
C117	C	0.909828	-0.069172	-0.303341
C118	C	1.409828	0.430828	0.196659
C119	C	0.950047	-0.263053	-0.570318
C120	C	1.450047	0.236947	-0.070318
C121	C	0.950046	-0.263025	-0.636060
C122	C	1.450046	0.236975	-0.136060
C123	C	0.909769	-0.303268	-0.668917
C124	C	1.409769	0.196732	-0.168917
C125	C	0.869477	-0.343530	-0.636026
C126	C	1.369477	0.156470	-0.136026
C127	C	0.869475	-0.343552	-0.570284
C128	C	1.369475	0.156448	-0.070284
N129	N	0.904913	-0.358336	-0.772133
N130	N	1.404913	0.141664	-0.272133
N131	N	0.904919	-0.358314	-0.834585
N132	N	1.404919	0.141686	-0.334585
C133	C	0.909773	-0.303204	-0.866992
C134	C	1.409773	0.196796	-0.366992
N135	N	0.914632	-0.248117	-0.834588
N136	N	1.414632	0.251883	-0.334588
N137	N	0.914630	-0.248141	-0.772131
N138	N	1.414630	0.251859	-0.272131
C139	C	0.909766	-0.303249	-0.740202
C140	C	1.409766	0.196751	-0.240202
C141	C	0.950057	-0.262913	-0.971161
C142	C	1.450057	0.237087	-0.471161
C143	C	0.950052	-0.262884	-1.036905
C144	C	1.450052	0.237116	-0.536905
C145	C	0.869486	-0.343394	-1.036869
C146	C	1.369486	0.156606	-0.536869
C147	C	0.869488	-0.343417	-0.971126
C148	C	1.369488	0.156583	-0.471126
C149	C	0.909777	-0.303177	-0.938276
C150	C	1.409777	0.196823	-0.438276
C151	C	0.909673	-0.303298	-0.139724
C152	C	1.409673	0.196702	0.360276
C153	C	0.909773	-0.303127	-0.069757
C154	C	1.409773	0.196873	0.430243
H155	H	0.550800	-0.376466	-0.376191
H156	H	1.050800	0.123534	0.123809
O157	O	0.830387	-0.537829	-0.223786
O158	O	1.330387	-0.037829	0.276214
C159	C	0.866233	-0.499805	-0.183144
C160	C	1.366233	0.000195	0.316856
H161	H	0.913924	-0.489906	-0.205387
H162	H	1.413924	0.010094	0.294613
H163	H	0.873180	-0.525161	-0.136505
H164	H	1.373180	-0.025161	0.363495
C165	C	0.773008	-0.449551	-0.144385
C166	C	1.273008	0.050449	0.355615
C167	C	0.831581	-0.437388	-0.171707
C168	C	1.331581	0.062612	0.328293
H169	H	0.751632	-0.411050	-0.137327
H170	H	1.251632	0.088950	0.362673
H171	H	0.748857	-0.475169	-0.171765
H172	H	1.248857	0.024831	0.328235
H173	H	0.778805	-0.470682	-0.105522
H174	H	1.278805	0.029318	0.394478
H175	H	0.825783	-0.416264	-0.210572
H176	H	1.325783	0.083736	0.289428
H177	H	0.855731	-0.411764	-0.144333
H178	H	1.355731	0.088236	0.355667
H179	H	0.982860	-0.230143	-0.944413
H180	H	1.482860	0.269857	-0.444413
O181	O	0.830466	-1.068404	-0.223989
O182	O	1.330466	-0.568404	0.276011
C183	C	0.789794	-1.106432	-0.259801
C184	C	1.289794	-0.606432	0.240199
H185	H	0.811979	-1.116239	-0.307526
H186	H	1.311979	-0.616239	0.192474
H187	H	0.743135	-1.081128	-0.266674
H188	H	1.243135	-0.581128	0.233326
C189	C	0.751181	-1.156862	-0.166549
C190	C	1.251181	-0.656862	0.333451
C191	C	0.778431	-1.168911	-0.225164
C192	C	1.278431	-0.668911	0.274836
H193	H	0.744168	-1.195401	-0.145184
H194	H	1.244168	-0.695401	0.354816
H195	H	0.778580	-1.131240	-0.142422
H196	H	1.278580	-0.631240	0.357578
H197	H	0.712300	-1.135774	-0.172285
H198	H	1.212300	-0.635774	0.327715
H199	H	0.817313	-1.189991	-0.219428
H200	H	1.317313	-0.689991	0.280572
H201	H	0.751038	-1.194538	-0.249291
H202	H	1.251038	-0.694538	0.250709
O203	O	0.989039	-0.938544	-0.382845
O204	O	1.489039	-0.438544	0.117155
C205	C	0.975260	-0.954597	-0.445573
C206	C	1.475260	-0.454597	0.054427
H207	H	0.924977	-0.972714	-0.448702
H208	H	1.424977	-0.472714	0.051298
H209	H	1.009016	-0.992717	-0.462070
H210	H	1.509016	-0.492717	0.037930
C211	C	1.044293	-0.873916	-0.483736
C212	C	1.544293	-0.373916	0.016264
C213	C	0.982533	-0.896162	-0.487581
C214	C	1.482533	-0.396162	0.012419
H215	H	1.048782	-0.837872	-0.509650
H216	H	1.548782	-0.337872	-0.009650
H217	H	1.053579	-0.863102	-0.441476
H218	H	1.553579	-0.363102	0.058524
H219	H	1.072416	-0.905689	-0.497483
H220	H	1.572416	-0.405689	0.002517
H221	H	0.954412	-0.864393	-0.473827
H222	H	1.454412	-0.364393	0.026173
H223	H	0.973243	-0.906970	-0.529840
H224	H	1.473243	-0.406970	-0.029840
H225	H	0.982829	-1.062960	-0.376447
H226	H	1.482829	-0.562960	0.123553
H227	H	0.982642	-0.542857	-0.376352
H228	H	1.482642	-0.042857	0.123648
O229	O	0.274425	-0.382884	-0.382431
O230	O	0.774425	0.117116	0.117569
C231	C	0.312433	-0.423479	-0.346524
C232	C	0.812433	0.076521	0.153476
H233	H	0.292597	-0.427307	-0.296940
H234	H	0.792597	0.072693	0.203060
H235	H	0.362263	-0.404006	-0.344386
H236	H	0.862263	0.095994	0.155614
C237	C	0.337799	-0.484257	-0.438071
C238	C	0.837799	0.015743	0.061929
C239	C	0.313432	-0.488963	-0.377172
C240	C	0.813432	0.011037	0.122828
H241	H	0.338418	-0.524649	-0.456976
H242	H	0.838418	-0.024649	0.043024
H243	H	0.312194	-0.456906	-0.462263
H244	H	0.812194	0.043094	0.037737
H245	H	0.379321	-0.468027	-0.436280
H246	H	0.879321	0.031973	0.063720
H247	H	0.271908	-0.505185	-0.378964
H248	H	0.771908	-0.005185	0.121036
H249	H	0.339031	-0.516318	-0.352981
H250	H	0.839031	-0.016318	0.147019
O251	O	0.989198	-0.223901	-0.538506
O252	O	1.489198	0.276099	-0.038506
C253	C	1.024765	-0.188372	-0.581633
C254	C	1.524765	0.311628	-0.081633
H255	H	0.998984	-0.186176	-0.628486
H256	H	1.498984	0.313824	-0.128486
H257	H	1.072560	-0.211427	-0.588641
H258	H	1.572560	0.288573	-0.088641
C259	C	1.065541	-0.124080	-0.498439
C260	C	1.565541	0.375920	0.001561
C261	C	1.033875	-0.121379	-0.555983
C262	C	1.533875	0.378621	-0.055983
H263	H	1.071164	-0.082756	-0.482617
H264	H	1.571164	0.417244	0.017383
H265	H	1.041582	-0.148018	-0.469383
H266	H	1.541582	0.351982	0.030617
H267	H	1.105367	-0.143296	-0.504287
H268	H	1.605367	0.356704	-0.004287
H269	H	0.994047	-0.102171	-0.550133
H270	H	1.494047	0.397829	-0.050133
H271	H	1.057828	-0.097436	-0.585038
H272	H	1.557828	0.402564	-0.085038
H273	H	0.670064	-0.376467	-0.376173
H274	H	1.170064	0.123533	0.123827
O275	O	0.830438	-0.938836	-0.223818
O276	O	1.330438	-0.438836	0.276182
C277	C	0.794930	-0.981995	-0.188270
C278	C	1.294930	-0.481995	0.311730
H279	H	0.820731	-1.028837	-0.186123
H280	H	1.320731	-0.528837	0.313877
H281	H	0.747111	-0.989015	-0.211277
H282	H	1.247111	-0.489015	0.288723
C283	C	0.754193	-0.898848	-0.123897
C284	C	1.254193	-0.398848	0.376103
C285	C	0.785886	-0.956379	-0.121256
C286	C	1.285886	-0.456379	0.378744
H287	H	0.748611	-0.883047	-0.082561
H288	H	1.248611	-0.383047	0.417439
H289	H	0.778114	-0.869771	-0.147848
H290	H	1.278114	-0.369771	0.352152
H291	H	0.714348	-0.904706	-0.143073
H292	H	1.214348	-0.404706	0.356927
H293	H	0.825733	-0.950519	-0.102088
H294	H	1.325733	-0.450519	0.397912
H295	H	0.761971	-0.985455	-0.097300
H296	H	1.261971	-0.485455	0.402700
H297	H	0.670058	-0.230180	-0.230355
H298	H	1.170058	0.269820	0.269645
H299	H	0.269220	-0.230208	-0.230383
H300	H	0.769220	0.269792	0.269617
O301	O	0.545717	-0.223790	-0.224034
O302	O	1.045717	0.276210	0.275966
C303	C	0.588824	-0.188214	-0.188552
C304	C	1.088824	0.311786	0.311448
H305	H	0.635701	-0.186068	-0.214336
H306	H	1.135701	0.313932	0.285664
H307	H	0.595783	-0.211196	-0.140701
H308	H	1.095783	0.288804	0.359299
C309	C	0.505616	-0.123842	-0.147933
C310	C	1.005616	0.376158	0.352067
C311	C	0.563189	-0.121202	-0.179604
C312	C	1.063189	0.378798	0.320396
H313	H	0.489802	-0.082506	-0.142411
H314	H	0.989802	0.417494	0.357589
H315	H	0.476573	-0.147811	-0.171836
H316	H	0.976573	0.352189	0.328164
H317	H	0.511422	-0.142997	-0.108061
H318	H	1.011422	0.357003	0.391939
H319	H	0.557380	-0.102055	-0.219479
H320	H	1.057380	0.397945	0.280521
H321	H	0.592230	-0.097227	-0.155708
H322	H	1.092230	0.402773	0.344292
H323	H	0.982849	-0.230238	-0.662839
H324	H	1.482849	0.269762	-0.162839
H325	H	0.836688	-0.376204	-0.944352
H326	H	1.336688	0.123796	-0.444352
H327	H	0.836681	-0.376294	-0.662782
H328	H	1.336681	0.123706	-0.162782
O329	O	0.830326	-0.382725	-0.538436
O330	O	1.330326	0.117275	-0.038436
C331	C	0.794760	-0.418228	-0.581529
C332	C	1.294760	0.081772	-0.081529
H333	H	0.820540	-0.420392	-0.628404
H334	H	1.320540	0.079608	-0.128404
H335	H	0.746964	-0.395170	-0.588497
H336	H	1.246964	0.104830	-0.088497
C337	C	0.753988	-0.482576	-0.498295
C338	C	1.253988	0.017424	0.001705
C339	C	0.785654	-0.485238	-0.555867
C340	C	1.285654	0.014762	-0.055867
H341	H	0.748368	-0.523910	-0.482465
H342	H	1.248368	-0.023910	0.017535
H343	H	0.777947	-0.458656	-0.469262
H344	H	1.277947	0.041344	0.030738
H345	H	0.714161	-0.463358	-0.504110
H346	H	1.214161	0.036642	-0.004110
H347	H	0.825483	-0.504448	-0.550050
H348	H	1.325483	-0.004448	-0.050050
H349	H	0.761702	-0.509163	-0.584899
H350	H	1.261702	-0.009163	-0.084899
H351	H	0.982678	-0.662123	-0.376382
H352	H	1.482678	-0.162123	0.123618
H353	H	0.836673	-0.662330	-0.230170
H354	H	1.336673	-0.162330	0.269830
H355	H	0.982855	-0.230097	-1.063677
H356	H	1.482855	0.269903	-0.563677
H357	H	0.149963	-0.376493	-0.376216
H358	H	0.649963	0.123507	0.123784
H359	H	0.149950	-0.230215	-0.230383
H360	H	0.649950	0.269785	0.269617
H361	H	0.836685	-0.376155	-1.063620
H362	H	1.336685	0.123845	-0.563620
