data_functionalizedCrystal
_audit_creation_method	'MofGen! by Chris Wilmer'
_symmetry_space_group_name_H-M	'P1'
_symmetry_Int_Tables_number	1
_symmetry_cell_setting	triclinic
loop_
_symmetry_equiv_pos_as_xyz
  x,y,z
_cell_length_a	19.805407
_cell_length_b	12.827892
_cell_length_c	19.805399
_cell_angle_alpha	90.022529
_cell_angle_beta	90.017803
_cell_angle_gamma	90.012708
loop_
_atom_site_label
_atom_site_type_symbol
_atom_site_fract_x
_atom_site_fract_y
_atom_site_fract_z
Zn1	Zn	1.034787	-0.416132	0.382711
Zn2	Zn	1.034724	-0.590887	0.269533
Zn3	Zn	0.921602	-0.416153	0.269540
Zn4	Zn	0.921587	-0.590824	0.382683
O5	O	0.978175	-0.503499	0.326117
O6	O	1.129496	-0.439332	0.367707
O7	O	1.019698	-0.567744	0.174817
O8	O	0.936649	-0.269914	0.284566
O9	O	1.129449	-0.567724	0.284556
O10	O	1.019806	-0.269899	0.367713
O11	O	0.936588	-0.439367	0.174822
O12	O	0.826884	-0.439305	0.284539
O13	O	0.936624	-0.567615	0.477404
O14	O	0.826873	-0.567635	0.367666
O15	O	1.019792	-0.439270	0.477424
O16	O	1.019684	-0.737115	0.284528
O17	O	0.936563	-0.737068	0.367659
C18	C	0.802319	-0.503466	0.326100
C19	C	0.727087	-0.503477	0.326109
C20	C	0.691768	-0.436742	0.369472
C21	C	0.621080	-0.436747	0.369475
C22	C	0.585712	-0.503494	0.326118
C23	C	0.621036	-0.570233	0.282750
C24	C	0.691723	-0.570221	0.282744
C25	C	0.335963	-0.570280	0.282771
C26	C	0.265271	-0.570288	0.282781
C27	C	0.265319	-0.436806	0.369501
C28	C	0.336006	-0.436794	0.369496
C29	C	0.371324	-0.503528	0.326126
C30	C	0.447973	-0.503520	0.326123
C31	C	0.509065	-0.503509	0.326124
C32	C	0.978133	-0.775009	0.326105
C33	C	0.978177	-0.891162	0.326122
C34	C	1.019356	-0.942935	0.285032
C35	C	1.019403	-1.062986	0.285049
C36	C	1.154718	-0.503533	0.326134
C37	C	1.229950	-0.503547	0.326141
C38	C	0.978213	-0.503433	0.502660
C39	C	0.978229	-0.503405	0.577892
C40	C	0.978236	-0.230929	0.326144
C41	C	0.978262	-0.114776	0.326155
C42	C	0.978176	-0.503489	0.150261
C43	C	0.978291	-0.503223	0.075029
C44	C	1.021536	-0.436572	0.613248
C45	C	1.021543	-0.436542	0.683936
C46	C	0.978246	-0.503350	0.719267
C47	C	0.934935	-0.570186	0.683906
C48	C	0.934925	-0.570210	0.613219
C49	C	0.934973	-0.570089	0.968980
C50	C	0.934988	-0.570061	1.039672
C51	C	1.021591	-0.436420	1.039697
C52	C	1.021581	-0.436445	0.969010
C53	C	0.978268	-0.503276	0.933655
C54	C	0.978260	-0.503307	0.857006
C55	C	0.978257	-0.503326	0.795915
H56	H	0.720479	-0.624563	0.247433
F57	F	1.065399	-0.884708	0.239037
F58	F	1.067622	-0.365470	0.575652
H59	H	0.364799	-0.382446	0.404804
H60	H	1.054656	-1.107509	0.249869
H61	H	0.364710	-0.624620	0.247457
F62	F	0.227631	-0.641331	0.236631
F63	F	0.888903	-0.641171	1.077273
H64	H	0.899680	-0.624579	0.712679
H65	H	0.943002	-1.070260	0.361333
H66	H	0.899715	-0.624522	0.940203
H67	H	0.236555	-0.382464	0.404813
H68	H	0.592234	-0.624574	0.247444
F69	F	0.932142	-0.949389	0.372125
H70	H	1.056809	-0.382123	0.712720
H71	H	1.056840	-0.382046	0.940246
F72	F	1.067687	-0.365289	1.077329
H73	H	0.720560	-0.382391	0.404781
F74	F	0.583493	-0.365720	0.415629
H75	H	0.899654	-0.624622	0.584433
