data_functionalizedCrystal
_audit_creation_method	'MofGen! by Chris Wilmer'
_symmetry_space_group_name_H-M	'P1'
_symmetry_Int_Tables_number	1
_symmetry_cell_setting	triclinic
loop_
_symmetry_equiv_pos_as_xyz
  x,y,z
_cell_length_a	8.497374
_cell_length_b	12.827893
_cell_length_c	12.827885
_cell_angle_alpha	90.019272
_cell_angle_beta	89.982760
_cell_angle_gamma	89.998747
loop_
_atom_site_label
_atom_site_type_symbol
_atom_site_fract_x
_atom_site_fract_y
_atom_site_fract_z
Zn1	Zn	0.627973	1.597773	0.590940
Zn2	Zn	0.891822	1.597711	0.416238
Zn3	Zn	0.628050	1.423015	0.416213
Zn4	Zn	0.891705	1.423044	0.590938
O5	O	0.759888	1.510386	0.503582
O6	O	0.662989	1.744001	0.567776
O7	O	0.856913	1.574499	0.269999
O8	O	0.407278	1.446211	0.439381
O9	O	0.856838	1.743955	0.439424
O10	O	0.407221	1.574605	0.567752
O11	O	0.663122	1.446151	0.269981
O12	O	0.663009	1.276783	0.439380
O13	O	0.856639	1.446260	0.737175
O14	O	0.856715	1.276804	0.567750
O15	O	0.662876	1.574633	0.737176
O16	O	1.112569	1.574527	0.439423
O17	O	1.112483	1.446200	0.567774
C18	C	0.759859	1.238876	0.503563
C19	C	0.759884	1.122723	0.503579
C20	C	0.855683	0.950871	0.440000
C21	C	0.855659	1.070922	0.439982
C22	C	1.169767	1.510373	0.503598
C23	C	1.348412	1.510400	0.503580
C24	C	0.759736	1.510457	0.776153
C25	C	0.759672	1.510487	0.892306
C26	C	0.759918	1.782956	0.503603
C27	C	0.759931	1.899109	0.503612
C28	C	0.759925	1.510375	0.232073
C29	C	0.759545	1.510547	0.115920
C30	C	0.663773	1.574017	0.944091
C31	C	0.663704	1.574050	1.064142
H32	H	0.937671	0.906310	0.385549
O33	O	0.565808	1.638736	0.890847
C34	C	0.464003	1.579174	0.827720
H35	H	0.519658	1.499954	0.811476
H36	H	0.443023	1.621650	0.750924
H37	H	0.347007	1.567756	0.869711
H38	H	0.841658	1.456158	1.071393
O39	O	0.565797	1.638840	1.117423
C40	C	0.587540	1.624460	1.225425
H41	H	0.639218	1.543803	1.240224
H42	H	0.469405	1.631524	1.266973
H43	H	0.671576	1.686424	1.256410
H44	H	0.677908	1.078215	0.558046
O45	O	0.857786	1.445676	0.945317
C46	C	1.015073	1.468494	0.918751
H47	H	1.018498	1.508575	0.839480
H48	H	1.085814	1.393068	0.915124
H49	H	1.068094	1.522289	0.980165
H50	H	0.677929	0.943670	0.558054
O51	O	0.953316	1.124179	0.375042
C52	C	0.931572	1.232186	0.389494
H53	H	0.809863	1.246997	0.423850
H54	H	0.942070	1.273705	0.311240
H55	H	1.025198	1.263194	0.445076
