data_functionalizedCrystal
_audit_creation_method	'MofGen! by Chris Wilmer'
_symmetry_space_group_name_H-M	'P1'
_symmetry_Int_Tables_number	1
_symmetry_cell_setting	triclinic
loop_
_symmetry_equiv_pos_as_xyz
  x,y,z
_cell_length_a	16.109318
_cell_length_b	12.996460
_cell_length_c	16.109301
_cell_angle_alpha	89.998286
_cell_angle_beta	96.534978
_cell_angle_gamma	90.002628
loop_
_atom_site_label
_atom_site_type_symbol
_atom_site_fract_x
_atom_site_fract_y
_atom_site_fract_z
O1	O	1.103126	0.085485	-0.106930
O2	O	0.861066	0.085506	-0.120214
O3	O	0.988745	0.085484	0.007458
O4	O	0.975446	0.085506	-0.234603
O5	O	0.988729	-0.085650	0.007451
O6	O	0.861049	-0.085628	-0.120222
O7	O	1.103109	-0.085649	-0.106937
Cu8	Cu	0.982078	-0.101265	-0.113580
Cu9	Cu	0.982097	0.101121	-0.113572
O10	O	0.975430	-0.085628	-0.234610
C11	C	0.830083	-0.000059	-0.119677
C12	C	0.737788	-0.000051	-0.118057
C13	C	0.438723	0.093216	-0.112818
C14	C	0.525445	0.093222	-0.114335
C15	C	0.525446	-0.093357	-0.114332
C16	C	0.438727	-0.093363	-0.112808
C17	C	0.395367	-0.000073	-0.112056
C18	C	0.568807	-0.000061	-0.115096
C19	C	0.662835	-0.000055	-0.116742
C20	C	0.301334	-0.000079	-0.110409
N21	N	0.982070	-0.243612	-0.113586
C22	C	0.982074	-0.336718	-0.113588
C23	C	0.982081	-0.453523	-0.113582
C24	C	0.982092	-0.546621	-0.113573
C25	C	0.982101	-0.663434	-0.113569
C26	C	1.134092	-0.000083	-0.107474
C27	C	1.226387	-0.000084	-0.109095
C28	C	0.988198	-0.000083	0.038430
C29	C	0.986583	-0.000085	0.130725
N30	N	0.982111	0.243468	-0.113559
C31	C	0.975976	-0.000058	-0.265581
C32	C	0.977592	-0.000050	-0.357877
C33	C	1.058590	-0.000075	0.352993
C34	C	1.057066	-0.000066	0.439713
C35	C	0.905579	-0.000057	0.419848
C36	C	0.907104	-0.000058	0.333130
C37	C	0.983612	-0.000072	0.299704
C38	C	0.980563	-0.000062	0.473144
C39	C	0.978910	-0.000053	0.567170
C40	C	0.985265	-0.000080	0.205672
H41	H	0.403423	0.169178	-0.112204
F42	F	1.140017	-0.000089	0.317422
F43	F	0.824158	-0.000041	0.455430
F44	F	1.136869	-0.000067	0.496424
F45	F	0.827297	-0.000048	0.276412
F46	F	0.571584	0.192513	-0.115143
H47	H	0.560759	-0.169310	-0.114946
H48	H	0.403425	-0.169334	-0.112187
