data_functionalizedCrystal
_audit_creation_method	'MofGen! by Chris Wilmer'
_symmetry_space_group_name_H-M	'P1'
_symmetry_Int_Tables_number	1
_symmetry_cell_setting	triclinic
loop_
_symmetry_equiv_pos_as_xyz
  x,y,z
_cell_length_a	14.908558
_cell_length_b	11.169416
_cell_length_c	14.908308
_cell_angle_alpha	86.725012
_cell_angle_beta	90.175599
_cell_angle_gamma	93.291225
loop_
_atom_site_label
_atom_site_type_symbol
_atom_site_fract_x
_atom_site_fract_y
_atom_site_fract_z
Zn1	Zn	1.345355	0.626364	-0.587635
Zn2	Zn	1.845355	1.126364	-0.087635
Zn3	Zn	1.353952	0.816202	-0.437294
Zn4	Zn	1.853952	1.316202	0.062706
Zn5	Zn	1.203668	0.603308	-0.428631
Zn6	Zn	1.703668	1.103308	0.071369
Zn7	Zn	1.194979	0.814772	-0.578947
Zn8	Zn	1.694979	1.314772	-0.078947
O9	O	1.274488	0.715162	-0.508127
O10	O	1.774488	1.215162	-0.008127
O11	O	1.472322	0.661794	-0.574953
O12	O	1.972322	1.161794	-0.074953
O13	O	1.341251	0.778910	-0.310320
O14	O	1.841251	1.278910	0.189680
O15	O	1.222501	0.438421	-0.449734
O16	O	1.722501	0.938421	0.050266
O17	O	1.478639	0.801266	-0.464499
O18	O	1.978639	1.301266	0.035501
O19	O	1.326597	0.455360	-0.566553
O20	O	1.826597	0.955360	-0.066553
O21	O	1.230837	0.622499	-0.303955
O22	O	1.730837	1.122499	0.196045
O23	O	1.076688	0.621113	-0.441310
O24	O	1.576688	1.121113	0.058690
O25	O	1.207693	0.798830	-0.705925
O26	O	1.707693	1.298830	-0.205925
O27	O	1.070305	0.776474	-0.551746
O28	O	1.570305	1.276474	-0.051746
O29	O	1.318173	0.660408	-0.712308
O30	O	1.818173	1.160408	-0.212308
O31	O	1.332826	0.983958	-0.456075
O32	O	1.832826	1.483958	0.043925
O33	O	1.216030	0.982908	-0.560146
O34	O	1.716030	1.482908	-0.060146
C35	C	1.040871	0.696137	-0.494646
C36	C	1.540871	1.196137	0.005354
C37	C	0.940927	0.688029	-0.488900
C38	C	1.440927	1.188029	0.011100
C39	C	0.803352	0.595607	-0.423397
C40	C	1.303352	1.095607	0.076603
C41	C	0.897258	0.603219	-0.428793
C42	C	1.397258	1.103219	0.071207
C43	C	0.890682	0.765230	-0.543618
C44	C	1.390682	1.265230	-0.043618
C45	C	0.796775	0.757618	-0.538223
C46	C	1.296775	1.257618	-0.038223
C47	C	0.753114	0.672805	-0.478110
C48	C	1.253114	1.172805	0.021890
C49	C	0.659206	0.665199	-0.472710
C50	C	1.159206	1.165199	0.027290
C51	C	0.652631	0.827204	-0.587540
C52	C	1.152631	1.327204	-0.087540
C53	C	0.746537	0.834816	-0.592935
C54	C	1.246537	1.334816	-0.092935
C55	C	1.274441	1.026983	-0.508129
C56	C	1.774441	1.526983	-0.008129
C57	C	1.274502	1.160390	-0.508165
C58	C	1.774502	1.660390	-0.008165
C59	C	1.509018	0.734261	-0.521661
C60	C	2.009018	1.234261	-0.021661
C61	C	1.608961	0.742400	-0.527429
C62	C	2.108961	1.242400	-0.027429
C63	C	1.261005	0.732031	-0.742654
C64	C	1.761005	1.232031	-0.242654
C65	C	1.255259	0.739220	-0.842595
C66	C	1.755259	1.239220	-0.342595
C67	C	1.274550	1.402126	-0.508155
C68	C	1.774550	1.902126	-0.008155
C69	C	1.274551	1.268729	-0.508189
C70	C	1.774551	1.768729	-0.008189
C71	C	1.359502	0.608561	-1.037044
C72	C	1.859502	1.108561	-0.537044
C73	C	1.354106	0.615312	-1.130948
C74	C	1.854106	1.115312	-0.630948
C75	C	1.239067	0.759465	-1.124309
C76	C	1.739067	1.259465	-0.624309
C77	C	1.244463	0.752714	-1.030405
C78	C	1.744463	1.252714	-0.530405
C79	C	1.304683	0.677261	-0.986776
C80	C	1.804683	1.177261	-0.486776
C81	C	1.310083	0.670518	-0.892870
C82	C	1.810083	1.170518	-0.392870
C83	C	1.195040	0.814664	-0.886233
C84	C	1.695040	1.314664	-0.386233
C85	C	1.189644	0.821414	-0.980137
C86	C	1.689644	1.321414	-0.480137
C87	C	1.287971	0.698275	-0.274515
C88	C	1.787971	1.198275	0.225485
C89	C	1.293891	0.690762	-0.174584
C90	C	1.793891	1.190762	0.325416
H91	H	0.611717	0.890065	-0.632090
H92	H	1.111717	1.390065	-0.132090
Cl93	Cl	1.126131	0.901049	-0.823034
Cl94	Cl	1.626131	1.401049	-0.323034
Cl95	Cl	0.945587	0.871860	-0.619169
Cl96	Cl	1.445587	1.371860	-0.119169
Cl97	Cl	0.960412	0.506163	-0.360010
Cl98	Cl	1.460412	1.006163	0.139990
Cl99	Cl	1.113942	0.916263	-1.034994
Cl100	Cl	1.613942	1.416263	-0.534994
H101	H	0.767802	0.526551	-0.374449
H102	H	1.267802	1.026551	0.125551
H103	H	1.190038	0.820895	-1.159849
H104	H	1.690038	1.320895	-0.659849
H105	H	0.623658	0.596139	-0.423764
H106	H	1.123658	1.096139	0.076236
H107	H	0.782099	0.903865	-0.641880
H108	H	1.282099	1.403865	-0.141880
Cl109	Cl	1.385790	0.575667	-0.838023
Cl110	Cl	1.885790	1.075667	-0.338023
H111	H	1.408540	0.547131	-1.001521
H112	H	1.908540	1.047131	-0.501521
H113	H	1.398743	0.559366	-1.171873
H114	H	1.898743	1.059366	-0.671873
