data_functionalizedCrystal
_audit_creation_method	'MofGen! by Chris Wilmer'
_symmetry_space_group_name_H-M	'P1'
_symmetry_Int_Tables_number	1
_symmetry_cell_setting	triclinic
loop_
_symmetry_equiv_pos_as_xyz
  x,y,z
_cell_length_a	14.971490
_cell_length_b	13.330367
_cell_length_c	14.971486
_cell_angle_alpha	90.004849
_cell_angle_beta	96.385112
_cell_angle_gamma	89.990111
loop_
_atom_site_label
_atom_site_type_symbol
_atom_site_fract_x
_atom_site_fract_y
_atom_site_fract_z
O1	O	-1.186947	0.083478	0.116578
O2	O	-0.926547	0.083468	0.130533
O3	O	-1.063726	0.083466	-0.006644
O4	O	-1.049767	0.083480	0.253756
O5	O	-1.063706	-0.083381	-0.006647
O6	O	-0.926527	-0.083379	0.130530
O7	O	-1.186927	-0.083369	0.116575
Cu8	Cu	-1.056725	-0.098608	0.123552
Cu9	Cu	-1.056749	0.098708	0.123556
O10	O	-1.049748	-0.083367	0.253752
C11	C	-0.893212	0.000044	0.129907
C12	C	-0.793915	0.000040	0.128035
N13	N	-1.056715	-0.237390	0.123549
C14	C	-0.366220	0.091007	0.119959
C15	C	-0.459521	0.091004	0.121715
C16	C	-0.506156	0.000053	0.122597
C17	C	-0.459487	-0.090902	0.121714
C18	C	-0.366189	-0.090898	0.119951
C19	C	-0.653949	-0.090904	0.125390
C20	C	-0.747253	-0.090908	0.127155
C21	C	-0.747280	0.090998	0.127154
C22	C	-0.653983	0.091002	0.125391
C23	C	-0.607320	0.000047	0.124510
C24	C	-0.996003	-0.710012	0.184274
C25	C	-1.117518	-0.709981	0.062831
C26	C	-1.117508	-0.604963	0.062828
C27	C	-1.056745	-0.552464	0.123550
C28	C	-0.995993	-0.604984	0.184275
C29	C	-1.178266	-0.552436	0.002110
C30	C	-1.178259	-0.447411	0.002105
C31	C	-1.117491	-0.394910	0.062824
C32	C	-1.056735	-0.447436	0.123551
C33	C	-0.995973	-0.394937	0.184273
C34	C	-0.935212	-0.447461	0.244997
C35	C	-0.935225	-0.552483	0.244994
C36	C	-1.117478	-0.289889	0.062827
C37	C	-0.995962	-0.289909	0.184274
C38	C	-0.220261	0.000056	0.117202
C39	C	-0.319558	0.000059	0.119078
C40	C	-1.063092	0.000043	-0.039971
C41	C	-1.061221	0.000044	-0.139268
N42	N	-1.056766	0.237489	0.123552
C43	C	-1.141810	0.000046	-0.196492
C44	C	-1.140047	0.000056	-0.289791
C45	C	-1.057694	0.000057	-0.325865
C46	C	-0.977099	0.000058	-0.268633
C47	C	-0.978863	0.000055	-0.175336
C48	C	-0.973428	0.000061	-0.463096
C49	C	-0.971663	0.000062	-0.556400
C50	C	-1.134612	0.000063	-0.577552
C51	C	-1.136376	0.000060	-0.484254
C52	C	-1.055780	0.000059	-0.427029
C53	C	-1.050382	0.000059	0.287079
C54	C	-1.052252	0.000064	0.386376
H55	H	-0.497510	0.165063	0.122426
H56	H	-1.166952	-0.247128	0.013391
C57	C	-1.184352	-0.767727	-0.003958
H58	H	-1.175654	-0.837797	0.004736
H59	H	-1.244053	-0.750495	0.005851
H60	H	-1.174567	-0.750528	-0.063674
C61	C	-0.929127	-0.232164	0.251071
H62	H	-0.937819	-0.162093	0.242376
H63	H	-0.938901	-0.249372	0.310783
H64	H	-0.869422	-0.249390	0.241251
H65	H	-0.497465	-0.164956	0.122427
C66	C	-0.868378	-0.389706	0.311788
H67	H	-0.877078	-0.319637	0.303086
H68	H	-0.878148	-0.406908	0.371502
H69	H	-0.808673	-0.406927	0.301967
H70	H	-0.785278	0.165057	0.127873
C71	C	-0.868368	-0.610255	0.311756
H72	H	-0.832162	-0.563950	0.347906
H73	H	-0.900554	-0.651229	0.349056
H74	H	-0.831120	-0.651221	0.279480
C75	C	-0.602686	0.191046	0.124416
H76	H	-0.643839	0.245215	0.125183
H77	H	-0.559521	0.194836	0.175845
H78	H	-0.573063	0.194814	0.071599
H79	H	-0.946530	-0.752779	0.233712
C80	C	-0.798557	-0.190951	0.128070
H81	H	-0.757409	-0.245121	0.127265
H82	H	-0.828204	-0.194767	0.180863
H83	H	-0.841704	-0.194693	0.076616
H84	H	-1.203435	0.000052	-0.454886
H85	H	-1.208872	0.000040	-0.167129
H86	H	-0.615957	-0.164969	0.124683
H87	H	-0.907798	0.000063	-0.416505
C88	C	-0.890218	0.000053	-0.112385
H89	H	-0.903062	0.000062	-0.051654
H90	H	-0.856441	-0.058129	-0.123330
H91	H	-0.856465	0.058245	-0.123327
C92	C	-1.228695	0.000049	-0.352734
H93	H	-1.277994	0.000033	-0.317888
H94	H	-1.231410	0.058232	-0.389567
H95	H	-1.231380	-0.058142	-0.389572
H96	H	-0.328196	-0.164957	0.119244
H97	H	-1.227741	-0.595184	-0.047324
H98	H	-1.227732	-0.404652	-0.047339
C99	C	-1.223266	0.000082	-0.640495
H100	H	-1.210423	0.000100	-0.701226
H101	H	-1.257028	-0.058099	-0.629563
H102	H	-1.257031	0.058275	-0.629538
C103	C	-0.881080	0.000067	-0.596084
H104	H	-0.891576	0.000056	-0.659845
H105	H	-0.847901	0.058251	-0.576449
H106	H	-0.847883	-0.058123	-0.576452
C107	C	-0.314929	0.191055	0.118996
H108	H	-0.356087	0.245219	0.119766
H109	H	-0.271769	0.194841	0.170429
H110	H	-0.285301	0.194836	0.066183
C111	C	-0.886510	0.000066	-0.308307
H112	H	-0.838766	0.000075	-0.260862
H113	H	-0.882422	-0.058114	-0.344269
H114	H	-0.882447	0.058259	-0.344256
