data_functionalizedCrystal
_audit_creation_method	'MofGen! by Chris Wilmer'
_symmetry_space_group_name_H-M	'P1'
_symmetry_Int_Tables_number	1
_symmetry_cell_setting	triclinic
loop_
_symmetry_equiv_pos_as_xyz
  x,y,z
_cell_length_a	12.759401
_cell_length_b	12.759394
_cell_length_c	12.759393
_cell_angle_alpha	89.970474
_cell_angle_beta	89.980404
_cell_angle_gamma	90.014133
loop_
_atom_site_label
_atom_site_type_symbol
_atom_site_fract_x
_atom_site_fract_y
_atom_site_fract_z
Zn1	Zn	1.606273	-0.418208	-0.593990
Zn2	Zn	2.106273	0.081792	-0.093990
Zn3	Zn	1.606166	-0.593924	-0.418313
Zn4	Zn	2.106166	-0.093924	0.081687
Zn5	Zn	1.430571	-0.418260	-0.418329
Zn6	Zn	1.930571	0.081740	0.081671
Zn7	Zn	1.430566	-0.593846	-0.593954
Zn8	Zn	1.930566	-0.093846	-0.093954
O9	O	1.518394	-0.506059	-0.506146
O10	O	2.018394	-0.006059	-0.006146
O11	O	1.753279	-0.441527	-0.570694
O12	O	2.253279	0.058473	-0.070694
O13	O	1.582831	-0.570676	-0.271294
O14	O	2.082831	-0.070676	0.228706
O15	O	1.453925	-0.271232	-0.441652
O16	O	1.953925	0.228768	0.058348
O17	O	1.753201	-0.570625	-0.441625
O18	O	2.253201	-0.070625	0.058375
O19	O	1.583012	-0.271194	-0.570709
O20	O	2.083012	0.228806	-0.070709
O21	O	1.453822	-0.441616	-0.271306
O22	O	1.953822	0.058384	0.228694
O23	O	1.283549	-0.441541	-0.441618
O24	O	1.783549	0.058459	0.058382
O25	O	1.453916	-0.570493	-0.740980
O26	O	1.953916	-0.070493	-0.240980
O27	O	1.283545	-0.570544	-0.570649
O28	O	1.783545	-0.070544	-0.070649
O29	O	1.583007	-0.441453	-0.741006
O30	O	2.083007	0.058547	-0.241006
O31	O	1.582826	-0.740934	-0.441590
O32	O	2.082826	-0.240934	0.058410
O33	O	1.453813	-0.740878	-0.570633
O34	O	1.953813	-0.240878	-0.070633
C35	C	1.245427	-0.506041	-0.506132
C36	C	1.745427	-0.006041	-0.006132
C37	C	1.128650	-0.506058	-0.506151
C38	C	1.628650	-0.006058	-0.006151
C39	C	0.964082	-0.573348	-0.573238
C40	C	1.464082	-0.073348	-0.073238
C41	C	1.073806	-0.573336	-0.573228
C42	C	1.573806	-0.073336	-0.073228
C43	C	1.073764	-0.438795	-0.439073
C44	C	1.573764	0.061205	0.060927
C45	C	0.964042	-0.438813	-0.439079
C46	C	1.464042	0.061187	0.060921
C47	C	1.518336	-0.779027	-0.506129
C48	C	2.018336	-0.279027	-0.006129
C49	C	1.518407	-0.895804	-0.506157
C50	C	2.018407	-0.395804	-0.006157
C51	C	1.652724	-0.895606	-0.640645
C52	C	2.152724	-0.395606	-0.140645
C53	C	1.719916	-0.950367	-0.707897
C54	C	2.219916	-0.450367	-0.207897
C55	C	1.719979	-1.060089	-0.707919
C56	C	2.219979	-0.560089	-0.207919
C57	C	1.652840	-1.115051	-0.640685
C58	C	2.152840	-0.615051	-0.140685
C59	C	1.585648	-1.060289	-0.573433
C60	C	2.085648	-0.560289	-0.073433
C61	C	1.585595	-0.950565	-0.573415
C62	C	2.085595	-0.450565	-0.073415
C63	C	1.451326	-1.060488	-0.438952
C64	C	1.951326	-0.560488	0.061048
C65	C	1.451268	-0.950766	-0.438922
C66	C	1.951268	-0.450766	0.061078
C67	C	1.384187	-1.115450	-0.371718
C68	C	1.884187	-0.615450	0.128282
C69	C	1.316999	-1.060688	-0.304459
C70	C	1.816999	-0.560688	0.195541
C71	C	1.316940	-0.950960	-0.304438
C72	C	1.816940	-0.450960	0.195562
C73	C	1.384076	-0.896004	-0.371670
C74	C	1.884076	-0.396004	0.128330
C75	C	1.792427	-0.506079	-0.506161
C76	C	2.292427	-0.006079	-0.006161
C77	C	1.909204	-0.506087	-0.506168
C78	C	2.409204	-0.006087	-0.006168
C79	C	1.518473	-0.505959	-0.780180
C80	C	2.018473	-0.005959	-0.280180
C81	C	1.518506	-0.505916	-0.896956
C82	C	2.018506	-0.005916	-0.396956
C83	C	1.518481	-0.232026	-0.506187
C84	C	2.018481	0.267974	-0.006187
C85	C	1.518518	-0.115249	-0.506204
C86	C	2.018518	0.384751	-0.006204
C87	C	1.585729	-0.438713	-0.951834
C88	C	2.085729	0.061287	-0.451834
C89	C	1.585746	-0.438668	-1.061558
C90	C	2.085746	0.061332	-0.561558
C91	C	1.451316	-0.573036	-1.061518
C92	C	1.951316	-0.073036	-0.561518
C93	C	1.451294	-0.573076	-0.951796
C94	C	1.951294	-0.073076	-0.451796
C95	C	1.518376	-0.506084	-0.233179
C96	C	2.018376	-0.006084	0.266821
C97	C	1.518546	-0.505831	-0.116403
C98	C	2.018546	-0.005831	0.383597
H99	H	1.652690	-0.806264	-0.640623
H100	H	2.152690	-0.306264	-0.140623
H101	H	1.774578	-0.905607	-0.762640
H102	H	2.274578	-0.405607	-0.262640
H103	H	1.118426	-0.384020	-0.384453
H104	H	1.618426	0.115980	0.115547
N105	N	1.792455	-1.119157	-0.780447
N106	N	2.292455	-0.619157	-0.280447
H107	H	1.782304	-1.197004	-0.770254
H108	H	2.282304	-0.697004	-0.270254
H109	H	1.776063	-1.099944	-0.855468
H110	H	2.276063	-0.599944	-0.355468
N111	N	0.904930	-0.645918	-0.645579
N112	N	1.404930	-0.145918	-0.145579
H113	H	0.859429	-0.603292	-0.694346
H114	H	1.359429	-0.103292	-0.194346
H115	H	0.956414	-0.688514	-0.687993
H116	H	1.456414	-0.188514	-0.187993
N117	N	1.244600	-1.119969	-0.231944
N118	N	1.744600	-0.619969	0.268056
H119	H	1.202029	-1.068632	-0.189331
H120	H	1.702029	-0.568632	0.310669
H121	H	1.195983	-1.165497	-0.274683
H122	H	1.695983	-0.665497	0.225317
N123	N	1.378764	-0.645552	-0.892613
N124	N	1.878764	-0.145552	-0.392613
H125	H	1.395047	-0.720618	-0.911692
H126	H	1.895047	-0.220618	-0.411692
H127	H	1.388967	-0.635297	-0.814801
H128	H	1.888967	-0.135297	-0.314801
N129	N	1.132994	-0.645874	-0.645578
N130	N	1.632994	-0.145874	-0.145578
H131	H	1.210824	-0.635660	-0.635394
H132	H	1.710824	-0.135660	-0.135394
H133	H	1.113798	-0.720892	-0.629102
H134	H	1.613798	-0.220892	-0.129102
H135	H	0.919359	-0.384039	-0.384457
H136	H	1.419359	0.115961	0.115543
H137	H	1.652888	-1.204392	-0.640718
H138	H	2.152888	-0.704392	-0.140718
H139	H	1.384239	-1.204791	-0.371745
H140	H	1.884239	-0.704791	0.128255
N141	N	1.244463	-0.891898	-0.231906
N142	N	1.744463	-0.391898	0.268094
H143	H	1.201944	-0.943369	-0.189323
H144	H	1.701944	-0.443369	0.310677
H145	H	1.287223	-0.846376	-0.183306
H146	H	1.787223	-0.346376	0.316694
H147	H	1.384039	-0.806663	-0.371656
H148	H	1.884039	-0.306663	0.128344
H149	H	1.640454	-0.384024	-0.907187
H150	H	2.140454	0.115976	-0.407187
N151	N	1.378839	-0.645468	-1.120685
N152	N	1.878839	-0.145468	-0.620685
H153	H	1.395122	-0.720546	-1.101586
H154	H	1.895122	-0.220546	-0.601586
H155	H	1.303801	-0.629061	-1.101567
H156	H	1.803801	-0.129061	-0.601567
N157	N	1.658239	-0.366174	-1.120748
N158	N	2.158239	0.133826	-0.620748
H159	H	1.700807	-0.323634	-1.069355
H160	H	2.200807	0.176366	-0.569355
H161	H	1.706855	-0.408918	-1.166281
H162	H	2.206855	0.091082	-0.666281
