data_functionalizedCrystal
_audit_creation_method	'MofGen! by Chris Wilmer'
_symmetry_space_group_name_H-M	'P1'
_symmetry_Int_Tables_number	1
_symmetry_cell_setting	triclinic
loop_
_symmetry_equiv_pos_as_xyz
  x,y,z
_cell_length_a	12.645331
_cell_length_b	25.639239
_cell_length_c	12.645323
_cell_angle_alpha	90.031874
_cell_angle_beta	90.022822
_cell_angle_gamma	90.038900
loop_
_atom_site_label
_atom_site_type_symbol
_atom_site_fract_x
_atom_site_fract_y
_atom_site_fract_z
Zn1	Zn	1.620577	-0.208144	0.599399
Zn2	Zn	1.620393	-0.295583	0.422117
Zn3	Zn	1.443291	-0.208163	0.422143
Zn4	Zn	1.443208	-0.295550	0.599332
O5	O	1.531867	-0.251860	0.510748
O6	O	1.768900	-0.219748	0.575899
O7	O	1.596858	-0.284008	0.273773
O8	O	1.466920	-0.134995	0.445695
O9	O	1.768765	-0.283989	0.445651
O10	O	1.597171	-0.134981	0.575924
O11	O	1.466742	-0.219781	0.273792
O12	O	1.294933	-0.219750	0.445630
O13	O	1.466778	-0.283934	0.747688
O14	O	1.294872	-0.283953	0.575810
O15	O	1.597090	-0.219717	0.747737
O16	O	1.596778	-0.368743	0.445587
O17	O	1.466600	-0.368720	0.575786
C18	C	1.256438	-0.251850	0.510716
C19	C	1.138607	-0.251859	0.510728
C20	C	1.093729	-0.211406	0.428965
C21	C	0.971169	-0.211257	0.429245
C22	C	0.970789	-0.237165	0.622639
C23	C	1.093387	-0.236863	0.622129
C24	C	1.093351	-0.307126	0.481636
C25	C	0.970744	-0.306838	0.479210
C26	C	1.531689	-0.387703	0.510699
C27	C	1.531710	-0.445817	0.510714
C28	C	1.599827	-0.806179	0.443069
C29	C	1.599869	-0.860784	0.443083
O30	O	1.657600	-0.889020	0.385515
N31	N	1.532054	-0.888099	0.510818
C32	C	1.464201	-0.860807	0.578551
O33	O	1.406523	-0.889055	0.636167
C34	C	1.464166	-0.806204	0.578541
C35	C	1.531978	-0.778891	0.510794
C36	C	1.667635	-0.778867	0.375328
C37	C	1.667592	-0.724266	0.375312
C38	C	1.599742	-0.696978	0.443038
C39	C	1.531935	-0.724291	0.510779
C40	C	1.396319	-0.778913	0.646279
C41	C	1.396290	-0.724306	0.646264
C42	C	1.464102	-0.696993	0.578517
C43	C	1.464042	-0.642402	0.578489
N44	N	1.531857	-0.615087	0.510754
C45	C	1.599707	-0.642375	0.443028
C46	C	1.464281	-0.975478	0.578567
C47	C	1.464309	-1.030080	0.578572
C48	C	1.599979	-1.030053	0.443105
C49	C	1.599944	-0.975449	0.443096
C50	C	1.532096	-0.948162	0.510832
C51	C	1.599611	-0.527710	0.443001
C52	C	1.599560	-0.473105	0.442988
C53	C	1.463894	-0.473137	0.578459
C54	C	1.463942	-0.527737	0.578468
C55	C	1.531809	-0.555022	0.510735
O56	O	1.406343	-0.614131	0.636030
O57	O	1.657385	-0.614120	0.385432
C58	C	1.808372	-0.251870	0.510780
C59	C	1.926203	-0.251874	0.510793
C60	C	1.531945	-0.251819	0.787253
C61	C	1.531979	-0.251802	0.905083
C62	C	1.532075	-0.115487	0.510820
C63	C	1.532164	-0.057373	0.510850
C64	C	1.531850	-0.251862	0.235318
C65	C	1.532023	-0.251732	0.117488
C66	C	1.449747	-0.292011	1.072617
C67	C	1.449962	-0.292210	0.950057
C68	C	1.643667	-0.266755	0.949600
C69	C	1.643216	-0.267007	1.072198
C70	C	1.503579	-0.196416	1.072295
C71	C	1.501086	-0.196748	0.949688
H72	H	0.941018	-0.220433	0.346327
F73	F	0.930728	-0.184957	0.655359
F74	F	1.671843	-0.556741	0.370912
F75	F	1.674734	-0.319862	1.109584
H76	H	1.408727	-0.549976	0.633636
F77	F	1.573703	-0.155448	0.909687
H78	H	1.655230	-1.052281	0.387963
H79	H	1.408649	-0.450910	0.633597
F80	F	1.133677	-0.324680	0.376803
H81	H	0.941668	-0.265733	0.685252
F82	F	1.739779	-0.695205	0.303218
H83	H	1.722892	-0.801079	0.320177
H84	H	1.409021	-0.953263	0.633723
F85	F	0.932645	-0.321342	0.371620
H86	H	1.706611	-0.238346	0.920472
H87	H	1.655163	-0.953215	0.387931
F88	F	0.930766	-0.348321	0.551362
H89	H	1.123081	-0.265058	0.685159
H90	H	1.409080	-1.052313	0.633729
F91	F	1.324077	-0.695268	0.718363
F92	F	1.581906	-0.157192	1.110226
H93	H	1.341094	-0.801141	0.701441
F94	F	1.131307	-0.346520	0.559453
F95	F	1.726011	-0.230303	1.111003
F96	F	1.341709	-0.279977	0.910711
F97	F	1.341166	-0.279896	1.111133
F98	F	1.393649	-0.182010	0.911669
F99	F	1.130836	-0.184068	0.654271
F100	F	1.132184	-0.223249	0.320220
F101	F	1.398981	-0.178600	1.112689
F102	F	1.671737	-0.444040	0.370879
F103	F	1.473996	-0.345272	1.112947
F104	F	1.675731	-0.319056	0.909477
F105	F	1.134057	-0.158181	0.453886
F106	F	0.932894	-0.157734	0.454502
F107	F	1.474550	-0.345806	0.911723
