data_functionalizedCrystal
_audit_creation_method	'MofGen! by Chris Wilmer'
_symmetry_space_group_name_H-M	'P1'
_symmetry_Int_Tables_number	1
_symmetry_cell_setting	triclinic
loop_
_symmetry_equiv_pos_as_xyz
  x,y,z
_cell_length_a	21.295419
_cell_length_b	21.295417
_cell_length_c	21.295411
_cell_angle_alpha	89.979403
_cell_angle_beta	89.975461
_cell_angle_gamma	90.044503
loop_
_atom_site_label
_atom_site_type_symbol
_atom_site_fract_x
_atom_site_fract_y
_atom_site_fract_z
Zn1	Zn	0.962359	-0.250432	-0.355916
Zn2	Zn	1.295692	0.082901	-0.022582
Zn3	Zn	1.629026	0.416234	0.310751
Zn4	Zn	0.962263	-0.355684	-0.250643
Zn5	Zn	1.295596	-0.022351	0.082690
Zn6	Zn	1.628930	0.310982	0.416024
Zn7	Zn	0.857082	-0.250460	-0.250661
Zn8	Zn	1.190416	0.082873	0.082673
Zn9	Zn	1.523749	0.416207	0.416006
Zn10	Zn	0.857053	-0.355695	-0.355875
Zn11	Zn	1.190386	-0.022361	-0.022541
Zn12	Zn	1.523720	0.310972	0.310792
O13	O	0.909689	-0.303068	-0.303274
O14	O	1.243023	0.030266	0.030060
O15	O	1.576356	0.363599	0.363393
O16	O	1.050436	-0.264378	-0.341961
O17	O	1.383769	0.068955	-0.008627
O18	O	1.717102	0.402288	0.324706
O19	O	0.948282	-0.341733	-0.162556
O20	O	1.281616	-0.008400	0.170777
O21	O	1.614949	0.324934	0.504111
O22	O	0.871100	-0.162367	-0.264648
O23	O	1.204433	0.170966	0.068686
O24	O	1.537767	0.504300	0.402019
O25	O	1.050365	-0.341706	-0.264617
O26	O	1.383698	-0.008373	0.068716
O27	O	1.717032	0.324960	0.402049
O28	O	0.948446	-0.162347	-0.341978
O29	O	1.281780	0.170987	-0.008645
O30	O	1.615113	0.504320	0.324689
O31	O	0.871007	-0.264425	-0.162569
O32	O	1.204340	0.068908	0.170764
O33	O	1.537673	0.402241	0.504098
O34	O	0.768989	-0.264436	-0.264608
O35	O	1.102322	0.068898	0.068725
O36	O	1.435656	0.402231	0.402059
O37	O	0.871050	-0.341724	-0.443970
O38	O	1.204384	-0.008391	-0.110636
O39	O	1.537717	0.324942	0.222697
O40	O	0.768968	-0.341751	-0.341908
O41	O	1.102301	-0.008418	-0.008575
O42	O	1.435634	0.324915	0.324758
O43	O	0.948418	-0.264388	-0.444000
O44	O	1.281751	0.068945	-0.110666
O45	O	1.615085	0.402278	0.222667
O46	O	0.948254	-0.443775	-0.264578
O47	O	1.281588	-0.110442	0.068756
O48	O	1.614921	0.222892	0.402089
O49	O	0.870957	-0.443783	-0.341891
O50	O	1.204290	-0.110449	-0.008558
O51	O	1.537624	0.222884	0.324776
C52	C	0.746138	-0.303098	-0.303256
C53	C	1.079471	0.030235	0.030077
C54	C	1.412804	0.363569	0.363411
C55	C	0.676170	-0.303126	-0.303263
C56	C	1.009503	0.030207	0.030070
C57	C	1.342836	0.363541	0.363403
C58	C	0.643362	-0.262927	-0.343598
C59	C	0.976695	0.070406	-0.010265
C60	C	1.310029	0.403739	0.323068
C61	C	0.577620	-0.262910	-0.343601
C62	C	0.910953	0.070423	-0.010267
C63	C	1.244286	0.403756	0.323066
C64	C	0.544687	-0.303104	-0.303275
C65	C	0.878020	0.030230	0.030059
C66	C	1.211354	0.363563	0.363392
C67	C	0.577502	-0.343305	-0.262932
C68	C	0.910836	-0.009972	0.070401
C69	C	1.244169	0.323361	0.403735
C70	C	0.643244	-0.343317	-0.262926
C71	C	0.976577	-0.009983	0.070407
C72	C	1.309910	0.323350	0.403740
N73	N	0.441412	-0.358181	-0.298356
N74	N	0.774746	-0.024847	0.034977
N75	N	1.108079	0.308486	0.368311
N76	N	0.378961	-0.358168	-0.298365
N77	N	0.712294	-0.024835	0.034968
N78	N	1.045628	0.308498	0.368301
C79	C	0.346612	-0.303071	-0.303289
C80	C	0.679946	0.030262	0.030045
C81	C	1.013279	0.363596	0.363378
N82	N	0.379074	-0.247985	-0.308215
N83	N	0.712408	0.085348	0.025118
N84	N	1.045741	0.418681	0.358452
N85	N	0.441532	-0.247999	-0.308209
N86	N	0.774865	0.085335	0.025124
N87	N	1.108198	0.418668	0.358458
C88	C	0.473402	-0.303095	-0.303276
C89	C	0.806735	0.030238	0.030057
C90	C	1.140068	0.363571	0.363390
C91	C	0.242519	-0.262850	-0.343628
C92	C	0.575853	0.070483	-0.010295
C93	C	0.909186	0.403816	0.323038
C94	C	0.176776	-0.262832	-0.343626
C95	C	0.510109	0.070501	-0.010293
C96	C	0.843442	0.403834	0.323040
C97	C	0.176660	-0.343233	-0.262961
C98	C	0.509993	-0.009900	0.070372
C99	C	0.843326	0.323434	0.403706
C100	C	0.242402	-0.343245	-0.262960
C101	C	0.575736	-0.009912	0.070374
C102	C	0.909069	0.323421	0.403707
C103	C	0.275328	-0.303055	-0.303297
C104	C	0.608661	0.030278	0.030037
C105	C	0.941995	0.363612	0.363370
C106	C	0.909609	-0.466619	-0.303242
C107	C	1.242942	-0.133286	0.030092
C108	C	1.576276	0.200047	0.363425
C109	C	0.909632	-0.536588	-0.303249
C110	C	1.242966	-0.203254	0.030084
C111	C	1.576299	0.130079	0.363418
C112	C	0.949884	-0.569386	-0.343544
C113	C	1.283217	-0.236053	-0.010210
C114	C	1.616550	0.097280	0.323123
C115	C	0.949906	-0.635129	-0.343559
C116	C	1.283239	-0.301796	-0.010226
C117	C	1.616572	0.031538	0.323107
C118	C	0.909683	-0.668070	-0.303269
C119	C	1.243017	-0.334737	0.030064
C120	C	1.576350	-0.001403	0.363398
C121	C	0.869424	-0.635263	-0.262971
C122	C	1.202758	-0.301930	0.070362
C123	C	1.536091	0.031403	0.403695
C124	C	0.869399	-0.569522	-0.262962
C125	C	1.202732	-0.236189	0.070372
C126	C	1.536065	0.097145	0.403705
N127	N	0.904924	-0.771324	-0.248178
N128	N	1.238257	-0.437990	0.085155
N129	N	1.571591	-0.104657	0.418489
N130	N	0.904952	-0.833775	-0.248189
N131	N	1.238285	-0.500442	0.085144
N132	N	1.571619	-0.167108	0.418478
C133	C	0.909757	-0.866145	-0.303297
C134	C	1.243090	-0.532811	0.030036
C135	C	1.576424	-0.199478	0.363369
N136	N	0.914545	-0.833704	-0.358395
N137	N	1.247879	-0.500370	-0.025062
N138	N	1.581212	-0.167037	0.308271
N139	N	0.914521	-0.771247	-0.358383
N140	N	1.247854	-0.437913	-0.025050
N141	N	1.581187	-0.104580	0.308283
C142	C	0.909706	-0.739355	-0.303276
C143	C	1.243040	-0.406022	0.030058
C144	C	1.576373	-0.072689	0.363391
C145	C	0.950034	-0.970229	-0.343612
C146	C	1.283368	-0.636896	-0.010279
C147	C	1.616701	-0.303562	0.323054
C148	C	0.950052	-1.035973	-0.343629
C149	C	1.283386	-0.702640	-0.010296
C150	C	1.616719	-0.369306	0.323038
C151	C	0.869574	-1.036106	-0.263035
C152	C	1.202907	-0.702772	0.070298
C153	C	1.536241	-0.369439	0.403631
C154	C	0.869553	-0.970363	-0.263024
C155	C	1.202886	-0.637030	0.070309
C156	C	1.536220	-0.303697	0.403642
C157	C	0.909786	-0.937429	-0.303312
C158	C	1.243120	-0.604096	0.030021
C159	C	1.576453	-0.270762	0.363355
C160	C	1.073880	-0.303038	-0.303292
C161	C	1.407213	0.030295	0.030042
C162	C	1.740546	0.363629	0.363375
C163	C	1.143848	-0.303025	-0.303299
C164	C	1.477181	0.030308	0.030034
C165	C	1.810514	0.363641	0.363367
C166	C	0.909742	-0.303055	-0.467464
C167	C	1.243075	0.030279	-0.134131
C168	C	1.576408	0.363612	0.199203
C169	C	0.909764	-0.303049	-0.537432
C170	C	1.243097	0.030284	-0.204099
C171	C	1.576430	0.363618	0.129235
C172	C	0.909787	-0.138878	-0.303319
C173	C	1.243120	0.194456	0.030014
C174	C	1.576454	0.527789	0.363347
C175	C	0.909829	-0.068909	-0.303339
C176	C	1.243162	0.264424	0.029994
C177	C	1.576495	0.597757	0.363328
C178	C	0.950048	-0.262778	-0.570315
C179	C	1.283381	0.070555	-0.236982
C180	C	1.616714	0.403888	0.096351
C181	C	0.950047	-0.262751	-0.636058
C182	C	1.283380	0.070582	-0.302725
C183	C	1.616713	0.403916	0.030609
C184	C	0.909769	-0.303006	-0.668915
C185	C	1.243102	0.030328	-0.335581
C186	C	1.576435	0.363661	-0.002248
C187	C	0.869477	-0.343279	-0.636023
C188	C	1.202811	-0.009946	-0.302690
C189	C	1.536144	0.323388	0.030643
C190	C	0.869475	-0.343301	-0.570282
C191	C	1.202808	-0.009967	-0.236949
C192	C	1.536141	0.323366	0.096385
N193	N	0.904913	-0.358075	-0.772131
N194	N	1.238246	-0.024741	-0.438798
N195	N	1.571579	0.308592	-0.105464
N196	N	0.904919	-0.358052	-0.834582
N197	N	1.238252	-0.024719	-0.501249
N198	N	1.571585	0.308615	-0.167916
C199	C	0.909773	-0.302942	-0.866989
C200	C	1.243106	0.030392	-0.533656
C201	C	1.576439	0.363725	-0.200323
N202	N	0.914633	-0.247853	-0.834586
N203	N	1.247966	0.085480	-0.501252
N204	N	1.581299	0.418813	-0.167919
N205	N	0.914630	-0.247876	-0.772128
N206	N	1.247963	0.085457	-0.438795
N207	N	1.581297	0.418790	-0.105462
C208	C	0.909767	-0.302986	-0.740200
C209	C	1.243100	0.030347	-0.406867
C210	C	1.576433	0.363680	-0.073533
C211	C	0.950058	-0.262638	-0.971158
C212	C	1.283391	0.070695	-0.637825
C213	C	1.616724	0.404029	-0.304492
C214	C	0.950052	-0.262610	-1.036902
C215	C	1.283386	0.070724	-0.703569
C216	C	1.616719	0.404057	-0.370235
C217	C	0.869486	-0.343143	-1.036866
C218	C	1.202820	-0.009810	-0.703533
C219	C	1.536153	0.323523	-0.370200
C220	C	0.869488	-0.343166	-0.971124
C221	C	1.202821	-0.009833	-0.637790
C222	C	1.536155	0.323501	-0.304457
C223	C	0.909777	-0.302914	-0.938274
C224	C	1.243111	0.030419	-0.604940
C225	C	1.576444	0.363752	-0.271607
C226	C	0.909674	-0.303036	-0.139722
C227	C	1.243007	0.030298	0.193611
C228	C	1.576340	0.363631	0.526945
C229	C	0.909773	-0.302864	-0.069754
C230	C	1.243107	0.030469	0.263579
C231	C	1.576440	0.363803	0.596912
H232	H	0.149847	-0.375959	-0.230127
H233	H	0.483180	-0.042626	0.103207
H234	H	0.816513	0.290708	0.436540
C235	C	0.278492	-0.387473	-0.218593
C236	C	0.611825	-0.054140	0.114741
C237	C	0.945158	0.279194	0.448074
N238	N	0.305674	-0.420787	-0.185172
N239	N	0.639008	-0.087453	0.148161
N240	N	0.972341	0.245880	0.481494
C241	C	0.994145	-0.533162	-0.387858
C242	C	1.327479	-0.199829	-0.054525
C243	C	1.660812	0.133504	0.278809
N244	N	1.027485	-0.505877	-0.421234
N245	N	1.360819	-0.172544	-0.087901
N246	N	1.694152	0.160789	0.245432
C247	C	0.825175	-0.387470	-0.934951
C248	C	1.158508	-0.054137	-0.601617
C249	C	1.491842	0.279196	-0.268284
N250	N	0.791795	-0.420841	-0.907705
N251	N	1.125128	-0.087507	-0.574372
N252	N	1.458461	0.245826	-0.241039
H253	H	0.150065	-0.230094	-0.376471
H254	H	0.483398	0.103240	-0.043138
H255	H	0.816732	0.436573	0.290196
C256	C	0.994283	-0.933999	-0.387938
C257	C	1.327616	-0.600666	-0.054604
C258	C	1.660950	-0.267332	0.278729
N259	N	1.027610	-0.906712	-0.421326
N260	N	1.360943	-0.573379	-0.087992
N261	N	1.694276	-0.240046	0.245341
H262	H	0.982678	-0.661839	-0.376379
H263	H	1.316011	-0.328506	-0.043046
H264	H	1.649345	0.004828	0.290287
H265	H	0.982853	-0.230001	-0.543573
H266	H	1.316187	0.103332	-0.210240
H267	H	1.649520	0.436665	0.123094
H268	H	0.670166	-0.230200	-0.376443
H269	H	1.003500	0.103133	-0.043110
H270	H	1.336833	0.436466	0.290223
H271	H	0.982849	-0.229954	-0.662837
H272	H	1.316182	0.103379	-0.329503
H273	H	1.649516	0.436712	0.003830
C274	C	0.541275	-0.387518	-0.218574
C275	C	0.874609	-0.054185	0.114760
C276	C	1.207942	0.279148	0.448093
N277	N	0.513989	-0.420820	-0.185161
N278	N	0.847322	-0.087486	0.148173
N279	N	1.180656	0.245847	0.481506
C280	C	0.278740	-0.218635	-0.387994
C281	C	0.612073	0.114699	-0.054660
C282	C	0.945407	0.448032	0.278673
N283	N	0.306020	-0.185330	-0.421409
N284	N	0.639353	0.148003	-0.088076
N285	N	0.972686	0.481337	0.245257
C286	C	0.994337	-1.072051	-0.387956
C287	C	1.327671	-0.738718	-0.054622
C288	C	1.661004	-0.405385	0.278711
N289	N	1.027696	-1.099226	-0.421341
N290	N	1.361029	-0.765893	-0.088008
N291	N	1.694363	-0.432560	0.245325
C292	C	0.825169	-0.387556	-0.672167
C293	C	1.158502	-0.054223	-0.338834
C294	C	1.491835	0.279110	-0.005500
N295	N	0.791791	-0.420905	-0.699390
N296	N	1.125125	-0.087572	-0.366057
N297	N	1.458458	0.245762	-0.032724
C298	C	0.994370	-0.218355	-0.935021
C299	C	1.327704	0.114978	-0.601688
C300	C	1.661037	0.448312	-0.268354
N301	N	1.027746	-0.185000	-0.907804
N302	N	1.361079	0.148333	-0.574471
N303	N	1.694413	0.481667	-0.241138
H304	H	0.982855	-0.229813	-1.063675
H305	H	1.316189	0.103520	-0.730341
H306	H	1.649522	0.436854	-0.397008
H307	H	0.550903	-0.230172	-0.376445
H308	H	0.884236	0.103161	-0.043112
H309	H	1.217569	0.436494	0.290221
C310	C	0.825204	-0.671500	-0.218628
C311	C	1.158537	-0.338166	0.114706
C312	C	1.491871	-0.004833	0.448039
N313	N	0.791903	-0.698793	-0.185219
N314	N	1.125237	-0.365460	0.148115
N315	N	1.458570	-0.032126	0.481448
H316	H	0.836621	-0.542817	-0.230148
H317	H	1.169954	-0.209483	0.103185
H318	H	1.503287	0.123850	0.436518
C319	C	0.679333	-0.387543	-0.218556
C320	C	1.012666	-0.054210	0.114778
C321	C	1.346000	0.279123	0.448111
N322	N	0.706516	-0.420857	-0.185136
N323	N	1.039850	-0.087524	0.148197
N324	N	1.373183	0.245809	0.481530
H325	H	0.836685	-0.375913	-1.063618
H326	H	1.170018	-0.042580	-0.730284
H327	H	1.503351	0.290754	-0.396951
C328	C	0.825320	-1.072337	-0.218724
C329	C	1.158653	-0.739004	0.114609
C330	C	1.491987	-0.405671	0.447943
N331	N	0.791983	-1.099630	-0.185351
N332	N	1.125316	-0.766297	0.147982
N333	N	1.458650	-0.432963	0.481316
H334	H	0.836668	-0.376093	-0.543509
H335	H	1.170001	-0.042760	-0.210175
H336	H	1.503335	0.290574	0.123158
C337	C	0.825269	-0.934283	-0.218700
C338	C	1.158602	-0.600950	0.114633
C339	C	1.491936	-0.267617	0.447967
N340	N	0.791908	-0.907108	-0.185317
N341	N	1.125242	-0.573775	0.148017
N342	N	1.458575	-0.240441	0.481350
