data_functionalizedCrystal
_audit_creation_method	'MofGen! by Chris Wilmer'
_symmetry_space_group_name_H-M	'P1'
_symmetry_Int_Tables_number	1
_symmetry_cell_setting	triclinic
loop_
_symmetry_equiv_pos_as_xyz
  x,y,z
_cell_length_a	13.339070
_cell_length_b	13.262508
_cell_length_c	12.376457
_cell_angle_alpha	116.815184
_cell_angle_beta	75.589755
_cell_angle_gamma	99.430496
loop_
_atom_site_label
_atom_site_type_symbol
_atom_site_fract_x
_atom_site_fract_y
_atom_site_fract_z
O1	O	1.329819	0.537812	0.071321
O2	O	1.039592	0.465225	0.049009
O3	O	1.202126	0.343401	0.011554
O4	O	1.167285	0.659636	0.108776
O5	O	1.161509	0.373803	0.208913
O6	O	0.998976	0.495628	0.246368
O7	O	1.289202	0.568215	0.268681
Zn8	Zn	1.137640	0.536748	0.288860
Zn9	Zn	1.191154	0.496692	0.028830
O10	O	1.126668	0.690039	0.306136
C11	C	0.982321	0.468165	0.143919
C12	C	0.872185	0.431617	0.132684
C13	C	0.490556	0.715795	0.220033
C14	C	0.594035	0.750136	0.230586
C15	C	0.663577	0.670509	0.206112
C16	C	0.629631	0.556535	0.171082
C17	C	0.526144	0.522188	0.160518
C18	C	0.699165	0.476903	0.146597
C19	C	0.665219	0.362929	0.111567
C20	C	0.561742	0.328588	0.101006
C21	C	0.492199	0.408215	0.125480
C22	C	0.802652	0.511250	0.157161
C23	C	0.838240	0.317644	0.097646
C24	C	0.734761	0.283302	0.087093
C25	C	1.183600	0.317300	0.097534
C26	C	1.188898	0.194230	0.059690
C27	C	1.115265	-0.086407	0.383351
C28	C	1.110279	0.029222	0.418908
C29	C	1.129933	0.070480	0.329106
C30	C	1.154575	-0.003904	0.203742
C31	C	1.159553	-0.119546	0.168182
C32	C	1.174222	0.037342	0.113937
C33	C	1.198863	-0.037042	-0.011427
C34	C	1.203841	-0.152672	-0.046981
C35	C	1.184187	-0.193930	0.042820
C36	C	1.169243	0.152984	0.149498
C37	C	1.213531	0.119846	-0.065672
C38	C	1.218517	0.004216	-0.101228
C39	C	1.346474	0.565274	0.173768
C40	C	1.456612	0.601821	0.184995
C41	C	1.145195	0.716139	0.220154
C42	C	1.139898	0.839208	0.257989
N43	N	1.101126	0.564088	0.466323
N44	N	1.227677	0.469346	-0.148636
C45	C	1.312440	0.405861	0.772662
C46	C	1.337991	0.386724	0.648438
C47	C	1.278777	0.431063	0.602903
C48	C	1.194007	0.494543	0.681604
C49	C	1.168459	0.513689	0.805842
C50	C	1.134795	0.538891	0.636084
C51	C	1.050026	0.602370	0.714785
C52	C	1.024481	0.621513	0.839010
C53	C	1.083695	0.577174	0.884545
C54	C	1.160344	0.519745	0.511846
C55	C	1.016362	0.627573	0.545026
C56	C	0.990811	0.646709	0.669250
H57	H	0.534110	0.235781	0.072469
H58	H	0.707109	0.190500	0.058561
H59	H	1.149171	0.213535	0.251569
H60	H	0.894863	0.252804	0.077712
H61	H	0.830279	0.604049	0.185688
O62	O	1.234724	0.164335	-0.162536
H63	H	1.252676	0.093183	-0.255683
O64	O	1.124572	0.195196	0.367448
H65	H	1.104148	0.239990	0.469707
H66	H	0.955464	0.673212	0.903093
H67	H	0.968146	0.663680	0.507955
H68	H	1.299584	0.415479	0.501754
O69	O	1.056137	0.597808	1.018532
H70	H	0.987243	0.649395	1.065611
H71	H	0.621668	0.842933	0.259099
O72	O	1.230405	-0.232900	-0.182196
H73	H	1.230555	-0.320240	-0.191836
H74	H	0.921790	0.698396	0.733344
O75	O	0.415555	0.801673	0.246438
H76	H	0.337895	0.758641	0.233216
H77	H	0.407937	0.380259	0.116890
O78	O	1.189569	-0.318649	0.004468
H79	H	1.132207	-0.367556	-0.054819
H80	H	1.099258	-0.120013	0.456453
O81	O	0.775185	0.707544	0.217511
H82	H	0.787104	0.800175	0.245995
H83	H	1.090227	0.089779	0.520980
H84	H	1.238580	-0.056363	-0.203302
O85	O	1.429406	0.318251	0.563550
H86	H	1.466282	0.290624	0.616077
O87	O	1.251752	0.451262	0.426953
H88	H	1.323449	0.493162	0.462527
O89	O	1.376304	0.358045	0.821771
H90	H	1.344293	0.382021	0.921376
