data_functionalizedCrystal
_audit_creation_method	'MofGen! by Chris Wilmer'
_symmetry_space_group_name_H-M	'P1'
_symmetry_Int_Tables_number	1
_symmetry_cell_setting	triclinic
loop_
_symmetry_equiv_pos_as_xyz
  x,y,z
_cell_length_a	16.992697
_cell_length_b	23.532409
_cell_length_c	16.053802
_cell_angle_alpha	87.447601
_cell_angle_beta	92.750118
_cell_angle_gamma	86.759005
loop_
_atom_site_label
_atom_site_type_symbol
_atom_site_fract_x
_atom_site_fract_y
_atom_site_fract_z
O1	O	-1.042771	-0.118474	-0.069299
O2	O	-0.814498	-0.117149	-0.069327
O3	O	-0.935517	-0.035221	-0.069313
O4	O	-0.921752	-0.200401	-0.069313
O5	O	-0.928856	-0.039711	0.069545
O6	O	-0.807837	-0.121638	0.069531
O7	O	-1.036110	-0.122964	0.069559
Zn8	Zn	-0.920916	-0.123014	0.091592
Zn9	Zn	-0.929692	-0.117099	-0.091360
O10	O	-0.915091	-0.204891	0.069545
C11	C	-0.781968	-0.117690	0.000098
C12	C	-0.694964	-0.112606	0.000087
C13	C	-0.644342	-0.161652	0.000087
C14	C	-0.562592	-0.156873	0.000097
C15	C	-0.531466	-0.103046	0.000102
C16	C	-0.582094	-0.053997	0.000104
C17	C	-0.663842	-0.058777	0.000100
C18	C	-0.288022	-0.083235	0.000120
C19	C	-0.206267	-0.078458	0.000122
C20	C	-0.186770	-0.181335	0.000117
C21	C	-0.268521	-0.186110	0.000107
C22	C	-0.319142	-0.137061	0.000114
N23	N	-0.447905	-0.098160	0.000109
N24	N	-0.402701	-0.141948	0.000112
C25	C	-0.068640	-0.122422	0.000128
C26	C	-0.155645	-0.127504	0.000122
C27	C	-0.931836	-0.016233	0.000114
C28	C	-0.930782	0.047037	0.000107
C29	C	-0.918772	-0.223880	0.000116
C30	C	-0.919827	-0.287149	0.000117
C31	C	-0.929927	0.322952	-0.075588
C32	C	-0.930907	0.263503	-0.075588
O33	O	-0.934529	0.234833	-0.139959
N34	N	-0.927761	0.231330	0.000104
C35	C	-0.923643	0.258608	0.075802
O36	O	-0.921057	0.225783	0.140185
C37	C	-0.922669	0.318056	0.075802
C38	C	-0.925807	0.350226	0.000104
C39	C	-0.933067	0.355122	-0.151280
C40	C	-0.932086	0.414567	-0.151280
C41	C	-0.927966	0.441841	-0.075588
C42	C	-0.924827	0.409671	0.000104
C43	C	-0.918557	0.345334	0.151499
C44	C	-0.917584	0.404786	0.151491
C45	C	-0.920722	0.436956	0.075793
C46	C	-0.919726	0.496390	0.075796
N47	N	-0.922872	0.528564	0.000104
C48	C	-0.926992	0.501289	-0.075588
C49	C	-0.925689	0.133763	0.075798
C50	C	-0.926657	0.074316	0.075800
C51	C	-0.933923	0.079215	-0.075591
C52	C	-0.932949	0.138663	-0.075592
C53	C	-0.928835	0.165937	0.000105
C54	C	-0.924931	0.626127	-0.075582
C55	C	-0.923947	0.685576	-0.075575
C56	C	-0.916685	0.680672	0.075816
C57	C	-0.917665	0.621228	0.075809
C58	C	-0.921791	0.593957	0.000104
O59	O	-0.916108	0.525099	0.140134
O60	O	-0.929587	0.534121	-0.139960
N61	N	-0.914932	-0.127051	0.216451
N62	N	-0.935682	-0.113057	-0.216219
C63	C	-0.966444	-0.092205	0.260151
C64	C	-0.962266	-0.095034	0.347558
C65	C	-0.906578	-0.132714	0.391262
C66	C	-0.855060	-0.167561	0.347556
C67	C	-0.859235	-0.164728	0.260152
C68	C	-0.888339	-0.145072	0.652670
C69	C	-0.884170	-0.147903	0.740081
C70	C	-0.991375	-0.075376	0.740076
C71	C	-0.995549	-0.072549	0.652669
C72	C	-0.944028	-0.107394	0.608971
N73	N	-0.902307	-0.135608	0.480606
N74	N	-0.948295	-0.104496	0.519629
H75	H	-0.329228	-0.043295	0.000126
N76	N	-1.043993	-0.039772	0.784700
N77	N	-1.093707	-0.006130	0.745668
H78	H	-1.130869	0.019020	0.777182
H79	H	-0.935503	0.164853	-0.137232
N80	N	-0.929124	0.598276	-0.152913
N81	N	-0.875220	0.562926	-0.169813
H82	H	-0.878175	0.543256	-0.224428
H83	H	-0.915079	0.595032	0.137448
N84	N	-0.912492	0.708538	0.153131
N85	N	-0.965431	0.702992	0.203816
H86	H	-0.962474	0.722673	0.258422
N87	N	-0.921481	0.161629	0.153119
N88	N	-0.975380	0.196982	0.170025
H89	H	-0.972410	0.216661	0.224632
N90	N	-0.915350	0.312491	0.228831
N91	N	-0.911679	0.336863	0.296400
H92	H	-0.909415	0.313669	0.351022
H93	H	-0.838819	-0.178589	0.775661
N94	N	-0.676131	-0.216636	0.000101
N95	N	-0.716770	-0.232672	0.058635
H96	H	-0.739220	-0.271506	0.058649
N97	N	-0.550289	0.000982	0.000117
N98	N	-0.477300	0.005244	0.000120
H99	H	-0.454837	0.044073	0.000128
H100	H	-0.914234	0.426989	0.213135
H101	H	-0.846391	-0.173446	0.617098
N102	N	-1.023292	-0.053681	0.215525
N103	N	-1.069249	-0.022546	0.254557
H104	H	-1.109381	0.004677	0.223043
N105	N	-1.014888	-0.059434	0.392183
N106	N	-1.064608	-0.025796	0.353151
H107	H	-1.101774	-0.000650	0.384666
N108	N	-0.715543	-0.008672	0.000109
N109	N	-0.687744	0.039385	0.000117
H110	H	-0.724256	0.074773	0.000128
N111	N	-1.052570	-0.034160	0.608042
N112	N	-1.098648	-0.003119	0.647071
H113	H	-1.138973	0.023954	0.615553
H114	H	-0.926500	0.711767	-0.137220
H115	H	-0.817287	-0.193103	0.224572
N116	N	-0.798174	-0.206042	0.392210
N117	N	-0.794453	-0.208567	0.470249
H118	H	-0.754277	-0.235746	0.501786
N119	N	-0.938148	0.051359	-0.152919
N120	N	-0.940960	0.080084	-0.220502
H121	H	-0.943944	0.060410	-0.275112
N122	N	-0.174482	-0.023470	0.000140
N123	N	-0.187335	0.008541	0.058678
H124	H	-0.164886	0.047375	0.058691
H125	H	-0.936424	0.332922	-0.212921
H126	H	-0.521378	-0.196812	0.000096
N127	N	-0.923433	0.041467	0.153131
N128	N	-0.919750	0.065833	0.220704
H129	H	-0.917475	0.042635	0.275323
N130	N	-0.935293	0.447415	-0.228612
N131	N	-0.938973	0.423045	-0.296182
H132	H	-0.941241	0.446240	-0.350802
N133	N	-0.300331	-0.241087	0.000102
N134	N	-0.346575	-0.253334	-0.058432
H135	H	-0.369044	-0.292161	-0.058438
N136	N	-0.135052	-0.231429	0.000109
N137	N	-0.062064	-0.227157	0.000112
H138	H	-0.025536	-0.262538	0.000108
