data_functionalizedCrystal
_audit_creation_method	'MofGen! by Chris Wilmer'
_symmetry_space_group_name_H-M	'P1'
_symmetry_Int_Tables_number	1
_symmetry_cell_setting	triclinic
loop_
_symmetry_equiv_pos_as_xyz
  x,y,z
_cell_length_a	15.944493
_cell_length_b	14.421503
_cell_length_c	14.044220
_cell_angle_alpha	89.999698
_cell_angle_beta	91.668039
_cell_angle_gamma	89.992353
loop_
_atom_site_label
_atom_site_type_symbol
_atom_site_fract_x
_atom_site_fract_y
_atom_site_fract_z
O1	O	1.123675	0.077102	-0.121980
O2	O	0.880251	0.077107	-0.137109
O3	O	0.998309	0.077095	0.008439
O4	O	1.005617	0.077113	-0.267529
O5	O	0.998326	-0.077128	0.008430
O6	O	0.880268	-0.077117	-0.137119
O7	O	1.123691	-0.077122	-0.121989
Cu8	Cu	1.001981	-0.091201	-0.129555
Cu9	Cu	1.001962	0.091186	-0.129544
O10	O	1.005633	-0.077110	-0.267538
C11	C	0.848918	-0.000004	-0.136496
C12	C	0.755531	-0.000003	-0.134642
C13	C	0.526186	0.000003	-0.220315
C14	C	0.472177	-0.076044	-0.174119
C15	C	0.584553	-0.000005	-0.131207
C16	C	0.472163	0.076008	-0.174089
C17	C	0.419395	-0.000003	-0.127895
C18	C	0.531773	-0.076115	-0.085035
C19	C	0.531764	0.076006	-0.085018
C20	C	0.477783	-0.000060	-0.038757
C21	C	0.679696	-0.000007	-0.133117
C22	C	0.324255	-0.000007	-0.125978
N23	N	1.002001	-0.219482	-0.129562
C24	C	1.056602	-0.469116	-0.062246
C25	C	0.979323	-0.530913	-0.043850
C26	C	1.001981	-0.408644	-0.129551
C27	C	1.079238	-0.530941	-0.147891
C28	C	1.001969	-0.591365	-0.129537
C29	C	0.924661	-0.469080	-0.111113
C30	C	1.024628	-0.469102	-0.215191
C31	C	0.947297	-0.530871	-0.196832
C32	C	1.001989	-0.303382	-0.129556
C33	C	1.001952	-0.696624	-0.129533
C34	C	1.155024	-0.000008	-0.122603
C35	C	1.248411	-0.000004	-0.124457
C36	C	0.995119	-0.000017	0.043749
C37	C	0.985577	-0.000018	0.148973
N38	N	1.001948	0.219467	-0.129529
C39	C	1.008824	0.000004	-0.302847
C40	C	1.018365	0.000011	-0.408071
C41	C	0.968134	-0.000004	0.341631
C42	C	1.035805	-0.000003	0.399276
C43	C	1.026099	0.000005	0.506478
C44	C	0.977838	-0.000012	0.234419
H45	H	0.547557	-0.000063	-0.297072
H46	H	0.859299	-0.442021	-0.095513
N47	N	0.439408	-0.156697	-0.221308
N48	N	0.459553	-0.235618	-0.191801
H49	H	0.436411	-0.292578	-0.225131
H50	H	1.144578	-0.558113	-0.163409
H51	H	0.456565	-0.000109	0.038059
N52	N	1.117637	-0.000008	0.360209
N53	N	1.167330	0.064994	0.378732
H54	H	1.225123	0.064988	0.351139
N55	N	0.886306	-0.000002	0.380693
N56	N	0.836597	0.064998	0.362163
H57	H	0.778805	0.064996	0.389758
N58	N	0.564551	0.156674	-0.037885
N59	N	0.608587	0.212845	-0.082218
H60	H	0.631743	0.269830	-0.048947
N61	N	0.564419	-0.156846	-0.037862
N62	N	0.641892	-0.169891	-0.031725
H63	H	0.664951	-0.226907	0.001588
H64	H	0.446037	0.140291	-0.211735
N65	N	0.889270	-0.564671	-0.268226
N66	N	0.813167	-0.544649	-0.264374
H67	H	0.772182	-0.568523	-0.314792
H68	H	1.043815	-0.441930	-0.287597
H69	H	1.102738	-0.442000	-0.005296
N70	N	0.955284	-0.564966	0.047015
N71	N	0.998186	-0.545176	0.120112
H72	H	0.981213	-0.569222	0.184289
