data_functionalizedCrystal
_audit_creation_method	'MofGen! by Chris Wilmer'
_symmetry_space_group_name_H-M	'P1'
_symmetry_Int_Tables_number	1
_symmetry_cell_setting	triclinic
loop_
_symmetry_equiv_pos_as_xyz
  x,y,z
_cell_length_a	12.759401
_cell_length_b	12.759400
_cell_length_c	12.759393
_cell_angle_alpha	90.031564
_cell_angle_beta	90.018496
_cell_angle_gamma	90.014845
loop_
_atom_site_label
_atom_site_type_symbol
_atom_site_fract_x
_atom_site_fract_y
_atom_site_fract_z
Zn1	Zn	1.606255	-0.418200	0.593981
Zn2	Zn	1.606150	-0.593919	0.418301
Zn3	Zn	1.430557	-0.418255	0.418321
Zn4	Zn	1.430546	-0.593838	0.593943
O5	O	1.518377	-0.506053	0.506137
O6	O	1.753262	-0.441520	0.570685
O7	O	1.582818	-0.570673	0.271283
O8	O	1.453913	-0.271226	0.441647
O9	O	1.753185	-0.570620	0.441614
O10	O	1.582998	-0.271186	0.570704
O11	O	1.453811	-0.441614	0.271297
O12	O	1.283535	-0.441535	0.441609
O13	O	1.453894	-0.570482	0.740969
O14	O	1.283527	-0.570536	0.570638
O15	O	1.582987	-0.441442	0.740997
O16	O	1.582807	-0.740929	0.441577
O17	O	1.453791	-0.740870	0.570620
C18	C	1.245410	-0.506033	0.506122
C19	C	1.128633	-0.506050	0.506141
C20	C	1.073794	-0.573328	0.573215
C21	C	0.964070	-0.573342	0.573227
C22	C	0.964034	-0.438796	0.439081
C23	C	1.073756	-0.438778	0.439075
C24	C	1.073815	-0.651010	0.650660
C25	C	0.964091	-0.651024	0.650672
C26	C	1.518315	-0.779020	0.506115
C27	C	1.518384	-0.895797	0.506140
C28	C	1.585637	-0.950655	0.439022
C29	C	1.585702	-1.060379	0.439054
C30	C	1.451252	-1.060377	0.573327
C31	C	1.451193	-0.950655	0.573299
C32	C	1.652828	-0.895797	0.371864
C33	C	1.720086	-0.950655	0.304739
C34	C	1.720150	-1.060379	0.304771
C35	C	1.652957	-1.115245	0.371929
C36	C	1.792410	-0.506073	0.506152
C37	C	1.909187	-0.506082	0.506158
C38	C	1.518451	-0.505947	0.780170
C39	C	1.518482	-0.505902	0.896947
C40	C	1.518468	-0.232019	0.506182
C41	C	1.518507	-0.115243	0.506201
C42	C	1.518364	-0.506083	0.233169
C43	C	1.518537	-0.505832	0.116393
C44	C	1.585710	-0.438704	0.951825
C45	C	1.585735	-0.438666	1.061549
C46	C	1.451301	-0.573033	1.061507
C47	C	1.451272	-0.573064	0.951785
C48	C	1.663328	-0.361131	0.951851
C49	C	1.663353	-0.361093	1.061575
H50	H	1.107829	-0.728262	0.621376
H51	H	1.396579	-0.627712	1.106169
O52	O	1.385917	-0.638423	0.898638
C53	C	1.252501	-0.771613	0.910179
C54	C	1.326489	-0.697670	0.970498
H55	H	1.204418	-0.819518	0.968252
H56	H	1.300632	-0.826649	0.858819
H57	H	1.197624	-0.723350	0.858799
H58	H	1.381381	-0.745848	1.021935
H59	H	1.278293	-0.642631	1.021792
O60	O	0.923695	-0.616391	0.743029
C61	C	0.960184	-0.551149	0.916511
C62	C	1.006074	-0.590379	0.811987
H63	H	1.026765	-0.530086	0.972284
H64	H	0.909937	-0.615388	0.952976
H65	H	0.909865	-0.478854	0.901620
H66	H	1.056440	-0.662655	0.826789
H67	H	1.056262	-0.526076	0.775555
O68	O	1.386013	-1.113833	0.638454
C69	C	1.326559	-1.282867	0.698041
C70	C	1.400481	-1.222462	0.624217
H71	H	1.338247	-1.370704	0.686572
H72	H	1.241818	-1.261454	0.679512
H73	H	1.344939	-1.261151	0.782757
H74	H	1.382196	-1.244145	0.539476
H75	H	1.485200	-1.243880	0.642837
H76	H	1.103623	-0.629311	0.732067
O77	O	1.126864	-0.373381	0.373832
C78	C	1.115244	-0.239866	0.240844
C79	C	1.054969	-0.313899	0.314661
H80	H	1.057144	-0.191740	0.193002
H81	H	1.166563	-0.287964	0.185745
H82	H	1.166662	-0.185032	0.289202
H83	H	1.003495	-0.368748	0.266389
H84	H	1.003717	-0.265735	0.369764
O85	O	0.910561	-0.373560	0.373961
C86	C	0.741513	-0.313918	0.314555
C87	C	0.801936	-0.387866	0.388344
H88	H	0.653679	-0.325443	0.326174
H89	H	0.762974	-0.332272	0.229784
H90	H	0.763165	-0.229230	0.333133
H91	H	0.780316	-0.472578	0.369861
H92	H	0.780469	-0.369422	0.473094
O93	O	0.928712	-0.748115	0.624442
C94	C	0.974487	-0.925040	0.576779
C95	C	1.014696	-0.815134	0.606444
H96	H	1.043985	-0.979262	0.562240
H97	H	0.924858	-0.919717	0.502660
H98	H	0.924840	-0.957526	0.643555
H99	H	1.064387	-0.782585	0.539736
H100	H	1.064269	-0.820523	0.680595
O101	O	1.785257	-0.897201	0.239543
C102	C	1.844793	-0.728170	0.180029
C103	C	1.770914	-0.788571	0.253900
H104	H	1.833238	-0.640332	0.191626
H105	H	1.826398	-0.749752	0.095280
H106	H	1.929500	-0.749720	0.198545
H107	H	1.686182	-0.767054	0.235478
H108	H	1.789399	-0.766983	0.338626
O109	O	1.785517	-1.113507	0.239475
C110	C	1.918907	-1.101922	0.106334
C111	C	1.844918	-1.041627	0.180217
H112	H	1.966968	-1.043834	0.058420
H113	H	1.870778	-1.153348	0.051303
H114	H	1.973804	-1.153234	0.154644
H115	H	1.790006	-0.990259	0.131992
H116	H	1.893112	-0.990268	0.235251
H117	H	1.740599	-0.390300	0.917815
H118	H	1.641559	-0.279767	0.922095
H119	H	1.634239	-0.283784	1.095623
H120	H	1.652780	-0.806454	0.371827
O121	O	1.385960	-0.897197	0.638459
C122	C	1.326245	-0.728158	0.697872
C123	C	1.400188	-0.788569	0.624037
H124	H	1.337707	-0.640322	0.686222
H125	H	1.344663	-0.749568	0.782633
H126	H	1.241561	-0.749873	0.679369
H127	H	1.484898	-0.766887	0.642446
H128	H	1.381681	-0.767154	0.539298
O129	O	1.760388	-0.387279	1.097066
C130	C	1.897180	-0.517409	1.100356
C131	C	1.787277	-0.487900	1.060108
H132	H	1.918962	-0.598753	1.070474
H133	H	1.897238	-0.517453	1.189705
H134	H	1.956738	-0.457822	1.070624
H135	H	1.727657	-0.547457	1.089762
H136	H	1.787306	-0.487823	0.970760
H137	H	1.653024	-1.204589	0.371958
