data_functionalizedCrystal
_audit_creation_method	'MofGen! by Chris Wilmer'
_symmetry_space_group_name_H-M	'P1'
_symmetry_Int_Tables_number	1
_symmetry_cell_setting	triclinic
loop_
_symmetry_equiv_pos_as_xyz
  x,y,z
_cell_length_a	6.817900
_cell_length_b	9.109307
_cell_length_c	19.453114
_cell_angle_alpha	100.626305
_cell_angle_beta	101.709288
_cell_angle_gamma	111.764999
loop_
_atom_site_label
_atom_site_type_symbol
_atom_site_fract_x
_atom_site_fract_y
_atom_site_fract_z
V1	V	-4.061579	-0.227159	-0.232693
O2	O	-3.992531	0.009170	-0.214277
O3	O	-4.066619	-0.448740	-0.244553
O4	O	-4.003836	-0.224431	-0.328042
O5	O	-4.055749	-0.216691	-0.130211
V6	V	-4.539493	-0.198801	-0.218801
O7	O	-4.335142	-0.289366	-0.263166
O8	O	-4.716128	-0.136595	-0.188329
O9	O	-4.311247	0.022779	-0.206941
O10	O	-4.725938	-0.435131	-0.237217
O11	O	-4.662721	-0.209269	-0.321284
O12	O	-4.374030	-0.201529	-0.123453
C13	C	-3.924923	-0.502732	-0.244354
C14	C	-4.010268	-0.683882	-0.254686
C15	C	-3.844836	-0.216602	-0.350850
C16	C	-3.879262	-0.215838	-0.428887
C17	C	-4.079190	-0.223659	-0.469615
C18	C	-4.111537	-0.222941	-0.542939
C19	C	-3.943961	-0.214435	-0.575535
C20	C	-3.744000	-0.206604	-0.534796
C21	C	-3.711650	-0.207306	-0.461472
N22	N	-3.904973	-0.300493	-0.699512
N23	N	-3.935719	-0.299830	-0.769168
C24	C	-4.041417	-0.212316	-0.796455
N25	N	-4.115249	-0.125512	-0.751460
N26	N	-4.084511	-0.126182	-0.681799
C27	C	-3.979018	-0.213672	-0.655042
C28	C	-4.276431	-0.219357	-0.916690
C29	C	-4.308766	-0.218628	-0.990013
C30	C	-3.941232	-0.202308	-0.981871
C31	C	-3.908894	-0.203020	-0.908547
C32	C	-4.076505	-0.211552	-0.875962
C33	C	-4.116287	0.076763	-0.207140
C34	C	-4.010180	0.257911	-0.196812
C35	C	-4.196374	-0.209363	-0.100641
C36	C	-4.141185	-0.210119	-0.022604
H37	H	-4.215672	-0.230600	-0.443089
H38	H	-4.274352	-0.229318	-0.576107
O39	O	-4.088551	-0.789715	-0.323276
C40	C	-4.356381	-0.890537	-0.442469
C41	C	-4.267981	-0.770630	-0.364815
H42	H	-4.501434	-0.875123	-0.476080
H43	H	-4.413767	-1.022716	-0.438932
H44	H	-4.219256	-0.862456	-0.469897
H45	H	-4.404996	-0.798560	-0.337342
H46	H	-4.210532	-0.638487	-0.368401
O47	O	-3.932419	-0.636448	-0.128200
C48	C	-3.861028	-0.606959	0.001250
C49	C	-3.949202	-0.726794	-0.076413
H50	H	-3.874523	-0.679954	0.043143
H51	H	-3.962682	-0.532547	0.006014
H52	H	-3.680435	-0.519635	0.012090
H53	H	-4.129770	-0.814220	-0.087304
H54	H	-3.847388	-0.801088	-0.081138
H55	H	-4.471569	-0.224984	-1.023172
H56	H	-3.607558	-0.199673	-0.561339
H57	H	-3.548836	-0.200925	-0.428309
H58	H	-3.804780	-0.195368	-1.008408
H59	H	-4.412907	-0.226298	-0.890157
H60	H	-3.746101	-0.196669	-0.875387
