data_functionalizedCrystal
_audit_creation_method	'MofGen! by Chris Wilmer'
_symmetry_space_group_name_H-M	'P1'
_symmetry_Int_Tables_number	1
_symmetry_cell_setting	triclinic
loop_
_symmetry_equiv_pos_as_xyz
  x,y,z
_cell_length_a	19.188930
_cell_length_b	14.971486
_cell_length_c	13.448316
_cell_angle_alpha	90.006811
_cell_angle_beta	90.020644
_cell_angle_gamma	83.379454
loop_
_atom_site_label
_atom_site_type_symbol
_atom_site_fract_x
_atom_site_fract_y
_atom_site_fract_z
O1	O	-0.926506	-0.111671	-0.083012
O2	O	-0.723243	-0.126703	-0.082944
O3	O	-0.830323	0.011042	-0.082973
O4	O	-0.819427	-0.249416	-0.082983
O5	O	-0.830309	0.011050	0.082411
O6	O	-0.723230	-0.126695	0.082440
O7	O	-0.926493	-0.111662	0.082372
Cu8	Cu	-0.824860	-0.119178	0.097507
Cu9	Cu	-0.824876	-0.119188	-0.098079
O10	O	-0.819413	-0.249407	0.082400
C11	C	-0.829829	0.044368	-0.000281
C12	C	-0.828369	0.143658	-0.000281
C13	C	-0.697224	-0.126212	-0.000243
C14	C	-0.619715	-0.124751	-0.000217
C15	C	-0.952512	-0.112153	-0.000331
C16	C	-1.030021	-0.113615	-0.000364
C17	C	-0.575051	-0.205575	-0.000236
C18	C	-0.502223	-0.204202	-0.000247
C19	C	-0.474062	-0.122000	-0.000259
C20	C	-0.518735	-0.041166	-0.000234
C21	C	-0.591562	-0.042541	-0.000214
N22	N	-0.365884	-0.059170	-0.056584
N23	N	-0.296701	-0.057869	-0.056606
C24	C	-0.254640	-0.117852	-0.000320
N25	N	-0.284373	-0.179199	0.055977
N26	N	-0.353562	-0.180502	0.055994
C27	C	-0.395094	-0.120500	-0.000281
C28	C	-0.131007	-0.197193	-0.000349
C29	C	-0.058178	-0.195817	-0.000354
C30	C	-0.074692	-0.032778	-0.000351
C31	C	-0.147519	-0.034157	-0.000336
C32	C	-0.175672	-0.116367	-0.000340
C33	C	-0.819907	-0.282734	-0.000293
C34	C	-0.821368	-0.382023	-0.000300
N35	N	-0.824854	-0.119170	0.235071
C36	C	-0.891275	0.201215	-0.000302
C37	C	-0.889899	0.294507	-0.000311
C38	C	-0.825615	0.330240	-0.000293
C39	C	-0.762704	0.272675	-0.000276
C40	C	-0.764081	0.179385	-0.000274
C41	C	-0.759839	0.467123	-0.000279
C42	C	-0.758461	0.560419	-0.000279
C43	C	-0.885656	0.582245	-0.000316
C44	C	-0.887033	0.488955	-0.000314
C45	C	-0.824122	0.431396	-0.000295
N46	N	-0.824888	-0.119188	-0.235643
C47	C	-0.872284	-0.058202	0.287099
C48	C	-0.872288	-0.058201	0.391202
C49	C	-0.824866	-0.119174	0.443275
C50	C	-0.777431	-0.180145	0.391241
C51	C	-0.777424	-0.180141	0.287139
C52	C	-0.777450	-0.180151	0.608221
C53	C	-0.777458	-0.180157	0.712329
C54	C	-0.872315	-0.058211	0.712283
C55	C	-0.872307	-0.058207	0.608182
C56	C	-0.824873	-0.119180	0.556154
H57	H	-0.597968	-0.272517	-0.000241
H58	H	-0.941123	0.341368	-0.000326
H59	H	-0.939378	0.459865	-0.000321
H60	H	-0.910936	-0.008565	0.754650
H61	H	-0.465851	-0.270021	-0.000260
C62	C	-0.487757	0.049257	-0.000249
N63	N	-0.464424	0.117366	-0.000257
H64	H	-0.021812	-0.261637	-0.000363
C65	C	-0.691992	0.311985	-0.000248
N66	N	-0.638730	0.341591	-0.000219
H67	H	-0.738841	-0.229806	0.754722
C68	C	-0.687747	0.599723	-0.000272
N69	N	-0.634483	0.629326	-0.000270
H70	H	-0.627928	0.023278	-0.000199
H71	H	-0.708609	0.420260	-0.000266
C72	C	-0.924453	0.008875	0.229827
N73	N	-0.963746	0.059402	0.186693
H74	H	-0.738822	-0.229799	0.565863
C75	C	-0.161977	-0.287625	-0.000340
N76	N	-0.185302	-0.355739	-0.000332
C77	C	-0.924474	0.008866	0.550903
N78	N	-0.963765	0.059389	0.507760
C79	C	-0.725259	-0.247208	0.448525
N80	N	-0.685962	-0.297720	0.491671
C81	C	-0.725253	-0.247218	0.229909
N82	N	-0.685957	-0.297744	0.186805
H83	H	-0.051764	0.034152	-0.000422
H84	H	-0.183886	0.031659	-0.000326
H85	H	-0.943622	0.172130	-0.000310
H86	H	-0.712856	0.132522	-0.000257
H87	H	-0.936881	0.629114	-0.000335
H88	H	-0.910908	-0.008555	0.433562
