data_functionalizedCrystal
_audit_creation_method	'MofGen! by Chris Wilmer'
_symmetry_space_group_name_H-M	'P1'
_symmetry_Int_Tables_number	1
_symmetry_cell_setting	triclinic
loop_
_symmetry_equiv_pos_as_xyz
  x,y,z
_cell_length_a	10.540510
_cell_length_b	17.019294
_cell_length_c	9.616153
_cell_angle_alpha	86.118767
_cell_angle_beta	89.992871
_cell_angle_gamma	83.952460
loop_
_atom_site_label
_atom_site_type_symbol
_atom_site_fract_x
_atom_site_fract_y
_atom_site_fract_z
O1	O	1.684094	0.111052	-0.128951
O2	O	1.314504	0.121550	-0.130208
O3	O	1.509608	0.001526	-0.115828
O4	O	1.488989	0.231076	-0.143331
O5	O	1.509582	0.001528	0.115463
O6	O	1.314477	0.121553	0.101083
O7	O	1.684067	0.111054	0.102341
Zn8	Zn	1.499268	0.116304	0.138434
Zn9	Zn	1.499303	0.116301	-0.166302
O10	O	1.488962	0.231078	0.087960
C11	C	1.267199	0.120769	-0.014469
C12	C	1.126288	0.118428	-0.014189
C13	C	0.907466	0.201809	-0.024710
C14	C	1.054020	0.204306	-0.024480
C15	C	1.082234	0.074469	0.123153
C16	C	0.935504	0.072581	0.123482
C17	C	0.935757	0.070789	-0.139325
C18	C	1.082032	0.074863	-0.141551
C19	C	1.508813	-0.027866	0.003336
C20	C	1.506467	-0.115450	0.013820
C21	C	1.505382	-0.156593	-0.107330
C22	C	1.503169	-0.238886	-0.097474
C23	C	1.502051	-0.280035	0.033533
C24	C	1.503132	-0.238885	0.154692
C25	C	1.505335	-0.156593	0.144835
C26	C	1.495388	-0.528504	0.069602
C27	C	1.493189	-0.610802	0.079450
C28	C	1.493224	-0.610798	-0.172718
C29	C	1.495435	-0.528504	-0.182563
C30	C	1.496509	-0.487361	-0.061404
C31	C	1.499793	-0.364152	0.043610
C32	C	1.498758	-0.403245	-0.071483
C33	C	1.731371	0.111835	-0.013402
C34	C	1.872283	0.114176	-0.013691
C35	C	1.489758	0.260471	-0.031207
C36	C	1.492104	0.348054	-0.041700
N37	N	1.499253	0.116306	0.346408
N38	N	1.499328	0.116293	-0.374276
C39	C	1.394573	0.180295	0.559112
C40	C	1.394797	0.180535	0.397915
C41	C	1.631671	0.135021	0.402616
C42	C	1.631099	0.135474	0.563779
C43	C	1.472840	0.033390	0.576254
C44	C	1.469784	0.033928	0.414963
H45	H	1.132128	0.012166	-0.142015
H46	H	0.864975	0.235265	-0.123438
O47	O	1.263774	0.165614	0.612294
H48	H	1.201710	0.155634	0.523326
O49	O	1.340752	0.015139	0.366623
H50	H	1.352086	-0.040629	0.312234
H51	H	1.541130	-0.015987	0.380648
H52	H	1.549234	-0.014247	0.620077
O53	O	1.492035	-0.655175	-0.303386
H54	H	1.493183	-0.612736	-0.396138
H55	H	1.711470	0.089677	0.369696
H56	H	0.914660	0.006313	-0.132493
O57	O	1.506578	-0.112211	-0.248631
H58	H	1.505436	-0.154649	-0.331218
H59	H	1.496348	-0.495007	-0.289243
O60	O	1.498606	-0.408547	0.184900
H61	H	1.412547	-0.386218	0.242696
H62	H	1.296364	0.169275	0.359750
O63	O	1.663351	0.214238	0.339649
H64	H	1.667538	0.212797	0.224504
O65	O	1.501936	-0.283261	-0.228142
H66	H	1.503076	-0.240822	-0.320895
H67	H	1.711476	0.090736	0.608128
O68	O	0.849115	0.245881	0.094763
H69	H	0.925912	0.266972	0.156940
H70	H	1.492271	-0.644303	0.186137
H71	H	1.378394	0.015575	0.619125
O72	O	1.092153	0.249882	-0.155333
H73	H	1.139407	0.301853	-0.126716
H74	H	1.496288	-0.495017	0.168259
O75	O	1.662045	0.215588	0.603989
H76	H	1.677270	0.253643	0.508368
H77	H	0.894783	0.102625	0.218610
O78	O	1.501949	-0.283263	0.295999
H79	H	1.500257	-0.347400	0.282503
O80	O	1.417171	0.262004	0.337030
H81	H	1.510581	0.277305	0.374236
H82	H	1.506200	-0.123094	0.243489
O83	O	0.906419	-0.012495	0.141642
H84	H	0.997122	-0.052107	0.150162
H85	H	1.499660	-0.369738	-0.178148
H86	H	1.130659	0.011248	0.135640
O87	O	1.119254	0.117223	-0.276063
H88	H	1.032250	0.137536	-0.339013
O89	O	1.090841	0.250067	0.095764
H90	H	1.042344	0.311298	0.083923
O91	O	1.122412	0.114902	0.248521
H92	H	1.078113	0.177174	0.242364
O93	O	0.878982	0.106740	-0.276248
H94	H	0.804881	0.155938	-0.256278
O95	O	1.416639	0.261312	0.603029
H96	H	1.501894	0.256192	0.672090
