data_functionalizedCrystal
_audit_creation_method	'MofGen! by Chris Wilmer'
_symmetry_space_group_name_H-M	'P1'
_symmetry_Int_Tables_number	1
_symmetry_cell_setting	triclinic
loop_
_symmetry_equiv_pos_as_xyz
  x,y,z
_cell_length_a	14.560432
_cell_length_b	14.560438
_cell_length_c	14.560438
_cell_angle_alpha	60.000713
_cell_angle_beta	90.001976
_cell_angle_gamma	59.999527
loop_
_atom_site_label
_atom_site_type_symbol
_atom_site_fract_x
_atom_site_fract_y
_atom_site_fract_z
Zr1	Zr	0.884759	1.005269	-0.120491
O2	O	0.738105	1.196876	-0.267141
O3	O	0.929717	0.813666	-0.075536
O4	O	0.929711	1.005271	-0.267138
O5	O	0.738115	1.005268	0.075602
O6	O	1.080852	1.005268	-0.267134
O7	O	0.738111	1.005271	-0.075539
O8	O	1.080862	0.662522	0.075606
O9	O	0.738104	1.348015	-0.267139
O10	O	1.061685	0.892472	-0.056359
O11	O	0.948893	0.892472	0.056433
O12	O	0.948886	1.118062	-0.169154
O13	O	0.836094	1.118062	-0.056362
Zr14	Zr	1.125817	1.005261	0.120568
Zr15	Zr	1.125811	1.005265	-0.120485
Zr16	Zr	0.884765	1.005265	0.120561
Zr17	Zr	0.884757	1.246319	-0.120488
Zr18	Zr	1.125819	0.764212	0.120565
O19	O	1.080859	1.196865	0.075613
O20	O	1.080851	1.196870	-0.267132
O21	O	0.738114	1.196870	0.075604
O22	O	1.272471	0.813654	0.267218
O23	O	1.272462	0.813660	-0.075527
O24	O	0.929726	0.813660	0.267209
O25	O	1.272461	1.005262	-0.075525
O26	O	1.080865	1.005259	0.267215
O27	O	0.929724	1.005262	0.267211
O28	O	1.272465	1.005259	0.075616
O29	O	0.929709	1.348012	-0.267134
O30	O	1.080867	0.662518	0.267211
O31	O	1.272472	0.662515	0.267216
O32	O	1.272467	0.662518	0.075611
O33	O	0.738109	1.348012	-0.075535
O34	O	0.929714	1.348009	-0.075530
O35	O	1.061690	0.892468	0.169230
O36	O	1.174482	0.892468	0.056439
O37	O	1.061683	1.118059	-0.056356
O38	O	0.948891	1.118059	0.056436
C39	C	1.005290	0.703749	0.000035
C40	C	1.005290	0.601417	0.000033
C41	C	1.064164	0.457180	-0.058835
C42	C	1.064164	0.553336	-0.058844
C43	C	0.946405	0.553347	0.058914
C44	C	0.946399	0.457199	0.058915
C45	C	0.703768	1.005270	0.000031
C46	C	0.601435	1.005272	0.000028
C47	C	0.601407	1.005290	-0.166516
C48	C	0.553315	1.005304	-0.249788
C49	C	0.457166	1.005304	-0.249784
C50	C	0.409107	1.005286	-0.166498
C51	C	0.457199	1.005272	-0.083226
C52	C	0.553349	1.005276	-0.083241
C53	C	0.457232	1.005245	0.083320
C54	C	0.553377	1.005254	0.083314
C55	C	0.409174	1.005227	0.166606
C56	C	0.457261	1.005222	0.249875
C57	C	0.553415	1.005224	0.249868
C58	C	0.601469	1.005240	0.166586
C59	C	1.306808	1.005260	0.000046
C60	C	1.409141	1.005258	0.000049
C61	C	1.005280	1.005270	-0.301481
C62	C	1.005278	1.005272	-0.403814
C63	C	1.005286	1.306781	0.000042
C64	C	1.005286	1.409113	0.000043
C65	C	0.946399	1.123026	-0.510768
C66	C	0.946412	1.123020	-0.606917
C67	C	1.064184	0.887496	-0.489144
C68	C	1.064177	0.887503	-0.392998
C69	C	1.005296	1.005260	0.301558
C70	C	1.005298	1.005258	0.403891
C71	C	1.306809	0.703744	0.000042
C72	C	1.409143	0.601411	0.000044
C73	C	1.005298	0.703744	0.301554
C74	C	1.005301	0.601411	0.403886
C75	C	1.306817	0.703739	0.301562
C76	C	1.409153	0.601404	0.403896
C77	C	0.703759	1.306791	-0.301485
C78	C	0.601423	1.409126	-0.403820
C79	C	0.703767	1.306786	0.000034
C80	C	0.601433	1.409120	0.000033
C81	C	1.005279	1.306786	-0.301477
C82	C	1.005275	1.409120	-0.403809
C83	C	1.398343	0.553334	-0.058832
C84	C	1.494500	0.457188	-0.058835
C85	C	1.612254	0.457202	0.058924
C86	C	1.516098	0.553352	0.058919
C87	C	1.064180	0.553330	0.510841
C88	C	1.064171	0.457186	0.606988
C89	C	0.946400	0.457207	0.489213
C90	C	0.946404	0.553356	0.393067
C91	C	1.516107	0.553324	0.393100
C92	C	1.612259	0.457178	0.489258
C93	C	1.494489	0.457195	0.607005
C94	C	1.398340	0.553347	0.510848
H95	H	1.112106	0.592471	-0.106790
Br96	Br	0.866496	0.618607	0.138812
H97	H	0.898447	0.418065	0.106861
Br98	Br	0.866473	1.282854	-0.525449
Br99	Br	1.144107	0.727674	-0.474474
Br100	Br	1.530754	0.618616	0.138818
Br101	Br	1.253194	0.618559	-0.138738
H102	H	1.112133	0.592458	0.519656
Br103	Br	1.479837	0.391950	-0.138747
H104	H	1.112115	0.418045	0.694073
H105	H	1.699346	0.418059	0.106859
Br106	Br	0.392045	1.005181	0.362903
Br107	Br	1.530784	0.618549	0.247954
Br108	Br	0.731881	1.005322	-0.166545
Br109	Br	1.479824	0.391968	0.752156
Br110	Br	0.866474	0.391984	0.474540
H111	H	0.898451	0.592507	0.305974
H112	H	0.592455	1.005315	-0.317597
Br113	Br	0.866507	1.282836	-0.752069
H114	H	1.699344	0.418036	0.480460
H115	H	1.112129	0.791608	-0.305905
H116	H	1.112111	0.418032	-0.106774
H117	H	0.330825	1.005270	-0.166492
Br118	Br	0.391904	1.005307	-0.362788
Br119	Br	0.278691	1.005212	0.166623
H120	H	0.592570	1.005205	0.317681
Br121	Br	0.731951	1.005255	0.166561
H122	H	1.311247	0.592497	0.519647
