data_functionalizedCrystal
_audit_creation_method	'MofGen! by Chris Wilmer'
_symmetry_space_group_name_H-M	'P1'
_symmetry_Int_Tables_number	1
_symmetry_cell_setting	triclinic
loop_
_symmetry_equiv_pos_as_xyz
  x,y,z
_cell_length_a	13.635800
_cell_length_b	10.943632
_cell_length_c	10.943950
_cell_angle_alpha	88.234531
_cell_angle_beta	71.155399
_cell_angle_gamma	108.838880
loop_
_atom_site_label
_atom_site_type_symbol
_atom_site_fract_x
_atom_site_fract_y
_atom_site_fract_z
V1	V	-2.057774	-0.178568	0.402518
O2	O	-2.036628	0.008645	0.394887
O3	O	-2.046749	-0.354131	0.399734
O4	O	-2.046766	-0.175793	0.578084
O5	O	-2.036610	-0.170928	0.215303
V6	V	-2.296171	-0.156178	0.380129
O7	O	-2.195782	-0.227681	0.451629
O8	O	-2.383261	-0.107065	0.331018
O9	O	-2.195593	0.019385	0.382913
O10	O	-2.376015	-0.343391	0.387760
O11	O	-2.376033	-0.163818	0.567344
O12	O	-2.195575	-0.158953	0.204563
V13	V	-1.557774	-0.178568	0.402518
O14	O	-1.536628	0.008645	0.394887
O15	O	-1.546749	-0.354131	0.399734
O16	O	-1.546766	-0.175793	0.578084
O17	O	-1.536610	-0.170928	0.215303
V18	V	-1.796171	-0.156178	0.380129
O19	O	-1.695782	-0.227681	0.451629
O20	O	-1.883261	-0.107065	0.331018
O21	O	-1.695593	0.019385	0.382913
O22	O	-1.876015	-0.343391	0.387760
O23	O	-1.876033	-0.163818	0.567344
O24	O	-1.695575	-0.158953	0.204563
C25	C	-1.972027	-0.396931	0.393376
C26	C	-2.003744	-0.540456	0.392271
C27	C	-1.926167	-0.617610	0.384918
C28	C	-1.965578	-0.690273	0.280693
C29	C	-2.020861	-0.723532	0.494539
C30	C	-2.042715	-0.611215	0.287972
C31	C	-2.098007	-0.644481	0.501913
C32	C	-2.137473	-0.717106	0.397667
C33	C	-1.972049	-0.169441	0.620877
C34	C	-2.003778	-0.168333	0.764403
C35	C	-2.101985	0.062178	0.389267
C36	C	-2.059888	0.205702	0.390381
C37	C	-2.101963	-0.165309	0.161763
C38	C	-2.059853	-0.166410	0.018236
C39	C	-1.472027	-0.396931	0.393376
C40	C	-1.503744	-0.540456	0.392271
C41	C	-2.137464	-0.173773	0.941136
C42	C	-2.098066	-0.278009	0.868463
C43	C	-2.042792	-0.064164	0.835180
C44	C	-2.020895	-0.270720	0.947466
C45	C	-1.965611	-0.056780	0.914177
C46	C	-1.926159	-0.161037	0.841541
C47	C	-1.549208	-0.626300	0.509983
C48	C	-1.579006	-0.761156	0.508943
C49	C	-1.517874	-0.724313	0.272469
C50	C	-1.488070	-0.589458	0.273509
C51	C	-1.584506	-0.647572	0.646510
C52	C	-1.614304	-0.782429	0.645470
C53	C	-1.472049	-0.169441	0.620877
C54	C	-1.503778	-0.168333	0.764403
C55	C	-1.601985	0.062178	0.389267
C56	C	-1.559888	0.205702	0.390381
C57	C	-1.601963	-0.165309	0.161763
C58	C	-1.559853	-0.166410	0.018236
C59	C	-1.610733	-0.174251	0.838406
C60	C	-1.640533	-0.173186	0.973260
C61	C	-1.456415	-0.160290	0.960095
C62	C	-1.426614	-0.161346	0.825243
C63	C	-1.717033	-0.181702	0.846009
C64	C	-1.746834	-0.180637	0.980862
H65	H	-1.836510	-0.574127	0.379405
H66	H	-1.909919	-0.711045	0.187151
H67	H	-1.764856	-0.088961	1.010442
H68	H	-2.011961	-0.358099	0.996207
H69	H	-2.153626	-0.623675	0.595456
C70	C	-1.890460	0.069599	0.942247
N71	N	-1.833862	0.164797	0.963391
H72	H	-2.051627	-0.562460	0.200586
H73	H	-1.339524	-0.156529	0.764994
H74	H	-2.051763	0.023108	0.786298
H75	H	-2.227102	-0.760329	0.403021
H76	H	-1.451041	-0.519567	0.177656
H77	H	-1.505116	-0.764227	0.175777
H78	H	-1.519303	-0.614100	0.694271
C79	C	-1.685307	-0.607007	0.711091
N80	N	-1.761231	-0.576454	0.759742
H81	H	-1.819186	-0.273979	1.034532
C82	C	-1.543088	-0.840827	0.695383
N83	N	-1.489448	-0.884813	0.732975
H84	H	-2.011907	-0.772439	0.581808
C85	C	-1.371523	-0.152528	1.027020
N86	N	-1.307573	-0.146655	1.077422
H87	H	-1.726307	-0.094081	0.798180
H88	H	-2.227119	-0.179272	0.984648
C89	C	-2.173272	-0.404379	0.840431
N90	N	-2.229923	-0.499557	0.819319
C91	C	-1.739008	-0.849726	0.722568
N92	N	-1.832933	-0.900412	0.780633
C93	C	-1.781800	-0.311777	0.812406
N94	N	-1.830583	-0.409750	0.787096
H95	H	-1.836532	-0.155690	0.798275
