data_functionalizedCrystal
_audit_creation_method	'MofGen! by Chris Wilmer'
_symmetry_space_group_name_H-M	'P1'
_symmetry_Int_Tables_number	1
_symmetry_cell_setting	triclinic
loop_
_symmetry_equiv_pos_as_xyz
  x,y,z
_cell_length_a	10.654559
_cell_length_b	17.666332
_cell_length_c	10.654550
_cell_angle_alpha	90.005170
_cell_angle_beta	84.486763
_cell_angle_gamma	90.008775
loop_
_atom_site_label
_atom_site_type_symbol
_atom_site_fract_x
_atom_site_fract_y
_atom_site_fract_z
O1	O	-1.667844	-0.062931	-0.176455
O2	O	-1.302367	-0.062936	-0.193249
O3	O	-1.493508	-0.062930	-0.002113
O4	O	-1.476702	-0.062936	-0.367591
O5	O	-1.493473	0.062966	-0.002103
O6	O	-1.302332	0.062961	-0.193239
O7	O	-1.667809	0.062966	-0.176445
Cu8	Cu	-1.485067	0.074459	-0.184841
Cu9	Cu	-1.485108	-0.074429	-0.184853
O10	O	-1.476667	0.062960	-0.367581
C11	C	-1.255551	0.000012	-0.192009
C12	C	-1.116109	0.000010	-0.188312
C13	C	-0.919589	-0.068617	-0.183122
C14	C	-1.050612	-0.068617	-0.186584
C15	C	-1.050578	0.068643	-0.186566
C16	C	-0.919558	0.068642	-0.183095
C17	C	-0.854098	-0.137248	-0.181406
C18	C	-0.919620	-0.205881	-0.183150
C19	C	-1.050643	-0.205881	-0.186612
C20	C	-1.116143	-0.137249	-0.188330
N21	N	-1.485047	0.179178	-0.184832
C22	C	-1.569712	0.218790	-0.100239
C23	C	-1.569718	0.298038	-0.100233
C24	C	-1.485072	0.337670	-0.184842
C25	C	-1.400391	0.298049	-0.269442
C26	C	-1.400378	0.218803	-0.269436
N27	N	-1.470052	0.462087	-0.295832
N28	N	-1.470071	0.537368	-0.295833
C29	C	-1.485103	0.576434	-0.184861
N30	N	-1.500139	0.537377	-0.073884
N31	N	-1.500126	0.462089	-0.073884
C32	C	-1.485076	0.423599	-0.184857
C33	C	-1.569780	0.701976	-0.100255
C34	C	-1.569777	0.781225	-0.100248
C35	C	-1.400456	0.781234	-0.269467
C36	C	-1.400452	0.701987	-0.269463
C37	C	-1.485121	0.662362	-0.184859
C38	C	-0.714624	0.000016	-0.177685
C39	C	-0.854067	0.000010	-0.181379
C40	C	-1.492257	0.000017	0.044690
C41	C	-1.488565	0.000014	0.184133
N42	N	-1.485128	0.820852	-0.184856
C43	C	-1.477919	0.000011	-0.414384
C44	C	-1.481610	0.000009	-0.553827
C45	C	-1.601106	0.000018	0.263615
C46	C	-1.597629	0.000013	0.394636
C47	C	-1.369061	0.000003	0.366680
C48	C	-1.372539	0.000003	0.235662
C49	C	-1.717132	0.000029	0.212087
C50	C	-1.829682	0.000034	0.291570
C51	C	-1.826206	0.000029	0.422591
C52	C	-1.710179	0.000019	0.474129
H53	H	-1.103918	0.124519	-0.187967
Cl54	Cl	-1.967694	0.000026	0.522509
H55	H	-1.638718	0.813478	-0.031355
H56	H	-1.331515	0.669732	-0.338352
Cl57	Cl	-1.294033	0.831052	-0.375823
H58	H	-1.638665	0.330296	-0.031345
Cl59	Cl	-1.705813	0.000046	0.638843
H60	H	-0.866206	0.124524	-0.181700
Cl61	Cl	-1.676212	0.652161	0.006111
H62	H	-1.103989	-0.261765	-0.188020
Cl63	Cl	-1.676143	0.168977	0.006125
Cl64	Cl	-1.293972	0.347871	-0.375803
Cl65	Cl	-1.721510	0.000038	0.047376
Cl66	Cl	-1.975536	0.000036	0.226781
Cl67	Cl	-1.223209	-0.000007	0.431473
Cl68	Cl	-1.280861	-0.137252	-0.192663
H69	H	-1.280898	0.000001	0.170945
H70	H	-1.331432	0.186550	-0.338323
H71	H	-0.747412	-0.137256	-0.178591
Cl72	Cl	-0.837283	-0.292156	-0.180960
