data_functionalizedCrystal
_audit_creation_method	'MofGen! by Chris Wilmer'
_symmetry_space_group_name_H-M	'P1'
_symmetry_Int_Tables_number	1
_symmetry_cell_setting	triclinic
loop_
_symmetry_equiv_pos_as_xyz
  x,y,z
_cell_length_a	19.288840
_cell_length_b	10.540510
_cell_length_c	18.366186
_cell_angle_alpha	89.996284
_cell_angle_beta	89.983729
_cell_angle_gamma	83.819664
loop_
_atom_site_label
_atom_site_type_symbol
_atom_site_fract_x
_atom_site_fract_y
_atom_site_fract_z
O1	O	0.922410	0.158196	-0.060668
O2	O	0.720289	0.179590	-0.060642
O3	O	0.825971	-0.015920	-0.060655
O4	O	0.816727	0.353705	-0.060654
O5	O	0.825953	-0.015930	0.060444
O6	O	0.720270	0.179580	0.060458
O7	O	0.922392	0.158186	0.060432
Zn8	Zn	0.821328	0.168882	0.079672
Zn9	Zn	0.821352	0.168894	-0.079882
O10	O	0.816709	0.353696	0.060445
C11	C	0.694398	0.178902	-0.000089
C12	C	0.617280	0.176851	-0.000079
C13	C	0.581080	0.175871	-0.066092
C14	C	0.508620	0.173931	-0.066101
C15	C	0.472365	0.172944	-0.000093
C16	C	0.508574	0.173931	0.065929
C17	C	0.581031	0.175885	0.065936
C18	C	0.362518	0.095496	0.050468
C19	C	0.290062	0.093535	0.050458
C20	C	0.248882	0.166924	-0.000112
C21	C	0.280167	0.242259	-0.050685
C22	C	0.352625	0.244212	-0.050678
C23	C	0.393797	0.170826	-0.000094
C24	C	0.134112	0.163842	-0.066140
C25	C	0.061651	0.161909	-0.066146
C26	C	0.061606	0.161897	0.065886
C27	C	0.134066	0.163842	0.065890
C28	C	0.170315	0.164809	-0.000125
C29	C	0.825273	-0.063213	-0.000107
C30	C	0.823212	-0.204117	-0.000111
C31	C	0.896630	-0.423220	0.000157
C32	C	0.898828	-0.276674	-0.000120
C33	C	0.784515	-0.248001	-0.069258
C34	C	0.782852	-0.394724	-0.069312
C35	C	0.781257	-0.394508	0.068401
C36	C	0.784843	-0.248248	0.069311
C37	C	0.948282	0.158874	-0.000123
C38	C	1.025400	0.160924	-0.000137
C39	C	0.817407	0.400989	-0.000105
C40	C	0.819468	0.541892	-0.000106
N41	N	0.821317	0.168872	0.188563
N42	N	0.821369	0.168893	-0.188773
C43	C	0.868129	0.082343	0.226658
C44	C	0.868133	0.082337	0.302885
C45	C	0.821332	0.168883	0.341016
C46	C	0.774512	0.255419	0.302912
C47	C	0.774504	0.255413	0.226686
C48	C	0.812799	0.284540	0.461777
C49	C	0.812812	0.284547	0.538002
C50	C	0.821352	0.168899	0.576123
C51	C	0.829895	0.053238	0.538010
C52	C	0.829887	0.053233	0.461784
C53	C	0.821335	0.168897	0.423670
C54	C	0.868172	0.082356	0.696873
C55	C	0.868171	0.082349	0.773102
C56	C	0.774553	0.255441	0.773127
C57	C	0.774550	0.255437	0.696899
C58	C	0.821363	0.168896	0.658777
H59	H	0.479050	0.173131	0.119673
O60	O	0.620082	0.176958	0.137138
H61	H	0.582701	0.175951	0.183038
O62	O	0.235763	0.321433	-0.105231
H63	H	0.180122	0.307437	-0.096736
O64	O	0.918634	-0.011033	0.655752
H65	H	0.910763	0.003497	0.596346
O66	O	0.256324	0.012291	0.105007
H67	H	0.277046	-0.089251	0.097543
O68	O	0.938950	-0.238697	0.065524
H69	H	0.956955	-0.325079	0.097753
O70	O	0.386376	0.325305	-0.105296
H71	H	0.443682	0.314263	-0.096824
H72	H	0.813001	-0.220272	0.120465
O73	O	0.939187	-0.239940	-0.065902
H74	H	0.940906	-0.135025	-0.066326
O75	O	0.838914	-0.071517	0.420679
H76	H	0.837411	-0.052088	0.361271
H77	H	0.726296	-0.416449	-0.072438
O78	O	0.935442	-0.481707	-0.065166
H79	H	0.954018	-0.404976	-0.099050
H80	H	0.396041	0.035730	0.091652
H81	H	0.736444	0.325903	0.804172
H82	H	0.809313	-0.435530	-0.121008
O83	O	0.803592	0.409283	0.420661
H84	H	0.797666	0.489706	0.459967
H85	H	0.728848	-0.199362	-0.071822
O86	O	0.839102	-0.071513	0.579113
H87	H	0.837662	-0.052085	0.638520
H88	H	0.811404	-0.217744	-0.120724
H89	H	0.906289	0.011879	0.804119
H90	H	0.736434	0.325903	0.665881
O91	O	0.803612	0.409287	0.579109
H92	H	0.797663	0.489703	0.539796
O93	O	0.935645	-0.479634	0.065854
H94	H	0.900462	-0.533156	0.099018
H95	H	0.906245	0.011873	0.195620
H96	H	0.736383	0.325877	0.195668
O97	O	0.724038	0.348784	0.344028
H98	H	0.690025	0.295530	0.378784
O99	O	0.812907	-0.451425	0.137830
H100	H	0.808044	-0.555383	0.138827
O101	O	0.711722	-0.181589	0.074873
H102	H	0.701537	-0.115683	0.028030
O103	O	0.706057	-0.422171	0.069042
H104	H	0.695912	-0.480922	0.020834
H105	H	0.163627	0.164642	-0.119893
H106	H	0.906255	0.011872	0.333908
H107	H	0.610590	0.176658	-0.119847
H108	H	0.032177	0.161119	-0.119904
O109	O	0.469564	0.172848	-0.137303
H110	H	0.506944	0.173835	-0.183205
O111	O	0.022499	0.161072	0.137084
H112	H	-0.033974	0.159630	0.125990
H113	H	0.163541	0.164632	0.119645
