data_functionalizedCrystal
_audit_creation_method	'MofGen! by Chris Wilmer'
_symmetry_space_group_name_H-M	'P1'
_symmetry_Int_Tables_number	1
_symmetry_cell_setting	triclinic
loop_
_symmetry_equiv_pos_as_xyz
  x,y,z
_cell_length_a	14.853567
_cell_length_b	11.792241
_cell_length_c	13.930277
_cell_angle_alpha	89.995317
_cell_angle_beta	89.995755
_cell_angle_gamma	83.914173
loop_
_atom_site_label
_atom_site_type_symbol
_atom_site_fract_x
_atom_site_fract_y
_atom_site_fract_z
O1	O	1.196945	0.148181	-0.079765
O2	O	0.934554	0.165833	-0.079782
O3	O	1.072117	-0.008203	-0.079766
O4	O	1.059382	0.322217	-0.079780
O5	O	1.072098	-0.008206	0.079896
O6	O	0.934535	0.165829	0.079880
O7	O	1.196926	0.148177	0.079897
Zn8	Zn	1.065728	0.157003	0.105238
Zn9	Zn	1.065753	0.157008	-0.105123
O10	O	1.059363	0.322213	0.079881
C11	C	0.900953	0.165032	0.000047
C12	C	0.800860	0.162635	0.000041
C13	C	0.387884	0.049122	0.000068
C14	C	0.367408	0.255880	0.000058
C15	C	0.461451	0.258134	0.000055
C16	C	0.518715	0.155880	0.000056
C17	C	0.481936	0.051372	0.000062
C18	C	0.498237	0.362640	0.000040
C19	C	0.592285	0.364898	0.000035
C20	C	0.649550	0.262642	0.000044
C21	C	0.612766	0.158131	0.000050
C22	C	0.670030	0.055877	0.000052
C23	C	0.633248	-0.048637	0.000065
C24	C	0.539201	-0.050883	0.000070
C25	C	0.743596	0.264889	0.000039
C26	C	0.764081	0.058127	0.000046
C27	C	1.071308	-0.050491	0.000064
C28	C	1.068913	-0.176489	0.000063
C29	C	1.064511	-0.407174	0.000047
C30	C	1.066957	-0.278804	0.000056
C31	C	1.230527	0.148979	0.000066
C32	C	1.330621	0.151376	0.000066
C33	C	1.060173	0.364501	0.000049
C34	C	1.062567	0.490500	0.000044
N35	N	1.065717	0.156999	0.248804
N36	N	1.065771	0.157003	-0.248689
C37	C	1.004838	0.234041	0.701067
C38	C	1.126693	0.079966	0.701050
C39	C	1.126682	0.079963	0.600554
C40	C	1.065749	0.157000	0.550310
C41	C	1.004827	0.234042	0.600562
C42	C	1.187610	0.002930	0.550295
C43	C	1.187602	0.002925	0.449793
C44	C	1.126664	0.079958	0.399547
C45	C	1.065738	0.157001	0.449805
C46	C	1.004805	0.234039	0.399561
C47	C	0.943875	0.311078	0.449817
C48	C	0.943889	0.311075	0.550316
C49	C	1.126650	0.079961	0.299048
C50	C	1.004794	0.234040	0.299056
H51	H	0.320779	0.339131	0.000048
C52	C	0.784059	0.379834	0.000022
H53	H	0.848271	0.366531	0.000014
H54	H	0.764436	0.421950	0.055693
H55	H	0.764442	0.421934	-0.055669
C56	C	0.347433	-0.065836	0.000080
H57	H	0.395010	-0.126409	0.000085
H58	H	0.311169	-0.071015	-0.055593
H59	H	0.311176	-0.071014	0.055770
C60	C	0.435249	0.475108	0.000042
H61	H	0.373971	0.458797	0.000060
H62	H	0.446447	0.517959	-0.055638
H63	H	0.446457	0.517948	0.055724
C64	C	0.696239	-0.161112	0.000059
H65	H	0.660869	-0.223679	0.000060
H66	H	0.733360	-0.164531	0.055728
H67	H	0.733344	-0.164520	-0.055634
C68	C	0.937822	0.318780	0.756342
H69	H	0.946554	0.307755	0.823393
H70	H	0.877595	0.306318	0.739881
H71	H	0.947986	0.394556	0.739864
H72	H	1.176308	0.017250	0.741962
C73	C	0.937771	0.318785	0.243791
H74	H	0.946487	0.307753	0.176739
H75	H	0.947929	0.394555	0.260259
H76	H	0.877544	0.306311	0.260270
H77	H	1.237224	-0.059786	0.591207
H78	H	0.894282	0.373798	0.591241
C79	C	1.193664	-0.004766	0.243766
H80	H	1.184934	0.006270	0.176717
H81	H	1.183516	-0.080541	0.260246
H82	H	1.253893	0.007715	0.260222
H83	H	0.622224	0.449998	0.000025
C84	C	0.876854	0.395816	0.394542
H85	H	0.885577	0.384776	0.327492
H86	H	0.887007	0.471590	0.411005
H87	H	0.816625	0.383341	0.411016
C88	C	1.254614	-0.081823	0.394520
H89	H	1.290899	-0.127708	0.438839
H90	H	1.292334	-0.040915	0.355298
H91	H	1.221941	-0.129149	0.355333
H92	H	0.509244	-0.135972	0.000104
C93	C	0.827065	-0.054355	0.000043
H94	H	0.791687	-0.116915	0.000044
H95	H	0.864183	-0.057779	0.055714
H96	H	0.864172	-0.057771	-0.055648
