data_functionalizedCrystal
_audit_creation_method	'MofGen! by Chris Wilmer'
_symmetry_space_group_name_H-M	'P1'
_symmetry_Int_Tables_number	1
_symmetry_cell_setting	triclinic
loop_
_symmetry_equiv_pos_as_xyz
  x,y,z
_cell_length_a	19.188930
_cell_length_b	11.792254
_cell_length_c	17.666332
_cell_angle_alpha	90.009288
_cell_angle_beta	90.011603
_cell_angle_gamma	83.671689
loop_
_atom_site_label
_atom_site_type_symbol
_atom_site_fract_x
_atom_site_fract_y
_atom_site_fract_z
O1	O	0.095738	1.505475	0.062957
O2	O	0.105591	1.174988	0.062960
O3	O	-0.000937	1.349769	0.062943
O4	O	0.202266	1.330695	0.062973
O5	O	-0.000943	1.349738	-0.062953
O6	O	0.105585	1.174958	-0.062937
O7	O	0.095732	1.505444	-0.062940
Cu8	Cu	0.100658	1.340198	-0.074434
Cu9	Cu	0.100665	1.340234	0.074454
O10	O	0.202260	1.330664	-0.062924
C11	C	0.104968	1.132692	0.000011
C12	C	0.103110	1.006706	0.000012
C13	C	0.101600	0.904392	0.000015
C14	C	0.099713	0.776034	0.000015
C15	C	-0.026954	1.349136	-0.000007
C16	C	-0.104469	1.347282	-0.000014
C17	C	-0.148809	1.449837	-0.000018
C18	C	-0.221643	1.448095	-0.000006
C19	C	-0.250134	1.343792	-0.000005
C20	C	-0.205784	1.241223	0.000004
C21	C	-0.132951	1.242968	-0.000000
N22	N	-0.358594	1.264054	-0.042849
N23	N	-0.427782	1.262403	-0.042846
C24	C	-0.469572	1.338528	0.000011
N25	N	-0.439561	1.416383	0.042856
N26	N	-0.370367	1.418037	0.042849
C27	C	-0.329107	1.341888	0.000001
C28	C	-0.592887	1.439202	0.000021
C29	C	-0.665722	1.437455	0.000037
C30	C	-0.649861	1.230580	0.000040
C31	C	-0.577028	1.232330	0.000031
C32	C	-0.548546	1.336643	0.000017
C33	C	0.228278	1.331297	0.000029
C34	C	0.305793	1.333151	0.000040
C35	C	0.096356	1.547741	0.000010
C36	C	0.098214	1.673726	0.000015
N37	N	0.100653	1.340181	-0.179153
C38	C	0.053506	1.417599	-0.218770
C39	C	0.053502	1.417606	-0.298018
C40	C	0.100658	1.340205	-0.337645
C41	C	0.147809	1.262773	-0.298019
C42	C	0.147806	1.262761	-0.218773
N43	N	0.162382	1.325452	-0.462055
N44	N	0.162382	1.325470	-0.537335
C45	C	0.100668	1.340235	-0.576409
N46	N	0.038952	1.355004	-0.537359
N47	N	0.038952	1.354991	-0.462072
C48	C	0.100666	1.340209	-0.423575
C49	C	0.053514	1.417664	-0.701956
C50	C	0.053509	1.417663	-0.781205
C51	C	0.147822	1.262836	-0.781204
C52	C	0.147820	1.262832	-0.701957
C53	C	0.100667	1.340252	-0.662337
N54	N	0.100665	1.340261	0.179173
H55	H	-0.125624	1.534777	-0.000026
C56	C	-0.039698	1.570724	-0.773240
C57	C	0.001683	1.502772	-0.824755
H58	H	-0.071689	1.623273	-0.800129
H59	H	-0.065015	1.523615	-0.742348
H60	H	-0.010453	1.611383	-0.742315
H61	H	-0.027562	1.462106	-0.855676
H62	H	0.027002	1.549887	-0.855660
C63	C	0.189696	1.194060	-0.419499
C64	C	0.199646	1.177696	-0.341575
H65	H	0.221701	1.141536	-0.446386
H66	H	0.143054	1.181970	-0.432498
H67	H	0.197597	1.269769	-0.432460
H68	H	0.191740	1.101989	-0.328613
H69	H	0.246300	1.189777	-0.328570
H70	H	-0.540925	1.148818	0.000030
C71	C	-0.722546	1.108626	0.064767
C72	C	-0.681169	1.115926	0.000044
H73	H	-0.741879	1.037843	0.064768
H74	H	-0.694451	1.113615	0.108658
H75	H	-0.759378	1.169462	0.064760
H76	H	-0.644333	1.055095	0.000054
H77	H	-0.709266	1.110926	-0.043858
C78	C	0.241047	1.109808	-0.709919
C79	C	0.199655	1.177743	-0.658405
H80	H	0.273050	1.057279	-0.683030
H81	H	0.211816	1.069136	-0.740840
H82	H	0.266357	1.156939	-0.740815
H83	H	0.174341	1.130612	-0.627512
H84	H	0.228890	1.218418	-0.627471
H85	H	-0.701824	1.520972	0.000038
H86	H	-0.257752	1.531611	-0.000006
H87	H	-0.228985	1.156298	0.000007
C88	C	-0.041356	1.442865	-0.612783
C89	C	0.001729	1.502791	-0.658367
H90	H	-0.073307	1.495433	-0.585862
H91	H	-0.066717	1.395812	-0.643690
H92	H	-0.013261	1.396722	-0.577872
H93	H	-0.026366	1.548928	-0.693282
H94	H	0.027092	1.549864	-0.627457
H95	H	-0.096849	1.159452	0.000003
C96	C	-0.615878	1.643512	0.000037
C97	C	-0.561574	1.553860	0.000024
H98	H	-0.596546	1.714296	0.000047
H99	H	-0.643964	1.638528	-0.043862
H100	H	-0.643946	1.638521	0.043945
H101	H	-0.533509	1.558846	-0.043886
H102	H	-0.533476	1.558846	0.043928
H103	H	0.015109	1.480636	-0.186514
H104	H	0.015108	1.480650	-0.330280
H105	H	0.186215	1.199811	-0.813469
C106	C	0.241031	1.109726	-0.226734
C107	C	0.199640	1.177665	-0.175221
H108	H	0.273034	1.057198	-0.199844
H109	H	0.211798	1.069052	-0.257653
H110	H	0.266341	1.156853	-0.257633
H111	H	0.174326	1.130538	-0.144326
H112	H	0.228876	1.218342	-0.144290
