data_functionalizedCrystal
_audit_creation_method	'MofGen! by Chris Wilmer'
_symmetry_space_group_name_H-M	'P1'
_symmetry_Int_Tables_number	1
_symmetry_cell_setting	triclinic
loop_
_symmetry_equiv_pos_as_xyz
  x,y,z
_cell_length_a	16.109301
_cell_length_b	14.853567
_cell_length_c	15.186229
_cell_angle_alpha	90.000050
_cell_angle_beta	89.999362
_cell_angle_gamma	83.548205
loop_
_atom_site_label
_atom_site_type_symbol
_atom_site_fract_x
_atom_site_fract_y
_atom_site_fract_z
O1	O	1.103293	0.115881	-0.073165
O2	O	0.861252	0.130302	-0.073178
O3	O	0.988738	-0.008149	-0.073174
O4	O	0.975807	0.254332	-0.073170
O5	O	0.988729	-0.008151	0.073283
O6	O	0.861243	0.130300	0.073279
O7	O	1.103285	0.115879	0.073292
Zn8	Zn	0.982263	0.123089	0.096539
Zn9	Zn	0.982274	0.123092	-0.096425
O10	O	0.975799	0.254330	0.073288
C11	C	0.830272	0.129717	0.000048
C12	C	0.737974	0.127965	0.000043
C13	C	0.515811	0.206047	0.000055
C14	C	0.429089	0.204395	0.000060
C15	C	0.448732	0.040127	0.000054
C16	C	0.535453	0.041781	0.000054
C17	C	0.568990	0.124743	0.000050
C18	C	0.395546	0.121437	0.000055
C19	C	0.301518	0.119645	0.000061
C20	C	0.663025	0.126536	0.000046
C21	C	0.988148	-0.041738	0.000052
C22	C	0.986392	-0.141819	0.000044
C23	C	0.903241	-0.554215	0.000056
C24	C	1.054697	-0.575746	0.000064
C25	C	1.056348	-0.481715	0.000059
C26	C	0.981444	-0.423930	0.000054
C27	C	0.904889	-0.460175	0.000054
C28	C	1.132901	-0.445463	0.000068
C29	C	1.134555	-0.351426	0.000064
C30	C	1.059650	-0.293639	0.000053
C31	C	0.983093	-0.329890	0.000052
C32	C	0.908189	-0.272104	0.000046
C33	C	0.831630	-0.308353	0.000039
C34	C	0.829984	-0.402388	0.000042
C35	C	1.061296	-0.199604	0.000049
C36	C	0.909837	-0.178064	0.000044
C37	C	1.134265	0.116464	0.000063
C38	C	1.226563	0.118215	0.000063
C39	C	0.976389	0.287918	0.000060
C40	C	0.978145	0.387999	0.000062
N41	N	0.982261	0.123087	0.228231
N42	N	0.982282	0.123087	-0.228118
C43	C	1.038731	0.061801	0.453956
C44	C	1.038734	0.061799	0.546146
C45	C	0.925806	0.184375	0.546151
C46	C	0.925800	0.184372	0.453963
C47	C	0.982267	0.123086	0.407868
C48	C	0.982276	0.123087	0.592246
C49	C	0.982278	0.123085	0.692202
C50	C	0.982264	0.123087	0.307905
H51	H	0.578754	-0.024431	0.000053
O52	O	0.755694	-0.437750	0.000083
C53	C	0.686036	-0.573077	0.000045
C54	C	0.770226	-0.533146	0.000015
H55	H	0.697757	-0.650209	-0.000028
H56	H	0.649003	-0.549339	0.061350
H57	H	0.649017	-0.549233	-0.061234
H58	H	0.807313	-0.556971	0.061253
H59	H	0.807196	-0.556879	-0.061330
O60	O	0.870993	0.244032	0.590830
C61	C	0.822484	0.400781	0.619070
C62	C	0.884595	0.333316	0.568405
H63	H	0.833471	0.472981	0.600972
H64	H	0.755865	0.389084	0.600931
H65	H	0.832173	0.390214	0.692872
H66	H	0.874982	0.343842	0.494591
H67	H	0.951191	0.345030	0.586617
O68	O	1.208899	-0.316174	0.000218
C69	C	1.298639	-0.222450	0.076053
C70	C	1.214426	-0.262332	0.076003
H71	H	1.303128	-0.178895	0.137309
H72	H	1.351925	-0.279867	0.076113
H73	H	1.303184	-0.179009	0.014727
H74	H	1.209799	-0.305763	0.137318
H75	H	1.161180	-0.204872	0.075897
O76	O	0.871063	0.243950	0.409092
C77	C	0.853505	0.367101	0.305044
C78	C	0.915583	0.299673	0.355789
H79	H	0.889475	0.412184	0.261951
H80	H	0.811938	0.328212	0.261829
H81	H	0.813137	0.410868	0.353842
H82	H	0.956006	0.255889	0.307055
H83	H	0.957093	0.338617	0.399017
H84	H	1.115680	-0.622800	0.000076
H85	H	0.421415	-0.027418	0.000062
O86	O	1.205581	-0.501721	0.000041
C87	C	1.270157	-0.656135	0.000108
C88	C	1.187783	-0.592520	0.000116
H89	H	1.255797	-0.729559	0.000187
H90	H	1.307847	-0.643029	-0.061192
H91	H	1.307817	-0.642902	0.061392
H92	H	1.150057	-0.605715	-0.061126
H93	H	1.150157	-0.605639	0.061457
H94	H	1.084711	0.011894	0.583668
H95	H	0.770643	-0.261292	0.000041
O96	O	0.548252	0.286712	0.000097
C97	C	0.519611	0.449468	0.000058
C98	C	0.482765	0.358177	0.000027
H99	H	0.466683	0.507271	-0.000018
H100	H	0.559690	0.454407	0.061365
H101	H	0.559749	0.454306	-0.061220
H102	H	0.442589	0.353277	0.061263
H103	H	0.442734	0.353277	-0.061320
O104	O	1.135583	-0.164241	0.000096
C105	C	1.205248	-0.028920	0.000042
C106	C	1.121055	-0.068845	0.000011
H107	H	1.193531	0.048213	-0.000046
H108	H	1.242272	-0.052647	0.061355
H109	H	1.242274	-0.052778	-0.061230
H110	H	1.083961	-0.045005	0.061241
H111	H	1.084094	-0.045123	-0.061342
O112	O	0.837018	-0.122026	-0.000080
C113	C	0.708102	-0.074811	-0.075994
C114	C	0.790528	-0.138339	-0.075953
H115	H	0.670500	-0.087965	-0.137341
H116	H	0.670370	-0.088000	-0.014748
H117	H	0.722448	-0.001382	-0.075949
H118	H	0.776258	-0.211791	-0.076029
H119	H	0.828236	-0.125071	-0.137194
O120	O	0.828947	-0.589571	0.000089
C121	C	0.759275	-0.724888	0.000028
C122	C	0.843470	-0.684968	0.000011
H123	H	0.770987	-0.802021	-0.000055
H124	H	0.722239	-0.701154	0.061332
H125	H	0.722261	-0.701032	-0.061252
H126	H	0.880551	-0.708805	0.061249
H127	H	0.880442	-0.708697	-0.061334
O128	O	1.093607	0.002178	0.409315
C129	C	1.205645	-0.119369	0.419044
C130	C	1.143531	-0.051905	0.469706
H131	H	1.246036	-0.163100	0.467848
H132	H	1.169740	-0.164481	0.375913
H133	H	1.247183	-0.080419	0.375855
H134	H	1.101977	-0.090781	0.512943
H135	H	1.179488	-0.006794	0.512781
H136	H	0.385793	0.270600	0.000066
