data_functionalizedCrystal
_audit_creation_method	'MofGen! by Chris Wilmer'
_symmetry_space_group_name_H-M	'P1'
_symmetry_Int_Tables_number	1
_symmetry_cell_setting	triclinic
loop_
_symmetry_equiv_pos_as_xyz
  x,y,z
_cell_length_a	16.956995
_cell_length_b	16.109301
_cell_length_c	15.186229
_cell_angle_alpha	90.005167
_cell_angle_beta	89.993490
_cell_angle_gamma	100.242024
loop_
_atom_site_label
_atom_site_type_symbol
_atom_site_fract_x
_atom_site_fract_y
_atom_site_fract_z
O1	O	1.058027	-0.034457	-0.073290
O2	O	0.825862	-0.063645	-0.073279
O3	O	0.948322	0.072416	-0.073276
O4	O	0.935567	-0.170519	-0.073293
O5	O	0.948314	0.072417	0.073181
O6	O	0.825854	-0.063644	0.073178
O7	O	1.058019	-0.034456	0.073167
Zn8	Zn	0.941935	-0.049050	0.096426
Zn9	Zn	0.941946	-0.049052	-0.096538
O10	O	0.935558	-0.170518	0.073164
C11	C	0.796150	-0.065139	-0.000049
C12	C	0.707628	-0.069582	-0.000045
C13	C	0.208319	-0.102821	-0.000080
C14	C	0.291495	-0.098640	-0.000079
C15	C	0.342604	-0.020156	-0.000067
C16	C	0.310533	0.054152	-0.000064
C17	C	0.227358	0.049970	-0.000072
C18	C	0.592382	0.000543	-0.000050
C19	C	0.675562	0.004720	-0.000040
C20	C	0.656519	-0.148073	-0.000056
C21	C	0.573343	-0.152248	-0.000058
C22	C	0.541279	-0.077940	-0.000060
N23	N	0.427624	-0.015880	-0.000063
N24	N	0.456261	-0.082217	-0.000070
C25	C	0.947801	0.103356	-0.000047
C26	C	0.946252	0.195545	-0.000046
C27	C	1.087731	-0.032962	-0.000065
C28	C	1.176253	-0.028519	-0.000075
C29	C	0.936079	-0.201458	-0.000067
C30	C	0.937628	-0.293647	-0.000074
N31	N	0.941933	-0.049048	0.228119
C32	C	1.015316	0.422544	-0.000063
C33	C	1.013854	0.509165	-0.000070
C34	C	0.868559	0.479347	-0.000060
C35	C	0.870022	0.392728	-0.000059
C36	C	0.943402	0.364330	-0.000056
C37	C	0.940478	0.537569	-0.000064
C38	C	0.938893	0.631486	-0.000072
C39	C	0.944988	0.270406	-0.000050
N40	N	0.941954	-0.049047	-0.228231
C41	C	0.996177	0.011182	0.453843
C42	C	0.996180	0.011184	0.546033
C43	C	0.887704	-0.109280	0.546039
C44	C	0.887698	-0.109278	0.453851
C45	C	0.941939	-0.049047	0.407755
C46	C	0.941948	-0.049047	0.592133
C47	C	0.941950	-0.049045	0.692089
C48	C	0.941936	-0.049048	0.307793
H49	H	0.682635	-0.208570	-0.000055
C50	C	0.788973	0.510349	-0.000008
C51	C	0.803082	0.598666	0.000016
C52	C	0.729785	0.627252	0.000078
H53	H	0.759302	0.490113	-0.051064
H54	H	0.759357	0.490077	0.051088
H55	H	0.832686	0.618930	-0.051076
H56	H	0.832741	0.618925	0.051068
H57	H	0.700169	0.606980	0.051175
H58	H	0.700120	0.607010	-0.050978
H59	H	0.739348	0.687177	0.000103
C60	C	0.791878	0.329610	-0.000188
C61	C	0.747687	0.341693	-0.075523
C62	C	0.675696	0.283573	-0.075670
H63	H	0.803146	0.273921	-0.000236
H64	H	0.761743	0.337691	0.050861
H65	H	0.777816	0.333606	-0.126558
H66	H	0.736398	0.397371	-0.075491
H67	H	0.645561	0.291654	-0.024621
H68	H	0.686972	0.227887	-0.075715
H69	H	0.645701	0.291768	-0.126779
H70	H	0.843527	-0.158324	0.416324
H71	H	0.843543	-0.158319	0.583579
H72	H	0.166711	-0.166732	-0.000083
C73	C	0.730921	0.090017	-0.000083
C74	C	0.685040	0.154199	-0.000115
C75	C	0.736009	0.232780	-0.000168
H76	H	0.763774	0.094948	0.050978
H77	H	0.763760	0.094861	-0.051174
H78	H	0.652215	0.149358	0.050971
H79	H	0.652189	0.149296	-0.051172
H80	H	0.768847	0.237623	-0.051259
H81	H	0.768859	0.237702	0.050894
H82	H	0.704886	0.276337	-0.000197
H83	H	0.566286	0.061050	-0.000049
H84	H	0.317599	-0.159145	-0.000091
C85	C	1.054941	0.076663	0.596117
C86	C	1.012485	0.124682	0.649037
C87	C	1.066591	0.185020	0.695177
H88	H	1.088148	0.049115	0.632144
H89	H	1.087230	0.112579	0.555486
H90	H	0.980210	0.088771	0.689663
H91	H	0.979282	0.152249	0.613032
H92	H	1.098880	0.220936	0.654546
H93	H	1.099794	0.157465	0.731199
H94	H	1.037793	0.217613	0.731082
H95	H	0.531735	-0.216158	-0.000071
C96	C	1.092019	0.572237	-0.000029
C97	C	1.156591	0.528823	-0.000005
C98	C	1.228611	0.586897	0.000042
H99	H	1.094587	0.606667	-0.051090
H100	H	1.094510	0.606644	0.051062
H101	H	1.154101	0.494430	-0.051092
H102	H	1.154050	0.494396	0.051052
H103	H	1.231102	0.621304	0.051134
H104	H	1.231171	0.621324	-0.051019
H105	H	1.272432	0.557449	0.000067
H106	H	0.352152	0.118055	-0.000060
C107	C	1.055095	0.076675	0.403955
C108	C	1.102579	0.129435	0.464053
C109	C	1.156856	0.189787	0.418131
H110	H	1.088355	0.049134	0.367978
H111	H	1.026438	0.109378	0.368022
H112	H	1.131235	0.096737	0.499971
H113	H	1.069341	0.156996	0.500031
H114	H	1.128198	0.222490	0.382198
H115	H	1.190110	0.162239	0.382156
H116	H	1.189075	0.225597	0.458901
H117	H	0.201251	0.110475	-0.000069
C118	C	1.094926	0.391591	-0.000208
C119	C	1.099999	0.342709	-0.075545
C120	C	1.173321	0.314174	-0.075706
H121	H	1.137614	0.438588	-0.000260
H122	H	1.098526	0.358379	0.050839
H123	H	1.096407	0.375919	-0.126579
H124	H	1.057328	0.295700	-0.075509
H125	H	1.176921	0.280963	-0.024660
H126	H	1.216004	0.361176	-0.075756
H127	H	1.176770	0.280998	-0.126817
