data_functionalizedCrystal
_audit_creation_method	'MofGen! by Chris Wilmer'
_symmetry_space_group_name_H-M	'P1'
_symmetry_Int_Tables_number	1
_symmetry_cell_setting	triclinic
loop_
_symmetry_equiv_pos_as_xyz
  x,y,z
_cell_length_a	23.532407
_cell_length_b	23.532407
_cell_length_c	22.610064
_cell_angle_alpha	90.000603
_cell_angle_beta	89.997161
_cell_angle_gamma	97.151322
loop_
_atom_site_label
_atom_site_type_symbol
_atom_site_fract_x
_atom_site_fract_y
_atom_site_fract_z
O1	O	0.755263	-0.069127	-0.049117
O2	O	1.255263	0.430873	0.450883
O3	O	0.589400	-0.079130	-0.049135
O4	O	1.089400	0.420870	0.450865
O5	O	0.677333	0.008803	-0.049114
O6	O	1.177333	0.508803	0.450886
O7	O	0.667330	-0.157060	-0.049137
O8	O	1.167330	0.342940	0.450863
O9	O	0.677318	0.008790	0.049255
O10	O	1.177318	0.508790	0.549255
O11	O	0.589385	-0.079143	0.049234
O12	O	1.089385	0.420857	0.549234
O13	O	0.755248	-0.069140	0.049252
O14	O	1.255248	0.430860	0.549252
Zn15	Zn	0.672314	-0.074144	0.064862
Zn16	Zn	1.172314	0.425856	0.564862
Zn17	Zn	0.672334	-0.074127	-0.064744
Zn18	Zn	1.172334	0.425873	0.435256
O19	O	0.667315	-0.157073	0.049232
O20	O	1.167315	0.342927	0.549232
C21	C	0.568176	-0.078882	0.000048
C22	C	1.068176	0.421118	0.500048
C23	C	0.504959	-0.078116	0.000041
C24	C	1.004959	0.421884	0.500041
C25	C	0.105856	-0.125350	0.000061
C26	C	0.605856	0.374650	0.500061
C27	C	0.046456	-0.124638	0.000065
C28	C	0.546456	0.375362	0.500065
O29	O	0.009711	-0.168424	0.000081
O30	O	0.509711	0.331576	0.500081
N31	N	0.023830	-0.072362	0.000071
N32	N	0.523830	0.427638	0.500071
C33	C	0.060607	-0.020794	0.000080
C34	C	0.560607	0.479206	0.500080
O35	O	0.035908	0.023737	0.000086
O36	O	0.535908	0.523737	0.500086
C37	C	0.120006	-0.021506	0.000080
C38	C	0.620006	0.478494	0.500080
C39	C	0.142629	-0.073785	0.000068
C40	C	0.642629	0.426215	0.500068
C41	C	0.128479	-0.177625	0.000050
C42	C	0.628479	0.322375	0.500050
C43	C	0.187876	-0.178336	0.000045
C44	C	0.687876	0.321664	0.500045
C45	C	0.224649	-0.126772	0.000052
C46	C	0.724649	0.373228	0.500052
C47	C	0.202025	-0.074497	0.000063
C48	C	0.702025	0.425503	0.500063
C49	C	0.156783	0.030062	0.000093
C50	C	0.656783	0.530062	0.500093
C51	C	0.216185	0.029345	0.000094
C52	C	0.716185	0.529345	0.500094
C53	C	0.238808	-0.022934	0.000082
C54	C	0.738808	0.477066	0.500082
C55	C	0.298194	-0.023643	0.000065
C56	C	0.798194	0.476357	0.500065
N57	N	0.320820	-0.075920	0.000059
N58	N	0.820820	0.424080	0.500059
C59	C	0.284048	-0.127484	0.000052
C60	C	0.784048	0.372516	0.500052
C61	C	-0.064135	-0.019302	0.000080
C62	C	0.435865	0.480698	0.500080
C63	C	-0.123533	-0.018589	0.000075
C64	C	0.376467	0.481411	0.500075
C65	C	-0.137680	-0.122434	0.000061
C66	C	0.362320	0.377566	0.500061
C67	C	-0.078281	-0.123146	0.000062
C68	C	0.421719	0.376854	0.500062
C69	C	-0.041509	-0.071578	0.000074
C70	C	0.458491	0.428422	0.500074
C71	C	0.408784	-0.128974	0.000042
C72	C	0.908784	0.371026	0.500042
C73	C	0.468186	-0.129680	0.000034
C74	C	0.968186	0.370320	0.500034
C75	C	0.482329	-0.025836	0.000051
C76	C	0.982329	0.474164	0.500051
C77	C	0.422932	-0.025129	0.000055
C78	C	0.922932	0.474871	0.500055
C79	C	0.386160	-0.076702	0.000052
C80	C	0.886160	0.423298	0.500052
O81	O	0.334974	0.020119	0.000052
O82	O	0.834974	0.520119	0.500052
O83	O	0.308755	-0.172007	0.000054
O84	O	0.808755	0.327993	0.500054
C85	C	0.677071	0.030013	0.000072
C86	C	1.177071	0.530013	0.500072
C87	C	0.676305	0.093230	0.000076
C88	C	1.176305	0.593230	0.500076
C89	C	0.776472	-0.069388	0.000069
C90	C	1.276472	0.430612	0.500069
C91	C	0.839689	-0.070154	0.000071
C92	C	1.339689	0.429846	0.500071
C93	C	0.667577	-0.178283	0.000045
C94	C	1.167577	0.321717	0.500045
C95	C	0.668343	-0.241500	0.000036
C96	C	1.168343	0.258500	0.500036
N97	N	0.672304	-0.074155	0.153314
N98	N	1.172304	0.425845	0.653314
C99	C	0.723539	0.492333	0.000049
C100	C	1.223539	0.992333	0.500049
C101	C	0.722827	0.551733	0.000044
C102	C	1.222827	1.051733	0.500044
O103	O	0.766613	0.588478	0.000027
O104	O	1.266613	1.088478	0.500027
N105	N	0.670551	0.574359	0.000039
N106	N	1.170551	1.074359	0.500039
C107	C	0.618983	0.537582	0.000032
C108	C	1.118983	1.037582	0.500032
O109	O	0.574452	0.562281	0.000027
O110	O	1.074452	1.062281	0.500027
C111	C	0.619695	0.478182	0.000033
C112	C	1.119695	0.978182	0.500033
C113	C	0.671974	0.455560	0.000044
C114	C	1.171974	0.955560	0.500044
C115	C	0.775814	0.469710	0.000060
C116	C	1.275814	0.969710	0.500060
C117	C	0.776525	0.410313	0.000065
C118	C	1.276525	0.910313	0.500065
C119	C	0.724961	0.373540	0.000060
C120	C	1.224961	0.873540	0.500060
C121	C	0.672685	0.396164	0.000050
C122	C	1.172685	0.896164	0.500050
C123	C	0.568127	0.441406	0.000022
C124	C	1.068127	0.941406	0.500022
C125	C	0.568844	0.382004	0.000021
C126	C	1.068844	0.882004	0.500021
C127	C	0.621123	0.359381	0.000033
C128	C	1.121123	0.859381	0.500033
C129	C	0.621832	0.299995	0.000050
C130	C	1.121832	0.799995	0.500050
N131	N	0.674109	0.277368	0.000056
N132	N	1.174109	0.777368	0.500056
C133	C	0.725673	0.314141	0.000061
C134	C	1.225673	0.814141	0.500061
C135	C	0.617491	0.662324	0.000031
C136	C	1.117491	1.162324	0.500031
C137	C	0.616778	0.721722	0.000034
C138	C	1.116778	1.221722	0.500034
C139	C	0.720623	0.735869	0.000045
C140	C	1.220623	1.235869	0.500045
C141	C	0.721335	0.676470	0.000046
C142	C	1.221335	1.176470	0.500046
C143	C	0.669767	0.639698	0.000036
C144	C	1.169767	1.139698	0.500036
C145	C	0.727163	0.189405	0.000073
C146	C	1.227163	0.689405	0.500073
C147	C	0.727869	0.130003	0.000081
C148	C	1.227869	0.630003	0.500081
C149	C	0.624025	0.115860	0.000067
C150	C	1.124025	0.615860	0.500067
C151	C	0.623318	0.175257	0.000062
C152	C	1.123318	0.675257	0.500062
C153	C	0.674891	0.212029	0.000063
C154	C	1.174891	0.712029	0.500063
O155	O	0.578070	0.263215	0.000065
O156	O	1.078070	0.763215	0.500065
O157	O	0.770196	0.289433	0.000058
O158	O	1.270196	0.789433	0.500058
N159	N	0.672349	-0.074111	-0.153196
N160	N	1.172349	0.425889	0.346804
C161	C	0.711273	-0.035196	0.561965
C162	C	1.211273	0.464804	1.061965
C163	C	0.711276	-0.035192	0.623884
C164	C	1.211276	0.464808	1.123884
O165	O	0.744384	-0.002076	0.655911
O166	O	1.244384	0.497924	1.155911
N167	N	0.672334	-0.074115	0.654851
N168	N	1.172334	0.425885	1.154851
C169	C	0.633383	-0.113041	0.623895
C170	C	1.133383	0.386959	1.123895
O171	O	0.600259	-0.146147	0.655920
O172	O	1.100259	0.353853	1.155920
C173	C	0.633377	-0.113042	0.561976
C174	C	1.133377	0.386958	1.061976
C175	C	0.672326	-0.074120	0.531013
C176	C	1.172326	0.425880	1.031013
C177	C	0.750218	0.003724	0.531001
C178	C	1.250218	0.503724	1.031001
C179	C	0.750215	0.003719	0.469085
C180	C	1.250215	0.503719	0.969085
C181	C	0.711268	-0.035206	0.438133
C182	C	1.211268	0.464794	0.938133
C183	C	0.672323	-0.074125	0.469097
C184	C	1.172323	0.425875	0.969097
C185	C	0.594424	-0.151965	0.531021
C186	C	1.094424	0.348035	1.031021
C187	C	0.594422	-0.151962	0.469098
C188	C	1.094422	0.348038	0.969098
C189	C	0.633370	-0.113040	0.438134
C190	C	1.133370	0.386960	0.938134
C191	C	0.633374	-0.113054	0.376229
C192	C	1.133374	0.386946	0.876229
N193	N	0.672316	-0.074131	0.345262
N194	N	1.172316	0.425869	0.845262
C195	C	0.711263	-0.035207	0.376214
C196	C	1.211263	0.464793	0.876214
C197	C	0.633396	-0.113035	0.753928
C198	C	1.133396	0.386965	1.253928
C199	C	0.633403	-0.113037	0.815846
C200	C	1.133403	0.386963	1.315846
C201	C	0.711296	-0.035187	0.815831
C202	C	1.211296	0.464813	1.315831
C203	C	0.711291	-0.035188	0.753913
C204	C	1.211291	0.464812	1.253913
C205	C	0.672338	-0.074112	0.722962
C206	C	1.172338	0.425888	1.222962
C207	C	0.711255	-0.035220	0.246187
C208	C	1.211255	0.464780	0.746187
C209	C	0.711251	-0.035230	0.184266
C210	C	1.211251	0.464770	0.684266
C211	C	0.633357	-0.113078	0.184286
C212	C	1.133357	0.386922	0.684286
C213	C	0.633363	-0.113071	0.246202
C214	C	1.133363	0.386929	0.746202
C215	C	0.672314	-0.074137	0.277151
C216	C	1.172314	0.425863	0.777151
O217	O	0.600281	-0.146152	0.344163
O218	O	1.100281	0.353848	0.844163
O219	O	0.744376	-0.002101	0.344182
O220	O	1.244376	0.497899	0.844182
H221	H	0.378851	-0.170970	0.000041
H222	H	0.878851	0.329030	0.500041
H223	H	0.582043	0.085909	0.000065
H224	H	1.082043	0.585909	0.500065
O225	O	0.770752	0.771538	-0.000034
O226	O	1.270752	1.271538	0.499966
C227	C	0.859276	0.801837	-0.051013
C228	C	1.359276	1.301837	0.448987
C229	C	0.802537	0.761400	-0.050989
C230	C	1.302537	1.261400	0.449011
H231	H	0.884985	0.793663	-0.092212
H232	H	1.384985	1.293663	0.407788
H233	H	0.885058	0.793648	-0.009871
H234	H	1.385058	1.293648	0.490129
H235	H	0.849770	0.848171	-0.050989
H236	H	1.349770	1.348171	0.449011
H237	H	0.811992	0.715052	-0.051034
H238	H	1.311992	1.215052	0.448966
H239	H	0.776772	0.769639	-0.092127
H240	H	1.276772	1.269639	0.407873
H241	H	0.206289	-0.220908	0.000035
H242	H	0.706289	0.279092	0.500035
H243	H	0.486602	-0.172255	0.000024
H244	H	0.986602	0.327745	0.500024
H245	H	0.601694	-0.144737	0.841052
H246	H	1.101694	0.355263	1.341052
H247	H	0.575496	0.632386	0.000028
H248	H	1.075496	1.132386	0.500028
H249	H	-0.141947	0.023982	0.000076
H250	H	0.358053	0.523982	0.500076
H251	H	0.743005	-0.003494	0.728706
H252	H	1.243005	0.496506	1.228706
O253	O	0.518786	0.346226	0.000092
O254	O	1.018786	0.846226	0.500092
C255	C	0.459289	0.270982	0.051067
C256	C	0.959289	0.770982	0.551067
C257	C	0.516005	0.311455	0.051052
C258	C	1.016005	0.811455	0.551052
H259	H	0.457017	0.242868	0.092269
H260	H	0.957017	0.742868	0.592269
H261	H	0.457024	0.242778	0.009929
H262	H	0.957024	0.742778	0.509929
H263	H	0.421816	0.297372	0.051029
H264	H	0.921816	0.797372	0.551029
H265	H	0.553510	0.285111	0.051110
H266	H	1.053510	0.785111	0.551110
H267	H	0.518219	0.339662	0.092186
H268	H	1.018219	0.839662	0.592186
O269	O	0.565979	0.743666	-0.000075
O270	O	1.065979	1.243666	0.499925
C271	C	0.476998	0.749702	-0.051032
C272	C	0.976998	1.249702	0.448968
C273	C	0.534515	0.724826	-0.050984
C274	C	1.034515	1.224826	0.449016
H275	H	0.451537	0.734470	-0.092181
H276	H	0.951537	1.234470	0.407819
H277	H	0.485305	0.798475	-0.051073
H278	H	0.985305	1.298475	0.448927
H279	H	0.451552	0.734544	-0.009848
H280	H	0.951552	1.234544	0.490152
H281	H	0.559989	0.739941	-0.092161
H282	H	1.059989	1.239941	0.407839
H283	H	0.526167	0.676056	-0.050912
H284	H	1.026167	1.176056	0.449088
H285	H	0.098544	-0.219617	0.000046
H286	H	0.598544	0.280383	0.500046
H287	H	0.525555	0.459814	0.000009
H288	H	1.025555	0.959814	0.500009
H289	H	0.769159	0.219337	0.000071
H290	H	1.269159	0.719337	0.500071
O291	O	0.825960	0.505345	0.000093
O292	O	1.325960	1.005345	0.500093
C293	C	0.929034	0.513088	0.000080
C294	C	1.429034	1.013088	0.500080
C295	C	0.872281	0.472671	0.000050
C296	C	1.372281	0.972671	0.500050
H297	H	0.966499	0.486688	0.000032
H298	H	1.466499	0.986688	0.500032
H299	H	0.931332	0.541238	0.041258
H300	H	1.431332	1.041238	0.541258
H301	H	0.931282	0.541265	-0.041076
H302	H	1.431282	1.041265	0.458924
H303	H	0.869995	0.444458	0.041177
H304	H	1.369995	0.944458	0.541177
H305	H	0.870007	0.444560	-0.041157
H306	H	1.370007	0.944560	0.458843
H307	H	0.601653	-0.144770	0.271413
H308	H	1.101653	0.355230	0.771413
O309	O	0.556640	-0.189748	0.561181
O310	O	1.056640	0.310252	1.061181
C311	C	0.522075	-0.224227	0.656564
C312	C	1.022075	0.275773	1.156564
C313	C	0.564910	-0.181415	0.622484
C314	C	1.064910	0.318585	1.122484
H315	H	0.528738	-0.217496	0.706134
H316	H	1.028738	0.282504	1.206134
H317	H	0.529227	-0.269820	0.644433
H318	H	1.029227	0.230180	1.144433
H319	H	0.476515	-0.217032	0.644350
H320	H	0.976515	0.282968	1.144350
H321	H	0.610487	-0.188557	0.634680
H322	H	1.110487	0.311443	1.134680
H323	H	0.557708	-0.135836	0.634619
H324	H	1.057708	0.364164	1.134619
H325	H	0.562700	-0.183658	0.443901
H326	H	1.062700	0.316342	0.943901
O327	O	-0.028359	0.030758	0.000002
O328	O	0.471641	0.530758	0.500002
C329	C	0.046886	0.090250	-0.050977
C330	C	0.546886	0.590250	0.449023
C331	C	0.006416	0.033532	-0.050957
C332	C	0.506416	0.533532	0.449043
H333	H	0.075003	0.092516	-0.092179
H334	H	0.575003	0.592516	0.407821
H335	H	0.075088	0.092523	-0.009839
H336	H	0.575088	0.592523	0.490161
H337	H	0.020494	0.127721	-0.050946
H338	H	0.520494	0.627721	0.449054
H339	H	0.032763	-0.003972	-0.051009
H340	H	0.532763	0.496028	0.448991
H341	H	-0.021788	0.031309	-0.092091
H342	H	0.478212	0.531309	0.407909
H343	H	0.138375	0.072634	0.000103
H344	H	0.638375	0.572634	0.500103
O345	O	0.572548	0.197262	0.000161
O346	O	1.072548	0.697262	0.500161
C347	C	0.511478	0.256143	0.051084
C348	C	1.011478	0.756143	0.551084
C349	C	0.568989	0.231257	0.051060
C350	C	1.068989	0.731257	0.551060
H351	H	0.508587	0.283643	0.092225
H352	H	1.008587	0.783643	0.592225
H353	H	0.474725	0.219675	0.051122
H354	H	0.974725	0.719675	0.551122
H355	H	0.508562	0.283567	0.009892
H356	H	1.008562	0.783567	0.509892
H357	H	0.571961	0.203840	0.092244
H358	H	1.071961	0.703840	0.592244
H359	H	0.605715	0.267752	0.050991
H360	H	1.105715	0.767752	0.550991
O361	O	0.827275	0.388276	-0.000011
O362	O	1.327275	0.888276	0.499989
C363	C	0.888378	0.329470	-0.050992
C364	C	1.388378	0.829470	0.449008
C365	C	0.830875	0.354371	-0.050969
C366	C	1.330875	0.854371	0.449031
H367	H	0.891312	0.302062	-0.092193
H368	H	1.391312	0.802062	0.407807
H369	H	0.891321	0.301978	-0.009853
H370	H	1.391321	0.801978	0.490147
H371	H	0.925094	0.365974	-0.050963
H372	H	1.425094	0.865974	0.449037
H373	H	0.794126	0.317903	-0.051019
H374	H	1.294126	0.817903	0.448981
H375	H	0.827982	0.381878	-0.092104
H376	H	1.327982	0.881878	0.407896
H377	H	-0.059867	-0.165717	0.000055
H378	H	0.440133	0.334283	0.500055
O379	O	0.595581	-0.150965	0.154239
O380	O	1.095581	0.349035	0.654239
C381	C	0.561611	-0.250160	0.135311
C382	C	1.061611	0.249840	0.635311
C383	C	0.604436	-0.207321	0.169368
C384	C	1.104436	0.292679	0.669368
H385	H	0.568747	-0.295733	0.147540
H386	H	1.068747	0.204267	0.647540
H387	H	0.568301	-0.243520	0.085731
H388	H	1.068301	0.256480	0.585731
H389	H	0.516047	-0.242935	0.147480
H390	H	1.016047	0.257065	0.647480
H391	H	0.650017	-0.214519	0.157248
H392	H	1.150017	0.285481	0.657248
H393	H	0.597696	-0.213971	0.218939
H394	H	1.097696	0.286029	0.718939
O395	O	0.251824	0.079493	0.000076
O396	O	0.751824	0.579493	0.500076
C397	C	0.259582	0.182567	0.000128
C398	C	0.759582	0.682567	0.500128
C399	C	0.219158	0.125819	0.000138
C400	C	0.719158	0.625819	0.500138
H401	H	0.233188	0.220037	0.000191
H402	H	0.733188	0.720037	0.500191
H403	H	0.287734	0.184878	-0.041051
H404	H	0.787734	0.684878	0.458949
H405	H	0.287757	0.184794	0.041284
H406	H	0.787757	0.684794	0.541284
H407	H	0.190947	0.123554	-0.040990
H408	H	0.690947	0.623554	0.459010
H409	H	0.191045	0.123532	0.041344
H410	H	0.691045	0.623532	0.541344
O411	O	-0.173351	-0.172562	0.000138
O412	O	0.326649	0.327438	0.500138
C413	C	-0.203659	-0.261085	0.051112
C414	C	0.296341	0.238915	0.551112
C415	C	-0.163219	-0.204348	0.051092
C416	C	0.336781	0.295652	0.551092
H417	H	-0.195489	-0.286794	0.092310
H418	H	0.304511	0.213206	0.592310
H419	H	-0.195467	-0.286868	0.009970
H420	H	0.304533	0.213132	0.509970
H421	H	-0.249992	-0.251576	0.051087
H422	H	0.250008	0.248424	0.551087
H423	H	-0.116871	-0.213805	0.051138
H424	H	0.383129	0.286195	0.551138
H425	H	-0.171460	-0.178582	0.092231
H426	H	0.328540	0.321418	0.592231
H427	H	0.404512	0.017441	0.000056
H428	H	0.904512	0.517441	0.500056
H429	H	0.601677	-0.144736	0.728731
H430	H	1.101677	0.355264	1.228731
O431	O	0.772083	0.654429	-0.000027
O432	O	1.272083	1.154429	0.499973
C433	C	0.833183	0.595617	-0.051005
C434	C	1.333183	1.095617	0.448995
C435	C	0.775684	0.620525	-0.050986
C436	C	1.275684	1.120525	0.449014
H437	H	0.836118	0.568210	-0.092207
H438	H	1.336118	1.068210	0.407793
H439	H	0.836119	0.568123	-0.009866
H440	H	1.336119	1.068123	0.490134
H441	H	0.869903	0.632117	-0.050971
H442	H	1.369903	1.132117	0.449029
H443	H	0.738931	0.584061	-0.051041
H444	H	1.238931	1.084061	0.448959
H445	H	0.772798	0.648035	-0.092121
H446	H	1.272798	1.148035	0.407879
H447	H	0.512280	0.016146	0.000054
H448	H	1.012280	0.516146	0.500054
H449	H	0.770443	0.111587	0.000092
H450	H	1.270443	0.611587	0.500092
H451	H	0.742973	-0.003516	0.271379
H452	H	1.242973	0.496484	0.771379
O453	O	0.749108	0.002637	0.154280
O454	O	1.249108	0.502637	0.654280
C455	C	0.826389	0.079830	0.160812
C456	C	1.326389	0.579830	0.660812
C457	C	0.783542	0.036987	0.194841
C458	C	1.283542	0.536987	0.694841
H459	H	0.854248	0.107606	0.193591
H460	H	1.354248	0.607606	0.693591
H461	H	0.801994	0.108196	0.131840
H462	H	1.301994	0.608196	0.631840
H463	H	0.854673	0.055374	0.131807
H464	H	1.354673	0.555374	0.631807
H465	H	0.755247	0.061397	0.223879
H466	H	1.255247	0.561397	0.723879
H467	H	0.807972	0.008622	0.223776
H468	H	1.307972	0.508622	0.723776
H469	H	0.781929	0.035414	0.443878
H470	H	1.281929	0.535414	0.943878
H471	H	0.781933	0.035423	0.556197
H472	H	1.281933	0.535423	1.056197
O473	O	0.749104	0.002706	0.845839
O474	O	1.249104	0.502706	1.345839
C475	C	0.783011	0.101907	0.864815
C476	C	1.283011	0.601907	1.364815
C477	C	0.740173	0.059059	0.830783
C478	C	1.240173	0.559059	1.330783
H479	H	0.775797	0.147478	0.852665
H480	H	1.275797	0.647478	1.352665
H481	H	0.828595	0.094768	0.852629
H482	H	1.328595	0.594768	1.352629
H483	H	0.776327	0.095191	0.914385
H484	H	1.276327	0.595191	1.414385
H485	H	0.746804	0.065749	0.781206
H486	H	1.246804	0.565749	1.281206
H487	H	0.694604	0.066209	0.843019
H488	H	1.194604	0.566209	1.343019
