data_functionalizedCrystal
_audit_creation_method	'MofGen! by Chris Wilmer'
_symmetry_space_group_name_H-M	'P1'
_symmetry_Int_Tables_number	1
_symmetry_cell_setting	triclinic
loop_
_symmetry_equiv_pos_as_xyz
  x,y,z
_cell_length_a	9.065218
_cell_length_b	11.792240
_cell_length_c	8.140239
_cell_angle_alpha	89.987491
_cell_angle_beta	89.998449
_cell_angle_gamma	84.604651
loop_
_atom_site_label
_atom_site_type_symbol
_atom_site_fract_x
_atom_site_fract_y
_atom_site_fract_z
O1	O	-1.958836	-0.166429	0.136657
O2	O	-1.458836	0.333571	0.636657
O3	O	-1.529423	-0.180081	0.136663
O4	O	-1.029423	0.319919	0.636663
O5	O	-1.754550	-0.008142	0.136610
O6	O	-1.254550	0.491858	0.636610
O7	O	-1.733709	-0.338368	0.136710
O8	O	-1.233709	0.161632	0.636710
O9	O	-1.754543	-0.008141	-0.136617
O10	O	-1.254543	0.491859	0.363383
O11	O	-1.529416	-0.180080	-0.136564
O12	O	-1.029416	0.319920	0.363436
O13	O	-1.958828	-0.166428	-0.136570
O14	O	-1.458828	0.333572	0.363430
Zn15	Zn	-1.744121	-0.173254	-0.179948
Zn16	Zn	-1.244121	0.326746	0.320052
Zn17	Zn	-1.744130	-0.173255	0.180041
Zn18	Zn	-1.244130	0.326745	0.680041
O19	O	-1.733701	-0.338367	-0.136517
O20	O	-1.233701	0.161633	0.363483
C21	C	-1.474445	-0.178768	0.000049
C22	C	-0.974445	0.321232	0.500049
C23	C	-1.310639	-0.174845	0.000049
C24	C	-0.810639	0.325155	0.500049
C25	C	-1.753237	0.034156	-0.000013
C26	C	-1.253237	0.534156	0.499987
C27	C	-1.749319	0.160192	-0.000040
C28	C	-1.249319	0.660192	0.499960
N29	N	-1.744125	-0.173252	-0.425630
N30	N	-1.244125	0.326748	0.074370
C31	C	-2.013806	-0.167741	0.000048
C32	C	-1.513806	0.332259	0.500048
C33	C	-2.177612	-0.171664	0.000059
C34	C	-1.677612	0.328336	0.500059
C35	C	-1.742113	0.390944	-0.000067
C36	C	-1.242113	0.890944	0.499933
C37	C	-1.746117	0.262537	-0.000052
C38	C	-1.246117	0.762537	0.499948
C39	C	-1.735014	0.619335	0.000051
C40	C	-1.235014	1.119335	0.500051
C41	C	-1.738933	0.493299	-0.000085
C42	C	-1.238933	0.993299	0.499915
N43	N	-1.744138	-0.173248	0.425723
N44	N	-1.244138	0.326752	0.925723
