data_functionalizedCrystal
_audit_creation_method	'MofGen! by Chris Wilmer'
_symmetry_space_group_name_H-M	'P1'
_symmetry_Int_Tables_number	1
_symmetry_cell_setting	triclinic
loop_
_symmetry_equiv_pos_as_xyz
  x,y,z
_cell_length_a	21.395362
_cell_length_b	18.050589
_cell_length_c	21.395356
_cell_angle_alpha	89.979995
_cell_angle_beta	89.964230
_cell_angle_gamma	90.044101
loop_
_atom_site_label
_atom_site_type_symbol
_atom_site_fract_x
_atom_site_fract_y
_atom_site_fract_z
Zn1	Zn	0.957820	-0.295379	-0.354610
Zn2	Zn	1.291153	0.037955	-0.021277
Zn3	Zn	1.624486	0.371288	0.312057
Zn4	Zn	0.957742	-0.419566	-0.249843
Zn5	Zn	1.291075	-0.086233	0.083491
Zn6	Zn	1.624408	0.247101	0.416824
Zn7	Zn	0.853050	-0.295429	-0.249811
Zn8	Zn	1.186383	0.037905	0.083522
Zn9	Zn	1.519716	0.371238	0.416855
Zn10	Zn	0.853008	-0.419566	-0.354547
Zn11	Zn	1.186342	-0.086232	-0.021214
Zn12	Zn	1.519675	0.247101	0.312119
O13	O	0.905405	-0.357485	-0.302203
O14	O	1.238738	-0.024151	0.031130
O15	O	1.572072	0.309182	0.364464
O16	O	1.045487	-0.311831	-0.340752
O17	O	1.378821	0.021502	-0.007418
O18	O	1.712154	0.354835	0.325915
O19	O	0.943839	-0.403120	-0.162161
O20	O	1.277172	-0.069786	0.171173
O21	O	1.610505	0.263547	0.504506
O22	O	0.866998	-0.191497	-0.263726
O23	O	1.200331	0.141836	0.069607
O24	O	1.533664	0.475169	0.402941
O25	O	1.045430	-0.403071	-0.263780
O26	O	1.378763	-0.069738	0.069554
O27	O	1.712097	0.263595	0.402887
O28	O	0.943972	-0.191461	-0.340721
O29	O	1.277305	0.141873	-0.007388
O30	O	1.610638	0.475206	0.325945
O31	O	0.866922	-0.311917	-0.162138
O32	O	1.200255	0.021417	0.171196
O33	O	1.533589	0.354750	0.504529
O34	O	0.765366	-0.311917	-0.263665
O35	O	1.098700	0.021417	0.069668
O36	O	1.432033	0.354750	0.403001
O37	O	0.866927	-0.403071	-0.442234
O38	O	1.200261	-0.069738	-0.108900
O39	O	1.533594	0.263596	0.224433
O40	O	0.765336	-0.403120	-0.340615
O41	O	1.098669	-0.069786	-0.007281
O42	O	1.432003	0.263547	0.326052
O43	O	0.943932	-0.311831	-0.442280
O44	O	1.277265	0.021502	-0.108946
O45	O	1.610598	0.354835	0.224387
O46	O	0.943799	-0.523490	-0.263719
O47	O	1.277132	-0.190157	0.069614
O48	O	1.610465	0.143176	0.402948
O49	O	0.866852	-0.523490	-0.340645
O50	O	1.200185	-0.190157	-0.007312
O51	O	1.533518	0.143176	0.326021
C52	C	0.742617	-0.357524	-0.302130
C53	C	1.075951	-0.024191	0.031203
C54	C	1.409284	0.309143	0.364536
C55	C	0.672976	-0.357559	-0.302114
C56	C	1.006309	-0.024225	0.031219
C57	C	1.339643	0.309108	0.364553
C58	C	0.640264	-0.405111	-0.342121
C59	C	0.973597	-0.071778	-0.008788
C60	C	1.306930	0.261556	0.324545
C61	C	0.574828	-0.405093	-0.342149
C62	C	0.908161	-0.071760	-0.008816
C63	C	1.241495	0.261574	0.324517
C64	C	0.542108	-0.357530	-0.302159
C65	C	0.875441	-0.024197	0.031175
C66	C	1.208774	0.309137	0.364508
C67	C	0.574828	-0.309969	-0.262148
C68	C	0.908161	0.023365	0.071185
C69	C	1.241495	0.356698	0.404518
C70	C	0.640262	-0.309983	-0.262126
C71	C	0.973596	0.023351	0.071207
C72	C	1.306929	0.356684	0.404541
C73	C	0.438391	-0.351556	-0.245753
C74	C	0.771724	-0.018222	0.087580
C75	C	1.105057	0.315111	0.420914
C76	C	0.372958	-0.351547	-0.245774
C77	C	0.706291	-0.018213	0.087559
C78	C	1.039625	0.315120	0.420893
C79	C	0.340287	-0.357482	-0.302228
C80	C	0.673620	-0.024148	0.031106
C81	C	1.006954	0.309185	0.364439
C82	C	0.373057	-0.363441	-0.358662
C83	C	0.706390	-0.030108	-0.025329
C84	C	1.039724	0.303225	0.308005
C85	C	0.438491	-0.363456	-0.358640
C86	C	0.771825	-0.030122	-0.025306
C87	C	1.105158	0.303211	0.308027
C88	C	0.471155	-0.357509	-0.302179
C89	C	0.804489	-0.024176	0.031155
C90	C	1.137822	0.309158	0.364488
C91	C	0.236622	-0.405017	-0.342269
C92	C	0.569955	-0.071683	-0.008936
C93	C	0.903289	0.261650	0.324398
C94	C	0.171185	-0.404993	-0.342298
C95	C	0.504519	-0.071660	-0.008965
C96	C	0.837852	0.261673	0.324369
C97	C	0.171187	-0.309873	-0.262291
C98	C	0.504520	0.023460	0.071042
C99	C	0.837853	0.356794	0.404375
C100	C	0.236622	-0.309892	-0.262268
C101	C	0.569955	0.023441	0.071065
C102	C	0.903289	0.356774	0.404399
C103	C	0.269336	-0.357468	-0.302256
C104	C	0.602669	-0.024135	0.031078
C105	C	0.936002	0.309198	0.364411
C106	C	0.905329	-0.550437	-0.302192
C107	C	1.238663	-0.217104	0.031141
C108	C	1.571996	0.116230	0.364474
C109	C	0.905354	-0.632983	-0.302209
C110	C	1.238688	-0.299649	0.031124
C111	C	1.572021	0.033684	0.364458
C112	C	0.863552	-0.832460	-0.344027
C113	C	1.196885	-0.499127	-0.010693
C114	C	1.530218	-0.165794	0.322640
C115	C	0.848281	-0.881901	-0.286848
C116	C	1.181615	-0.548568	0.046485
C117	C	1.514948	-0.215235	0.379818
C118	C	0.905416	-0.784113	-0.302217
C119	C	1.238749	-0.450780	0.031116
C120	C	1.572082	-0.117446	0.364450
C121	C	0.920717	-0.881754	-0.359402
C122	C	1.254050	-0.548420	-0.026069
C123	C	1.587383	-0.215087	0.307265
C124	C	0.905474	-0.930098	-0.302230
C125	C	1.238807	-0.596765	0.031103
C126	C	1.572141	-0.263431	0.364437
C127	C	0.890116	-0.832467	-0.245009
C128	C	1.223449	-0.499134	0.088325
C129	C	1.556782	-0.165800	0.421658
C130	C	0.962577	-0.832315	-0.317601
C131	C	1.295911	-0.498981	0.015733
C132	C	1.629244	-0.165648	0.349066
C133	C	0.947329	-0.881734	-0.260383
C134	C	1.280662	-0.548400	0.072950
C135	C	1.613996	-0.215067	0.406284
C136	C	0.905381	-0.700015	-0.302211
C137	C	1.238714	-0.366681	0.031123
C138	C	1.572047	-0.033348	0.364456
C139	C	0.905509	-1.014195	-0.302230
C140	C	1.238843	-0.680861	0.031103
C141	C	1.572176	-0.347528	0.364436
C142	C	1.068828	-0.357446	-0.302276
C143	C	1.402162	-0.024113	0.031057
C144	C	1.735495	0.309221	0.364390
C145	C	1.138470	-0.357429	-0.302307
C146	C	1.471803	-0.024096	0.031026
C147	C	1.805136	0.309237	0.364359
C148	C	0.905434	-0.357446	-0.465626
C149	C	1.238767	-0.024112	-0.132293
C150	C	1.572100	0.309221	0.201040
C151	C	0.905446	-0.357429	-0.535268
C152	C	1.238779	-0.024096	-0.201934
C153	C	1.572113	0.309238	0.131399
C154	C	0.905498	-0.163779	-0.302227
C155	C	1.238831	0.169554	0.031106
C156	C	1.572165	0.502888	0.364440
C157	C	0.905538	-0.081233	-0.302237
C158	C	1.238871	0.252100	0.031096
C159	C	1.572204	0.585433	0.364429
C160	C	0.945567	-0.404763	-1.037077
C161	C	1.278900	-0.071429	-0.703743
C162	C	1.612233	0.261904	-0.370410
C163	C	0.945556	-0.404786	-0.971641
C164	C	1.278889	-0.071453	-0.638308
C165	C	1.612222	0.261880	-0.304974
C166	C	0.905506	-0.357311	-0.938906
C167	C	1.238839	-0.023978	-0.605573
C168	C	1.572172	0.309355	-0.272239
C169	C	0.865453	-0.309823	-0.971612
C170	C	1.198786	0.023511	-0.638279
C171	C	1.532119	0.356844	-0.304945
C172	C	0.865461	-0.309806	-1.037046
C173	C	1.198794	0.023528	-0.703713
C174	C	1.532127	0.356861	-0.370379
C175	C	0.900578	-0.290430	-0.835244
C176	C	1.233911	0.042903	-0.501910
C177	C	1.567244	0.376237	-0.168577
C178	C	0.900574	-0.290446	-0.769811
C179	C	1.233907	0.042888	-0.436477
C180	C	1.567241	0.376221	-0.103144
C181	C	0.905477	-0.357364	-0.737085
C182	C	1.238811	-0.024031	-0.403752
C183	C	1.572144	0.309303	-0.070419
C184	C	0.910397	-0.424269	-0.769801
C185	C	1.243731	-0.090935	-0.436467
C186	C	1.577064	0.242398	-0.103134
C187	C	0.910405	-0.424252	-0.835235
C188	C	1.243739	-0.090918	-0.501902
C189	C	1.577072	0.242415	-0.168568
C190	C	0.905492	-0.357325	-0.867954
C191	C	1.238826	-0.023991	-0.534620
C192	C	1.572159	0.309342	-0.201287
C193	C	0.945513	-0.404879	-0.633435
C194	C	1.278846	-0.071546	-0.300101
C195	C	1.612179	0.261788	0.033232
C196	C	0.945497	-0.404904	-0.567998
C197	C	1.278830	-0.071570	-0.234665
C198	C	1.612164	0.261763	0.098669
C199	C	0.865397	-0.309933	-0.567970
C200	C	1.198731	0.023400	-0.234637
C201	C	1.532064	0.356733	0.098697
C202	C	0.865410	-0.309915	-0.633405
C203	C	1.198743	0.023418	-0.300072
C204	C	1.532076	0.356752	0.033261
C205	C	0.905471	-0.357387	-0.666134
C206	C	1.238804	-0.024054	-0.332801
C207	C	1.572137	0.309280	0.000533
C208	C	0.905412	-0.357470	-0.139415
C209	C	1.238746	-0.024137	0.193918
C210	C	1.572079	0.309197	0.527251
C211	C	0.905522	-0.357277	-0.069774
C212	C	1.238855	-0.023944	0.263559
C213	C	1.572188	0.309389	0.596892
H214	H	0.666896	-0.271258	-0.229547
H215	H	1.000230	0.062076	0.103786
H216	H	1.333563	0.395409	0.437120
C217	C	0.895163	-0.216857	-0.733827
C218	C	1.228496	0.116476	-0.400493
C219	C	1.561829	0.449810	-0.067160
H220	H	0.895868	-0.226449	-0.690170
H221	H	1.229201	0.106884	-0.356837
H222	H	1.562535	0.440218	-0.023503
H223	H	0.857030	-0.193122	-0.744532
H224	H	1.190363	0.140211	-0.411199
H225	H	1.523696	0.473544	-0.077866
H226	H	0.929263	-0.185602	-0.744572
H227	H	1.262596	0.147731	-0.411239
H228	H	1.595930	0.481064	-0.077906
C229	C	0.815662	-0.803225	-0.391725
C230	C	1.148995	-0.469892	-0.058392
C231	C	1.482328	-0.136559	0.274941
H232	H	0.836542	-0.774221	-0.422369
H233	H	1.169875	-0.440887	-0.089035
H234	H	1.503208	-0.107554	0.244298
H235	H	0.785509	-0.773598	-0.370831
H236	H	1.118843	-0.440265	-0.037497
H237	H	1.452176	-0.106931	0.295836
H238	H	0.795395	-0.843828	-0.411411
H239	H	1.128729	-0.510495	-0.078077
H240	H	1.462062	-0.177161	0.255256
H241	H	0.978186	-0.443420	-1.063720
H242	H	1.311519	-0.110087	-0.730387
H243	H	1.644853	0.223247	-0.397053
C244	C	0.938196	-0.910964	-0.424728
C245	C	1.271529	-0.577631	-0.091395
C246	C	1.604862	-0.244297	0.241938
H247	H	0.975185	-0.939858	-0.421945
H248	H	1.308519	-0.606525	-0.088612
H249	H	1.641852	-0.273191	0.244721
H250	H	0.945102	-0.870349	-0.452127
H251	H	1.278435	-0.537016	-0.118794
H252	H	1.611769	-0.203683	0.214539
H253	H	0.905086	-0.940706	-0.440413
H254	H	1.238419	-0.607373	-0.107079
H255	H	1.571752	-0.274040	0.226254
C256	C	0.474539	-0.370008	-0.420710
C257	C	0.807873	-0.036675	-0.087376
C258	C	1.141206	0.296659	0.245957
H259	H	0.518187	-0.369172	-0.412608
H260	H	0.851521	-0.035839	-0.079274
H261	H	1.184854	0.297494	0.254059
H262	H	0.463876	-0.329651	-0.447129
H263	H	0.797210	0.003683	-0.113796
H264	H	1.130543	0.337016	0.219537
H265	H	0.463800	-0.415255	-0.440680
H266	H	0.797133	-0.081922	-0.107347
H267	H	1.130466	0.251412	0.225986
H268	H	0.832850	-0.271136	-1.063668
H269	H	1.166184	0.062198	-0.730335
H270	H	1.499517	0.395531	-0.397002
H271	H	0.982757	-0.903233	-0.224991
H272	H	1.316091	-0.569900	0.108343
H273	H	1.649424	-0.236566	0.441676
H274	H	0.464986	-0.346719	-0.199778
H275	H	0.798319	-0.013386	0.133555
H276	H	1.131653	0.319947	0.466888
H277	H	0.978131	-0.443535	-0.660084
H278	H	1.311464	-0.110202	-0.326750
H279	H	1.644798	0.223132	0.006583
C280	C	0.783016	-0.911330	-0.269270
C281	C	1.116350	-0.577996	0.064063
C282	C	1.449683	-0.244663	0.397396
H283	H	0.785896	-0.940295	-0.232303
H284	H	1.119229	-0.606962	0.101031
H285	H	1.452562	-0.273628	0.434364
H286	H	0.767307	-0.941034	-0.302373
H287	H	1.100640	-0.607700	0.030960
H288	H	1.433973	-0.274367	0.364293
H289	H	0.755583	-0.870807	-0.262282
H290	H	1.088917	-0.537474	0.071052
H291	H	1.422250	-0.204141	0.404385
H292	H	0.978103	-0.443579	-0.541376
H293	H	1.311437	-0.110246	-0.208043
H294	H	1.644770	0.223088	0.125290
C295	C	0.872582	-0.803347	-0.179668
C296	C	1.205916	-0.470014	0.153665
C297	C	1.539249	-0.136680	0.486998
H298	H	0.872645	-0.750717	-0.180068
H299	H	1.205979	-0.417384	0.153265
H300	H	1.539312	-0.084051	0.486598
H301	H	0.902152	-0.820611	-0.149948
H302	H	1.235485	-0.487277	0.183385
H303	H	1.568819	-0.153944	0.516719
H304	H	0.832120	-0.820739	-0.168685
H305	H	1.165453	-0.487406	0.164649
H306	H	1.498787	-0.154072	0.497982
H307	H	1.010879	-0.810520	-0.330628
H308	H	1.344212	-0.477187	0.002706
H309	H	1.677546	-0.143854	0.336039
C310	C	0.135202	-0.257545	-0.218310
C311	C	0.468536	0.075788	0.115023
C312	C	0.801869	0.409121	0.448357
H313	H	0.091546	-0.264346	-0.224053
H314	H	0.424880	0.068987	0.109281
H315	H	0.758213	0.402320	0.442614
H316	H	0.145980	-0.207667	-0.227553
H317	H	0.479313	0.125666	0.105780
H318	H	0.812647	0.458999	0.439114
H319	H	0.145872	-0.268346	-0.176188
H320	H	0.479205	0.064987	0.157145
H321	H	0.812538	0.398320	0.490478
C322	C	0.272608	-0.257594	-0.218251
C323	C	0.605941	0.075740	0.115082
C324	C	0.939274	0.409073	0.448415
H325	H	0.243750	-0.229268	-0.194433
H326	H	0.577084	0.104065	0.138900
H327	H	0.910417	0.437399	0.472233
H328	H	0.298185	-0.225279	-0.242253
H329	H	0.631518	0.108054	0.091080
H330	H	0.964852	0.441388	0.424413
H331	H	0.298081	-0.285972	-0.190900
H332	H	0.631415	0.047361	0.142433
H333	H	0.964748	0.380694	0.475766
H334	H	0.896626	-0.235929	-0.861883
H335	H	1.229959	0.097405	-0.528550
H336	H	1.563293	0.430738	-0.195217
H337	H	0.832786	-0.271280	-0.541318
H338	H	1.166120	0.062053	-0.207985
H339	H	1.499453	0.395387	0.125349
C340	C	0.989608	-0.457021	-0.935666
C341	C	1.322941	-0.123688	-0.602332
C342	C	1.656274	0.209645	-0.268999
H343	H	1.013469	-0.485288	-0.964529
H344	H	1.346802	-0.151955	-0.631196
H345	H	1.680136	0.181378	-0.297863
H346	H	0.965624	-0.489393	-0.910123
H347	H	1.298958	-0.156060	-0.576789
H348	H	1.632291	0.177274	-0.243456
H349	H	1.016917	-0.428602	-0.910158
H350	H	1.350250	-0.095269	-0.576825
H351	H	1.683583	0.238064	-0.243492
C352	C	0.915813	-0.497838	-0.871223
C353	C	1.249146	-0.164505	-0.537890
C354	C	1.582480	0.168829	-0.204556
H355	H	0.915120	-0.488240	-0.914879
H356	H	1.248453	-0.154907	-0.581546
H357	H	1.581786	0.178427	-0.248212
H358	H	0.881715	-0.529092	-0.860481
H359	H	1.215049	-0.195759	-0.527148
H360	H	1.548382	0.137575	-0.193814
H361	H	0.953949	-0.521575	-0.860518
H362	H	1.287282	-0.188242	-0.527184
H363	H	1.620616	0.145091	-0.193851
H364	H	0.346458	-0.368273	-0.404632
H365	H	0.679791	-0.034940	-0.071299
H366	H	1.013125	0.298394	0.262035
H367	H	0.346281	-0.346698	-0.199822
H368	H	0.679615	-0.013365	0.133511
H369	H	1.012948	0.319968	0.466845
C370	C	0.272610	-0.457339	-0.386259
C371	C	0.605943	-0.124006	-0.052926
C372	C	0.939276	0.209328	0.280407
H373	H	0.243753	-0.485650	-0.410098
H374	H	0.577086	-0.152316	-0.076765
H375	H	0.910420	0.181017	0.256568
H376	H	0.298086	-0.489666	-0.362238
H377	H	0.631419	-0.156333	-0.028905
H378	H	0.964752	0.177000	0.304428
H379	H	0.298185	-0.428974	-0.413591
H380	H	0.631519	-0.095640	-0.080258
H381	H	0.964852	0.237693	0.253075
C382	C	0.915787	-0.497883	-0.733812
C383	C	1.249121	-0.164550	-0.400479
C384	C	1.582454	0.168783	-0.067145
H385	H	0.915070	-0.488315	-0.690156
H386	H	1.248403	-0.154982	-0.356823
H387	H	1.581737	0.178352	-0.023490
H388	H	0.953921	-0.521619	-0.744549
H389	H	1.287254	-0.188286	-0.411216
H390	H	1.620588	0.145048	-0.077883
H391	H	0.881686	-0.529126	-0.744519
H392	H	1.215020	-0.195792	-0.411186
H393	H	1.548353	0.137541	-0.077853
H394	H	0.548183	-0.271241	-0.229589
H395	H	0.881516	0.062092	0.103745
H396	H	1.214850	0.395425	0.437078
C397	C	0.135201	-0.457314	-0.386300
C398	C	0.468535	-0.123981	-0.052966
C399	C	0.801868	0.209352	0.280367
H400	H	0.164059	-0.485656	-0.410103
H401	H	0.497392	-0.152323	-0.076770
H402	H	0.830725	0.181010	0.256564
H403	H	0.109721	-0.428957	-0.413655
H404	H	0.443055	-0.095624	-0.080322
H405	H	0.776388	0.237710	0.253012
H406	H	0.109630	-0.489624	-0.362280
H407	H	0.442964	-0.156290	-0.028946
H408	H	0.776297	0.177043	0.304387
H409	H	0.832803	-0.271245	-0.660028
H410	H	1.166136	0.062089	-0.326695
H411	H	1.499469	0.395422	0.006638
C412	C	0.821401	-0.257599	-0.935606
C413	C	1.154734	0.075734	-0.602273
C414	C	1.488067	0.409067	-0.268940
H415	H	0.827136	-0.264404	-0.891952
H416	H	1.160469	0.068929	-0.558619
H417	H	1.493802	0.402262	-0.225286
H418	H	0.779299	-0.268476	-0.946306
H419	H	1.112632	0.064857	-0.612972
H420	H	1.445966	0.398191	-0.279639
H421	H	0.830598	-0.207693	-0.946342
H422	H	1.163931	0.125640	-0.613009
H423	H	1.497265	0.458973	-0.279675
H424	H	0.666895	-0.443850	-0.374684
H425	H	1.000228	-0.110517	-0.041350
H426	H	1.333562	0.222817	0.291983
H427	H	0.548188	-0.443815	-0.374731
H428	H	0.881522	-0.110482	-0.041397
H429	H	1.214855	0.222851	0.291936
