data_functionalizedCrystal
_audit_creation_method	'MofGen! by Chris Wilmer'
_symmetry_space_group_name_H-M	'P1'
_symmetry_Int_Tables_number	1
_symmetry_cell_setting	triclinic
loop_
_symmetry_equiv_pos_as_xyz
  x,y,z
_cell_length_a	15.298114
_cell_length_b	15.297327
_cell_length_c	15.296720
_cell_angle_alpha	107.319222
_cell_angle_beta	69.221067
_cell_angle_gamma	91.577639
loop_
_atom_site_label
_atom_site_type_symbol
_atom_site_fract_x
_atom_site_fract_y
_atom_site_fract_z
Zn1	Zn	1.197182	0.637548	0.412745
Zn2	Zn	1.197080	0.766155	0.284154
Zn3	Zn	1.077899	0.593108	0.274907
Zn4	Zn	1.014723	0.766139	0.466573
O5	O	1.121721	0.690737	0.359594
O6	O	1.323406	0.673213	0.377030
O7	O	1.207666	0.724608	0.148899
O8	O	1.120204	0.472766	0.266794
O9	O	1.323331	0.767700	0.282554
O10	O	1.207841	0.505416	0.368063
O11	O	1.120104	0.597471	0.142105
O12	O	0.943281	0.597456	0.318989
O13	O	1.012531	0.767673	0.593461
O14	O	0.896866	0.724581	0.459805
O15	O	1.146582	0.673198	0.553913
O16	O	1.146408	0.892389	0.334749
O17	O	1.012431	0.892378	0.468772
C18	C	0.887341	0.656195	0.394235
C19	C	0.787064	0.641443	0.409082
C20	C	0.504390	0.796215	0.253720
C21	C	0.598608	0.810073	0.239763
C22	C	0.645726	0.767917	0.282092
C23	C	0.598618	0.711899	0.338379
C24	C	0.504394	0.698034	0.352331
C25	C	0.645730	0.669736	0.380703
C26	C	0.598622	0.613718	0.436990
C27	C	0.504406	0.599856	0.450940
C28	C	0.457288	0.642012	0.408611
C29	C	0.739954	0.683602	0.366751
C30	C	0.739958	0.585421	0.465362
C31	C	0.645740	0.571562	0.479319
C32	C	1.072573	0.925122	0.408622
C33	C	1.051624	1.025409	0.429616
C34	C	1.072521	0.725391	0.609411
C35	C	1.051555	0.740158	0.715868
C36	C	1.357016	0.725415	0.324819
C37	C	1.457284	0.740193	0.310000
C38	C	1.171081	0.455444	0.310393
C39	C	1.192115	0.355177	0.289426
C40	C	1.271756	1.308052	0.209818
C41	C	1.291440	1.213827	0.190088
C42	C	1.231488	1.166718	0.249969
C43	C	1.151849	1.213843	0.329582
C44	C	1.132159	1.308077	0.349309
C45	C	1.091891	1.166742	0.389460
C46	C	1.012251	1.213868	0.469073
C47	C	0.992566	1.308092	0.488797
C48	C	1.052518	1.355201	0.428917
C49	C	1.111580	1.072509	0.369733
C50	C	0.971983	1.072533	0.509224
C51	C	0.952299	1.166758	0.528954
C52	C	1.170795	0.656161	0.110729
C53	C	1.191989	0.641165	0.004193
C54	C	1.271636	0.585040	0.933592
C55	C	1.291340	0.571168	0.833570
C56	C	1.231395	0.613414	0.804139
C57	C	1.151743	0.669535	0.874741
C58	C	1.132041	0.683415	0.974773
C59	C	1.091801	0.711788	0.845320
C60	C	1.012149	0.767910	0.915922
C61	C	0.992450	0.781786	1.015944
C62	C	1.052395	0.739540	1.045374
C63	C	1.111503	0.697909	0.745288
C64	C	0.971908	0.796284	0.786469
C65	C	0.952204	0.810156	0.886491
H66	H	0.778300	0.729212	0.320922
O67	O	0.747345	0.782871	0.267039
H68	H	0.790243	0.715787	0.229882
H69	H	0.887351	0.855850	0.943989
O70	O	1.252635	0.598457	0.696261
H71	H	1.253868	0.524071	0.658354
O72	O	0.649420	0.870482	0.179053
H73	H	0.600828	0.897471	0.151967
O74	O	0.790763	0.539949	0.511027
H75	H	0.864190	0.559009	0.491879
O76	O	0.453576	0.841673	0.208061
H77	H	0.380146	0.822620	0.227221
O78	O	0.355667	0.627057	0.423651
H79	H	0.312773	0.694143	0.460797
H80	H	0.923098	0.830686	0.762509
H81	H	0.466056	0.554235	0.496765
O82	O	1.252718	1.065091	0.228703
H83	H	1.318173	1.040238	0.163290
O84	O	0.594934	0.511131	0.540014
H85	H	0.521506	0.508568	0.542592
O86	O	1.377328	1.162998	0.104226
H87	H	1.423720	1.132714	0.131352
O88	O	1.336419	1.358849	0.145230
H89	H	1.407754	1.353403	0.147451
O90	O	1.197480	1.021685	0.283883
H91	H	1.193096	1.027111	0.214768
H92	H	0.887456	1.205141	0.593775
O93	O	1.031276	1.456831	0.450193
H94	H	1.086343	1.481666	0.395175
O95	O	0.906668	1.358924	0.574659
H96	H	0.868290	1.310341	0.612990
H97	H	0.923163	1.034177	0.557982
H98	H	1.176356	0.652214	0.687813
O99	O	1.377244	0.510644	0.757422
H100	H	1.415614	0.483594	0.794689
O101	O	1.336267	0.539452	0.965331
H102	H	1.309175	0.558520	1.046746
H103	H	1.036356	0.750832	1.126819
H104	H	0.927598	0.827493	1.073427
