data_functionalizedCrystal
_audit_creation_method	'MofGen! by Chris Wilmer'
_symmetry_space_group_name_H-M	'P1'
_symmetry_Int_Tables_number	1
_symmetry_cell_setting	triclinic
loop_
_symmetry_equiv_pos_as_xyz
  x,y,z
_cell_length_a	18.215407
_cell_length_b	18.101395
_cell_length_c	18.215407
_cell_angle_alpha	90.010695
_cell_angle_beta	90.010236
_cell_angle_gamma	90.031552
loop_
_atom_site_label
_atom_site_type_symbol
_atom_site_fract_x
_atom_site_fract_y
_atom_site_fract_z
Zn1	Zn	1.124970	-0.294943	0.416123
Zn2	Zn	1.124886	-0.418756	0.293060
Zn3	Zn	1.001924	-0.294934	0.293071
Zn4	Zn	1.001855	-0.418749	0.416085
O5	O	1.063409	-0.356845	0.354585
O6	O	1.227943	-0.311374	0.399810
O7	O	1.108568	-0.402329	0.190078
O8	O	1.018310	-0.191302	0.309414
O9	O	1.227882	-0.402339	0.309397
O10	O	1.108712	-0.191309	0.399821
O11	O	1.018228	-0.311358	0.190085
O12	O	0.898930	-0.311351	0.309377
O13	O	1.018194	-0.402327	0.519075
O14	O	0.898880	-0.402317	0.399756
O15	O	1.108646	-0.311367	0.519103
O16	O	1.108502	-0.522388	0.309360
O17	O	1.018112	-0.522382	0.399745
C18	C	0.872203	-0.356833	0.354564
C19	C	0.790404	-0.356845	0.354572
C20	C	0.602203	-0.404286	0.401573
C21	C	0.525344	-0.404288	0.401582
C22	C	0.525367	-0.309418	0.307613
C23	C	0.602224	-0.309413	0.307608
C24	C	0.640640	-0.356851	0.354587
C25	C	0.486924	-0.356859	0.354601
C26	C	0.403590	-0.356861	0.354611
C27	C	0.723979	-0.356848	0.354579
C28	C	1.063310	-0.549256	0.354563
C29	C	1.063336	-0.631570	0.354579
C30	C	1.063497	-0.930661	0.354618
C31	C	1.006758	-0.899363	0.411628
C32	C	1.006488	-0.813745	0.411449
C33	C	1.063417	-0.782278	0.354599
C34	C	1.042432	-0.813407	0.277038
C35	C	1.042066	-0.899053	0.277379
C36	C	1.141345	-0.899010	0.374487
C37	C	1.140887	-0.813359	0.376188
C38	C	1.063373	-0.698419	0.354584
C39	C	1.063539	-1.014520	0.354629
C40	C	1.255362	-0.356859	0.354607
C41	C	1.337161	-0.356864	0.354616
C42	C	1.063422	-0.356847	0.546538
C43	C	1.063427	-0.356848	0.628337
C44	C	1.063528	-0.163683	0.354623
C45	C	1.063578	-0.081369	0.354639
C46	C	1.110511	-0.309493	0.816546
C47	C	1.110507	-0.309493	0.893405
C48	C	1.016319	-0.404214	0.893365
C49	C	1.016320	-0.404210	0.816507
C50	C	1.063420	-0.356851	0.778100
C51	C	1.063415	-0.356854	0.931816
C52	C	1.063410	-0.356854	1.015150
C53	C	1.063424	-0.356850	0.694761
C54	C	1.063397	-0.356859	1.163379
C55	C	1.063408	-0.356857	1.081580
H56	H	0.633521	-0.270781	0.269346
C57	C	0.483107	-0.257249	0.255932
H58	H	0.431828	-0.264052	0.262658
H59	H	0.495726	-0.207506	0.266782
H60	H	0.495688	-0.268019	0.206465
C61	C	1.162311	-0.257397	0.774297
H62	H	1.155574	-0.264181	0.723017
H63	H	1.151569	-0.207640	0.786903
H64	H	1.211754	-0.268242	0.786901
C65	C	0.644462	-0.456462	0.453247
H66	H	0.695741	-0.449673	0.446510
H67	H	0.631885	-0.445704	0.502714
H68	H	0.631836	-0.506206	0.442385
C69	C	0.964523	-0.456310	0.774214
H70	H	0.936480	-0.484524	0.808094
H71	H	0.932475	-0.427981	0.744230
H72	H	0.992665	-0.488577	0.744232
C73	C	1.162313	-0.257410	0.935696
H74	H	1.155565	-0.264189	0.986971
H75	H	1.211751	-0.268256	0.923106
H76	H	1.151574	-0.207646	0.923111
C77	C	1.201021	-0.784423	0.324187
H78	H	1.247199	-0.804075	0.338521
H79	H	1.190276	-0.799313	0.275342
H80	H	1.202691	-0.732023	0.326625
H81	H	0.494052	-0.442913	0.439844
H82	H	1.019616	-0.792698	0.468960
H83	H	1.183618	-0.919247	0.332965
H84	H	1.019755	-0.919928	0.469325
C85	C	0.929278	-0.928510	0.394072
H86	H	0.931357	-0.959668	0.352148
H87	H	0.911190	-0.955766	0.434799
H88	H	0.897487	-0.888072	0.384421
C89	C	0.928540	-0.786141	0.393670
H90	H	0.928107	-0.733660	0.393507
H91	H	0.914154	-0.803922	0.346752
H92	H	0.895268	-0.803805	0.429793
C93	C	0.965191	-0.926127	0.254650
H94	H	0.934478	-0.884783	0.245299
H95	H	0.968965	-0.955367	0.211507
H96	H	0.944697	-0.954923	0.293135
C97	C	1.095458	-0.927027	0.218032
H98	H	1.117272	-0.886046	0.193818
H99	H	1.132672	-0.956144	0.240312
H100	H	1.069358	-0.956137	0.183341
H101	H	1.160480	-0.920574	0.430081
H102	H	0.986129	-0.792018	0.259906
C103	C	1.162276	-0.785864	0.453292
H104	H	1.124159	-0.755566	0.472252
H105	H	1.169448	-0.827005	0.484851
H106	H	1.206412	-0.758040	0.450336
H107	H	1.082459	-0.793024	0.233404
H108	H	0.977974	-0.442773	0.924645
