data_functionalizedCrystal
_audit_creation_method	'MofGen! by Chris Wilmer'
_symmetry_space_group_name_H-M	'P1'
_symmetry_Int_Tables_number	1
_symmetry_cell_setting	triclinic
loop_
_symmetry_equiv_pos_as_xyz
  x,y,z
_cell_length_a	16.992694
_cell_length_b	15.072220
_cell_length_c	16.992695
_cell_angle_alpha	89.999147
_cell_angle_beta	89.331777
_cell_angle_gamma	90.007079
loop_
_atom_site_label
_atom_site_type_symbol
_atom_site_fract_x
_atom_site_fract_y
_atom_site_fract_z
O1	O	1.050860	0.073672	-0.166912
O2	O	0.822460	0.073698	-0.165081
O3	O	0.935744	0.073678	-0.051796
O4	O	0.937576	0.073692	-0.280196
O5	O	0.935715	-0.073887	-0.051801
O6	O	0.822430	-0.073867	-0.165086
O7	O	1.050831	-0.073893	-0.166917
Zn8	Zn	0.936626	-0.097309	-0.166002
Zn9	Zn	0.936665	0.097114	-0.165996
O10	O	0.937546	-0.073873	-0.280201
C11	C	0.793085	-0.000081	-0.162727
C12	C	0.705600	-0.000071	-0.155699
N13	N	0.936605	-0.229998	-0.166006
C14	C	0.659610	-0.000068	-0.223517
C15	C	0.577409	-0.000080	-0.216908
C16	C	0.541201	-0.000090	-0.142480
C17	C	0.587198	-0.000096	-0.074657
C18	C	0.669397	-0.000090	-0.081267
C19	C	0.295886	-0.000116	-0.115086
C20	C	0.213681	-0.000119	-0.108481
C21	C	0.203898	-0.000105	-0.250732
C22	C	0.286099	-0.000093	-0.257336
C23	C	0.332089	-0.000104	-0.189512
N24	N	0.457178	-0.000100	-0.135723
N25	N	0.416110	-0.000100	-0.196270
C26	C	0.936663	-0.589199	-0.165992
C27	C	0.875816	-0.551582	-0.226378
C28	C	0.875979	-0.448756	-0.226623
C29	C	0.936633	-0.410995	-0.165999
C30	C	1.019894	-0.448295	-0.189086
C31	C	1.019559	-0.551153	-0.189521
C32	C	0.914970	-0.551302	-0.082375
C33	C	0.913120	-0.448439	-0.082808
C34	C	0.936622	-0.310282	-0.166002
C35	C	0.936680	-0.689913	-0.165992
C36	C	1.080205	-0.000112	-0.169270
C37	C	1.167690	-0.000116	-0.176299
C38	C	0.933374	-0.000104	-0.022439
C39	C	0.926345	-0.000103	0.065046
N40	N	0.936691	0.229803	-0.165986
C41	C	0.939917	-0.000089	-0.309559
C42	C	0.946945	-0.000084	-0.397044
C43	C	0.994163	-0.000112	0.111037
C44	C	0.987554	-0.000102	0.193238
C45	C	0.913126	-0.000091	0.229446
C46	C	0.845303	-0.000080	0.183449
C47	C	0.851913	-0.000082	0.101250
C48	C	0.885732	-0.000076	0.474760
C49	C	0.879127	-0.000075	0.556966
C50	C	1.021379	-0.000097	0.566749
C51	C	1.027982	-0.000105	0.484547
C52	C	0.960159	-0.000089	0.438558
N53	N	0.906369	-0.000084	0.313468
N54	N	0.966917	-0.000089	0.354537
H55	H	0.689084	-0.000059	-0.284124
H56	H	0.818516	-0.000080	0.586443
H57	H	0.315574	-0.000075	-0.317942
O58	O	0.532697	-0.000225	-0.282761
C59	C	0.484837	-0.076641	-0.283197
H60	H	0.512384	-0.130067	-0.244839
H61	H	0.479571	-0.102279	-0.346031
H62	H	0.423857	-0.059372	-0.259073
H63	H	1.066467	-0.423834	-0.146489
H64	H	0.184203	-0.000126	-0.047870
H65	H	1.088589	-0.000114	0.455073
O66	O	0.892797	-0.582546	-0.299803
C67	C	0.888913	-0.675990	-0.299802
H68	H	0.897861	-0.701736	-0.237464
H69	H	0.936901	-0.703735	-0.340265
H70	H	0.828838	-0.698059	-0.321678
H71	H	0.830505	-0.000063	0.437325
H72	H	1.076596	-0.000108	0.604202
O73	O	0.802345	-0.418572	-0.209450
C74	C	0.774918	-0.366836	-0.272583
H75	H	0.827210	-0.340447	-0.308107
H76	H	0.738912	-0.308803	-0.248615
H77	H	0.736453	-0.409419	-0.312077
O78	O	0.340517	0.000037	-0.049180
C79	C	0.323394	0.076448	-0.004285
H80	H	0.297945	0.129867	-0.044085
H81	H	0.379670	0.102100	0.023640
H82	H	0.278724	0.059164	0.043892
O83	O	1.041557	-0.579807	-0.262406
C84	C	1.110183	-0.631878	-0.256740
H85	H	1.142679	-0.613820	-0.200654
H86	H	1.149986	-0.618829	-0.309957
H87	H	1.093376	-0.705087	-0.255029
O88	O	0.551990	0.000051	-0.002375
C89	C	0.504726	0.076463	0.005700
H90	H	0.526725	0.129884	-0.036650
H91	H	0.508123	0.102111	0.068681
H92	H	0.441113	0.059183	-0.008401
H93	H	0.796688	-0.000075	0.063804
H94	H	0.166444	-0.000098	-0.305950
H95	H	0.706842	-0.000092	-0.026042
H96	H	0.890367	-0.424140	-0.288567
H97	H	0.813906	-0.576337	-0.212027
O98	O	1.066480	0.000036	0.075903
C99	C	1.108153	0.076448	0.098981
H100	H	1.064729	0.129868	0.118712
H101	H	1.144766	0.102098	0.047143
H102	H	1.148661	0.059167	0.149746
H103	H	1.066524	-0.576035	-0.147548
O104	O	1.042033	-0.417662	-0.261295
C105	C	0.986893	-0.445262	-0.317620
H106	H	0.954410	-0.506524	-0.295028
H107	H	1.018826	-0.461973	-0.375101
H108	H	0.942856	-0.389609	-0.328280
H109	H	0.855297	-0.577287	-0.061453
H110	H	0.851847	-0.424061	-0.065407
H111	H	0.959283	-0.575629	-0.037377
O112	O	0.773064	-0.000107	0.218746
C113	C	0.781771	-0.000088	0.301159
H114	H	0.841987	-0.028032	0.316593
H115	H	0.733826	-0.042924	0.329274
H116	H	0.776538	0.070707	0.324253
O117	O	0.962178	-0.417736	-0.026311
C118	C	1.019080	-0.361419	-0.060925
H119	H	1.025651	-0.377902	-0.126145
H120	H	1.077942	-0.371396	-0.030658
H121	H	0.999661	-0.289420	-0.053961
O122	O	1.053412	0.000047	0.237943
C123	C	1.053857	0.076466	0.285790
H124	H	1.015497	0.129885	0.258240
H125	H	1.116694	0.102111	0.291042
H126	H	1.029742	0.059197	0.346776
