data_functionalizedCrystal
_audit_creation_method	'MofGen! by Chris Wilmer'
_symmetry_space_group_name_H-M	'P1'
_symmetry_Int_Tables_number	1
_symmetry_cell_setting	triclinic
loop_
_symmetry_equiv_pos_as_xyz
  x,y,z
_cell_length_a	14.519709
_cell_length_b	14.519709
_cell_length_c	12.996460
_cell_angle_alpha	89.994177
_cell_angle_beta	90.012367
_cell_angle_gamma	83.680145
loop_
_atom_site_label
_atom_site_type_symbol
_atom_site_fract_x
_atom_site_fract_y
_atom_site_fract_z
O1	O	-1.223852	-0.120893	0.085435
O2	O	-0.890519	0.212440	0.418768
O3	O	-0.557186	0.545774	0.752102
O4	O	-0.955375	-0.135130	0.085467
O5	O	-0.622042	0.198204	0.418800
O6	O	-0.288709	0.531537	0.752134
O7	O	-1.096732	0.006227	0.085441
O8	O	-0.763399	0.339560	0.418774
O9	O	-0.430065	0.672894	0.752108
O10	O	-1.082496	-0.262250	0.085461
O11	O	-0.749162	0.071084	0.418794
O12	O	-0.415829	0.404417	0.752128
O13	O	-1.096750	0.006235	-0.085693
O14	O	-0.763417	0.339569	0.247640
O15	O	-0.430084	0.672902	0.580974
O16	O	-0.955394	-0.135122	-0.085667
O17	O	-0.622060	0.198212	0.247666
O18	O	-0.288727	0.531545	0.581000
O19	O	-1.223871	-0.120885	-0.085699
O20	O	-0.890537	0.212448	0.247635
O21	O	-0.557204	0.545782	0.580968
Cu22	Cu	-1.089634	-0.128002	-0.101309
Cu23	Cu	-0.756300	0.205331	0.232025
Cu24	Cu	-0.422967	0.538664	0.565358
Cu25	Cu	-1.089612	-0.128012	0.101077
Cu26	Cu	-0.756279	0.205321	0.434410
Cu27	Cu	-0.422945	0.538655	0.767744
O28	O	-1.082514	-0.262242	-0.085673
O29	O	-0.749180	0.071092	0.247661
O30	O	-0.415847	0.404425	0.580994
C31	C	-1.096078	0.040591	-0.000126
C32	C	-0.762744	0.373924	0.333207
C33	C	-0.429411	0.707258	0.666541
C34	C	-1.094090	0.142972	-0.000126
C35	C	-0.760756	0.476306	0.333207
C36	C	-0.427423	0.809639	0.666540
C37	C	-0.921025	-0.134462	-0.000096
C38	C	-0.587691	0.198871	0.333237
C39	C	-0.254358	0.532205	0.666571
C40	C	-0.818643	-0.132474	-0.000084
C41	C	-0.485310	0.200859	0.333249
C42	C	-0.151977	0.534193	0.666582
C43	C	-1.258221	-0.121553	-0.000134
C44	C	-0.924888	0.211781	0.333200
C45	C	-0.591555	0.545114	0.666533
C46	C	-1.360602	-0.123541	-0.000139
C47	C	-1.027269	0.209793	0.333195
C48	C	-0.693936	0.543126	0.666528
C49	C	-0.443748	-0.125154	-0.000132
C50	C	-0.110414	0.208179	0.333202
C51	C	0.222919	0.541512	0.666535
C52	C	-0.548056	-0.127187	-0.000118
C53	C	-0.214722	0.206146	0.333215
C54	C	0.118611	0.539480	0.666549
C55	C	-0.631192	-0.128814	-0.000107
C56	C	-0.297859	0.204519	0.333226
C57	C	0.035474	0.537853	0.666560
C58	C	-0.735507	-0.130847	-0.000095
C59	C	-0.402173	0.202486	0.333238
C60	C	-0.068840	0.535820	0.666571
C61	C	-1.083168	-0.296605	-0.000103
C62	C	-0.749835	0.036728	0.333230
C63	C	-0.416502	0.370061	0.666563
C64	C	-1.085156	-0.398987	-0.000096
C65	C	-0.751823	-0.065653	0.333237
C66	C	-0.418490	0.267680	0.666570
N67	N	-1.089656	-0.127995	-0.243656
N68	N	-0.756322	0.205338	0.089678
N69	N	-0.422989	0.538671	0.423011
C70	C	-1.086770	0.517868	-0.000099
C71	C	-0.753437	0.851201	0.333234
C72	C	-0.420103	1.184535	0.666568
C73	C	-1.088803	0.413560	-0.000107
C74	C	-0.755469	0.746893	0.333226
C75	C	-0.422136	1.080227	0.666560
C76	C	-1.090430	0.330423	-0.000114
C77	C	-0.757096	0.663757	0.333220
C78	C	-0.423763	0.997090	0.666553
C79	C	-1.092463	0.226109	-0.000120
C80	C	-0.759129	0.559442	0.333214
C81	C	-0.425796	0.892776	0.666547
N82	N	-1.089598	-0.128012	0.243424
N83	N	-0.756264	0.205321	0.576757
N84	N	-0.422931	0.538655	0.910091
C85	C	-1.089600	-0.128013	0.336530
C86	C	-0.756267	0.205320	0.669863
C87	C	-0.422934	0.538654	1.003197
C88	C	-1.089613	-0.128011	0.453335
C89	C	-0.756280	0.205322	0.786668
C90	C	-0.422946	0.538655	1.120002
C91	C	-1.089628	-0.128005	0.546433
C92	C	-0.756295	0.205328	0.879767
C93	C	-0.422962	0.538662	1.213100
C94	C	-1.089640	-0.128002	0.663246
C95	C	-0.756307	0.205332	0.996579
C96	C	-0.422974	0.538665	1.329913
