data_functionalizedCrystal
_audit_creation_method	'MofGen! by Chris Wilmer'
_symmetry_space_group_name_H-M	'P1'
_symmetry_Int_Tables_number	1
_symmetry_cell_setting	triclinic
loop_
_symmetry_equiv_pos_as_xyz
  x,y,z
_cell_length_a	12.759401
_cell_length_b	12.759399
_cell_length_c	17.077396
_cell_angle_alpha	90.025530
_cell_angle_beta	90.017628
_cell_angle_gamma	90.015381
loop_
_atom_site_label
_atom_site_type_symbol
_atom_site_fract_x
_atom_site_fract_y
_atom_site_fract_z
Zn1	Zn	1.606223	-0.418290	0.443820
Zn2	Zn	1.606119	-0.593990	0.312560
Zn3	Zn	1.430531	-0.418323	0.312572
Zn4	Zn	1.430509	-0.593925	0.443788
O5	O	1.518345	-0.506132	0.378185
O6	O	1.753230	-0.441610	0.426416
O7	O	1.582793	-0.570729	0.202715
O8	O	1.453890	-0.271298	0.330000
O9	O	1.753154	-0.570697	0.329980
O10	O	1.582970	-0.271273	0.426427
O11	O	1.453789	-0.441668	0.202723
O12	O	1.283507	-0.441604	0.329970
O13	O	1.453852	-0.570585	0.553639
O14	O	1.283491	-0.570617	0.426374
O15	O	1.582948	-0.441547	0.553662
O16	O	1.582771	-0.741003	0.329950
O17	O	1.453751	-0.740954	0.426363
C18	C	1.245378	-0.506108	0.378170
C19	C	1.128601	-0.506123	0.378182
C20	C	1.073717	-0.438858	0.328076
C21	C	0.963993	-0.438882	0.328087
C22	C	0.964047	-0.573440	0.428315
C23	C	1.073769	-0.573420	0.428300
C24	C	0.813986	-0.401212	0.235579
C25	C	0.759098	-0.333931	0.185480
C26	C	0.794710	-0.231389	0.173557
C27	C	0.885208	-0.196108	0.211743
C28	C	0.940090	-0.263384	0.261848
C29	C	0.904480	-0.365941	0.273757
C30	C	1.223778	-0.611079	0.520809
C31	C	1.278663	-0.678351	0.570918
C32	C	1.243053	-0.780894	0.582850
C33	C	1.152552	-0.816171	0.544677
C34	C	1.097667	-0.748900	0.494568
C35	C	1.133284	-0.646357	0.482635
C36	C	1.518276	-0.779099	0.378169
C37	C	1.518342	-0.895876	0.378188
C38	C	1.451226	-0.950844	0.327956
C39	C	1.451300	-1.060568	0.327976
C40	C	1.585609	-1.060346	0.428467
C41	C	1.585540	-0.950624	0.428442
C42	C	1.413927	-1.210644	0.235409
C43	C	1.346795	-1.265616	0.185185
C44	C	1.244267	-1.230110	0.173058
C45	C	1.208851	-1.139634	0.211168
C46	C	1.275978	-1.084668	0.261398
C47	C	1.378520	-1.120172	0.273510
C48	C	1.622902	-0.800546	0.521010
C49	C	1.690024	-0.745578	0.571245
C50	C	1.792553	-0.781082	0.583380
C51	C	1.827966	-0.871562	0.545284
C52	C	1.760843	-0.926530	0.495049
C53	C	1.658315	-0.891018	0.482913
C54	C	1.792378	-0.506157	0.378201
C55	C	1.909155	-0.506168	0.378207
C56	C	1.518409	-0.506055	0.582929
C57	C	1.518436	-0.506022	0.670179
C58	C	1.518444	-0.232099	0.378218
C59	C	1.518486	-0.115322	0.378233
C60	C	1.518342	-0.506133	0.174237
C61	C	1.518519	-0.505870	0.086988
C62	C	1.585659	-0.438826	0.711183
C63	C	1.585671	-0.438791	0.793163
C64	C	1.518466	-0.505958	0.834139
C65	C	1.451235	-0.573157	0.793130
C66	C	1.451218	-0.573185	0.711151
C67	C	1.451278	-0.573093	0.964000
C68	C	1.451296	-0.573066	1.045984
C69	C	1.585731	-0.438699	1.046012
C70	C	1.585714	-0.438728	0.964033
C71	C	1.518485	-0.505928	0.923030
H72	H	1.287741	-0.835661	0.623664
Cl73	Cl	0.929960	-0.067184	0.196763
Cl74	Cl	0.983894	-0.793250	0.446576
H75	H	1.640414	-0.384076	0.826544
Cl76	Cl	1.494004	-0.755899	0.505751
Cl77	Cl	1.392444	-0.634004	0.618901
H78	H	1.396511	-0.627841	0.826498
Cl79	Cl	1.366758	-0.657574	0.912454
H80	H	1.396468	-0.627893	0.677767
Cl81	Cl	1.670156	-0.354388	0.659679
Cl82	Cl	1.142645	-0.354261	0.265067
Cl83	Cl	1.391318	-1.379352	0.137276
Cl84	Cl	1.645504	-0.631830	0.619137
Cl85	Cl	1.231465	-0.970933	0.309304
Cl86	Cl	1.079943	-1.095015	0.195932
Cl87	Cl	1.159864	-1.299239	0.109938
Cl88	Cl	1.268558	-0.482165	0.505804
H89	H	1.396511	-0.906270	0.287036
Cl90	Cl	1.053853	-0.219043	0.309849
H91	H	0.784989	-0.484713	0.245275
H92	H	1.640444	-0.384040	0.930673
H93	H	1.847203	-0.736318	0.624288
Cl94	Cl	0.725703	-0.146808	0.110577
H95	H	0.685414	-0.362666	0.154389
H96	H	1.123552	-0.899668	0.554398
H97	H	1.640470	-0.383980	1.079401
Cl98	Cl	0.895108	-0.658044	0.491313
H99	H	1.497417	-1.239555	0.245270
Cl100	Cl	1.670076	-1.129180	0.491643
Cl101	Cl	1.805363	-1.040278	0.447156
H102	H	1.911426	-0.900519	0.555215
H103	H	1.396569	-0.627757	1.079344
