data_functionalizedCrystal
_audit_creation_method	'MofGen! by Chris Wilmer'
_symmetry_space_group_name_H-M	'P1'
_symmetry_Int_Tables_number	1
_symmetry_cell_setting	triclinic
loop_
_symmetry_equiv_pos_as_xyz
  x,y,z
_cell_length_a	25.639243
_cell_length_b	25.639239
_cell_length_c	25.639233
_cell_angle_alpha	89.981253
_cell_angle_beta	90.015962
_cell_angle_gamma	89.958590
loop_
_atom_site_label
_atom_site_type_symbol
_atom_site_fract_x
_atom_site_fract_y
_atom_site_fract_z
Zn1	Zn	0.799225	0.208176	0.295656
Zn2	Zn	1.299225	0.708176	0.795656
Zn3	Zn	0.799149	0.295595	0.208220
Zn4	Zn	1.299149	0.795595	0.708220
Zn5	Zn	0.711801	0.208180	0.208229
Zn6	Zn	1.211801	0.708180	0.708229
Zn7	Zn	0.711746	0.295587	0.295619
Zn8	Zn	1.211746	0.795587	0.795619
O9	O	0.755480	0.251885	0.251931
O10	O	1.255480	0.751885	0.751931
O11	O	0.872380	0.219775	0.284069
O12	O	1.372380	0.719775	0.784069
O13	O	0.787553	0.284004	0.135056
O14	O	1.287553	0.784004	0.635056
O15	O	0.723453	0.135014	0.219846
O16	O	1.223453	0.635014	0.719846
O17	O	0.872324	0.284001	0.219830
O18	O	1.372324	0.784001	0.719830
O19	O	0.787683	0.135012	0.284077
O20	O	1.287683	0.635012	0.784077
O21	O	0.723379	0.219781	0.135063
O22	O	1.223379	0.719781	0.635063
O23	O	0.638629	0.219772	0.219810
O24	O	1.138629	0.719772	0.719810
O25	O	0.723360	0.283987	0.368789
O26	O	1.223360	0.783987	0.868789
O27	O	0.638589	0.283990	0.284016
O28	O	1.138589	0.783990	0.784016
O29	O	0.787630	0.219767	0.368816
O30	O	1.287630	0.719767	0.868816
O31	O	0.787499	0.368759	0.219795
O32	O	1.287499	0.868759	0.719795
O33	O	0.723286	0.368753	0.284007
O34	O	1.223286	0.868753	0.784007
C35	C	0.619638	0.251881	0.251910
C36	C	1.119638	0.751881	0.751910
C37	C	0.561524	0.251892	0.251914
C38	C	1.061524	0.751892	0.751914
C39	C	0.201184	0.218495	0.285436
C40	C	0.701184	0.718495	0.785436
C41	C	0.146580	0.218494	0.285439
C42	C	0.646580	0.718494	0.785439
O43	O	0.118363	0.190088	0.313915
O44	O	0.618363	0.690088	0.813915
N45	N	0.119241	0.251883	0.251945
N46	N	0.619241	0.751883	0.751945
C47	C	0.146510	0.285271	0.218443
C48	C	0.646510	0.785271	0.718443
O49	O	0.118242	0.313670	0.189954
O50	O	0.618242	0.813670	0.689954
C51	C	0.201113	0.285268	0.218437
C52	C	0.701113	0.785268	0.718437
C53	C	0.228449	0.251881	0.251937
C54	C	0.728449	0.751881	0.751937
C55	C	0.228520	0.185109	0.318932
C56	C	0.728520	0.685109	0.818932
C57	C	0.283121	0.185111	0.318930
C58	C	0.783121	0.685111	0.818930
C59	C	0.310385	0.218497	0.285431
C60	C	0.810385	0.718497	0.785431
C61	C	0.283049	0.251882	0.251934
C62	C	0.783049	0.751882	0.751934
C63	C	0.228380	0.318653	0.184932
C64	C	0.728380	0.818653	0.684932
C65	C	0.282987	0.318647	0.184929
C66	C	0.782987	0.818647	0.684929
C67	C	0.310323	0.285260	0.218429
C68	C	0.810323	0.785260	0.718429
C69	C	0.364915	0.285270	0.218432
C70	C	0.864915	0.785270	0.718432
N71	N	0.392253	0.251881	0.251926
N72	N	0.892253	0.751881	0.751926
C73	C	0.364989	0.218494	0.285425
C74	C	0.864989	0.718494	0.785425
C75	C	0.031839	0.285273	0.218456
C76	C	0.531839	0.785273	0.718456
C77	C	-0.022763	0.285279	0.218464
C78	C	0.477237	0.785279	0.718464
C79	C	-0.022689	0.218501	0.285460
C80	C	0.477311	0.718501	0.785460
C81	C	0.031914	0.218499	0.285454
C82	C	0.531914	0.718499	0.785454
C83	C	0.059178	0.251884	0.251950
C84	C	0.559178	0.751884	0.751950
C85	C	0.479654	0.218500	0.285417
C86	C	0.979654	0.718500	0.785417
C87	C	0.534259	0.218506	0.285413
C88	C	1.034259	0.718506	0.785413
C89	C	0.534180	0.285281	0.218415
C90	C	1.034180	0.785281	0.718415
C91	C	0.479580	0.285278	0.218421
C92	C	0.979580	0.785278	0.718421
C93	C	0.452318	0.251883	0.251924
C94	C	0.952318	0.751883	0.751924
O95	O	0.393166	0.313659	0.189969
O96	O	0.893166	0.813659	0.689969
O97	O	0.393263	0.190095	0.313904
O98	O	0.893263	0.690095	0.813904
C99	C	0.755392	0.387727	0.251907
C100	C	1.255392	0.887727	0.751907
C101	C	0.755403	0.445841	0.251914
C102	C	1.255403	0.945841	0.751914
C103	C	0.755497	0.251875	0.388304
C104	C	1.255497	0.751875	0.888304
C105	C	0.755504	0.251871	0.446418
C106	C	1.255504	0.751871	0.946418
C107	C	0.891853	0.251888	0.251952
C108	C	1.391853	0.751888	0.751952
C109	C	0.949967	0.251890	0.251961
C110	C	1.449967	0.751890	0.751961
C111	C	0.755583	0.115512	0.251967
C112	C	1.255583	0.615512	0.751967
C113	C	0.755627	0.057397	0.251982
C114	C	1.255627	0.557397	0.751982
C115	C	0.789004	0.806195	0.218553
C116	C	1.289004	1.306195	0.718553
C117	C	0.789024	0.860799	0.218560
C118	C	1.289024	1.360799	0.718560
O119	O	0.817502	0.889028	0.190169
O120	O	1.317502	1.389028	0.690169
N121	N	0.755572	0.888124	0.251966
N122	N	1.255572	1.388124	0.751966
C123	C	0.722102	0.860841	0.285371
C124	C	1.222102	1.360841	0.785371
O125	O	0.693651	0.889096	0.313786
O126	O	1.193651	1.389096	0.813786
C127	C	0.722085	0.806238	0.285366
C128	C	1.222085	1.306238	0.785366
C129	C	0.755535	0.778916	0.251954
C130	C	1.255535	1.278916	0.751954
C131	C	0.822452	0.778873	0.185144
C132	C	1.322452	1.278873	0.685144
C133	C	0.822431	0.724273	0.185137
C134	C	1.322431	1.224273	0.685137
C135	C	0.788962	0.696994	0.218538
C136	C	1.288962	1.196994	0.718538
C137	C	0.755514	0.724315	0.251946
C138	C	1.255514	1.224315	0.751946
C139	C	0.688617	0.778956	0.318773
C140	C	1.188617	1.278956	0.818773
C141	C	0.688603	0.724349	0.318765
C142	C	1.188603	1.224349	0.818765
C143	C	0.722053	0.697027	0.285354
C144	C	1.222053	1.197027	0.785354
C145	C	0.722024	0.642436	0.285340
C146	C	1.222024	1.142436	0.785340
N147	N	0.755475	0.615112	0.251934
N148	N	1.255475	1.115112	0.751934
C149	C	0.788944	0.642390	0.218533
C150	C	1.288944	1.142390	0.718533
C151	C	0.722141	0.975511	0.285379
C152	C	1.222141	1.475511	0.785379
C153	C	0.722155	1.030114	0.285381
C154	C	1.222155	1.530114	0.785381
C155	C	0.789078	1.030068	0.218571
C156	C	1.289078	1.530068	0.718571
C157	C	0.789061	0.975465	0.218566
C158	C	1.289061	1.475465	0.718566
C159	C	0.755593	0.948187	0.251973
C160	C	1.255593	1.448187	0.751973
C161	C	0.788897	0.527725	0.218519
C162	C	1.288897	1.027725	0.718519
C163	C	0.788872	0.473120	0.218513
C164	C	1.288872	0.973120	0.718513
C165	C	0.721951	0.473170	0.285325
C166	C	1.221951	0.973170	0.785325
C167	C	0.721974	0.527771	0.285329
C168	C	1.221974	1.027771	0.785329
C169	C	0.755452	0.555047	0.251925
C170	C	1.255452	1.055047	0.751925
O171	O	0.693562	0.614173	0.313718
O172	O	1.193562	1.114173	0.813718
O173	O	0.817396	0.614128	0.190127
O174	O	1.317396	1.114128	0.690127
C175	C	0.755494	0.251856	0.116089
C176	C	1.255494	0.751856	0.616089
C177	C	0.755588	0.251713	0.057975
C178	C	1.255588	0.751713	0.557975
C179	C	0.789012	0.218333	0.806801
C180	C	1.289012	0.718333	1.306801
C181	C	0.789019	0.218318	0.861405
C182	C	1.289019	0.718318	1.361405
O183	O	0.817466	0.189864	0.889659
O184	O	1.317466	0.689864	1.389659
N185	N	0.755562	0.251749	0.888701
N186	N	1.255562	0.751749	1.388701
C187	C	0.722093	0.285192	0.861389
C188	C	1.222093	0.785192	1.361389
O189	O	0.693636	0.313626	0.889620
O190	O	1.193636	0.813626	1.389620
C191	C	0.722084	0.285204	0.806786
C192	C	1.222084	0.785204	1.306786
C193	C	0.755547	0.251775	0.779493
C194	C	1.255547	0.751775	1.279493
C195	C	0.822472	0.184906	0.779508
C196	C	1.322472	0.684906	1.279508
C197	C	0.822466	0.184921	0.724908
C198	C	1.322466	0.684921	1.224908
C199	C	0.789001	0.218363	0.697600
C200	C	1.289001	0.718363	1.197600
C201	C	0.755541	0.251790	0.724893
C202	C	1.255541	0.751790	1.224893
C203	C	0.688613	0.318644	0.779475
C204	C	1.188613	0.818644	1.279475
C205	C	0.688607	0.318653	0.724868
C206	C	1.188607	0.818653	1.224868
C207	C	0.722069	0.285223	0.697576
C208	C	1.222069	0.785223	1.197576
C209	C	0.722070	0.285247	0.642984
C210	C	1.222070	0.785247	1.142984
N211	N	0.755526	0.251817	0.615689
N212	N	1.255526	0.751817	1.115689
C213	C	0.788992	0.218375	0.642996
C214	C	1.288992	0.718375	1.142996
C215	C	0.722113	0.285165	0.976060
C216	C	1.222113	0.785165	1.476060
C217	C	0.722124	0.285157	1.030662
C218	C	1.222124	0.785157	1.530662
C219	C	0.789049	0.218282	1.030675
C220	C	1.289049	0.718282	1.530675
C221	C	0.789041	0.218293	0.976071
C222	C	1.289041	0.718293	1.476071
C223	C	0.755570	0.251735	0.948764
C224	C	1.255570	0.751735	1.448764
C225	C	0.788977	0.218410	0.528331
C226	C	1.288977	0.718410	1.028331
C227	C	0.788970	0.218429	0.473726
C228	C	1.288970	0.718429	0.973726
C229	C	0.722043	0.285302	0.473719
C230	C	1.222043	0.785302	0.973719
C231	C	0.722052	0.285285	0.528319
C232	C	1.222052	0.785285	1.028319
C233	C	0.755521	0.251834	0.555624
C234	C	1.255521	0.751834	1.055624
O235	O	0.693635	0.313686	0.614696
O236	O	1.193635	0.813686	1.114696
O237	O	0.817439	0.189941	0.614759
O238	O	1.317439	0.689941	1.114759
H239	H	0.305183	0.345834	0.157644
H240	H	0.805183	0.845834	0.657644
C241	C	-0.052533	0.321514	0.182155
C242	C	0.447467	0.821514	0.682155
C243	C	-0.106189	0.314383	0.189331
C244	C	0.393811	0.814383	0.689331
C245	C	-0.133627	0.347758	0.155895
C246	C	0.366373	0.847758	0.655895
H247	H	-0.043652	0.313844	0.147018
H248	H	0.456348	0.813844	0.647018
H249	H	-0.043635	0.356665	0.189750
H250	H	0.456365	0.856665	0.689750
H251	H	-0.115084	0.279240	0.181732
H252	H	0.384916	0.779240	0.681732
H253	H	-0.115086	0.322057	0.224462
H254	H	0.384914	0.822057	0.724462
H255	H	-0.124729	0.382909	0.163490
H256	H	0.375271	0.882909	0.663490
H257	H	-0.124741	0.340086	0.120760
H258	H	0.375259	0.840086	0.620760
H259	H	-0.170036	0.342928	0.160763
H260	H	0.329964	0.842928	0.660763
H261	H	0.054034	0.312464	0.191174
H262	H	0.554034	0.812464	0.691174
H263	H	0.457464	0.191305	0.312697
H264	H	0.957464	0.691305	0.812697
C265	C	0.825261	0.557240	0.182192
C266	C	1.325261	1.057240	0.682192
C267	C	0.854535	0.521617	0.152926
C268	C	1.354535	1.021617	0.652926
C269	C	0.888030	0.548786	0.119449
C270	C	1.388030	1.048786	0.619449
H271	H	0.848086	0.578509	0.202154
H272	H	1.348086	1.078509	0.702154
H273	H	0.805296	0.578560	0.159365
H274	H	1.305296	1.078560	0.659365
H275	H	0.874499	0.500305	0.175751
H276	H	1.374499	1.000305	0.675751
H277	H	0.831723	0.500346	0.132954
H278	H	1.331723	1.000346	0.632954
H279	H	0.868065	0.570106	0.096622
H280	H	1.368065	1.070106	0.596622
H281	H	0.910852	0.570054	0.139415
H282	H	1.410852	1.070054	0.639415
H283	H	0.907893	0.524620	0.099585
H284	H	1.407893	1.024620	0.599585
C285	C	0.825294	0.945776	0.182229
C286	C	1.325294	1.445776	0.682229
C287	C	0.795706	0.914482	0.148676
C288	C	1.295706	1.414482	0.648676
C289	C	0.829068	0.887134	0.115189
C290	C	1.329068	1.387134	0.615189
H291	H	0.848067	0.924402	0.202187
H292	H	1.348067	1.424402	0.702187
H293	H	0.845218	0.969831	0.162307
H294	H	1.345218	1.469831	0.662307
H295	H	0.775791	0.890430	0.168595
H296	H	1.275791	1.390430	0.668595
H297	H	0.772934	0.935843	0.128706
H298	H	1.272934	1.435843	0.628706
H299	H	0.848991	0.911188	0.095267
H300	H	1.348991	1.411188	0.595267
H301	H	0.851839	0.865762	0.135152
H302	H	1.351839	1.365762	0.635152
H303	H	0.808997	0.865901	0.092416
H304	H	1.308997	1.365901	0.592416
H305	H	0.054168	0.191310	0.312732
H306	H	0.554168	0.691310	0.812732
C307	C	0.858723	0.148528	0.809176
C308	C	1.358723	0.648528	1.309176
C309	C	0.829156	0.114993	0.840514
C310	C	1.329156	0.614993	1.340514
C311	C	0.862537	0.081469	0.867841
C312	C	1.362537	0.581469	1.367841
H313	H	0.881506	0.168460	0.830519
H314	H	1.381506	0.668460	1.330519
H315	H	0.878635	0.128594	0.785109
H316	H	1.378635	0.628594	1.285109
H317	H	0.809253	0.134924	0.864578
H318	H	1.309253	0.634924	1.364578
H319	H	0.806374	0.095049	0.819184
H320	H	1.306374	0.595049	1.319184
H321	H	0.882449	0.061536	0.843774
H322	H	1.382449	0.561536	1.343774
H323	H	0.885319	0.101406	0.889181
H324	H	1.385319	0.601406	1.389181
H325	H	0.842480	0.058709	0.889103
H326	H	1.342480	0.558709	1.389103
C327	C	0.449832	0.321445	0.182023
C328	C	0.949832	0.821445	0.682023
C329	C	0.418490	0.291790	0.148572
C330	C	0.918490	0.791790	0.648572
C331	C	0.391079	0.325086	0.115035
C332	C	0.891079	0.825086	0.615035
H333	H	0.473834	0.341341	0.162024
H334	H	0.973834	0.841341	0.662024
H335	H	0.428488	0.344247	0.201965
H336	H	0.928488	0.844247	0.701965
H337	H	0.439832	0.268996	0.128631
H338	H	0.939832	0.768996	0.628631
H339	H	0.394479	0.271895	0.168557
H340	H	0.894479	0.771895	0.668557
H341	H	0.369735	0.347888	0.134978
H342	H	0.869735	0.847888	0.634978
H343	H	0.415084	0.344980	0.095040
H344	H	0.915084	0.844980	0.595040
H345	H	0.369807	0.304970	0.092338
H346	H	0.869807	0.804970	0.592338
C347	C	0.858783	0.694545	0.148950
C348	C	1.358783	1.194545	0.648950
C349	C	0.892256	0.663141	0.178583
C350	C	1.392256	1.163141	0.678583
C351	C	0.925749	0.635747	0.145266
C352	C	1.425749	1.135747	0.645266
H353	H	0.878768	0.718557	0.129050
H354	H	1.378768	1.218557	0.629050
H355	H	0.838810	0.673245	0.126153
H356	H	1.338810	1.173245	0.626153
H357	H	0.912228	0.684440	0.201371
H358	H	1.412228	1.184440	0.701371
H359	H	0.872286	0.639120	0.198482
H360	H	1.372286	1.139120	0.698482
H361	H	0.905776	0.614446	0.122468
H362	H	1.405776	1.114446	0.622468
H363	H	0.945730	0.659762	0.125367
H364	H	1.445730	1.159762	0.625367
H365	H	0.948461	0.614432	0.165366
H366	H	1.448461	1.114432	0.665366
H367	H	0.816288	0.191071	0.953853
H368	H	1.316288	0.691071	1.453853
H369	H	0.816221	0.191207	0.451507
H370	H	1.316221	0.691207	0.951507
H371	H	0.661376	0.801192	0.345978
H372	H	1.161376	1.301192	0.845978
C373	C	0.858812	0.148564	0.695374
C374	C	1.358812	0.648564	1.195374
C375	C	0.888106	0.119267	0.730985
C376	C	1.388106	0.619267	1.230985
C377	C	0.921589	0.085760	0.703803
C378	C	1.421589	0.585760	1.203803
H379	H	0.881626	0.168506	0.674072
H380	H	1.381626	0.668506	1.174072
H381	H	0.838837	0.125758	0.674086
H382	H	1.338837	0.625758	1.174086
H383	H	0.908080	0.142070	0.752265
H384	H	1.408080	0.642070	1.252265
H385	H	0.865307	0.099314	0.752289
H386	H	1.365307	0.599314	1.252289
H387	H	0.901614	0.062954	0.682514
H388	H	1.401614	0.562954	1.182514
H389	H	0.944399	0.105707	0.682501
H390	H	1.444399	0.605707	1.182501
H391	H	0.941466	0.065875	0.727961
H392	H	1.441466	0.565875	1.227961
C393	C	-0.052203	0.182228	0.321885
C394	C	0.447797	0.682228	0.821885
C395	C	-0.016581	0.152993	0.351230
C396	C	0.483419	0.652993	0.851230
C397	C	-0.043751	0.119581	0.384793
C398	C	0.456249	0.619581	0.884793
H399	H	-0.073496	0.159375	0.301982
H400	H	0.426504	0.659375	0.801982
H401	H	-0.073500	0.202251	0.344659
H402	H	0.426500	0.702251	0.844659
H403	H	0.004707	0.132971	0.328459
H404	H	0.504707	0.632971	0.828459
H405	H	0.004714	0.175833	0.371144
H406	H	0.504714	0.675833	0.871144
H407	H	-0.065047	0.139604	0.407566
H408	H	0.434953	0.639604	0.907566
H409	H	-0.065043	0.096731	0.364885
H410	H	0.434957	0.596731	0.864885
H411	H	-0.019585	0.099744	0.404711
H412	H	0.480415	0.599744	0.904711
H413	H	0.694738	0.550017	0.312538
H414	H	1.194738	1.050017	0.812538
C415	C	0.685668	0.321602	0.557860
C416	C	1.185668	0.821602	1.057860
C417	C	0.656353	0.350885	0.522255
C418	C	1.156353	0.850885	1.022255
C419	C	0.622822	0.384338	0.549445
C420	C	1.122822	0.884338	1.049445
H421	H	0.705594	0.344423	0.579168
H422	H	1.205594	0.844423	1.079168
H423	H	0.662875	0.301606	0.579144
H424	H	1.162875	0.801606	1.079144
H425	H	0.679144	0.370880	0.500980
H426	H	1.179144	0.870880	1.000980
H427	H	0.636417	0.328078	0.500947
H428	H	1.136417	0.828078	1.000947
H429	H	0.600029	0.364342	0.570729
H430	H	1.100029	0.864342	1.070729
H431	H	0.642752	0.407156	0.570752
H432	H	1.142752	0.907156	1.070752
H433	H	0.602925	0.404207	0.525291
H434	H	1.102925	0.904207	1.025291
C435	C	0.825358	1.059686	0.182241
C436	C	1.325358	1.559686	0.682241
C437	C	0.814021	1.046481	0.130483
C438	C	1.314021	1.546481	0.630483
C439	C	0.847424	1.073771	0.097013
C440	C	1.347424	1.573771	0.597013
H441	H	0.860499	1.050728	0.189864
H442	H	1.360499	1.550728	0.689864
H443	H	0.820559	1.096119	0.187017
H444	H	1.320559	1.596119	0.687017
H445	H	0.818825	1.010057	0.125710
H446	H	1.318825	1.510057	0.625710
H447	H	0.778887	1.055441	0.122844
H448	H	1.278887	1.555441	0.622844
H449	H	0.842625	1.110204	0.101789
H450	H	1.342625	1.610204	0.601789
H451	H	0.882563	1.064811	0.104640
H452	H	1.382563	1.564811	0.604640
H453	H	0.839734	1.064819	0.061892
H454	H	1.339734	1.564819	0.561892
C455	C	0.825467	0.182033	1.060304
C456	C	1.325467	0.682033	1.560304
C457	C	0.877191	0.193425	1.047046
C458	C	1.377191	0.693425	1.547046
C459	C	0.910750	0.160050	1.074338
C460	C	1.410750	0.660050	1.574338
H461	H	0.817907	0.146886	1.051382
H462	H	1.317907	0.646886	1.551382
H463	H	0.820709	0.186821	1.096737
H464	H	1.320709	0.686821	1.596737
H465	H	0.881947	0.188633	1.010622
H466	H	1.381947	0.688633	1.510622
H467	H	0.884766	0.228565	1.055970
H468	H	1.384766	0.728565	1.555970
H469	H	0.905992	0.164838	1.110771
H470	H	1.405992	0.664838	1.610771
H471	H	0.903186	0.124906	1.065414
H472	H	1.403186	0.624906	1.565414
H473	H	0.945849	0.167778	1.065350
H474	H	1.445849	0.667778	1.565350
C475	C	0.563883	0.321469	0.182064
C476	C	1.063883	0.821469	0.682064
C477	C	0.617552	0.314308	0.189224
C478	C	1.117552	0.814308	0.689224
C479	C	0.644931	0.347627	0.155738
C480	C	1.144931	0.847627	0.655738
H481	H	0.554979	0.356633	0.189614
H482	H	1.054979	0.856633	0.689614
H483	H	0.554959	0.313756	0.146938
H484	H	1.054959	0.813756	0.646938
H485	H	0.626472	0.322024	0.224342
H486	H	1.126472	0.822024	0.724342
H487	H	0.626471	0.279150	0.181670
H488	H	1.126471	0.779150	0.681670
H489	H	0.636007	0.339914	0.120612
H490	H	1.136007	0.839914	0.620612
H491	H	0.636023	0.382789	0.163291
H492	H	1.136023	0.882789	0.663291
H493	H	0.681348	0.342769	0.160588
H494	H	1.181348	0.842769	0.660588
C495	C	0.652369	0.355009	0.809121
C496	C	1.152369	0.855009	1.309121
C497	C	0.681947	0.388531	0.840457
C498	C	1.181947	0.888531	1.340457
C499	C	0.648576	0.422047	0.867765
C500	C	1.148576	0.922047	1.367765
H501	H	0.629590	0.335071	0.830464
H502	H	1.129590	0.835071	1.330464
H503	H	0.632451	0.374952	0.785042
H504	H	1.132451	0.874952	1.285042
H505	H	0.701856	0.368591	0.864532
H506	H	1.201856	0.868591	1.364532
H507	H	0.704724	0.408481	0.819127
H508	H	1.204724	0.908481	1.319127
H509	H	0.628658	0.441990	0.843686
H510	H	1.128658	0.941990	1.343686
H511	H	0.625799	0.402104	0.889105
H512	H	1.125799	0.902104	1.389105
H513	H	0.668639	0.444799	0.889025
H514	H	1.168639	0.944799	1.389025
H515	H	0.694798	0.312531	0.451475
H516	H	1.194798	0.812531	0.951475
H517	H	0.305373	0.157922	0.346208
H518	H	0.805373	0.657922	0.846208
C519	C	0.563965	0.182341	0.321850
C520	C	1.063965	0.682341	0.821850
C521	C	0.595291	0.211994	0.355317
C522	C	1.095291	0.711994	0.855317
C523	C	0.622656	0.178698	0.388892
C524	C	1.122656	0.678698	0.888892
H525	H	0.585319	0.159519	0.301952
H526	H	1.085319	0.659519	0.801952
H527	H	0.539920	0.162466	0.341830
H528	H	1.039920	0.662466	0.841830
H529	H	0.619333	0.231860	0.335339
H530	H	1.119333	0.731860	0.835339
H531	H	0.573950	0.234814	0.375227
H532	H	1.073950	0.734814	0.875227
H533	H	0.598611	0.158823	0.408872
H534	H	1.098611	0.658823	0.908872
H535	H	0.644007	0.155878	0.368990
H536	H	1.144007	0.655878	0.868990
H537	H	0.643910	0.198813	0.411607
H538	H	1.143910	0.698813	0.911607
C539	C	0.199019	0.148840	0.355366
C540	C	0.699019	0.648840	0.855366
C541	C	0.234657	0.119616	0.384704
C542	C	0.734657	0.619616	0.884704
C543	C	0.207504	0.086205	0.418282
C544	C	0.707504	0.586205	0.918282
H545	H	0.177723	0.125979	0.335474
H546	H	0.677723	0.625979	0.835474
H547	H	0.177727	0.168864	0.378143
H548	H	0.677727	0.668864	0.878143
H549	H	0.255940	0.099594	0.361929
H550	H	0.755940	0.599594	0.861929
H551	H	0.255954	0.142463	0.404606
H552	H	0.755954	0.642463	0.904606
H553	H	0.186212	0.106229	0.441059
H554	H	0.686212	0.606229	0.941059
H555	H	0.186208	0.063348	0.398386
H556	H	0.686208	0.563348	0.898386
H557	H	0.231679	0.066376	0.438195
H558	H	0.731679	0.566376	0.938195
H559	H	0.206133	0.345840	0.157652
H560	H	0.706133	0.845840	0.657652
C561	C	0.685740	0.321476	1.060197
C562	C	1.185740	0.821476	1.560197
C563	C	0.656425	0.350755	1.024588
C564	C	1.156425	0.850755	1.524588
C565	C	0.622894	0.384211	1.051773
C566	C	1.122894	0.884211	1.551773
H567	H	0.705665	0.344300	1.081501
H568	H	1.205665	0.844300	1.581501
H569	H	0.662946	0.301482	1.081483
H570	H	1.162946	0.801482	1.581483
H571	H	0.679216	0.370747	1.003310
H572	H	1.179216	0.870747	1.503310
H573	H	0.636489	0.327945	1.003282
H574	H	1.136489	0.827945	1.503282
H575	H	0.600101	0.364217	1.073060
H576	H	1.100101	0.864217	1.573060
H577	H	0.642824	0.407031	1.073077
H578	H	1.142824	0.907031	1.573077
H579	H	0.602997	0.404077	1.027617
H580	H	1.102997	0.904077	1.527617
C581	C	0.685712	0.321396	0.946389
C582	C	1.185712	0.821396	1.446389
C583	C	0.652203	0.291806	0.915049
C584	C	1.152203	0.791806	1.415049
C585	C	0.618660	0.325163	0.887717
C586	C	1.118660	0.825163	1.387717
H587	H	0.705631	0.344194	0.925047
H588	H	1.205631	0.844194	1.425047
H589	H	0.665761	0.341293	0.970453
H590	H	1.165761	0.841293	1.470453
H591	H	0.672152	0.271918	0.890987
H592	H	1.172152	0.771918	1.390987
H593	H	0.632273	0.269009	0.936378
H594	H	1.132273	0.769009	1.436378
H595	H	0.598709	0.345060	0.911782
H596	H	1.098709	0.845060	1.411782
H597	H	0.638583	0.347960	0.866378
H598	H	1.138583	0.847960	1.366378
H599	H	0.595917	0.305091	0.866454
H600	H	1.095917	0.805091	1.366454
C601	C	0.652254	0.355027	0.695316
C602	C	1.152254	0.855027	1.195316
C603	C	0.622966	0.384309	0.730910
C604	C	1.122966	0.884309	1.230910
C605	C	0.589482	0.417830	0.703707
C606	C	1.089482	0.917830	1.203707
H607	H	0.629437	0.335097	0.674007
H608	H	1.129437	0.835097	1.174007
H609	H	0.672228	0.377842	0.674033
H610	H	1.172228	0.877842	1.174033
H611	H	0.602994	0.361496	0.752184
H612	H	1.102994	0.861496	1.252184
H613	H	0.645769	0.404250	0.752220
H614	H	1.145769	0.904250	1.252220
H615	H	0.609456	0.440646	0.682423
H616	H	1.109456	0.940646	1.182423
H617	H	0.566668	0.397896	0.682399
H618	H	1.066668	0.897896	1.182399
H619	H	0.569610	0.437705	0.727853
H620	H	1.069610	0.937705	1.227853
H621	H	0.816111	0.450876	0.191304
H622	H	1.316111	0.950876	0.691304
H623	H	0.661350	0.702142	0.345971
H624	H	1.161350	1.202142	0.845971
H625	H	0.694912	1.052354	0.312583
H626	H	1.194912	1.552354	0.812583
C627	C	0.858811	0.808390	0.148817
C628	C	1.358811	1.308390	0.648817
C629	C	0.888086	0.772765	0.119554
C630	C	1.388086	1.272765	0.619554
C631	C	0.921579	0.799932	0.086074
C632	C	1.421579	1.299932	0.586074
H633	H	0.881636	0.829662	0.168777
H634	H	1.381636	1.329662	0.668777
H635	H	0.838845	0.829707	0.125988
H636	H	1.338845	1.329707	0.625988
H637	H	0.908051	0.751457	0.142380
H638	H	1.408051	1.251457	0.642380
H639	H	0.865275	0.751492	0.099584
H640	H	1.365275	1.251492	0.599584
H641	H	0.901613	0.821250	0.063245
H642	H	1.401613	1.321250	0.563245
H643	H	0.944401	0.821204	0.106037
H644	H	1.444401	1.321204	0.606037
H645	H	0.941443	0.775765	0.066212
H646	H	1.441443	1.275765	0.566212
C647	C	0.685739	0.945992	0.321666
C648	C	1.185739	1.445992	0.821666
C649	C	0.656441	0.981614	0.350909
C650	C	1.156441	1.481614	0.850909
C651	C	0.622898	0.954443	0.384337
C652	C	1.122898	1.454443	0.884337
H653	H	0.705655	0.924659	0.344513
H654	H	1.205655	1.424659	0.844513
H655	H	0.662935	0.924736	0.301654
H656	H	1.162935	1.424736	0.801654
H657	H	0.679242	1.002861	0.370920
H658	H	1.179242	1.502861	0.870920
H659	H	0.636514	1.002948	0.328075
H660	H	1.136514	1.502948	0.828075
H661	H	0.600094	0.933187	0.364325
H662	H	1.100094	1.433187	0.864325
H663	H	0.642818	0.933111	0.407182
H664	H	1.142818	1.433111	0.907182
H665	H	0.603012	0.978608	0.404179
H666	H	1.103012	1.478608	0.904179
H667	H	0.694699	0.450951	0.312518
H668	H	1.194699	0.950951	0.812518
C669	C	0.825374	0.182075	0.557877
C670	C	1.325374	0.682075	1.057877
C671	C	0.854681	0.152818	0.522279
C672	C	1.354681	0.652818	1.022279
C673	C	0.888222	0.119350	0.549477
C674	C	1.388222	0.619350	1.049477
H675	H	0.805457	0.159238	0.579179
H676	H	1.305457	0.659238	1.079179
H677	H	0.848172	0.202059	0.579168
H678	H	1.348172	0.702059	1.079168
H679	H	0.831886	0.132836	0.500998
H680	H	1.331886	0.632836	1.000998
H681	H	0.874610	0.175642	0.500977
H682	H	1.374610	0.675642	1.000977
H683	H	0.911021	0.139333	0.570768
H684	H	1.411021	0.639333	1.070768
H685	H	0.868301	0.096516	0.570778
H686	H	1.368301	0.596516	1.070778
H687	H	0.908115	0.099499	0.525329
H688	H	1.408115	0.599499	1.025329
