data_functionalizedCrystal
_audit_creation_method	'MofGen! by Chris Wilmer'
_symmetry_space_group_name_H-M	'P1'
_symmetry_Int_Tables_number	1
_symmetry_cell_setting	triclinic
loop_
_symmetry_equiv_pos_as_xyz
  x,y,z
_cell_length_a	10.654550
_cell_length_b	17.699083
_cell_length_c	9.130313
_cell_angle_alpha	89.997869
_cell_angle_beta	89.996220
_cell_angle_gamma	83.883958
loop_
_atom_site_label
_atom_site_type_symbol
_atom_site_fract_x
_atom_site_fract_y
_atom_site_fract_z
O1	O	1.665973	0.106299	-0.121923
O2	O	1.300318	0.116427	-0.121900
O3	O	1.493476	0.001240	-0.121899
O4	O	1.472815	0.221487	-0.121924
O5	O	1.493474	0.001243	0.121700
O6	O	1.300315	0.116430	0.121699
O7	O	1.665971	0.106302	0.121676
Cu8	Cu	1.483143	0.111366	0.143930
Cu9	Cu	1.483146	0.111363	-0.144154
O10	O	1.472812	0.221490	0.121675
C11	C	1.253531	0.115685	-0.000097
C12	C	1.114127	0.113460	-0.000088
C13	C	1.492735	-0.026961	-0.000099
C14	C	1.490514	-0.110993	-0.000099
C15	C	1.033454	0.181281	-0.000117
C16	C	0.902470	0.179185	-0.000142
C17	C	0.932845	0.041443	-0.000115
C18	C	1.063826	0.043539	-0.000080
C19	C	1.015917	0.260805	-0.000139
C20	C	0.884933	0.258710	-0.000164
C21	C	1.603894	-0.158893	-0.000104
C22	C	1.601799	-0.237850	-0.000117
C23	C	1.486324	-0.268905	-0.000114
C24	C	1.372935	-0.220998	-0.000113
C25	C	1.375031	-0.142043	-0.000111
C26	C	1.364481	-0.539415	-0.000124
C27	C	1.362394	-0.618376	-0.000122
C28	C	1.591249	-0.635222	-0.000130
C29	C	1.593345	-0.556266	-0.000128
C30	C	1.479957	-0.508367	-0.000135
C31	C	1.482229	-0.422753	-0.000124
C32	C	1.484050	-0.354517	-0.000114
C33	C	1.712757	0.107044	-0.000130
C34	C	1.852161	0.109269	-0.000149
C35	C	1.473554	0.249690	-0.000128
C36	C	1.475775	0.333722	-0.000138
N37	N	1.483150	0.111369	0.346553
N38	N	1.483149	0.111355	-0.346777
C39	C	1.568702	0.060381	0.423205
C40	C	1.568699	0.060372	0.576542
C41	C	1.397587	0.162345	0.576561
C42	C	1.397585	0.162349	0.423226
C43	C	1.667496	0.001510	0.423195
C44	C	1.667493	0.001501	0.576532
H45	H	1.129507	-0.011687	-0.000035
H46	H	1.327922	0.203851	0.639005
H47	H	0.842677	0.288672	-0.102121
C48	C	1.726520	-0.290540	-0.000122
C49	C	1.853540	-0.256382	-0.000115
C50	C	1.978267	-0.309073	-0.000126
C51	C	1.975972	-0.395921	-0.000144
C52	C	1.848947	-0.430083	-0.000150
C53	C	1.724220	-0.377393	-0.000140
H54	H	1.855243	-0.192088	-0.000102
H55	H	2.072299	-0.283783	-0.000121
H56	H	2.068302	-0.434926	-0.000152
H57	H	1.847244	-0.494378	-0.000164
H58	H	1.630188	-0.402683	-0.000145
C59	C	1.303470	0.218430	0.338902
C60	C	1.209418	0.274545	0.423237
C61	C	1.115298	0.330627	0.338911
C62	C	1.115230	0.330593	0.170249
C63	C	1.209285	0.274476	0.085905
C64	C	1.303405	0.218394	0.170232
H65	H	1.209465	0.274572	0.548099
H66	H	1.045671	0.372169	0.401349
H67	H	1.045556	0.372108	0.107826
H68	H	1.209238	0.274449	-0.038957
H69	H	1.373032	0.176852	0.107793
C70	C	1.627609	-0.072765	0.640812
C71	C	1.510688	-0.070603	0.740496
C72	C	1.470815	-0.144867	0.804788
C73	C	1.547863	-0.221292	0.769397
C74	C	1.664791	-0.223457	0.669709
C75	C	1.704664	-0.149193	0.605416
H76	H	1.453645	-0.014026	0.766699
H77	H	1.384256	-0.143264	0.878585
H78	H	1.518347	-0.276266	0.816991
H79	H	1.721834	-0.280034	0.643506
H80	H	1.791223	-0.150796	0.531620
C81	C	1.639896	-0.077073	0.366965
C82	C	1.737108	-0.124321	0.269992
C83	C	1.709507	-0.202901	0.213762
C84	C	1.584694	-0.234233	0.254504
C85	C	1.487474	-0.186984	0.351482
C86	C	1.515075	-0.108404	0.407712
H87	H	1.829510	-0.101128	0.239828
H88	H	1.781477	-0.237878	0.141972
H89	H	1.564262	-0.292403	0.212879
H90	H	1.395072	-0.210177	0.381646
H91	H	1.443105	-0.073427	0.479502
H92	H	1.697927	-0.133615	-0.000097
H93	H	1.758357	0.019943	0.375629
C94	C	0.822649	0.291182	0.141896
C95	C	0.678784	0.293669	0.162194
C96	C	0.616498	0.326140	0.304250
C97	C	0.698077	0.356122	0.426008
C98	C	0.841950	0.353635	0.405714
C99	C	0.904236	0.321165	0.263658
H100	H	0.618387	0.271474	0.072059
H101	H	0.509993	0.327980	0.319273
H102	H	0.651969	0.380158	0.531167
H103	H	0.902347	0.375831	0.495850
H104	H	1.010741	0.319324	0.248636
C105	C	1.063494	0.295015	-0.142216
C106	C	1.041489	0.257368	-0.290744
C107	C	1.089065	0.291575	-0.432825
C108	C	1.158646	0.363430	-0.426377
C109	C	1.180654	0.401082	-0.277844
C110	C	1.133078	0.366875	-0.135763
H111	H	0.989978	0.204172	-0.295522
H112	H	1.072772	0.263702	-0.542779
H113	H	1.193864	0.388753	-0.531554
H114	H	1.232165	0.454277	-0.273066
H115	H	1.149371	0.394747	-0.025808
H116	H	1.763777	0.014469	0.618141
H117	H	0.891873	-0.015484	-0.000131
H118	H	1.683575	-0.674231	-0.000132
H119	H	1.044703	0.291908	0.101809
H120	H	1.687377	-0.530986	-0.000123
H121	H	1.268354	-0.643658	-0.000117
H122	H	1.272153	-0.500424	-0.000130
H123	H	1.278912	-0.246289	-0.000120
H124	H	1.282705	-0.103043	-0.000107
