data_functionalizedCrystal
_audit_creation_method	'MofGen! by Chris Wilmer'
_symmetry_space_group_name_H-M	'P1'
_symmetry_Int_Tables_number	1
_symmetry_cell_setting	triclinic
loop_
_symmetry_equiv_pos_as_xyz
  x,y,z
_cell_length_a	10.723024
_cell_length_b	15.944551
_cell_length_c	9.798715
_cell_angle_alpha	89.995900
_cell_angle_beta	89.996609
_cell_angle_gamma	83.983304
loop_
_atom_site_label
_atom_site_type_symbol
_atom_site_fract_x
_atom_site_fract_y
_atom_site_fract_z
O1	O	1.655699	0.117808	-0.113485
O2	O	1.292404	0.129085	-0.113490
O3	O	1.483972	0.001228	-0.113475
O4	O	1.464131	0.245664	-0.113500
O5	O	1.483958	0.001228	0.113507
O6	O	1.292390	0.129084	0.113492
O7	O	1.655685	0.117808	0.113497
Zn8	Zn	1.474035	0.123446	0.149533
Zn9	Zn	1.474054	0.123446	-0.149526
O10	O	1.464116	0.245664	0.113482
C11	C	1.245908	0.128264	0.000000
C12	C	1.107384	0.125809	-0.000001
C13	C	1.031498	0.197350	-0.000009
C14	C	0.888327	0.194814	-0.000011
C15	C	1.483141	-0.030070	0.000016
C16	C	1.480672	-0.123331	0.000017
C17	C	1.356026	-0.338901	-0.000004
C18	C	1.413901	-0.399587	0.111913
C19	C	1.476205	-0.294082	0.000006
C20	C	1.413943	-0.399570	-0.111874
C21	C	1.471880	-0.459020	-0.000010
C22	C	1.534112	-0.353540	0.112015
C23	C	1.534137	-0.353517	-0.111872
C24	C	1.592099	-0.414184	0.000072
C25	C	1.478692	-0.199066	0.000016
C26	C	1.469402	-0.554035	-0.000011
C27	C	1.702181	0.118629	0.000003
C28	C	1.840704	0.121084	-0.000004
C29	C	1.464947	0.276963	-0.000012
C30	C	1.467417	0.370223	-0.000022
N31	N	1.474031	0.123445	0.353632
N32	N	1.474067	0.123441	-0.353626
C33	C	1.554469	0.069525	0.421415
C34	C	1.554489	0.069522	0.578578
H35	H	0.823120	0.256060	-0.000024
O36	O	0.918604	0.048067	-0.000179
C37	C	0.994760	0.044882	-0.117753
H38	H	1.001224	0.111606	-0.156953
H39	H	0.952018	0.006232	-0.200066
C40	C	1.119013	-0.078469	-0.033896
C41	C	1.126962	0.003483	-0.082035
H42	H	1.200560	-0.104009	-0.011867
H43	H	1.067704	-0.076326	0.045314
H44	H	1.083390	-0.110667	-0.102498
H45	H	1.162570	0.035682	-0.013428
H46	H	1.178281	0.001344	-0.161233
H47	H	1.584893	-0.333259	0.206736
O48	O	1.080220	0.272737	0.000042
C49	C	0.981863	0.338764	-0.000004
H50	H	0.893380	0.314793	0.042970
H51	H	0.963501	0.362032	-0.108903
C52	C	1.127429	0.441278	0.036220
C53	C	1.018756	0.411839	0.089012
H54	H	1.150187	0.486356	0.091123
H55	H	1.193696	0.396795	0.036246
H56	H	1.112113	0.460662	-0.054528
H57	H	1.034078	0.392446	0.179751
H58	H	0.952493	0.456320	0.089003
O59	O	1.058515	0.050474	0.000245
C60	C	1.099299	0.004497	0.117786
H61	H	1.126467	0.049822	0.199950
H62	H	1.184041	-0.041891	0.091211
C63	C	0.959307	-0.099958	0.070177
C64	C	0.992666	-0.044288	0.171096
H65	H	0.893535	-0.130054	0.103059
H66	H	0.931833	-0.068984	-0.009015
H67	H	1.029935	-0.138606	0.048040
H68	H	0.922043	-0.005634	0.193219
H69	H	1.020126	-0.075256	0.250294
H70	H	1.623316	0.023361	0.363098
O71	O	1.594552	-0.329170	-0.224888
C72	C	1.530888	-0.352389	-0.342658
H73	H	1.429154	-0.359737	-0.315845
H74	H	1.578087	-0.414759	-0.383489
C75	C	1.659966	-0.274551	-0.485296
C76	C	1.535011	-0.283569	-0.452367
H77	H	1.662513	-0.232102	-0.552973
H78	H	1.702861	-0.258910	-0.405953
H79	H	1.699284	-0.326531	-0.519314
H80	H	1.495700	-0.231593	-0.418333
H81	H	1.492109	-0.299199	-0.531706
H82	H	1.623359	0.023362	0.636869
O83	O	1.236945	-0.299976	0.000183
C84	C	1.151170	-0.361218	0.001446
H85	H	1.198778	-0.422731	0.044983
H86	H	1.118386	-0.372306	-0.107124
C87	C	0.978973	-0.254494	0.037199
C88	C	1.037444	-0.330043	0.090684
H89	H	0.908818	-0.235264	0.092239
H90	H	1.036760	-0.213234	0.036343
H91	H	0.951664	-0.263744	-0.053275
H92	H	1.064765	-0.320790	0.181148
H93	H	0.979658	-0.371302	0.091557
H94	H	1.405176	0.169603	0.411951
H95	H	1.691940	-0.446772	0.000137
O96	O	1.353125	-0.423767	-0.224712
C97	C	1.228705	-0.385085	-0.224266
H98	H	1.222720	-0.325721	-0.158746
H99	H	1.163984	-0.430707	-0.180588
C100	C	1.195657	-0.434305	-0.451758
C101	C	1.188308	-0.361389	-0.371295
H102	H	1.170734	-0.419692	-0.542452
H103	H	1.279480	-0.460369	-0.452058
H104	H	1.141723	-0.472317	-0.415344
H105	H	1.242253	-0.323384	-0.407700
H106	H	1.104493	-0.335318	-0.371005
H107	H	1.363064	-0.419986	0.206528
O108	O	1.392075	0.178555	0.576704
C109	C	1.459199	0.230614	0.494061
H110	H	1.556744	0.197574	0.472776
H111	H	1.467897	0.292742	0.549042
C112	C	1.269200	0.288768	0.384409
C113	C	1.389002	0.248184	0.358258
H114	H	1.225897	0.299610	0.300642
H115	H	1.223975	0.253697	0.440091
H116	H	1.276465	0.340537	0.430230
H117	H	1.381736	0.196412	0.312453
H118	H	1.434224	0.283247	0.302565
