data_functionalizedCrystal
_audit_creation_method	'MofGen! by Chris Wilmer'
_symmetry_space_group_name_H-M	'P1'
_symmetry_Int_Tables_number	1
_symmetry_cell_setting	triclinic
loop_
_symmetry_equiv_pos_as_xyz
  x,y,z
_cell_length_a	19.288864
_cell_length_b	12.784905
_cell_length_c	18.366186
_cell_angle_alpha	89.994468
_cell_angle_beta	89.977106
_cell_angle_gamma	78.121783
loop_
_atom_site_label
_atom_site_type_symbol
_atom_site_fract_x
_atom_site_fract_y
_atom_site_fract_z
O1	O	0.913613	0.132632	-0.060779
O2	O	0.710309	0.150524	-0.060728
O3	O	0.826838	-0.013221	-0.060755
O4	O	0.797084	0.296376	-0.060752
O5	O	0.826821	-0.013229	0.060344
O6	O	0.710291	0.150516	0.060371
O7	O	0.913596	0.132624	0.060321
Zn8	Zn	0.811941	0.141568	0.079573
Zn9	Zn	0.811964	0.141579	-0.079981
O10	O	0.797066	0.296368	0.060347
C11	C	0.684457	0.149944	-0.000172
C12	C	0.607454	0.148216	-0.000153
C13	C	0.557152	0.244294	-0.000164
C14	C	0.484799	0.242670	-0.000172
C15	C	0.462753	0.144963	-0.000184
C16	C	0.513066	0.048873	-0.000170
C17	C	0.585417	0.050499	-0.000154
C18	C	0.358979	0.068157	-0.042636
C19	C	0.286629	0.066535	-0.042656
C20	C	0.239600	0.139943	-0.000228
C21	C	0.264928	0.214991	0.042210
C22	C	0.337278	0.216618	0.042225
C23	C	0.384303	0.143189	-0.000200
C24	C	0.110844	0.234267	-0.000246
C25	C	0.038491	0.232639	-0.000250
C26	C	0.066760	0.038839	-0.000255
C27	C	0.139111	0.040470	-0.000244
C28	C	0.161149	0.138186	-0.000243
C29	C	0.828765	-0.052834	-0.000207
C30	C	0.834523	-0.170855	-0.000212
C31	C	0.717213	-0.366677	-0.000175
C32	C	0.722619	-0.477568	-0.000180
C33	C	0.850742	-0.503529	-0.000219
C34	C	0.845335	-0.392639	-0.000215
C35	C	0.778568	-0.324216	-0.000194
C36	C	0.773162	-0.213323	-0.000195
C37	C	0.901284	-0.239286	-0.000229
C38	C	0.906691	-0.350177	-0.000234
C39	C	0.939447	0.133203	-0.000237
C40	C	1.016450	0.134932	-0.000261
C41	C	0.795140	0.335981	-0.000202
C42	C	0.789382	0.454002	-0.000203
N43	N	0.811930	0.141561	0.188464
N44	N	0.811981	0.141578	-0.188872
C45	C	0.863542	0.069090	0.226552
C46	C	0.863547	0.069085	0.302780
C47	C	0.811945	0.141569	0.340917
C48	C	0.760323	0.214045	0.302819
C49	C	0.760315	0.214041	0.226593
C50	C	0.796994	0.238443	0.461679
C51	C	0.797006	0.238449	0.537904
C52	C	0.811964	0.141583	0.576024
C53	C	0.826924	0.044706	0.537910
C54	C	0.826917	0.044702	0.461683
C55	C	0.811947	0.141582	0.423571
C56	C	0.863584	0.069101	0.696768
C57	C	0.863584	0.069095	0.772997
C58	C	0.760363	0.214064	0.773034
C59	C	0.760360	0.214061	0.696806
C60	C	0.811974	0.141581	0.658678
H61	H	0.226637	0.274767	0.076759
H62	H	0.266014	0.005431	-0.077214
H63	H	-0.002466	0.310881	-0.000254
C64	C	0.606090	-0.141225	-0.000163
C65	C	0.640715	-0.055118	-0.000151
H66	H	0.640232	-0.206428	-0.000167
H67	H	0.577265	-0.137836	0.042061
H68	H	0.577301	-0.137818	-0.042399
H69	H	0.669501	-0.058521	0.042088
H70	H	0.669553	-0.058509	-0.042380
H71	H	0.495112	-0.030681	-0.000190
C72	C	0.373160	-0.078729	-0.126546
C73	C	0.410669	-0.012530	-0.089285
H74	H	0.405071	-0.128533	-0.155348
H75	H	0.350290	-0.116131	-0.092442
H76	H	0.338690	-0.036416	-0.157129
H77	H	0.445137	-0.054843	-0.058698
H78	H	0.433551	0.024874	-0.123393
H79	H	0.718306	0.273062	0.333873
C80	C	0.622095	0.358554	0.062083
C81	C	0.581386	0.351694	-0.000171
H82	H	0.637063	0.424854	0.062071
H83	H	0.594434	0.353918	0.104303
H84	H	0.662405	0.301551	0.062087
H85	H	0.541074	0.408693	-0.000173
H86	H	0.609048	0.356341	-0.042402
H87	H	0.718797	-0.157614	-0.000180
H88	H	0.905100	-0.559257	-0.000227
H89	H	0.662848	-0.310966	-0.000164
H90	H	0.905578	0.010069	0.333798
H91	H	0.961050	-0.405901	-0.000248
H92	H	0.672657	-0.512135	-0.000161
H93	H	0.718285	0.273056	0.195580
C94	C	0.949891	-0.080829	-0.000244
C95	C	0.968733	-0.192611	-0.000250
H96	H	0.991530	-0.052016	-0.000256
H97	H	0.922691	-0.057327	-0.042462
H98	H	0.922682	-0.057336	0.041998
H99	H	0.995937	-0.216105	-0.042496
H100	H	0.995944	-0.216123	0.041972
C101	C	0.159783	-0.151250	-0.000259
C102	C	0.194410	-0.065144	-0.000244
H103	H	0.193924	-0.216453	-0.000262
H104	H	0.130956	-0.147859	0.041963
H105	H	0.130996	-0.147841	-0.042497
H106	H	0.223193	-0.068548	0.041997
H107	H	0.223250	-0.068536	-0.042471
H108	H	0.905568	0.010070	0.195510
H109	H	0.839104	-0.034171	0.568945
C110	C	0.856480	-0.146806	0.469336
C111	C	0.843350	-0.061778	0.419787
H112	H	0.866618	-0.212542	0.443469
H113	H	0.895821	-0.141066	0.499041
H114	H	0.815897	-0.144483	0.499092
H115	H	0.883934	-0.064096	0.390034
H116	H	0.804005	-0.067520	0.390069
C117	C	0.965609	-0.074203	0.704384
C118	C	0.920310	-0.010579	0.654851
H119	H	1.000625	-0.123397	0.678506
H120	H	0.987926	-0.030045	0.734098
H121	H	0.938995	-0.112329	0.734134
H122	H	0.946923	0.027554	0.625105
H123	H	0.897991	-0.054742	0.625124
C124	C	0.887423	-0.075670	0.858712
C125	C	0.920322	-0.010575	0.814865
H126	H	0.922453	-0.124859	0.884555
H127	H	0.856696	-0.032509	0.892330
H128	H	0.860820	-0.113803	0.828983
H129	H	0.946921	0.027563	0.844594
H130	H	0.951062	-0.053742	0.781243
H131	H	0.718345	0.273078	0.804084
H132	H	0.784828	0.317331	0.568931
C133	C	0.075637	0.425665	-0.000234
C134	C	0.135074	0.341674	-0.000234
H135	H	0.090596	0.491972	-0.000222
H136	H	0.048029	0.421007	-0.042467
H137	H	0.047984	0.420986	0.041994
H138	H	0.162724	0.346349	-0.042465
H139	H	0.162694	0.346334	0.042002
C140	C	0.658340	0.357361	0.704502
C141	C	0.703632	0.293736	0.654934
H142	H	0.623319	0.406554	0.678651
H143	H	0.636027	0.313204	0.734247
H144	H	0.684957	0.395491	0.734218
H145	H	0.677015	0.255600	0.625223
H146	H	0.725946	0.337899	0.625177
H147	H	0.784801	0.317328	0.430649
H148	H	0.443835	0.320911	-0.000178
H149	H	0.357897	0.277721	0.076782
H150	H	0.048811	-0.040716	-0.000310
