data_functionalizedCrystal
_audit_creation_method	'MofGen! by Chris Wilmer'
_symmetry_space_group_name_H-M	'P1'
_symmetry_Int_Tables_number	1
_symmetry_cell_setting	triclinic
loop_
_symmetry_equiv_pos_as_xyz
  x,y,z
_cell_length_a	18.215405
_cell_length_b	18.215407
_cell_length_c	18.215399
_cell_angle_alpha	89.979405
_cell_angle_beta	90.030551
_cell_angle_gamma	89.975194
loop_
_atom_site_label
_atom_site_type_symbol
_atom_site_fract_x
_atom_site_fract_y
_atom_site_fract_z
Zn1	Zn	-0.292993	-1.125072	0.416118
Zn2	Zn	-0.042993	-0.875072	0.666118
Zn3	Zn	0.207007	-0.625072	0.916118
Zn4	Zn	0.457007	-0.375072	1.166118
Zn5	Zn	-0.416065	-1.124980	0.293046
Zn6	Zn	-0.166065	-0.874980	0.543046
Zn7	Zn	0.083935	-0.624980	0.793046
Zn8	Zn	0.333935	-0.374980	1.043046
Zn9	Zn	-0.293016	-1.002005	0.293063
Zn10	Zn	-0.043016	-0.752005	0.543063
Zn11	Zn	0.206984	-0.502005	0.793063
Zn12	Zn	0.456984	-0.252005	1.043063
Zn13	Zn	-0.416023	-1.001970	0.416069
Zn14	Zn	-0.166023	-0.751970	0.666069
Zn15	Zn	0.083977	-0.501970	0.916069
Zn16	Zn	0.333977	-0.251970	1.166069
O17	O	-0.354524	-1.063507	0.354574
O18	O	-0.104524	-0.813507	0.604574
O19	O	0.145476	-0.563507	0.854574
O20	O	0.395476	-0.313507	1.104574
O21	O	-0.309327	-1.228044	0.399805
O22	O	-0.059327	-0.978044	0.649805
O23	O	0.190673	-0.728044	0.899805
O24	O	0.440673	-0.478044	1.149805
O25	O	-0.399769	-1.108643	0.190064
O26	O	-0.149769	-0.858643	0.440064
O27	O	0.100231	-0.608643	0.690064
O28	O	0.350231	-0.358643	0.940064
O29	O	-0.190029	-1.018382	0.309414
O30	O	0.059971	-0.768382	0.559414
O31	O	0.309971	-0.518382	0.809414
O32	O	0.559971	-0.268382	1.059414
O33	O	-0.399747	-1.227977	0.309384
O34	O	-0.149747	-0.977977	0.559384
O35	O	0.100253	-0.727977	0.809384
O36	O	0.350253	-0.477977	1.059384
O37	O	-0.190012	-1.108799	0.399822
O38	O	0.059988	-0.858799	0.649822
O39	O	0.309988	-0.608799	0.899822
O40	O	0.559988	-0.358799	1.149822
O41	O	-0.309366	-1.018293	0.190077
O42	O	-0.059366	-0.768293	0.440077
O43	O	0.190634	-0.518293	0.690077
O44	O	0.440634	-0.268293	0.940077
O45	O	-0.309325	-0.899016	0.309367
O46	O	-0.059325	-0.649016	0.559367
O47	O	0.190675	-0.399016	0.809367
O48	O	0.440675	-0.149016	1.059367
O49	O	-0.399675	-1.018324	0.519060
O50	O	-0.149675	-0.768324	0.769060
O51	O	0.100325	-0.518324	1.019060
O52	O	0.350325	-0.268324	1.269060
O53	O	-0.399697	-0.898991	0.399739
O54	O	-0.149697	-0.648991	0.649739
O55	O	0.100303	-0.398991	0.899739
O56	O	0.350303	-0.148991	1.149739
O57	O	-0.309286	-1.108766	0.519095
O58	O	-0.059286	-0.858766	0.769095
O59	O	0.190714	-0.608766	1.019095
O60	O	0.440714	-0.358766	1.269095
O61	O	-0.519043	-1.108610	0.309337
O62	O	-0.269043	-0.858610	0.559337
O63	O	-0.019043	-0.608610	0.809337
O64	O	0.230957	-0.358610	1.059337
O65	O	-0.519012	-1.018235	0.399722
O66	O	-0.269012	-0.768235	0.649722
O67	O	-0.019012	-0.518235	0.899722
O68	O	0.230988	-0.268235	1.149722
C69	C	-0.354510	-0.872301	0.354550
C70	C	-0.104510	-0.622301	0.604550
C71	C	0.145490	-0.372301	0.854550
C72	C	0.395490	-0.122301	1.104550
C73	C	-0.354521	-0.790502	0.354558
C74	C	-0.104521	-0.540502	0.604558
C75	C	0.145479	-0.290502	0.854558
C76	C	0.395479	-0.040502	1.104558
C77	C	-0.545731	-1.063429	0.354538
C78	C	-0.295731	-0.813429	0.604538
C79	C	-0.045731	-0.563429	0.854538
C80	C	0.204269	-0.313429	1.104538
C81	C	-0.627529	-1.063463	0.354548
C82	C	-0.377529	-0.813463	0.604548
C83	C	-0.127529	-0.563463	0.854548
C84	C	0.122471	-0.313463	1.104548
C85	C	-0.401650	-0.602314	0.401553
C86	C	-0.151650	-0.352314	0.651553
C87	C	0.098350	-0.102314	0.901553
C88	C	0.348350	0.147686	1.151553
C89	C	-0.401652	-0.525455	0.401561
C90	C	-0.151652	-0.275455	0.651561
C91	C	0.098348	-0.025455	0.901561
C92	C	0.348348	0.224545	1.151561
C93	C	-0.307402	-0.525452	0.307598
C94	C	-0.057402	-0.275452	0.557598
C95	C	0.192598	-0.025452	0.807598
C96	C	0.442598	0.224548	1.057598
C97	C	-0.307397	-0.602309	0.307594
C98	C	-0.057397	-0.352309	0.557594
C99	C	0.192603	-0.102309	0.807594
C100	C	0.442603	0.147691	1.057594
C101	C	-0.354526	-0.640738	0.354570
C102	C	-0.104526	-0.390738	0.604570
C103	C	0.145474	-0.140738	0.854570
C104	C	0.395474	0.109262	1.104570
C105	C	-0.354532	-0.487022	0.354582
C106	C	-0.104532	-0.237022	0.604582
C107	C	0.145468	0.012978	0.854582
C108	C	0.395468	0.262978	1.104582
C109	C	-0.354533	-0.403688	0.354591
C110	C	-0.104533	-0.153688	0.604591
C111	C	0.145467	0.096312	0.854591
C112	C	0.395467	0.346312	1.104591
C113	C	-0.354524	-0.724077	0.354563
C114	C	-0.104524	-0.474077	0.604563
C115	C	0.145476	-0.224077	0.854563
C116	C	0.395476	0.025923	1.104563
C117	C	-0.815715	-1.110632	0.307571
C118	C	-0.565715	-0.860632	0.557571
C119	C	-0.315715	-0.610632	0.807571
C120	C	-0.065715	-0.360632	1.057571
C121	C	-0.892574	-1.110665	0.307589
C122	C	-0.642574	-0.860665	0.557589
C123	C	-0.392574	-0.610665	0.807589
C124	C	-0.142574	-0.360665	1.057589
C125	C	-0.892581	-1.016476	0.401629
C126	C	-0.642581	-0.766476	0.651629
C127	C	-0.392581	-0.516476	0.901629
C128	C	-0.142581	-0.266476	1.151629
C129	C	-0.815724	-1.016447	0.401615
C130	C	-0.565724	-0.766447	0.651615
C131	C	-0.315724	-0.516447	0.901615
C132	C	-0.065724	-0.266447	1.151615
C133	C	-0.777293	-1.063524	0.354581
C134	C	-0.527293	-0.813524	0.604581
C135	C	-0.277293	-0.563524	0.854581
C136	C	-0.027293	-0.313524	1.104581
C137	C	-0.931009	-1.063586	0.354614
C138	C	-0.681009	-0.813586	0.604614
C139	C	-0.431009	-0.563586	0.854614
C140	C	-0.181009	-0.313586	1.104614
C141	C	-1.014343	-1.063621	0.354634
C142	C	-0.764343	-0.813621	0.604634
C143	C	-0.514343	-0.563621	0.854634
C144	C	-0.264343	-0.313621	1.104634
C145	C	-0.693954	-1.063490	0.354563
C146	C	-0.443954	-0.813490	0.604563
C147	C	-0.193954	-0.563490	0.854563
C148	C	0.056046	-0.313490	1.104563
C149	C	-0.162571	-1.063605	0.354625
C150	C	0.087429	-0.813605	0.604625
C151	C	0.337429	-0.563605	0.854625
C152	C	0.587429	-0.313605	1.104625
C153	C	-0.080772	-1.063647	0.354648
C154	C	0.169228	-0.813647	0.604648
C155	C	0.419228	-0.563647	0.854648
C156	C	0.669228	-0.313647	1.104648
C157	C	-0.354473	-1.063552	0.546527
C158	C	-0.104473	-0.813552	0.796527
C159	C	0.145527	-0.563552	1.046527
C160	C	0.395527	-0.313552	1.296527
C161	C	-0.354452	-1.063571	0.628326
C162	C	-0.104452	-0.813571	0.878326
C163	C	0.145548	-0.563571	1.128326
C164	C	0.395548	-0.313571	1.378326
C165	C	-0.354537	-0.255460	0.354595
C166	C	-0.104537	-0.005460	0.604595
C167	C	0.145463	0.244540	0.854595
C168	C	0.395463	0.494540	1.104595
C169	C	-0.354536	-0.337259	0.354595
C170	C	-0.104536	-0.087259	0.604595
C171	C	0.145464	0.162741	0.854595
C172	C	0.395464	0.412741	1.104595
C173	C	-0.354522	-1.063504	0.163368
C174	C	-0.104522	-0.813504	0.413368
C175	C	0.145478	-0.563504	0.663368
C176	C	0.395478	-0.313504	0.913368
C177	C	-0.354336	-1.063628	0.081569
C178	C	-0.104336	-0.813628	0.331569
C179	C	0.145664	-0.563628	0.581569
C180	C	0.395664	-0.313628	0.831569
C181	C	-0.307342	-1.110681	0.816540
C182	C	-0.057342	-0.860681	1.066540
C183	C	0.192658	-0.610681	1.316540
C184	C	0.442658	-0.360681	1.566540
C185	C	-0.307321	-1.110690	0.893398
C186	C	-0.057321	-0.860690	1.143398
C187	C	0.192679	-0.610690	1.393398
C188	C	0.442679	-0.360690	1.643398
C189	C	-0.401448	-1.016513	0.893350
C190	C	-0.151448	-0.766513	1.143350
C191	C	0.098552	-0.516513	1.393350
C192	C	0.348552	-0.266513	1.643350
C193	C	-0.401465	-1.016501	0.816493
C194	C	-0.151465	-0.766501	1.066493
C195	C	0.098535	-0.516501	1.316493
C196	C	0.348535	-0.266501	1.566493
C197	C	-0.354413	-1.063589	0.778089
C198	C	-0.104413	-0.813589	1.028089
C199	C	0.145587	-0.563589	1.278089
C200	C	0.395587	-0.313589	1.528089
C201	C	-0.354375	-1.063610	0.931806
C202	C	-0.104375	-0.813610	1.181806
C203	C	0.145625	-0.563610	1.431806
C204	C	0.395625	-0.313610	1.681806
C205	C	-0.354352	-1.063619	1.015139
C206	C	-0.104352	-0.813619	1.265139
C207	C	0.145648	-0.563619	1.515139
C208	C	0.395648	-0.313619	1.765139
C209	C	-0.354435	-1.063579	0.694750
C210	C	-0.104435	-0.813579	0.944750
C211	C	0.145565	-0.563579	1.194750
C212	C	0.395565	-0.313579	1.444750
H213	H	-0.440025	-0.494174	0.439819
H214	H	-0.190025	-0.244174	0.689819
H215	H	0.059975	0.005826	0.939819
H216	H	0.309975	0.255826	1.189819
O217	O	-0.774260	-1.161413	0.256854
O218	O	-0.524260	-0.911413	0.506854
O219	O	-0.274260	-0.661413	0.756854
O220	O	-0.024260	-0.411413	1.006854
H221	H	-0.813893	-1.194182	0.224175
H222	H	-0.563893	-0.944182	0.474175
H223	H	-0.313893	-0.694182	0.724175
H224	H	-0.063893	-0.444182	0.974175
H225	H	-0.269033	-0.494153	0.269351
H226	H	-0.019033	-0.244153	0.519351
H227	H	0.230967	0.005847	0.769351
H228	H	0.480967	0.255847	1.019351
H229	H	-0.269018	-0.633595	0.269335
H230	H	-0.019018	-0.383595	0.519335
H231	H	0.230982	-0.133595	0.769335
H232	H	0.480982	0.116405	1.019335
H233	H	-0.269028	-1.149021	0.785274
H234	H	-0.019028	-0.899021	1.035274
H235	H	0.230972	-0.649021	1.285274
H236	H	0.480972	-0.399021	1.535274
H237	H	-0.923854	-1.149026	0.269310
H238	H	-0.673854	-0.899026	0.519310
H239	H	-0.423854	-0.649026	0.769310
H240	H	-0.173854	-0.399026	1.019310
O241	O	-0.452215	-0.965685	0.775012
O242	O	-0.202215	-0.715685	1.025012
O243	O	0.047785	-0.465685	1.275012
O244	O	0.297785	-0.215685	1.525012
H245	H	-0.484930	-0.932944	0.814627
H246	H	-0.234930	-0.682944	1.064627
H247	H	0.015070	-0.432944	1.314627
H248	H	0.265070	-0.182944	1.564627
H249	H	-0.923881	-0.978146	0.439921
H250	H	-0.673881	-0.728146	0.689921
H251	H	-0.423881	-0.478146	0.939921
H252	H	-0.173881	-0.228146	1.189921
H253	H	-0.440024	-0.633601	0.439805
H254	H	-0.190024	-0.383601	0.689805
H255	H	0.059976	-0.133601	0.939805
H256	H	0.309976	0.116399	1.189805
H257	H	-0.268990	-1.149035	0.924701
H258	H	-0.018990	-0.899035	1.174701
H259	H	0.231010	-0.649035	1.424701
H260	H	0.481010	-0.399035	1.674701
H261	H	-0.439757	-0.978177	0.924627
H262	H	-0.189757	-0.728177	1.174627
H263	H	0.060243	-0.478177	1.424627
H264	H	0.310243	-0.228177	1.674627
O265	O	-0.774274	-0.965625	0.452310
O266	O	-0.524274	-0.715625	0.702310
O267	O	-0.274274	-0.465625	0.952310
O268	O	-0.024274	-0.215625	1.202310
H269	H	-0.813909	-0.932883	0.485006
H270	H	-0.563909	-0.682883	0.735006
H271	H	-0.313909	-0.432883	0.985006
H272	H	-0.063909	-0.182883	1.235006
