data_functionalizedCrystal
_audit_creation_method	'MofGen! by Chris Wilmer'
_symmetry_space_group_name_H-M	'P1'
_symmetry_Int_Tables_number	1
_symmetry_cell_setting	triclinic
loop_
_symmetry_equiv_pos_as_xyz
  x,y,z
_cell_length_a	10.540535
_cell_length_b	10.540510
_cell_length_c	12.376457
_cell_angle_alpha	101.392640
_cell_angle_beta	78.594279
_cell_angle_gamma	84.518476
loop_
_atom_site_label
_atom_site_type_symbol
_atom_site_fract_x
_atom_site_fract_y
_atom_site_fract_z
O1	O	1.709981	0.154781	-0.093936
O2	O	1.340570	0.171639	-0.093952
O3	O	1.533723	-0.021499	-0.093943
O4	O	1.516828	0.347919	-0.093945
O5	O	1.485451	0.026719	0.094067
O6	O	1.292298	0.219857	0.094058
O7	O	1.661710	0.202999	0.094074
Zn8	Zn	1.469340	0.219084	0.123917
Zn9	Zn	1.532940	0.155554	-0.123795
O10	O	1.468556	0.396137	0.094065
C11	C	1.269131	0.194484	0.000051
C12	C	1.128185	0.190703	0.000045
C13	C	1.091528	0.049689	0.000051
C14	C	0.944816	0.045823	0.000488
C15	C	0.891327	0.282559	0.107213
C16	C	1.038072	0.285580	0.107292
C17	C	1.092851	0.232797	-0.106519
C18	C	0.946864	0.225916	-0.107916
C19	C	1.508329	-0.044694	0.000059
C20	C	1.504564	-0.185646	0.000053
C21	C	1.638636	-0.402991	0.000489
C22	C	1.642764	-0.256506	0.000059
C23	C	1.461383	-0.257938	-0.107311
C24	C	1.458365	-0.404721	-0.107395
C25	C	1.400593	-0.349696	0.106407
C26	C	1.406786	-0.202993	0.107821
C27	C	1.733149	0.180153	0.000068
C28	C	1.874097	0.183932	0.000067
C29	C	1.493951	0.419331	0.000060
C30	C	1.497718	0.560281	0.000060
N31	N	1.425944	0.262440	0.292973
N32	N	1.576346	0.112188	-0.292851
C33	C	1.677081	0.011518	0.647969
C34	C	1.707447	-0.018827	0.529631
C35	C	1.637073	0.051487	0.470460
C36	C	1.536330	0.152152	0.529640
C37	C	1.505967	0.182508	0.647990
C38	C	1.465960	0.222476	0.470482
C39	C	1.365216	0.323142	0.529662
C40	C	1.334858	0.353491	0.648000
C41	C	1.405232	0.283177	0.707170
C42	C	1.496322	0.192121	0.352132
C43	C	1.325208	0.363110	0.352153
C44	C	1.294842	0.393456	0.470492
H45	H	0.843014	0.385270	0.110895
Cl46	Cl	1.435687	-0.383096	0.232047
H47	H	1.212815	0.475420	0.518691
Cl48	Cl	1.454765	-0.127356	0.230454
H49	H	1.059916	0.390130	0.111869
H50	H	1.356248	-0.428963	-0.112264
Cl51	Cl	0.811901	0.238894	0.230801
Cl52	Cl	1.765551	-0.076856	0.722355
H53	H	1.153228	-0.024166	-0.076775
H54	H	1.304224	-0.152263	0.114300
H55	H	1.711824	-0.466132	-0.076067
H56	H	1.156174	0.167958	-0.187760
Cl57	Cl	1.622965	0.065574	0.277749
H58	H	1.267906	0.420369	0.303978
H59	H	1.661802	0.026775	0.374104
Cl60	Cl	1.834089	-0.145370	0.455236
Cl61	Cl	1.697684	-0.180715	0.118898
H62	H	1.380505	0.307880	0.803531
H63	H	0.938620	0.153811	-0.187184
Cl64	Cl	1.240107	-0.383608	0.107521
Cl65	Cl	1.127432	0.392596	-0.108090
Cl66	Cl	0.929964	-0.070490	-0.118071
Cl67	Cl	1.128211	-0.002142	0.118507
Cl68	Cl	0.870253	-0.009038	0.119789
H69	H	1.252836	0.435468	0.696185
H70	H	0.899552	0.325046	-0.114719
Cl71	Cl	1.068236	0.243231	0.231423
Cl72	Cl	1.759278	-0.243168	-0.118967
Cl73	Cl	1.691251	-0.437279	0.119366
H74	H	1.360667	-0.211573	-0.111307
Cl75	Cl	1.568910	-0.241947	-0.230667
Cl76	Cl	1.564832	-0.498594	-0.231292
