data_functionalizedCrystal
_audit_creation_method	'MofGen! by Chris Wilmer'
_symmetry_space_group_name_H-M	'P1'
_symmetry_Int_Tables_number	1
_symmetry_cell_setting	triclinic
loop_
_symmetry_equiv_pos_as_xyz
  x,y,z
_cell_length_a	10.489741
_cell_length_b	27.732048
_cell_length_c	9.565339
_cell_angle_alpha	89.995294
_cell_angle_beta	89.999100
_cell_angle_gamma	83.590915
loop_
_atom_site_label
_atom_site_type_symbol
_atom_site_fract_x
_atom_site_fract_y
_atom_site_fract_z
O1	O	1.691056	0.068187	-0.116191
O2	O	1.319579	0.074588	-0.116214
O3	O	1.516855	0.001064	-0.116175
O4	O	1.493780	0.141712	-0.116230
O5	O	1.516839	0.001068	0.116345
O6	O	1.319563	0.074593	0.116306
O7	O	1.691040	0.068192	0.116329
Zn8	Zn	1.505299	0.071393	0.153235
Zn9	Zn	1.505320	0.071387	-0.153120
O10	O	1.493765	0.141716	0.116290
C11	C	1.272061	0.074107	0.000043
C12	C	1.130495	0.072661	0.000036
C13	C	1.064411	0.025879	0.000067
C14	C	0.971320	0.047976	-0.114583
C15	C	0.971339	0.047992	0.114663
C16	C	1.039269	0.094777	-0.114709
C17	C	1.039297	0.094786	0.114640
C18	C	0.946232	0.116916	-0.000038
C19	C	1.516363	-0.016944	0.000089
C20	C	1.514904	-0.070608	0.000100
C21	C	1.622299	-0.408745	0.000035
C22	C	1.616888	-0.610439	0.000015
O23	O	1.715093	-0.641075	-0.000040
N24	N	1.499911	-0.630301	0.000009
C25	C	1.384279	-0.599736	-0.000001
O26	O	1.284660	-0.621258	-0.000021
C27	C	1.389692	-0.398044	0.000009
C28	C	1.506676	-0.378184	0.000029
C29	C	1.739274	-0.388886	0.000054
C30	C	1.740625	-0.338465	0.000066
C31	C	1.625002	-0.307904	0.000060
C32	C	1.508028	-0.327764	0.000042
C33	C	1.274062	-0.367480	-0.000011
C34	C	1.275425	-0.317054	-0.000012
C35	C	1.392409	-0.297195	0.000008
C36	C	1.393757	-0.246783	0.000048
N37	N	1.510733	-0.226920	0.000054
C38	C	1.626356	-0.257481	0.000060
C39	C	1.381446	-0.705628	-0.000003
C40	C	1.380092	-0.756051	-0.000003
C41	C	1.612701	-0.766751	0.000010
C42	C	1.614053	-0.716327	0.000020
C43	C	1.498422	-0.685766	0.000003
C44	C	1.629186	-0.151594	0.000088
C45	C	1.630527	-0.101169	0.000106
C46	C	1.397919	-0.090474	0.000085
C47	C	1.396577	-0.140895	0.000074
C48	C	1.512221	-0.171454	0.000071
O49	O	1.295604	-0.216118	0.000088
O50	O	1.725961	-0.235950	0.000049
C51	C	1.620947	-0.459166	0.000023
C52	C	1.503973	-0.479025	0.000004
C53	C	1.388350	-0.448464	-0.000002
C54	C	1.502619	-0.529448	0.000004
C55	C	1.618242	-0.560009	0.000010
C56	C	1.735219	-0.540147	0.000016
C57	C	1.736570	-0.489727	0.000029
C58	C	1.271374	-0.468327	-0.000008
C59	C	1.270032	-0.518748	-0.000019
C60	C	1.385654	-0.549308	-0.000013
C61	C	1.738559	0.068673	0.000069
C62	C	1.880124	0.070119	0.000067
C63	C	1.494257	0.159724	0.000023
C64	C	1.495715	0.213388	0.000003
N65	N	1.505295	0.071397	0.362315
N66	N	1.505335	0.071379	-0.362199
C67	C	1.414034	0.105388	0.453500
C68	C	1.529101	0.115168	0.546682
C69	C	1.390277	0.061621	0.546688
C70	C	1.620419	0.081198	0.453445
C71	C	1.481520	0.027633	0.453443
C72	C	1.596671	0.037394	0.546583
H73	H	0.895116	0.155414	-0.000115
H74	H	1.829363	-0.565039	0.000027
C75	C	0.971104	0.136564	-0.326298
C76	C	1.079708	0.121472	-0.245716
H77	H	0.996073	0.153046	-0.407170
H78	H	0.930663	0.109070	-0.353677
H79	H	0.912931	0.157820	-0.272700
H80	H	1.137877	0.100214	-0.299310
H81	H	1.120168	0.148971	-0.218339
H82	H	1.336927	0.134160	0.412630
H83	H	1.174762	-0.534912	-0.000023
C84	C	1.677069	-0.047114	0.552256
C85	C	1.700986	-0.001423	0.601419
H86	H	1.741477	-0.071075	0.586105
H87	H	1.595458	-0.054125	0.584366
H88	H	1.678075	-0.047129	0.452951
H89	H	1.699971	-0.001407	0.700725
H90	H	1.782619	0.005589	0.569316
H91	H	1.706846	-0.791642	0.000016
H92	H	1.835885	-0.322301	0.000077
H93	H	1.292993	0.053360	0.587650
C94	C	1.039232	0.005730	-0.325513
C95	C	0.930631	0.021251	-0.245411
H96	H	1.014116	-0.010774	-0.406271
H97	H	1.080369	0.033038	-0.353083
H98	H	1.096854	-0.015607	-0.271512
H99	H	0.873013	0.042591	-0.299409
H100	H	0.889474	-0.006060	-0.217842
C101	C	1.750533	-0.665839	0.119558
C102	C	1.742646	-0.694501	0.000031
H103	H	1.829929	-0.652370	0.119563
H104	H	1.681884	-0.640420	0.119540
H105	H	1.745157	-0.685293	0.200636
H106	H	1.748012	-0.675047	-0.081047
H107	H	1.811314	-0.719924	0.000036
H108	H	1.301319	-0.157065	0.000097
C109	C	0.845746	0.052723	0.325086
C110	C	0.930683	0.021266	0.245519
H111	H	0.820646	0.036219	0.405860
H112	H	0.886905	0.080026	0.352631
H113	H	0.772073	0.063250	0.270733
H114	H	1.004361	0.010741	0.299869
H115	H	0.889525	-0.006047	0.217976
H116	H	1.461348	-0.009359	0.412456
H117	H	1.284832	-0.772216	0.000005
C118	C	1.166817	0.090277	0.323641
C119	C	1.080049	0.121488	0.245471
H120	H	1.191984	0.106761	0.404413
H121	H	1.127066	0.062636	0.351173
H122	H	1.240257	0.080276	0.268352
H123	H	1.006604	0.131487	0.300757
H124	H	1.119799	0.149138	0.217941
C125	C	1.137939	-0.405423	0.119526
C126	C	1.144274	-0.434736	-0.000009
H127	H	1.059470	-0.384685	0.119523
H128	H	1.142245	-0.425322	0.200590
H129	H	1.207799	-0.386377	0.119518
H130	H	1.074419	-0.453785	0.000004
H131	H	1.139956	-0.414835	-0.081094
C132	C	1.045363	-0.311547	-0.000042
C133	C	1.148316	-0.283462	-0.000026
H134	H	0.966894	-0.290808	-0.000040
H135	H	1.049686	-0.331431	-0.081125
H136	H	1.049677	-0.331441	0.081045
H137	H	1.144007	-0.263570	-0.081119
H138	H	1.143991	-0.263570	0.081066
H139	H	1.549238	0.152170	0.587636
H140	H	1.717725	0.089504	0.412659
H141	H	1.115791	-0.012578	-0.000061
H142	H	1.725793	-0.085003	0.000126
H143	H	1.833433	-0.413764	0.000054
H144	H	1.303782	-0.065582	0.000085
H145	H	1.723354	-0.176470	0.000080
C146	C	1.151387	-0.700128	0.000003
C147	C	1.254332	-0.672040	-0.000002
H148	H	1.072913	-0.679393	0.000019
H149	H	1.155703	-0.720013	-0.081079
H150	H	1.155719	-0.720023	0.081091
H151	H	1.250005	-0.652148	-0.081096
H152	H	1.250013	-0.652147	0.081089
H153	H	1.831831	-0.473562	0.000045
H154	H	1.178801	-0.383640	-0.000036
