data_functionalizedCrystal
_audit_creation_method	'MofGen! by Chris Wilmer'
_symmetry_space_group_name_H-M	'P1'
_symmetry_Int_Tables_number	1
_symmetry_cell_setting	triclinic
loop_
_symmetry_equiv_pos_as_xyz
  x,y,z
_cell_length_a	19.077236
_cell_length_b	12.759394
_cell_length_c	19.077569
_cell_angle_alpha	87.678206
_cell_angle_beta	85.479541
_cell_angle_gamma	92.307717
loop_
_atom_site_label
_atom_site_type_symbol
_atom_site_fract_x
_atom_site_fract_y
_atom_site_fract_z
Zn1	Zn	1.093786	-0.326332	-0.441990
Zn2	Zn	1.088989	-0.509381	-0.324105
Zn3	Zn	0.971166	-0.341052	-0.319371
Zn4	Zn	0.975882	-0.509312	-0.437211
O5	O	1.032456	-0.421519	-0.380669
O6	O	1.191802	-0.344483	-0.430333
O7	O	1.069378	-0.493241	-0.224825
O8	O	0.987466	-0.192075	-0.335656
O9	O	1.188278	-0.478968	-0.343724
O10	O	1.077554	-0.181261	-0.425743
O11	O	0.982814	-0.369570	-0.221348
O12	O	0.873139	-0.369503	-0.331022
O13	O	0.995504	-0.478850	-0.536497
O14	O	0.876604	-0.493123	-0.417599
O15	O	1.082127	-0.344416	-0.540008
O16	O	1.073951	-0.656396	-0.339090
O17	O	0.990852	-0.656345	-0.422189
C18	C	0.849292	-0.432903	-0.373279
C19	C	0.770935	-0.437798	-0.370134
C20	C	0.735961	-0.370180	-0.413818
C21	C	0.662335	-0.374774	-0.410856
C22	C	0.623685	-0.446992	-0.364214
C23	C	0.658665	-0.514613	-0.320525
C24	C	0.732289	-0.510013	-0.323483
C25	C	0.403296	-0.468242	-0.350521
C26	C	0.329667	-0.472839	-0.347567
C27	C	0.333343	-0.332999	-0.437898
C28	C	0.406968	-0.328410	-0.440855
C29	C	0.441941	-0.396027	-0.397164
N30	N	0.548428	-0.451692	-0.361188
N31	N	0.517196	-0.391321	-0.400187
C32	C	1.032413	-0.694491	-0.380651
C33	C	1.032460	-0.811263	-0.380669
C34	C	1.119061	-0.811255	-0.294208
C35	C	1.162381	-0.866109	-0.250987
C36	C	1.162423	-0.975827	-0.251008
C37	C	1.119142	-1.030693	-0.294256
C38	C	1.075823	-0.975838	-0.337477
C39	C	1.075784	-0.866118	-0.337450
C40	C	0.989226	-0.975846	-0.423941
C41	C	0.989179	-0.866129	-0.423917
C42	C	0.945946	-1.030711	-0.467189
C43	C	0.902622	-0.975857	-0.510407
C44	C	0.902581	-0.866133	-0.510384
C45	C	0.945860	-0.811274	-0.467138
C46	C	1.216335	-0.410092	-0.388090
C47	C	1.294693	-0.405222	-0.391252
C48	C	1.039876	-0.409983	-0.564547
C49	C	1.043039	-0.405067	-0.642904
C50	C	1.032519	-0.147480	-0.380704
C51	C	1.032546	-0.030701	-0.380719
C52	C	0.999425	-0.472745	-0.677890
C53	C	1.002402	-0.468126	-0.751516
C54	C	1.048990	-0.395822	-0.790154
C55	C	1.092608	-0.328141	-0.755163
C56	C	1.089634	-0.332766	-0.681539
C57	C	1.062724	-0.374488	-1.010543
C58	C	1.065693	-0.369866	-1.084172
C59	C	0.975487	-0.509852	-1.080519
C60	C	0.972515	-0.514467	-1.006894
C61	C	1.016135	-0.446790	-0.971909
N62	N	1.052032	-0.391096	-0.865411
N63	N	1.013096	-0.451521	-0.896654
C64	C	1.025105	-0.432932	-0.197509
C65	C	1.022079	-0.437544	-0.119157
H66	H	0.431762	-0.523302	-0.314945
H67	H	0.633863	-0.319715	-0.446430
O68	O	1.118901	-0.704687	-0.294117
C69	C	1.050596	-0.673475	-0.273251
H70	H	1.020257	-0.740506	-0.241337
H71	H	1.054271	-0.601896	-0.239639
H72	H	1.022027	-0.652783	-0.321903
O73	O	0.960014	-0.533724	-0.785584
C74	C	0.916206	-0.474074	-0.826338
H75	H	0.941527	-0.392210	-0.838373
H76	H	0.908856	-0.514207	-0.877728
H77	H	0.862812	-0.467571	-0.795870
H78	H	0.627190	-0.573409	-0.282545
H79	H	1.197621	-0.821428	-0.215776
H80	H	0.767424	-0.311375	-0.451801
O81	O	0.766155	-0.575808	-0.281025
C82	C	0.716256	-0.640520	-0.239211
H83	H	0.664944	-0.645693	-0.265973
H84	H	0.737214	-0.722429	-0.232449
H85	H	0.706260	-0.605769	-0.185399
O86	O	0.860565	-1.028986	-0.552481
C87	C	0.822303	-0.957049	-0.590608
H88	H	0.851240	-0.876845	-0.594216
H89	H	0.816998	-0.985705	-0.645849
H90	H	0.767731	-0.950428	-0.562591
O91	O	1.110995	-0.299771	-1.121782
C92	C	1.158239	-0.354095	-1.166187
H93	H	1.133794	-0.434563	-1.176207
H94	H	1.169791	-0.307462	-1.218345
H95	H	1.209333	-0.364186	-1.139919
H96	H	1.197701	-1.020489	-0.215817
O97	O	1.119319	-1.137263	-0.294289
C98	C	1.187615	-1.168468	-0.315197
H99	H	1.227719	-1.103420	-0.304807
H100	H	1.198920	-1.243090	-0.283933
H101	H	1.191434	-1.184129	-0.373755
O102	O	0.945926	-1.137287	-0.467322
C103	C	0.898426	-1.173948	-0.514748
H104	H	0.890163	-1.108732	-0.555514
H105	H	0.920790	-1.244300	-0.542389
H106	H	0.845919	-1.198455	-0.484691
O107	O	0.860604	-0.812790	-0.552450
C108	C	0.902523	-0.743868	-0.599602
H109	H	0.958234	-0.773127	-0.606241
H110	H	0.879178	-0.740804	-0.652808
H111	H	0.904053	-0.661942	-0.577888
O112	O	0.945813	-0.704703	-0.466985
C113	C	0.924998	-0.673481	-0.398675
H114	H	0.935452	-0.738522	-0.358578
H115	H	0.956276	-0.598857	-0.387433
H116	H	0.866436	-0.657817	-0.394776
O117	O	0.954267	-0.543033	-0.640283
C118	C	0.992674	-0.611083	-0.599323
H119	H	1.045662	-0.571395	-0.590454
H120	H	0.961868	-0.630201	-0.546389
H121	H	1.001550	-0.686679	-0.628001
O122	O	0.444402	-0.258154	-0.486176
C123	C	0.397744	-0.199471	-0.524109
H124	H	0.344091	-0.200863	-0.493132
H125	H	0.419331	-0.114902	-0.532573
H126	H	0.392084	-0.235193	-0.577294
H127	H	0.934589	-0.573360	-0.975440
H128	H	0.939974	-0.564951	-1.109011
H129	H	0.304860	-0.277948	-0.473468
O130	O	1.105118	-0.308636	-0.976675
C131	C	1.146882	-0.243844	-1.026568
H132	H	1.120124	-0.238708	-1.077884
H133	H	1.153563	-0.161932	-1.005610
H134	H	1.200731	-0.278498	-1.036557
O135	O	1.137764	-0.257799	-0.792722
C136	C	1.099365	-0.189774	-0.833709
H137	H	1.042947	-0.188127	-0.809283
H138	H	1.124916	-0.107282	-0.835581
H139	H	1.099181	-0.218903	-0.889407
O140	O	0.292228	-0.543027	-0.302194
C141	C	0.338882	-0.601740	-0.264278
H142	H	0.391270	-0.555573	-0.263989
H143	H	0.315350	-0.617635	-0.207868
H144	H	0.347753	-0.679490	-0.290315
O145	O	1.132026	-0.266915	-0.647661
C146	C	1.173795	-0.202122	-0.697551
H147	H	1.147040	-0.196978	-0.748868
H148	H	1.180477	-0.120213	-0.676588
H149	H	1.227643	-0.236780	-0.707537
