data_functionalizedCrystal
_audit_creation_method	'MofGen! by Chris Wilmer'
_symmetry_space_group_name_H-M	'P1'
_symmetry_Int_Tables_number	1
_symmetry_cell_setting	triclinic
loop_
_symmetry_equiv_pos_as_xyz
  x,y,z
_cell_length_a	6.817900
_cell_length_b	17.982959
_cell_length_c	10.943624
_cell_angle_alpha	94.170339
_cell_angle_beta	108.838799
_cell_angle_gamma	102.451857
loop_
_atom_site_label
_atom_site_type_symbol
_atom_site_fract_x
_atom_site_fract_y
_atom_site_fract_z
V1	V	-4.083161	-0.105393	-0.403090
O2	O	-4.074764	0.005085	-0.394862
O3	O	-4.029326	-0.208995	-0.400867
O4	O	-4.061624	-0.103762	-0.578648
O5	O	-4.042243	-0.100876	-0.215850
V6	V	-4.564012	-0.092179	-0.380630
O7	O	-4.350280	-0.134377	-0.452359
O8	O	-4.747091	-0.063195	-0.331362
O9	O	-4.394641	0.011424	-0.382853
O10	O	-4.689806	-0.202657	-0.388858
O11	O	-4.722327	-0.096695	-0.567870
O12	O	-4.362343	-0.093809	-0.205072
C13	C	-3.872136	-0.234252	-0.394646
C14	C	-3.909586	-0.318949	-0.393998
C15	C	-4.110085	-0.362619	-0.400154
C16	C	-4.145265	-0.442201	-0.399553
C17	C	-3.979938	-0.478110	-0.392787
C18	C	-3.779424	-0.434434	-0.386635
C19	C	-3.744252	-0.354854	-0.387245
C20	C	-3.921268	-0.755370	-0.384176
C21	C	-3.956456	-0.834955	-0.383562
C22	C	-4.322281	-0.842717	-0.396483
C23	C	-4.287109	-0.763137	-0.397093
C24	C	-4.086603	-0.719468	-0.390948
C25	C	-4.048460	-0.633177	-0.391602
C26	C	-4.018073	-0.564399	-0.392124
C27	C	-3.913333	-0.100016	-0.621422
C28	C	-3.976972	-0.099368	-0.764945
C29	C	-3.823139	-0.095009	-0.842070
C30	C	-3.992647	-0.159712	-0.948391
C31	C	-3.920881	-0.033519	-0.914359
C32	C	-4.145672	-0.164132	-0.869390
C33	C	-4.073843	-0.037882	-0.835334
C34	C	-4.243482	-0.102603	-0.941625
C35	C	-4.215172	0.036676	-0.389071
C36	C	-4.156962	0.121372	-0.389727
C37	C	-4.173975	-0.097559	-0.162292
C38	C	-4.089575	-0.098202	-0.018767
H39	H	-4.421735	-0.733904	-0.402596
O40	O	-4.339909	-0.484738	-0.405540
C41	C	-4.335489	-0.562673	-0.403505
H42	H	-4.203206	-0.573992	-0.438995
H43	H	-4.303217	-0.575856	-0.299517
C44	C	-4.715420	-0.600806	-0.450223
C45	C	-4.552960	-0.614709	-0.493823
H46	H	-4.849568	-0.632906	-0.505930
H47	H	-4.718398	-0.548300	-0.451589
H48	H	-4.688499	-0.611792	-0.363566
H49	H	-4.579868	-0.603715	-0.580472
H50	H	-4.549991	-0.667215	-0.492474
O51	O	-4.114188	0.023477	-0.776525
C52	C	-4.261377	-0.002966	-0.713931
H53	H	-4.357649	-0.064252	-0.761333
H54	H	-4.170827	-0.002333	-0.606037
C55	C	-4.296184	0.125356	-0.669054
C56	C	-4.414440	0.050086	-0.727281
H57	H	-4.390596	0.158082	-0.677282
H58	H	-4.197014	0.143172	-0.711220
H59	H	-4.220732	0.125872	-0.579147
H60	H	-4.489868	0.049569	-0.817189
H61	H	-4.513627	0.032271	-0.685130
H62	H	-3.580989	-0.319298	-0.382238
O63	O	-4.516890	-0.885203	-0.402286
C64	C	-4.493301	-0.921122	-0.289915
H65	H	-4.321459	-0.926232	-0.246750
H66	H	-4.531562	-0.885131	-0.214634
C67	C	-4.859039	-0.995793	-0.380185
C68	C	-4.647984	-1.002076	-0.327175
H69	H	-4.954460	-1.045728	-0.403165
H70	H	-4.874936	-0.971593	-0.455889
H71	H	-4.890893	-0.965798	-0.317442
H72	H	-4.616125	-1.032062	-0.389923
H73	H	-4.632086	-1.026283	-0.251482
O74	O	-3.952116	-0.221092	-1.007027
C75	C	-3.731192	-0.216894	-0.955995
H76	H	-3.638289	-0.154608	-0.913639
H77	H	-3.699633	-0.254435	-0.875771
C78	C	-3.772096	-0.322234	-1.117860
C79	C	-3.657990	-0.245732	-1.065848
H80	H	-3.726941	-0.340026	-1.185620
H81	H	-3.920939	-0.325065	-1.152239
H82	H	-3.745787	-0.353508	-1.050995
H83	H	-3.684322	-0.214458	-1.132709
H84	H	-3.509150	-0.242897	-1.031483
H85	H	-3.821819	-0.864190	-0.378061
O86	O	-4.258077	-0.230035	-0.845002
C87	C	-4.196206	-0.229872	-0.708953
H88	H	-4.029277	-0.189932	-0.658653
H89	H	-4.314940	-0.208739	-0.670959
C90	C	-4.398749	-0.361250	-0.741390
C91	C	-4.193715	-0.312199	-0.679612
H92	H	-4.397221	-0.412033	-0.723290
H93	H	-4.440440	-0.361360	-0.833050
H94	H	-4.497672	-0.343630	-0.709722
H95	H	-4.094802	-0.329814	-0.711292
H96	H	-4.152007	-0.312095	-0.587957
O97	O	-3.808467	0.032414	-0.938659
C98	C	-3.849392	0.096581	-0.878630
H99	H	-4.009296	0.078266	-0.863042
H100	H	-3.716112	0.120169	-0.780289
C101	C	-3.661738	0.182048	-0.986105
C102	C	-3.858144	0.159554	-0.966969
H103	H	-3.667127	0.220894	-1.040592
H104	H	-3.634158	0.138817	-1.026543
H105	H	-3.550692	0.201699	-0.904146
H106	H	-3.969182	0.139894	-1.048925
H107	H	-3.885743	0.202783	-0.926546
H108	H	-4.421806	-0.105829	-0.984886
H109	H	-4.244712	-0.333387	-0.405651
H110	H	-3.758005	-0.719823	-0.379164
H111	H	-3.644819	-0.463678	-0.381134
H112	H	-3.644897	-0.091885	-0.798606
