data_functionalizedCrystal
_audit_creation_method	'MofGen! by Chris Wilmer'
_symmetry_space_group_name_H-M	'P1'
_symmetry_Int_Tables_number	1
_symmetry_cell_setting	triclinic
loop_
_symmetry_equiv_pos_as_xyz
  x,y,z
_cell_length_a	26.374263
_cell_length_b	26.373608
_cell_length_c	26.370205
_cell_angle_alpha	60.005297
_cell_angle_beta	60.010839
_cell_angle_gamma	59.993700
loop_
_atom_site_label
_atom_site_type_symbol
_atom_site_fract_x
_atom_site_fract_y
_atom_site_fract_z
O1	O	0.070152	-0.740800	0.619517
O2	O	0.026377	-0.576764	0.499159
O3	O	0.130245	-0.680560	0.499088
O4	O	-0.033715	-0.637003	0.619589
O5	O	0.164701	-0.646107	0.533470
O6	O	0.060833	-0.542310	0.533541
O7	O	0.104608	-0.706346	0.653899
Cu8	Cu	0.085867	-0.621182	0.596859
Cu9	Cu	0.045119	-0.661927	0.556199
O10	O	0.000741	-0.602549	0.653971
N11	N	0.114528	-0.592529	0.625461
N12	N	0.016463	-0.690587	0.527598
C13	C	0.181428	-0.355400	0.692330
C14	C	0.181530	-0.525690	0.862573
C15	C	0.181440	-0.525667	0.692313
C16	C	0.351736	-0.525673	0.692271
C17	C	0.200174	-0.411588	0.711047
C18	C	0.200232	-0.506954	0.806384
C19	C	0.295546	-0.506943	0.711016
C20	C	0.200182	-0.506940	0.711037
C21	C	0.157567	-0.283881	0.668507
C22	C	0.157587	-0.549500	0.668479
C23	C	0.224035	-0.483107	0.734871
C24	C	0.455739	-0.507754	0.637520
C25	C	0.520749	-0.529425	0.615835
C26	C	0.520768	-0.634611	0.655947
C27	C	0.455759	-0.612939	0.677633
C28	C	0.173240	-0.251367	0.604595
C29	C	0.151546	-0.186351	0.582941
C30	C	0.098512	-0.186369	0.689113
C31	C	0.120206	-0.251385	0.710768
C32	C	0.093669	-0.533798	0.684205
C33	C	0.071992	-0.555464	0.662532
C34	C	0.178144	-0.608536	0.609422
C35	C	0.199825	-0.586869	0.631088
C36	C	0.093821	-0.533842	0.966616
C37	C	0.072187	-0.555526	1.031630
C38	C	0.178370	-0.608608	1.031591
C39	C	0.200004	-0.586926	0.966576
C40	C	0.157728	-0.549541	0.934090
C41	C	0.423247	-0.549509	0.668416
C42	C	-0.097522	-0.709158	0.508557
C43	C	-0.002050	-0.709295	0.413344
C44	C	-0.002241	-0.804604	0.508735
C45	C	-0.002225	-0.709288	0.508793
C46	C	-0.026009	-0.733087	0.484858
N47	N	0.552340	-0.592538	0.625346
O48	O	0.750867	-0.598274	0.477076
O49	O	0.751048	-0.718989	0.640960
O50	O	0.750981	-0.718715	0.537020
O51	O	0.750934	-0.598547	0.581017
O52	O	0.647701	-0.684348	0.571512
O53	O	0.647768	-0.684622	0.675452
O54	O	0.647587	-0.563907	0.511569
Cu55	Cu	0.638247	-0.621127	0.596660
Cu56	Cu	0.760388	-0.661769	0.555869
O57	O	0.647654	-0.564181	0.615509
N58	N	0.846295	-0.690358	0.527176
N59	N	0.114503	-0.154778	0.625499
O60	O	-0.033701	0.043855	0.619632
O61	O	0.130190	0.043858	0.498933
O62	O	0.026233	0.043841	0.499224
O63	O	0.070257	0.043872	0.619341
O64	O	0.060690	-0.059448	0.533654
O65	O	0.164647	-0.059431	0.533363
O66	O	0.000756	-0.059434	0.654062
Cu67	Cu	0.085848	-0.068863	0.596857
Cu68	Cu	0.045099	0.053287	0.556138
O69	O	0.104714	-0.059417	0.653771
N70	N	0.016435	0.139202	0.527497
N71	N	0.114760	-0.592585	1.063190
O72	O	0.108896	-0.740779	1.261808
O73	O	-0.011787	-0.576838	1.261822
O74	O	-0.011509	-0.680779	1.261780
O75	O	0.108618	-0.636838	1.261850
O76	O	0.022916	-0.646341	1.158496
O77	O	0.022638	-0.542399	1.158538
O78	O	0.143321	-0.706341	1.158524
Cu79	Cu	0.086123	-0.621225	1.149100
Cu80	Cu	0.045411	-0.661953	1.271246
O81	O	0.143044	-0.602399	1.158566
N82	N	0.016774	-0.690600	1.357156
C83	C	0.039504	-0.538867	0.499769
C84	C	0.168130	-0.667407	0.499680
C85	C	0.091482	-0.744243	0.653289
C86	C	-0.037145	-0.615703	0.653378
C87	C	0.699429	-0.718429	0.678853
C88	C	0.699348	-0.718091	0.550135
C89	C	0.699202	-0.564465	0.473677
C90	C	0.699287	-0.564805	0.602393
C91	C	0.168023	-0.007659	0.499484
C92	C	0.039327	-0.007807	0.499887
C93	C	-0.037119	-0.007789	0.653468
C94	C	0.091620	-0.007770	0.653109
C95	C	-0.011194	-0.538964	1.210181
C96	C	-0.010843	-0.667676	1.210109
C97	C	0.142729	-0.744214	1.210165
C98	C	0.142386	-0.615494	1.210214
H99	H	0.020147	-0.542732	1.058106
H100	H	0.214995	-0.007372	0.461496
C101	C	-0.114363	-0.483423	1.263264
C102	C	-0.062347	-0.475404	1.210182
H103	H	-0.145943	-0.444183	1.263261
H104	H	-0.103080	-0.502002	1.299282
H105	H	-0.129348	-0.509516	1.263242
H106	H	-0.047360	-0.449315	1.210207
H107	H	-0.073631	-0.456816	1.174155
H108	H	-0.084239	-0.606419	0.691217
H109	H	0.030155	-0.491745	0.461969
C110	C	-0.033989	-0.007858	0.471334
C111	C	0.026617	-0.007842	0.448950
H112	H	-0.041830	-0.007890	0.439891
H113	H	-0.062636	0.028168	0.482622
H114	H	-0.038598	-0.043870	0.506665
H115	H	0.031226	0.028173	0.413622
H116	H	0.055273	-0.043872	0.437654
H117	H	0.215222	-0.676694	0.461838
C118	C	0.051439	-0.007759	0.757327
C119	C	0.104337	-0.007760	0.704054
H120	H	0.059290	-0.007749	0.788776
H121	H	0.041594	-0.043779	0.771674
H122	H	0.017559	0.028260	0.747659
H123	H	0.138215	-0.043782	0.713720
H124	H	0.114190	0.028263	0.689705
H125	H	0.100832	-0.791364	0.691090
H126	H	0.699366	-0.755841	0.540718
C127	C	0.208277	-0.818928	1.157051
C128	C	0.193881	-0.807774	1.210159
H129	H	0.239854	-0.858169	1.157050
H130	H	0.222512	-0.787335	1.121051
H131	H	0.172227	-0.818855	1.157042
H132	H	0.229930	-0.807842	1.210166
H133	H	0.179648	-0.839375	1.246169
H134	H	0.180125	-0.606093	1.210228
H135	H	-0.048566	-0.677061	1.210046
H136	H	0.699142	-0.526565	0.426612
C137	C	0.699210	-0.460562	0.562196
C138	C	0.699273	-0.513843	0.615096
H139	H	0.699206	-0.429102	0.570037
H140	H	0.663178	-0.446233	0.552369
H141	H	0.735210	-0.470214	0.528307
H142	H	0.663270	-0.504192	0.648983
H143	H	0.735309	-0.528174	0.624930
H144	H	0.699474	-0.756325	0.725922
H145	H	0.212798	-0.639038	1.058038
C146	C	-0.013314	-0.483547	0.973192
C147	C	0.047347	-0.492746	0.930911
H148	H	-0.042003	-0.458181	0.951147
H149	H	-0.019543	-0.463702	0.998550
H150	H	-0.019538	-0.522520	0.998547
H151	H	0.053573	-0.453773	0.905560
H152	H	0.053579	-0.512590	0.905543
C153	C	0.302790	-0.641566	0.973070
C154	C	0.270255	-0.604181	0.930825
H155	H	0.346159	-0.652214	0.950999
H156	H	0.292149	-0.678326	0.998422
H157	H	0.292132	-0.619507	0.998434
H158	H	0.280909	-0.626242	0.905464
H159	H	0.280901	-0.567415	0.905462
C160	C	-0.139134	-0.007777	0.682516
C161	C	-0.100663	-0.007773	0.704621
H162	H	-0.178365	-0.007760	0.714094
H163	H	-0.120563	-0.043802	0.671251
H164	H	-0.144571	0.028236	0.647217
H165	H	-0.095222	-0.043789	0.739918
H166	H	-0.119238	0.028255	0.715894
H167	H	0.019945	-0.542665	0.675322
C168	C	-0.013439	-0.483503	0.734514
C169	C	0.047241	-0.492716	0.725298
H170	H	-0.042102	-0.458137	0.759881
H171	H	-0.019673	-0.522467	0.754362
H172	H	-0.019697	-0.463648	0.695548
H173	H	0.053501	-0.512575	0.764264
H174	H	0.053477	-0.453745	0.705452
H175	H	0.547237	-0.686258	0.663446
C176	C	0.261931	-0.617081	0.514138
C177	C	0.224581	-0.649613	0.568320
H178	H	0.290595	-0.642437	0.488761
H179	H	0.283983	-0.606428	0.524800
H180	H	0.236545	-0.580318	0.492100
H181	H	0.249967	-0.686374	0.590361
H182	H	0.202527	-0.660275	0.557658
C183	C	0.285757	-0.549922	0.581300
C184	C	0.270084	-0.604122	0.613805
H185	H	0.329133	-0.560574	0.570629
H186	H	0.263705	-0.524574	0.606672
H187	H	0.275073	-0.527866	0.544549
H188	H	0.280764	-0.626176	0.650559
H189	H	0.292145	-0.629481	0.588432
H190	H	0.547206	-0.495421	0.590679
C191	C	0.435755	-0.689125	0.672140
C192	C	0.420051	-0.658844	0.711590
H193	H	0.413708	-0.717466	0.693103
H194	H	0.479122	-0.711100	0.660547
H195	H	0.425074	-0.659345	0.636021
H196	H	0.430736	-0.688624	0.747707
H197	H	0.376674	-0.636869	0.723192
C198	C	0.435689	-0.404628	0.563663
C199	C	0.420000	-0.438029	0.627392
H200	H	0.413630	-0.361583	0.557411
H201	H	0.425021	-0.418074	0.544026
H202	H	0.479059	-0.411568	0.546336
H203	H	0.376630	-0.431093	0.644718
H204	H	0.430664	-0.424578	0.647037
C205	C	0.223471	-0.244814	0.497468
C206	C	0.214304	-0.287085	0.558140
H207	H	0.248819	-0.266868	0.468791
H208	H	0.243318	-0.219456	0.491218
H209	H	0.184490	-0.219456	0.491244
H210	H	0.253284	-0.312440	0.564365
H211	H	0.194457	-0.312454	0.564392
H212	H	0.068098	-0.159910	0.723527
C213	C	0.065605	-0.244867	0.813539
C214	C	0.102979	-0.287123	0.781022
H215	H	0.054973	-0.266933	0.856912
H216	H	0.028839	-0.219512	0.802891
H217	H	0.087661	-0.219506	0.802872
H218	H	0.080921	-0.312482	0.791685
H219	H	0.139751	-0.312490	0.791675
H220	H	0.164306	-0.159876	0.530897
