data_functionalizedCrystal
_audit_creation_method	'MofGen! by Chris Wilmer'
_symmetry_space_group_name_H-M	'P1'
_symmetry_Int_Tables_number	1
_symmetry_cell_setting	triclinic
loop_
_symmetry_equiv_pos_as_xyz
  x,y,z
_cell_length_a	19.805407
_cell_length_b	12.594516
_cell_length_c	19.805399
_cell_angle_alpha	90.022473
_cell_angle_beta	90.019573
_cell_angle_gamma	90.011816
loop_
_atom_site_label
_atom_site_type_symbol
_atom_site_fract_x
_atom_site_fract_y
_atom_site_fract_z
Zn1	Zn	1.034804	-0.423767	0.382744
Zn2	Zn	1.034748	-0.601760	0.269566
Zn3	Zn	0.921619	-0.423796	0.269568
Zn4	Zn	0.921611	-0.601704	0.382712
O5	O	0.978196	-0.512757	0.326147
O6	O	1.129513	-0.447389	0.367742
O7	O	1.019721	-0.578189	0.174849
O8	O	0.936660	-0.274846	0.284596
O9	O	1.129472	-0.578160	0.284591
O10	O	1.019817	-0.274825	0.367745
O11	O	0.936605	-0.447439	0.174851
O12	O	0.826901	-0.447385	0.284565
O13	O	0.936647	-0.578064	0.477433
O14	O	0.826896	-0.578092	0.367691
O15	O	1.019809	-0.447334	0.477456
O16	O	1.019713	-0.750698	0.284560
O17	O	0.936592	-0.750657	0.367689
C18	C	0.802340	-0.512736	0.326126
C19	C	0.727108	-0.512753	0.326132
C20	C	0.978164	-0.789298	0.326136
C21	C	0.978213	-0.907603	0.326153
C22	C	0.691778	-0.580915	0.369346
C23	C	0.621090	-0.580917	0.369356
C24	C	0.585732	-0.512762	0.326147
C25	C	0.621066	-0.444592	0.282932
C26	C	0.691754	-0.444586	0.282926
C27	C	0.335993	-0.444615	0.282954
C28	C	0.265301	-0.444629	0.282962
C29	C	0.265329	-0.580947	0.369384
C30	C	0.336017	-0.580941	0.369378
C31	C	0.371345	-0.512768	0.326165
C32	C	0.447993	-0.512765	0.326156
C33	C	0.509085	-0.512769	0.326152
C34	C	1.023475	-0.976840	0.280988
C35	C	1.040013	-1.047546	0.342767
C36	C	0.961760	-1.047696	0.264414
C37	C	0.994782	-0.976750	0.387964
C38	C	0.916500	-0.976895	0.309570
C39	C	0.933015	-1.047568	0.371391
C40	C	1.154738	-0.512778	0.326170
C41	C	1.229970	-0.512787	0.326179
C42	C	0.978234	-0.512690	0.502690
C43	C	0.978250	-0.512661	0.577922
C44	C	0.978246	-0.235136	0.326174
C45	C	0.978267	-0.116830	0.326185
C46	C	0.978197	-0.512747	0.150291
C47	C	0.978312	-0.512475	0.075060
C48	C	1.021553	-0.444587	0.613280
C49	C	1.021560	-0.444556	0.683968
C50	C	0.978267	-0.512605	0.719298
C51	C	0.934958	-0.580683	0.683936
C52	C	0.934948	-0.580707	0.613249
C53	C	0.934996	-0.580583	0.969009
C54	C	0.935011	-0.580556	1.039701
C55	C	1.021608	-0.444432	1.039729
C56	C	1.021599	-0.444457	0.969041
C57	C	0.978288	-0.512529	0.933685
C58	C	0.978280	-0.512561	0.857037
C59	C	0.978277	-0.512580	0.795945
H60	H	0.720562	-0.636419	0.404529
H61	H	0.899740	-0.636028	0.940231
C62	C	0.374906	-0.655918	0.416909
N63	N	0.404197	-0.712391	0.452713
H64	H	0.236557	-0.636453	0.404572
C65	C	1.075192	-0.934870	0.229439
N66	N	1.114148	-0.903253	0.190618
H67	H	0.592328	-0.636423	0.404544
C68	C	0.226409	-0.369641	0.235432
N69	N	0.197115	-0.313162	0.199635
H70	H	0.364749	-0.389113	0.247762
C71	C	0.887378	-0.655412	1.078563
N72	N	0.851501	-0.711790	1.107833
H73	H	1.056855	-0.389047	0.940279
H74	H	1.056810	-0.389176	0.584519
H75	H	0.947821	-1.078859	0.212188
C76	C	0.887312	-0.655596	0.574356
N77	N	0.851430	-0.712003	0.545063
H78	H	1.056824	-0.389126	0.712753
H79	H	0.592272	-0.389094	0.247754
C80	C	0.730615	-0.369604	0.235386
N81	N	0.759885	-0.313124	0.199578
C82	C	1.110548	-1.089483	0.361738
N83	N	1.163676	-1.121068	0.376022
C84	C	1.013700	-0.934833	0.458539
N85	N	1.027951	-0.903258	0.511693
H86	H	0.894761	-1.078428	0.409644
H87	H	0.864303	-0.945835	0.295507
C88	C	1.069243	-0.369537	1.078627
N89	N	1.105120	-0.313126	1.107923
C90	C	0.887328	-0.655528	0.722801
N91	N	0.851451	-0.711902	0.752074
