data_functionalizedCrystal
_audit_creation_method	'MofGen! by Chris Wilmer'
_symmetry_space_group_name_H-M	'P1'
_symmetry_Int_Tables_number	1
_symmetry_cell_setting	triclinic
loop_
_symmetry_equiv_pos_as_xyz
  x,y,z
_cell_length_a	14.853566
_cell_length_b	13.330367
_cell_length_c	10.723024
_cell_angle_alpha	89.996558
_cell_angle_beta	95.948858
_cell_angle_gamma	90.004705
loop_
_atom_site_label
_atom_site_type_symbol
_atom_site_fract_x
_atom_site_fract_y
_atom_site_fract_z
O1	O	1.197230	0.083355	-0.162908
O2	O	1.697230	0.583355	0.337092
O3	O	0.934872	0.083371	-0.182317
O4	O	1.434872	0.583371	0.317683
O5	O	1.072103	0.083359	0.009025
O6	O	1.572103	0.583359	0.509025
O7	O	1.059999	0.083367	-0.354250
O8	O	1.559999	0.583367	0.145750
O9	O	1.072083	-0.083489	0.009029
O10	O	1.572083	0.416511	0.509029
O11	O	0.934852	-0.083476	-0.182313
O12	O	1.434852	0.416524	0.317687
O13	O	1.197210	-0.083493	-0.162904
O14	O	1.697210	0.416507	0.337096
Cu15	Cu	1.066029	-0.098719	-0.172608
Cu16	Cu	1.566029	0.401281	0.327392
Cu17	Cu	1.066053	0.098597	-0.172613
Cu18	Cu	1.566053	0.598597	0.327387
O19	O	1.059979	-0.083480	-0.354246
O20	O	1.559979	0.416520	0.145754
C21	C	0.901269	-0.000051	-0.181436
C22	C	1.401269	0.499949	0.318564
C23	C	0.801171	-0.000044	-0.178801
C24	C	1.301171	0.499956	0.321199
N25	N	1.066019	-0.237500	-0.172603
N26	N	1.566019	0.262500	0.327397
C27	C	0.377939	0.090886	-0.167660
C28	C	0.877939	0.590886	0.332340
C29	C	0.377938	-0.091017	-0.167657
C30	C	0.877938	0.408983	0.332343
C31	C	0.471985	-0.091014	-0.170131
C32	C	0.971985	0.408986	0.329869
C33	C	0.519013	-0.000059	-0.171371
C34	C	1.019013	0.499941	0.328629
C35	C	0.471994	0.090892	-0.170138
C36	C	0.971994	0.590892	0.329862
C37	C	0.519010	-0.181964	-0.171376
C38	C	1.019010	0.318036	0.328624
C39	C	0.613063	-0.181964	-0.173852
C40	C	1.113063	0.318036	0.326148
C41	C	0.660094	-0.091009	-0.175084
C42	C	1.160094	0.408991	0.324916
C43	C	0.613069	-0.000054	-0.173849
C44	C	1.113069	0.499946	0.326151
C45	C	0.660097	0.090901	-0.175090
C46	C	1.160097	0.590901	0.324910
C47	C	0.613075	0.181857	-0.173847
C48	C	1.113075	0.681857	0.326153
C49	C	0.519025	0.181848	-0.171370
C50	C	1.019025	0.681848	0.328630
C51	C	0.754143	-0.090999	-0.177560
C52	C	1.254143	0.409001	0.322440
C53	C	0.754152	0.090907	-0.177568
C54	C	1.254152	0.590907	0.322432
C55	C	1.005284	-0.710118	-0.257306
C56	C	1.505284	-0.210118	0.242694
C57	C	1.126846	-0.710097	-0.087910
C58	C	1.626846	-0.210097	0.412090
C59	C	1.126835	-0.605078	-0.087906
C60	C	1.626835	-0.105078	0.412094
C61	C	1.066050	-0.552575	-0.172605
C62	C	1.566050	-0.052575	0.327395
C63	C	1.005274	-0.605090	-0.257307
C64	C	1.505274	-0.105090	0.242693
C65	C	1.187616	-0.552556	-0.003214
C66	C	1.687616	-0.052556	0.496786
C67	C	1.187609	-0.447531	-0.003208
C68	C	1.687609	0.052469	0.496792
C69	C	1.126818	-0.395025	-0.087901
C70	C	1.626818	0.104975	0.412099
C71	C	1.066039	-0.447547	-0.172606
C72	C	1.566039	0.052453	0.327394
C73	C	1.005254	-0.395043	-0.257304
C74	C	1.505254	0.104957	0.242696
C75	C	0.944470	-0.447563	-0.342004
C76	C	1.444470	0.052437	0.157996
C77	C	0.944484	-0.552584	-0.342000
C78	C	1.444484	-0.052584	0.158000
C79	C	1.126805	-0.290004	-0.087905
C80	C	1.626805	0.209996	0.412095
C81	C	1.005244	-0.290015	-0.257306
C82	C	1.505244	0.209985	0.242694
C83	C	1.230813	-0.000069	-0.163785
C84	C	1.730813	0.499931	0.336215
C85	C	1.330911	-0.000069	-0.166420
C86	C	1.830911	0.499931	0.333580
C87	C	1.071212	-0.000064	0.055518
C88	C	1.571212	0.499936	0.555518
C89	C	1.068577	-0.000060	0.194045
C90	C	1.568577	0.499940	0.694045
N91	N	1.066070	0.237379	-0.172607
N92	N	1.566070	0.737379	0.327393
C93	C	1.060870	-0.000056	-0.400739
C94	C	1.560870	0.499944	0.099261
C95	C	1.063505	-0.000053	-0.539266
C96	C	1.563505	0.499947	-0.039266
C97	C	1.145364	-0.000063	0.269805
C98	C	1.645364	0.499937	0.769805
C99	C	1.142642	-0.000060	0.412981
C100	C	1.642642	0.499940	0.912981
H101	H	0.792436	0.164974	-0.178575
H102	H	1.292436	0.664974	0.321425
C103	C	1.236901	-0.000076	0.214238
C104	C	1.736901	0.499924	0.714238
N105	N	1.305850	-0.000090	0.172388
N106	N	1.805850	0.499910	0.672388
H107	H	1.176340	-0.752848	-0.018957
H108	H	1.676340	-0.252848	0.481043
H109	H	0.651376	0.255912	-0.174866
H110	H	1.151376	0.755912	0.325134
H111	H	0.894982	-0.404802	-0.410972
H112	H	1.394982	0.095198	0.089028
H113	H	1.208377	-0.000067	0.478079
H114	H	1.708377	0.499933	0.978079
C115	C	0.974692	-0.000048	0.372800
C116	C	1.474692	0.499952	0.872800
N117	N	0.907798	-0.000042	0.306559
N118	N	1.407798	0.499958	0.806559
H119	H	1.237101	-0.404776	0.065760
H120	H	1.737101	0.095224	0.565760
H121	H	1.000822	-0.000049	0.235182
H122	H	1.500822	0.499951	0.735182
H123	H	1.176298	-0.247247	-0.018949
H124	H	1.676298	0.252753	0.481051
C125	C	0.467293	0.281890	-0.170011
C126	C	0.967293	0.781890	0.329989
N127	N	0.428324	0.357242	-0.168991
N128	N	0.928324	0.857242	0.331009
C129	C	0.938419	-0.767889	-0.350463
C130	C	1.438419	-0.267889	0.149537
N131	N	0.888054	-0.811404	-0.420627
N132	N	1.388054	-0.311404	0.079373
C133	C	0.326214	0.190933	-0.166292
C134	C	0.826214	0.690933	0.333708
N135	N	0.287254	0.266289	-0.165262
N136	N	0.787254	0.766289	0.334738
H137	H	0.480712	-0.256014	-0.170374
H138	H	0.980712	0.243986	0.329626
C139	C	0.326204	-0.191061	-0.166296
C140	C	0.826204	0.308939	0.333704
N141	N	0.287234	-0.266419	-0.165268
N142	N	0.787234	0.233581	0.334732
H143	H	0.651341	-0.256026	-0.174862
H144	H	1.151341	0.243974	0.325138
H145	H	0.792424	-0.165054	-0.178585
H146	H	1.292424	0.334946	0.321415
H147	H	0.955741	-0.247273	-0.326273
H148	H	1.455741	0.252727	0.173727
H149	H	0.894996	-0.595352	-0.410961
H150	H	1.394996	-0.095352	0.089039
H151	H	1.237110	-0.595307	0.065739
H152	H	1.737110	-0.095307	0.565739
