data_functionalizedCrystal
_audit_creation_method	'MofGen! by Chris Wilmer'
_symmetry_space_group_name_H-M	'P1'
_symmetry_Int_Tables_number	1
_symmetry_cell_setting	triclinic
loop_
_symmetry_equiv_pos_as_xyz
  x,y,z
_cell_length_a	14.628931
_cell_length_b	14.628931
_cell_length_c	18.878441
_cell_angle_alpha	59.998385
_cell_angle_beta	89.998447
_cell_angle_gamma	60.000000
loop_
_atom_site_label
_atom_site_type_symbol
_atom_site_fract_x
_atom_site_fract_y
_atom_site_fract_z
Zr1	Zr	0.880623	1.000578	-0.092959
O2	O	0.734664	1.191287	-0.206065
O3	O	0.925366	0.809872	-0.058285
O4	O	0.925370	1.000581	-0.206065
O5	O	0.734658	1.000575	0.058285
O6	O	1.075802	1.000580	-0.206065
O7	O	0.734661	1.000578	-0.058286
O8	O	1.075796	0.659436	0.058286
O9	O	0.734665	1.341719	-0.206066
O10	O	1.056715	0.888311	-0.043498
O11	O	0.944447	0.888309	0.043498
O12	O	0.944452	1.112845	-0.130494
O13	O	0.832184	1.112843	-0.043498
Zr14	Zr	1.120540	1.000573	0.092959
Zr15	Zr	1.120544	1.000577	-0.092958
Zr16	Zr	0.880618	1.000574	0.092958
Zr17	Zr	0.880623	1.240500	-0.092959
Zr18	Zr	1.120540	0.760651	0.092959
O19	O	1.075796	1.191280	0.058285
O20	O	1.075802	1.191286	-0.206065
O21	O	0.734658	1.191281	0.058285
O22	O	1.266498	0.809864	0.206065
O23	O	1.266504	0.809871	-0.058285
O24	O	0.925360	0.809865	0.206065
O25	O	1.266505	1.000576	-0.058285
O26	O	1.075793	1.000570	0.206065
O27	O	0.925361	1.000571	0.206065
O28	O	1.266502	1.000573	0.058286
O29	O	0.925371	1.341718	-0.206065
O30	O	1.075792	0.659433	0.206065
O31	O	1.266498	0.659432	0.206066
O32	O	1.266501	0.659436	0.058286
O33	O	0.734661	1.341715	-0.058286
O34	O	0.925367	1.341715	-0.058286
O35	O	1.056711	0.888307	0.130494
O36	O	1.168979	0.888308	0.043498
O37	O	1.056715	1.112842	-0.043498
O38	O	0.944448	1.112840	0.043498
C39	C	1.000581	0.700470	0.000000
C40	C	1.000581	0.598617	0.000000
C41	C	1.056273	0.553209	-0.043155
C42	C	1.056274	0.447939	-0.043156
C43	C	0.700476	1.000576	-0.000000
C44	C	0.598623	1.000577	-0.000000
C45	C	0.608904	0.889193	0.043155
C46	C	0.503634	0.889191	0.043156
C47	C	1.300687	1.000575	0.000000
C48	C	1.402540	1.000574	0.000000
C49	C	1.000587	1.000581	-0.232554
C50	C	1.000589	1.000583	-0.311481
C51	C	1.000582	1.300681	-0.000000
C52	C	1.000582	1.402534	-0.000000
C53	C	0.917701	1.000567	-0.651437
C54	C	0.917707	1.000562	-0.577276
C55	C	1.000582	1.000568	-0.540202
C56	C	1.083464	1.000565	-0.577287
C57	C	1.083462	1.000561	-0.651443
C58	C	1.083461	1.000578	-0.422723
C59	C	1.083462	1.000585	-0.348563
C60	C	0.917706	1.000579	-0.348556
C61	C	0.917704	1.000574	-0.422712
C62	C	1.000584	1.000574	-0.459793
C63	C	1.000576	1.000570	0.232554
C64	C	1.000574	1.000568	0.311481
C65	C	1.300687	0.700469	0.000001
C66	C	1.402540	0.598616	0.000001
C67	C	1.000576	0.700465	0.232554
C68	C	1.000574	0.598610	0.311481
C69	C	1.300681	0.700464	0.232555
C70	C	1.402532	0.598609	0.311482
C71	C	0.700481	1.300687	-0.232555
C72	C	0.598630	1.402542	-0.311482
C73	C	0.700476	1.300682	-0.000001
C74	C	0.598623	1.402535	-0.000001
C75	C	1.000587	1.300686	-0.232554
C76	C	1.000589	1.402541	-0.311481
C77	C	1.059173	0.550776	0.393965
C78	C	1.059167	0.455086	0.468132
C79	C	1.000567	0.407225	0.459814
C80	C	0.941961	0.455068	0.377322
C81	C	0.941961	0.550763	0.303156
C82	C	1.508976	0.550777	0.303136
C83	C	1.604685	0.455087	0.377289
C84	C	1.593948	0.407223	0.459787
C85	C	1.487494	0.455064	0.468131
C86	C	1.391787	0.550759	0.393979
C87	C	0.492187	1.450385	-0.303136
C88	C	0.396478	1.546106	-0.377289
C89	C	0.407214	1.593975	-0.459787
C90	C	0.513669	1.546128	-0.468131
C91	C	0.609375	1.450416	-0.393979
C92	C	1.059200	1.450372	-0.303135
C93	C	1.059224	1.546063	-0.377288
C94	C	1.000629	1.593928	-0.459787
C95	C	0.942016	1.546087	-0.468131
C96	C	0.942000	1.450391	-0.393979
C97	C	1.392258	0.553208	-0.043155
C98	C	1.497527	0.447937	-0.043156
H99	H	1.103958	0.592261	-0.080098
Br100	Br	1.138713	0.390176	0.580074
Br101	Br	0.921093	0.467618	0.061578
H102	H	1.305523	0.592272	-0.080105
H103	H	0.393904	1.095939	-0.036952
Br104	Br	1.547100	0.533535	0.061576
Br105	Br	0.277314	1.723871	-0.560416
H106	H	0.894267	1.411458	-0.400786
Br107	Br	0.862438	0.390098	0.366048
H108	H	1.000651	1.671850	-0.520159
Br109	Br	1.135739	0.382870	-0.104749
H110	H	1.488900	0.408883	-0.080100
H111	H	1.106915	1.411416	-0.235968
H112	H	1.478769	0.416079	0.535311
Br113	Br	0.753831	1.385491	-0.405321
H114	H	1.305120	0.589691	0.400787
Br115	Br	1.000578	0.277352	0.560478
H116	H	0.952904	0.559556	0.036949
H117	H	1.150947	1.000562	-0.547093
Br118	Br	0.805238	1.000553	-0.526946
Br119	Br	0.753464	0.730246	0.104763
H120	H	0.850216	1.000579	-0.452902
Br121	Br	0.454062	1.159523	-0.061576
Br122	Br	0.518026	0.730241	0.104733
Br123	Br	1.138771	1.610974	-0.365944
H124	H	0.850210	1.000570	-0.681622
Br125	Br	1.138717	0.615704	0.405278
Br126	Br	0.805223	1.000587	-0.298233
H127	H	1.150948	1.000587	-0.318379
Br128	Br	0.252019	1.611018	-0.365945
Br129	Br	1.195949	1.000569	-0.473042
Br130	Br	1.195944	1.000550	-0.701764
H131	H	0.894246	0.589696	0.235997
Br132	Br	1.523577	0.615721	0.191183
H133	H	0.894310	1.585073	-0.535311
Br134	Br	0.477585	1.385438	-0.191183
H135	H	1.691356	0.416145	0.370480
H136	H	0.522397	1.585115	-0.535310
H137	H	1.671888	0.329302	0.520160
H138	H	1.607258	0.441568	0.036956
