data_functionalizedCrystal
_audit_creation_method	'MofGen! by Chris Wilmer'
_symmetry_space_group_name_H-M	'P1'
_symmetry_Int_Tables_number	1
_symmetry_cell_setting	triclinic
loop_
_symmetry_equiv_pos_as_xyz
  x,y,z
_cell_length_a	17.699083
_cell_length_b	12.837942
_cell_length_c	16.176319
_cell_angle_alpha	89.994101
_cell_angle_beta	89.998611
_cell_angle_gamma	89.055978
loop_
_atom_site_label
_atom_site_type_symbol
_atom_site_fract_x
_atom_site_fract_y
_atom_site_fract_z
O1	O	1.013708	0.131067	-0.068629
O2	O	0.794582	0.148119	-0.068656
O3	O	0.899286	-0.011297	-0.068638
O4	O	0.909004	0.290484	-0.068647
O5	O	0.899269	-0.011307	0.068855
O6	O	0.794565	0.148109	0.068837
O7	O	1.013691	0.131057	0.068864
Cu8	Cu	0.904126	0.139582	0.081405
Cu9	Cu	0.904146	0.139594	-0.081197
O10	O	0.908987	0.290474	0.068846
C11	C	0.766332	0.147503	0.000087
C12	C	0.682179	0.145670	0.000077
C13	C	0.895995	-0.049915	0.000108
C14	C	0.886204	-0.164967	0.000105
C15	C	0.640432	0.239245	0.000074
C16	C	0.561362	0.237516	0.000085
C17	C	0.524040	0.142212	0.000092
C18	C	0.565792	0.048631	0.000097
C19	C	0.644861	0.050360	0.000093
C20	C	0.246916	0.041653	0.000118
C21	C	0.167842	0.039931	0.000120
C22	C	0.163418	0.228809	0.000111
C23	C	0.242486	0.230539	0.000106
C24	C	0.284232	0.136958	0.000115
C25	C	0.369969	0.138833	0.000105
C26	C	0.438304	0.140336	0.000097
C27	C	1.003908	-0.406222	0.000102
C28	C	0.994712	-0.514324	0.000100
C29	C	0.858617	-0.489277	0.000092
C30	C	0.867813	-0.381174	0.000094
C31	C	0.940461	-0.339651	0.000101
C32	C	0.949656	-0.231546	0.000109
C33	C	0.813561	-0.206501	0.000095
C34	C	0.804365	-0.314604	0.000093
C35	C	1.041941	0.131673	0.000119
C36	C	1.126094	0.133506	0.000124
C37	C	0.912278	0.329091	0.000099
C38	C	0.922069	0.444144	0.000096
N39	N	0.904118	0.139573	0.195770
N40	N	0.904160	0.139595	-0.195562
C41	C	0.950499	0.069012	0.239042
C42	C	0.950502	0.069011	0.325589
C43	C	0.904129	0.139577	0.368863
C44	C	0.857743	0.210141	0.325584
C45	C	0.857736	0.210136	0.239039
C46	C	0.857771	0.210161	0.674613
C47	C	0.857783	0.210162	0.761164
C48	C	0.950537	0.069035	0.761163
C49	C	0.950530	0.069031	0.674617
C50	C	0.904141	0.139591	0.631347
C51	C	0.904137	0.139590	0.537503
C52	C	0.904137	0.139584	0.462705
H53	H	0.527375	0.313714	0.000082
H54	H	0.799470	-0.523105	0.000077
H55	H	1.008809	-0.197740	0.000117
H56	H	1.063061	-0.372413	0.000116
H57	H	0.129419	0.305007	0.000107
O58	O	0.812638	0.278568	0.632545
C59	C	0.710911	0.300829	0.534800
C60	C	0.761957	0.223236	0.582411
H61	H	0.669934	0.256124	0.494242
H62	H	0.677717	0.351260	0.580555
H63	H	0.747336	0.352559	0.494311
H64	H	0.725589	0.171438	0.622902
H65	H	0.795157	0.172878	0.536612
O66	O	1.056425	-0.578844	0.000140
C67	C	1.192384	-0.592275	0.000096
C68	C	1.122556	-0.519088	0.000072
H69	H	1.245868	-0.543992	0.000023
H70	H	1.191532	-0.643502	0.057649
H71	H	1.191441	-0.643524	-0.057432
H72	H	1.123453	-0.467774	0.057561
H73	H	1.123434	-0.467932	-0.057519
H74	H	0.988268	0.011555	0.360821
O75	O	0.812582	0.278582	0.367583
C76	C	0.685383	0.339573	0.394039
C77	C	0.736439	0.261987	0.346441
H78	H	0.623812	0.326197	0.376951
H79	H	0.693291	0.327457	0.463339
H80	H	0.701261	0.422562	0.377022
H81	H	0.720593	0.178968	0.363389
H82	H	0.728524	0.274194	0.277154
H83	H	0.745217	-0.348427	0.000084
H84	H	0.761898	-0.152287	0.000100
O85	O	0.995568	0.000364	0.197138
C86	C	1.087601	-0.139581	0.206282
C87	C	1.036585	-0.061905	0.253837
H88	H	1.120789	-0.189931	0.252102
H89	H	1.051229	-0.191377	0.165796
H90	H	1.128595	-0.094881	0.165731
H91	H	0.995583	-0.106520	0.294433
H92	H	1.073005	-0.010110	0.294270
H93	H	0.988294	0.011573	0.639387
H94	H	0.272870	0.308145	0.000096
H95	H	0.988306	0.011578	0.796403
H96	H	0.819967	0.267593	0.203807
O97	O	0.676565	0.331915	0.000103
C98	C	0.663821	0.519080	0.000048
C99	C	0.622809	0.414202	0.000032
H100	H	0.620379	0.585637	-0.000027
H101	H	0.700708	0.524680	0.057599
H102	H	0.700748	0.524561	-0.057482
H103	H	0.585843	0.408650	0.057523
H104	H	0.585969	0.408647	-0.057557
O105	O	0.131705	-0.052743	0.000169
C106	C	0.144433	-0.239910	0.000141
C107	C	0.185454	-0.135039	0.000106
H108	H	0.187870	-0.306473	0.000072
H109	H	0.107547	-0.245506	0.057696
H110	H	0.107504	-0.245384	-0.057386
H111	H	0.222422	-0.129495	0.057594
H112	H	0.222293	-0.129488	-0.057487
H113	H	0.820018	0.267627	0.796396
H114	H	0.535398	-0.028967	0.000115
O115	O	0.287576	-0.049151	0.000151
C116	C	0.411344	-0.130213	0.000086
C117	C	0.365386	-0.027295	0.000073
H118	H	0.474262	-0.112578	0.000006
H119	H	0.396947	-0.177149	0.057639
H120	H	0.396839	-0.177112	-0.057442
H121	H	0.379866	0.019687	0.057562
H122	H	0.379788	0.019562	-0.057518
O123	O	0.685301	-0.040633	0.000054
C124	C	0.681350	-0.228164	0.000110
C125	C	0.635461	-0.125189	0.000131
H126	H	0.641074	-0.296554	0.000191
H127	H	0.718458	-0.232144	-0.057445
H128	H	0.718500	-0.232023	0.057636
H129	H	0.598269	-0.121261	-0.057355
H130	H	0.598401	-0.121252	0.057725
