data_functionalizedCrystal
_audit_creation_method	'MofGen! by Chris Wilmer'
_symmetry_space_group_name_H-M	'P1'
_symmetry_Int_Tables_number	1
_symmetry_cell_setting	triclinic
loop_
_symmetry_equiv_pos_as_xyz
  x,y,z
_cell_length_a	9.065218
_cell_length_b	14.044220
_cell_length_c	7.540329
_cell_angle_alpha	89.995368
_cell_angle_beta	89.996962
_cell_angle_gamma	89.102381
loop_
_atom_site_label
_atom_site_type_symbol
_atom_site_fract_x
_atom_site_fract_y
_atom_site_fract_z
O1	O	1.975818	0.139141	-0.147493
O2	O	1.547798	0.150554	-0.147496
O3	O	1.755384	0.006808	-0.147477
O4	O	1.768233	0.282887	-0.147512
O5	O	1.755370	0.006806	0.147488
O6	O	1.547785	0.150552	0.147469
O7	O	1.975805	0.139139	0.147472
Cu8	Cu	1.761793	0.144845	0.174403
Cu9	Cu	1.761810	0.144848	-0.174427
O10	O	1.768219	0.282885	0.147453
C11	C	1.492683	0.149456	-0.000014
C12	C	1.328477	0.146176	-0.000014
C13	C	1.749752	-0.028556	0.000006
C14	C	1.732975	-0.133926	0.000008
C15	C	1.702304	-0.326850	-0.000017
C16	C	1.821293	-0.383462	-0.000022
C17	C	1.804226	-0.490812	-0.000036
C18	C	1.719368	-0.219491	-0.000003
C19	C	2.030920	0.140237	-0.000014
C20	C	2.195126	0.143517	-0.000025
C21	C	1.773850	0.318249	-0.000034
C22	C	1.790627	0.423619	-0.000048
N23	N	1.761793	0.144843	0.419752
N24	N	1.761821	0.144842	-0.419776
H25	H	1.935980	-0.351306	-0.000140
C26	C	1.547382	-0.370284	-0.000004
H27	H	1.556093	-0.437784	0.000006
H28	H	1.495232	-0.349935	-0.102854
H29	H	1.495253	-0.349947	0.102881
