data_functionalizedCrystal
_audit_creation_method	'MofGen! by Chris Wilmer'
_symmetry_space_group_name_H-M	'P1'
_symmetry_Int_Tables_number	1
_symmetry_cell_setting	triclinic
loop_
_symmetry_equiv_pos_as_xyz
  x,y,z
_cell_length_a	11.792241
_cell_length_b	23.532407
_cell_length_c	10.268362
_cell_angle_alpha	89.990068
_cell_angle_beta	89.999626
_cell_angle_gamma	83.521047
loop_
_atom_site_label
_atom_site_type_symbol
_atom_site_fract_x
_atom_site_fract_y
_atom_site_fract_z
O1	O	1.505071	0.078055	-0.108188
O2	O	1.174541	0.086099	-0.108220
O3	O	1.349773	-0.000795	-0.108179
O4	O	1.329839	0.164950	-0.108229
O5	O	1.349758	-0.000799	0.108421
O6	O	1.174526	0.086096	0.108380
O7	O	1.505056	0.078051	0.108412
Cu8	Cu	1.339790	0.082073	0.128174
Cu9	Cu	1.339808	0.082078	-0.127982
O10	O	1.329824	0.164946	0.108372
C11	C	1.132254	0.085592	0.000076
C12	C	1.006276	0.084080	0.000065
C13	C	1.349258	-0.022016	0.000124
C14	C	1.347732	-0.085242	0.000134
C15	C	0.775630	0.081299	0.000104
C16	C	0.903978	0.082844	0.000082
C17	C	1.441858	-0.483788	0.000072
C18	C	1.440440	-0.543196	0.000062
O19	O	1.527696	-0.579424	0.000022
N20	N	1.336265	-0.566440	0.000053
C21	C	1.233500	-0.530271	0.000040
O22	O	1.144761	-0.555497	0.000030
C23	C	1.234919	-0.470864	0.000041
C24	C	1.339102	-0.447624	0.000063
C25	C	1.546032	-0.460547	0.000093
C26	C	1.547449	-0.401142	0.000105
C27	C	1.444693	-0.364979	0.000097
C28	C	1.340519	-0.388219	0.000076
C29	C	1.132156	-0.434696	0.000019
C30	C	1.133584	-0.375285	0.000019
C31	C	1.237766	-0.352045	0.000041
C32	C	1.239180	-0.292651	0.000080
N33	N	1.343355	-0.269407	0.000089
C34	C	1.446112	-0.305571	0.000097
C35	C	1.230528	-0.655031	0.000036
C36	C	1.229108	-0.714438	0.000045
C37	C	1.436049	-0.727359	0.000064
C38	C	1.437468	-0.667951	0.000065
C39	C	1.334704	-0.631788	0.000046
C40	C	1.449080	-0.180817	0.000125
C41	C	1.450489	-0.121406	0.000142
C42	C	1.243549	-0.108491	0.000117
C43	C	1.242140	-0.167896	0.000106
C44	C	1.344915	-0.204058	0.000105
O45	O	1.151970	-0.256388	0.000114
O46	O	1.534837	-0.280337	0.000090
C47	C	1.547343	0.078558	0.000113
C48	C	1.673321	0.080071	0.000115
C49	C	1.330339	0.186167	0.000065
C50	C	1.331865	0.249393	0.000047
N51	N	1.339786	0.082070	0.308340
N52	N	1.339821	0.082076	-0.308148
C53	C	1.339802	0.082076	0.574010
C54	C	1.339789	0.082074	0.426172
H55	H	1.535330	-0.102488	0.000164
H56	H	1.047320	-0.453608	-0.000007
H57	H	1.629714	-0.489986	0.000095
H58	H	1.522302	-0.649034	0.000082
C59	C	1.549086	-0.767146	0.000062
C60	C	1.576556	-0.809778	0.112530
C61	C	1.689586	-0.849566	0.112529
C62	C	1.775147	-0.846722	0.000061
C63	C	1.747680	-0.804088	-0.112416
C64	C	1.634649	-0.764300	-0.112415
H65	H	1.513217	-0.811885	0.195793
H66	H	1.709919	-0.881127	0.195792
H67	H	1.858819	-0.876175	0.000060
H68	H	1.811019	-0.801981	-0.195679
H69	H	1.614317	-0.732739	-0.195678
H70	H	1.049899	-0.345843	0.000001
C71	C	1.117478	-0.615254	0.000039
C72	C	1.031924	-0.618088	-0.112436
C73	C	0.918875	-0.578314	-0.112435
C74	C	0.891380	-0.535707	0.000043
C75	C	0.976937	-0.532872	0.112527
C76	C	1.089986	-0.572645	0.112525
H77	H	1.052275	-0.649630	-0.195706
H78	H	0.855541	-0.580414	-0.195703
H79	H	0.807695	-0.506264	0.000044
H80	H	0.956586	-0.501330	0.195797
H81	H	1.153320	-0.570546	0.195794
C82	C	1.127545	-0.193468	0.000088
C83	C	1.042364	-0.179988	0.112550
C84	C	0.927770	-0.205557	0.112516
C85	C	0.898358	-0.244606	0.000019
C86	C	0.983541	-0.258087	-0.112452
C87	C	1.098135	-0.232519	-0.112418
H88	H	1.064135	-0.151080	0.195835
H89	H	0.864712	-0.195576	0.195775
H90	H	0.813528	-0.263533	-0.000007
H91	H	0.961771	-0.286995	-0.195737
H92	H	1.161194	-0.242499	-0.195677
H93	H	1.144273	-0.733354	0.000049
H94	H	1.159887	-0.079035	0.000114
H95	H	1.532770	-0.210254	0.000119
C96	C	1.662055	-0.375586	0.000104
C97	C	1.747225	-0.389103	0.112572
C98	C	1.861839	-0.363552	0.112560
C99	C	1.891282	-0.324485	0.000081
C100	C	1.806110	-0.310966	-0.112396
C101	C	1.691496	-0.336517	-0.112384
H102	H	1.725432	-0.418024	0.195843
H103	H	1.924889	-0.373560	0.195823
H104	H	1.976126	-0.305571	0.000072
H105	H	1.827904	-0.282044	-0.195667
H106	H	1.628446	-0.326509	-0.195647
