data_functionalizedCrystal
_audit_creation_method	'MofGen! by Chris Wilmer'
_symmetry_space_group_name_H-M	'P1'
_symmetry_Int_Tables_number	1
_symmetry_cell_setting	triclinic
loop_
_symmetry_equiv_pos_as_xyz
  x,y,z
_cell_length_a	10.654546
_cell_length_b	9.730223
_cell_length_c	16.109301
_cell_angle_alpha	90.001446
_cell_angle_beta	83.972482
_cell_angle_gamma	90.003777
loop_
_atom_site_label
_atom_site_type_symbol
_atom_site_fract_x
_atom_site_fract_y
_atom_site_fract_z
O1	O	1.666258	0.114325	0.116755
O2	O	1.300628	0.114321	0.127883
O3	O	1.493487	0.114309	0.001347
O4	O	1.473398	0.114337	0.243290
O5	O	1.493474	-0.114271	0.001355
O6	O	1.300615	-0.114258	0.127890
O7	O	1.666245	-0.114255	0.116762
Zn8	Zn	1.483428	-0.150549	0.122327
Zn9	Zn	1.483445	0.150615	0.122318
O10	O	1.473386	-0.114243	0.243297
C11	C	1.253834	0.000031	0.127070
C12	C	1.114424	0.000029	0.124627
N13	N	1.483426	-0.356085	0.122333
C14	C	1.048952	0.124634	0.123467
C15	C	0.917962	0.124645	0.121165
C16	C	0.917930	-0.124565	0.121180
C17	C	1.048916	-0.124575	0.123488
C18	C	1.048970	0.268514	0.123455
C19	C	0.917981	0.268525	0.121154
C20	C	1.559566	-0.428017	0.173222
C21	C	1.559585	-0.571900	0.173207
C22	C	1.407314	-0.571906	0.071410
C23	C	1.407303	-0.428026	0.071422
C24	C	1.647474	-0.428015	0.231997
C25	C	1.647493	-0.571898	0.231981
C26	C	1.713038	0.000039	0.117575
C27	C	1.852449	0.000049	0.120017
N28	N	1.483457	0.356152	0.122305
C29	C	1.492667	0.000019	-0.029629
C30	C	1.490227	0.000017	-0.121939
C31	C	1.598994	0.000039	-0.343565
C32	C	1.596692	0.000051	-0.430299
C33	C	1.367871	0.000043	-0.411783
C34	C	1.370174	0.000042	-0.325051
C35	C	1.485739	0.000033	-0.290944
C36	C	1.481134	0.000046	-0.464411
C37	C	1.478637	0.000058	-0.558452
C38	C	1.488237	0.000023	-0.196898
C39	C	1.474206	0.000051	0.274273
C40	C	1.476646	0.000062	0.366583
H41	H	1.102216	-0.226040	0.124441
O42	O	0.847199	-0.258955	0.120345
H43	H	0.745088	-0.238017	0.118688
O44	O	1.325233	-0.649508	0.016491
H45	H	1.272300	-0.575312	-0.018903
H46	H	1.273781	0.000048	-0.439564
O47	O	1.779034	-0.376249	0.204928
H48	H	1.843452	-0.465013	0.191658
O49	O	1.080803	0.341684	0.201215
H50	H	1.184662	0.341639	0.202991
O51	O	1.325198	-0.350429	0.016527
H52	H	1.224818	-0.378047	0.033994
O53	O	1.593992	-0.368902	0.314918
H54	H	1.565652	-0.453921	0.358873
H55	H	0.865468	0.313190	0.180361
H56	H	1.101498	0.313142	0.064245
O57	O	1.773267	-0.630988	0.197386
H58	H	1.796446	-0.595684	0.132057
H59	H	1.688915	0.000059	-0.473140
O60	O	1.248010	0.000035	-0.268292
H61	H	1.269030	0.000049	-0.202252
H62	H	0.893965	0.323760	0.062445
H63	H	1.615671	-0.610965	0.297540
H64	H	1.693094	0.000035	-0.315799
