data_functionalizedCrystal
_audit_creation_method	'MofGen! by Chris Wilmer'
_symmetry_space_group_name_H-M	'P1'
_symmetry_Int_Tables_number	1
_symmetry_cell_setting	triclinic
loop_
_symmetry_equiv_pos_as_xyz
  x,y,z
_cell_length_a	12.759401
_cell_length_b	12.594516
_cell_length_c	12.759393
_cell_angle_alpha	90.029993
_cell_angle_beta	90.021189
_cell_angle_gamma	90.018120
loop_
_atom_site_label
_atom_site_type_symbol
_atom_site_fract_x
_atom_site_fract_y
_atom_site_fract_z
Zn1	Zn	1.606230	-0.423681	0.594068
Zn2	Zn	1.606114	-0.601700	0.418393
Zn3	Zn	1.430532	-0.423736	0.418399
Zn4	Zn	1.430510	-0.601618	0.594026
O5	O	1.518346	-0.512684	0.506222
O6	O	1.753236	-0.447307	0.570780
O7	O	1.582783	-0.578150	0.271373
O8	O	1.453897	-0.274783	0.441722
O9	O	1.753150	-0.578097	0.441712
O10	O	1.582981	-0.274742	0.570786
O11	O	1.453784	-0.447401	0.271378
O12	O	1.283508	-0.447321	0.441682
O13	O	1.453859	-0.577956	0.741053
O14	O	1.283492	-0.578010	0.570714
O15	O	1.582960	-0.447227	0.741084
O16	O	1.582762	-0.750635	0.441671
O17	O	1.453746	-0.750574	0.570708
C18	C	1.245379	-0.512663	0.506195
C19	C	1.128602	-0.512680	0.506208
C20	C	0.963962	-0.580697	0.438948
C21	C	1.073686	-0.580677	0.438919
C22	C	1.073789	-0.444690	0.573524
C23	C	0.964067	-0.444705	0.573548
C24	C	0.963903	-0.659212	0.361238
C25	C	1.073627	-0.659192	0.361208
C26	C	1.518268	-0.789225	0.506207
C27	C	1.518330	-0.907530	0.506236
C28	C	1.448216	-1.047552	0.576384
C29	C	1.543997	-0.976640	0.602160
C30	C	1.422558	-0.976871	0.480508
C31	C	1.614333	-1.047403	0.532101
C32	C	1.492830	-1.047640	0.410404
C33	C	1.588678	-0.976760	0.436143
C34	C	1.792380	-0.512705	0.506250
C35	C	1.909156	-0.512714	0.506262
C36	C	1.518420	-0.512576	0.780255
C37	C	1.518451	-0.512530	0.897032
C38	C	1.518454	-0.235063	0.506259
C39	C	1.518500	-0.116757	0.506275
C40	C	1.518334	-0.512714	0.233254
C41	C	1.518506	-0.512460	0.116478
C42	C	1.585683	-0.444453	0.951912
C43	C	1.585708	-0.444415	1.061636
C44	C	1.451266	-0.580540	1.061591
C45	C	1.451237	-0.580572	0.951869
C46	C	1.663306	-0.365865	0.951939
C47	C	1.663331	-0.365827	1.061663
H48	H	1.103405	-0.741648	0.382863
H49	H	1.118511	-0.389318	0.628305
H50	H	1.740576	-0.395416	0.917907
H51	H	1.107617	-0.629573	0.283951
H52	H	1.641542	-0.283436	0.922180
C53	C	0.903787	-0.369915	0.647591
C54	C	0.918949	-0.378731	0.767009
C55	C	0.858673	-0.303937	0.841057
C56	C	0.783233	-0.220326	0.795688
C57	C	0.768068	-0.211506	0.676264
C58	C	0.828344	-0.286300	0.602215
H59	H	0.974797	-0.440628	0.800600
H60	H	0.869900	-0.310467	0.929463
H61	H	0.738613	-0.164959	0.850503
H62	H	0.712220	-0.149609	0.642673
H63	H	0.817117	-0.279771	0.513810
C64	C	1.773238	-0.395680	1.101920
C65	C	1.821521	-0.503771	1.072763
C66	C	1.931419	-0.533634	1.113025
C67	C	1.993033	-0.455405	1.182444
C68	C	1.944750	-0.347307	1.211605
C69	C	1.834853	-0.317445	1.171343
H70	H	1.775910	-0.561687	1.021372
H71	H	1.967160	-0.613655	1.091439
H72	H	2.074385	-0.477511	1.212249
H73	H	1.990361	-0.289391	1.262996
H74	H	1.799111	-0.237423	1.192929
H75	H	0.934084	-0.637045	0.279911
H76	H	1.396486	-0.636004	0.907190
C77	C	1.368120	-1.089558	0.656556
C78	C	1.276236	-1.159630	0.619836
C79	C	1.196148	-1.201639	0.700009
C80	C	1.207944	-1.173574	0.816903
C81	C	1.299832	-1.103498	0.853629
C82	C	1.379920	-1.061489	0.773456
H83	H	1.267500	-1.180409	0.533299
H84	H	1.128126	-1.253514	0.672821
H85	H	1.148658	-1.204671	0.876252
H86	H	1.308568	-1.082719	0.940166
H87	H	1.447942	-1.009614	0.800643
C88	C	1.313048	-0.935003	0.451082
C89	C	1.298893	-0.865155	0.353074
C90	C	1.189382	-0.823288	0.323661
C91	C	1.094026	-0.851268	0.392256
C92	C	1.108178	-0.921120	0.490270
C93	C	1.217689	-0.962988	0.519683
H94	H	1.369484	-0.844439	0.302290
H95	H	1.178907	-0.771578	0.251104
H96	H	1.012960	-0.820276	0.370483
H97	H	1.037587	-0.941837	0.541054
H98	H	1.228164	-1.014697	0.592240
H99	H	1.396541	-0.635935	1.106252
C100	C	1.624028	-0.260018	1.107667
C101	C	1.590322	-0.169391	1.034042
C102	C	1.551019	-0.063587	1.080048
C103	C	1.545422	-0.048409	1.199679
C104	C	1.579128	-0.139039	1.273311
C105	C	1.618431	-0.244844	1.227305
H106	H	1.594465	-0.180624	0.945477
H107	H	1.526067	0.003504	1.025539
H108	H	1.516327	0.029914	1.233735
H109	H	1.574986	-0.127806	1.361876
H110	H	1.643383	-0.311934	1.281813
C111	C	0.917923	-0.765047	0.400444
C112	C	0.943195	-0.869096	0.342283
C113	C	0.897214	-0.974930	0.381493
C114	C	0.825962	-0.976715	0.478862
C115	C	0.800687	-0.872661	0.537029
C116	C	0.846667	-0.766827	0.497819
H117	H	0.995943	-0.867779	0.270199
H118	H	0.915925	-1.051957	0.338433
H119	H	0.791925	-1.055059	0.507887
H120	H	0.747938	-0.873979	0.609113
H121	H	0.827956	-0.689800	0.540878
H122	H	1.695422	-1.078258	0.553972
C123	C	1.573238	-0.934501	0.711661
C124	C	1.596276	-1.012833	0.801384
C125	C	1.625508	-0.970698	0.910888
C126	C	1.631702	-0.850232	0.930669
C127	C	1.608664	-0.771893	0.840943
C128	C	1.579432	-0.814027	0.731439
H129	H	1.591691	-1.102015	0.786744
H130	H	1.642562	-1.028690	0.977309
H131	H	1.653341	-0.819041	1.011730
H132	H	1.613249	-0.682710	0.855583
H133	H	1.562378	-0.756035	0.665019
C134	C	1.463551	-1.089812	0.300932
C135	C	1.438578	-1.011516	0.211698
C136	C	1.409284	-1.053691	0.102226
C137	C	1.404964	-1.174163	0.081988
C138	C	1.429938	-1.252467	0.171225
C139	C	1.459231	-1.210291	0.280697
H140	H	1.441775	-0.922329	0.226677
H141	H	1.390797	-0.995724	0.036168
H142	H	1.383279	-1.205383	0.000950
H143	H	1.426740	-1.341653	0.156245
H144	H	1.477719	-1.268258	0.346755
H145	H	1.648111	-0.945873	0.376838
