data_functionalizedCrystal
_audit_creation_method	'MofGen! by Chris Wilmer'
_symmetry_space_group_name_H-M	'P1'
_symmetry_Int_Tables_number	1
_symmetry_cell_setting	triclinic
loop_
_symmetry_equiv_pos_as_xyz
  x,y,z
_cell_length_a	17.077404
_cell_length_b	18.215405
_cell_length_c	17.077396
_cell_angle_alpha	89.969540
_cell_angle_beta	89.981638
_cell_angle_gamma	90.021790
loop_
_atom_site_label
_atom_site_type_symbol
_atom_site_fract_x
_atom_site_fract_y
_atom_site_fract_z
Zn1	Zn	1.200050	-0.293024	-0.443808
Zn2	Zn	1.700050	0.206976	0.056192
Zn3	Zn	1.199954	-0.416098	-0.312537
Zn4	Zn	1.699954	0.083902	0.187463
Zn5	Zn	1.068781	-0.293045	-0.312559
Zn6	Zn	1.568781	0.206955	0.187441
Zn7	Zn	1.068747	-0.416049	-0.443764
Zn8	Zn	1.568747	0.083951	0.056236
O9	O	1.134383	-0.354554	-0.378167
O10	O	1.634383	0.145446	0.121833
O11	O	1.309884	-0.309362	-0.426404
O12	O	1.809884	0.190638	0.073596
O13	O	1.182529	-0.399804	-0.202693
O14	O	1.682529	0.100196	0.297307
O15	O	1.086248	-0.190058	-0.329997
O16	O	1.586248	0.309942	0.170003
O17	O	1.309814	-0.399783	-0.329961
O18	O	1.809814	0.100217	0.170039
O19	O	1.182691	-0.190043	-0.426425
O20	O	1.682691	0.309957	0.073575
O21	O	1.086156	-0.309397	-0.202709
O22	O	1.586156	0.190603	0.297291
O23	O	0.958930	-0.309350	-0.329954
O24	O	1.458930	0.190650	0.170046
O25	O	1.086190	-0.399701	-0.553617
O26	O	1.586190	0.100299	-0.053617
O27	O	0.958905	-0.399721	-0.426349
O28	O	1.458905	0.100279	0.073651
O29	O	1.182657	-0.309315	-0.553649
O30	O	1.682657	0.190685	-0.053649
O31	O	1.182495	-0.519075	-0.329918
O32	O	1.682495	-0.019075	0.170082
O33	O	1.086098	-0.519040	-0.426329
O34	O	1.586098	-0.019040	0.073671
C35	C	0.930435	-0.354533	-0.378149
C36	C	1.430435	0.145467	0.121851
C37	C	0.843185	-0.354542	-0.378160
C38	C	1.343185	0.145458	0.121840
C39	C	0.802232	-0.307543	-0.428455
C40	C	1.302232	0.192457	0.071545
C41	C	0.720252	-0.307548	-0.428459
C42	C	1.220252	0.192452	0.071541
C43	C	0.679226	-0.354556	-0.378171
C44	C	1.179226	0.145444	0.121829
C45	C	0.720185	-0.401557	-0.327871
C46	C	1.220185	0.098443	0.172129
C47	C	0.802164	-0.401548	-0.327864
C48	C	1.302164	0.098452	0.172136
C49	C	0.549315	-0.401573	-0.327890
C50	C	1.049315	0.098427	0.172110
C51	C	0.467330	-0.401583	-0.327898
C52	C	0.967330	0.098417	0.172102
C53	C	0.467403	-0.307574	-0.428486
C54	C	0.967403	0.192426	0.071514
C55	C	0.549382	-0.307565	-0.428479
C56	C	1.049382	0.192435	0.071521
C57	C	0.590335	-0.354567	-0.378179
C58	C	1.090335	0.145433	0.121821
C59	C	1.134304	-0.545760	-0.378133
C60	C	1.634304	-0.045760	0.121867
C61	C	1.134342	-0.627559	-0.378145
C62	C	1.634342	-0.127559	0.121855
C63	C	1.184683	-0.892611	-0.328050
C64	C	1.684683	-0.392611	0.171950
C65	C	1.184651	-0.815752	-0.328032
C66	C	1.684651	-0.315752	0.171968
C67	C	1.084180	-0.815756	-0.428337
C68	C	1.584180	-0.315756	0.071663
C69	C	1.084209	-0.892613	-0.428351
C70	C	1.584209	-0.392613	0.071649
C71	C	1.134465	-0.931039	-0.378208
C72	C	1.634465	-0.431039	0.121792
C73	C	1.134404	-0.777323	-0.378177
C74	C	1.634404	-0.277323	0.121823
C75	C	1.134368	-0.693989	-0.378158
C76	C	1.634368	-0.193989	0.121842
C77	C	1.134500	-1.014378	-0.378226
C78	C	1.634500	-0.514378	0.121774
C79	C	1.339127	-0.354575	-0.378185
C80	C	1.839127	0.145425	0.121815
C81	C	1.426377	-0.354585	-0.378193
C82	C	1.926377	0.145415	0.121807
C83	C	1.134431	-0.354500	-0.582911
C84	C	1.634431	0.145500	-0.082911
C85	C	1.134451	-0.354477	-0.670161
C86	C	1.634451	0.145523	-0.170161
C87	C	1.134484	-0.162601	-0.378218
C88	C	1.634484	0.337399	0.121782
C89	C	1.134527	-0.080802	-0.378240
C90	C	1.634527	0.419198	0.121760
C91	C	1.184683	-0.307409	-0.711170
C92	C	1.684683	0.192591	-0.211170
C93	C	1.184693	-0.307384	-0.793150
C94	C	1.684693	0.192616	-0.293150
C95	C	1.134473	-0.354432	-0.834121
C96	C	1.634473	0.145568	-0.334121
C97	C	1.084235	-0.401502	-0.793107
C98	C	1.584235	0.098498	-0.293107
C99	C	1.084222	-0.401522	-0.711128
C100	C	1.584222	0.098478	-0.211128
C101	C	1.084267	-0.401458	-0.963977
C102	C	1.584267	0.098542	-0.463977
C103	C	1.084281	-0.401439	-1.045961
C104	C	1.584281	0.098561	-0.545961
C105	C	1.184737	-0.307320	-1.045999
C106	C	1.684737	0.192680	-0.545999
C107	C	1.184724	-0.307340	-0.964020
C108	C	1.684724	0.192660	-0.464020
C109	C	1.134487	-0.354411	-0.923012
C110	C	1.634487	0.145589	-0.423012
C111	C	1.134381	-0.354555	-0.174219
C112	C	1.634381	0.145445	0.325781
C113	C	1.134513	-0.354371	-0.086970
C114	C	1.634513	0.145629	0.413030
H115	H	0.433929	-0.439862	-0.286949
H116	H	0.933929	0.060138	0.213051
O117	O	0.680508	-0.261973	-0.477431
O118	O	1.180508	0.238027	0.022569
C119	C	0.655534	-0.226386	-0.611028
C120	C	1.155534	0.273614	-0.111028
C121	C	0.700575	-0.278061	-0.555655
C122	C	1.200575	0.221939	-0.055655
H123	H	0.671753	-0.239365	-0.674283
H124	H	1.171753	0.260635	-0.174283
H125	H	0.589884	-0.234462	-0.602465
H126	H	1.089884	0.265538	-0.102465
H127	H	0.671660	-0.167032	-0.597318
H128	H	1.171660	0.332968	-0.097318
H129	H	0.684514	-0.337435	-0.569330
H130	H	1.184514	0.162565	-0.069330
H131	H	0.766214	-0.269922	-0.564228
H132	H	1.266214	0.230078	-0.064228
O133	O	1.035541	-0.447282	-0.671198
O134	O	1.535541	0.052718	-0.171198
C135	C	1.024926	-0.546687	-0.578639
C136	C	1.524926	-0.046687	-0.078639
C137	C	1.080147	-0.494900	-0.623797
C138	C	1.580147	0.005100	-0.123797
H139	H	1.060969	-0.585209	-0.540317
H140	H	1.560969	-0.085209	-0.040317
H141	H	0.983908	-0.512943	-0.540208
H142	H	1.483908	-0.012943	-0.040208
H143	H	0.989016	-0.580281	-0.622011
H144	H	1.489016	-0.080281	-0.122011
H145	H	1.116109	-0.461295	-0.580481
H146	H	1.616109	0.038705	-0.080481
H147	H	1.121114	-0.528687	-0.662240
H148	H	1.621114	-0.028687	-0.162240
O149	O	0.589186	-0.447268	-0.279140
O150	O	1.089186	0.052732	0.220860
C151	C	0.681675	-0.546634	-0.268394
C152	C	1.181675	-0.046634	0.231606
C153	C	0.636583	-0.494919	-0.323683
C154	C	1.136583	0.005081	0.176317
H155	H	0.719995	-0.585183	-0.304385
H156	H	1.219995	-0.085183	0.195615
H157	H	0.720103	-0.512835	-0.227422
H158	H	1.220103	-0.012835	0.272578
H159	H	0.638260	-0.580203	-0.232436
H160	H	1.138260	-0.080203	0.267564
H161	H	0.679942	-0.461339	-0.359692
H162	H	1.179942	0.038661	0.140308
H163	H	0.598144	-0.528759	-0.364603
H164	H	1.098144	-0.028759	0.135397
H165	H	1.043312	-0.923902	-0.469197
H166	H	1.543312	-0.423902	0.030803
H167	H	1.225542	-0.784466	-0.287187
H168	H	1.725542	-0.284466	0.212813
H169	H	1.225604	-0.923895	-0.287220
H170	H	1.725604	-0.423895	0.212780
O171	O	0.680371	-0.447143	-0.278909
O172	O	1.180371	0.052857	0.221091
C173	C	0.655259	-0.482746	-0.145321
C174	C	1.155259	0.017254	0.354679
C175	C	0.700380	-0.431057	-0.200678
C176	C	1.200380	0.068943	0.299322
H177	H	0.671432	-0.469769	-0.082061
H178	H	1.171432	0.030231	0.417939
H179	H	0.589622	-0.474680	-0.153897
H180	H	1.089622	0.025320	0.346103
H181	H	0.671361	-0.542096	-0.159032
H182	H	1.171361	-0.042096	0.340968
H183	H	0.684343	-0.371688	-0.187001
H184	H	1.184343	0.128312	0.312999
H185	H	0.766006	-0.439186	-0.192092
H186	H	1.266006	0.060814	0.307908
H187	H	1.043346	-0.439776	-0.930590
H188	H	1.543346	0.060224	-0.430590
H189	H	0.835630	-0.269266	-0.469408
H190	H	1.335630	0.230734	0.030592
H191	H	1.225580	-0.269099	-0.677817
H192	H	1.725580	0.230901	-0.177817
H193	H	1.225641	-0.268992	-1.079392
H194	H	1.725641	0.231008	-0.579392
O195	O	1.035443	-0.778314	-0.477023
O196	O	1.535443	-0.278314	0.022977
C197	C	0.990841	-0.659913	-0.521428
C198	C	1.490841	-0.159913	-0.021428
C199	C	1.046087	-0.702222	-0.466262
C200	C	1.546087	-0.202222	0.033738
H201	H	0.999415	-0.598386	-0.512735
H202	H	1.499415	-0.098386	-0.012735
H203	H	1.004592	-0.674921	-0.584757
H204	H	1.504592	-0.174921	-0.084757
H205	H	0.927568	-0.675120	-0.507594
H206	H	1.427568	-0.175120	-0.007594
H207	H	1.109378	-0.687038	-0.480025
H208	H	1.609378	-0.187038	0.019975
H209	H	1.032268	-0.687211	-0.402949
H210	H	1.532268	-0.187211	0.097051
O211	O	0.589323	-0.261868	-0.477219
O212	O	1.089323	0.238132	0.022781
C213	C	0.681886	-0.162489	-0.487956
C214	C	1.181886	0.337511	0.012044
C215	C	0.636714	-0.214206	-0.432671
C216	C	1.136714	0.285794	0.067329
H217	H	0.720199	-0.123931	-0.451960
H218	H	1.220199	0.376069	0.048040
H219	H	0.720326	-0.196284	-0.528917
H220	H	1.220326	0.303716	-0.028917
H221	H	0.638522	-0.128929	-0.523925
H222	H	1.138522	0.371071	-0.023925
H223	H	0.680021	-0.247777	-0.396651
H224	H	1.180021	0.252223	0.103349
H225	H	0.598262	-0.180368	-0.391762
H226	H	1.098262	0.319632	0.108238
O227	O	1.035421	-0.447160	-1.085640
O228	O	1.535421	0.052840	-0.585640
C229	C	0.935805	-0.540539	-1.076957
C230	C	1.435805	-0.040539	-0.576957
C231	C	0.991085	-0.488785	-1.031923
C232	C	1.491085	0.011215	-0.531923
H233	H	0.899957	-0.574217	-1.033546
H234	H	1.399957	-0.074217	-0.533546
H235	H	0.894738	-0.506767	-1.115321
H236	H	1.394738	-0.006767	-0.615321
H237	H	0.971842	-0.578984	-1.115352
H238	H	1.471842	-0.078984	-0.615352
H239	H	0.955112	-0.450328	-0.993485
H240	H	1.455112	0.049672	-0.493485
H241	H	1.032154	-0.522602	-0.993608
H242	H	1.532154	-0.022602	-0.493608
H243	H	0.835507	-0.439818	-0.286908
H244	H	1.335507	0.060182	0.213092
H245	H	1.225599	-0.269059	-0.826535
H246	H	1.725599	0.230941	-0.326535
H247	H	1.225622	-0.269034	-0.930664
H248	H	1.725622	0.230966	-0.430664
H249	H	0.434055	-0.269301	-0.469440
H250	H	0.934055	0.230699	0.030560
O251	O	1.035490	-0.447306	-0.832818
O252	O	1.535490	0.052694	-0.332818
C253	C	0.997356	-0.572481	-0.857895
C254	C	1.497356	-0.072481	-0.357895
C255	C	1.052595	-0.520688	-0.812862
C256	C	1.552595	-0.020688	-0.312862
H257	H	1.011176	-0.631822	-0.841790
H258	H	1.511176	-0.131822	-0.341790
H259	H	0.934051	-0.559615	-0.841757
H260	H	1.434051	-0.059615	-0.341757
H261	H	1.005982	-0.564346	-0.923528
H262	H	1.505982	-0.064346	-0.423528
H263	H	1.044038	-0.528795	-0.747219
H264	H	1.544038	-0.028795	-0.247219
H265	H	1.115879	-0.533567	-0.829065
H266	H	1.615879	-0.033567	-0.329065
