data_functionalizedCrystal
_audit_creation_method	'MofGen! by Chris Wilmer'
_symmetry_space_group_name_H-M	'P1'
_symmetry_Int_Tables_number	1
_symmetry_cell_setting	triclinic
loop_
_symmetry_equiv_pos_as_xyz
  x,y,z
_cell_length_a	13.262522
_cell_length_b	9.130313
_cell_length_c	10.654550
_cell_angle_alpha	89.999890
_cell_angle_beta	84.457671
_cell_angle_gamma	74.084003
loop_
_atom_site_label
_atom_site_type_symbol
_atom_site_fract_x
_atom_site_fract_y
_atom_site_fract_z
O1	O	1.393877	-0.677022	0.169112
O2	O	1.088432	-0.555355	0.187514
O3	O	1.248177	-0.618980	-0.004463
O4	O	1.234131	-0.613397	0.361089
O5	O	1.248175	-0.375381	-0.004458
O6	O	1.088430	-0.311756	0.187519
O7	O	1.393875	-0.433422	0.169117
Cu8	Cu	1.241152	-0.350346	0.178318
Cu9	Cu	1.241154	-0.638431	0.178312
O10	O	1.234129	-0.369797	0.361094
C11	C	1.049320	-0.417977	0.186486
C12	C	0.932781	-0.371557	0.183403
C13	C	1.247145	-0.496772	-0.051253
C14	C	1.244059	-0.495548	-0.190680
C15	C	0.878037	-0.216954	0.181960
C16	C	0.768545	-0.173329	0.179051
C17	C	0.713785	-0.284301	0.177595
C18	C	0.768528	-0.438907	0.179048
C19	C	0.878032	-0.482537	0.181947
C20	C	0.713779	-0.549884	0.177583
C21	C	0.768522	-0.704489	0.179035
C22	C	0.878015	-0.748111	0.181935
C23	C	0.932775	-0.637139	0.183391
C24	C	0.604275	-0.506253	0.174683
C25	C	0.604269	-0.771836	0.174671
C26	C	0.713761	-0.815461	0.177580
C27	C	1.432987	-0.570804	0.170144
C28	C	1.549525	-0.617233	0.173227
N29	N	1.241158	-0.147726	0.178322
N30	N	1.241157	-0.841055	0.178299
C31	C	1.311912	-0.099255	0.093343
C32	C	1.311909	0.054083	0.093328
C33	C	1.170395	0.110466	0.263281
C34	C	1.170394	-0.042867	0.263289
C35	C	1.382676	-0.204113	0.008376
C36	C	1.453436	-0.155644	-0.076608
C37	C	1.453433	-0.002306	-0.076623
C38	C	1.382670	0.102563	0.008346
C39	C	1.338115	-0.533008	-0.270657
C40	C	1.335209	-0.531861	-0.401663
C41	C	1.144184	-0.455784	-0.372702
C42	C	1.147091	-0.456942	-0.241699
C43	C	1.435083	-0.571614	-0.219639
C44	C	1.529146	-0.609075	-0.299618
C45	C	1.526241	-0.607928	-0.430623
C46	C	1.429272	-0.569319	-0.481650
C47	C	1.235162	-0.492009	0.407884
C48	C	1.238247	-0.493243	0.547311
H49	H	0.559713	-0.380373	0.173511
O50	O	1.045647	-0.416520	-0.155427
H51	H	0.999284	-0.497332	-0.173628
H52	H	1.511041	0.037158	-0.145829
H53	H	0.922634	-0.126618	0.183135
O54	O	1.039601	-0.414115	-0.427730
H55	H	1.053382	-0.419584	-0.532261
H56	H	1.437459	-0.572547	-0.112969
H57	H	0.624631	-0.248772	0.175229
H58	H	1.511043	-0.241033	-0.145795
H59	H	1.112784	0.195859	0.332461
H60	H	1.021933	-0.672651	0.185763
H61	H	1.382666	0.227421	0.008318
H62	H	0.723983	-0.047450	0.177851
H63	H	0.559683	-0.862199	0.173488
H64	H	0.922585	-0.874002	0.183101
O65	O	1.094090	-0.095168	0.354948
H66	H	1.044896	0.003499	0.414045
H67	H	1.608095	-0.640546	-0.258062
O68	O	1.627686	-0.648323	-0.516892
H69	H	1.695598	-0.675347	-0.459401
O70	O	1.382672	-0.369495	0.008376
H71	H	1.461223	-0.441216	0.028927
O72	O	1.426131	-0.568077	-0.622950
H73	H	1.507826	-0.600606	-0.669995
H74	H	0.758348	-0.941343	0.178762
