data_functionalizedCrystal
_audit_creation_method	'MofGen! by Chris Wilmer'
_symmetry_space_group_name_H-M	'P1'
_symmetry_Int_Tables_number	1
_symmetry_cell_setting	triclinic
loop_
_symmetry_equiv_pos_as_xyz
  x,y,z
_cell_length_a	23.532407
_cell_length_b	23.532407
_cell_length_c	8.140239
_cell_angle_alpha	89.991844
_cell_angle_beta	89.999964
_cell_angle_gamma	82.848712
loop_
_atom_site_label
_atom_site_type_symbol
_atom_site_fract_x
_atom_site_fract_y
_atom_site_fract_z
O1	O	0.755258	0.069134	-0.136526
O2	O	1.088591	0.402468	0.196807
O3	O	1.421925	0.735801	0.530140
O4	O	0.589395	0.079138	-0.136555
O5	O	0.922728	0.412471	0.196779
O6	O	1.256061	0.745804	0.530112
O7	O	0.677328	-0.008796	-0.136510
O8	O	1.010661	0.324538	0.196824
O9	O	1.343995	0.657871	0.530157
O10	O	0.667325	0.157068	-0.136571
O11	O	1.000658	0.490401	0.196762
O12	O	1.333991	0.823734	0.530095
O13	O	0.677323	-0.008797	0.136718
O14	O	1.010657	0.324537	0.470051
O15	O	1.343990	0.657870	0.803384
O16	O	0.589390	0.079137	0.136672
O17	O	0.922723	0.412470	0.470006
O18	O	1.256057	0.745803	0.803339
O19	O	0.755253	0.069133	0.136701
O20	O	1.088587	0.402467	0.470034
O21	O	1.421920	0.735800	0.803367
Zn22	Zn	0.672321	0.074135	0.180067
Zn23	Zn	1.005654	0.407468	0.513401
Zn24	Zn	1.338987	0.740802	0.846734
Zn25	Zn	0.672327	0.074136	-0.179921
Zn26	Zn	1.005660	0.407469	0.153412
Zn27	Zn	1.338994	0.740803	0.486746
O28	O	0.667320	0.157067	0.136656
O29	O	1.000653	0.490400	0.469989
O30	O	1.333987	0.823733	0.803322
C31	C	0.568176	0.078882	0.000056
C32	C	0.901510	0.412216	0.333389
C33	C	1.234843	0.745549	0.666722
C34	C	0.504959	0.078116	0.000046
C35	C	0.838293	0.411450	0.333380
C36	C	1.171626	0.744783	0.666713
C37	C	0.238792	0.022921	0.000112
C38	C	0.572125	0.356254	0.333445
C39	C	0.905458	0.689588	0.666778
C40	C	0.298192	0.023632	0.000111
C41	C	0.631525	0.356966	0.333444
C42	C	0.964859	0.690299	0.666777
O43	O	0.334937	-0.020153	0.000184
O44	O	0.668270	0.313180	0.333517
O45	O	1.001603	0.646513	0.666851
N46	N	0.320818	0.075909	0.000080
N47	N	0.654152	0.409242	0.333413
N48	N	0.987485	0.742575	0.666747
C49	C	0.284041	0.127477	0.000067
C50	C	0.617374	0.460810	0.333400
C51	C	0.950707	0.794144	0.666734
O52	O	0.308740	0.172007	0.000042
O53	O	0.642074	0.505341	0.333376
O54	O	0.975407	0.838674	0.666709
C55	C	0.224642	0.126765	0.000079
C56	C	0.557975	0.460098	0.333413
C57	C	0.891308	0.793432	0.666746
C58	C	0.202019	0.074485	0.000093
C59	C	0.535352	0.407819	0.333427
C60	C	0.868686	0.741152	0.666760
C61	C	0.216169	-0.029354	0.000127
C62	C	0.549502	0.303979	0.333461
C63	C	0.882835	0.637312	0.666794
C64	C	0.156772	-0.030066	0.000125
C65	C	0.490106	0.303268	0.333458
C66	C	0.823439	0.636601	0.666792
C67	C	0.119999	0.021499	0.000107
C68	C	0.453333	0.354832	0.333440
C69	C	0.786666	0.688165	0.666773
C70	C	0.142623	0.073774	0.000091
C71	C	0.475956	0.407107	0.333424
C72	C	0.809289	0.740441	0.666758
C73	C	0.187865	0.178333	0.000078
C74	C	0.521199	0.511666	0.333411
C75	C	0.854532	0.844999	0.666744
C76	C	0.128463	0.177616	0.000092
C77	C	0.461796	0.510949	0.333425
C78	C	0.795129	0.844283	0.666758
C79	C	0.105840	0.125336	0.000106
C80	C	0.439173	0.458670	0.333439
C81	C	0.772507	0.792003	0.666772
C82	C	0.046454	0.124627	0.000070
C83	C	0.379787	0.457960	0.333404
C84	C	0.713120	0.791294	0.666737
N85	N	0.023828	0.072351	0.000101
N86	N	0.357161	0.405684	0.333434
N87	N	0.690494	0.739017	0.666768
C88	C	0.060600	0.020787	0.000119
C89	C	0.393934	0.354120	0.333453
C90	C	0.727267	0.687453	0.666786
C91	C	0.408783	0.128968	0.000044
C92	C	0.742117	0.462302	0.333377
C93	C	1.075450	0.795635	0.666710
C94	C	0.468181	0.129681	0.000019
C95	C	0.801514	0.463014	0.333353
C96	C	1.134848	0.796348	0.666686
C97	C	0.482328	0.025836	0.000066
C98	C	0.815662	0.359170	0.333400
C99	C	1.148995	0.692503	0.666733
C100	C	0.422929	0.025124	0.000079
C101	C	0.756263	0.358457	0.333412
C102	C	1.089596	0.691791	0.666746
C103	C	0.386157	0.076692	0.000074
C104	C	0.719490	0.410025	0.333408
C105	C	1.052824	0.743359	0.666741
C106	C	-0.064136	0.019297	0.000113
C107	C	0.269197	0.352630	0.333446
C108	C	0.602530	0.685964	0.666780
C109	C	-0.123538	0.018590	0.000104
C110	C	0.209795	0.351924	0.333437
C111	C	0.543128	0.685257	0.666770
C112	C	-0.137680	0.122435	0.000065
C113	C	0.195653	0.455768	0.333399
C114	C	0.528986	0.789101	0.666732
C115	C	-0.078284	0.123142	0.000066
C116	C	0.255050	0.456475	0.333399
C117	C	0.588383	0.789808	0.666733
C118	C	-0.041512	0.071568	0.000095
C119	C	0.291821	0.404901	0.333429
C120	C	0.625154	0.738235	0.666762
O121	O	0.009675	0.168390	0.000004
O122	O	0.343008	0.501723	0.333337
O123	O	0.676341	0.835057	0.666671
O124	O	0.035892	-0.023737	0.000165
O125	O	0.369226	0.309597	0.333499
O126	O	0.702559	0.642930	0.666832
C127	C	0.677071	-0.030012	0.000108
C128	C	1.010404	0.303321	0.333442
C129	C	1.343738	0.636654	0.666775
C130	C	0.676305	-0.093229	0.000121
C131	C	1.009638	0.240104	0.333454
C132	C	1.342972	0.573437	0.666787
C133	C	0.723538	-0.492332	0.000039
C134	C	1.056872	-0.158999	0.333372
C135	C	1.390205	0.174334	0.666705
C136	C	0.722827	-0.551733	0.000026
C137	C	1.056160	-0.218399	0.333359
C138	C	1.389494	0.114934	0.666693
O139	O	0.766613	-0.588477	-0.000027
O140	O	1.099946	-0.255144	0.333306
O141	O	1.433280	0.078190	0.666640
N142	N	0.670551	-0.574359	0.000018
N143	N	1.003884	-0.241025	0.333352
N144	N	1.337217	0.092308	0.666685
C145	C	0.618982	-0.537581	0.000007
C146	C	0.952316	-0.204248	0.333340
C147	C	1.285649	0.129085	0.666673
O148	O	0.574452	-0.562281	-0.000003
O149	O	0.907785	-0.228948	0.333331
O150	O	1.241119	0.104386	0.666664
C151	C	0.619695	-0.478182	0.000007
C152	C	0.953028	-0.144849	0.333341
C153	C	1.286361	0.188485	0.666674
C154	C	0.671974	-0.455559	0.000032
C155	C	1.005308	-0.122226	0.333365
C156	C	1.338641	0.211107	0.666698
C157	C	0.775814	-0.469709	0.000061
C158	C	1.109147	-0.136376	0.333395
C159	C	1.442481	0.196958	0.666728
C160	C	0.776525	-0.410313	0.000077
C161	C	1.109858	-0.076980	0.333410
C162	C	1.443192	0.256354	0.666744
C163	C	0.724961	-0.373540	0.000070
C164	C	1.058294	-0.040207	0.333403
C165	C	1.391628	0.293127	0.666737
C166	C	0.672685	-0.396163	0.000047
C167	C	1.006019	-0.062830	0.333381
C168	C	1.339352	0.270503	0.666714
C169	C	0.568127	-0.441406	-0.000016
C170	C	0.901460	-0.108072	0.333317
C171	C	1.234794	0.225261	0.666650
C172	C	0.568843	-0.382003	-0.000017
C173	C	0.902177	-0.048670	0.333317
C174	C	1.235510	0.284663	0.666650
C175	C	0.621123	-0.359381	0.000008
C176	C	0.954457	-0.026047	0.333341
C177	C	1.287790	0.307286	0.666674
C178	C	0.621832	-0.299994	0.000056
C179	C	0.955166	0.033339	0.333389
C180	C	1.288499	0.366672	0.666723
N181	N	0.674109	-0.277368	0.000064
N182	N	1.007442	0.055965	0.333397
N183	N	1.340775	0.389299	0.666731
C184	C	0.725673	-0.314141	0.000071
C185	C	1.059006	0.019192	0.333404
C186	C	1.392340	0.352526	0.666737
C187	C	0.617491	-0.662324	0.000002
C188	C	0.950824	-0.328990	0.333335
C189	C	1.284158	0.004343	0.666669
C190	C	0.616778	-0.721722	0.000013
C191	C	0.950112	-0.388388	0.333346
C192	C	1.283445	-0.055055	0.666679
C193	C	0.720623	-0.735869	0.000029
C194	C	1.053957	-0.402536	0.333363
C195	C	1.387290	-0.069202	0.666696
C196	C	0.721335	-0.676470	0.000030
C197	C	1.054669	-0.343137	0.333363
C198	C	1.388002	-0.009803	0.666697
C199	C	0.669767	-0.639698	0.000010
C200	C	1.003101	-0.306364	0.333343
C201	C	1.336434	0.026969	0.666676
C202	C	0.727163	-0.189404	0.000105
C203	C	1.060496	0.143929	0.333438
C204	C	1.393829	0.477262	0.666772
C205	C	0.727869	-0.130002	0.000128
C206	C	1.061203	0.203331	0.333461
C207	C	1.394536	0.536664	0.666794
C208	C	0.624025	-0.115860	0.000102
C209	C	0.957358	0.217473	0.333436
C210	C	1.290691	0.550807	0.666769
C211	C	0.623318	-0.175257	0.000089
C212	C	0.956651	0.158076	0.333422
C213	C	1.289984	0.491410	0.666755
C214	C	0.674891	-0.212028	0.000084
C215	C	1.008225	0.121305	0.333418
C216	C	1.341558	0.454639	0.666751
O217	O	0.578069	-0.263215	0.000103
O218	O	0.911403	0.070118	0.333436
O219	O	1.244736	0.403452	0.666769
O220	O	0.770196	-0.289433	0.000058
O221	O	1.103529	0.043900	0.333392
O222	O	1.436863	0.377234	0.666725
C223	C	0.776472	0.069389	0.000087
C224	C	1.109805	0.402722	0.333420
C225	C	1.443138	0.736055	0.666753
C226	C	0.839689	0.070155	0.000085
C227	C	1.173022	0.403488	0.333419
C228	C	1.506355	0.736821	0.666752
C229	C	0.667577	0.178283	0.000034
C230	C	1.000910	0.511617	0.333368
C231	C	1.334244	0.844950	0.666701
C232	C	0.668343	0.241500	0.000011
C233	C	1.001676	0.574834	0.333344
C234	C	1.335010	0.908167	0.666678
N235	N	0.672321	0.074134	0.425750
N236	N	1.005654	0.407467	0.759083
N237	N	1.338987	0.740800	1.092417
N238	N	0.672332	0.074133	-0.425604
N239	N	1.005665	0.407466	-0.092270
N240	N	1.338999	0.740799	0.241063
H241	H	0.246104	-0.071347	0.000147
H242	H	0.579437	0.261987	0.333481
H243	H	0.912771	0.595320	0.666814
N244	N	-0.147936	-0.037800	0.000145
N245	N	0.185397	0.295533	0.333478
N246	N	0.518731	0.628866	0.666811
H247	H	-0.191145	-0.030430	0.000141
H248	H	0.142188	0.302903	0.333474
H249	H	0.475521	0.636236	0.666807
H250	H	-0.134462	-0.060351	-0.101130
H251	H	0.198871	0.272982	0.232203
H252	H	0.532204	0.606316	0.565536
H253	H	0.404515	-0.017447	0.000091
H254	H	0.737848	0.315887	0.333425
H255	H	1.071181	0.649220	0.666758
H256	H	0.770443	-0.111587	0.000152
H257	H	1.103777	0.221747	0.333485
H258	H	1.437110	0.555080	0.666818
N259	N	0.560390	-0.746116	-0.000009
N260	N	0.893724	-0.412783	0.333325
N261	N	1.227057	-0.079450	0.666658
H262	H	0.567758	-0.789326	-0.000017
H263	H	0.901091	-0.455992	0.333316
H264	H	1.234424	-0.122659	0.666650
H265	H	0.537840	-0.732649	0.101277
H266	H	0.871174	-0.399316	0.434610
H267	H	1.204507	-0.065983	0.767944
N268	N	0.782790	-0.229054	0.000121
N269	N	1.116123	0.104279	0.333455
N270	N	1.449457	0.437613	0.666788
H271	H	0.784808	-0.254020	0.101405
H272	H	1.118141	0.079314	0.434739
H273	H	1.451475	0.412647	0.768072
H274	H	0.784789	-0.253972	-0.101232
H275	H	1.118122	0.079361	0.232101
H276	H	1.451455	0.412695	0.565434
N277	N	0.777723	-0.652075	0.000051
N278	N	1.111057	-0.318742	0.333384
N279	N	1.444390	0.014591	0.666718
H280	H	0.780340	-0.627741	-0.101232
H281	H	1.113673	-0.294408	0.232102
H282	H	1.447007	0.038925	0.565435
H283	H	0.780297	-0.627780	0.101406
H284	H	1.113631	-0.294446	0.434739
H285	H	1.446964	0.038887	0.768073
H286	H	0.819097	-0.391900	0.000090
H287	H	1.152430	-0.058566	0.333423
H288	H	1.485763	0.274767	0.666757
H289	H	0.486595	0.172252	-0.000015
H290	H	0.819928	0.505586	0.333318
H291	H	1.153261	0.838919	0.666652
N292	N	-0.053883	0.179529	0.000037
N293	N	0.279450	0.512862	0.333371
N294	N	0.612784	0.846196	0.666704
H295	H	-0.029557	0.182139	0.101328
H296	H	0.303777	0.515473	0.434661
H297	H	0.637110	0.848806	0.767994
H298	H	-0.029579	0.182106	-0.101310
H299	H	0.303754	0.515440	0.232023
H300	H	0.637087	0.848773	0.565356
N301	N	0.132374	-0.086452	0.000164
N302	N	0.465708	0.246881	0.333497
N303	N	0.799041	0.580215	0.666830
H304	H	0.145806	-0.109030	-0.101107
H305	H	0.479140	0.224303	0.232227
H306	H	0.812473	0.557637	0.565560
H307	H	0.145817	-0.108975	0.101531
H308	H	0.479150	0.224358	0.434864
H309	H	0.812484	0.557691	0.768198
N310	N	-0.024481	-0.036327	0.000150
N311	N	0.308852	0.297006	0.333483
N312	N	0.642185	0.630340	0.666817
H313	H	-0.047834	-0.069547	0.000158
H314	H	0.285499	0.263786	0.333492
H315	H	0.618833	0.597120	0.666825
H316	H	0.000472	-0.038297	-0.101138
H317	H	0.333805	0.295036	0.232195
H318	H	0.667139	0.628370	0.565529
N319	N	0.561870	-0.622660	0.000028
N320	N	0.895204	-0.289327	0.333361
N321	N	1.228537	0.044007	0.666695
H322	H	0.559845	-0.597692	-0.101251
H323	H	0.893178	-0.264358	0.232082
H324	H	1.226512	0.068975	0.565416
H325	H	0.528679	-0.646048	0.000094
H326	H	0.862013	-0.312715	0.333427
H327	H	1.195346	0.020618	0.666760
H328	H	0.206274	0.220904	0.000059
H329	H	0.539607	0.554238	0.333392
H330	H	0.872940	0.887571	0.666726
H331	H	0.762610	-0.765821	0.000029
H332	H	1.095943	-0.432487	0.333362
H333	H	1.429276	-0.099154	0.666695
H334	H	-0.167631	0.164417	0.000042
H335	H	0.165702	0.497750	0.333376
H336	H	0.499035	0.831084	0.666709
H337	H	0.378846	0.170964	0.000028
H338	H	0.712179	0.504297	0.333361
H339	H	1.045512	0.837630	0.666695
H340	H	0.817806	-0.499644	0.000061
H341	H	1.151140	-0.166311	0.333394
H342	H	1.484473	0.167022	0.666727
H343	H	0.512280	-0.016150	0.000081
H344	H	0.845613	0.317183	0.333415
H345	H	1.178947	0.650516	0.666748
N346	N	0.088801	0.233237	0.000125
N347	N	0.422135	0.566570	0.333458
N348	N	0.755468	0.899904	0.666791
H349	H	0.112150	0.266460	0.000125
H350	H	0.445484	0.599793	0.333458
H351	H	0.778817	0.933126	0.666792
H352	H	0.063842	0.235215	-0.101153
H353	H	0.397175	0.568549	0.232180
H354	H	0.730508	0.901882	0.565513
N355	N	0.511739	-0.465796	-0.000022
N356	N	0.845072	-0.132463	0.333312
N357	N	1.178406	0.200870	0.666645
H358	H	0.479187	-0.433480	-0.000029
H359	H	0.812520	-0.100146	0.333304
H360	H	1.145854	0.233187	0.666638
H361	H	0.509178	-0.490127	-0.101311
H362	H	0.842511	-0.156794	0.232023
H363	H	1.175845	0.176540	0.565356
N364	N	0.513223	-0.342342	-0.000047
N365	N	0.846556	-0.009008	0.333287
N366	N	1.179889	0.324325	0.666620
H367	H	0.480000	-0.365691	-0.000063
H368	H	0.813333	-0.032357	0.333270
H369	H	1.146666	0.300976	0.666603
H370	H	0.511250	-0.317395	0.101246
H371	H	0.844583	0.015938	0.434579
H372	H	1.177916	0.349272	0.767912
N373	N	0.566933	-0.199662	0.000085
N374	N	0.900266	0.133672	0.333418
N375	N	1.233599	0.467005	0.666752
H376	H	0.534375	-0.167350	0.000089
H377	H	0.867709	0.165983	0.333422
H378	H	1.201042	0.499316	0.666755
H379	H	0.564378	-0.223987	-0.101217
H380	H	0.897711	0.109346	0.232116
H381	H	1.231044	0.442679	0.565449
H382	H	0.582043	-0.085909	0.000103
H383	H	0.915376	0.247424	0.333436
H384	H	1.248709	0.580758	0.666769
