data_functionalizedCrystal
_audit_creation_method	'MofGen! by Chris Wilmer'
_symmetry_space_group_name_H-M	'P1'
_symmetry_Int_Tables_number	1
_symmetry_cell_setting	triclinic
loop_
_symmetry_equiv_pos_as_xyz
  x,y,z
_cell_length_a	15.944551
_cell_length_b	14.853567
_cell_length_c	13.330367
_cell_angle_alpha	90.004582
_cell_angle_beta	89.994404
_cell_angle_gamma	96.433166
loop_
_atom_site_label
_atom_site_type_symbol
_atom_site_fract_x
_atom_site_fract_y
_atom_site_fract_z
O1	O	0.109665	-1.196228	-0.083357
O2	O	0.122728	-0.933752	-0.083374
O3	O	-0.006070	-1.072158	-0.083356
O4	O	0.238463	-1.057822	-0.083375
O5	O	-0.006073	-1.072137	0.083491
O6	O	0.122725	-0.933732	0.083473
O7	O	0.109662	-1.196208	0.083491
Cu8	Cu	0.116193	-1.064968	0.098716
Cu9	Cu	0.116197	-1.064992	-0.098600
O10	O	0.238460	-1.057802	0.083472
C11	C	0.122135	-0.900154	0.000047
C12	C	0.120361	-0.800072	0.000041
C13	C	-0.037367	-1.071552	0.000068
C14	C	-0.130615	-1.069768	0.000068
C15	C	0.110255	-1.229806	0.000067
C16	C	0.112029	-1.329887	0.000067
C17	C	-0.345572	-0.979713	0.000049
C18	C	-0.406544	-1.021522	0.082317
C19	C	-0.301344	-1.066541	0.000060
C20	C	-0.406524	-1.021562	-0.082181
C21	C	-0.466260	-1.063416	0.000048
C22	C	-0.361088	-1.108373	0.082397
C23	C	-0.361062	-1.108401	-0.082175
C24	C	-0.422017	-1.150273	0.000113
C25	C	-0.206340	-1.068338	0.000068
C26	C	-0.561263	-1.061626	0.000048
C27	C	0.269756	-1.058407	0.000046
C28	C	0.363004	-1.060191	0.000039
N29	N	0.116190	-1.064958	0.237498
C30	C	0.036354	-0.387646	0.000070
C31	C	0.189369	-0.366169	0.000057
C32	C	0.191037	-0.460201	0.000054
C33	C	0.115362	-0.517960	0.000057
C34	C	0.038019	-0.481687	0.000064
C35	C	0.268379	-0.496480	0.000037
C36	C	0.270050	-0.590517	0.000033
C37	C	0.194374	-0.648278	0.000043
C38	C	0.117028	-0.612000	0.000051
C39	C	0.041353	-0.669759	0.000054
C40	C	-0.035994	-0.633483	0.000069
C41	C	-0.037657	-0.539448	0.000074
C42	C	0.196036	-0.742313	0.000038
C43	C	0.043018	-0.763800	0.000048
N44	N	0.116193	-1.065009	-0.237381
C45	C	0.173206	-1.003703	0.710113
C46	C	0.059180	-1.126305	0.710097
C47	C	0.059178	-1.126295	0.605078
C48	C	0.116191	-1.064989	0.552572
C49	C	0.173207	-1.003693	0.605085
C50	C	0.002169	-1.187595	0.552558
C51	C	0.002164	-1.187588	0.447534
C52	C	0.059174	-1.126277	0.395026
C53	C	0.116192	-1.064978	0.447544
C54	C	0.173205	-1.003672	0.395038
C55	C	0.230220	-0.942368	0.447555
C56	C	0.230217	-0.942382	0.552577
C57	C	0.059177	-1.126264	0.290004
C58	C	0.173206	-1.003662	0.290010
H59	H	-0.312344	-0.907643	0.000126
O60	O	-0.002307	-1.192424	0.766729
H61	H	0.008521	-1.262698	0.746560
H62	H	-0.426694	-0.984789	0.151864
H63	H	-0.426641	-0.984835	-0.151738
O64	O	-0.121073	-0.500318	0.000081
H65	H	-0.157439	-0.523505	0.068093
O66	O	0.270989	-0.303879	0.000048
H67	H	0.307995	-0.316780	0.068046
O68	O	-0.334568	-1.156963	0.174634
H69	H	-0.265057	-1.157870	0.173936
O70	O	0.353474	-0.629631	0.000032
H71	H	0.357906	-0.671959	-0.067975
O72	O	-0.465847	-1.245816	0.000175
H73	H	-0.447655	-1.281621	0.068530
H74	H	-0.340890	-1.145102	-0.151725
H75	H	-0.018607	-0.810822	0.000054
H76	H	-0.026620	-0.358106	0.000086
O77	O	0.349997	-0.434189	0.000046
H78	H	0.335843	-0.362707	0.000071
O79	O	0.279450	-0.781442	0.000018
H80	H	0.283867	-0.823772	0.068017
O81	O	-0.117614	-0.695784	0.000069
H82	H	-0.154624	-0.682888	0.068077
O83	O	0.234708	-0.937591	0.766743
H84	H	0.199281	-0.893779	0.814610
H85	H	0.219631	-0.953736	0.247266
H86	H	0.276644	-0.892456	0.404792
O87	O	0.291717	-0.876274	0.609216
H88	H	0.282145	-0.886592	0.691064
H89	H	-0.044246	-1.237513	0.595312
O90	O	-0.059334	-1.253694	0.390891
H91	H	-0.098983	-1.296319	0.445047
H92	H	0.012761	-1.176181	0.247250
