data_functionalizedCrystal
_audit_creation_method	'MofGen! by Chris Wilmer'
_symmetry_space_group_name_H-M	'P1'
_symmetry_Int_Tables_number	1
_symmetry_cell_setting	triclinic
loop_
_symmetry_equiv_pos_as_xyz
  x,y,z
_cell_length_a	20.919292
_cell_length_b	20.919151
_cell_length_c	18.760490
_cell_angle_alpha	58.239942
_cell_angle_beta	93.173875
_cell_angle_gamma	60.191315
loop_
_atom_site_label
_atom_site_type_symbol
_atom_site_fract_x
_atom_site_fract_y
_atom_site_fract_z
Zr1	Zr	-0.124986	0.741991	0.633325
O2	O	-0.235042	0.883315	0.504103
O3	O	-0.085826	0.600637	0.679288
O4	O	-0.227210	0.742005	0.661934
O5	O	0.011702	0.741947	0.527924
O6	O	-0.227201	0.742051	0.779210
O7	O	-0.093657	0.741947	0.521458
O8	O	0.025711	0.489169	0.810254
O9	O	-0.241209	0.994829	0.496879
O10	O	-0.075668	0.658824	0.778741
O11	O	0.002953	0.658790	0.696045
O12	O	-0.163509	0.825233	0.675612
O13	O	-0.084888	0.825199	0.592916
Zr14	Zr	0.043065	0.742066	0.830680
Zr15	Zr	-0.124970	0.742065	0.820367
Zr16	Zr	0.043049	0.741992	0.643638
Zr17	Zr	-0.134823	0.919844	0.621804
Zr18	Zr	0.052902	0.564214	0.842201
O19	O	0.003905	0.883421	0.784716
O20	O	-0.235020	0.883419	0.770052
O21	O	0.003883	0.883316	0.518767
O22	O	0.153121	0.600743	0.959902
O23	O	-0.085804	0.600741	0.945238
O24	O	0.153099	0.600638	0.693952
O25	O	-0.093623	0.742110	0.936081
O26	O	0.145289	0.742053	0.802071
O27	O	0.145280	0.742007	0.684795
O28	O	0.011736	0.742111	0.942547
O29	O	-0.241197	0.994887	0.645553
O30	O	0.159276	0.489170	0.818452
O31	O	0.159289	0.489228	0.967126
O32	O	0.025723	0.489228	0.958928
O33	O	-0.107644	0.994830	0.505077
O34	O	-0.107632	0.994888	0.653750
O35	O	0.081588	0.658825	0.788393
O36	O	0.002967	0.658859	0.871089
O37	O	-0.084874	0.825267	0.767960
O38	O	-0.006253	0.825233	0.685264
C39	C	-0.028656	0.519563	0.746413
C40	C	-0.024480	0.444060	0.751304
C41	C	-0.083978	0.470018	0.681446
C42	C	-0.080082	0.399089	0.686042
C43	C	-0.016685	0.302201	0.760492
C44	C	0.042816	0.276243	0.830356
C45	C	0.038917	0.347172	0.825763
C46	C	-0.001840	0.084968	0.777972
C47	C	0.002057	0.014039	0.782559
C48	C	-0.120843	0.136890	0.638245
C49	C	-0.124734	0.207815	0.633655
C50	C	-0.065236	0.181851	0.703522
C51	C	-0.012700	0.229698	0.765190
C52	C	-0.069224	0.254353	0.698827
C53	C	-0.251147	0.742028	0.719102
C54	C	-0.322482	0.742027	0.714724
C55	C	-0.355990	0.742053	0.777275
C56	C	-0.423013	0.742045	0.773164
C57	C	-0.456530	0.742016	0.706498
C58	C	-0.423016	0.741987	0.643944
C59	C	-0.355990	0.741989	0.648059
C60	C	-0.658899	0.742003	0.690842
C61	C	-0.725931	0.742004	0.686730
C62	C	-0.725922	0.742059	0.815952
C63	C	-0.658899	0.742067	0.820058
C64	C	-0.625388	0.742033	0.757508
C65	C	-0.525039	0.742010	0.702292
C66	C	-0.556876	0.742032	0.761718
C67	C	0.169226	0.742030	0.744903
C68	C	0.240561	0.742030	0.749281
C69	C	-0.040980	0.741937	0.498041
C70	C	-0.040986	0.741905	0.418637
C71	C	-0.053265	0.964495	0.717592
C72	C	-0.057441	1.039997	0.712701
C73	C	-0.098986	0.742127	0.079076
C74	C	0.017106	0.742127	0.086317
C75	C	0.017096	0.742079	0.160966
C76	C	-0.040955	0.742054	0.194674
C77	C	-0.098996	0.742076	0.153733
C78	C	0.075141	0.742048	0.201918
C79	C	0.075134	0.741999	0.276572
C80	C	0.017078	0.741980	0.310277
C81	C	-0.040966	0.742003	0.269331
C82	C	-0.099017	0.741978	0.303039
C83	C	-0.157065	0.742008	0.262090
C84	C	-0.157052	0.742057	0.187438
C85	C	0.017065	0.741931	0.384929
C86	C	-0.099027	0.741927	0.377696
C87	C	-0.040941	0.742121	0.965964
C88	C	-0.040935	0.742152	1.045368
C89	C	-0.028637	0.519655	0.980374
C90	C	-0.024454	0.444183	1.064669
C91	C	0.181531	0.519564	0.759313
C92	C	0.257042	0.444061	0.768582
C93	C	0.181550	0.519656	0.993274
C94	C	0.257068	0.444185	1.081947
C95	C	-0.263471	0.964401	0.470731
C96	C	-0.338989	1.039873	0.382057
C97	C	-0.053284	0.964402	0.483631
C98	C	-0.057467	1.039874	0.399336
C99	C	-0.263451	0.964493	0.704692
C100	C	-0.338963	1.039996	0.695423
C101	C	-0.063544	0.408723	1.056050
C102	C	-0.059630	0.337819	1.135245
C103	C	-0.016621	0.302372	1.223060
C104	C	0.022469	0.337840	1.231677
C105	C	0.018550	0.408747	1.152482
C106	C	0.333557	0.408623	0.821140
C107	C	0.404514	0.337690	0.829845
C108	C	0.398954	0.302192	0.785998
C109	C	0.322431	0.337638	0.733434
C110	C	0.251476	0.408574	0.724723
C111	C	0.251492	0.408760	1.166764
C112	C	0.322443	0.337857	1.250088
C113	C	0.398967	0.302374	1.248594
C114	C	0.404541	0.337806	1.163768
C115	C	0.333591	0.408713	1.080446
C116	C	-0.333414	1.075306	0.297240
C117	C	-0.404365	1.146231	0.213915
C118	C	-0.480890	1.181717	0.215409
C119	C	-0.486463	1.146281	0.300235
C120	C	-0.415513	1.075362	0.383558
C121	C	-0.018385	1.075342	0.407954
C122	C	-0.022318	1.146265	0.328756
C123	C	-0.065329	1.181715	0.240942
C124	C	-0.104416	1.146244	0.232325
C125	C	-0.100487	1.075327	0.311521
C126	C	-0.333377	1.075471	0.739282
C127	C	-0.404321	1.146404	0.730591
C128	C	-0.480850	1.181866	0.678035
C129	C	-0.486434	1.146384	0.634175
C130	C	-0.415491	1.075447	0.642871
H131	H	-0.176370	0.286703	0.573042
H132	H	0.016645	1.046484	0.479450
H133	H	0.009515	1.175134	0.335790
H134	H	-0.068522	1.239460	0.176462
H135	H	0.189177	0.437419	0.681929
H136	H	0.317917	0.308725	0.697736
O137	O	0.475495	0.225672	0.795414
H138	H	0.473959	0.252864	0.725624
H139	H	-0.753217	0.741982	0.632438
H140	H	0.064373	0.742141	0.058874
H141	H	-0.271110	1.046416	0.296007
O142	O	0.487041	0.299456	0.886560
H143	H	0.490554	0.359002	0.856736
H144	H	-0.139435	1.175118	0.160816
H145	H	-0.548779	1.175184	0.301440
O146	O	-0.568989	1.184637	0.577513
H147	H	-0.572519	1.125101	0.607365
O148	O	-0.161640	0.741900	0.414053
H149	H	-0.201995	0.741923	0.373040
O150	O	-0.398290	1.184670	0.777897
H151	H	-0.333155	1.148101	0.815888
O152	O	-0.459169	0.741962	0.572036
H153	H	-0.480584	0.806899	0.501595
O154	O	-0.142634	1.037065	0.302223
H155	H	-0.173192	1.073627	0.227853
O156	O	-0.459160	0.742075	0.840626
H157	H	-0.523985	0.807020	0.801582
H158	H	-0.328708	0.741966	0.597125
O159	O	-0.250840	1.037222	0.795985
H160	H	-0.247317	1.096761	0.766162
O161	O	0.062336	0.056958	0.853324
H162	H	0.094183	0.086316	0.822410
H163	H	0.057486	0.308968	1.303186
H164	H	-0.204327	0.741981	0.289548
O165	O	-0.557414	1.258208	0.125536
H166	H	-0.596376	1.322853	0.119222
O167	O	-0.421520	1.037198	0.595550
H168	H	-0.486657	1.073788	0.557537
O169	O	-0.421529	1.037134	0.475040
H170	H	-0.486663	1.073721	0.462071
O171	O	-0.109946	0.446952	0.961343
H172	H	-0.106108	0.502215	0.907711
O173	O	0.168959	0.447035	1.168386
H174	H	0.177014	0.410491	1.241368
H175	H	0.317890	0.309016	1.319148
O176	O	-0.557362	1.258387	0.668652
H177	H	-0.591251	1.231180	0.696837
H178	H	-0.631611	0.742090	0.874344
H179	H	-0.135595	0.548907	0.620812
O180	O	0.475491	0.225885	1.338467
H181	H	0.458750	0.207210	1.397693
O182	O	0.487084	0.299522	1.162171
H183	H	0.479051	0.336066	1.089196
O184	O	0.060728	0.446978	1.161784
H185	H	0.091299	0.410402	1.236155
H186	H	-0.128531	0.420234	0.629156
O187	O	0.111193	0.171742	0.910656
H188	H	0.109217	0.155926	0.976648
O189	O	-0.219659	0.742099	0.143265
H190	H	-0.188150	0.677170	0.149296
O191	O	0.339618	0.446893	0.988971
H192	H	0.370387	0.479198	0.981287
O193	O	-0.185026	0.164895	0.562902
H194	H	-0.171673	0.099299	0.578606
O195	O	0.070434	-0.090468	0.862866
H196	H	0.111148	-0.096608	0.910682
H197	H	0.087367	0.326029	0.882648
O198	O	-0.762066	0.742097	0.883415
H199	H	-0.714913	0.677165	0.955439
H200	H	-0.120845	0.333242	0.638212
O201	O	-0.398345	1.184427	0.122432
H202	H	-0.333210	1.147815	0.135401
H203	H	0.038918	0.150805	0.825807
H204	H	-0.328708	0.742082	0.831559
H205	H	-0.529582	0.742050	0.816001
O206	O	-0.622765	0.741979	0.623373
H207	H	-0.657341	0.741972	0.576318
H208	H	-0.552336	0.741990	0.648009
H209	H	-0.146250	0.742155	0.045731
H210	H	0.122398	0.741976	0.309907
O211	O	0.137752	0.742073	0.165567
H212	H	0.127999	0.742125	0.106769
H213	H	-0.091463	0.308950	1.128211
O214	O	0.079668	0.741892	0.429102
H215	H	0.073222	0.806851	0.376302
O216	O	0.339563	0.446906	0.868432
H217	H	0.404694	0.410346	0.906429
H218	H	-0.013436	0.244634	1.287538
