data_functionalizedCrystal
_audit_creation_method	'MofGen! by Chris Wilmer'
_symmetry_space_group_name_H-M	'P1'
_symmetry_Int_Tables_number	1
_symmetry_cell_setting	triclinic
loop_
_symmetry_equiv_pos_as_xyz
  x,y,z
_cell_length_a	14.519709
_cell_length_b	10.654550
_cell_length_c	13.596369
_cell_angle_alpha	90.000219
_cell_angle_beta	89.999684
_cell_angle_gamma	95.917462
loop_
_atom_site_label
_atom_site_type_symbol
_atom_site_fract_x
_atom_site_fract_y
_atom_site_fract_z
O1	O	1.224724	-0.164615	-0.081663
O2	O	1.474724	0.085385	0.168337
O3	O	1.724724	0.335385	0.418337
O4	O	1.974724	0.585385	0.668337
O5	O	0.956347	-0.184001	-0.081693
O6	O	1.206347	0.065999	0.168307
O7	O	1.456347	0.315999	0.418307
O8	O	1.706347	0.565999	0.668307
O9	O	1.096706	0.008491	-0.081671
O10	O	1.346706	0.258491	0.168329
O11	O	1.596706	0.508491	0.418329
O12	O	1.846706	0.758491	0.668329
O13	O	1.084365	-0.357107	-0.081685
O14	O	1.334365	-0.107107	0.168315
O15	O	1.584365	0.142893	0.418315
O16	O	1.834365	0.392893	0.668315
O17	O	1.096689	0.008480	0.081912
O18	O	1.346689	0.258480	0.331912
O19	O	1.596689	0.508480	0.581912
O20	O	1.846689	0.758480	0.831912
O21	O	0.956330	-0.184012	0.081890
O22	O	1.206330	0.065988	0.331890
O23	O	1.456330	0.315988	0.581890
O24	O	1.706330	0.565988	0.831890
O25	O	1.224706	-0.164625	0.081920
O26	O	1.474706	0.085375	0.331920
O27	O	1.724706	0.335375	0.581920
O28	O	1.974706	0.585375	0.831920
Zn29	Zn	1.090515	-0.174320	0.107877
Zn30	Zn	1.340515	0.075680	0.357877
Zn31	Zn	1.590515	0.325680	0.607877
Zn32	Zn	1.840515	0.575680	0.857877
Zn33	Zn	1.090538	-0.174306	-0.107650
Zn34	Zn	1.340538	0.075694	0.142350
Zn35	Zn	1.590538	0.325694	0.392350
Zn36	Zn	1.840538	0.575694	0.642350
O37	O	1.084348	-0.357117	0.081898
O38	O	1.334348	-0.107117	0.331898
O39	O	1.584348	0.142883	0.581898
O40	O	1.834348	0.392883	0.831898
C41	C	0.921974	-0.183103	0.000095
C42	C	1.171974	0.066897	0.250095
C43	C	1.421974	0.316897	0.500095
C44	C	1.671974	0.566897	0.750095
C45	C	0.819579	-0.180396	0.000083
C46	C	1.069579	0.069604	0.250083
C47	C	1.319579	0.319604	0.500083
C48	C	1.569579	0.569604	0.750083
N49	N	1.090506	-0.174329	0.254969
N50	N	1.340506	0.075671	0.504969
N51	N	1.590506	0.325671	0.754969
N52	N	1.840506	0.575671	1.004969
C53	C	1.095791	0.055275	0.000120
C54	C	1.345791	0.305275	0.250120
C55	C	1.595791	0.555275	0.500120
C56	C	1.845791	0.805275	0.750120
C57	C	1.093080	0.194692	0.000118
C58	C	1.343080	0.444692	0.250118
C59	C	1.593080	0.694692	0.500118
C60	C	1.843080	0.944692	0.750118
C61	C	0.444631	-0.170428	0.000128
C62	C	0.694631	0.079572	0.250128
C63	C	0.944631	0.329572	0.500128
C64	C	1.194631	0.579572	0.750128
C65	C	0.548954	-0.173196	0.000116
C66	C	0.798954	0.076804	0.250116
C67	C	1.048954	0.326804	0.500116
C68	C	1.298954	0.576804	0.750116
C69	C	0.632102	-0.175412	0.000105
C70	C	0.882102	0.074588	0.250105
C71	C	1.132102	0.324588	0.500105
C72	C	1.382102	0.574588	0.750105
C73	C	0.736431	-0.178180	0.000094
C74	C	0.986431	0.071820	0.250094
C75	C	1.236431	0.321820	0.500094
C76	C	1.486431	0.571820	0.750094
C77	C	1.259079	-0.165524	0.000130
C78	C	1.509079	0.084476	0.250130
C79	C	1.759079	0.334476	0.500130
C80	C	2.009079	0.584476	0.750130
C81	C	1.361475	-0.168231	0.000135
C82	C	1.611475	0.081769	0.250135
C83	C	1.861475	0.331769	0.500135
C84	C	2.111475	0.581769	0.750135
C85	C	1.085262	-0.403901	0.000105
C86	C	1.335262	-0.153901	0.250105
C87	C	1.585262	0.096099	0.500105
C88	C	1.835262	0.346099	0.750105
C89	C	1.087973	-0.543318	0.000100
C90	C	1.337973	-0.293318	0.250100
C91	C	1.587973	-0.043318	0.500100
C92	C	1.837973	0.206682	0.750100
C93	C	1.175721	0.274972	0.000127
C94	C	1.425721	0.524972	0.250127
C95	C	1.675721	0.774972	0.500127
C96	C	1.925721	1.024972	0.750127
C97	C	1.173168	0.405968	0.000115
C98	C	1.423168	0.655968	0.250115
C99	C	1.673168	0.905968	0.500115
C100	C	1.923168	1.155968	0.750115
C101	C	1.005326	0.376391	0.000089
C102	C	1.255326	0.626391	0.250089
C103	C	1.505326	0.876391	0.500089
C104	C	1.755326	1.126391	0.750089
C105	C	1.007880	0.245397	0.000094
C106	C	1.257880	0.495397	0.250094
C107	C	1.507880	0.745397	0.500094
C108	C	1.757880	0.995397	0.750094
N109	N	1.090554	-0.174288	-0.254742
N110	N	1.340554	0.075712	-0.004742
N111	N	1.590554	0.325712	0.245258
N112	N	1.840554	0.575712	0.495258
C113	C	1.090511	-0.174332	0.343967
C114	C	1.340511	0.075668	0.593967
C115	C	1.590511	0.325668	0.843967
C116	C	1.840511	0.575668	1.093967
C117	C	1.090520	-0.174323	0.455618
C118	C	1.340520	0.075677	0.705618
C119	C	1.590520	0.325677	0.955618
C120	C	1.840520	0.575677	1.205618
C121	C	1.090532	-0.174309	0.544609
C122	C	1.340532	0.075691	0.794609
C123	C	1.590532	0.325691	1.044609
C124	C	1.840532	0.575691	1.294609
C125	C	1.090542	-0.174302	0.656267
C126	C	1.340542	0.075698	0.906267
C127	C	1.590542	0.325698	1.156267
C128	C	1.840542	0.575698	1.406267
H129	H	1.245096	0.233692	0.000144
H130	H	1.495096	0.483692	0.250144
H131	H	1.745096	0.733692	0.500144
H132	H	1.995096	0.983692	0.750144
H133	H	0.935959	0.417692	0.000071
H134	H	1.185959	0.667692	0.250071
H135	H	1.435959	0.917692	0.500071
H136	H	1.685959	1.167692	0.750071
H137	H	1.240463	0.471328	0.000120
H138	H	1.490463	0.721328	0.250120
H139	H	1.740463	0.971328	0.500120
H140	H	1.990463	1.221328	0.750120
H141	H	0.940579	0.180029	0.000084
H142	H	1.190579	0.430029	0.250084
H143	H	1.440579	0.680029	0.500084
H144	H	1.690579	0.930029	0.750084
