data_functionalizedCrystal
_audit_creation_method	'MofGen! by Chris Wilmer'
_symmetry_space_group_name_H-M	'P1'
_symmetry_Int_Tables_number	1
_symmetry_cell_setting	triclinic
loop_
_symmetry_equiv_pos_as_xyz
  x,y,z
_cell_length_a	14.908571
_cell_length_b	18.101389
_cell_length_c	14.908520
_cell_angle_alpha	93.278894
_cell_angle_beta	90.205961
_cell_angle_gamma	86.688960
loop_
_atom_site_label
_atom_site_type_symbol
_atom_site_fract_x
_atom_site_fract_y
_atom_site_fract_z
Zn1	Zn	1.353949	-0.503469	-0.437523
Zn2	Zn	1.687282	-0.170136	-0.104189
Zn3	Zn	2.020615	0.163197	0.229144
Zn4	Zn	1.345169	-0.386332	-0.587860
Zn5	Zn	1.678502	-0.052999	-0.254527
Zn6	Zn	2.011836	0.280334	0.078806
Zn7	Zn	1.203588	-0.372121	-0.428834
Zn8	Zn	1.536921	-0.038788	-0.095501
Zn9	Zn	1.870254	0.294545	0.237832
Zn10	Zn	1.194876	-0.502614	-0.579147
Zn11	Zn	1.528210	-0.169280	-0.245813
Zn12	Zn	1.861543	0.164053	0.087520
O13	O	1.274395	-0.441134	-0.508341
O14	O	1.607729	-0.107801	-0.175008
O15	O	1.941062	0.225532	0.158326
O16	O	1.478609	-0.494236	-0.464748
O17	O	1.811942	-0.160903	-0.131415
O18	O	2.145275	0.172430	0.201918
O19	O	1.326359	-0.280813	-0.566776
O20	O	1.659693	0.052520	-0.233443
O21	O	1.993026	0.385853	0.099891
O22	O	1.230853	-0.383956	-0.304164
O23	O	1.564187	-0.050623	0.029170
O24	O	1.897520	0.282711	0.362503
O25	O	1.472158	-0.408176	-0.575201
O26	O	1.805492	-0.074843	-0.241867
O27	O	2.138825	0.258490	0.091466
O28	O	1.341323	-0.480457	-0.310547
O29	O	1.674656	-0.147123	0.022786
O30	O	2.007989	0.186210	0.356120
O31	O	1.222340	-0.270373	-0.449940
O32	O	1.555673	0.062961	-0.116607
O33	O	1.889007	0.396294	0.216727
O34	O	1.076607	-0.383126	-0.441491
O35	O	1.409941	-0.049793	-0.108157
O36	O	1.743274	0.283541	0.225176
O37	O	1.216006	-0.606361	-0.560349
O38	O	1.549340	-0.273028	-0.227016
O39	O	1.882673	0.060306	0.106317
O40	O	1.070207	-0.478998	-0.551924
O41	O	1.403541	-0.145665	-0.218591
O42	O	1.736874	0.187669	0.114742
O43	O	1.332876	-0.606990	-0.456299
O44	O	1.666209	-0.273656	-0.122966
O45	O	1.999543	0.059677	0.210368
O46	O	1.317913	-0.407346	-0.712528
O47	O	1.651246	-0.074013	-0.379194
O48	O	1.984579	0.259320	-0.045861
O49	O	1.207493	-0.492778	-0.706126
O50	O	1.540826	-0.159444	-0.372792
O51	O	1.874160	0.173889	-0.039459
C52	C	1.040782	-0.429428	-0.494820
C53	C	1.374116	-0.096094	-0.161486
C54	C	1.707449	0.237239	0.171847
C55	C	0.940841	-0.424438	-0.489057
C56	C	1.274174	-0.091105	-0.155724
C57	C	1.607507	0.242229	0.177610
C58	C	0.746413	-0.514774	-0.593401
C59	C	1.079746	-0.181441	-0.260068
C60	C	1.413079	0.151893	0.073265
C61	C	0.652508	-0.510089	-0.587989
C62	C	0.985842	-0.176755	-0.254656
C63	C	1.319175	0.156578	0.078677
C64	C	0.659126	-0.410386	-0.472817
C65	C	0.992459	-0.077052	-0.139484
C66	C	1.325792	0.256281	0.193849
C67	C	0.753030	-0.415071	-0.478229
C68	C	1.086363	-0.081738	-0.144896
C69	C	1.419697	0.251596	0.188437
C70	C	0.796670	-0.467266	-0.538524
C71	C	1.130004	-0.133933	-0.205191
C72	C	1.463337	0.199400	0.128142
C73	C	0.890576	-0.471948	-0.543940
C74	C	1.223910	-0.138614	-0.210607
C75	C	1.557243	0.194719	0.122727
C76	C	0.897192	-0.372249	-0.428764
C77	C	1.230525	-0.038915	-0.095431
C78	C	1.563859	0.294418	0.237903
C79	C	0.803288	-0.367563	-0.423352
C80	C	1.136621	-0.034230	-0.090019
C81	C	1.469954	0.299103	0.243314
C82	C	1.274449	-0.634298	-0.508321
C83	C	1.607782	-0.300964	-0.174988
C84	C	1.941115	0.032369	0.158345
C85	C	1.274471	-0.716613	-0.508313
C86	C	1.607805	-0.383279	-0.174980
C87	C	1.941138	-0.049946	0.158354
C88	C	1.274533	-1.015699	-0.508147
C89	C	1.607867	-0.682365	-0.174814
C90	C	1.941200	-0.349032	0.158519
C91	C	1.200776	-0.983956	-0.573378
C92	C	1.534109	-0.650623	-0.240045
C93	C	1.867442	-0.317289	0.093288
C94	C	1.200946	-0.898362	-0.573710
C95	C	1.534279	-0.565028	-0.240377
C96	C	1.867612	-0.231695	0.092956
C97	C	1.274502	-0.867319	-0.508229
C98	C	1.607835	-0.533985	-0.174896
C99	C	1.941169	-0.200652	0.158437
C100	C	1.367755	-0.904304	-0.539426
C101	C	1.701089	-0.570970	-0.206093
C102	C	2.034422	-0.237637	0.127240
C103	C	1.367341	-0.989949	-0.539859
C104	C	1.700674	-0.656616	-0.206525
C105	C	2.034007	-0.323283	0.126808
C106	C	1.255870	-0.978671	-0.411613
C107	C	1.589204	-0.645338	-0.078280
C108	C	1.922537	-0.312004	0.255054
C109	C	1.253731	-0.892939	-0.412041
C110	C	1.587064	-0.559606	-0.078707
C111	C	1.920397	-0.226273	0.254626
C112	C	1.274490	-0.783461	-0.508275
C113	C	1.607823	-0.450127	-0.174941
C114	C	1.941157	-0.116794	0.158392
C115	C	1.274552	-1.099557	-0.508105
C116	C	1.607885	-0.766224	-0.174771
C117	C	1.941218	-0.432891	0.158562
C118	C	1.508921	-0.452887	-0.521916
C119	C	1.842254	-0.119554	-0.188582
C120	C	2.175587	0.213780	0.144751
C121	C	1.608861	-0.457895	-0.527700
C122	C	1.942195	-0.124562	-0.194367
C123	C	2.275528	0.208771	0.138966
C124	C	1.260829	-0.451529	-0.741953
C125	C	1.594163	-0.118195	-0.408619
C126	C	1.927496	0.215138	-0.075286
C127	C	1.255108	-0.456004	-0.841897
C128	C	1.588441	-0.122671	-0.508564
C129	C	1.921775	0.210663	-0.175231
C130	C	1.274398	-0.248722	-0.508299
C131	C	1.607731	0.084612	-0.174965
C132	C	1.941065	0.417945	0.158368
C133	C	1.274564	-0.166405	-0.508064
C134	C	1.607897	0.166929	-0.174731
C135	C	1.941231	0.500262	0.158603
C136	C	1.359455	-0.375537	-1.036316
C137	C	1.692788	-0.042204	-0.702983
C138	C	2.026121	0.291130	-0.369650
C139	C	1.354082	-0.379740	-1.130224
C140	C	1.687415	-0.046407	-0.796890
C141	C	2.020749	0.286927	-0.463557
C142	C	1.238995	-0.468617	-1.123621
C143	C	1.572328	-0.135283	-0.790288
C144	C	1.905662	0.198050	-0.456954
C145	C	1.244368	-0.464414	-1.029714
C146	C	1.577701	-0.131080	-0.696380
C147	C	1.911034	0.202253	-0.363047
C148	C	1.304599	-0.417871	-0.986065
C149	C	1.637932	-0.084538	-0.652731
C150	C	1.971265	0.248795	-0.319398
C151	C	1.309966	-0.413665	-0.892156
C152	C	1.643300	-0.080332	-0.558822
C153	C	1.976633	0.253002	-0.225489
C154	C	1.194884	-0.502545	-0.885555
C155	C	1.528217	-0.169212	-0.552222
C156	C	1.861551	0.164122	-0.218888
C157	C	1.189511	-0.506748	-0.979462
C158	C	1.522845	-0.173415	-0.646129
C159	C	1.856178	0.159919	-0.312796
C160	C	1.288039	-0.430717	-0.273819
C161	C	1.621372	-0.097383	0.059515
C162	C	1.954706	0.235950	0.392848
C163	C	1.293853	-0.426277	-0.173879
C164	C	1.627186	-0.092944	0.159454
C165	C	1.960520	0.240389	0.492787
H166	H	1.131623	-0.873102	-0.553554
H167	H	1.464956	-0.539769	-0.220221
H168	H	1.798290	-0.206435	0.113112
Cl169	Cl	1.163294	-0.527132	-1.178510
Cl170	Cl	1.496628	-0.193799	-0.845177
Cl171	Cl	1.829961	0.139535	-0.511843
H172	H	0.781945	-0.557270	-0.642500
H173	H	1.115278	-0.223936	-0.309167
H174	H	1.448612	0.109397	0.024166
Cl175	Cl	1.435158	-0.317017	-0.981439
Cl176	Cl	1.768491	0.016317	-0.648106
Cl177	Cl	2.101824	0.349650	-0.314773
H178	H	1.398753	-0.345268	-1.171135
H179	H	1.732087	-0.011935	-0.837802
H180	H	2.065420	0.321398	-0.504469
Cl181	Cl	1.113800	-0.565257	-1.034344
Cl182	Cl	1.447133	-0.231924	-0.701011
Cl183	Cl	1.780466	0.101409	-0.367677
Cl184	Cl	0.945437	-0.537562	-0.619740
Cl185	Cl	1.278770	-0.204229	-0.286407
Cl186	Cl	1.612104	0.129105	0.046927
Cl187	Cl	1.385681	-0.355153	-0.837283
Cl188	Cl	1.719014	-0.021819	-0.503950
Cl189	Cl	2.052347	0.311514	-0.170617
Cl190	Cl	1.392752	-1.027176	-0.649061
Cl191	Cl	1.726085	-0.693843	-0.315728
Cl192	Cl	2.059419	-0.360509	0.017606
H193	H	0.611592	-0.548776	-0.632674
H194	H	0.944925	-0.215442	-0.299341
H195	H	1.278259	0.117891	0.033992
Cl196	Cl	1.125906	-0.555758	-0.822375
Cl197	Cl	1.459239	-0.222425	-0.489042
Cl198	Cl	1.792573	0.110908	-0.155709
H199	H	0.623578	-0.367895	-0.423723
H200	H	0.956911	-0.034562	-0.090389
H201	H	1.290244	0.298771	0.242944
H202	H	0.767743	-0.325069	-0.374260
H203	H	1.101076	0.008264	-0.040926
H204	H	1.434410	0.341597	0.292407
H205	H	0.938122	-0.333563	-0.384081
H206	H	1.271455	-0.000229	-0.050748
H207	H	1.604788	0.333104	0.282586
H208	H	1.212520	-1.009398	-0.644380
H209	H	1.545853	-0.676065	-0.311047
H210	H	1.879187	-0.342731	0.022287
Cl211	Cl	1.093400	-1.009200	-0.542492
Cl212	Cl	1.426733	-0.675867	-0.209159
Cl213	Cl	1.760066	-0.342534	0.124175
Cl214	Cl	1.454518	-0.873643	-0.468751
Cl215	Cl	1.787851	-0.540310	-0.135418
Cl216	Cl	2.121185	-0.206977	0.197915
Cl217	Cl	1.219336	-0.872823	-0.684002
Cl218	Cl	1.552670	-0.539490	-0.350669
Cl219	Cl	1.886003	-0.206157	-0.017336
Cl220	Cl	1.454564	-1.022789	-0.470095
Cl221	Cl	1.787898	-0.689455	-0.136762
Cl222	Cl	2.121231	-0.356122	0.196571
H223	H	1.189340	-0.995821	-0.384255
H224	H	1.522673	-0.662488	-0.050922
H225	H	1.856006	-0.329154	0.282411
Cl226	Cl	1.393785	-0.877549	-0.647521
Cl227	Cl	1.727119	-0.544216	-0.314187
Cl228	Cl	2.060452	-0.210882	0.019146
Cl229	Cl	1.147813	-0.854846	-0.375873
Cl230	Cl	1.481146	-0.521513	-0.042540
Cl231	Cl	1.814479	-0.188179	0.290793
Cl232	Cl	1.331304	-0.859824	-0.332339
Cl233	Cl	1.664638	-0.526491	0.000994
Cl234	Cl	1.997971	-0.193158	0.334327
H235	H	1.309659	-0.999182	-0.362945
H236	H	1.642992	-0.665848	-0.029612
H237	H	1.976326	-0.332515	0.303721
