data_functionalizedCrystal
_audit_creation_method	'MofGen! by Chris Wilmer'
_symmetry_space_group_name_H-M	'P1'
_symmetry_Int_Tables_number	1
_symmetry_cell_setting	triclinic
loop_
_symmetry_equiv_pos_as_xyz
  x,y,z
_cell_length_a	17.640112
_cell_length_b	12.645330
_cell_length_c	12.645324
_cell_angle_alpha	90.031766
_cell_angle_beta	78.825388
_cell_angle_gamma	101.241872
loop_
_atom_site_label
_atom_site_type_symbol
_atom_site_fract_x
_atom_site_fract_y
_atom_site_fract_z
Zn1	Zn	1.208349	-0.094024	0.272303
Zn2	Zn	1.208260	-0.271357	0.095067
Zn3	Zn	1.076172	-0.129956	0.130832
Zn4	Zn	1.076159	-0.307121	0.308047
O5	O	1.142235	-0.200615	0.201562
O6	O	1.318939	-0.087543	0.218865
O7	O	1.190707	-0.252671	-0.048527
O8	O	1.093748	0.023169	0.149608
O9	O	1.318873	-0.217829	0.088651
O10	O	1.190858	0.049568	0.253545
O11	O	1.093662	-0.148784	-0.022251
O12	O	0.965569	-0.183462	0.184267
O13	O	1.093726	-0.278783	0.451644
O14	O	0.965560	-0.313625	0.314466
O15	O	1.190846	-0.122221	0.425383
O16	O	1.190694	-0.424460	0.123310
O17	O	1.093640	-0.450736	0.279786
C18	C	0.936887	-0.256324	0.257127
C19	C	0.849038	-0.280182	0.280923
C20	C	0.560029	-0.019348	0.020796
C21	C	0.477481	-0.041788	0.043170
C22	C	0.477526	-0.177512	0.178513
C23	C	0.560075	-0.155080	0.156153
C24	C	0.601320	-0.075998	0.077293
C25	C	0.601366	-0.211730	0.212650
C26	C	0.683908	-0.189303	0.190289
C27	C	0.725159	-0.110227	0.111430
C28	C	0.683862	-0.053571	0.054932
C29	C	0.560119	-0.290818	0.291505
C30	C	0.601410	-0.347468	0.348002
C31	C	0.683954	-0.325036	0.325646
C32	C	0.725205	-0.245959	0.246787
C33	C	0.725251	-0.381692	0.382145
C34	C	0.807793	-0.359265	0.359783
C35	C	0.807747	-0.223532	0.224426
C36	C	1.142177	-0.476060	0.201563
C37	C	1.142225	-0.593877	0.201579
C38	C	1.081420	-0.777947	0.300202
C39	C	1.081109	-0.655472	0.300022
C40	C	1.119675	-0.644605	0.095962
C41	C	1.119304	-0.767304	0.096562
C42	C	1.225952	-0.738240	0.207566
C43	C	1.225439	-0.615772	0.210148
C44	C	1.348385	-0.144688	0.145781
C45	C	1.436234	-0.120856	0.122011
C46	C	1.142294	-0.200483	0.478052
C47	C	1.142320	-0.200427	0.595875
C48	C	1.142315	0.075912	0.201579
C49	C	1.142348	0.193751	0.201586
C50	C	1.142222	-0.200657	-0.073864
C51	C	1.142350	-0.200372	-0.191728
C52	C	1.203655	-0.102107	0.746854
C53	C	1.203459	-0.101866	0.624347
C54	C	1.059054	-0.192667	0.662896
C55	C	1.059427	-0.191946	0.785394
C56	C	1.163574	-0.306811	0.757319
C57	C	1.165395	-0.305752	0.634220
H58	H	0.443933	-0.241904	0.242717
H59	H	1.019129	-0.643060	0.297845
H60	H	1.226671	-0.312014	0.588559
H61	H	1.271345	-0.754916	0.135465
H62	H	1.246522	-0.763492	0.282080
H63	H	1.095400	-0.803555	0.379530
C64	C	0.815956	-0.085547	0.086829
C65	C	0.861313	-0.100401	-0.027374
C66	C	0.952110	-0.075719	-0.051975
C67	C	0.997550	-0.036184	0.037626
C68	C	0.952193	-0.021328	0.151837
C69	C	0.861396	-0.046010	0.176438
H70	H	0.827675	-0.129669	-0.093709
H71	H	0.985685	-0.086717	-0.136522
H72	H	1.064763	-0.017913	0.019415
H73	H	0.985831	0.007940	0.218172
H74	H	0.827821	-0.035013	0.260984
C75	C	1.034303	-0.089816	0.628149
C76	C	0.954368	-0.063957	0.682490
C77	C	0.929622	0.038899	0.647745
C78	C	0.984811	0.115895	0.558658
C79	C	1.064752	0.090038	0.504312
C80	C	1.089498	-0.012817	0.539057
H81	H	0.913508	-0.120955	0.748443
H82	H	0.870444	0.058040	0.687976
H83	H	0.966493	0.192035	0.532938
H84	H	1.105611	0.147037	0.438360
H85	H	1.148675	-0.031958	0.498826
C86	C	1.177719	-0.589471	-0.004678
C87	C	1.187087	-0.467536	-0.027600
C88	C	1.245131	-0.412400	-0.128238
C89	C	1.293808	-0.479199	-0.205954
C90	C	1.284441	-0.601141	-0.183034
C91	C	1.226396	-0.656277	-0.082396
H92	H	1.151052	-0.418081	0.029932
H93	H	1.252065	-0.322130	-0.145205
H94	H	1.336776	-0.438384	-0.280452
H95	H	1.320476	-0.650596	-0.240565
H96	H	1.219463	-0.746547	-0.065429
H97	H	0.593613	0.045065	-0.043404
C98	C	0.995660	-0.287710	0.640655
C99	C	0.909109	-0.296782	0.697878
C100	C	0.845716	-0.391826	0.675634
C101	C	0.868875	-0.477798	0.596167
C102	C	0.955430	-0.468728	0.538939
C103	C	1.018823	-0.373685	0.561183
H104	H	0.891962	-0.233138	0.756709
H105	H	0.781642	-0.398539	0.717999
H106	H	0.821947	-0.548155	0.579701
H107	H	0.972577	-0.532372	0.480108
H108	H	1.082897	-0.366972	0.518818
C109	C	0.469322	-0.315494	0.316109
C110	C	0.423910	-0.429671	0.300939
C111	C	0.333113	-0.454349	0.325544
C112	C	0.287728	-0.364849	0.365320
C113	C	0.333140	-0.250664	0.380492
C114	C	0.423937	-0.225986	0.355887
H115	H	0.457507	-0.495931	0.271493
H116	H	0.299497	-0.538876	0.314313
H117	H	0.220515	-0.383116	0.383534
H118	H	0.299543	-0.184404	0.409938
H119	H	0.457553	-0.141459	0.367118
C120	C	1.109451	-0.407518	0.607969
C121	C	1.142425	-0.491545	0.533993
C122	C	1.086472	-0.593309	0.507746
C123	C	0.997543	-0.611045	0.555474
C124	C	0.964565	-0.527015	0.629455
C125	C	1.020519	-0.425252	0.655702
H126	H	1.208259	-0.478418	0.498658
H127	H	1.110885	-0.655513	0.452980
H128	H	0.956123	-0.686376	0.536045
H129	H	0.898731	-0.540142	0.664790
H130	H	0.996105	-0.363048	0.710468
C131	C	1.176641	-0.791820	-0.004451
C132	C	1.247284	-0.842453	0.007653
C133	C	1.304615	-0.866962	-0.093364
C134	C	1.291303	-0.840838	-0.206484
C135	C	1.220657	-0.790202	-0.218592
C136	C	1.163326	-0.765693	-0.117575
H137	H	1.257142	-0.861794	0.091395
H138	H	1.356912	-0.904447	-0.084400
H139	H	1.333743	-0.858982	-0.281262
H140	H	1.210800	-0.770861	-0.302334
H141	H	1.111029	-0.728209	-0.126539
H142	H	0.443865	0.004357	-0.002835
H143	H	0.567817	-0.411860	0.412207
C144	C	0.679874	-0.468682	0.468883
C145	C	0.623109	-0.567283	0.438179
C146	C	0.577733	-0.654275	0.524919
C147	C	0.589123	-0.642666	0.642363
C148	C	0.645891	-0.544062	0.673073
C149	C	0.691266	-0.457070	0.586333
H150	H	0.614676	-0.575879	0.351235
H151	H	0.535710	-0.727268	0.502185
H152	H	0.555533	-0.707063	0.706573
H153	H	0.654324	-0.535465	0.760016
H154	H	0.733290	-0.384077	0.609067
C155	C	1.036742	-0.828483	0.086174
C156	C	1.026777	-0.901063	-0.010012
C157	C	0.944213	-0.962236	-0.020397
C158	C	0.871613	-0.950829	0.065405
C159	C	0.881576	-0.878246	0.161598
C160	C	0.964140	-0.817073	0.171983
H161	H	1.080522	-0.909510	-0.073534
H162	H	0.936838	-1.015967	-0.091606
H163	H	0.810494	-0.996113	0.057718
H164	H	0.827832	-0.869799	0.225120
H165	H	0.971515	-0.763342	0.243192
C166	C	1.103256	-0.405349	0.812805
C167	C	1.035078	-0.389383	0.903892
C168	C	0.974759	-0.487911	0.959385
C169	C	0.982617	-0.602407	0.923790
C170	C	1.050798	-0.618379	0.832698
C171	C	1.111118	-0.519850	0.777205
H172	H	1.029258	-0.304622	0.930246
H173	H	0.924286	-0.476087	1.026817
H174	H	0.937965	-0.675344	0.964869
H175	H	1.056619	-0.703139	0.806344
H176	H	1.161590	-0.531674	0.709773
C177	C	1.289969	-0.556907	0.117693
C178	C	1.305137	-0.433092	0.104189
C179	C	1.369650	-0.374251	0.011695
C180	C	1.418995	-0.439226	-0.067294
C181	C	1.403828	-0.563049	-0.053792
C182	C	1.339315	-0.621889	0.038702
H183	H	1.268608	-0.384987	0.162663
H184	H	1.380877	-0.282589	0.001701
H185	H	1.466751	-0.395668	-0.135763
H186	H	1.440357	-0.611153	-0.112266
H187	H	1.328088	-0.713552	0.048696
C188	C	1.287343	-0.104745	0.764049
C189	C	1.325274	-0.202033	0.727964
C190	C	1.408963	-0.204673	0.745169
C191	C	1.454722	-0.110025	0.798459
C192	C	1.416792	-0.012729	0.834547
C193	C	1.333103	-0.010089	0.817342
H194	H	1.291400	-0.272104	0.688513
H195	H	1.437041	-0.276699	0.718454
H196	H	1.516674	-0.111979	0.811195
H197	H	1.450666	0.057342	0.873998
H198	H	1.305025	0.061936	0.844057
C199	C	0.995654	-0.286105	0.842754
C200	C	0.999673	-0.403013	0.811991
C201	C	0.935915	-0.497177	0.869359
C202	C	0.868139	-0.474433	0.957489
C203	C	0.864117	-0.357520	0.988256
C204	C	0.927875	-0.263355	0.930889
H205	H	1.049848	-0.419854	0.746748
H206	H	0.938893	-0.583724	0.846582
H207	H	0.820941	-0.544139	0.999956
H208	H	0.813942	-0.340678	1.053500
H209	H	0.924898	-0.176808	0.953665
C210	C	0.729245	0.033428	-0.031806
C211	C	0.786016	0.132016	-0.001091
C212	C	0.831402	0.219010	-0.087822
C213	C	0.820019	0.207416	-0.205269
C214	C	0.763246	0.108824	-0.235991
C215	C	0.717859	0.021830	-0.149259
H216	H	0.794445	0.140602	0.085856
H217	H	0.873429	0.291995	-0.065079
H218	H	0.853617	0.271814	-0.269473
H219	H	0.754817	0.100238	-0.322937
H220	H	0.675832	-0.051155	-0.172002
H221	H	1.265201	-0.104121	0.577561
H222	H	0.841331	-0.159120	0.160226
H223	H	0.841413	-0.405394	0.405790
H224	H	1.095218	-0.621479	0.379044
H225	H	1.059197	-0.630409	0.087657
H226	H	1.019828	-0.825565	0.298162
H227	H	1.242445	-0.581997	0.287766
H228	H	1.189783	-0.023217	0.781433
H229	H	1.223230	-0.318258	0.772153
H230	H	1.041436	-0.114812	0.818874
H231	H	1.189406	-0.022565	0.598839
