data_functionalizedCrystal
_audit_creation_method	'MofGen! by Chris Wilmer'
_symmetry_space_group_name_H-M	'P1'
_symmetry_Int_Tables_number	1
_symmetry_cell_setting	triclinic
loop_
_symmetry_equiv_pos_as_xyz
  x,y,z
_cell_length_a	18.101398
_cell_length_b	18.050590
_cell_length_c	18.101390
_cell_angle_alpha	89.966356
_cell_angle_beta	89.975319
_cell_angle_gamma	90.013819
loop_
_atom_site_label
_atom_site_type_symbol
_atom_site_fract_x
_atom_site_fract_y
_atom_site_fract_z
Zn1	Zn	1.132188	-0.295725	-0.418835
Zn2	Zn	1.632188	0.204275	0.081165
Zn3	Zn	1.132110	-0.419930	-0.294992
Zn4	Zn	1.632110	0.080070	0.205008
Zn5	Zn	1.008346	-0.295749	-0.294996
Zn6	Zn	1.508346	0.204251	0.205004
Zn7	Zn	1.008325	-0.419867	-0.418780
Zn8	Zn	1.508325	0.080133	0.081220
O9	O	1.070243	-0.357818	-0.356901
O10	O	1.570243	0.142182	0.143099
O11	O	1.235811	-0.312217	-0.402428
O12	O	1.735811	0.187783	0.097572
O13	O	1.115669	-0.403494	-0.191360
O14	O	1.615669	0.096506	0.308640
O15	O	1.024816	-0.191821	-0.311448
O16	O	1.524816	0.308179	0.188552
O17	O	1.235754	-0.403471	-0.311441
O18	O	1.735754	0.096529	0.188559
O19	O	1.115802	-0.191803	-0.402432
O20	O	1.615802	0.308197	0.097568
O21	O	1.024740	-0.312258	-0.191363
O22	O	1.524740	0.187742	0.308637
O23	O	0.904711	-0.312197	-0.311395
O24	O	1.404711	0.187803	0.188605
O25	O	1.024779	-0.403363	-0.522421
O26	O	1.524779	0.096637	-0.022421
O27	O	0.904695	-0.403386	-0.402339
O28	O	1.404695	0.096614	0.097661
O29	O	1.115781	-0.312156	-0.522461
O30	O	1.615781	0.187844	-0.022461
O31	O	1.115649	-0.523847	-0.311388
O32	O	1.615649	-0.023847	0.188612
O33	O	1.024704	-0.523800	-0.402335
O34	O	1.524704	-0.023800	0.097665
C35	C	0.877832	-0.357788	-0.356862
C36	C	1.377832	0.142212	0.143138
C37	C	0.795518	-0.357793	-0.356863
C38	C	1.295518	0.142207	0.143137
C39	C	1.070186	-0.550770	-0.356871
C40	C	1.570186	-0.050770	0.143129
C41	C	1.070229	-0.633316	-0.356883
C42	C	1.570229	-0.133316	0.143117
C43	C	0.496427	-0.357839	-0.356926
C44	C	0.996427	0.142161	0.143074
C45	C	0.527737	-0.300178	-0.299985
C46	C	1.027737	0.199822	0.200015
C47	C	0.613355	-0.300333	-0.299742
C48	C	1.113355	0.199667	0.200258
C49	C	0.644809	-0.357815	-0.356895
C50	C	1.144809	0.142185	0.143105
C51	C	0.613708	-0.436048	-0.335569
C52	C	1.113708	0.063952	0.164431
C53	C	0.528063	-0.435728	-0.335173
C54	C	1.028063	0.064272	0.164827
C55	C	0.528038	-0.337947	-0.435325
C56	C	1.028038	0.162053	0.064675
C57	C	0.613688	-0.336205	-0.434897
C58	C	1.113688	0.163795	0.065103
C59	C	0.728669	-0.357807	-0.356878
C60	C	1.228669	0.142193	0.143122
C61	C	0.412567	-0.357853	-0.356940
C62	C	0.912567	0.142147	0.143060
C63	C	1.119788	-0.832765	-0.307496
C64	C	1.619788	-0.332765	0.192504
C65	C	1.137877	-0.882092	-0.375087
C66	C	1.637877	-0.382092	0.124913
C67	C	1.070271	-0.784446	-0.356913
C68	C	1.570271	-0.284446	0.143087
C69	C	1.052257	-0.882200	-0.289352
C70	C	1.552257	-0.382200	0.210648
C71	C	1.070313	-0.930431	-0.356936
C72	C	1.570313	-0.430431	0.143064
C73	C	1.088396	-0.832687	-0.424540
C74	C	1.588396	-0.332687	0.075460
C75	C	1.002743	-0.832790	-0.338759
C76	C	1.502743	-0.332790	0.161241
C77	C	1.020807	-0.882095	-0.406397
C78	C	1.520807	-0.382095	0.093603
C79	C	1.070249	-0.700348	-0.356899
C80	C	1.570249	-0.200348	0.143101
C81	C	1.070335	-1.014528	-0.356957
C82	C	1.570335	-0.514528	0.143043
C83	C	1.263404	-0.357849	-0.356940
C84	C	1.763404	0.142151	0.143060
C85	C	1.345718	-0.357862	-0.356957
C86	C	1.845718	0.142138	0.143043
C87	C	1.070287	-0.357750	-0.550063
C88	C	1.570287	0.142250	-0.050063
C89	C	1.070305	-0.357721	-0.632377
C90	C	1.570305	0.142279	-0.132377
C91	C	1.070320	-0.164112	-0.356947
C92	C	1.570320	0.335888	0.143053
C93	C	1.070353	-0.081566	-0.356966
C94	C	1.570353	0.418434	0.143034
C95	C	1.070345	-0.357675	-0.931468
C96	C	1.570345	0.142325	-0.431468
C97	C	1.127790	-0.300492	-0.900168
C98	C	1.627790	0.199508	-0.400168
C99	C	1.127610	-0.300280	-0.814550
C100	C	1.627610	0.199720	-0.314550
C101	C	1.070326	-0.357698	-0.783086
C102	C	1.570326	0.142302	-0.283086
C103	C	0.992305	-0.336428	-0.814152
C104	C	1.492305	0.163572	-0.314152
C105	C	0.992649	-0.336000	-0.899798
C106	C	1.492649	0.164000	-0.399798
C107	C	1.090235	-0.436274	-0.899881
C108	C	1.590235	0.063726	-0.399881
C109	C	1.091947	-0.435873	-0.814231
C110	C	1.591947	0.064127	-0.314231
C111	C	1.070310	-0.357712	-0.699226
C112	C	1.570310	0.142288	-0.199226
C113	C	1.070356	-0.357659	-1.015328
C114	C	1.570356	0.142341	-0.515328
C115	C	1.070241	-0.357832	-0.164490
C116	C	1.570241	0.142168	0.335510
C117	C	1.070366	-0.357651	-0.082177
C118	C	1.570366	0.142349	0.417823
H119	H	0.634383	-0.242320	-0.313110
H120	H	1.134383	0.257680	0.186890
H121	H	1.114444	-0.242052	-0.794077
H122	H	1.614444	0.257948	-0.294077
H123	H	1.161676	-0.811103	-0.265748
H124	H	1.661676	-0.311103	0.234252
C125	C	0.642610	-0.388811	-0.495284
C126	C	1.142610	0.111189	0.004716
N127	N	0.664393	-0.428441	-0.540765
N128	N	1.164393	0.071559	-0.040765
C129	C	1.109098	-0.803433	-0.501762
C130	C	1.609098	-0.303433	-0.001762
N131	N	1.124695	-0.781397	-0.559924
N132	N	1.624695	-0.281397	-0.059924
H133	H	0.507351	-0.480145	-0.374837
H134	H	1.007351	0.019855	0.125163
H135	H	1.185833	-0.313648	-0.920775
H136	H	1.685833	0.186352	-0.420775
C137	C	1.165781	-0.462407	-0.929073
C138	C	1.665781	0.037593	-0.429073
N139	N	1.222685	-0.482081	-0.951060
N140	N	1.722685	0.017919	-0.451060
C141	C	0.964259	-0.911173	-0.462931
C142	C	1.464259	-0.411173	0.037069
N143	N	0.921669	-0.933075	-0.505514
N144	N	1.421669	-0.433075	-0.005514
C145	C	0.969900	-0.258371	-0.926805
C146	C	1.469900	0.241629	-0.426805
N147	N	0.952778	-0.199896	-0.947144
N148	N	1.452778	0.300104	-0.447144
H149	H	1.048399	-0.478882	-0.920127
H150	H	1.548399	0.021118	-0.420127
C151	C	1.110226	-0.222265	-0.929260
C152	C	1.610226	0.277735	-0.429260
N153	N	1.096995	-0.163346	-0.951172
N154	N	1.596995	0.336654	-0.451172
C155	C	0.641242	-0.495647	-0.389834
C156	C	1.141242	0.004353	0.110166
N157	N	0.661986	-0.540537	-0.430706
N158	N	1.161986	-0.040537	0.069294
H159	H	1.037003	-0.903948	-0.232207
H160	H	1.537003	-0.403948	0.267793
C161	C	0.925596	-0.803498	-0.317965
C162	C	1.425596	-0.303498	0.182035
N163	N	0.867489	-0.781432	-0.302293
N164	N	1.367489	-0.281432	0.197707
C165	C	0.642635	-0.459231	-0.258973
C166	C	1.142635	0.040769	0.241027
N167	N	0.664421	-0.476687	-0.201278
N168	N	1.164421	0.023313	0.298722
H169	H	0.506190	-0.313180	-0.242230
H170	H	1.006190	0.186820	0.257770
C171	C	1.169513	-0.457545	-0.786796
C172	C	1.669513	0.042455	-0.286796
N173	N	1.227935	-0.473867	-0.766126
N174	N	1.727935	0.026133	-0.266126
C175	C	1.205777	-0.318242	-0.786174
C176	C	1.705777	0.181758	-0.286174
N177	N	1.264657	-0.331761	-0.764805
N178	N	1.764657	0.168239	-0.264805
C179	C	0.498886	-0.262215	-0.461515
C180	C	0.998886	0.237785	0.038485
N181	N	0.476930	-0.205169	-0.481232
N182	N	0.976930	0.294831	0.018768
C183	C	0.499928	-0.221564	-0.317841
C184	C	0.999928	0.278436	0.182159
N185	N	0.478976	-0.162350	-0.331291
N186	N	0.978976	0.337650	0.168709
H187	H	1.195002	-0.903751	-0.390456
H188	H	1.695002	-0.403751	0.109544
C189	C	0.500681	-0.394681	-0.492642
C190	C	1.000681	0.105319	0.007358
N191	N	0.480071	-0.437414	-0.535807
N192	N	0.980071	0.062586	-0.035807
C193	C	0.640994	-0.318103	-0.221261
C194	C	1.140994	0.181897	0.278739
N195	N	0.661810	-0.331491	-0.162146
N196	N	1.161810	0.168509	0.337854
H197	H	0.948391	-0.375837	-0.920501
H198	H	1.448391	0.124163	-0.420501
H199	H	1.053151	-0.480769	-0.792810
H200	H	1.553151	0.019231	-0.292810
C201	C	0.641145	-0.258424	-0.456618
C202	C	1.141145	0.241576	0.043382
N203	N	0.661828	-0.199838	-0.472975
N204	N	1.161828	0.300162	0.027025
H205	H	0.948342	-0.376795	-0.793769
H206	H	1.448342	0.123205	-0.293769
H207	H	0.975139	-0.279611	-0.792713
H208	H	1.475139	0.220389	-0.292713
H209	H	0.508055	-0.452597	-0.277859
H210	H	1.008055	0.047403	0.222141
