data_functionalizedCrystal
_audit_creation_method	'MofGen! by Chris Wilmer'
_symmetry_space_group_name_H-M	'P1'
_symmetry_Int_Tables_number	1
_symmetry_cell_setting	triclinic
loop_
_symmetry_equiv_pos_as_xyz
  x,y,z
_cell_length_a	8.597340
_cell_length_b	13.262508
_cell_length_c	7.681481
_cell_angle_alpha	100.048420
_cell_angle_beta	103.474906
_cell_angle_gamma	82.751928
loop_
_atom_site_label
_atom_site_type_symbol
_atom_site_fract_x
_atom_site_fract_y
_atom_site_fract_z
O1	O	2.107705	0.140579	0.240679
O2	O	1.644549	0.156775	0.178164
O3	O	1.880541	0.000698	0.139227
O4	O	1.871713	0.296656	0.279615
O5	O	1.909586	-0.018556	0.427271
O6	O	1.673594	0.137521	0.466208
O7	O	2.136749	0.121325	0.528723
Zn8	Zn	1.909783	0.126366	0.543199
Zn9	Zn	1.871516	0.151734	0.163688
O10	O	1.900757	0.277402	0.567660
C11	C	1.599651	0.146482	0.312851
C12	C	1.422595	0.144483	0.285030
C13	C	1.891898	-0.046801	0.264629
C14	C	1.882445	-0.159647	0.209144
C15	C	1.919120	-0.519738	0.680810
C16	C	1.927989	-0.413712	0.732942
C17	C	1.916604	-0.350191	0.601997
C18	C	1.896348	-0.392705	0.418911
C19	C	1.887465	-0.498740	0.366773
C20	C	1.884949	-0.329193	0.287960
C21	C	1.864693	-0.371708	0.104875
C22	C	1.855812	-0.477733	0.052746
C23	C	1.867197	-0.541254	0.183691
C24	C	1.893832	-0.223158	0.340098
C25	C	1.862177	-0.202161	0.026061
C26	C	1.853308	-0.308186	-0.026070
C27	C	2.181648	0.131619	0.394032
C28	C	2.358702	0.133619	0.421842
C29	C	1.889401	0.324901	0.442254
C30	C	1.898852	0.437748	0.497728
N31	N	1.935911	0.109052	0.802206
N32	N	1.845400	0.169040	-0.095321
H33	H	1.910311	-0.188553	0.489165
H34	H	2.028322	0.047827	0.862113
N35	N	1.465655	0.123313	0.605201
H36	H	1.581221	0.126246	0.599759
H37	H	1.434174	0.181379	0.697982
N38	N	1.315636	0.154771	0.101653
H39	H	1.200070	0.151837	0.107090
H40	H	1.328321	0.222661	0.066333
H41	H	1.852895	-0.150440	-0.080567
H42	H	1.923824	-0.263861	0.644453
N43	N	1.722999	0.250145	0.825366
H44	H	1.778985	0.300102	0.781279
H45	H	1.642666	0.216251	0.720572
N46	N	1.949844	-0.367859	0.930396
H47	H	1.955717	-0.424186	1.005440
H48	H	2.052507	-0.332569	0.969827
H49	H	1.928376	-0.571465	0.787404
H50	H	1.859985	-0.627590	0.141255
H51	H	1.839304	-0.512343	-0.096336
H52	H	1.836813	-0.342817	-0.175142
