data_functionalizedCrystal
_audit_creation_method	'MofGen! by Chris Wilmer'
_symmetry_space_group_name_H-M	'P1'
_symmetry_Int_Tables_number	1
_symmetry_cell_setting	triclinic
loop_
_symmetry_equiv_pos_as_xyz
  x,y,z
_cell_length_a	8.634740
_cell_length_b	7.088929
_cell_length_c	8.597282
_cell_angle_alpha	76.027061
_cell_angle_beta	87.119848
_cell_angle_gamma	82.825047
loop_
_atom_site_label
_atom_site_type_symbol
_atom_site_fract_x
_atom_site_fract_y
_atom_site_fract_z
O1	O	2.029531	0.246975	-0.534262
O2	O	1.580636	0.239794	-0.490634
O3	O	1.817659	0.205424	-0.282030
O4	O	1.792508	0.281345	-0.742866
O5	O	1.849335	-0.117156	-0.254078
O6	O	1.612312	-0.082786	-0.462682
O7	O	2.061207	-0.075605	-0.506310
Cu8	Cu	1.839652	-0.108650	-0.481944
Cu9	Cu	1.802191	0.272839	-0.515000
O10	O	1.824184	-0.041235	-0.714915
C11	C	1.539037	0.076877	-0.466775
C12	C	1.367892	0.072025	-0.437306
N13	N	1.866011	-0.376969	-0.458695
C14	C	2.102806	0.087317	-0.530170
C15	C	2.273950	0.092181	-0.559640
C16	C	1.832560	0.034318	-0.208444
C17	C	1.829751	0.005067	-0.030823
N18	N	1.775845	0.541156	-0.538239
C19	C	1.809282	0.129875	0.211500
C20	C	1.812092	0.159134	0.033878
H21	H	1.317384	0.051106	-0.310030
H22	H	1.682398	-0.363617	-0.620668
H23	H	1.959474	-0.472204	-0.376273
C24	C	1.341570	0.120236	-0.729263
C25	C	1.503564	0.119708	-0.725766
C26	C	1.565905	0.145579	-0.881991
H27	H	1.318868	0.016719	-0.773757
H28	H	1.296688	0.241692	-0.793112
H29	H	1.548430	-0.001733	-0.661941
H30	H	1.526310	0.223222	-0.681302
H31	H	1.521023	0.267036	-0.945840
H32	H	1.543191	0.042058	-0.926473
H33	H	1.675821	0.145243	-0.879641
C34	C	1.846735	-0.200718	0.076413
C35	C	1.725196	-0.300574	0.047582
C36	C	1.740777	-0.490143	0.146361
H37	H	1.944045	-0.268492	0.053842
H38	H	1.842411	-0.193796	0.185561
H39	H	1.729534	-0.307506	-0.061541
H40	H	1.627870	-0.232859	0.070163
H41	H	1.736453	-0.483221	0.255509
H42	H	1.838091	-0.557898	0.123781
H43	H	1.658309	-0.557913	0.126823
H44	H	1.799104	0.313432	-0.046622
