data_functionalizedCrystal
_audit_creation_method	'MofGen! by Chris Wilmer'
_symmetry_space_group_name_H-M	'P1'
_symmetry_Int_Tables_number	1
_symmetry_cell_setting	triclinic
loop_
_symmetry_equiv_pos_as_xyz
  x,y,z
_cell_length_a	16.992697
_cell_length_b	16.992696
_cell_length_c	15.455322
_cell_angle_alpha	87.160116
_cell_angle_beta	92.857349
_cell_angle_gamma	90.668453
loop_
_atom_site_label
_atom_site_type_symbol
_atom_site_fract_x
_atom_site_fract_y
_atom_site_fract_z
O1	O	-1.054081	-0.163696	-0.072030
O2	O	-0.554081	0.336304	0.427970
O3	O	-0.825683	-0.161863	-0.072059
O4	O	-0.325683	0.338137	0.427941
O5	O	-0.938965	-0.048580	-0.072021
O6	O	-0.438965	0.451420	0.427979
O7	O	-0.940799	-0.276978	-0.072069
O8	O	-0.440799	0.223022	0.427931
O9	O	-0.932484	-0.055031	0.072239
O10	O	-0.432484	0.444969	0.572239
O11	O	-0.819202	-0.168313	0.072201
O12	O	-0.319202	0.331687	0.572201
O13	O	-1.047601	-0.170146	0.072230
O14	O	-0.547601	0.329854	0.572230
Cu15	Cu	-0.932810	-0.169818	0.085387
Cu16	Cu	-0.432810	0.330182	0.585387
Cu17	Cu	-0.940474	-0.162190	-0.085217
Cu18	Cu	-0.440474	0.337810	0.414783
O19	O	-0.934318	-0.283428	0.072191
O20	O	-0.434318	0.216572	0.572191
C21	C	-0.793082	-0.162732	0.000068
C22	C	-0.293082	0.337268	0.500068
C23	C	-0.705598	-0.155703	0.000058
C24	C	-0.205598	0.344297	0.500058
N25	N	-0.927425	-0.175183	0.205381
N26	N	-0.427425	0.324817	0.705381
C27	C	-0.659608	-0.223520	0.000043
C28	C	-0.159608	0.276480	0.500043
C29	C	-0.577407	-0.216911	0.000055
C30	C	-0.077407	0.283089	0.500055
C31	C	-0.541197	-0.142485	0.000075
C32	C	-0.041197	0.357515	0.500075
C33	C	-0.587193	-0.074662	0.000092
C34	C	-0.087193	0.425338	0.500092
C35	C	-0.669393	-0.081272	0.000087
C36	C	-0.169393	0.418728	0.500087
C37	C	-0.295882	-0.115091	0.000100
C38	C	0.204118	0.384909	0.500100
C39	C	-0.213676	-0.108486	0.000104
C40	C	0.286324	0.391514	0.500104
C41	C	-0.203895	-0.250736	0.000068
C42	C	0.296105	0.249264	0.500068
C43	C	-0.286097	-0.257339	0.000057
C44	C	0.213903	0.242661	0.500057
C45	C	-0.332086	-0.189517	0.000079
C46	C	0.167914	0.310483	0.500079
N47	N	-0.457175	-0.135728	0.000085
N48	N	0.042825	0.364272	0.500085
N49	N	-0.416107	-0.196275	0.000075
N50	N	0.083893	0.303725	0.500075
C51	C	-0.933369	-0.022446	0.000113
C52	C	-0.433369	0.477554	0.500113
C53	C	-0.926339	0.065039	0.000125
C54	C	-0.426339	0.565039	0.500125
C55	C	-0.080201	-0.169276	0.000097
C56	C	0.419799	0.330724	0.500097
C57	C	-0.167686	-0.176303	0.000089
C58	C	0.332314	0.323697	0.500089
C59	C	-0.994156	0.111029	0.000142
C60	C	-0.494156	0.611029	0.500142
C61	C	-0.987547	0.193229	0.000145
C62	C	-0.487547	0.693229	0.500145
C63	C	-0.913120	0.229438	0.000138
C64	C	-0.413120	0.729438	0.500138
C65	C	-0.845298	0.183442	0.000119
C66	C	-0.345298	0.683442	0.500119
C67	C	-0.851908	0.101243	0.000110
C68	C	-0.351908	0.601243	0.500110
C69	C	-0.885724	0.474751	0.000160
C70	C	-0.385724	0.974751	0.500160
C71	C	-0.879118	0.556956	0.000172
C72	C	-0.379118	1.056956	0.500172
C73	C	-1.021369	0.566738	0.000196
C74	C	-0.521369	1.066738	0.500196
C75	C	-1.027972	0.484537	0.000192
C76	C	-0.527972	0.984537	0.500192
C77	C	-0.960150	0.438548	0.000168
C78	C	-0.460150	0.938548	0.500168
N79	N	-0.906362	0.313460	0.000144
N80	N	-0.406362	0.813460	0.500144
N81	N	-0.966909	0.354528	0.000156
N82	N	-0.466909	0.854528	0.500156
C83	C	-0.939912	0.690435	0.000093
C84	C	-0.439912	1.190435	0.500093
C85	C	-0.946936	0.602946	0.000188
C86	C	-0.446936	1.102946	0.500188
C87	C	-0.975570	-0.127077	0.250792
C88	C	-0.475570	0.372923	0.750792
C89	C	-0.971505	-0.131142	0.341598
C90	C	-0.471505	0.368858	0.841598
C91	C	-0.919299	-0.183318	0.386992
C92	C	-0.419299	0.316682	0.886992
C93	C	-0.871149	-0.231426	0.341576
C94	C	-0.371149	0.268574	0.841576
C95	C	-0.875210	-0.227357	0.250771
C96	C	-0.375210	0.272643	0.750771
C97	C	-0.901769	-0.200862	0.658568
C98	C	-0.401769	0.299138	1.158568
C99	C	-0.897713	-0.204930	0.749379
C100	C	-0.397713	0.295070	1.249379
C101	C	-0.998069	-0.104644	0.749395
C102	C	-0.498069	0.395356	1.249395
C103	C	-1.002129	-0.100583	0.658589
C104	C	-0.502129	0.399417	1.158589
C105	C	-0.953976	-0.148688	0.613180
C106	C	-0.453976	0.351312	1.113180
N107	N	-0.915145	-0.187476	0.479811
N108	N	-0.415145	0.312524	0.979811
N109	N	-0.958126	-0.144525	0.520363
N110	N	-0.458126	0.355475	1.020363
N111	N	-0.945858	-0.156824	0.794790
N112	N	-0.445858	0.343176	1.294790
H113	H	-0.689083	-0.284126	0.000026
H114	H	-0.189083	0.215874	0.500026
H115	H	-0.315573	-0.317944	0.000031
H116	H	0.184427	0.182056	0.500031
H117	H	-0.796684	0.063799	0.000096
H118	H	-0.296684	0.563799	0.500096
H119	H	-0.166443	-0.305952	0.000053
H120	H	0.333557	0.194048	0.500053
H121	H	-0.539965	-0.272136	0.000043
H122	H	-0.039965	0.227864	0.500043
H123	H	-0.184198	-0.047876	0.000119
H124	H	0.315802	0.452124	0.500119
H125	H	-0.818507	0.586434	0.000180
H126	H	-0.318507	1.086434	0.500180
H127	H	-0.333316	-0.059865	0.000119
H128	H	0.166684	0.440135	0.500119
H129	H	-0.836004	-0.266529	0.213798
H130	H	-0.336004	0.233471	0.713798
H131	H	-0.557705	-0.014063	0.000121
H132	H	-0.057705	0.485937	0.500121
H133	H	-0.706838	-0.026048	0.000098
H134	H	-0.206838	0.473952	0.500098
H135	H	-1.054763	0.081554	0.000153
H136	H	-0.554763	0.581554	0.500153
H137	H	-1.042771	0.230671	0.000160
H138	H	-0.542771	0.730671	0.500160
H139	H	-1.076585	0.604190	0.000214
H140	H	-0.576585	1.104190	0.500214
H141	H	-1.088579	0.455062	0.000198
H142	H	-0.588579	0.955062	0.500198
H143	H	-1.018085	-0.084594	0.213837
H144	H	-0.518085	0.415406	0.713837
H145	H	-0.828637	-0.273906	0.378541
H146	H	-0.328637	0.226094	0.878541
H147	H	-1.044640	-0.058097	0.621630
H148	H	-0.544640	0.441903	1.121630
H149	H	-1.037272	-0.065479	0.786376
H150	H	-0.537272	0.434521	1.286376
H151	H	-0.830498	0.437317	0.000141
H152	H	-0.330498	0.937317	0.500141
H153	H	-0.784697	0.212930	0.000108
H154	H	-0.284697	0.712930	0.500108
H155	H	-1.010708	-0.091970	0.378571
H156	H	-0.510708	0.408030	0.878571
H157	H	-0.855198	-0.247421	0.786335
H158	H	-0.355198	0.252579	1.286335
H159	H	-0.862562	-0.240033	0.621603
H160	H	-0.362562	0.259967	1.121603
