data_functionalizedCrystal
_audit_creation_method	'MofGen! by Chris Wilmer'
_symmetry_space_group_name_H-M	'P1'
_symmetry_Int_Tables_number	1
_symmetry_cell_setting	triclinic
loop_
_symmetry_equiv_pos_as_xyz
  x,y,z
_cell_length_a	12.594517
_cell_length_b	25.639239
_cell_length_c	12.594509
_cell_angle_alpha	89.965872
_cell_angle_beta	89.978673
_cell_angle_gamma	90.038486
loop_
_atom_site_label
_atom_site_type_symbol
_atom_site_fract_x
_atom_site_fract_y
_atom_site_fract_z
Zn1	Zn	1.627100	-0.208138	-0.601816
Zn2	Zn	1.626920	-0.295580	-0.423819
Zn3	Zn	1.449103	-0.208160	-0.423845
Zn4	Zn	1.449015	-0.295544	-0.601750
O5	O	1.538035	-0.251855	-0.512808
O6	O	1.776022	-0.219743	-0.578222
O7	O	1.603294	-0.284008	-0.274877
O8	O	1.472827	-0.134992	-0.447492
O9	O	1.775890	-0.283987	-0.447448
O10	O	1.603600	-0.134976	-0.578247
O11	O	1.472653	-0.219781	-0.274896
O12	O	1.300146	-0.219746	-0.447427
O13	O	1.472677	-0.283925	-0.750704
O14	O	1.300081	-0.283946	-0.578133
O15	O	1.603515	-0.219708	-0.750753
O16	O	1.603209	-0.368740	-0.447384
O17	O	1.472503	-0.368714	-0.578108
C18	C	1.261494	-0.251845	-0.512776
C19	C	1.143188	-0.251853	-0.512788
C20	C	1.073939	-0.216887	-0.441833
C21	C	1.003090	-0.264579	-0.415643
C22	C	1.003239	-0.204184	-0.538996
C23	C	1.073897	-0.299570	-0.486547
C24	C	1.074052	-0.239144	-0.609946
C25	C	1.003234	-0.286869	-0.583793
C26	C	1.537856	-0.387698	-0.512759
C27	C	1.537876	-0.445812	-0.512774
C28	C	1.606271	-0.806176	-0.444855
C29	C	1.606312	-0.860781	-0.444870
O30	O	1.664278	-0.889019	-0.387070
N31	N	1.538222	-0.888094	-0.512878
C32	C	1.470093	-0.860801	-0.580885
O33	O	1.412182	-0.889048	-0.638733
C34	C	1.470058	-0.806198	-0.580875
C35	C	1.538145	-0.778887	-0.512854
C36	C	1.674353	-0.778865	-0.376841
C37	C	1.674310	-0.724265	-0.376826
C38	C	1.606185	-0.696975	-0.444825
C39	C	1.538102	-0.724286	-0.512839
C40	C	1.401936	-0.778905	-0.648886
C41	C	1.401907	-0.724298	-0.648871
C42	C	1.469994	-0.696987	-0.580850
C43	C	1.469934	-0.642396	-0.580822
N44	N	1.538024	-0.615083	-0.512814
C45	C	1.606150	-0.642372	-0.444815
C46	C	1.470174	-0.975472	-0.580901
C47	C	1.470202	-1.030074	-0.580906
C48	C	1.606423	-1.030050	-0.444892
C49	C	1.606388	-0.975447	-0.444883
C50	C	1.538264	-0.948158	-0.512892
C51	C	1.606054	-0.527707	-0.444787
C52	C	1.606002	-0.473102	-0.444775
C53	C	1.469786	-0.473131	-0.580792
C54	C	1.469833	-0.527731	-0.580801
C55	C	1.537976	-0.555018	-0.512795
O56	O	1.412001	-0.614124	-0.638596
O57	O	1.664062	-0.614119	-0.386986
C58	C	1.815655	-0.251866	-0.512840
C59	C	1.933961	-0.251871	-0.512853
C60	C	1.538106	-0.251810	-0.790429
C61	C	1.538136	-0.251790	-0.908734
C62	C	1.538243	-0.115482	-0.512880
C63	C	1.538332	-0.057368	-0.512911
C64	C	1.466996	-0.286698	-0.977961
C65	C	1.564106	-0.299473	-1.048748
C66	C	1.441102	-0.238984	-1.048746
C67	C	1.635297	-0.264590	-0.977964
C68	C	1.512227	-0.204079	-0.977955
C69	C	1.609405	-0.216836	-1.048711
C70	C	1.538025	-0.251863	-0.236267
C71	C	1.538201	-0.251736	-0.117962
H72	H	0.972385	-0.316480	-0.643825
O73	O	1.740420	-0.805444	-0.310789
C74	C	1.679937	-0.837093	-0.241965
H75	H	1.599231	-0.845292	-0.279377
H76	H	1.723341	-0.875476	-0.227826
H77	H	1.668331	-0.816104	-0.163039
O78	O	0.965948	-0.277331	-0.317595
C79	C	1.001986	-0.240368	-0.242986
H80	H	1.021918	-0.202321	-0.285448
H81	H	0.937180	-0.233007	-0.181592
H82	H	1.075999	-0.255887	-0.201587
H83	H	1.586055	-0.339798	-1.079845
O84	O	0.966028	-0.156110	-0.565356
C85	C	0.854093	-0.156912	-0.565991
H86	H	0.824548	-0.190183	-0.513644
H87	H	0.822627	-0.118280	-0.534167
H88	H	0.824589	-0.162919	-0.650673
O89	O	1.672584	-0.948862	-0.378961
C90	C	1.741302	-0.917235	-0.439613
H91	H	1.703716	-0.909041	-0.520238
H92	H	1.755574	-0.878848	-0.396260
H93	H	1.820182	-0.938241	-0.451386
H94	H	1.346487	-0.801133	-0.704271
H95	H	1.490250	-0.163765	-0.946835
H96	H	1.406882	-0.316264	-0.946897
O97	O	1.111401	-0.226229	-0.707821
C98	C	1.174573	-0.180965	-0.700233
H99	H	1.205528	-0.176833	-0.615607
H100	H	1.244446	-0.184129	-0.757429
H101	H	1.124830	-0.145332	-0.721527
O102	O	1.733181	-0.277559	-0.940859
C103	C	1.731959	-0.277441	-0.828917
H104	H	1.647123	-0.283259	-0.799609
H105	H	1.784143	-0.310433	-0.798005
H106	H	1.763624	-0.238536	-0.798617
H107	H	1.104806	-0.339902	-0.464317
O108	O	1.672247	-0.446653	-0.378664
C109	C	1.732366	-0.482453	-0.318636
H110	H	1.736054	-0.521358	-0.362251
H111	H	1.816223	-0.466639	-0.307354
H112	H	1.693438	-0.488311	-0.237765
O113	O	1.672104	-0.554271	-0.378687
C114	C	1.611583	-0.585906	-0.309871
H115	H	1.530902	-0.594117	-0.347326
H116	H	1.654984	-0.624284	-0.295668
H117	H	1.599924	-0.564899	-0.230972
H118	H	1.729756	-0.702031	-0.321441
H119	H	1.104984	-0.187346	-0.381755
O120	O	1.403930	-0.948908	-0.646812
C121	C	1.335174	-0.917389	-0.586145
H122	H	1.372755	-0.909211	-0.505521
H123	H	1.320848	-0.878987	-0.629487
H124	H	1.256323	-0.938480	-0.574373
H125	H	1.661898	-1.052279	-0.389527
O126	O	1.404020	-1.056520	-0.647073
C127	C	1.343867	-1.020718	-0.707061
H128	H	1.387438	-0.981772	-0.710769
H129	H	1.332475	-1.036466	-0.790919
H130	H	1.263048	-1.014964	-0.668005
H131	H	1.346434	-0.702083	-0.704256
H132	H	1.414395	-0.549969	-0.636192
H133	H	1.414316	-0.450903	-0.636153
O134	O	1.343257	-0.226022	-1.085963
C135	C	1.350667	-0.180208	-1.147503
H136	H	1.435374	-0.175571	-1.178028
H137	H	1.293779	-0.182942	-1.217666
H138	H	1.328839	-0.145064	-1.096579
H139	H	1.669663	-0.187292	-1.079579
