data_functionalizedCrystal
_audit_creation_method	'MofGen! by Chris Wilmer'
_symmetry_space_group_name_H-M	'P1'
_symmetry_Int_Tables_number	1
_symmetry_cell_setting	triclinic
loop_
_symmetry_equiv_pos_as_xyz
  x,y,z
_cell_length_a	14.519710
_cell_length_b	17.699083
_cell_length_c	16.176319
_cell_angle_alpha	90.007696
_cell_angle_beta	89.993531
_cell_angle_gamma	96.518420
loop_
_atom_site_label
_atom_site_type_symbol
_atom_site_fract_x
_atom_site_fract_y
_atom_site_fract_z
O1	O	1.223449	-0.099216	-0.068730
O2	O	0.954923	-0.110899	-0.068736
O3	O	1.096773	0.005110	-0.068726
O4	O	1.081600	-0.215225	-0.068741
O5	O	1.096753	0.005118	0.068768
O6	O	0.954903	-0.110892	0.068757
O7	O	1.223430	-0.099208	0.068763
Cu8	Cu	1.089165	-0.105049	0.081314
Cu9	Cu	1.089188	-0.105058	-0.081287
O10	O	1.081580	-0.215217	0.068753
C11	C	1.096219	0.033312	0.000021
C12	C	1.094588	0.117335	0.000021
C13	C	0.920556	-0.110351	0.000010
C14	C	0.818181	-0.108719	0.000008
C15	C	1.257797	-0.099756	0.000015
C16	C	1.360171	-0.101388	0.000012
C17	C	1.735042	-0.107395	0.000011
C18	C	1.630741	-0.105727	0.000011
C19	C	1.547610	-0.104392	0.000011
C20	C	1.443302	-0.102723	0.000012
C21	C	1.082134	-0.243420	0.000004
C22	C	1.083765	-0.327442	-0.000002
N23	N	1.089155	-0.105043	0.195680
C24	C	1.177851	0.165718	0.000024
C25	C	1.176313	0.244665	0.000017
C26	C	1.091511	0.275229	0.000013
C27	C	1.008242	0.226840	0.000007
C28	C	1.009781	0.147894	0.000009
C29	C	1.002033	0.545221	0.000000
C30	C	1.000501	0.624173	0.000001
C31	C	1.168566	0.641992	0.000009
C32	C	1.170105	0.563046	0.000010
C33	C	1.086836	0.514664	0.000000
C34	C	1.088505	0.429060	0.000007
C35	C	1.089841	0.360831	0.000012
N36	N	1.089205	-0.105059	-0.195653
C37	C	1.151985	-0.053695	0.238948
C38	C	1.151990	-0.053694	0.325495
C39	C	1.089168	-0.105045	0.368772
C40	C	1.026332	-0.156396	0.325497
C41	C	1.026323	-0.156392	0.238952
C42	C	1.026363	-0.156410	0.674526
C43	C	1.026378	-0.156411	0.761077
C44	C	1.152030	-0.053712	0.761069
C45	C	1.152022	-0.053708	0.674524
C46	C	1.089182	-0.105055	0.631256
C47	C	1.089177	-0.105055	0.537412
C48	C	1.089178	-0.105050	0.462615
H49	H	1.246907	0.140840	0.000033
O50	O	1.261572	0.530085	0.000003
H51	H	1.301576	0.549521	0.056036
H52	H	0.931441	0.649055	-0.000001
H53	H	0.975177	-0.198204	0.360738
O54	O	0.916779	0.259808	0.000007
H55	H	0.876787	0.240385	-0.056038
H56	H	0.941980	0.108501	0.000006
H57	H	1.203146	-0.011882	0.203718
H58	H	0.934231	0.505837	-0.000007
O59	O	1.219769	0.001684	0.627843
H60	H	1.291642	-0.008081	0.644437
O61	O	1.219773	0.001674	0.372167
H62	H	1.263468	0.037371	0.327534
O63	O	1.258383	0.694175	0.000017
H64	H	1.261724	0.730559	-0.056027
H65	H	1.203195	-0.011899	0.796307
O66	O	0.958613	-0.211800	0.807753
H67	H	0.969187	-0.203180	0.875202
O68	O	0.958595	-0.211798	0.627870
H69	H	0.969132	-0.203168	0.560418
O70	O	0.958559	-0.211768	0.192269
H71	H	0.970172	-0.270797	0.208851
O72	O	1.266117	0.296853	0.000034
H73	H	1.325343	0.262337	0.000052
