data_functionalizedCrystal
_audit_creation_method	'MofGen! by Chris Wilmer'
_symmetry_space_group_name_H-M	'P1'
_symmetry_Int_Tables_number	1
_symmetry_cell_setting	triclinic
loop_
_symmetry_equiv_pos_as_xyz
  x,y,z
_cell_length_a	15.625950
_cell_length_b	15.944551
_cell_length_c	14.750779
_cell_angle_alpha	77.355667
_cell_angle_beta	120.090508
_cell_angle_gamma	83.890525
loop_
_atom_site_label
_atom_site_type_symbol
_atom_site_fract_x
_atom_site_fract_y
_atom_site_fract_z
O1	O	1.286213	0.025891	0.367747
O2	O	0.999297	0.061703	0.267904
O3	O	1.150592	-0.079094	0.320562
O4	O	1.134917	0.166687	0.315090
O5	O	1.193361	-0.118891	0.495098
O6	O	1.042066	0.021905	0.442440
O7	O	1.328982	-0.013907	0.542283
Zn8	Zn	1.192315	-0.002320	0.520073
Zn9	Zn	1.135964	0.050115	0.290115
O10	O	1.177687	0.126889	0.489626
C11	C	0.983966	0.044123	0.342396
C12	C	0.874566	0.051023	0.304326
C13	C	0.631205	-0.034676	0.654689
C14	C	0.528393	-0.028165	0.618868
C15	C	0.481818	0.015218	0.428613
C16	C	0.584628	0.008714	0.464419
C17	C	0.659315	-0.016234	0.577458
C18	C	0.612738	0.027156	0.387187
C19	C	0.715539	0.020648	0.422990
C20	C	0.790232	-0.004301	0.536025
C21	C	0.762116	-0.022742	0.613261
C22	C	0.538050	0.052098	0.274149
C23	C	0.566160	0.070540	0.196918
C24	C	0.668962	0.064038	0.232720
C25	C	0.743655	0.039089	0.345754
C26	C	0.697078	0.082479	0.155484
C27	C	0.799879	0.075971	0.191287
C28	C	0.846456	0.032581	0.381558
C29	C	1.171326	-0.130235	0.407604
C30	C	1.169376	-0.223329	0.406925
C31	C	1.070932	-0.430478	0.372655
C32	C	1.137733	-0.514695	0.474619
C33	C	1.165846	-0.393777	0.405690
C34	C	1.095588	-0.475443	0.302548
C35	C	1.162428	-0.558419	0.404489
C36	C	1.232690	-0.476784	0.507734
C37	C	1.190512	-0.437507	0.335581
C38	C	1.257387	-0.521718	0.437590
C39	C	1.167812	-0.298930	0.406381
C40	C	1.160470	-0.653267	0.403807
C41	C	1.344312	0.003673	0.467790
C42	C	1.453711	-0.003225	0.505852
C43	C	1.156952	0.178032	0.402582
C44	C	1.158900	0.271127	0.403253
N45	N	1.230779	-0.038106	0.677016
N46	N	1.097507	0.085895	0.133174
C47	C	0.990080	0.185804	0.945060
C48	C	1.017041	0.160732	1.054943
C49	C	1.151041	0.036097	1.101544
C50	C	1.124088	0.061156	0.991662
C51	C	1.043607	0.136010	0.913428
C52	C	1.177615	0.011362	0.960029
C53	C	1.150667	0.036422	0.850158
C54	C	1.070192	0.111275	0.771919
C55	C	1.016660	0.161070	0.803557
C56	C	1.258100	-0.063489	1.038266
C57	C	1.311627	-0.113282	1.006634
C58	C	1.284675	-0.088226	0.896759
C59	C	1.204200	-0.013373	0.818520
C60	C	1.338207	-0.138021	0.865121
C61	C	1.311260	-0.112961	0.755250
C62	C	1.177252	0.011687	0.708649
H63	H	0.505338	0.090849	0.104881
H64	H	0.951117	0.222019	0.739852
C65	C	0.928618	0.005142	0.505907
N66	N	0.990501	-0.015526	0.599563
C67	C	0.958147	0.215513	1.089731
N68	N	0.913790	0.256774	1.115933
C69	C	0.844278	-0.050181	0.737610
N70	N	0.906161	-0.070850	0.831266
C71	C	1.088679	0.094001	0.622571
N72	N	1.021958	0.155988	0.557733
C73	C	0.497480	-0.048456	0.703838
N74	N	0.474196	-0.063742	0.767837
H75	H	0.692019	-0.054979	0.746736
H76	H	1.212793	-0.403926	0.276781
C77	C	0.964535	-0.377171	0.335738
N78	N	0.884401	-0.337019	0.307939
C79	C	1.017250	-0.475921	0.185383
N80	N	0.958240	-0.476277	0.097136
H81	H	1.048256	0.131681	0.682457
H82	H	0.924538	0.246753	0.881355
C83	C	1.239564	-0.046244	1.187610
N84	N	1.306238	-0.108267	1.252434
C85	C	0.830801	0.096265	0.106328
N86	N	0.854090	0.111551	0.042335
H87	H	0.420996	0.035527	0.336576
H88	H	0.454343	0.057400	0.245001
H89	H	1.115417	-0.548251	0.533404
C90	C	0.614912	0.109913	0.031145
N91	N	0.553024	0.130577	-0.062509
C92	C	1.426737	-0.220356	0.951193
N93	N	1.493418	-0.282373	1.016021
H94	H	1.280040	-0.083887	1.127730
C95	C	1.310985	-0.476458	0.624988
N96	N	1.369953	-0.476210	0.713303
H97	H	1.377157	-0.174228	1.070344
H98	H	1.354849	-0.153507	0.729497
C99	C	1.363923	-0.574874	0.474726
N100	N	1.444165	-0.614917	0.502702
H101	H	0.873939	-0.009600	0.565174
