data_functionalizedCrystal
_audit_creation_method	'MofGen! by Chris Wilmer'
_symmetry_space_group_name_H-M	'P1'
_symmetry_Int_Tables_number	1
_symmetry_cell_setting	triclinic
loop_
_symmetry_equiv_pos_as_xyz
  x,y,z
_cell_length_a	16.109301
_cell_length_b	19.188930
_cell_length_c	15.186229
_cell_angle_alpha	89.991143
_cell_angle_beta	89.999362
_cell_angle_gamma	83.303131
loop_
_atom_site_label
_atom_site_type_symbol
_atom_site_fract_x
_atom_site_fract_y
_atom_site_fract_z
O1	O	1.102833	0.089744	-0.073183
O2	O	0.860734	0.100912	-0.073198
O3	O	0.988770	-0.006311	-0.073173
O4	O	0.974797	0.196967	-0.073208
O5	O	0.988762	-0.006313	0.073284
O6	O	0.860726	0.100911	0.073259
O7	O	1.102825	0.089742	0.073274
Zn8	Zn	0.981774	0.095326	0.096520
Zn9	Zn	0.981785	0.095328	-0.096444
O10	O	0.974789	0.196966	0.073249
C11	C	0.829757	0.100459	0.000029
C12	C	0.737466	0.099103	0.000024
C13	C	0.514993	0.159573	0.000023
C14	C	0.428277	0.158294	0.000029
C15	C	0.448573	0.031076	0.000048
C16	C	0.535287	0.032357	0.000048
C17	C	0.568495	0.096608	0.000031
C18	C	0.395064	0.094047	0.000037
C19	C	0.301043	0.092659	0.000043
C20	C	0.662522	0.097996	0.000027
C21	C	0.988313	-0.032324	0.000058
C22	C	0.986955	-0.109832	0.000066
C23	C	1.062082	-0.154580	0.000075
C24	C	1.060806	-0.227407	0.000060
C25	C	0.984399	-0.255482	0.000055
C26	C	0.909261	-0.210724	0.000041
C27	C	0.910540	-0.137899	0.000046
N28	N	0.925991	-0.363624	0.049893
N29	N	0.924782	-0.432805	0.049890
C30	C	0.980543	-0.474900	0.000037
N31	N	1.037571	-0.445200	-0.049802
N32	N	1.038783	-0.376013	-0.049795
C33	C	0.983004	-0.334448	0.000049
C34	C	1.054292	-0.598616	0.000029
C35	C	1.053012	-0.671443	0.000010
C36	C	0.901465	-0.654759	-0.000001
C37	C	0.902747	-0.581933	0.000010
C38	C	0.979162	-0.553866	0.000029
C39	C	1.133802	0.090196	0.000045
C40	C	1.226093	0.091552	0.000045
C41	C	0.975246	0.222979	0.000016
C42	C	0.976604	0.300486	0.000003
N43	N	0.981772	0.095325	0.228213
N44	N	0.981793	0.095325	-0.228137
C45	C	1.038486	0.047862	0.453947
C46	C	1.038488	0.047860	0.546136
C47	C	0.925074	0.142790	0.546123
C48	C	0.925068	0.142787	0.453935
C49	C	0.981779	0.095324	0.407849
C50	C	0.981787	0.095325	0.592227
C51	C	0.981790	0.095323	0.692183
C52	C	0.981775	0.095325	0.307887
H53	H	0.384719	0.209567	0.000024
O54	O	1.093598	0.001687	0.409315
C55	C	1.143663	-0.040193	0.469775
H56	H	1.109583	-0.040987	0.535492
H57	H	1.156546	-0.095951	0.443153
H58	H	1.205340	-0.017510	0.479569
H59	H	0.421524	-0.021234	0.000066
H60	H	0.841570	-0.545497	0.000008
O61	O	0.835018	-0.237960	-0.000119
C62	C	0.789233	-0.215066	-0.075964
H63	H	0.833924	-0.199919	-0.128975
H64	H	0.754026	-0.259172	-0.101431
H65	H	0.742727	-0.167596	-0.058819
O66	O	1.093462	0.001688	0.590954
C67	C	1.049102	-0.041388	0.644307
H68	H	0.983541	-0.042585	0.616530
H69	H	1.083227	-0.096876	0.645361
H70	H	1.044668	-0.019539	0.714171
H71	H	0.878902	0.181434	0.583655
O72	O	0.870062	0.188993	0.409191
C73	C	0.883310	0.258114	0.431714
H74	H	0.949872	0.258473	0.457051
H75	H	0.873616	0.293149	0.371078
H76	H	0.837158	0.278613	0.485223
O77	O	0.547152	0.222027	-0.000103
C78	C	0.519804	0.260407	-0.075969
H79	H	0.459731	0.241390	-0.101255
H80	H	0.507551	0.318552	-0.058914
H81	H	0.570015	0.252316	-0.129082
O82	O	0.587147	-0.028877	0.000016
C83	C	0.539244	-0.085860	0.000045
H84	H	0.474456	-0.068129	-0.027687
H85	H	0.571401	-0.129975	-0.042468
H86	H	0.533142	-0.105556	0.070310
H87	H	1.124306	-0.131733	0.000087
H88	H	1.121986	-0.263848	0.000064
H89	H	0.849360	-0.101464	0.000039
H90	H	1.116514	-0.575763	0.000041
H91	H	1.114193	-0.707878	0.000012
H92	H	0.839253	-0.677617	-0.000010
