data_functionalizedCrystal
_audit_creation_method	'MofGen! by Chris Wilmer'
_symmetry_space_group_name_H-M	'P1'
_symmetry_Int_Tables_number	1
_symmetry_cell_setting	triclinic
loop_
_symmetry_equiv_pos_as_xyz
  x,y,z
_cell_length_a	19.121102
_cell_length_b	19.120900
_cell_length_c	21.395364
_cell_angle_alpha	87.554870
_cell_angle_beta	92.454632
_cell_angle_gamma	90.076315
loop_
_atom_site_label
_atom_site_type_symbol
_atom_site_fract_x
_atom_site_fract_y
_atom_site_fract_z
Zn1	Zn	1.059789	0.325113	0.382162
Zn2	Zn	1.054690	0.442303	0.272729
Zn3	Zn	0.942560	0.320072	0.273135
Zn4	Zn	0.937503	0.437305	0.373205
O5	O	0.998635	0.381198	0.325308
O6	O	1.157217	0.344860	0.371224
O7	O	1.039798	0.426071	0.185105
O8	O	0.962360	0.222634	0.291517
O9	O	1.153471	0.430959	0.290824
O10	O	1.048488	0.226338	0.371619
O11	O	0.957416	0.336268	0.185404
O12	O	0.843784	0.331422	0.282831
O13	O	0.953742	0.422441	0.462071
O14	O	0.840069	0.417552	0.356352
O15	O	1.043585	0.340014	0.468652
O16	O	1.034895	0.539747	0.282138
O17	O	0.948798	0.536075	0.355958
C18	C	0.816489	0.373398	0.318664
C19	C	0.738566	0.370078	0.315836
C20	C	0.990763	0.563350	0.318046
C21	C	0.987460	0.641278	0.314963
C22	C	0.998668	0.381232	0.488731
C23	C	0.998682	0.381247	0.558372
C24	C	0.700038	0.413430	0.352720
C25	C	0.626821	0.410301	0.350067
C26	C	0.592133	0.363824	0.310525
C27	C	0.630666	0.320468	0.273639
C28	C	0.703882	0.323593	0.276297
C29	C	0.371164	0.352136	0.300592
C30	C	0.297943	0.349015	0.297936
C31	C	0.294104	0.438848	0.374364
C32	C	0.367321	0.441973	0.377016
C33	C	0.405848	0.398614	0.340133
C34	C	0.517293	0.360626	0.307810
C35	C	0.480686	0.401808	0.342851
C36	C	1.181493	0.389029	0.331978
C37	C	1.259416	0.392367	0.334820
C38	C	0.966510	1.081928	0.295452
C39	C	0.969616	1.008706	0.298349
C40	C	1.015980	0.973963	0.341532
C41	C	1.059237	1.012446	0.381826
C42	C	1.056128	1.085666	0.378931
C43	C	1.027607	0.752980	0.352362
C44	C	1.030715	0.679755	0.355252
C45	C	0.941092	0.676020	0.271776
C46	C	0.937990	0.749242	0.268883
C47	C	0.981244	0.787718	0.309178
C48	C	1.019157	0.899119	0.344493
C49	C	0.978063	0.862560	0.306220
C50	C	1.006515	1.198335	0.332616
C51	C	1.009765	1.120405	0.335741
C52	C	1.045456	0.338334	0.594513
C53	C	1.045446	0.338322	0.659948
C54	C	0.998669	0.381236	0.689241
C55	C	0.951886	0.424151	0.653092
C56	C	0.951892	0.424157	0.587658
C57	C	0.990388	0.444154	0.790196
C58	C	0.990387	0.444150	0.855629
C59	C	0.998644	0.381218	0.891061
C60	C	1.006918	0.318289	0.861053
C61	C	1.006925	0.318295	0.795619
C62	C	0.998656	0.381234	0.760193
C63	C	1.045410	0.338289	0.998154
C64	C	1.045395	0.338276	1.063591
C65	C	0.951838	0.424111	1.056733
C66	C	0.951849	0.424118	0.991298
C67	C	0.998639	0.381208	0.962013
C68	C	0.998605	0.381186	1.162520
C69	C	0.998616	0.381189	1.092879
H70	H	0.728276	0.451279	0.384917
Cl71	Cl	0.893025	0.478054	1.093552
Cl72	Cl	0.410924	0.500405	0.426725
H73	H	0.900236	0.777524	0.233717
H74	H	0.735250	0.288288	0.246265
Cl75	Cl	0.915226	0.960338	0.247705
H76	H	0.489042	0.322786	0.275614
H77	H	1.056909	0.870826	0.379653
H78	H	0.262728	0.474147	0.404393
Cl79	Cl	0.524295	0.460235	0.392559
Cl80	Cl	1.104226	0.284343	0.961335
Cl81	Cl	0.886716	0.627647	0.221124
H82	H	1.083534	0.303374	0.689379
Cl83	Cl	0.919775	0.906238	0.251937
H84	H	0.595455	0.445603	0.380101
H85	H	1.068473	0.651471	0.390419
H86	H	0.269702	0.311160	0.265741
H87	H	0.928758	1.110210	0.260285
Cl88	Cl	0.893046	0.478071	0.945862
Cl89	Cl	1.104213	0.284335	1.109025
Cl90	Cl	1.081978	0.801339	0.403025
Cl91	Cl	1.117517	0.968768	0.436120
H92	H	1.083556	0.303393	0.570673
H93	H	0.983654	0.495391	0.880056
H94	H	0.402524	0.316835	0.270554
Cl95	Cl	1.017320	0.239188	0.757896
Cl96	Cl	1.110507	1.134037	0.429583
Cl97	Cl	1.017302	0.239170	0.905589
Cl98	Cl	0.587057	0.262034	0.223934
Cl99	Cl	0.980028	0.523279	0.745659
H100	H	0.913797	0.459089	0.676946
H101	H	0.913800	0.459100	0.558232
