data_functionalizedCrystal
_audit_creation_method	'MofGen! by Chris Wilmer'
_symmetry_space_group_name_H-M	'P1'
_symmetry_Int_Tables_number	1
_symmetry_cell_setting	triclinic
loop_
_symmetry_equiv_pos_as_xyz
  x,y,z
_cell_length_a	29.839134
_cell_length_b	29.839131
_cell_length_c	25.639234
_cell_angle_alpha	89.974256
_cell_angle_beta	89.979476
_cell_angle_gamma	90.021992
loop_
_atom_site_label
_atom_site_type_symbol
_atom_site_fract_x
_atom_site_fract_y
_atom_site_fract_z
Zn1	Zn	0.686756	-0.179114	-0.295616
Zn2	Zn	0.686678	-0.254236	-0.208179
Zn3	Zn	0.611628	-0.179095	-0.208194
Zn4	Zn	0.611587	-0.254192	-0.295582
O5	O	0.649162	-0.216659	-0.251893
O6	O	0.749613	-0.189105	-0.284025
O7	O	0.676707	-0.244280	-0.135016
O8	O	0.621644	-0.116231	-0.219810
O9	O	0.749555	-0.244297	-0.219786
O10	O	0.676841	-0.116244	-0.284039
O11	O	0.621568	-0.189074	-0.135026
O12	O	0.548756	-0.189031	-0.219778
O13	O	0.621574	-0.244222	-0.368752
O14	O	0.548725	-0.244204	-0.283982
O15	O	0.676801	-0.189062	-0.368777
O16	O	0.676666	-0.317097	-0.219753
O17	O	0.621498	-0.317065	-0.283968
C18	C	0.532440	-0.216611	-0.251878
C19	C	0.482505	-0.216601	-0.251884
C20	C	0.125944	-0.187981	-0.285408
C21	C	0.313617	-0.187944	-0.285396
O22	O	0.337904	-0.163553	-0.313897
N23	N	0.337060	-0.216631	-0.251897
C24	C	0.313582	-0.245330	-0.218400
O25	O	0.337828	-0.269732	-0.189911
C26	C	0.125910	-0.245368	-0.218416
C27	C	0.102469	-0.216677	-0.251913
C28	C	0.102504	-0.159292	-0.318903
C29	C	0.055588	-0.159299	-0.318904
C30	C	0.032113	-0.187996	-0.285409
C31	C	0.055554	-0.216684	-0.251914
C32	C	0.102432	-0.274070	-0.184922
C33	C	0.055511	-0.274077	-0.184930
C34	C	0.032071	-0.245386	-0.218428
C35	C	-0.014837	-0.245388	-0.218420
N36	N	-0.038279	-0.216702	-0.251919
C37	C	-0.014805	-0.188006	-0.285414
C38	C	0.412113	-0.245308	-0.218394
C39	C	0.459031	-0.245298	-0.218390
C40	C	0.459063	-0.187912	-0.285386
C41	C	0.412144	-0.187920	-0.285388
C42	C	0.388670	-0.216621	-0.251893
C43	C	-0.113330	-0.188024	-0.285412
C44	C	-0.160250	-0.188032	-0.285409
C45	C	-0.160278	-0.245419	-0.218414
C46	C	-0.113362	-0.245409	-0.218416
C47	C	-0.089890	-0.216710	-0.251919
O48	O	-0.039152	-0.269771	-0.189938
O49	O	-0.039059	-0.163615	-0.313908
C50	C	0.172860	-0.187973	-0.285407
C51	C	0.196300	-0.216662	-0.251912
C52	C	0.172825	-0.245358	-0.218417
C53	C	0.243218	-0.216652	-0.251907
C54	C	0.266693	-0.187955	-0.285402
C55	C	0.243250	-0.159269	-0.318901
C56	C	0.196335	-0.159277	-0.318902
C57	C	0.196268	-0.274044	-0.184918
C58	C	0.243184	-0.274034	-0.184920
C59	C	0.266659	-0.245338	-0.218414
C60	C	0.649081	-0.333382	-0.251867
C61	C	0.649088	-0.383316	-0.251873
C62	C	0.677941	-0.692964	-0.218505
C63	C	0.677996	-0.880637	-0.218525
O64	O	0.702464	-0.904905	-0.190134
N65	N	0.649256	-0.904101	-0.251932
C66	C	0.620501	-0.880644	-0.285339
O67	O	0.596059	-0.904909	-0.313758
C68	C	0.620448	-0.692972	-0.285321
C69	C	0.649187	-0.669510	-0.251908
C70	C	0.706679	-0.669502	-0.185095
C71	C	0.706663	-0.622587	-0.185088
C72	C	0.677909	-0.599133	-0.218491
C73	C	0.649172	-0.622595	-0.251901
C74	C	0.591696	-0.669516	-0.318730
C75	C	0.591686	-0.622595	-0.318723
C76	C	0.620425	-0.599133	-0.285310
C77	C	0.620402	-0.552226	-0.285297
N78	N	0.649143	-0.528762	-0.251890
C79	C	0.677897	-0.552215	-0.218487
C80	C	0.620530	-0.979175	-0.285345
C81	C	0.620542	-1.026093	-0.285349
C82	C	0.678039	-1.026082	-0.218536
C83	C	0.678024	-0.979163	-0.218530
C84	C	0.649271	-0.955711	-0.251938
C85	C	0.677861	-0.453689	-0.218475
C86	C	0.677841	-0.406770	-0.218470
C87	C	0.620347	-0.406785	-0.285285
C88	C	0.620364	-0.453700	-0.285289
C89	C	0.649125	-0.477151	-0.251882
O90	O	0.595951	-0.527929	-0.313678
O91	O	0.702341	-0.527943	-0.190081
C92	C	0.677957	-0.739879	-0.218512
C93	C	0.649219	-0.763341	-0.251921
C94	C	0.620466	-0.739888	-0.285324
C95	C	0.649232	-0.810259	-0.251925
C96	C	0.677985	-0.833713	-0.218522
C97	C	0.706726	-0.810248	-0.185115
C98	C	0.706710	-0.763333	-0.185109
C99	C	0.591725	-0.763352	-0.318731
C100	C	0.591743	-0.810268	-0.318735
C101	C	0.620496	-0.833721	-0.285332
C102	C	0.766341	-0.216708	-0.251908
C103	C	0.816275	-0.216729	-0.251914
C104	C	0.649192	-0.216639	-0.388266
C105	C	0.649204	-0.216630	-0.446380
C106	C	0.649256	-0.099481	-0.251930
C107	C	0.649296	-0.049546	-0.251946
C108	C	0.620506	-0.187831	-0.806754
C109	C	0.620508	-0.187823	-0.861358
O110	O	0.596086	-0.163386	-0.889605
N111	N	0.649219	-0.216560	-0.888663
C112	C	0.677926	-0.245309	-0.861359
O113	O	0.702346	-0.269752	-0.889598
C114	C	0.677921	-0.245320	-0.806756
C115	C	0.649211	-0.216578	-0.779455
C116	C	0.591799	-0.159092	-0.779453
C117	C	0.591797	-0.159100	-0.724852
C118	C	0.620503	-0.187846	-0.697553
C119	C	0.649210	-0.216585	-0.724854
C120	C	0.706625	-0.274071	-0.779454
C121	C	0.706617	-0.274079	-0.724847
C122	C	0.677908	-0.245337	-0.697546
C123	C	0.677913	-0.245340	-0.642954
N124	N	0.649203	-0.216603	-0.615650
C125	C	0.620498	-0.187856	-0.642950
C126	C	0.677933	-0.245287	-0.976030
C127	C	0.677941	-0.245275	-1.030632
C128	C	0.620523	-0.187789	-1.030628
C129	C	0.620518	-0.187799	-0.976024
C130	C	0.649223	-0.216550	-0.948726
C131	C	0.620496	-0.187874	-0.528284
C132	C	0.620499	-0.187883	-0.473679
C133	C	0.677915	-0.245371	-0.473689
C134	C	0.677914	-0.245361	-0.528289
C135	C	0.649202	-0.216611	-0.555586
O136	O	0.702322	-0.269765	-0.614674
O137	O	0.596077	-0.163422	-0.614705
C138	C	0.649159	-0.216647	-0.116050
C139	C	0.649234	-0.216529	-0.057936
H140	H	0.036401	-0.297451	-0.157656
C141	C	0.560055	-0.596798	-0.355472
C142	C	0.524783	-0.564579	-0.332778
C143	C	0.493152	-0.538782	-0.369525
C144	C	0.496793	-0.545204	-0.428967
C145	C	0.532066	-0.577424	-0.451664
C146	C	0.563697	-0.603221	-0.414917
H147	H	0.522087	-0.559824	-0.288772
H148	H	0.467040	-0.514930	-0.352722
H149	H	0.473377	-0.526107	-0.456169
H150	H	0.534762	-0.582179	-0.495669
H151	H	0.589809	-0.627072	-0.431720
H152	H	0.262371	-0.135902	-0.346172
H153	H	0.568291	-0.688611	-0.345936
C154	C	0.738194	-0.305706	-0.694818
C155	C	0.789269	-0.302063	-0.702344
C156	C	0.820845	-0.333688	-0.672315
C157	C	0.801346	-0.368956	-0.634760
C158	C	0.750269	-0.372601	-0.627232
C159	C	0.718692	-0.340976	-0.657261
H160	H	0.803705	-0.275954	-0.730147
H161	H	0.858656	-0.330990	-0.677889
H162	H	0.824721	-0.392367	-0.612531
H163	H	0.735832	-0.398710	-0.599430
H164	H	0.680881	-0.343674	-0.651688
C165	C	0.738327	-0.737529	-0.148355
C166	C	0.718875	-0.705310	-0.107276
C167	C	0.750494	-0.679511	-0.070521
C168	C	0.801565	-0.685931	-0.074845
C169	C	0.821019	-0.718151	-0.115926
C170	C	0.789400	-0.743951	-0.152681
H171	H	0.681068	-0.700556	-0.104074
H172	H	0.736093	-0.655659	-0.040110
H173	H	0.824971	-0.666832	-0.047637
H174	H	0.858827	-0.722905	-0.119129
H175	H	0.803802	-0.767803	-0.183092
C176	C	-0.087516	-0.156451	-0.322262
C177	C	-0.055264	-0.121146	-0.299678
C178	C	-0.029450	-0.089571	-0.336524
C179	C	-0.035888	-0.093301	-0.395954
C180	C	-0.068141	-0.128607	-0.418541
C181	C	-0.093955	-0.160182	-0.381695
H182	H	-0.050497	-0.118384	-0.255682
H183	H	-0.005574	-0.063435	-0.319804
H184	H	-0.016778	-0.069927	-0.423230
H185	H	-0.072908	-0.131369	-0.462537
H186	H	-0.117831	-0.186318	-0.398416
H187	H	0.568421	-0.135683	-0.801674
H188	H	0.597115	-0.960083	-0.312551
C189	C	0.588944	-0.156169	-1.060664
C190	C	0.592647	-0.105099	-1.053182
C191	C	0.561071	-0.073481	-1.083220
C192	C	0.525790	-0.092932	-1.120742
C193	C	0.522085	-0.144005	-1.128226
C194	C	0.553662	-0.175623	-1.098187
H195	H	0.618765	-0.090697	-1.025405
H196	H	0.563814	-0.035673	-1.077680
H197	H	0.502415	-0.069527	-1.142978
H198	H	0.495967	-0.158407	-1.156003
H199	H	0.550919	-0.213431	-1.103728
H200	H	0.701282	-0.472778	-0.191274
H201	H	0.730137	-0.829352	-0.157916
H202	H	0.597141	-0.164394	-0.953799
H203	H	0.730066	-0.603487	-0.157882
H204	H	0.730096	-0.688593	-0.157894
H205	H	0.701426	-0.960064	-0.191323
H206	H	0.478184	-0.164545	-0.312658
C207	C	0.268965	-0.305598	-0.148069
C208	C	0.262493	-0.301871	-0.088639
C209	C	0.288271	-0.333438	-0.051794
C210	C	0.320522	-0.368731	-0.074379
C211	C	0.326995	-0.372460	-0.133812
C212	C	0.301217	-0.340893	-0.170657
H213	H	0.238618	-0.275743	-0.071918
H214	H	0.283479	-0.330677	-0.007798
H215	H	0.339605	-0.392099	-0.047104
H216	H	0.350871	-0.398587	-0.150533
H217	H	0.306009	-0.343653	-0.214653
C218	C	-0.087573	-0.276965	-0.181566
C219	C	-0.094040	-0.273231	-0.122136
C220	C	-0.068254	-0.304790	-0.085288
C221	C	-0.036002	-0.340082	-0.107871
C222	C	-0.029534	-0.343818	-0.167304
C223	C	-0.055319	-0.312259	-0.204151
H224	H	-0.117917	-0.247104	-0.105416
H225	H	-0.073043	-0.302024	-0.041292
H226	H	-0.016913	-0.363444	-0.080595
H227	H	-0.005657	-0.369945	-0.184024
H228	H	-0.050531	-0.315024	-0.248148
H229	H	0.568417	-0.135697	-0.702628
C230	C	0.709671	-1.051887	-0.181794
C231	C	0.709683	-1.103494	-0.181806
C232	C	0.741316	-1.129301	-0.145070
C233	C	0.772936	-1.103500	-0.108322
C234	C	0.772925	-1.051889	-0.108309
C235	C	0.741292	-1.026083	-0.145045
H236	H	0.686275	-1.122596	-0.209010
H237	H	0.741324	-1.167507	-0.145080
H238	H	0.796352	-1.122604	-0.081128
H239	H	0.796333	-1.032787	-0.081105
H240	H	0.741284	-0.987877	-0.145036
H241	H	0.701297	-0.268759	-0.550519
C242	C	0.128320	-0.127721	-0.355751
C243	C	0.121882	-0.131452	-0.415180
C244	C	0.147694	-0.099876	-0.452027
C245	C	0.179942	-0.064567	-0.429445
C246	C	0.186381	-0.060834	-0.370012
C247	C	0.160569	-0.092411	-0.333165
H248	H	0.098009	-0.157591	-0.431900
H249	H	0.142927	-0.102639	-0.496023
H250	H	0.199049	-0.041192	-0.456721
H251	H	0.210254	-0.034695	-0.353292
H252	H	0.165336	-0.089647	-0.289169
C253	C	0.588915	-0.156248	-0.558306
C254	C	0.537841	-0.159890	-0.550772
C255	C	0.506262	-0.128261	-0.580793
C256	C	0.525758	-0.092991	-0.618348
C257	C	0.576835	-0.089347	-0.625883
C258	C	0.608414	-0.120976	-0.595862
H259	H	0.523406	-0.186000	-0.522971
H260	H	0.468451	-0.130958	-0.575215
H261	H	0.502382	-0.069577	-0.640571
H262	H	0.591270	-0.063237	-0.653685
H263	H	0.646224	-0.118279	-0.601440
H264	H	0.568311	-0.744260	-0.345933
H265	H	0.597136	-1.045192	-0.312552
H266	H	0.568336	-0.829366	-0.345943
H267	H	0.177160	-0.297413	-0.157642
C268	C	0.588721	-0.380979	-0.322028
C269	C	0.553454	-0.348755	-0.299331
C270	C	0.521831	-0.322947	-0.336077
C271	C	0.525474	-0.329363	-0.395520
C272	C	0.560742	-0.361588	-0.418219
C273	C	0.592365	-0.387396	-0.381473
H274	H	0.550756	-0.344004	-0.255326
H275	H	0.495724	-0.299091	-0.319273
H276	H	0.502065	-0.310258	-0.422721
H277	H	0.563440	-0.366339	-0.462225
H278	H	0.618473	-0.411251	-0.398278
C279	C	0.588915	-0.156267	-0.443648
C280	C	0.557338	-0.124649	-0.473682
C281	C	0.525755	-0.093035	-0.443653
C282	C	0.525749	-0.093039	-0.383592
C283	C	0.557327	-0.124658	-0.353555
C284	C	0.588910	-0.156272	-0.383584
H285	H	0.557341	-0.124646	-0.518146
H286	H	0.502379	-0.069629	-0.465889
H287	H	0.502369	-0.069636	-0.361363
H288	H	0.557324	-0.124661	-0.309091
H289	H	0.612287	-0.179678	-0.361348
C290	C	0.709528	-0.276886	-1.060658
C291	C	0.705824	-0.327957	-1.053128
C292	C	0.737412	-0.359570	-1.083151
C293	C	0.772704	-0.340113	-1.120703
C294	C	0.776410	-0.289040	-1.128235
C295	C	0.744822	-0.257426	-1.098212
H296	H	0.679697	-0.342363	-1.025328
H297	H	0.734668	-0.397379	-1.077575
H298	H	0.796087	-0.363516	-1.142928
H299	H	0.802536	-0.274634	-1.156035
H300	H	0.747565	-0.219618	-1.103788
H301	H	0.701314	-0.268697	-0.953807
H302	H	0.730002	-0.297476	-0.801673
H303	H	0.596964	-0.472804	-0.312498
H304	H	0.036507	-0.135938	-0.346184
H305	H	0.701287	-0.268774	-0.451452
H306	H	0.177253	-0.135913	-0.346179
C307	C	-0.186033	-0.156471	-0.322261
C308	C	-0.179561	-0.160207	-0.381690
C309	C	-0.205342	-0.128648	-0.418541
C310	C	-0.237595	-0.093353	-0.395964
C311	C	-0.244068	-0.089616	-0.336532
C312	C	-0.218288	-0.121175	-0.299680
H313	H	-0.155684	-0.186336	-0.398406
H314	H	-0.200550	-0.131415	-0.462537
H315	H	-0.256679	-0.069991	-0.423244
H316	H	-0.267945	-0.063487	-0.319816
H317	H	-0.223080	-0.118408	-0.255685
H318	H	0.393062	-0.164557	-0.312664
H319	H	0.393004	-0.268680	-0.191117
C320	C	0.484812	-0.276855	-0.181538
C321	C	0.458984	-0.308421	-0.144699
C322	C	0.484763	-0.339983	-0.107848
C323	C	0.536371	-0.339978	-0.107837
C324	C	0.562202	-0.308411	-0.144677
C325	C	0.536423	-0.276850	-0.181528
H326	H	0.420778	-0.308426	-0.144706
H327	H	0.465641	-0.363350	-0.080577
H328	H	0.555454	-0.363342	-0.080558
H329	H	0.600408	-0.308407	-0.144670
H330	H	0.555545	-0.253482	-0.208800
H331	H	0.121510	-0.297433	-0.157645
H332	H	0.701244	-0.387669	-0.191260
H333	H	-0.179400	-0.268781	-0.191142
