data_functionalizedCrystal
_audit_creation_method	'MofGen! by Chris Wilmer'
_symmetry_space_group_name_H-M	'P1'
_symmetry_Int_Tables_number	1
_symmetry_cell_setting	triclinic
loop_
_symmetry_equiv_pos_as_xyz
  x,y,z
_cell_length_a	18.101398
_cell_length_b	21.295417
_cell_length_c	18.101390
_cell_angle_alpha	90.037061
_cell_angle_beta	90.014699
_cell_angle_gamma	90.028659
loop_
_atom_site_label
_atom_site_type_symbol
_atom_site_fract_x
_atom_site_fract_y
_atom_site_fract_z
Zn1	Zn	1.132127	-0.250616	0.418620
Zn2	Zn	1.632127	0.249384	0.918620
Zn3	Zn	1.132023	-0.355896	0.294770
Zn4	Zn	1.632023	0.144104	0.794770
Zn5	Zn	1.008285	-0.250642	0.294803
Zn6	Zn	1.508285	0.249358	0.794803
Zn7	Zn	1.008238	-0.355848	0.418580
Zn8	Zn	1.508238	0.144152	0.918580
O9	O	1.070168	-0.303251	0.356693
O10	O	1.570168	0.196749	0.856693
O11	O	1.235746	-0.264591	0.402194
O12	O	1.735746	0.235409	0.902194
O13	O	1.115585	-0.341965	0.191141
O14	O	1.615585	0.158035	0.691141
O15	O	1.024776	-0.162549	0.311258
O16	O	1.524776	0.337451	0.811258
O17	O	1.235670	-0.341940	0.311202
O18	O	1.735670	0.158060	0.811202
O19	O	1.115762	-0.162530	0.402226
O20	O	1.615762	0.337470	0.902226
O21	O	1.024675	-0.264635	0.191166
O22	O	1.524675	0.235365	0.691166
O23	O	0.904646	-0.264588	0.311219
O24	O	1.404646	0.235412	0.811219
O25	O	1.024695	-0.341858	0.522218
O26	O	1.524695	0.158142	1.022218
O27	O	0.904611	-0.341883	0.402158
O28	O	1.404611	0.158117	0.902158
O29	O	1.115716	-0.264545	0.522248
O30	O	1.615716	0.235455	1.022248
O31	O	1.115539	-0.443979	0.311163
O32	O	1.615539	0.056021	0.811163
O33	O	1.024595	-0.443944	0.402125
O34	O	1.524595	0.056056	0.902125
C35	C	0.877757	-0.303233	0.356688
C36	C	1.377757	0.196767	0.856688
C37	C	0.795443	-0.303241	0.356703
C38	C	1.295443	0.196759	0.856703
C39	C	0.644735	-0.303253	0.356702
C40	C	1.144735	0.196747	0.856702
C41	C	0.613384	-0.351959	0.413830
C42	C	1.113384	0.148041	0.913830
C43	C	0.527766	-0.352157	0.413660
C44	C	1.027766	0.147843	0.913660
C45	C	0.496352	-0.303264	0.356702
C46	C	0.996352	0.196736	0.856702
C47	C	0.527405	-0.320973	0.278559
C48	C	1.027405	0.179027	0.778559
C49	C	0.613050	-0.321319	0.278889
C50	C	1.113050	0.178681	0.778889
C51	C	0.613213	-0.236717	0.377036
C52	C	1.113213	0.263283	0.877036
C53	C	0.527563	-0.237082	0.378757
C54	C	1.027563	0.262918	0.878757
C55	C	0.412493	-0.303270	0.356698
C56	C	0.912493	0.196730	0.856698
C57	C	0.728594	-0.303249	0.356702
C58	C	1.228594	0.196751	0.856702
C59	C	1.070071	-0.466802	0.356652
C60	C	1.570071	0.033198	0.856652
C61	C	1.070097	-0.536770	0.356659
C62	C	1.570097	-0.036770	0.856659
C63	C	1.117494	-0.569635	0.309344
C64	C	1.617494	-0.069635	0.809344
C65	C	1.117529	-0.635377	0.309360
C66	C	1.617529	-0.135377	0.809360
C67	C	1.070153	-0.668253	0.356685
C68	C	1.570153	-0.168253	0.856685
C69	C	1.022753	-0.635381	0.404010
C70	C	1.522753	-0.135381	0.904010
C71	C	1.022725	-0.569639	0.403997
C72	C	1.522725	-0.069639	0.903997
N73	N	1.005369	-0.771516	0.362329
N74	N	1.505369	-0.271516	0.862329
N75	N	1.005398	-0.833968	0.362337
N76	N	1.505398	-0.333968	0.862337
C77	C	1.070236	-0.866328	0.356727
C78	C	1.570236	-0.366328	0.856727
N79	N	1.135046	-0.833877	0.351095
N80	N	1.635046	-0.333877	0.851095
N81	N	1.135017	-0.771419	0.351084
N82	N	1.635017	-0.271419	0.851084
C83	C	1.070179	-0.739538	0.356704
C84	C	1.570179	-0.239538	0.856704
C85	C	1.117675	-0.970477	0.309427
C86	C	1.617675	-0.470477	0.809427
C87	C	1.117711	-1.036221	0.309449
C88	C	1.617711	-0.536221	0.809449
C89	C	1.022929	-1.036223	0.404095
C90	C	1.522929	-0.536223	0.904095
C91	C	1.022899	-0.970481	0.404077
C92	C	1.522899	-0.470481	0.904077
C93	C	1.070271	-0.937612	0.356739
C94	C	1.570271	-0.437612	0.856739
C95	C	1.263330	-0.303268	0.356699
C96	C	1.763330	0.196732	0.856699
C97	C	1.345644	-0.303276	0.356701
C98	C	1.845644	0.196724	0.856701
C99	C	1.070212	-0.303193	0.549855
C100	C	1.570212	0.196807	1.049855
C101	C	1.070231	-0.303169	0.632169
C102	C	1.570231	0.196831	1.132169
C103	C	1.070286	-0.139060	0.356751
C104	C	1.570286	0.360940	0.856751
C105	C	1.070336	-0.069092	0.356775
C106	C	1.570336	0.430908	0.856775
C107	C	1.070167	-0.303262	0.164283
C108	C	1.570167	0.196738	0.664283
C109	C	1.070292	-0.303110	0.081969
C110	C	1.570292	0.196890	0.581969
C111	C	1.070271	-0.303129	0.931260
C112	C	1.570271	0.196871	1.431260
C113	C	1.127727	-0.254657	0.899954
C114	C	1.627727	0.245343	1.399954
C115	C	1.127548	-0.254477	0.814336
C116	C	1.627548	0.245523	1.314336
C117	C	1.070252	-0.303149	0.782878
C118	C	1.570252	0.196851	1.282878
C119	C	0.992235	-0.285124	0.813959
C120	C	1.492235	0.214876	1.313959
C121	C	0.992579	-0.284760	0.899605
C122	C	1.492579	0.215240	1.399605
C123	C	1.090144	-0.369752	0.899665
C124	C	1.590144	0.130248	1.399665
C125	C	1.091856	-0.369412	0.814015
C126	C	1.591856	0.130588	1.314015
C127	C	1.070236	-0.303161	0.699018
C128	C	1.570236	0.196839	1.199018
C129	C	1.070281	-0.303116	1.015120
C130	C	1.570281	0.196884	1.515120
H131	H	0.506771	-0.341109	0.471593
H132	H	1.006771	0.158891	0.971593
F133	F	1.203166	-0.269224	0.786867
F134	F	1.703166	0.230776	1.286867
F135	F	0.501041	-0.219619	0.453926
F136	F	1.001041	0.280381	0.953926
F137	F	1.110353	-0.189967	0.787580
F138	F	1.610353	0.310033	1.287580
F139	F	0.639712	-0.189289	0.322655
F140	F	1.139712	0.310711	0.822655
F141	F	1.168165	-1.071197	0.259091
F142	F	1.668165	-0.571197	0.759091
F143	F	0.972512	-1.071208	0.454466
F144	F	1.472512	-0.571208	0.954466
H145	H	1.156069	-0.542874	0.270800
H146	H	1.656069	-0.042874	0.770800
F147	F	1.041132	-0.419155	0.786028
F148	F	1.541132	0.080845	1.286028
H149	H	1.048300	-0.405869	0.919916
H150	H	1.548300	0.094131	1.419916
H151	H	0.975731	-0.236060	0.919601
H152	H	1.475731	0.263940	1.419601
F153	F	0.934714	-0.328891	0.926675
F154	F	1.434714	0.171109	1.426675
H155	H	0.948263	-0.319341	0.793581
H156	H	1.448263	0.180659	1.293581
F157	F	0.972449	-0.935503	0.454435
F158	F	1.472449	-0.435503	0.954435
F159	F	0.640354	-0.337701	0.489786
F160	F	1.140354	0.162299	0.989786
F161	F	1.168091	-0.935493	0.259047
F162	F	1.668091	-0.435493	0.759047
H163	H	1.156128	-0.662140	0.270830
H164	H	1.656128	-0.162140	0.770830
H165	H	0.975080	-0.236964	0.792527
H166	H	1.475080	0.263036	1.292527
H167	H	0.634873	-0.400982	0.400502
H168	H	1.134873	0.099018	0.900502
H169	H	0.507058	-0.286585	0.234825
H170	H	1.007058	0.213415	0.734825
H171	H	1.146037	-0.386164	0.921303
H172	H	1.646037	0.113836	1.421303
H173	H	1.149270	-0.383004	0.793699
H174	H	1.649270	0.116996	1.293699
H175	H	0.507244	-0.401463	0.400169
H176	H	1.007244	0.098537	0.900169
H177	H	0.634839	-0.220539	0.433058
H178	H	1.134839	0.279461	0.933058
H179	H	0.984181	-0.662152	0.442543
H180	H	1.484181	-0.162152	0.942543
H181	H	1.185768	-0.265806	0.920550
H182	H	1.685768	0.234194	1.420550
H183	H	1.114739	-0.205577	0.921497
H184	H	1.614739	0.294423	1.421497
H185	H	0.984128	-0.542881	0.442528
H186	H	1.484128	-0.042881	0.942528
H187	H	0.633789	-0.287360	0.234864
H188	H	1.133789	0.212640	0.734864
H189	H	0.632993	-0.369948	0.261704
H190	H	1.132993	0.130052	0.761704
H191	H	0.506181	-0.198876	0.340215
H192	H	1.006181	0.301124	0.840215
F193	F	0.499327	-0.383838	0.255710
F194	F	0.999327	0.116162	0.755710
