data_functionalizedCrystal
_audit_creation_method	'MofGen! by Chris Wilmer'
_symmetry_space_group_name_H-M	'P1'
_symmetry_Int_Tables_number	1
_symmetry_cell_setting	triclinic
loop_
_symmetry_equiv_pos_as_xyz
  x,y,z
_cell_length_a	14.908558
_cell_length_b	14.908178
_cell_length_c	12.759393
_cell_angle_alpha	86.667587
_cell_angle_beta	86.685816
_cell_angle_gamma	89.819838
loop_
_atom_site_label
_atom_site_type_symbol
_atom_site_fract_x
_atom_site_fract_y
_atom_site_fract_z
Zn1	Zn	1.354019	-0.437411	-0.655447
Zn2	Zn	1.345242	-0.587803	-0.469057
Zn3	Zn	1.203648	-0.428765	-0.470273
Zn4	Zn	1.194957	-0.579045	-0.635198
O5	O	1.274467	-0.508256	-0.557494
O6	O	1.478681	-0.464644	-0.638688
O7	O	1.326422	-0.566753	-0.322192
O8	O	1.230905	-0.304079	-0.503820
O9	O	1.472232	-0.575137	-0.501747
O10	O	1.341383	-0.310431	-0.639867
O11	O	1.222394	-0.449908	-0.323085
O12	O	1.076669	-0.441416	-0.484186
O13	O	1.216094	-0.560210	-0.784911
O14	O	1.070284	-0.551827	-0.605356
O15	O	1.332956	-0.456152	-0.799788
O16	O	1.317996	-0.712474	-0.482113
O17	O	1.207582	-0.706040	-0.604176
C18	C	1.040852	-0.494734	-0.542706
C19	C	0.940909	-0.488970	-0.536403
C20	C	0.803347	-0.423278	-0.464549
C21	C	0.897252	-0.428689	-0.470467
C22	C	0.890653	-0.543843	-0.596427
C23	C	0.796748	-0.538433	-0.590509
C24	C	0.753098	-0.478149	-0.524566
C25	C	0.659191	-0.472744	-0.518643
C26	C	0.652594	-0.587893	-0.644608
C27	C	0.746499	-0.593304	-0.650526
C28	C	1.260918	-0.741885	-0.540840
C29	C	1.255204	-0.841838	-0.533755
C30	C	1.359420	-1.036119	-0.662247
C31	C	1.354055	-1.130033	-0.655594
C32	C	1.239103	-1.123582	-0.513803
C33	C	1.244469	-1.029668	-0.520455
C34	C	1.304630	-0.985940	-0.594679
C35	C	1.310000	-0.892024	-0.601326
C36	C	1.195045	-0.885575	-0.459540
C37	C	1.189679	-0.979489	-0.452888
C38	C	1.508994	-0.521832	-0.572341
C39	C	1.608935	-0.527617	-0.578667
C40	C	1.274535	-0.508169	-0.831538
C41	C	1.274564	-0.508132	-0.948319
C42	C	1.288093	-0.273715	-0.574238
C43	C	1.293899	-0.173768	-0.581373
C44	C	1.335422	-0.453943	-1.010930
C45	C	1.335445	-0.453912	-1.120658
C46	C	1.213749	-0.562265	-1.105153
C47	C	1.213722	-0.562291	-0.995428
C48	C	1.405685	-0.391390	-1.019882
C49	C	1.405709	-0.391358	-1.129610
C50	C	1.274454	-0.508281	-0.284524
C51	C	1.274614	-0.508075	-0.167773
H52	H	0.926210	-0.592919	-0.650120
H53	H	0.782052	-0.642383	-0.704217
C54	C	0.597318	-0.648252	-0.710632
H55	H	0.535140	-0.636395	-0.697669
H56	H	0.609211	-0.709541	-0.691807
H57	H	0.613495	-0.636044	-0.783157
C58	C	1.377229	-0.300025	-1.179849
H59	H	1.364535	-0.259371	-1.126294
H60	H	1.325048	-0.307707	-1.217727
H61	H	1.424547	-0.276643	-1.226512
H62	H	1.408412	-1.000515	-0.722675
H63	H	1.474271	-0.414036	-1.162465
C64	C	1.376160	-0.843922	-0.682981
H65	H	1.408012	-0.887261	-0.722279
H66	H	1.417459	-0.809539	-0.647927
H67	H	1.343816	-0.805302	-0.729136
C68	C	1.123505	-1.027591	-0.371248
H69	H	1.091639	-0.984253	-0.331964
H70	H	1.155830	-1.066221	-0.325092
H71	H	1.082208	-1.061963	-0.406328
C72	C	1.385939	-0.295866	-0.984779
H73	H	1.377827	-0.256563	-1.044802
H74	H	1.434931	-0.275493	-0.948087
H75	H	1.332859	-0.296611	-0.939802
H76	H	1.150434	-0.844708	-0.404519
C77	C	1.414328	-1.185227	-0.729912
H78	H	1.450929	-1.145731	-0.775061
H79	H	1.377820	-1.219876	-0.770880
H80	H	1.451438	-1.224119	-0.689640
C81	C	0.755329	-0.356973	-0.392015
H82	H	0.798706	-0.325066	-0.357120
H83	H	0.716687	-0.389215	-0.341418
H84	H	0.720981	-0.315718	-0.432768
H85	H	1.470375	-0.420178	-0.988252
H86	H	1.190119	-1.159202	-0.453378
H87	H	1.164162	-0.606413	-0.944453
C88	C	1.146835	-0.621842	-1.156977
H89	H	1.155570	-0.614071	-1.231293
H90	H	1.087182	-0.605193	-1.136109
H91	H	1.156488	-0.683029	-1.135509
H92	H	0.623653	-0.423657	-0.464950
C93	C	0.952523	-0.368332	-0.404446
H94	H	0.913074	-0.331661	-0.364324
H95	H	0.991438	-0.331305	-0.449809
H96	H	0.987146	-0.404799	-0.358457
