data_functionalizedCrystal
_audit_creation_method	'MofGen! by Chris Wilmer'
_symmetry_space_group_name_H-M	'P1'
_symmetry_Int_Tables_number	1
_symmetry_cell_setting	triclinic
loop_
_symmetry_equiv_pos_as_xyz
  x,y,z
_cell_length_a	6.817900
_cell_length_b	16.418049
_cell_length_c	11.168144
_cell_angle_alpha	93.914475
_cell_angle_beta	108.508840
_cell_angle_gamma	103.389670
loop_
_atom_site_label
_atom_site_type_symbol
_atom_site_fract_x
_atom_site_fract_y
_atom_site_fract_z
V1	V	-4.083884	-0.115898	-0.394144
O2	O	-4.070714	0.005557	-0.386183
O3	O	-4.034622	-0.229794	-0.391888
O4	O	-4.060574	-0.114120	-0.565843
O5	O	-4.044582	-0.110917	-0.211025
V6	V	-4.564373	-0.101370	-0.372188
O7	O	-4.351799	-0.147766	-0.442306
O8	O	-4.746655	-0.069501	-0.324026
O9	O	-4.390429	0.012527	-0.374443
O10	O	-4.694939	-0.222825	-0.380148
O11	O	-4.721071	-0.106350	-0.555307
O12	O	-4.364476	-0.103147	-0.200489
C13	C	-3.878601	-0.257560	-0.385784
C14	C	-3.919777	-0.350671	-0.385084
C15	C	-4.197501	-0.569161	-0.389814
C16	C	-4.236180	-0.656650	-0.389168
C17	C	-3.870115	-0.648106	-0.376525
C18	C	-3.831443	-0.560619	-0.377181
C19	C	-3.995140	-0.521149	-0.383819
C20	C	-4.072491	-0.696124	-0.382517
C21	C	-4.114428	-0.790984	-0.381816
C22	C	-3.953202	-0.426283	-0.384523
C23	C	-3.911704	-0.110005	-0.607679
C24	C	-3.973923	-0.109306	-0.748046
C25	C	-4.042125	-0.181889	-0.828045
C26	C	-4.106432	-0.181167	-0.973123
C27	C	-4.209791	0.040287	-0.380544
C28	C	-4.147854	0.133398	-0.381252
C29	C	-4.176687	-0.107265	-0.158646
C30	C	-4.093706	-0.107961	-0.018277
H31	H	-3.736844	-0.680253	-0.371118
C32	C	-3.608818	-0.507802	-0.370582
N33	N	-3.441145	-0.468020	-0.365614
C34	C	-4.458788	-0.709460	-0.395758
N35	N	-4.626465	-0.749236	-0.400722
H36	H	-4.052917	-0.244564	-0.789131
H37	H	-4.164916	-0.243307	-1.041853
C38	C	-4.014679	-0.024006	-0.925436
N39	N	-3.955154	0.039229	-0.855498
H40	H	-3.963154	-0.046631	-0.786962
H41	H	-4.330795	-0.537027	-0.395218
