data_functionalizedCrystal
_audit_creation_method	'MofGen! by Chris Wilmer'
_symmetry_space_group_name_H-M	'P1'
_symmetry_Int_Tables_number	1
_symmetry_cell_setting	triclinic
loop_
_symmetry_equiv_pos_as_xyz
  x,y,z
_cell_length_a	10.654550
_cell_length_b	14.519731
_cell_length_c	9.730223
_cell_angle_alpha	89.994614
_cell_angle_beta	89.999957
_cell_angle_gamma	84.086892
loop_
_atom_site_label
_atom_site_type_symbol
_atom_site_fract_x
_atom_site_fract_y
_atom_site_fract_z
O1	O	1.666607	0.129531	-0.114191
O2	O	2.166607	0.629531	0.385809
O3	O	1.301011	0.141872	-0.114216
O4	O	1.801011	0.641872	0.385784
O5	O	1.493488	0.001514	-0.114190
O6	O	1.993488	0.501514	0.385810
O7	O	1.474130	0.269888	-0.114217
O8	O	1.974130	0.769888	0.385783
O9	O	1.493476	0.001511	0.114390
O10	O	1.993476	0.501511	0.614390
O11	O	1.300999	0.141868	0.114364
O12	O	1.800999	0.641868	0.614364
O13	O	1.666595	0.129527	0.114389
O14	O	2.166595	0.629527	0.614389
Zn15	Zn	1.483795	0.135697	0.150668
Zn16	Zn	1.983795	0.635697	0.650668
Zn17	Zn	1.483811	0.135702	-0.150496
Zn18	Zn	1.983811	0.635702	0.349504
O19	O	1.474117	0.269884	0.114363
O20	O	1.974117	0.769884	0.614363
C21	C	1.254216	0.140964	0.000071
C22	C	1.754216	0.640964	0.500071
C23	C	1.114798	0.138253	0.000061
C24	C	1.614798	0.638253	0.500061
C25	C	1.492575	-0.032852	0.000100
C26	C	1.992575	0.467148	0.500100
C27	C	1.489857	-0.135246	0.000100
C28	C	1.989857	0.364754	0.500100
C29	C	1.034527	0.220893	0.000057
C30	C	1.534527	0.720893	0.500057
C31	C	0.903530	0.218340	0.000081
C32	C	1.403530	0.718340	0.500081
C33	C	0.933090	0.050500	0.000108
C34	C	1.433090	0.550500	0.500108
C35	C	1.064084	0.053053	0.000094
C36	C	1.564084	0.553053	0.500094
C37	C	1.487648	-0.218402	0.000097
C38	C	1.987648	0.281598	0.500097
C39	C	1.484889	-0.322725	0.000086
C40	C	1.984889	0.177275	0.500086
C41	C	1.482698	-0.405875	0.000077
C42	C	1.982698	0.094125	0.500077
C43	C	1.479939	-0.510205	0.000069
C44	C	1.979939	-0.010205	0.500069
C45	C	1.713390	0.130435	0.000099
C46	C	2.213390	0.630435	0.500099
C47	C	1.852808	0.133146	0.000100
C48	C	2.352808	0.633146	0.500100
C49	C	1.475031	0.304251	0.000070
C50	C	1.975031	0.804251	0.500070
C51	C	1.477749	0.406645	0.000060
C52	C	1.977749	0.906645	0.500060
N53	N	1.483793	0.135693	0.356205
N54	N	1.983793	0.635693	0.856205
N55	N	1.483823	0.135699	-0.356032
N56	N	1.983823	0.635699	0.143968
C57	C	1.569051	0.073569	0.428142
C58	C	2.069051	0.573569	0.928142
C59	C	1.569063	0.073569	0.572025
C60	C	2.069063	0.573569	1.072025
C61	C	1.398556	0.197825	0.572021
C62	C	1.898556	0.697825	1.072021
C63	C	1.398539	0.197820	0.428140
C64	C	1.898539	0.697820	0.928140
H65	H	1.075814	0.290268	0.000041
H66	H	1.575814	0.790268	0.500041
H67	H	1.329105	0.248409	0.369565
H68	H	1.829105	0.748409	0.869565
H69	H	0.838177	0.285634	0.000081
H70	H	1.338177	0.785634	0.500081
H71	H	0.891781	-0.018867	0.000143
H72	H	1.391781	0.481133	0.500143
Br73	Br	1.684769	-0.010749	0.669652
Br74	Br	2.184769	0.489251	1.169652
Br75	Br	1.684750	-0.010748	0.330520
Br76	Br	2.184750	0.489252	0.830520
Br77	Br	1.173034	-0.059109	0.000117
Br78	Br	1.673034	0.440891	0.500117
Br79	Br	1.282860	0.282140	0.669652
Br80	Br	1.782860	0.782140	1.169652
