data_functionalizedCrystal
_audit_creation_method	'MofGen! by Chris Wilmer'
_symmetry_space_group_name_H-M	'P1'
_symmetry_Int_Tables_number	1
_symmetry_cell_setting	triclinic
loop_
_symmetry_equiv_pos_as_xyz
  x,y,z
_cell_length_a	11.026607
_cell_length_b	17.699083
_cell_length_c	16.776229
_cell_angle_alpha	90.000201
_cell_angle_beta	89.994019
_cell_angle_gamma	84.065485
loop_
_atom_site_label
_atom_site_type_symbol
_atom_site_fract_x
_atom_site_fract_y
_atom_site_fract_z
O1	O	-1.609233	0.316812	0.066256
O2	O	-1.109233	0.816812	0.566256
O3	O	-1.256034	0.280737	0.066260
O4	O	-0.756034	0.780737	0.566260
O5	O	-1.442612	0.189956	0.066266
O6	O	-0.942612	0.689956	0.566266
O7	O	-1.422655	0.407592	0.066250
O8	O	-0.922655	0.907592	0.566250
O9	O	-1.442588	0.189945	-0.066311
O10	O	-0.942588	0.689945	0.433689
O11	O	-1.256009	0.280726	-0.066316
O12	O	-0.756009	0.780726	0.433684
O13	O	-1.609209	0.316801	-0.066321
O14	O	-1.109209	0.816801	0.433679
Zn15	Zn	-1.432605	0.298762	-0.087368
Zn16	Zn	-0.932605	0.798762	0.412632
Zn17	Zn	-1.432638	0.298776	0.087307
Zn18	Zn	-0.932638	0.798776	0.587307
O19	O	-1.422630	0.407582	-0.066326
O20	O	-0.922630	0.907582	0.433674
C21	C	-1.210830	0.274076	-0.000027
C22	C	-0.710830	0.774076	0.499973
C23	C	-1.076175	0.254237	-0.000025
C24	C	-0.576175	0.754237	0.499975
C25	C	-1.441885	0.161655	-0.000019
C26	C	-0.941885	0.661655	0.499981
C27	C	-1.439740	0.077343	-0.000008
C28	C	-0.939740	0.577343	0.499992
C29	C	-1.654412	0.323461	-0.000032
C30	C	-1.154412	0.823461	0.499968
C31	C	-1.789068	0.343301	-0.000029
C32	C	-1.289068	0.843301	0.499971
C33	C	-1.002207	0.309017	-0.000028
C34	C	-0.502207	0.809017	0.499972
C35	C	-0.863034	0.288513	-0.000025
C36	C	-0.363034	0.788513	0.499975
N37	N	-1.432592	0.298753	-0.206579
N38	N	-0.932592	0.798753	0.293421
C39	C	-1.423358	0.435882	-0.000040
C40	C	-0.923358	0.935882	0.499960
C41	C	-1.425503	0.520195	-0.000046
C42	C	-0.925503	1.020195	0.499954
C43	C	-1.315985	0.553769	-0.000044
C44	C	-0.815985	1.053769	0.499956
C45	C	-1.318008	0.632990	-0.000035
C46	C	-0.818008	1.132990	0.499965
C47	C	-1.429550	0.678636	-0.000033
C48	C	-0.929550	1.178636	0.499967
C49	C	-1.539076	0.645057	-0.000032
C50	C	-1.039076	1.145057	0.499968
C51	C	-1.537052	0.565837	-0.000035
C52	C	-1.037052	1.065837	0.499965
C53	C	-1.547243	0.964542	-0.000016
C54	C	-1.047243	1.464542	0.499984
C55	C	-1.549259	1.043767	-0.000015
C56	C	-1.049259	1.543767	0.499985
C57	C	-1.328199	1.031695	-0.000016
C58	C	-0.828199	1.531695	0.499984
C59	C	-1.326174	0.952475	-0.000019
C60	C	-0.826174	1.452475	0.499981
C61	C	-1.435700	0.918903	-0.000014
C62	C	-0.935700	1.418903	0.499986
C63	C	-1.433505	0.833002	-0.000023
C64	C	-0.933505	1.333002	0.499977
C65	C	-1.431747	0.764536	-0.000030
C66	C	-0.931747	1.264536	0.499970
C67	C	-1.515234	0.258580	-0.248294
C68	C	-1.015234	0.758580	0.251706
C69	C	-1.515240	0.258580	-0.331746
C70	C	-1.015240	0.758580	0.168254
C71	C	-1.432610	0.298759	-0.373482
C72	C	-0.932610	0.798759	0.126518
C73	C	-1.349959	0.338933	-0.331761
C74	C	-0.849959	0.838933	0.168239
C75	C	-1.349947	0.338928	-0.248311
C76	C	-0.849947	0.838928	0.251689
C77	C	-1.350003	0.338954	-0.668309
C78	C	-0.850003	0.838954	-0.168309
C79	C	-1.350023	0.338958	-0.751765
C80	C	-0.850023	0.838958	-0.251765
C81	C	-1.515296	0.258606	-0.751744
C82	C	-1.015296	0.758606	-0.251744
C83	C	-1.515284	0.258601	-0.668293
C84	C	-1.015284	0.758601	-0.168293
C85	C	-1.432630	0.298772	-0.626580
C86	C	-0.932630	0.798772	-0.126580
C87	C	-1.432622	0.298770	-0.536092
C88	C	-0.932622	0.798770	-0.036092
C89	C	-1.432623	0.298765	-0.463969
C90	C	-0.932623	0.798765	0.036031
N91	N	-1.432661	0.298780	0.206519
N92	N	-0.932661	0.798780	0.706519
H93	H	-0.823331	0.226431	-0.000001
H94	H	-0.323331	0.726431	0.499999
N95	N	-1.210056	1.067897	-0.000009
N96	N	-0.710056	1.567897	0.499991
H97	H	-1.161381	1.051472	-0.049159
H98	H	-0.661381	1.551472	0.450841
H99	H	-1.228346	1.125001	0.000027
H100	H	-0.728346	1.625001	0.500027
H101	H	-0.828769	0.405384	-0.000038
H102	H	-0.328769	0.905384	0.499962
N103	N	-1.669573	1.092999	-0.000013
N104	N	-1.169573	1.592999	0.499987
H105	H	-1.717549	1.081856	0.049136
H106	H	-1.217549	1.581856	0.549136
H107	H	-1.654130	1.148259	-0.000046
H108	H	-1.154130	1.648259	0.499954
H109	H	-1.036466	0.192158	0.000000
H110	H	-0.536466	0.692158	0.500000
H111	H	-1.282731	0.371677	-0.785745
H112	H	-0.782731	0.871677	-0.285745
H113	H	-1.228828	0.660322	-0.000031
H114	H	-0.728828	1.160322	0.499969
N115	N	-1.655177	0.529624	-0.000049
N116	N	-1.155177	1.029624	0.499951
H117	H	-1.636970	0.472513	-0.000051
H118	H	-1.136970	0.972513	0.499949
H119	H	-1.703810	0.546105	0.049098
H120	H	-1.203810	1.046105	0.549098
H121	H	-1.041916	0.371095	-0.000037
H122	H	-0.541916	0.871095	0.499963
N123	N	-1.260852	0.382274	-0.623324
N124	N	-0.760852	0.882274	-0.123324
H125	H	-1.208512	0.407727	-0.662429
H126	H	-0.708512	0.907727	-0.162429
H127	H	-1.307170	0.422064	-0.588686
H128	H	-0.807170	0.922064	-0.088686
N129	N	-1.205862	0.903250	-0.000030
N130	N	-0.705862	1.403250	0.499970
H131	H	-1.157899	0.914397	0.049117
H132	H	-0.657899	1.414397	0.549117
H133	H	-1.221292	0.847988	-0.000065
H134	H	-0.721292	1.347988	0.499935
H135	H	-1.225155	0.516609	-0.000055
H136	H	-0.725155	1.016609	0.499945
H137	H	-1.582533	0.225868	-0.365710
H138	H	-1.082533	0.725868	0.134290
N139	N	-1.260825	0.382263	-0.376772
N140	N	-0.760825	0.882263	0.123228
H141	H	-1.273373	0.376172	-0.435968
H142	H	-0.773373	0.876172	0.064032
H143	H	-1.274668	0.437847	-0.362179
H144	H	-0.774668	0.937847	0.137821
N145	N	-1.665368	0.928338	-0.000020
N146	N	-1.165368	1.428338	0.499980
H147	H	-1.736332	0.969277	-0.000025
H148	H	-1.236332	1.469277	0.499975
H149	H	-1.669329	0.895734	-0.049171
H150	H	-1.169329	1.395734	0.450829
N151	N	-1.604441	0.215275	-0.796739
N152	N	-1.104441	0.715275	-0.296739
H153	H	-1.590644	0.159670	-0.782218
H154	H	-1.090644	0.659670	-0.282218
H155	H	-1.690456	0.235816	-0.782184
H156	H	-1.190456	0.735816	-0.282184
N157	N	-1.659385	0.694285	-0.000037
N158	N	-1.159385	1.194285	0.499963
H159	H	-1.644052	0.749566	-0.000042
H160	H	-1.144052	1.249566	0.499958
H161	H	-1.707276	0.683066	-0.049190
H162	H	-1.207276	1.183066	0.450810
N163	N	-1.604365	0.215250	-0.203281
N164	N	-1.104365	0.715250	0.296719
H165	H	-1.656717	0.189800	-0.242374
H166	H	-1.156717	0.689800	0.257626
H167	H	-1.558027	0.175457	-0.168664
H168	H	-1.058027	0.675457	0.331336
H169	H	-1.582574	0.225887	-0.634314
H170	H	-1.082574	0.725887	-0.134314
N171	N	-1.260806	0.382252	-0.203314
N172	N	-0.760806	0.882252	0.296686
H173	H	-1.208462	0.407707	-0.242415
H174	H	-0.708462	0.907707	0.257585
H175	H	-1.307131	0.422041	-0.168679
H176	H	-0.807131	0.922041	0.331321
