data_functionalizedCrystal
_audit_creation_method	'MofGen! by Chris Wilmer'
_symmetry_space_group_name_H-M	'P1'
_symmetry_Int_Tables_number	1
_symmetry_cell_setting	triclinic
loop_
_symmetry_equiv_pos_as_xyz
  x,y,z
_cell_length_a	14.446369
_cell_length_b	23.196402
_cell_length_c	23.196401
_cell_angle_alpha	90.011712
_cell_angle_beta	60.004720
_cell_angle_gamma	60.000820
loop_
_atom_site_label
_atom_site_type_symbol
_atom_site_fract_x
_atom_site_fract_y
_atom_site_fract_z
Zr1	Zr	1.013257	0.555349	-0.075703
O2	O	1.206377	0.463278	-0.167757
O3	O	0.820138	0.583573	-0.047479
O4	O	1.013260	0.583546	-0.167755
O5	O	1.013252	0.463329	0.047391
O6	O	1.013263	0.678416	-0.167759
O7	O	1.013254	0.463306	-0.047481
O8	O	0.667802	0.678465	0.047393
O9	O	1.358712	0.463279	-0.167761
O10	O	0.899573	0.666412	-0.035450
O11	O	0.899569	0.595628	0.035354
O12	O	1.126946	0.595596	-0.106255
O13	O	1.126942	0.524812	-0.035451
Zr14	Zr	1.013257	0.706692	0.075601
Zr15	Zr	1.013261	0.706656	-0.075708
Zr16	Zr	1.013254	0.555386	0.075606
Zr17	Zr	1.256215	0.555351	-0.075710
Zr18	Zr	0.770299	0.706691	0.075608
O19	O	1.206377	0.678468	0.047378
O20	O	1.206382	0.678417	-0.167764
O21	O	1.206371	0.463330	0.047385
O22	O	0.820138	0.798763	0.167655
O23	O	0.820144	0.798712	-0.047487
O24	O	0.820133	0.583625	0.167662
O25	O	1.013263	0.798713	-0.047492
O26	O	1.013254	0.678496	0.167654
O27	O	1.013252	0.583626	0.167657
O28	O	1.013260	0.798736	0.047379
O29	O	1.358715	0.583548	-0.167765
O30	O	0.667800	0.678494	0.167663
O31	O	0.667802	0.798762	0.167659
O32	O	0.667805	0.798734	0.047389
O33	O	1.358709	0.463308	-0.047491
O34	O	1.358712	0.583576	-0.047495
O35	O	0.899569	0.666446	0.106153
O36	O	0.899573	0.737229	0.035349
O37	O	1.126946	0.666413	-0.035456
O38	O	1.126942	0.595630	0.035348
C39	C	0.709354	0.631019	-0.000042
C40	C	0.606212	0.631018	-0.000039
C41	C	1.013253	0.441759	-0.000044
C42	C	1.013251	0.377526	-0.000042
C43	C	1.013262	0.630975	-0.189315
C44	C	1.013264	0.630960	-0.253550
C45	C	0.459200	0.586589	0.044821
C46	C	0.566820	0.586348	0.044640
C47	C	0.655209	0.598426	-0.076977
C48	C	0.547976	0.598092	-0.076744
C49	C	0.372755	0.708072	0.031375
C50	C	0.478906	0.707959	0.032945
C51	C	1.317161	0.631022	-0.000060
C52	C	1.420303	0.631023	-0.000063
C53	C	0.894568	0.384316	0.036911
C54	C	0.894567	0.323961	0.036914
C55	C	1.013254	0.256817	-0.000050
C56	C	1.131953	0.250030	-0.037005
C57	C	1.131951	0.310384	-0.037001
C58	C	1.104186	0.132874	-0.061964
C59	C	1.104183	0.072523	-0.061970
C60	C	1.013264	0.070663	-0.000061
C61	C	0.922327	0.129170	0.061853
C62	C	0.922325	0.189524	0.061857
C63	C	1.013269	0.191369	-0.000058
C64	C	0.894572	0.012013	0.036898
C65	C	0.894575	-0.048344	0.036903
C66	C	1.131964	-0.122275	-0.037022
C67	C	1.131958	-0.061919	-0.037020
C68	C	1.013258	0.005223	-0.000061
C69	C	1.013262	0.820282	-0.000058
C70	C	1.013264	0.884516	-0.000060
C71	C	1.131946	0.593998	-0.320683
C72	C	1.131948	0.594016	-0.381038
C73	C	1.013260	0.630986	-0.374256
C74	C	0.894562	0.667956	-0.307111
C75	C	0.894564	0.667943	-0.246758
C76	C	0.922328	0.625736	-0.441571
C77	C	0.922332	0.625744	-0.501924
C78	C	1.013250	0.631031	-0.560404
C79	C	1.104188	0.636296	-0.558530
C80	C	1.104190	0.636282	-0.498176
C81	C	1.013245	0.631005	-0.439695
C82	C	1.131943	0.594087	-0.692983
C83	C	1.131940	0.594110	-0.753338
C84	C	0.894551	0.668045	-0.679409
C85	C	0.894557	0.668027	-0.619057
C86	C	1.013257	0.631044	-0.625848
C87	C	1.013253	0.631066	0.189213
C88	C	1.013251	0.631081	0.253448
C89	C	0.709359	0.820281	-0.000049
C90	C	0.606218	0.884514	-0.000048
C91	C	0.709349	0.631064	0.189222
C92	C	0.606206	0.631079	0.253460
C93	C	0.709354	0.820326	0.189216
C94	C	0.606212	0.884574	0.253451
C95	C	1.317161	0.441716	-0.189317
C96	C	1.420303	0.377467	-0.253553
C97	C	1.317156	0.441761	-0.000053
C98	C	1.420296	0.377528	-0.000054
C99	C	1.317165	0.630977	-0.189324
C100	C	1.420309	0.630962	-0.253562
C101	C	0.557782	0.877712	-0.037010
C102	C	0.460885	0.938060	-0.037024
C103	C	0.412418	1.005209	-0.000071
C104	C	0.460863	1.012009	0.036893
C105	C	0.557766	0.951662	0.036902
C106	C	0.557768	0.668052	0.320589
C107	C	0.460868	0.668063	0.380953
C108	C	0.412399	0.631105	0.374186
C109	C	0.460846	0.594128	0.307049
C110	C	0.557752	0.594113	0.246687
C111	C	0.557777	0.951700	0.246658
C112	C	0.460878	1.012074	0.307008
C113	C	0.412408	1.005321	0.374150
C114	C	0.460853	0.938187	0.380942
C115	C	0.557757	0.877815	0.320593
C116	C	1.468749	0.310341	-0.246759
C117	C	1.565679	0.249967	-0.307110
C118	C	1.614153	0.256721	-0.374252
C119	C	1.565703	0.323854	-0.381044
C120	C	1.468782	0.384227	-0.320695
C121	C	1.468742	0.384329	0.036902
C122	C	1.565667	0.323981	0.036899
C123	C	1.614138	0.256833	-0.000056
C124	C	1.565688	0.250033	-0.037017
C125	C	1.468771	0.310380	-0.037018
C126	C	1.468747	0.667928	-0.246772
C127	C	1.565648	0.667927	-0.307124
C128	C	1.614117	0.630958	-0.374265
C129	C	1.565670	0.593991	-0.381054
C130	C	1.468763	0.593996	-0.320702
H131	H	0.530109	0.608212	0.101294
Br132	Br	0.733478	0.718178	-0.527942
H133	H	0.848290	0.621454	-0.503445
Br134	Br	1.227590	0.643469	-0.637891
Br135	Br	0.623473	0.786717	0.329825
H136	H	0.797925	-0.042809	0.067000
H137	H	1.228601	0.563887	-0.326219
H138	H	0.848271	0.127667	0.112260
Br139	Br	1.631501	0.333008	-0.472172
H140	H	0.848292	0.621426	-0.393958
Br141	Br	0.623541	0.786589	-0.087170
Br142	Br	0.329471	0.763511	-0.022854
Br143	Br	1.631474	0.543814	-0.472180
H144	H	0.421434	0.698177	0.435612
H145	H	0.421444	1.066732	0.301465
Br146	Br	1.403038	0.475325	-0.329927
H147	H	1.429287	0.304828	-0.192094
Br148	Br	0.798922	0.268921	0.145879
Br149	Br	0.395059	0.929033	0.472070
Br150	Br	1.403049	0.543817	-0.329930
Br151	Br	0.311090	0.622851	0.139494
H152	H	1.228590	0.564014	-0.808002
H153	H	0.597221	0.698148	0.326112
Br154	Br	1.745636	0.630958	-0.456165
Br155	Br	1.631382	0.718096	-0.297895
H156	H	0.797918	0.329490	0.067006
Br157	Br	0.518702	0.492437	0.008840
H158	H	1.605111	0.195310	-0.301566
H159	H	1.693072	0.207556	-0.423387
H160	H	0.597227	0.957213	0.191992
Br161	Br	0.280883	0.631132	0.456114
H162	H	0.421369	0.564038	0.301550
Br163	Br	0.280905	1.087103	-0.000090
Br164	Br	1.402987	0.475452	0.087060
H165	H	1.228602	-0.176944	-0.067119
H166	H	0.333503	1.054485	0.423285
Br167	Br	1.631397	0.333227	0.087065
H168	H	1.228597	0.563916	-0.435708
Br169	Br	0.714840	0.491623	0.008307
H170	H	0.588674	0.541394	-0.101911
H171	H	0.683996	0.629234	-0.111864
H172	H	0.597190	0.957209	0.067005
Br173	Br	0.511341	0.648556	-0.135498
Br174	Br	1.631479	0.158897	-0.087166
Br175	Br	0.809060	0.504828	-0.119215
H176	H	1.693053	0.207700	-0.000050
Br177	Br	1.293031	0.543914	-0.702196
Br178	Br	1.403029	0.301137	-0.087174
H179	H	0.279008	0.735301	0.087157
Br180	Br	0.412892	0.748546	0.127418
H181	H	0.500410	0.743856	0.003654
Br182	Br	0.733484	0.103136	0.087057
H183	H	1.429298	0.698033	-0.192107
H184	H	0.797913	0.438982	0.067001
H185	H	1.178226	0.024891	-0.112384
Br186	Br	1.293036	-0.071134	-0.087176
Br187	Br	1.227595	0.135385	-0.145988
Br188	Br	0.395069	1.103145	0.087043
Br189	Br	0.733471	0.718232	-0.670198
H190	H	1.228589	0.195357	-0.067100
H191	H	1.178232	0.640571	-0.496653
Br192	Br	0.733484	0.718135	-0.297905
Br193	Br	1.293033	0.301168	-0.087154
Br194	Br	0.395155	0.928815	-0.087190
Br195	Br	0.733481	0.718106	-0.155642
H196	H	0.597177	0.564008	0.192030
