data_functionalizedCrystal
_audit_creation_method	'MofGen! by Chris Wilmer'
_symmetry_space_group_name_H-M	'P1'
_symmetry_Int_Tables_number	1
_symmetry_cell_setting	triclinic
loop_
_symmetry_equiv_pos_as_xyz
  x,y,z
_cell_length_a	19.288864
_cell_length_b	19.288865
_cell_length_c	17.766277
_cell_angle_alpha	89.988397
_cell_angle_beta	90.023209
_cell_angle_gamma	96.863755
loop_
_atom_site_label
_atom_site_type_symbol
_atom_site_fract_x
_atom_site_fract_y
_atom_site_fract_z
O1	O	0.921353	-0.086649	0.062844
O2	O	1.421353	0.413351	0.562844
O3	O	0.719092	-0.098337	0.062794
O4	O	1.219092	0.401663	0.562794
O5	O	0.826067	0.008637	0.062806
O6	O	1.326067	0.508637	0.562806
O7	O	0.814378	-0.193623	0.062832
O8	O	1.314378	0.306377	0.562832
O9	O	0.826048	0.008643	-0.062383
O10	O	1.326048	0.508643	0.437617
O11	O	0.719074	-0.098332	-0.062395
O12	O	1.219074	0.401668	0.437605
O13	O	0.921334	-0.086643	-0.062344
O14	O	1.421334	0.413357	0.437656
Cu15	Cu	0.820202	-0.092487	-0.073800
Cu16	Cu	1.320202	0.407513	0.426200
Cu17	Cu	0.820224	-0.092494	0.074250
Cu18	Cu	1.320224	0.407506	0.574250
O19	O	0.814360	-0.193618	-0.062356
O20	O	1.314360	0.306382	0.437644
C21	C	0.693207	-0.097959	0.000193
C22	C	1.193207	0.402041	0.500193
C23	C	0.616103	-0.096830	0.000173
C24	C	1.116103	0.403170	0.500173
N25	N	0.820192	-0.092482	-0.177931
N26	N	1.320192	0.407518	0.322069
C27	C	0.571407	-0.159598	0.000193
C28	C	1.071407	0.340402	0.500193
C29	C	0.498960	-0.158537	0.000201
C30	C	0.998960	0.341463	0.500201
C31	C	0.471212	-0.094705	0.000205
C32	C	0.971212	0.405295	0.500205
C33	C	0.515918	-0.031929	0.000180
C34	C	1.015918	0.468071	0.500180
C35	C	0.588364	-0.032991	0.000164
C36	C	1.088364	0.467009	0.500164
C37	C	0.362957	-0.044527	0.044082
C38	C	0.862957	0.455473	0.544082
C39	C	0.290512	-0.043468	0.044103
C40	C	0.790512	0.456532	0.544103
C41	C	0.247767	-0.091425	0.000250
C42	C	0.747767	0.408575	0.500250
C43	C	0.277473	-0.140454	-0.043614
C44	C	0.777473	0.359546	0.456386
C45	C	0.349918	-0.141517	-0.043630
C46	C	0.849918	0.358483	0.456370
C47	C	0.392658	-0.093546	0.000221
C48	C	0.892658	0.406454	0.500221
C49	C	0.124514	-0.153047	0.000278
C50	C	0.624514	0.346953	0.500278
C51	C	0.052066	-0.151984	0.000281
C52	C	0.552066	0.348016	0.500281
C53	C	0.069026	-0.025374	0.000267
C54	C	0.569026	0.474626	0.500267
C55	C	0.141473	-0.026439	0.000256
C56	C	0.641473	0.473561	0.500256
C57	C	0.169212	-0.090278	0.000265
C58	C	0.669212	0.409722	0.500265
C59	C	0.947220	-0.087022	0.000258
C60	C	1.447220	0.412978	0.500258
C61	C	1.024324	-0.088151	0.000283
C62	C	1.524324	0.411849	0.500283
C63	C	0.825682	0.034516	0.000209
C64	C	1.325682	0.534516	0.500209
C65	C	0.824553	0.111620	0.000202
C66	C	1.324553	0.611620	0.500202
C67	C	0.814745	-0.219497	0.000242
C68	C	1.314745	0.280503	0.500242
C69	C	0.815874	-0.296601	0.000254
C70	C	1.315874	0.203399	0.500254
C71	C	0.887321	0.156316	0.000214
C72	C	1.387321	0.656316	0.500214
C73	C	0.886260	0.228763	0.000226
C74	C	1.386260	0.728763	0.500226
C75	C	0.822428	0.256511	0.000210
C76	C	1.322428	0.756511	0.500210
C77	C	0.759652	0.211805	0.000203
C78	C	1.259652	0.711805	0.500203
C79	C	0.760714	0.139359	0.000198
C80	C	1.260714	0.639359	0.500198
C81	C	0.772242	0.364800	-0.043653
C82	C	1.272242	0.864800	0.456347
C83	C	0.771182	0.437245	-0.043654
C84	C	1.271182	0.937245	0.456346
C85	C	0.819148	0.479956	0.000226
C86	C	1.319148	0.979956	0.500226
C87	C	0.868186	0.450216	0.044097
C88	C	1.368186	0.950216	0.544097
C89	C	0.869249	0.377771	0.044093
C90	C	1.369249	0.877771	0.544093
C91	C	0.821269	0.335065	0.000215
C92	C	1.321269	0.835065	0.500215
C93	C	0.880770	0.603209	0.000252
C94	C	1.380770	1.103209	0.500252
C95	C	0.879707	0.675657	0.000268
C96	C	1.379707	1.175657	0.500268
C97	C	0.753097	0.658697	0.000238
C98	C	1.253097	1.158697	0.500238
C99	C	0.754162	0.586250	0.000229
C100	C	1.254162	1.086250	0.500229
C101	C	0.818001	0.558511	0.000232
C102	C	1.318001	1.058511	0.500232
C103	C	0.867575	-0.045137	-0.217312
C104	C	1.367575	0.454863	0.282688
C105	C	0.867579	-0.045134	-0.296114
C106	C	1.367579	0.454866	0.203886
C107	C	0.820206	-0.092488	-0.335531
C108	C	1.320206	0.407512	0.164469
C109	C	0.772814	-0.139837	-0.296140
C110	C	1.272814	0.360163	0.203860
C111	C	0.772807	-0.139834	-0.217340
C112	C	1.272807	0.360166	0.282660
C113	C	0.810908	-0.155775	-0.460362
C114	C	1.310908	0.344225	0.039638
C115	C	0.810920	-0.155779	-0.539161
C116	C	1.310920	0.344221	-0.039161
C117	C	0.820225	-0.092496	-0.578577
C118	C	1.320225	0.407504	-0.078577
C119	C	0.829533	-0.029207	-0.539185
C120	C	1.329533	0.470793	-0.039185
C121	C	0.829525	-0.029204	-0.460385
C122	C	1.329525	0.470796	0.039615
C123	C	0.820209	-0.092496	-0.420977
C124	C	1.320209	0.407504	0.079023
C125	C	0.867616	-0.045143	-0.703405
C126	C	1.367616	0.454857	-0.203405
C127	C	0.867615	-0.045139	-0.782208
C128	C	1.367615	0.454861	-0.282208
C129	C	0.772853	-0.139848	-0.782233
C130	C	1.272853	0.360152	-0.282233
C131	C	0.772850	-0.139846	-0.703431
C132	C	1.272850	0.360154	-0.203431
C133	C	0.820235	-0.092495	-0.664022
C134	C	1.320235	0.407505	-0.164022
N135	N	0.820241	-0.092493	0.178380
N136	N	1.320241	0.407507	0.678380
H137	H	0.593987	-0.211580	0.000202
H138	H	1.093987	0.288420	0.500202
H139	H	0.803345	-0.207313	-0.571228
H140	H	1.303345	0.292687	-0.071228
H141	H	0.177866	0.024674	0.000244
H142	H	0.677866	0.524674	0.500244
H143	H	0.707679	0.234401	0.000192
H144	H	1.207679	0.734401	0.500192
H145	H	0.374102	-0.181436	-0.079347
H146	H	0.874102	0.318564	0.420653
Br147	Br	0.675522	0.078695	0.000184
Br148	Br	1.175522	0.578695	0.500184
H149	H	0.266331	-0.003548	0.079822
H150	H	0.766331	0.496452	0.579822
Br151	Br	0.162165	-0.239683	0.000284
Br152	Br	0.662165	0.260317	0.500284
Br153	Br	0.708553	-0.204108	-0.835721
Br154	Br	1.208553	0.295892	-0.335721
H155	H	0.734241	-0.178392	-0.328237
H156	H	1.234241	0.321608	0.171763
Br157	Br	0.931890	0.019127	-0.349570
Br158	Br	1.431890	0.519127	0.150430
H159	H	0.930822	0.712049	0.000282
H160	H	1.430822	1.212049	0.500282
H161	H	0.907245	0.484991	0.079829
H162	H	1.407245	0.984991	0.579829
H163	H	0.906198	-0.006585	-0.671317
H164	H	1.406198	0.493415	-0.171317
Br165	Br	-0.008596	-0.237177	0.000302
Br166	Br	0.491404	0.262823	0.500302
Br167	Br	0.420962	0.020566	0.103600
Br168	Br	0.920962	0.520566	0.603600
H169	H	0.803318	-0.207311	-0.428276
H170	H	1.303318	0.292689	0.071724
H171	H	0.734220	-0.178389	-0.185274
H172	H	1.234220	0.321611	0.314726
H173	H	0.734269	-0.178402	-0.671364
H174	H	1.234269	0.321598	-0.171364
H175	H	0.242670	-0.179505	-0.079324
H176	H	0.742670	0.320495	0.420676
Br177	Br	0.438288	-0.243728	0.000224
Br178	Br	0.938288	0.256272	0.500224
Br179	Br	0.935793	0.337410	0.103632
Br180	Br	1.435793	0.837410	0.603632
H181	H	0.046435	0.026600	0.000317
H182	H	0.546435	0.526600	0.500317
Br183	Br	0.931880	0.019126	-0.163828
Br184	Br	1.431880	0.519126	0.336172
H185	H	0.493322	0.020044	0.000193
H186	H	0.993322	0.520044	0.500193
H187	H	0.624756	0.018124	0.000148
H188	H	1.124756	0.518124	0.500148
H189	H	0.939303	0.133736	0.000220
H190	H	1.439303	0.633736	0.500220
H191	H	0.937375	0.265162	0.000238
H192	H	1.437375	0.765162	0.500238
Br193	Br	0.967406	0.565558	0.000249
Br194	Br	1.467406	1.065558	0.500249
Br195	Br	0.666466	0.696346	0.000224
Br196	Br	1.166466	1.196346	0.500224
H197	H	0.703049	0.549857	0.000215
H198	H	1.203049	1.049857	0.500215
Br199	Br	0.842150	0.056684	-0.406926
Br200	Br	1.342150	0.556684	0.093074
Br201	Br	0.704636	0.477599	-0.103196
Br202	Br	1.204636	0.977599	0.396804
H203	H	0.733180	0.330029	-0.079389
H204	H	1.233180	0.830029	0.420611
H205	H	0.837110	0.022324	-0.571277
H206	H	1.337110	0.522324	-0.071277
H207	H	0.906198	-0.006581	-0.814274
H208	H	1.406198	0.493419	-0.314274
