data_functionalizedCrystal
_audit_creation_method	'MofGen! by Chris Wilmer'
_symmetry_space_group_name_H-M	'P1'
_symmetry_Int_Tables_number	1
_symmetry_cell_setting	triclinic
loop_
_symmetry_equiv_pos_as_xyz
  x,y,z
_cell_length_a	16.120484
_cell_length_b	16.120566
_cell_length_c	11.169409
_cell_angle_alpha	87.076307
_cell_angle_beta	87.139270
_cell_angle_gamma	89.831930
loop_
_atom_site_label
_atom_site_type_symbol
_atom_site_fract_x
_atom_site_fract_y
_atom_site_fract_z
Zn1	Zn	-0.395513	-1.254511	0.799019
Zn2	Zn	-0.145513	-1.004511	1.049019
Zn3	Zn	0.104487	-0.754511	1.299019
Zn4	Zn	0.354487	-0.504511	1.549019
Zn5	Zn	-0.534592	-1.247345	0.607939
Zn6	Zn	-0.284592	-0.997345	0.857939
Zn7	Zn	-0.034592	-0.747345	1.107939
Zn8	Zn	0.215408	-0.497345	1.357939
Zn9	Zn	-0.388503	-1.115441	0.587680
Zn10	Zn	-0.138503	-0.865441	0.837680
Zn11	Zn	0.111497	-0.615441	1.087680
Zn12	Zn	0.361497	-0.365441	1.337680
Zn13	Zn	-0.527468	-1.108363	0.797909
Zn14	Zn	-0.277468	-0.858363	1.047909
Zn15	Zn	-0.027468	-0.608363	1.297909
Zn16	Zn	0.222532	-0.358363	1.547909
O17	O	-0.461519	-1.181415	0.698137
O18	O	-0.211519	-0.931415	0.948137
O19	O	0.038481	-0.681415	1.198137
O20	O	0.288481	-0.431415	1.448137
O21	O	-0.419878	-1.369927	0.782615
O22	O	-0.169878	-1.119927	1.032615
O23	O	0.080122	-0.869927	1.282615
O24	O	0.330122	-0.619927	1.532615
O25	O	-0.515261	-1.229811	0.437303
O26	O	-0.265261	-0.979811	0.687303
O27	O	-0.015261	-0.729811	0.937303
O28	O	0.234739	-0.479811	1.187303
O29	O	-0.273071	-1.139850	0.607700
O30	O	-0.023071	-0.889850	0.857700
O31	O	0.226929	-0.639850	1.107700
O32	O	0.476929	-0.389850	1.357700
O33	O	-0.522059	-1.364662	0.642230
O34	O	-0.272059	-1.114662	0.892230
O35	O	-0.022059	-0.864662	1.142230
O36	O	0.227941	-0.614662	1.392230
O37	O	-0.278221	-1.242024	0.762970
O38	O	-0.028221	-0.992024	1.012970
O39	O	0.221779	-0.742024	1.262970
O40	O	0.471779	-0.492024	1.512970
O41	O	-0.407930	-1.132901	0.422418
O42	O	-0.157930	-0.882901	0.672418
O43	O	0.092070	-0.632901	0.922418
O44	O	0.342070	-0.382901	1.172418
O45	O	-0.401022	-0.998136	0.606624
O46	O	-0.151022	-0.748136	0.856624
O47	O	0.098978	-0.498136	1.106624
O48	O	0.348978	-0.248136	1.356624
O49	O	-0.509916	-1.127787	0.966005
O50	O	-0.259916	-0.877787	1.216005
O51	O	-0.009916	-0.627787	1.466005
O52	O	0.240084	-0.377787	1.716005
O53	O	-0.503119	-0.992936	0.761079
O54	O	-0.253119	-0.742936	1.011079
O55	O	-0.003119	-0.492936	1.261079
O56	O	0.246881	-0.242936	1.511079
O57	O	-0.412970	-1.235161	0.966820
O58	O	-0.162970	-0.985161	1.216820
O59	O	0.087030	-0.735161	1.466820
O60	O	0.337030	-0.485161	1.716820
O61	O	-0.650010	-1.222948	0.641154
O62	O	-0.400010	-0.972948	0.891154
O63	O	-0.150010	-0.722948	1.141154
O64	O	0.099990	-0.472948	1.391154
O65	O	-0.644775	-1.120839	0.780724
O66	O	-0.394775	-0.870839	1.030724
O67	O	-0.144775	-0.620839	1.280724
O68	O	0.105225	-0.370839	1.530724
C69	C	-0.450537	-0.965364	0.681533
C70	C	-0.200537	-0.715364	0.931533
C71	C	0.049463	-0.465364	1.181533
C72	C	0.299463	-0.215364	1.431533
C73	C	-0.445859	-0.872935	0.674460
C74	C	-0.195859	-0.622935	0.924460
C75	C	0.054141	-0.372935	1.174460
C76	C	0.304141	-0.122935	1.424460
C77	C	-0.677565	-1.170370	0.713045
C78	C	-0.427565	-0.920370	0.963045
C79	C	-0.177565	-0.670370	1.213045
C80	C	0.072435	-0.420370	1.463045
C81	C	-0.769994	-1.165721	0.719468
C82	C	-0.519994	-0.915721	0.969468
C83	C	-0.269994	-0.665721	1.219468
C84	C	-0.019994	-0.415721	1.469468
C85	C	-0.939224	-1.157239	0.731221
C86	C	-0.689224	-0.907239	0.981221
C87	C	-0.439224	-0.657239	1.231221
C88	C	-0.189224	-0.407239	1.481221
C89	C	-0.982981	-1.205741	0.665083
C90	C	-0.732981	-0.955741	0.915083
C91	C	-0.482981	-0.705741	1.165083
C92	C	-0.232981	-0.455741	1.415083
C93	C	-1.077146	-1.201021	0.671623
C94	C	-0.827146	-0.951021	0.921623
C95	C	-0.577146	-0.701021	1.171623
C96	C	-0.327146	-0.451021	1.421623
C97	C	-0.845050	-1.161957	0.724683
C98	C	-0.595050	-0.911957	0.974683
C99	C	-0.345050	-0.661957	1.224683
C100	C	-0.095050	-0.411957	1.474683
C101	C	-0.437298	-0.703707	0.661555
C102	C	-0.187298	-0.453707	0.911555
C103	C	0.062702	-0.203707	1.161555
C104	C	0.312702	0.046293	1.411555
C105	C	-0.485812	-0.659960	0.734733
C106	C	-0.235812	-0.409960	0.984733
C107	C	0.014188	-0.159960	1.234733
C108	C	0.264188	0.090040	1.484733
C109	C	-0.481049	-0.565796	0.727552
C110	C	-0.231049	-0.315796	0.977552
C111	C	0.018951	-0.065796	1.227552
C112	C	0.268951	0.184204	1.477552
C113	C	-0.442060	-0.797880	0.668734
C114	C	-0.192060	-0.547880	0.918734
C115	C	0.057940	-0.297880	1.168734
C116	C	0.307940	-0.047880	1.418734
C117	C	-0.244631	-1.192526	0.683199
C118	C	0.005369	-0.942526	0.933199
C119	C	0.255369	-0.692526	1.183199
C120	C	0.505369	-0.442526	1.433199
C121	C	-0.152206	-1.197260	0.676833
C122	C	0.097794	-0.947260	0.926833
C123	C	0.347794	-0.697260	1.176833
C124	C	0.597794	-0.447260	1.426833
C125	C	-0.461430	-1.181484	1.011178
C126	C	-0.211430	-0.931484	1.261178
C127	C	0.038570	-0.681484	1.511178
C128	C	0.288570	-0.431484	1.761178
C129	C	-0.461392	-1.181513	1.144577
C130	C	-0.211392	-0.931513	1.394577
C131	C	0.038608	-0.681513	1.644577
C132	C	0.288608	-0.431513	1.894577
C133	C	-0.472547	-0.398310	0.714786
C134	C	-0.222547	-0.148310	0.964786
C135	C	0.027453	0.101690	1.214786
C136	C	0.277453	0.351690	1.464786
C137	C	-0.477254	-0.490738	0.721832
C138	C	-0.227254	-0.240738	0.971832
C139	C	0.022746	0.009262	1.221832
C140	C	0.272746	0.259262	1.471832
C141	C	-0.461550	-1.181398	0.386313
C142	C	-0.211550	-0.931398	0.636313
C143	C	0.038450	-0.681398	0.886313
C144	C	0.288450	-0.431398	1.136313
C145	C	-0.461362	-1.181542	0.252910
C146	C	-0.211362	-0.931542	0.502910
C147	C	0.038638	-0.681542	0.752910
C148	C	0.288638	-0.431542	1.002910
H149	H	-0.949722	-1.250808	0.603549
H150	H	-0.699722	-1.000808	0.853549
H151	H	-0.449722	-0.750808	1.103549
H152	H	-0.199722	-0.500808	1.353549
Br153	Br	-0.994655	-1.082125	0.833775
Br154	Br	-0.744655	-0.832125	1.083775
Br155	Br	-0.494655	-0.582125	1.333775
Br156	Br	-0.244655	-0.332125	1.583775
H157	H	-0.530921	-0.693227	0.802776
H158	H	-0.280921	-0.443227	1.052776
H159	H	-0.030921	-0.193227	1.302776
H160	H	0.219079	0.056773	1.552776
H161	H	-0.392192	-0.670442	0.593519
H162	H	-0.142192	-0.420442	0.843519
H163	H	0.107808	-0.170442	1.093519
H164	H	0.357808	0.079558	1.343519
