data_functionalizedCrystal
_audit_creation_method	'MofGen! by Chris Wilmer'
_symmetry_space_group_name_H-M	'P1'
_symmetry_Int_Tables_number	1
_symmetry_cell_setting	triclinic
loop_
_symmetry_equiv_pos_as_xyz
  x,y,z
_cell_length_a	12.827893
_cell_length_b	12.827892
_cell_length_c	21.395355
_cell_angle_alpha	90.013329
_cell_angle_beta	90.022562
_cell_angle_gamma	90.015552
loop_
_atom_site_label
_atom_site_type_symbol
_atom_site_fract_x
_atom_site_fract_y
_atom_site_fract_z
Zn1	Zn	1.597703	-0.416150	0.354251
Zn2	Zn	2.097703	0.083850	0.854251
Zn3	Zn	1.597588	-0.590876	0.249483
Zn4	Zn	2.097588	-0.090876	0.749483
Zn5	Zn	1.422935	-0.416150	0.249491
Zn6	Zn	1.922935	0.083850	0.749491
Zn7	Zn	1.422930	-0.590850	0.354227
Zn8	Zn	1.922930	-0.090850	0.854227
O9	O	1.510289	-0.503506	0.301863
O10	O	2.010289	-0.003506	0.801863
O11	O	1.743924	-0.439338	0.340360
O12	O	2.243924	0.060662	0.840360
O13	O	1.574373	-0.567710	0.161806
O14	O	2.074373	-0.067710	0.661806
O15	O	1.446169	-0.269914	0.263401
O16	O	1.946169	0.230086	0.763401
O17	O	1.743839	-0.567709	0.263387
O18	O	2.243839	-0.067709	0.763387
O19	O	1.574571	-0.269914	0.340368
O20	O	2.074571	0.230086	0.840368
O21	O	1.446056	-0.439339	0.161812
O22	O	1.946056	0.060661	0.661812
O23	O	1.276698	-0.439314	0.263378
O24	O	1.776698	0.060686	0.763378
O25	O	1.446161	-0.567664	0.441908
O26	O	1.946161	-0.067664	0.941908
O27	O	1.276695	-0.567665	0.340327
O28	O	1.776695	-0.067665	0.840327
O29	O	1.574566	-0.439313	0.441925
O30	O	2.074566	0.060687	0.941925
O31	O	1.574368	-0.737109	0.263364
O32	O	2.074368	-0.237109	0.763364
O33	O	1.446048	-0.737089	0.340318
O34	O	1.946048	-0.237089	0.840318
C35	C	1.238779	-0.503487	0.301851
C36	C	1.738779	-0.003487	0.801851
C37	C	1.122626	-0.503504	0.301861
C38	C	1.622626	-0.003504	0.801861
C39	C	1.510224	-0.775016	0.301851
C40	C	2.010224	-0.275016	0.801851
C41	C	1.510291	-0.891170	0.301867
C42	C	2.010291	-0.391170	0.801867
C43	C	1.070883	-0.440095	0.340008
C44	C	1.570883	0.059905	0.840008
C45	C	0.950833	-0.440111	0.340019
C46	C	1.450833	0.059889	0.840019
C47	C	1.573800	-0.942871	0.339987
C48	C	2.073800	-0.442871	0.839987
C49	C	1.573872	-1.062921	0.340004
C50	C	2.073872	-0.562921	0.840004
C51	C	1.782859	-0.503527	0.301875
C52	C	2.282859	-0.003527	0.801875
C53	C	1.899012	-0.503535	0.301880
C54	C	2.399012	-0.003535	0.801880
C55	C	1.510376	-0.503485	0.465286
C56	C	2.010376	-0.003485	0.965286
C57	C	1.510413	-0.503476	0.534927
C58	C	2.010413	-0.003476	1.034927
C59	C	1.510383	-0.230936	0.301888
C60	C	2.010383	0.269064	0.801888
C61	C	1.510423	-0.114783	0.301899
C62	C	2.010423	0.385217	0.801899
C63	C	1.510263	-0.503452	0.139075
C64	C	2.010263	-0.003452	0.639075
C65	C	1.510428	-0.503167	0.069434
C66	C	2.010428	-0.003167	0.569434
C67	C	1.577270	-0.436641	0.567651
C68	C	2.077270	0.063359	1.067651
C69	C	1.577269	-0.436596	0.633086
C70	C	2.077269	0.063404	1.133086
C71	C	1.510421	-0.503405	0.665796
C72	C	2.010421	-0.003405	1.165796
C73	C	1.443550	-0.570245	0.633065
C74	C	1.943550	-0.070245	1.133065
C75	C	1.443546	-0.570281	0.567630
C76	C	1.943546	-0.070281	1.067630
C77	C	1.502147	-0.597499	0.769467
C78	C	2.002147	-0.097499	1.269467
C79	C	1.502158	-0.597465	0.834900
C80	C	2.002158	-0.097465	1.334900
C81	C	1.510427	-0.503295	0.867617
C82	C	2.010427	-0.003295	1.367617
C83	C	1.518707	-0.409155	0.834893
C84	C	2.018707	0.090845	1.334893
C85	C	1.518703	-0.409191	0.769458
C86	C	2.018703	0.090809	1.269458
C87	C	1.510417	-0.503373	0.736748
C88	C	2.010417	-0.003373	1.236748
C89	C	1.577287	-0.436405	0.971293
C90	C	2.077287	0.063595	1.471293
C91	C	1.577278	-0.436358	1.036729
C92	C	2.077278	0.063642	1.536729
C93	C	1.443565	-0.570017	1.036706
C94	C	1.943565	-0.070017	1.536706
C95	C	1.443568	-0.570054	0.971271
C96	C	1.943568	-0.070054	1.471271
C97	C	1.510435	-0.503250	0.938568
C98	C	2.010435	-0.003250	1.438568
H99	H	1.115461	-0.385792	0.372658
H100	H	1.615461	0.114208	0.872658
Cl101	Cl	1.426475	-1.046150	0.251504
Cl102	Cl	1.926475	-0.546150	0.751504
Cl103	Cl	1.359490	-0.654310	0.526490
Cl104	Cl	1.859490	-0.154310	1.026490
Cl105	Cl	1.053810	-0.587336	0.251443
Cl106	Cl	1.553810	-0.087336	0.751443
Cl107	Cl	0.967701	-0.587363	0.251455
Cl108	Cl	1.467701	-0.087363	0.751455
H109	H	1.455967	-0.935783	0.269247
H110	H	1.955967	-0.435783	0.769247
Cl111	Cl	1.661340	-0.352419	0.930177
Cl112	Cl	2.161340	0.147581	1.430177
Cl113	Cl	1.491782	-0.715899	0.728344
Cl114	Cl	1.991782	-0.215899	1.228344
H115	H	1.631717	-0.382242	0.541028
H116	H	2.131717	0.117758	1.041028
H117	H	1.628117	-0.898260	0.372613
H118	H	2.128117	-0.398260	0.872613
Cl119	Cl	1.657829	-1.131561	0.390391
Cl120	Cl	2.157829	-0.631561	0.890391
H121	H	1.631710	-0.382165	0.659735
H122	H	2.131710	0.117835	1.159735
Cl123	Cl	1.529103	-0.290850	0.728322
Cl124	Cl	2.029103	0.209150	1.228322
Cl125	Cl	1.529108	-0.290761	0.876015
Cl126	Cl	2.029108	0.209239	1.376015
Cl127	Cl	1.661353	-0.352345	1.077868
Cl128	Cl	2.161353	0.147655	1.577868
Cl129	Cl	0.882138	-0.356297	0.390450
Cl130	Cl	1.382138	0.143703	0.890450
Cl131	Cl	1.491759	-0.715811	0.876032
Cl132	Cl	1.991759	-0.215811	1.376032
Cl133	Cl	1.359516	-0.653997	1.077821
Cl134	Cl	1.859516	-0.153997	1.577821
H135	H	1.389132	-0.624485	0.944627
H136	H	1.889132	-0.124485	1.444627
Cl137	Cl	1.359508	-0.654230	0.674184
Cl138	Cl	1.859508	-0.154230	1.174184
