data_functionalizedCrystal
_audit_creation_method	'MofGen! by Chris Wilmer'
_symmetry_space_group_name_H-M	'P1'
_symmetry_Int_Tables_number	1
_symmetry_cell_setting	triclinic
loop_
_symmetry_equiv_pos_as_xyz
  x,y,z
_cell_length_a	15.995350
_cell_length_b	15.995350
_cell_length_c	14.472310
_cell_angle_alpha	89.998838
_cell_angle_beta	89.990621
_cell_angle_gamma	96.507625
loop_
_atom_site_label
_atom_site_type_symbol
_atom_site_fract_x
_atom_site_fract_y
_atom_site_fract_z
O1	O	1.110997	-0.107921	-0.076758
O2	O	1.610997	0.392079	0.423242
O3	O	0.867221	-0.121248	-0.076776
O4	O	1.367221	0.378752	0.423224
O5	O	0.995773	0.007303	-0.076766
O6	O	1.495773	0.507303	0.423234
O7	O	0.982445	-0.236472	-0.076769
O8	O	1.482445	0.263528	0.423231
O9	O	0.995740	0.007296	0.076916
O10	O	1.495740	0.507296	0.576916
O11	O	0.867188	-0.121256	0.076906
O12	O	1.367188	0.378744	0.576906
O13	O	1.110963	-0.107928	0.076924
O14	O	1.610963	0.392072	0.576924
Cu15	Cu	0.989073	-0.114593	0.090947
Cu16	Cu	1.489073	0.385407	0.590947
Cu17	Cu	0.989112	-0.114584	-0.090800
Cu18	Cu	1.489112	0.385416	0.409200
O19	O	0.982412	-0.236480	0.076913
O20	O	1.482412	0.263520	0.576913
C21	C	0.836010	-0.120701	0.000062
C22	C	1.336010	0.379299	0.500062
C23	C	0.743060	-0.119049	0.000055
C24	C	1.243060	0.380951	0.500055
C25	C	0.405312	-0.113117	0.000074
C26	C	0.905312	0.386883	0.500074
C27	C	0.452746	-0.021565	0.000418
C28	C	0.952746	0.478435	0.500418
C29	C	0.549436	-0.023217	0.000065
C30	C	1.049436	0.476783	0.500065
C31	C	0.572873	-0.116060	0.000065
C32	C	1.072873	0.383940	0.500065
C33	C	0.531804	-0.161212	-0.087692
C34	C	1.031804	0.338788	0.412308
C35	C	0.435169	-0.158912	-0.087759
C36	C	0.935169	0.341088	0.412241
C37	C	0.434792	-0.160812	0.087007
C38	C	0.934792	0.339188	0.587007
C39	C	0.531737	-0.160790	0.088160
C40	C	1.031737	0.339210	0.588160
C41	C	0.667570	-0.117727	0.000057
C42	C	1.167570	0.382273	0.500057
C43	C	0.310614	-0.111452	0.000076
C44	C	0.810614	0.388548	0.500076
C45	C	0.995205	0.038494	0.000073
C46	C	1.495205	0.538494	0.500073
C47	C	0.993553	0.131444	0.000068
C48	C	1.493553	0.631444	0.500068
C49	C	1.142175	-0.108476	0.000083
C50	C	1.642175	0.391524	0.500083
C51	C	1.235125	-0.110127	0.000084
C52	C	1.735125	0.389873	0.500084
C53	C	0.982980	-0.267671	0.000072
C54	C	1.482980	0.232329	0.500072
C55	C	0.984631	-0.360621	0.000071
C56	C	1.484631	0.139379	0.500071
N57	N	0.989051	-0.114598	0.218778
N58	N	1.489051	0.385402	0.718778
C59	C	0.987621	0.469192	0.000071
C60	C	1.487621	0.969192	0.500071
C61	C	0.896069	0.421758	-0.000281
C62	C	1.396069	0.921758	0.499719
C63	C	0.897721	0.325068	0.000066
C64	C	1.397721	0.825068	0.500066
C65	C	0.990564	0.301631	0.000069
C66	C	1.490564	0.801631	0.500069
C67	C	1.035701	0.342705	0.087831
C68	C	1.535701	0.842705	0.587831
C69	C	1.033401	0.439340	0.087904
C70	C	1.533401	0.939340	0.587904
C71	C	1.035330	0.439707	-0.086861
C72	C	1.535330	0.939707	0.413139
C73	C	1.035309	0.342762	-0.088021
C74	C	1.535309	0.842762	0.411979
C75	C	0.992231	0.206934	0.000071
C76	C	1.492231	0.706934	0.500071
C77	C	0.985956	0.563890	0.000075
C78	C	1.485956	1.063890	0.500075
N79	N	0.989140	-0.114572	-0.218631
N80	N	1.489140	0.385428	0.281369
C81	C	0.989111	-0.114581	0.592869
C82	C	1.489111	0.385419	1.092869
C83	C	0.920095	-0.183135	0.553698
C84	C	1.420095	0.316865	1.053698
C85	C	0.920254	-0.183385	0.446610
C86	C	1.420254	0.316615	0.946610
C87	C	0.989081	-0.114590	0.407278
C88	C	1.489081	0.385410	0.907278
C89	C	1.076445	-0.133671	0.446122
C90	C	1.576445	0.366329	0.946122
C91	C	1.076057	-0.134159	0.553243
C92	C	1.576057	0.365841	1.053243
C93	C	0.971542	-0.026741	0.553398
C94	C	1.471542	0.473259	1.053398
C95	C	0.969538	-0.027327	0.446270
C96	C	1.469538	0.472673	0.946270
C97	C	0.989069	-0.114593	0.302390
C98	C	1.489069	0.385407	0.802390
C99	C	0.989128	-0.114579	0.697757
C100	C	1.489128	0.385421	1.197757
H101	H	0.434210	0.015027	0.063352
H102	H	0.934210	0.515027	0.563352
N103	N	1.096545	-0.219019	0.586333
N104	N	1.596545	0.280981	1.086333
H105	H	1.096494	-0.220186	0.656110
H106	H	1.596494	0.279814	1.156110
H107	H	1.153925	-0.229288	0.562740
H108	H	1.653925	0.270712	1.062740
N109	N	0.834228	-0.168355	0.411818
N110	N	1.334228	0.331645	0.911818
H111	H	0.834166	-0.168497	0.342030
H112	H	1.334166	0.331503	0.842030
H113	H	0.819972	-0.112119	0.434987
H114	H	1.319972	0.387881	0.934987
N115	N	1.146099	-0.070509	0.587575
N116	N	1.646099	0.429491	1.087575
H117	H	1.177095	-0.042265	0.533119
H118	H	1.677095	0.457735	1.033119
H119	H	1.186444	-0.099913	0.626260
H120	H	1.686444	0.400087	1.126260
H121	H	0.414242	-0.130885	0.153524
H122	H	0.914242	0.369115	0.653524
H123	H	1.002307	0.315516	-0.152945
H124	H	1.502307	0.815516	0.347055
N125	N	0.392468	-0.247950	-0.093040
N126	N	0.892468	0.252050	0.406960
H127	H	0.356594	-0.254736	-0.150562
H128	H	0.856594	0.245264	0.349438
H129	H	0.355802	-0.260213	-0.036743
H130	H	0.855802	0.239787	0.463257
H131	H	1.005412	0.460250	-0.153379
H132	H	1.505412	0.960250	0.346621
H133	H	0.859490	0.440293	-0.063217
H134	H	1.359490	0.940293	0.436783
H135	H	0.931159	-0.247952	0.580608
H136	H	1.431159	0.252048	1.080608
N137	N	1.124997	0.322426	-0.095040
N138	N	1.624997	0.822426	0.404960
H139	H	1.132580	0.291225	-0.154585
H140	H	1.632580	0.791225	0.345415
H141	H	1.137894	0.286129	-0.040932
H142	H	1.637894	0.786129	0.459068
H143	H	0.861973	0.297200	0.063079
H144	H	1.361973	0.797200	0.563079
N145	N	0.847795	0.447695	0.082617
N146	N	1.347795	0.947695	0.582617
H147	H	0.789058	0.416937	0.081866
H148	H	1.289058	0.916937	0.581866
H149	H	0.844566	0.510357	0.080409
H150	H	1.344566	1.010357	0.580409
N151	N	0.934891	-0.269788	0.412643
N152	N	1.434891	0.230212	0.912643
H153	H	0.941294	-0.307854	0.467258
H154	H	1.441294	0.192146	0.967258
H155	H	0.987744	-0.265495	0.373931
H156	H	1.487744	0.234505	0.873931
H157	H	0.559040	-0.127830	0.153082
H158	H	1.059040	0.372170	0.653082
N159	N	0.586370	0.024106	-0.083411
N160	N	1.086370	0.524106	0.416589
H161	H	0.627809	0.072830	-0.062641
H162	H	1.127809	0.572830	0.437359
H163	H	0.539782	0.046067	-0.120095
H164	H	1.039782	0.546067	0.379905
H165	H	1.102831	0.471468	-0.087449
H166	H	1.602831	0.971468	0.412551
H167	H	1.000459	0.457639	0.153505
H168	H	1.500459	0.957639	0.653505
N169	N	0.552081	-0.250474	0.095188
N170	N	1.052081	0.249526	0.595188
H171	H	0.588410	-0.263438	0.041123
H172	H	1.088410	0.236562	0.541123
H173	H	0.498144	-0.289971	0.094440
H174	H	0.998144	0.210029	0.594440
N175	N	0.833792	-0.168334	0.587848
N176	N	1.333792	0.331666	1.087848
H177	H	0.838591	-0.117048	0.629046
H178	H	1.338591	0.382952	1.129046
H179	H	0.808541	-0.219054	0.623955
H180	H	1.308541	0.280946	1.123955
N181	N	0.569401	-0.119670	-0.174208
N182	N	1.069401	0.380330	0.325792
H183	H	0.613026	-0.071611	-0.156757
H184	H	1.113026	0.428389	0.343243
H185	H	0.523535	-0.097445	-0.211811
H186	H	1.023535	0.402555	0.288189
N187	N	1.146105	-0.069292	0.412384
N188	N	1.646105	0.430708	0.912384
H189	H	1.121641	-0.027038	0.371495
H190	H	1.621641	0.472962	0.871495
H191	H	1.188257	-0.098463	0.376050
H192	H	1.688257	0.401537	0.876050
N193	N	0.888971	-0.002446	0.589204
N194	N	1.388971	0.497554	1.089204
H195	H	0.899344	0.052116	0.624684
H196	H	1.399344	0.552116	1.124684
H197	H	0.862156	-0.048189	0.631346
H198	H	1.362156	0.451811	1.131346
H199	H	0.416874	-0.125979	-0.153359
H200	H	0.916874	0.374021	0.346641
N201	N	0.550521	-0.251559	-0.092032
N202	N	1.050521	0.248441	0.407968
H203	H	0.585886	-0.264119	-0.037021
H204	H	1.085886	0.235881	0.462979
H205	H	0.582181	-0.260835	-0.150852
H206	H	1.082181	0.239165	0.349148
H207	H	0.403031	-0.228313	0.087600
H208	H	0.903031	0.271687	0.587600
H209	H	1.016541	0.026079	0.419500
H210	H	1.516541	0.526079	0.919500
H211	H	1.021872	0.024275	0.578728
H212	H	1.521872	0.524275	1.078728
N213	N	1.097446	-0.217558	0.410575
N214	N	1.597446	0.282442	0.910575
H215	H	1.052646	-0.263390	0.431107
H216	H	1.552646	0.236610	0.931107
H217	H	1.153790	-0.229197	0.435963
H218	H	1.653790	0.270803	0.935963
N219	N	0.587084	0.023790	0.083394
N220	N	1.087084	0.523790	0.583394
H221	H	0.540873	0.045775	0.120686
H222	H	1.040873	0.545775	0.620686
H223	H	0.628445	0.072481	0.062366
H224	H	1.128445	0.572481	0.562366
N225	N	0.426789	0.026693	-0.082471
N226	N	0.926789	0.526693	0.417529
H227	H	0.441302	-0.003000	-0.140927
H228	H	0.941302	0.497000	0.359073
H229	H	0.457547	0.085427	-0.081648
H230	H	0.957547	0.585427	0.418352
H231	H	0.862239	0.296649	-0.062846
H232	H	1.362239	0.796649	0.437154
N233	N	0.884382	-0.008168	0.412709
N234	N	1.384382	0.491832	0.912709
H235	H	0.858567	-0.055805	0.372406
H236	H	1.358567	0.444195	0.872406
H237	H	0.891055	0.045771	0.375811
H238	H	1.391055	0.545771	0.875811
H239	H	1.100617	0.471588	0.091888
H240	H	1.600617	0.971588	0.591888
H241	H	1.103909	0.328579	0.091097
H242	H	1.603909	0.828579	0.591097
H243	H	1.004324	0.314320	0.153137
H244	H	1.504324	0.814320	0.653137
