data_functionalizedCrystal
_audit_creation_method	'MofGen! by Chris Wilmer'
_symmetry_space_group_name_H-M	'P1'
_symmetry_Int_Tables_number	1
_symmetry_cell_setting	triclinic
loop_
_symmetry_equiv_pos_as_xyz
  x,y,z
_cell_length_a	17.699097
_cell_length_b	14.421503
_cell_length_c	17.699104
_cell_angle_alpha	89.996651
_cell_angle_beta	83.289974
_cell_angle_gamma	90.011209
loop_
_atom_site_label
_atom_site_type_symbol
_atom_site_fract_x
_atom_site_fract_y
_atom_site_fract_z
O1	O	1.004081	0.077191	0.095748
O2	O	1.337415	0.410524	0.429081
O3	O	1.670748	0.743857	0.762414
O4	O	0.783705	0.077176	0.108189
O5	O	1.117039	0.410509	0.441523
O6	O	1.450372	0.743842	0.774856
O7	O	0.900111	0.077175	-0.008219
O8	O	1.233445	0.410509	0.325114
O9	O	1.566778	0.743842	0.658447
O10	O	0.887675	0.077191	0.212156
O11	O	1.221009	0.410524	0.545490
O12	O	1.554342	0.743858	0.878823
O13	O	0.900092	-0.077048	-0.008202
O14	O	1.233425	0.256285	0.325131
O15	O	1.566759	0.589619	0.658465
O16	O	0.783686	-0.077048	0.108207
O17	O	1.117019	0.256286	0.441540
O18	O	1.450353	0.589619	0.774873
O19	O	1.004062	-0.077033	0.095765
O20	O	1.337395	0.256300	0.429098
O21	O	1.670729	0.589634	0.762432
Cu22	Cu	0.893872	-0.091122	0.101987
Cu23	Cu	1.227206	0.242211	0.435321
Cu24	Cu	1.560539	0.575545	0.768654
Cu25	Cu	0.893895	0.091265	0.101967
Cu26	Cu	1.227228	0.424598	0.435300
Cu27	Cu	1.560562	0.757932	0.768634
O28	O	0.887656	-0.077032	0.212174
O29	O	1.220989	0.256301	0.545507
O30	O	1.554323	0.589634	0.878840
C31	C	0.755499	0.000062	0.107751
C32	C	1.088832	0.333395	0.441084
C33	C	1.422165	0.666729	0.774417
C34	C	0.671481	0.000056	0.106408
C35	C	1.004814	0.333390	0.439741
C36	C	1.338148	0.666723	0.773075
N37	N	0.893862	-0.219403	0.102001
N38	N	1.227195	0.113930	0.435335
N39	N	1.560528	0.447263	0.768668
C40	C	0.155773	0.084160	0.098169
C41	C	0.489106	0.417494	0.431503
C42	C	0.822439	0.750827	0.764836
C43	C	0.234717	0.084156	0.099426
C44	C	0.568050	0.417489	0.432759
C45	C	0.901384	0.750822	0.766092
C46	C	0.274172	0.000085	0.100064
C47	C	0.607506	0.333418	0.433398
C48	C	0.940839	0.666751	0.766731
C49	C	0.234681	-0.083987	0.099439
C50	C	0.568014	0.249346	0.432772
C51	C	0.901347	0.582680	0.766106
C52	C	0.155739	-0.083982	0.098177
C53	C	0.489072	0.249352	0.431511
C54	C	0.822405	0.582685	0.764844
C55	C	0.553045	-0.084011	0.104526
C56	C	0.886378	0.249322	0.437860
C57	C	1.219712	0.582655	0.771193
C58	C	0.631992	-0.084010	0.105791
C59	C	0.965326	0.249323	0.439124
C60	C	1.298659	0.582656	0.772457
C61	C	0.632023	0.084126	0.105775
C62	C	0.965357	0.417460	0.439108
C63	C	1.298690	0.750793	0.772441
C64	C	0.553081	0.084132	0.104513
C65	C	0.886415	0.417465	0.437846
C66	C	1.219748	0.750798	0.771180
C67	C	0.513597	0.000060	0.103884
C68	C	0.846930	0.333394	0.437217
C69	C	1.180264	0.666727	0.770550
C70	C	0.427997	0.000066	0.102520
C71	C	0.761330	0.333400	0.435853
C72	C	1.094664	0.666733	0.769187
C73	C	0.359770	0.000078	0.101433
C74	C	0.693104	0.333411	0.434767
C75	C	1.026437	0.666745	0.768100
C76	C	0.840026	-0.469057	0.155805
C77	C	1.173359	-0.135723	0.489138
C78	C	1.506693	0.197610	0.822471
C79	C	0.908390	-0.530854	0.170372
C80	C	1.241723	-0.197520	0.503705
C81	C	1.575057	0.135813	0.837039
C82	C	0.893880	-0.408565	0.101983
C83	C	1.227213	-0.075231	0.435317
C84	C	1.560547	0.258102	0.768650
C85	C	0.825534	-0.530862	0.087433
C86	C	1.158867	-0.197529	0.420767
C87	C	1.492201	0.135805	0.754100
C88	C	0.893892	-0.591286	0.101968
C89	C	1.227225	-0.257953	0.435301
C90	C	1.560558	0.075381	0.768634
C91	C	0.962278	-0.469001	0.116585
C92	C	1.295612	-0.135667	0.449918
C93	C	1.628945	0.197666	0.783251
C94	C	0.879377	-0.469004	0.033616
C95	C	1.212711	-0.135670	0.366950
C96	C	1.546044	0.197663	0.700283
C97	C	0.947791	-0.530772	0.048155
C98	C	1.281124	-0.197439	0.381488
C99	C	1.614457	0.135894	0.714821
C100	C	0.893872	-0.303304	0.101994
C101	C	1.227206	0.030030	0.435328
C102	C	1.560539	0.363363	0.768661
C103	C	0.893907	-0.696545	0.101956
C104	C	1.227241	-0.363212	0.435289
C105	C	1.560574	-0.029878	0.768623
C106	C	1.032268	0.000083	0.096204
C107	C	1.365602	0.333416	0.429537
C108	C	1.698935	0.666750	0.762870
C109	C	1.116286	0.000095	0.097546
C110	C	1.449619	0.333428	0.430880
C111	C	1.782953	0.666762	0.764213
C112	C	0.899653	0.000063	-0.036407
C113	C	1.232987	0.333397	0.296926
C114	C	1.566320	0.666730	0.630259
C115	C	0.898308	0.000063	-0.120425
C116	C	1.231642	0.333396	0.212909
C117	C	1.564975	0.666730	0.546242
N118	N	0.893912	0.219546	0.101947
N119	N	1.227245	0.552880	0.435280
N120	N	1.560578	0.886213	0.768614
C121	C	0.959052	0.000093	-0.645293
C122	C	1.292385	0.333427	-0.311959
C123	C	1.625718	0.666760	0.021374
C124	C	0.960311	0.000085	-0.566349
C125	C	1.293644	0.333419	-0.233016
C126	C	1.626978	0.666752	0.100318
C127	C	0.891976	0.000078	-0.517735
C128	C	1.225310	0.333412	-0.184401
C129	C	1.558643	0.666745	0.148932
C130	C	0.822378	0.000071	-0.548068
C131	C	1.155711	0.333404	-0.214734
C132	C	1.489044	0.666737	0.118599
C133	C	0.821119	0.000072	-0.627010
C134	C	1.154453	0.333405	-0.293677
C135	C	1.487786	0.666739	0.039656
C136	C	0.827451	0.000063	-0.229702
C137	C	1.160784	0.333396	0.103632
C138	C	1.494117	0.666730	0.436965
C139	C	0.828715	0.000064	-0.150754
C140	C	1.162048	0.333398	0.182579
C141	C	1.495381	0.666731	0.515912
C142	C	0.966642	0.000076	-0.169040
C143	C	1.299976	0.333410	0.164293
C144	C	1.633309	0.666743	0.497626
C145	C	0.965384	0.000078	-0.247983
C146	C	1.298717	0.333411	0.085351
C147	C	1.632051	0.666744	0.418684
C148	C	0.895786	0.000065	-0.278309
C149	C	1.229120	0.333398	0.055024
C150	C	1.562453	0.666732	0.388358
C151	C	0.894422	0.000072	-0.363909
C152	C	1.227755	0.333405	-0.030576
C153	C	1.561088	0.666739	0.302758
C154	C	0.893340	0.000078	-0.432136
C155	C	1.226673	0.333411	-0.098803
C156	C	1.560006	0.666745	0.234531
C157	C	0.888114	0.000082	0.240362
C158	C	1.221447	0.333415	0.573695
C159	C	1.554781	0.666748	0.907028
C160	C	0.889459	0.000088	0.324379
C161	C	1.222792	0.333422	0.657712
C162	C	1.556125	0.666755	0.991046
H163	H	0.123653	0.152621	0.097654
H164	H	0.456986	0.485954	0.430988
H165	H	0.790320	0.819287	0.764321
N166	N	0.277308	0.174826	0.100088
N167	N	0.610642	0.508159	0.433421
N168	N	0.943975	0.841492	0.766754
H169	H	0.240334	0.228085	0.099493
H170	H	0.573668	0.561418	0.432827
H171	H	0.907001	0.894751	0.766160
H172	H	0.303850	0.178493	0.147507
H173	H	0.637184	0.511826	0.480841
H174	H	0.970517	0.845160	0.814174
H175	H	0.770780	0.000064	-0.254383
H176	H	1.104113	0.333397	0.078950
H177	H	1.437447	0.666730	0.412284
H178	H	0.520960	0.152591	0.103997
H179	H	0.854293	0.485924	0.437330
H180	H	1.187627	0.819258	0.770663
N181	N	0.779761	-0.433166	0.216142
N182	N	1.113094	-0.099832	0.549475
N183	N	1.446428	0.233501	0.882808
H184	H	0.804378	-0.393659	0.253546
H185	H	1.137711	-0.060325	0.586880
H186	H	1.471045	0.273008	0.920213
H187	H	0.741796	-0.394672	0.191417
H188	H	1.075130	-0.061339	0.524750
H189	H	1.408463	0.271995	0.858084
N190	N	0.113148	-0.174653	0.097501
N191	N	0.446482	0.158680	0.430834
N192	N	0.779815	0.492014	0.764167
H193	H	0.150191	-0.227910	0.097566
H194	H	0.483524	0.105424	0.430900
H195	H	0.816857	0.438757	0.764233
H196	H	0.074535	-0.178596	0.144146
H197	H	0.407868	0.154737	0.477480
H198	H	0.741202	0.488070	0.810813
N199	N	0.674555	-0.174688	0.106470
N200	N	1.007888	0.158645	0.439803
N201	N	1.341222	0.491978	0.773137
H202	H	0.701087	-0.178437	0.153894
H203	H	1.034420	0.154896	0.487228
H204	H	1.367754	0.488229	0.820561
H205	H	0.637523	-0.227896	0.105848
H206	H	0.970856	0.105437	0.439181
H207	H	1.304189	0.438770	0.772515
H208	H	0.766739	0.000060	-0.508480
H209	H	1.100072	0.333393	-0.175146
H210	H	1.433405	0.666726	0.158187
H211	H	0.920667	-0.558021	0.228181
H212	H	1.254001	-0.224687	0.561515
H213	H	1.587334	0.108646	0.894848
N214	N	0.277229	-0.174668	0.100129
N215	N	0.610562	0.158665	0.433463
N216	N	0.943895	0.491999	0.766796
H217	H	0.316202	-0.178423	0.053757
H218	H	0.649535	0.154910	0.387090
H219	H	0.982869	0.488244	0.720424
H220	H	0.303712	-0.178359	0.147585
H221	H	0.637045	0.154974	0.480918
H222	H	0.970379	0.488307	0.814252
H223	H	0.993388	-0.557700	0.002630
H224	H	1.326721	-0.224367	0.335964
H225	H	1.660055	0.108966	0.669297
H226	H	0.664181	0.152581	0.106284
H227	H	0.997515	0.485915	0.439617
H228	H	1.330848	0.819248	0.772950
N229	N	0.746059	0.000058	-0.659726
N230	N	1.079392	0.333392	-0.326392
N231	N	1.412726	0.666725	0.006941
H232	H	0.702959	0.000054	-0.616951
H233	H	1.036293	0.333388	-0.283618
H234	H	1.369626	0.666721	0.049715
H235	H	0.742536	0.057229	-0.692086
H236	H	1.075869	0.390562	-0.358753
H237	H	1.409202	0.723895	-0.025420
N238	N	1.038866	-0.433170	0.132964
N239	N	1.372200	-0.099837	0.466298
N240	N	1.705533	0.233497	0.799631
H241	H	1.038383	-0.363139	0.132891
H242	H	1.371716	-0.029806	0.466225
H243	H	1.705050	0.303528	0.799558
H244	H	1.049906	-0.456282	0.184413
H245	H	1.383239	-0.122949	0.517746
H246	H	1.716573	0.210385	0.851079
H247	H	0.867078	-0.441815	-0.024174
H248	H	1.200412	-0.108482	0.309159
H249	H	1.533745	0.224852	0.642492
N250	N	0.510461	-0.174682	0.103850
N251	N	0.843795	0.158652	0.437183
N252	N	1.177128	0.491985	0.770516
H253	H	0.547503	-0.227939	0.103913
H254	H	0.880837	0.105395	0.437246
H255	H	1.214170	0.438728	0.770579
H256	H	0.471852	-0.178623	0.150498
H257	H	0.805185	0.154710	0.483832
H258	H	1.138518	0.488043	0.817165
N259	N	0.748971	-0.566865	0.071138
N260	N	1.082304	-0.233532	0.404471
N261	N	1.415638	0.099801	0.737804
H262	H	0.708330	-0.544417	0.111835
H263	H	1.041663	-0.211084	0.445168
H264	H	1.374997	0.122249	0.778502
H265	H	0.737659	-0.543396	0.019883
H266	H	1.070993	-0.210063	0.353216
H267	H	1.404326	0.123271	0.686549
H268	H	1.014698	0.000106	-0.684870
H269	H	1.348032	0.333440	-0.351537
H270	H	1.681365	0.666773	-0.018203
H271	H	1.016980	0.000088	-0.541660
H272	H	1.350314	0.333422	-0.208327
H273	H	1.683647	0.666755	0.125007
N274	N	1.039087	0.000087	-0.300417
N275	N	1.372420	0.333420	0.032917
N276	N	1.705754	0.666754	0.366250
H277	H	1.083367	0.000086	-0.269224
H278	H	1.416700	0.333419	0.064109
H279	H	1.750033	0.666753	0.397442
H280	H	1.041558	-0.057086	-0.333564
H281	H	1.374892	0.276247	-0.000231
H282	H	1.708225	0.609581	0.333103
H283	H	1.023312	0.000099	-0.144340
H284	H	1.356646	0.333432	0.188994
H285	H	1.689979	0.666766	0.522327
N286	N	0.755008	0.000057	-0.098317
N287	N	1.088341	0.333390	0.235016
N288	N	1.421674	0.666724	0.568350
H289	H	0.710726	0.000047	-0.129507
H290	H	1.044059	0.333380	0.203827
H291	H	1.377393	0.666713	0.537160
H292	H	0.752525	-0.057115	-0.065161
H293	H	1.085859	0.276219	0.268173
H294	H	1.419192	0.609552	0.601506
