data_functionalizedCrystal
_audit_creation_method	'MofGen! by Chris Wilmer'
_symmetry_space_group_name_H-M	'P1'
_symmetry_Int_Tables_number	1
_symmetry_cell_setting	triclinic
loop_
_symmetry_equiv_pos_as_xyz
  x,y,z
_cell_length_a	16.992694
_cell_length_b	16.053919
_cell_length_c	16.992695
_cell_angle_alpha	87.291003
_cell_angle_beta	90.668223
_cell_angle_gamma	87.284492
loop_
_atom_site_label
_atom_site_type_symbol
_atom_site_fract_x
_atom_site_fract_y
_atom_site_fract_z
O1	O	-1.053991	0.069324	-0.170043
O2	O	-0.553991	0.569324	0.329957
O3	O	-0.825592	0.069349	-0.168213
O4	O	-0.325592	0.569349	0.331787
O5	O	-0.938876	0.069330	-0.054928
O6	O	-0.438876	0.569330	0.445072
O7	O	-0.940708	0.069343	-0.283328
O8	O	-0.440708	0.569343	0.216672
O9	O	-0.932574	-0.069526	-0.048661
O10	O	-0.432574	0.430474	0.451339
O11	O	-0.819291	-0.069508	-0.161946
O12	O	-0.319291	0.430492	0.338054
O13	O	-1.047690	-0.069532	-0.163776
O14	O	-0.547690	0.430468	0.336224
Zn15	Zn	-0.932490	-0.091566	-0.161866
Zn16	Zn	-0.432490	0.408434	0.338134
Zn17	Zn	-0.940792	0.091383	-0.170123
Zn18	Zn	-0.440792	0.591383	0.329877
O19	O	-0.934406	-0.069513	-0.277062
O20	O	-0.434406	0.430487	0.222938
C21	C	-0.793082	-0.000076	-0.162724
C22	C	-0.293082	0.499924	0.337276
C23	C	-0.705597	-0.000067	-0.155696
C24	C	-0.205597	0.499933	0.344304
C25	C	-0.933369	-0.000098	-0.022434
C26	C	-0.433369	0.499902	0.477566
C27	C	-0.926341	-0.000097	0.065050
C28	C	-0.426341	0.499903	0.565050
N29	N	-0.926829	-0.216424	-0.156231
N30	N	-0.426829	0.283576	0.343769
C31	C	-1.080201	-0.000105	-0.169265
C32	C	-0.580201	0.499895	0.330735
C33	C	-1.167685	-0.000109	-0.176294
C34	C	-0.667685	0.499891	0.323706
C35	C	-0.659607	-0.000064	-0.223514
C36	C	-0.159607	0.499936	0.276486
C37	C	-0.577405	-0.000076	-0.216904
C38	C	-0.077405	0.499924	0.283096
C39	C	-0.541197	-0.000085	-0.142476
C40	C	-0.041197	0.499915	0.357524
C41	C	-0.587193	-0.000091	-0.074653
C42	C	-0.087193	0.499909	0.425347
C43	C	-0.669393	-0.000085	-0.081263
C44	C	-0.169393	0.499915	0.418737
C45	C	-0.295881	-0.000109	-0.115081
C46	C	0.204119	0.499891	0.384919
C47	C	-0.213676	-0.000112	-0.108476
C48	C	0.286324	0.499888	0.391524
C49	C	-0.203893	-0.000099	-0.250728
C50	C	0.296107	0.499901	0.249272
C51	C	-0.286095	-0.000088	-0.257332
C52	C	0.213905	0.499912	0.242668
C53	C	-0.332084	-0.000098	-0.189508
C54	C	0.167916	0.499902	0.310492
N55	N	-0.457174	-0.000094	-0.135719
N56	N	0.042826	0.499906	0.364281
N57	N	-0.416105	-0.000094	-0.196266
N58	N	0.083895	0.499906	0.303734
C59	C	-0.897707	-0.740046	-0.126975
C60	C	-0.397707	-0.240046	0.373025
C61	C	-0.901663	-0.652640	-0.130947
C62	C	-0.401663	-0.152640	0.369053
C63	C	-0.954368	-0.608950	-0.183701
C64	C	-0.454368	-0.108950	0.316299
C65	C	-1.003125	-0.652669	-0.232479
C66	C	-0.503125	-0.152669	0.267521
C67	C	-0.999172	-0.740073	-0.228503
C68	C	-0.499172	-0.240073	0.271497
C69	C	-0.971634	-0.347547	-0.201034
C70	C	-0.471634	0.152453	0.298966
C71	C	-0.975581	-0.260138	-0.205008
C72	C	-0.475581	0.239862	0.294992
C73	C	-0.874120	-0.260115	-0.103475
C74	C	-0.374120	0.239885	0.396525
C75	C	-0.870168	-0.347520	-0.099506
C76	C	-0.370168	0.152480	0.400494
C77	C	-0.918928	-0.391232	-0.148282
C78	C	-0.418928	0.108768	0.351718
N79	N	-0.958412	-0.519608	-0.187764
N80	N	-0.458412	-0.019608	0.312236
N81	N	-0.914888	-0.480572	-0.144214
N82	N	-0.414888	0.019428	0.355786
N83	N	-0.946459	0.216241	-0.175752
N84	N	-0.446459	0.716241	0.324248
C85	C	-0.939913	-0.000084	-0.309555
C86	C	-0.439913	0.499916	0.190445
C87	C	-0.946942	-0.000079	-0.397040
C88	C	-0.446942	0.499921	0.102960
C89	C	-0.994158	-0.000105	0.111042
C90	C	-0.494158	0.499895	0.611042
C91	C	-0.987550	-0.000096	0.193242
C92	C	-0.487550	0.499904	0.693242
C93	C	-0.913123	-0.000086	0.229450
C94	C	-0.413123	0.499914	0.729450
C95	C	-0.845300	-0.000075	0.183452
C96	C	-0.345300	0.499925	0.683452
C97	C	-0.851910	-0.000078	0.101253
C98	C	-0.351910	0.499922	0.601253
C99	C	-0.885729	-0.000071	0.474763
C100	C	-0.385729	0.499929	0.974763
C101	C	-0.879124	-0.000071	0.556969
C102	C	-0.379124	0.499929	1.056969
C103	C	-1.021375	-0.000091	0.566753
C104	C	-0.521375	0.499909	1.066753
C105	C	-1.027977	-0.000099	0.484552
C106	C	-0.527977	0.499901	0.984552
C107	C	-0.960155	-0.000083	0.438561
C108	C	-0.460155	0.499917	0.938561
N109	N	-0.906366	-0.000079	0.313472
N110	N	-0.406366	0.499921	0.813472
N111	N	-0.966913	-0.000084	0.354541
N112	N	-0.466913	0.499916	0.854541
H113	H	-0.689081	-0.000056	-0.284121
H114	H	-0.189081	0.499944	0.215879
H115	H	-0.315571	-0.000071	-0.317939
H116	H	0.184429	0.499929	0.182061
Br117	Br	-0.807950	-0.200788	-0.037281
Br118	Br	-0.307950	0.299212	0.462719
H119	H	-0.830503	-0.000059	0.437328
H120	H	-0.330503	0.499941	0.937328
H121	H	-1.046042	-0.617090	-0.275429
H122	H	-0.546042	-0.117090	0.224571
Br123	Br	-0.835473	-0.593318	-0.064771
Br124	Br	-0.335473	-0.093318	0.435229
H125	H	-1.018499	-0.224567	-0.247972
H126	H	-0.518499	0.275433	0.252028
Br127	Br	-0.514992	-0.000069	-0.308948
Br128	Br	-0.014992	0.499931	0.191052
H129	H	-1.054765	-0.000119	0.081568
H130	H	-0.554765	0.499881	0.581568
Br131	Br	-0.164535	-0.000142	-0.007459
Br132	Br	0.335465	0.499858	0.492541
H133	H	-0.796685	-0.000071	0.063808
H134	H	-0.296685	0.499929	0.563808
H135	H	-1.011337	-0.383127	-0.240751
H136	H	-0.511337	0.116873	0.259249
H137	H	-1.038872	-0.775663	-0.268222
H138	H	-0.538872	-0.275663	0.231778
Br139	Br	-0.141476	-0.000086	-0.342769
Br140	Br	0.358524	0.499914	0.157231
H141	H	-0.818513	-0.000076	0.586447
H142	H	-0.318513	0.499924	1.086447
Br143	Br	-0.744291	-0.000046	0.232590
Br144	Br	-0.244291	0.499954	0.732590
H145	H	-0.557705	-0.000110	-0.014051
H146	H	-0.057705	0.499890	0.485949
H147	H	-0.333316	-0.000118	-0.059854
H148	H	0.166684	0.499882	0.440146
Br149	Br	-1.079593	-0.000107	0.255656
Br150	Br	-0.579593	0.499893	0.755656
Br151	Br	-0.731810	-0.000096	0.010780
Br152	Br	-0.231810	0.499904	0.510780
Br153	Br	-0.826170	-0.799331	-0.055384
Br154	Br	-0.326170	-0.299331	0.444616
H155	H	-0.827251	-0.383087	-0.056548
H156	H	-0.327251	0.116913	0.443452
H157	H	-1.076592	-0.000102	0.604207
H158	H	-0.576592	0.499898	1.104207
H159	H	-1.088584	-0.000108	0.455078
H160	H	-0.588584	0.499892	0.955078
