data_functionalizedCrystal
_audit_creation_method	'MofGen! by Chris Wilmer'
_symmetry_space_group_name_H-M	'P1'
_symmetry_Int_Tables_number	1
_symmetry_cell_setting	triclinic
loop_
_symmetry_equiv_pos_as_xyz
  x,y,z
_cell_length_a	12.827893
_cell_length_b	16.120444
_cell_length_c	12.827885
_cell_angle_alpha	92.864681
_cell_angle_beta	89.980538
_cell_angle_gamma	92.926466
loop_
_atom_site_label
_atom_site_type_symbol
_atom_site_fract_x
_atom_site_fract_y
_atom_site_fract_z
Zn1	Zn	1.576498	-0.331868	-0.611901
Zn2	Zn	1.909831	0.001466	-0.278567
Zn3	Zn	2.243165	0.334799	0.054766
Zn4	Zn	1.567496	-0.471303	-0.446006
Zn5	Zn	1.900829	-0.137970	-0.112673
Zn6	Zn	2.234162	0.195363	0.220661
Zn7	Zn	1.401736	-0.331908	-0.437177
Zn8	Zn	1.735070	0.001425	-0.103844
Zn9	Zn	2.068403	0.334758	0.229490
Zn10	Zn	1.392833	-0.471241	-0.620702
Zn11	Zn	1.726166	-0.137908	-0.287369
Zn12	Zn	2.059499	0.195425	0.045965
O13	O	1.484641	-0.401580	-0.528946
O14	O	1.817974	-0.068247	-0.195613
O15	O	2.151307	0.265086	0.137720
O16	O	1.721539	-0.350373	-0.589906
O17	O	2.054873	-0.017040	-0.256573
O18	O	2.388206	0.316294	0.076761
O19	O	1.545466	-0.452855	-0.298601
O20	O	1.878799	-0.119522	0.034732
O21	O	2.212133	0.213811	0.368065
O22	O	1.432413	-0.215237	-0.452976
O23	O	1.765746	0.118096	-0.119643
O24	O	2.099079	0.451430	0.213691
O25	O	1.714925	-0.452816	-0.468024
O26	O	2.048259	-0.119483	-0.134691
O27	O	2.381592	0.213851	0.198643
O28	O	1.560809	-0.215207	-0.581345
O29	O	1.894143	0.118126	-0.248011
O30	O	2.227476	0.451459	0.085322
O31	O	1.423683	-0.350442	-0.292115
O32	O	1.757017	-0.017109	0.041219
O33	O	2.090350	0.316224	0.374552
O34	O	1.254320	-0.350382	-0.461510
O35	O	1.587653	-0.017049	-0.128177
O36	O	1.920986	0.316285	0.205156
O37	O	1.417238	-0.452710	-0.765768
O38	O	1.750571	-0.119377	-0.432435
O39	O	2.083904	0.213956	-0.099101
O40	O	1.247778	-0.452750	-0.596346
O41	O	1.581112	-0.119416	-0.263012
O42	O	1.914445	0.213917	0.070321
O43	O	1.552176	-0.350313	-0.759302
O44	O	1.885509	-0.016980	-0.425968
O45	O	2.218843	0.316354	-0.092635
O46	O	1.536832	-0.587961	-0.476558
O47	O	1.870166	-0.254628	-0.143225
O48	O	2.203499	0.078706	0.190108
O49	O	1.408508	-0.587915	-0.604907
O50	O	1.741842	-0.254582	-0.271573
O51	O	2.075175	0.078751	0.061760
C52	C	1.213132	-0.401564	-0.528926
C53	C	1.546465	-0.068231	-0.195592
C54	C	1.879798	0.265103	0.137741
C55	C	1.096978	-0.401577	-0.528943
C56	C	1.430311	-0.068244	-0.195609
C57	C	1.763644	0.265089	0.137724
C58	C	1.470756	-0.618188	-0.542669
C59	C	1.804089	-0.284855	-0.209335
C60	C	2.137422	0.048478	0.123998
C61	C	1.464911	-0.710854	-0.548574
C62	C	1.798244	-0.377521	-0.215241
C63	C	2.131578	-0.044188	0.118093
C64	C	1.041979	-0.452311	-0.595570
C65	C	1.375312	-0.118978	-0.262237
C66	C	1.708645	0.214356	0.071096
C67	C	0.921927	-0.452326	-0.595590
C68	C	1.255261	-0.118993	-0.262256
C69	C	1.588594	0.214341	0.071077
C70	C	1.515215	-0.921799	-0.498537
C71	C	1.848549	-0.588465	-0.165204
C72	C	2.181882	-0.255132	0.168129
C73	C	1.454260	-0.880510	-0.559367
C74	C	1.787593	-0.547177	-0.226033
C75	C	2.120926	-0.213844	0.107300
C76	C	1.460188	-0.786105	-0.553360
C77	C	1.793521	-0.452772	-0.220026
C78	C	2.126855	-0.119438	0.113307
C79	C	1.509288	-1.016213	-0.504543
C80	C	1.842622	-0.682879	-0.171209
C81	C	2.175955	-0.349546	0.162124
C82	C	1.757210	-0.401597	-0.528968
C83	C	2.090543	-0.068264	-0.195635
C84	C	2.423876	0.265070	0.137699
C85	C	1.873362	-0.401604	-0.528977
C86	C	2.206696	-0.068271	-0.195644
C87	C	2.540029	0.265063	0.137689
C88	C	1.484718	-0.401500	-0.801512
C89	C	1.818051	-0.068167	-0.468178
C90	C	2.151384	0.265167	-0.134845
C91	C	1.484751	-0.401466	-0.917663
C92	C	1.818084	-0.068133	-0.584329
C93	C	2.151417	0.265201	-0.250996
C94	C	1.498608	-0.184126	-0.515194
C95	C	1.831942	0.149207	-0.181860
C96	C	2.165275	0.482540	0.151473
C97	C	1.504561	-0.091460	-0.509333
C98	C	1.837894	0.241873	-0.176000
C99	C	2.171227	0.575206	0.157334
C100	C	1.424510	-0.350779	-0.966237
C101	C	1.757843	-0.017446	-0.632904
C102	C	2.091176	0.315888	-0.299570
C103	C	1.424542	-0.350742	-1.086285
C104	C	1.757876	-0.017409	-0.752952
C105	C	2.091209	0.315924	-0.419618
C106	C	1.484628	-0.401600	-0.257438
C107	C	1.817961	-0.068266	0.075896
C108	C	2.151294	0.265067	0.409229
C109	C	1.484812	-0.401399	-0.141272
C110	C	1.818146	-0.068066	0.192061
C111	C	2.151479	0.265268	0.525394
H112	H	1.083770	-0.495732	-0.652602
H113	H	1.417103	-0.162399	-0.319269
H114	H	1.750436	0.170934	0.014064
C115	C	1.567854	-0.894869	-0.319943
C116	C	1.901187	-0.561535	0.013391
C117	C	2.234521	-0.228202	0.346724
C118	C	1.591661	-0.873811	-0.422137
C119	C	1.924995	-0.540478	-0.088803
C120	C	2.258328	-0.207144	0.244530
H121	H	1.615050	-0.865238	-0.272777
H122	H	1.948383	-0.531905	0.060556
H123	H	2.281716	-0.198572	0.393890
H124	H	1.498524	-0.880714	-0.303723
H125	H	1.831858	-0.547380	0.029610
H126	H	2.165191	-0.214047	0.362943
H127	H	1.573860	-0.952935	-0.314019
H128	H	1.907194	-0.619602	0.019314
H129	H	2.240527	-0.286269	0.352648
H130	H	1.585647	-0.815745	-0.428062
H131	H	1.918981	-0.482412	-0.094729
H132	H	2.252314	-0.149078	0.238604
H133	H	1.661008	-0.887960	-0.438361
H134	H	1.994342	-0.554627	-0.105028
H135	H	2.327675	-0.221294	0.228306
H136	H	1.372907	-0.307414	-0.918948
H137	H	1.706240	0.025919	-0.585615
H138	H	2.039573	0.359253	-0.252282
H139	H	1.397622	-0.916063	-0.615955
H140	H	1.730955	-0.582730	-0.282622
H141	H	2.064288	-0.249397	0.050711
H142	H	1.536394	-0.444793	-1.099494
H143	H	1.869727	-0.111460	-0.766161
H144	H	2.203060	0.221873	-0.432827
C145	C	1.284852	-0.339208	-1.208404
C146	C	1.618185	-0.005874	-0.875071
C147	C	1.951518	0.327459	-0.541737
C148	C	1.354907	-0.292159	-1.142680
C149	C	1.688240	0.041174	-0.809346
C150	C	2.021574	0.374508	-0.476013
H151	H	1.241856	-0.303038	-1.243214
H152	H	1.575189	0.030295	-0.909881
H153	H	1.908522	0.363628	-0.576547
H154	H	1.322670	-0.370972	-1.258461
H155	H	1.656003	-0.037639	-0.925127
H156	H	1.989336	0.295695	-0.591794
H157	H	1.242506	-0.375511	-1.168105
H158	H	1.575839	-0.042178	-0.834771
H159	H	1.909173	0.291156	-0.501438
H160	H	1.397258	-0.255860	-1.182980
H161	H	1.730591	0.077474	-0.849647
H162	H	2.063925	0.410807	-0.516314
H163	H	1.317085	-0.260380	-1.092617
H164	H	1.650419	0.072953	-0.759283
H165	H	1.983752	0.406286	-0.425950
H166	H	1.536348	-0.444835	-0.964952
H167	H	1.869681	-0.111502	-0.631618
H168	H	2.203015	0.221832	-0.298285
H169	H	0.874642	-0.495763	-0.652629
H170	H	1.207975	-0.162430	-0.319296
H171	H	1.541308	0.170903	0.014037
H172	H	0.920641	-0.358170	-0.471928
H173	H	1.253975	-0.024836	-0.138595
H174	H	1.587308	0.308497	0.194738
H175	H	1.055187	-0.358150	-0.471918
H176	H	1.388521	-0.024817	-0.138585
H177	H	1.721854	0.308517	0.194748
