data_functionalizedCrystal
_audit_creation_method	'MofGen! by Chris Wilmer'
_symmetry_space_group_name_H-M	'P1'
_symmetry_Int_Tables_number	1
_symmetry_cell_setting	triclinic
loop_
_symmetry_equiv_pos_as_xyz
  x,y,z
_cell_length_a	14.971486
_cell_length_b	10.489741
_cell_length_c	14.048226
_cell_angle_alpha	89.993872
_cell_angle_beta	89.998499
_cell_angle_gamma	84.076651
loop_
_atom_site_label
_atom_site_type_symbol
_atom_site_fract_x
_atom_site_fract_y
_atom_site_fract_z
O1	O	1.187893	0.166222	-0.079050
O2	O	1.687893	0.666222	0.420950
O3	O	0.927606	0.186127	-0.079076
O4	O	1.427606	0.686127	0.420924
O5	O	1.063672	-0.009492	-0.079057
O6	O	1.563672	0.490508	0.420943
O7	O	1.051827	0.361841	-0.079070
O8	O	1.551827	0.861841	0.420930
O9	O	1.063656	-0.009503	0.079264
O10	O	1.563656	0.490497	0.579264
O11	O	0.927590	0.186116	0.079245
O12	O	1.427590	0.686116	0.579245
O13	O	1.187876	0.166211	0.079271
O14	O	1.687876	0.666211	0.579271
Zn15	Zn	1.057730	0.176161	0.104395
Zn16	Zn	1.557730	0.676161	0.604395
Zn17	Zn	1.057752	0.176177	-0.104200
Zn18	Zn	1.557752	0.676177	0.395800
O19	O	1.051810	0.361830	0.079252
O20	O	1.551810	0.861830	0.579252
C21	C	0.894268	0.185232	0.000081
C22	C	1.394268	0.685232	0.500081
C23	C	0.794956	0.182564	0.000071
C24	C	1.294956	0.682564	0.500071
C25	C	0.738385	0.297485	0.000069
C26	C	1.238385	0.797485	0.500069
C27	C	0.645071	0.294971	0.000083
C28	C	1.145071	0.794971	0.500083
C29	C	0.608330	0.177534	0.000093
C30	C	1.108330	0.677534	0.500093
C31	C	0.664909	0.062604	0.000098
C32	C	1.164909	0.562604	0.500098
C33	C	0.758221	0.065120	0.000091
C34	C	1.258221	0.565120	0.500091
C35	C	0.470416	0.057369	0.000112
C36	C	0.970416	0.557369	0.500112
C37	C	0.377098	0.054853	0.000117
C38	C	0.877098	0.554853	0.500117
C39	C	0.357267	0.287220	0.000104
C40	C	0.857267	0.787220	0.500104
C41	C	0.450579	0.289736	0.000096
C42	C	0.950579	0.789736	0.500096
C43	C	0.507151	0.174805	0.000100
C44	C	1.007151	0.674805	0.500100
C45	C	1.062769	-0.057019	0.000103
C46	C	1.562769	0.442981	0.500103
C47	C	1.060093	-0.198617	0.000101
C48	C	1.560093	0.301383	0.500101
C49	C	0.973518	-0.265755	0.000085
C50	C	1.473518	0.234245	0.500085
C51	C	1.014407	-0.358357	0.078150
C52	C	1.514407	0.141643	0.578150
C53	C	1.014444	-0.358320	-0.077942
C54	C	1.514444	0.141680	0.422058
C55	C	1.101017	-0.289354	0.078230
C56	C	1.601017	0.210646	0.578230
C57	C	1.101042	-0.289308	-0.077933
C58	C	1.601042	0.210692	0.422067
C59	C	1.141994	-0.381882	0.000151
C60	C	1.641994	0.118118	0.500151
C61	C	1.221215	0.167106	0.000111
C62	C	1.721215	0.667106	0.500111
C63	C	1.320527	0.169774	0.000115
C64	C	1.820527	0.669774	0.500115
C65	C	1.052713	0.409357	0.000090
C66	C	1.552713	0.909357	0.500090
C67	C	1.055390	0.550955	0.000085
C68	C	1.555390	1.050955	0.500085
N69	N	1.057722	0.176150	0.246755
N70	N	1.557722	0.676150	0.746755
N71	N	1.057768	0.176178	-0.246561
N72	N	1.557768	0.676178	0.253439
C73	C	1.117991	0.089566	0.296582
C74	C	1.617991	0.589566	0.796582
C75	C	1.117997	0.089565	0.396240
C76	C	1.617997	0.589565	0.896240
C77	C	1.057738	0.176156	0.446069
C78	C	1.557738	0.676156	0.946069
C79	C	0.997462	0.262744	0.396235
C80	C	1.497462	0.762744	0.896235
C81	C	0.997452	0.262738	0.296580
C82	C	1.497452	0.762738	0.796580
C83	C	0.997488	0.262754	0.603950
C84	C	1.497488	0.762754	1.103950
C85	C	0.997498	0.262762	0.703612
C86	C	1.497498	0.762762	1.203612
C87	C	1.118033	0.089581	0.703610
C88	C	1.618033	0.589581	1.203610
C89	C	1.118023	0.089574	0.603954
C90	C	1.618023	0.589574	1.103954
C91	C	1.057748	0.176165	0.554127
C92	C	1.557748	0.676165	1.054127
H93	H	0.768291	0.393115	0.000060
H94	H	1.268291	0.893115	0.500060
H95	H	0.804281	-0.028461	0.000092
H96	H	1.304281	0.471539	0.500092
F97	F	0.933360	0.354922	0.756638
F98	F	1.433360	0.854922	1.256638
H99	H	1.213239	-0.432131	0.000202
H100	H	1.713239	0.067869	0.500202
F101	F	0.625804	-0.062381	0.000115
F102	F	1.125804	0.437619	0.500115
F103	F	1.148892	-0.249275	-0.164192
F104	F	1.648892	0.250725	0.335808
F105	F	0.933302	0.354890	0.243552
F106	F	1.433302	0.854890	0.743552
H107	H	0.977808	-0.388855	-0.143946
H108	H	1.477808	0.111145	0.356054
H109	H	1.167065	0.019059	0.256018
H110	H	1.667065	0.519059	0.756018
F111	F	0.297058	0.409538	0.000102
F112	F	0.797058	0.909538	0.500102
F113	F	0.530623	-0.064953	0.000119
F114	F	1.030623	0.435047	0.500119
H115	H	1.167073	0.019061	0.436808
H116	H	1.667073	0.519061	0.936808
H117	H	0.977768	-0.388949	0.144141
H118	H	1.477768	0.111051	0.644141
H119	H	1.137610	-0.258950	0.144302
H120	H	1.637610	0.241050	0.644302
F121	F	0.584867	0.417286	0.000076
F122	F	1.084867	0.917286	0.500076
H123	H	0.902336	-0.215280	0.000157
H124	H	1.402336	0.284720	0.500157
H125	H	1.167095	0.019072	0.563383
H126	H	1.667095	0.519072	1.063383
F127	F	1.182182	-0.002573	0.756643
F128	F	1.682182	0.497427	1.256643
F129	F	0.933332	0.354911	0.550925
F130	F	1.433332	0.854911	1.050925
F131	F	0.489679	0.414724	0.000076
F132	F	0.989679	0.914724	0.500076
F133	F	0.933324	0.354896	0.449268
F134	F	1.433324	0.854896	0.949268
H135	H	0.347187	-0.040774	0.000127
H136	H	0.847187	0.459226	0.500127
