data_functionalizedCrystal
_audit_creation_method	'MofGen! by Chris Wilmer'
_symmetry_space_group_name_H-M	'P1'
_symmetry_Int_Tables_number	1
_symmetry_cell_setting	triclinic
loop_
_symmetry_equiv_pos_as_xyz
  x,y,z
_cell_length_a	12.784905
_cell_length_b	17.038274
_cell_length_c	11.295501
_cell_angle_alpha	85.676500
_cell_angle_beta	94.952437
_cell_angle_gamma	97.890448
loop_
_atom_site_label
_atom_site_type_symbol
_atom_site_fract_x
_atom_site_fract_y
_atom_site_fract_z
O1	O	1.417526	-0.009106	0.099035
O2	O	1.917526	0.490894	0.599035
O3	O	1.111081	-0.042385	0.099043
O4	O	1.611081	0.457615	0.599043
O5	O	1.262479	0.087948	0.099006
O6	O	1.762479	0.587948	0.599006
O7	O	1.266127	-0.139439	0.099071
O8	O	1.766127	0.360561	0.599071
O9	O	1.248925	0.096425	-0.099047
O10	O	1.748925	0.596425	0.400953
O11	O	1.097526	-0.033908	-0.099010
O12	O	1.597526	0.466092	0.400990
O13	O	1.403971	-0.000629	-0.099019
O14	O	1.903971	0.499371	0.400981
Cu15	Cu	1.249511	-0.016494	-0.117098
Cu16	Cu	1.749511	0.483506	0.382902
Cu17	Cu	1.265541	-0.026520	0.117122
Cu18	Cu	1.765541	0.473480	0.617122
O19	O	1.252573	-0.130962	-0.098982
O20	O	1.752573	0.369038	0.401018
C21	C	1.064900	-0.040311	0.000017
C22	C	1.564900	0.459689	0.500017
C23	C	0.947488	-0.046751	0.000018
C24	C	1.447488	0.453249	0.500018
C25	C	0.739239	0.084454	0.000002
C26	C	1.239239	0.584454	0.500002
C27	C	0.628921	0.078406	0.000003
C28	C	1.128921	0.578406	0.500003
C29	C	0.616533	-0.064892	0.000031
C30	C	1.116533	0.435108	0.500031
C31	C	0.726851	-0.058845	0.000030
C32	C	1.226851	0.441155	0.500030
C33	C	0.788200	0.015831	0.000013
C34	C	1.288200	0.515831	0.500013
C35	C	0.898520	0.021877	0.000003
C36	C	1.398520	0.521877	0.500003
C37	C	0.886130	-0.121421	0.000040
C38	C	1.386130	0.378579	0.500040
C39	C	0.775812	-0.127468	0.000041
C40	C	1.275812	0.372532	0.500041
C41	C	1.252389	0.121090	-0.000027
C42	C	1.752389	0.621090	0.499973
C43	C	1.242503	0.207214	-0.000044
C44	C	1.742503	0.707214	0.499956
C45	C	1.333252	0.263480	-0.000057
C46	C	1.833252	0.763480	0.499943
C47	C	1.323958	0.344401	-0.000063
C48	C	1.823958	0.844401	0.499937
C49	C	1.223913	0.369054	-0.000063
C50	C	1.723913	0.869054	0.499937
C51	C	1.133157	0.312780	-0.000047
C52	C	1.633157	0.812780	0.499953
C53	C	1.142453	0.231861	-0.000033
C54	C	1.642453	0.731861	0.499967
C55	C	1.191073	0.612587	-0.000097
C56	C	1.691073	1.112587	0.499903
C57	C	1.181784	0.693513	-0.000115
C58	C	1.681784	1.193513	0.499885
C59	C	1.372586	0.725129	-0.000129
C60	C	1.872586	1.225129	0.499871
C61	C	1.381872	0.644207	-0.000122
C62	C	1.881872	1.144207	0.499878
C63	C	1.291117	0.587940	-0.000099
C64	C	1.791117	1.087940	0.499901
C65	C	1.214410	0.451767	-0.000073
C66	C	1.714410	0.951767	0.499927
C67	C	1.300621	0.505228	-0.000081
C68	C	1.800621	1.005228	0.499919
C69	C	1.450152	-0.002703	0.000010
C70	C	1.950152	0.497297	0.500010
C71	C	1.567564	0.003736	0.000016
C72	C	2.067564	0.503736	0.500016
N73	N	1.238245	-0.009442	-0.281837
N74	N	1.738245	0.490558	0.218163
C75	C	1.262659	0.835898	0.000002
C76	C	1.762659	1.335898	0.500002
C77	C	1.272533	0.749780	-0.000128
C78	C	1.772533	1.249780	0.499872
C79	C	1.357910	-0.084370	-0.531105
C80	C	1.857910	0.415630	-0.031105
C81	C	1.349404	-0.079034	-0.655770
C82	C	1.849404	0.420966	-0.155770
C83	C	1.212731	0.006571	-0.655834
C84	C	1.712731	0.506571	-0.155834
C85	C	1.221237	0.001235	-0.531169
C86	C	1.721237	0.501235	-0.031169
C87	C	1.293828	-0.044238	-0.468809
C88	C	1.793828	0.455762	0.031191
C89	C	1.302329	-0.049579	-0.344142
C90	C	1.802329	0.450421	0.155858
C91	C	1.165662	0.036030	-0.344208
C92	C	1.665662	0.536030	0.155792
C93	C	1.157155	0.041367	-0.468873
C94	C	1.657155	0.541367	0.031127
N95	N	1.276815	-0.033565	0.281861
N96	N	1.776815	0.466435	0.781861
H97	H	0.926005	-0.177299	0.000043
H98	H	1.426005	0.322701	0.500043
H99	H	0.725847	-0.188266	0.000060
H100	H	1.225847	0.311734	0.500060
F101	F	0.804533	0.163928	-0.000031
F102	F	1.304533	0.663928	0.499969
H103	H	1.417008	-0.121404	-0.480330
H104	H	1.917008	0.378596	0.019670
H105	H	1.132952	0.471849	-0.000076
H106	H	1.632952	0.971849	0.499924
F107	F	1.097452	0.078740	-0.277899
F108	F	1.597452	0.578740	0.222101
F109	F	1.488356	0.617975	-0.000091
F110	F	1.988356	1.117975	0.499909
H111	H	1.414719	0.243416	-0.000064
H112	H	1.914719	0.743416	0.499936
F113	F	1.417611	-0.121746	-0.722066
F114	F	1.917611	0.378254	-0.222066
H115	H	1.397855	0.390212	-0.000076
H116	H	1.897855	0.890212	0.499924
F117	F	1.075297	0.719747	-0.000121
F118	F	1.575297	1.219747	0.499879
F119	F	1.469167	0.785017	-0.000151
F120	F	1.969167	1.285017	0.499849
H121	H	1.098057	0.078392	-0.519664
H122	H	1.598057	0.578392	-0.019664
H123	H	1.051699	0.332858	-0.000040
H124	H	1.551699	0.832858	0.499960
F125	F	0.963810	0.101353	-0.000019
F126	F	1.463810	0.601353	0.499981
H127	H	1.117173	0.566783	-0.000079
H128	H	1.617173	1.066783	0.499921
H129	H	1.068555	0.186047	-0.000022
H130	H	1.568555	0.686047	0.499978
H131	H	1.382079	0.485151	-0.000054
H132	H	1.882079	0.985151	0.499946
H133	H	0.589061	0.134286	-0.000004
H134	H	1.089061	0.634286	0.499996
F135	F	1.135483	0.054965	-0.722223
F136	F	1.635483	0.554965	-0.222223
F137	F	0.551225	-0.144361	0.000072
F138	F	1.051225	0.355639	0.500072
H139	H	1.361432	-0.086609	-0.293370
H140	H	1.861432	0.413391	0.206630
