data_functionalizedCrystal
_audit_creation_method	'MofGen! by Chris Wilmer'
_symmetry_space_group_name_H-M	'P1'
_symmetry_Int_Tables_number	1
_symmetry_cell_setting	triclinic
loop_
_symmetry_equiv_pos_as_xyz
  x,y,z
_cell_length_a	18.050591
_cell_length_b	25.639240
_cell_length_c	18.050582
_cell_angle_alpha	89.967473
_cell_angle_beta	89.978183
_cell_angle_gamma	90.028762
loop_
_atom_site_label
_atom_site_type_symbol
_atom_site_fract_x
_atom_site_fract_y
_atom_site_fract_z
Zn1	Zn	1.135276	-0.208236	-0.419984
Zn2	Zn	1.635276	0.291764	0.080016
Zn3	Zn	1.135175	-0.295665	-0.295774
Zn4	Zn	1.635175	0.204335	0.204226
Zn5	Zn	1.011093	-0.208239	-0.295795
Zn6	Zn	1.511093	0.291761	0.204205
Zn7	Zn	1.011033	-0.295636	-0.419909
Zn8	Zn	1.511033	0.204364	0.080091
O9	O	1.073144	-0.251944	-0.357865
O10	O	1.573144	0.248056	0.142135
O11	O	1.239187	-0.219844	-0.403529
O12	O	1.739187	0.280156	0.096471
O13	O	1.118698	-0.284081	-0.191852
O14	O	1.618698	0.215919	0.308148
O15	O	1.027633	-0.135074	-0.312309
O16	O	1.527633	0.364926	0.187691
O17	O	1.239113	-0.284078	-0.312273
O18	O	1.739113	0.215922	0.187727
O19	O	1.118870	-0.135071	-0.403550
O20	O	1.618870	0.364929	0.096450
O21	O	1.027535	-0.219850	-0.191867
O22	O	1.527535	0.280150	0.308133
O23	O	0.907160	-0.219822	-0.312236
O24	O	1.407160	0.280178	0.187764
O25	O	1.027531	-0.284029	-0.523844
O26	O	1.527531	0.215971	-0.023844
O27	O	0.907116	-0.284032	-0.403423
O28	O	1.407116	0.215968	0.096577
O29	O	1.118812	-0.219817	-0.523898
O30	O	1.618812	0.280183	-0.023898
O31	O	1.118640	-0.368826	-0.312200
O32	O	1.618640	0.131174	0.187800
O33	O	1.027433	-0.368805	-0.403402
O34	O	1.527433	0.131195	0.096598
C35	C	0.880192	-0.251925	-0.357824
C36	C	1.380192	0.248075	0.142176
C37	C	0.797646	-0.251929	-0.357824
C38	C	1.297646	0.248071	0.142176
C39	C	1.073039	-0.387787	-0.357807
C40	C	1.573039	0.112213	0.142193
C41	C	1.073062	-0.445901	-0.357807
C42	C	1.573062	0.054099	0.142193
C43	C	0.598198	-0.216971	-0.308351
C44	C	1.098198	0.283029	0.191649
C45	C	0.548773	-0.264659	-0.290064
C46	C	1.048773	0.235341	0.209936
C47	C	0.646516	-0.251945	-0.357858
C48	C	1.146516	0.248055	0.142142
C49	C	0.548859	-0.204274	-0.376143
C50	C	1.048859	0.295726	0.123857
C51	C	0.500531	-0.251956	-0.357889
C52	C	1.000531	0.248044	0.142111
C53	C	0.598178	-0.299658	-0.339535
C54	C	1.098178	0.200342	0.160465
C55	C	0.598269	-0.239240	-0.425646
C56	C	1.098269	0.260760	0.074354
C57	C	0.548866	-0.286961	-0.407384
C58	C	1.048866	0.213039	0.092616
C59	C	0.730614	-0.251938	-0.357838
C60	C	1.230614	0.248062	0.142162
C61	C	0.416434	-0.251968	-0.357909
C62	C	0.916434	0.248032	0.142091
C63	C	1.120674	-0.806224	-0.405460
C64	C	1.620674	-0.306224	0.094540
C65	C	1.120696	-0.860828	-0.405475
C66	C	1.620696	-0.360828	0.094525
O67	O	1.161053	-0.889031	-0.445932
O68	O	1.661053	-0.389031	0.054068
N69	N	1.073247	-0.888183	-0.357937
N70	N	1.573247	-0.388183	0.142063
C71	C	1.025767	-0.860931	-0.310386
C72	C	1.525767	-0.360931	0.189614
O73	O	0.985410	-0.889212	-0.269953
O74	O	1.485410	-0.389212	0.230047
C75	C	1.025742	-0.806327	-0.310375
C76	C	1.525742	-0.306327	0.189625
C77	C	1.073200	-0.778976	-0.357911
C78	C	1.573200	-0.278976	0.142089
C79	C	1.168128	-0.778872	-0.452993
C80	C	1.668128	-0.278872	0.047007
C81	C	1.168107	-0.724272	-0.452977
C82	C	1.668107	-0.224272	0.047023
C83	C	1.120632	-0.697023	-0.405428
C84	C	1.620632	-0.197023	0.094572
C85	C	1.073179	-0.724375	-0.357895
C86	C	1.573179	-0.224375	0.142105
C87	C	0.978260	-0.779076	-0.262828
C88	C	1.478260	-0.279076	0.237172
C89	C	0.978238	-0.724469	-0.262822
C90	C	1.478238	-0.224469	0.237178
C91	C	1.025696	-0.697117	-0.310358
C92	C	1.525696	-0.197117	0.189642
C93	C	1.025683	-0.642526	-0.310330
C94	C	1.525683	-0.142526	0.189670
N95	N	1.073133	-0.615171	-0.357868
N96	N	1.573133	-0.115171	0.142132
C97	C	1.120607	-0.642420	-0.405417
C98	C	1.620607	-0.142420	0.094583
C99	C	1.025823	-0.975601	-0.310413
C100	C	1.525823	-0.475601	0.189587
C101	C	1.025851	-1.030204	-0.310420
C102	C	1.525851	-0.530204	0.189580
C103	C	1.120779	-1.030098	-0.405510
C104	C	1.620779	-0.530098	0.094490
C105	C	1.120754	-0.975494	-0.405499
C106	C	1.620754	-0.475494	0.094501
C107	C	1.073272	-0.948247	-0.357951
C108	C	1.573272	-0.448247	0.142049
C109	C	1.120560	-0.527755	-0.405379
C110	C	1.620560	-0.027755	0.094621
C111	C	1.120537	-0.473149	-0.405356
C112	C	1.620537	0.026851	0.094644
C113	C	1.025606	-0.473260	-0.310269
C114	C	1.525606	0.026740	0.189731
C115	C	1.025632	-0.527861	-0.310288
C116	C	1.525632	-0.027861	0.189712
C117	C	1.073111	-0.555107	-0.357849
C118	C	1.573111	-0.055107	0.142151
O119	O	0.985345	-0.614288	-0.269896
O120	O	1.485345	-0.114288	0.230104
O121	O	1.160951	-0.614132	-0.445850
O122	O	1.660951	-0.114132	0.054150
C123	C	1.266850	-0.251964	-0.357907
C124	C	1.766850	0.248036	0.142093
C125	C	1.349395	-0.251973	-0.357925
C126	C	1.849395	0.248027	0.142075
C127	C	1.073176	-0.251919	-0.551571
C128	C	1.573176	0.248081	-0.051571
C129	C	1.073190	-0.251909	-0.634117
C130	C	1.573190	0.248091	-0.134117
C131	C	1.073270	-0.115571	-0.357940
C132	C	1.573270	0.384429	0.142060
C133	C	1.073323	-0.057457	-0.357972
C134	C	1.573323	0.442543	0.142028
C135	C	1.023598	-0.286770	-0.882913
C136	C	1.523598	0.213230	-0.382913
C137	C	1.005463	-0.239081	-0.833534
C138	C	1.505463	0.260919	-0.333534
C139	C	1.073253	-0.251832	-0.931237
C140	C	1.573253	0.248168	-0.431237
C141	C	1.091321	-0.299556	-0.833534
C142	C	1.591321	0.200444	-0.333534
C143	C	1.073220	-0.251872	-0.785252
C144	C	1.573220	0.248128	-0.285252
C145	C	1.055083	-0.204117	-0.882946
C146	C	1.555083	0.295883	-0.382946
C147	C	1.140973	-0.264624	-0.882951
C148	C	1.640973	0.235376	-0.382951
C149	C	1.122864	-0.216902	-0.833594
C150	C	1.622864	0.283098	-0.333594
C151	C	1.073270	-0.251809	-1.015336
C152	C	1.573270	0.248191	-0.515336
C153	C	1.073203	-0.251889	-0.701156
C154	C	1.573203	0.248111	-0.201156
C155	C	1.073155	-0.251931	-0.164913
C156	C	1.573155	0.248069	0.335087
C157	C	1.073285	-0.251794	-0.082368
C158	C	1.573285	0.248206	0.417632
H159	H	0.619858	-0.187426	-0.266440
H160	H	1.119858	0.312574	0.233560
F161	F	0.975084	-0.444251	-0.259665
F162	F	1.475084	0.055749	0.240335
H163	H	0.527342	-0.316576	-0.449263
H164	H	1.027342	0.183424	0.050737
F165	F	1.171093	-0.556744	-0.455998
F166	F	1.671093	-0.056744	0.044002
H167	H	1.198240	-0.275445	-0.904673
H168	H	1.698240	0.224555	-0.404673
H169	H	1.206787	-0.801052	-0.491717
H170	H	1.706787	-0.301052	0.008283
F171	F	1.111311	-0.352287	-0.805158
F172	F	1.611311	0.147713	-0.305158
F173	F	1.171305	-1.059107	-0.456117
F174	F	1.671305	-0.559107	0.043883
F175	F	1.177733	-0.178262	-0.805466
F176	F	1.677733	0.321738	-0.305466
H177	H	1.206749	-0.702005	-0.491687
H178	H	1.706749	-0.202005	0.008313
F179	F	1.171264	-0.946389	-0.456094
F180	F	1.671264	-0.446389	0.043906
F181	F	0.975287	-0.946607	-0.259798
F182	F	1.475287	-0.446607	0.240202
F183	F	0.520355	-0.278715	-0.215153
F184	F	1.020355	0.221285	0.284847
F185	F	0.626373	-0.352374	-0.319251
F186	F	1.126373	0.147626	0.180749
H187	H	0.620027	-0.228472	-0.482942
H188	H	1.120027	0.271528	0.017058
F189	F	0.975131	-0.556972	-0.259686
F190	F	1.475131	-0.056972	0.240314
F191	F	0.520538	-0.151574	-0.396340
F192	F	1.020538	0.348426	0.103660
H193	H	1.159185	-0.450881	-0.444065
H194	H	1.659185	0.049119	0.055935
H195	H	0.939615	-0.801337	-0.224119
H196	H	1.439615	-0.301337	0.275881
F197	F	0.927699	-0.695473	-0.212214
F198	F	1.427699	-0.195473	0.287786
F199	F	0.975350	-1.059308	-0.259816
F200	F	1.475350	-0.559308	0.240184
F201	F	0.968691	-0.325319	-0.911222
F202	F	1.468691	0.174681	-0.411222
F203	F	0.930590	-0.224955	-0.805163
F204	F	1.430590	0.275045	-0.305163
F205	F	1.035003	-0.151370	-0.911193
F206	F	1.535003	0.348630	-0.411193
