data_functionalizedCrystal
_audit_creation_method	'MofGen! by Chris Wilmer'
_symmetry_space_group_name_H-M	'P1'
_symmetry_Int_Tables_number	1
_symmetry_cell_setting	triclinic
loop_
_symmetry_equiv_pos_as_xyz
  x,y,z
_cell_length_a	16.109301
_cell_length_b	16.109304
_cell_length_c	15.186229
_cell_angle_alpha	89.999066
_cell_angle_beta	89.999362
_cell_angle_gamma	83.462059
loop_
_atom_site_label
_atom_site_type_symbol
_atom_site_fract_x
_atom_site_fract_y
_atom_site_fract_z
O1	O	1.103132	0.106866	-0.073167
O2	O	1.603132	0.606866	0.426833
O3	O	0.861070	0.120165	-0.073181
O4	O	1.361070	0.620165	0.426819
O5	O	0.988749	-0.007515	-0.073174
O6	O	1.488749	0.492485	0.426826
O7	O	0.975452	0.234546	-0.073174
O8	O	1.475452	0.734546	0.426826
O9	O	0.988741	-0.007517	0.073283
O10	O	1.488741	0.492483	0.573283
O11	O	0.861061	0.120163	0.073277
O12	O	1.361061	0.620163	0.573277
O13	O	1.103123	0.106864	0.073290
O14	O	1.603123	0.606864	0.573290
Zn15	Zn	0.982091	0.113513	0.096537
Zn16	Zn	1.482091	0.613513	0.596537
Zn17	Zn	0.982102	0.113516	-0.096427
Zn18	Zn	1.482102	0.613516	0.403573
O19	O	0.975444	0.234545	0.073283
O20	O	1.475444	0.734545	0.573283
C21	C	0.830091	0.119626	0.000046
C22	C	1.330091	0.619626	0.500046
C23	C	0.737795	0.118010	0.000041
C24	C	1.237795	0.618010	0.500041
C25	C	0.988206	-0.038491	0.000052
C26	C	1.488206	0.461509	0.500052
C27	C	0.986590	-0.130786	0.000046
C28	C	1.486590	0.369214	0.500046
C29	C	0.515524	0.190018	0.000051
C30	C	1.015524	0.690018	0.500051
C31	C	0.428803	0.188494	0.000057
C32	C	0.928803	0.688494	0.500057
C33	C	0.448676	0.037005	0.000053
C34	C	0.948676	0.537005	0.500053
C35	C	0.535395	0.038530	0.000054
C36	C	1.035395	0.538530	0.500054
C37	C	0.568816	0.115039	0.000048
C38	C	1.068816	0.615039	0.500048
C39	C	0.395377	0.111990	0.000053
C40	C	0.895377	0.611990	0.500053
C41	C	0.301351	0.110337	0.000059
C42	C	0.801351	0.610337	0.500059
C43	C	0.662848	0.116693	0.000044
C44	C	1.162848	0.616693	0.500044
C45	C	0.982861	-0.343123	-0.079784
C46	C	1.482861	0.156877	0.420216
C47	C	0.981335	-0.429843	-0.079784
C48	C	1.481335	0.070157	0.420216
C49	C	0.981330	-0.429842	0.079892
C50	C	1.481330	0.070158	0.579892
C51	C	0.982850	-0.343122	0.079890
C52	C	1.482850	0.156878	0.579890
C53	C	0.983620	-0.299766	0.000050
C54	C	1.483620	0.200234	0.500050
C55	C	0.980573	-0.473205	0.000052
C56	C	1.480573	0.026795	0.500052
C57	C	0.978919	-0.567231	0.000053
C58	C	1.478919	-0.067231	0.500053
C59	C	0.985273	-0.205734	0.000048
C60	C	1.485273	0.294266	0.500048
C61	C	1.134102	0.107404	0.000061
C62	C	1.634102	0.607404	0.500061
C63	C	1.226398	0.109019	0.000061
C64	C	1.726398	0.609019	0.500061
C65	C	0.975987	0.265520	0.000055
C66	C	1.475987	0.765520	0.500055
C67	C	0.977603	0.357816	0.000055
C68	C	1.477603	0.857816	0.500055
N69	N	0.982089	0.113511	0.228229
N70	N	1.482089	0.613511	0.728229
N71	N	0.982110	0.113511	-0.228120
N72	N	1.482110	0.613511	0.271880
C73	C	1.038645	0.056993	0.453955
C74	C	1.538645	0.556993	0.953955
C75	C	1.038648	0.056991	0.546145
C76	C	1.538648	0.556991	1.046145
C77	C	0.925549	0.170032	0.546148
C78	C	1.425549	0.670032	1.046148
C79	C	0.925543	0.170029	0.453960
C80	C	1.425543	0.670029	0.953960
C81	C	0.982096	0.113511	0.407866
C82	C	1.482096	0.613511	0.907866
C83	C	0.982104	0.113512	0.592243
C84	C	1.482104	0.613512	1.092243
C85	C	0.982107	0.113510	0.692200
C86	C	1.482107	0.613510	1.192200
C87	C	0.982092	0.113511	0.307903
C88	C	1.482092	0.613511	0.807903
H89	H	0.542732	0.252316	0.000053
H90	H	1.042732	0.752316	0.500053
O91	O	0.980628	-0.472095	0.157367
O92	O	1.480628	0.027905	0.657367
C93	C	0.979108	-0.557931	0.140251
C94	C	1.479108	-0.057931	0.640251
H95	H	1.005203	-0.573223	0.071637
H96	H	1.505203	-0.073223	0.571637
H97	H	1.018875	-0.596177	0.191237
H98	H	1.518875	-0.096177	0.691237
H99	H	0.912018	-0.573804	0.144041
H100	H	1.412018	-0.073804	0.644041
O101	O	0.983621	-0.301133	0.157525
O102	O	1.483621	0.198867	0.657525
C103	C	0.982601	-0.357992	0.227995
C104	C	1.482601	0.142008	0.727995
H105	H	1.007827	-0.423259	0.204597
H106	H	1.507827	0.076741	0.704597
H107	H	1.023376	-0.338221	0.283832
H108	H	1.523376	0.161779	0.783832
H109	H	0.915778	-0.358475	0.252540
H110	H	1.415778	0.141525	0.752540
H111	H	1.084693	0.010972	0.416427
H112	H	1.584693	0.510972	0.916427
H113	H	0.879506	0.216049	0.583687
H114	H	1.379506	0.716049	1.083687
O115	O	0.377154	0.261406	0.000018
O116	O	0.877154	0.761406	0.500018
C117	C	0.425252	0.329256	0.000037
C118	C	0.925252	0.829256	0.500037
H119	H	0.489981	0.308137	-0.027693
H120	H	0.989981	0.808137	0.472307
H121	H	0.393248	0.381791	-0.042483
H122	H	0.893248	0.881791	0.457517
H123	H	0.431422	0.352707	0.070299
H124	H	0.931422	0.852707	0.570299
O125	O	0.416070	-0.037239	0.000012
O126	O	0.916070	0.462761	0.500012
C127	C	0.328102	-0.022509	0.000032
C128	C	0.828102	0.477491	0.500032
H129	H	0.307719	0.042379	-0.027693
H130	H	0.807719	0.542379	0.472307
H131	H	0.301492	-0.071459	-0.042492
H132	H	0.801492	0.428541	0.457508
H133	H	0.303962	-0.026536	0.070294
H134	H	0.803962	0.473464	0.570294
O135	O	0.983622	-0.300878	-0.157259
O136	O	1.483622	0.199122	0.342741
C137	C	0.985096	-0.215035	-0.140146
C138	C	1.485096	0.284965	0.359854
H139	H	1.011628	-0.206637	-0.071543
H140	H	1.511628	0.293363	0.428457
H141	H	1.025993	-0.187359	-0.191149
H142	H	1.525993	0.312641	0.308851
H143	H	0.918862	-0.181696	-0.143909
H144	H	1.418862	0.318304	0.356091
H145	H	0.980715	-0.465140	-0.144792
H146	H	1.480715	0.034860	0.355208
O147	O	0.587051	-0.034386	0.000011
O148	O	1.087051	0.465614	0.500011
C149	C	0.538959	-0.102241	0.000030
C150	C	1.038959	0.397759	0.500030
H151	H	0.474230	-0.081127	-0.027699
H152	H	0.974230	0.418873	0.472301
H153	H	0.570969	-0.154772	-0.042491
H154	H	1.070969	0.345228	0.457509
H155	H	0.532791	-0.125695	0.070292
H156	H	1.032791	0.374305	0.570292
O157	O	1.093662	0.002061	0.590779
O158	O	1.593662	0.502061	1.090779
C159	C	1.143556	-0.047836	0.530323
C160	C	1.643556	0.452164	1.030323
H161	H	1.144481	-0.013747	0.464608
H162	H	1.644481	0.486253	0.964608
H163	H	1.209955	-0.060500	0.556954
H164	H	1.709955	0.439500	1.056954
H165	H	1.116581	-0.109607	0.520520
H166	H	1.616581	0.390393	1.020520
O167	O	0.870576	0.225015	0.409320
O168	O	1.370576	0.725015	0.909320
C169	C	0.820654	0.274891	0.469769
C170	C	1.320654	0.774891	0.969769
H171	H	0.854741	0.275846	0.535482
H172	H	1.354741	0.775846	1.035482
H173	H	0.807949	0.341282	0.443126
H174	H	1.307949	0.841282	0.943126
H175	H	0.758903	0.247877	0.479581
H176	H	1.258903	0.747877	0.979581
