data_functionalizedCrystal
_audit_creation_method	'MofGen! by Chris Wilmer'
_symmetry_space_group_name_H-M	'P1'
_symmetry_Int_Tables_number	1
_symmetry_cell_setting	triclinic
loop_
_symmetry_equiv_pos_as_xyz
  x,y,z
_cell_length_a	11.169417
_cell_length_b	12.759400
_cell_length_c	12.759393
_cell_angle_alpha	90.030771
_cell_angle_beta	90.018548
_cell_angle_gamma	90.015563
loop_
_atom_site_label
_atom_site_type_symbol
_atom_site_fract_x
_atom_site_fract_y
_atom_site_fract_z
Zn1	Zn	1.834911	-0.418188	0.593977
Zn2	Zn	1.834790	-0.593904	0.418297
Zn3	Zn	1.634201	-0.418243	0.418317
Zn4	Zn	1.634189	-0.593828	0.593939
O5	O	1.734523	-0.506041	0.506132
O6	O	2.002845	-0.441506	0.570680
O7	O	1.808135	-0.570657	0.271279
O8	O	1.660882	-0.271214	0.441643
O9	O	2.002755	-0.570604	0.441609
O10	O	1.808342	-0.271174	0.570699
O11	O	1.660764	-0.441599	0.271293
O12	O	1.466250	-0.441526	0.441606
O13	O	1.660861	-0.570474	0.740965
O14	O	1.466241	-0.570527	0.570635
O15	O	1.808330	-0.441432	0.740993
O16	O	1.808124	-0.740915	0.441572
O17	O	1.660743	-0.740859	0.570616
C18	C	1.422698	-0.506025	0.506119
C19	C	1.289298	-0.506043	0.506138
C20	C	1.734452	-0.779008	0.506111
C21	C	1.734531	-0.895785	0.506136
C22	C	1.811357	-0.950641	0.439018
C23	C	1.811431	-1.060365	0.439050
C24	C	1.657842	-1.060367	0.573323
C25	C	1.657775	-0.950645	0.573295
C26	C	1.888113	-0.895781	0.371859
C27	C	1.964944	-0.950637	0.304734
C28	C	1.965018	-1.060361	0.304767
C29	C	1.888260	-1.115229	0.371924
C30	C	2.047565	-0.506058	0.506147
C31	C	2.180965	-0.506065	0.506153
C32	C	1.734608	-0.505939	0.780166
C33	C	1.734644	-0.505895	0.896943
C34	C	1.734627	-0.232007	0.506177
C35	C	1.734671	-0.115231	0.506197
C36	C	1.734507	-0.506067	0.233165
C37	C	1.734703	-0.505814	0.116389
C38	C	1.657958	-0.438644	1.061537
C39	C	1.657932	-0.438681	0.951812
C40	C	1.811397	-0.573068	0.951803
C41	C	1.811429	-0.573025	1.061525
C42	C	1.581232	-0.371433	1.116401
C43	C	1.504480	-0.304258	1.061548
C44	C	1.504453	-0.304296	0.951824
C45	C	1.581178	-0.371508	0.896952
H46	H	1.888058	-0.806438	0.371822
O47	O	1.429994	-0.239070	1.115008
C48	C	1.446491	-0.253421	1.223615
H49	H	1.485774	-0.334496	1.238589
H50	H	1.510431	-0.191093	1.254771
C51	C	1.276824	-0.144193	1.261543
C52	C	1.325063	-0.243775	1.279936
H53	H	1.201924	-0.138238	1.296287
H54	H	1.265712	-0.134521	1.188373
H55	H	1.330120	-0.092264	1.287507
H56	H	1.271775	-0.295700	1.253961
H57	H	1.336163	-0.253455	1.353103
H58	H	1.581244	-0.371397	1.205744
O59	O	1.583317	-1.113825	0.638450
C60	C	1.599870	-1.222431	0.624099
H61	H	1.639237	-1.237450	0.543052
H62	H	1.663764	-1.253476	0.686472
C63	C	1.430114	-1.260396	0.733189
C64	C	1.478455	-1.278843	0.633643
H65	H	1.355222	-1.295196	0.739081
H66	H	1.418964	-1.187226	0.742862
H67	H	1.483370	-1.286267	0.785156
H68	H	1.425207	-1.252961	0.581679
H69	H	1.489594	-1.352011	0.623962
O70	O	1.583042	-0.897513	0.638532
C71	C	1.515328	-0.969459	0.697830
H72	H	1.511226	-1.047708	0.654812
H73	H	1.559253	-0.981041	0.777651
C74	C	1.392605	-0.830595	0.765724
C75	C	1.387558	-0.926700	0.712884
H76	H	1.313792	-0.804219	0.775015
H77	H	1.438227	-0.782123	0.725777
H78	H	1.429214	-0.840260	0.832236
H79	H	1.350964	-0.917032	0.646369
H80	H	1.341927	-0.975170	0.752820
H81	H	1.441967	-0.249591	0.907166
O82	O	1.885802	-0.638327	0.898341
C83	C	1.869336	-0.623944	0.789735
H84	H	1.776723	-0.589533	0.774752
H85	H	1.940538	-0.568013	0.758608
C86	C	1.994020	-0.772532	0.751790
C87	C	1.880267	-0.730277	0.733387
H88	H	2.000768	-0.838121	0.717030
H89	H	2.005118	-0.782220	0.824960
H90	H	2.053342	-0.725913	0.725850
H91	H	1.820949	-0.776889	0.759338
H92	H	1.869159	-0.720599	0.660220
H93	H	1.581158	-0.371526	0.807608
H94	H	1.888336	-1.204574	0.371953
O95	O	1.886140	-0.638224	1.114702
C96	C	2.005762	-0.615264	1.087927
H97	H	2.008248	-0.574914	1.008264
H98	H	2.046219	-0.561221	1.149688
C99	C	2.075369	-0.767251	1.180702
C100	C	2.078423	-0.717700	1.082855
H101	H	2.120192	-0.830437	1.177578
H102	H	1.994778	-0.782718	1.198745
H103	H	2.109081	-0.722204	1.232160
H104	H	2.044698	-0.762741	1.031402
H105	H	2.159010	-0.702243	1.064803
O106	O	2.039675	-0.897392	0.239614
C107	C	2.159297	-0.924114	0.262650
H108	H	2.165330	-0.954199	0.346597
H109	H	2.190741	-0.987829	0.206366
C110	C	2.231927	-0.789645	0.147344
C111	C	2.239339	-0.826588	0.250451
H112	H	2.281303	-0.729488	0.139814
H113	H	2.151336	-0.771644	0.131820
H114	H	2.258129	-0.842750	0.100452
H115	H	2.213124	-0.773488	0.297340
H116	H	2.319928	-0.844578	0.265982
O117	O	2.039680	-1.113813	0.239728
C118	C	2.023305	-1.222421	0.254166
H119	H	1.983871	-1.237350	0.335192
H120	H	1.959539	-1.253708	0.191765
C121	C	2.193255	-1.260290	0.145261
C122	C	2.144831	-1.278628	0.244782
H123	H	2.268216	-1.294963	0.139468
H124	H	2.204285	-1.187119	0.135530
H125	H	2.140105	-1.286363	0.093271
H126	H	2.197973	-1.252543	0.296768
H127	H	2.133812	-1.351796	0.254521
