data_functionalizedCrystal
_audit_creation_method	'MofGen! by Chris Wilmer'
_symmetry_space_group_name_H-M	'P1'
_symmetry_Int_Tables_number	1
_symmetry_cell_setting	triclinic
loop_
_symmetry_equiv_pos_as_xyz
  x,y,z
_cell_length_a	19.188930
_cell_length_b	14.971486
_cell_length_c	14.048226
_cell_angle_alpha	89.995336
_cell_angle_beta	89.988446
_cell_angle_gamma	83.379455
loop_
_atom_site_label
_atom_site_type_symbol
_atom_site_fract_x
_atom_site_fract_y
_atom_site_fract_z
O1	O	0.090988	1.186466	-0.079132
O2	O	0.101884	0.926009	-0.079144
O3	O	-0.005196	1.063754	-0.079119
O4	O	0.198067	1.048721	-0.079157
O5	O	-0.005202	1.063737	0.079202
O6	O	0.101878	0.925992	0.079177
O7	O	0.090982	1.186450	0.079189
Zn8	Zn	0.096429	1.056218	0.104320
Zn9	Zn	0.096437	1.056240	-0.104275
O10	O	0.198061	1.048705	0.079164
C11	C	0.101393	0.892678	0.000015
C12	C	0.099933	0.793389	0.000012
C13	C	-0.031211	1.063259	0.000044
C14	C	-0.108721	1.061797	0.000052
C15	C	0.091472	1.219780	0.000028
C16	C	0.092932	1.319070	0.000025
C17	C	-0.153384	1.142622	0.000061
C18	C	-0.226213	1.141249	0.000045
C19	C	-0.254374	1.059047	0.000041
C20	C	-0.209700	0.978212	0.000027
C21	C	-0.136873	0.979587	0.000033
N22	N	-0.362583	0.996208	0.053918
N23	N	-0.431766	0.994907	0.053914
C24	C	-0.473796	1.054899	0.000021
N25	N	-0.444031	1.116254	-0.053856
N26	N	-0.374842	1.117558	-0.053848
C27	C	-0.333341	1.057547	0.000034
C28	C	-0.597429	1.134240	0.000012
C29	C	-0.670258	1.132864	-0.000009
C30	C	-0.653744	0.969825	-0.000018
C31	C	-0.580916	0.971203	-0.000006
C32	C	-0.552763	1.053413	0.000013
C33	C	0.224077	1.049200	-0.000001
C34	C	0.301586	1.050661	-0.000015
N35	N	0.096422	1.056210	0.246681
C36	C	0.030026	1.376627	0.000034
C37	C	0.031402	1.469919	0.000037
C38	C	0.095685	1.505652	0.000025
C39	C	0.158597	1.448087	0.000019
C40	C	0.157220	1.354797	0.000023
C41	C	0.161462	1.642535	0.000009
C42	C	0.162839	1.735831	0.000003
C43	C	0.035645	1.757657	0.000023
C44	C	0.034268	1.664367	0.000027
C45	C	0.097179	1.606808	0.000019
N46	N	0.096437	1.056256	-0.246636
C47	C	0.049027	1.117223	0.296510
C48	C	0.049027	1.117229	0.396168
C49	C	0.096426	1.056226	0.445994
C50	C	0.143823	0.995207	0.396158
C51	C	0.143819	0.995197	0.296503
C52	C	0.143828	0.995233	0.603873
C53	C	0.143833	0.995243	0.703535
C54	C	0.049035	1.117264	0.703538
C55	C	0.049032	1.117255	0.603882
C56	C	0.096430	1.056236	0.554053
H57	H	-0.130467	1.209564	0.000073
C58	C	-0.275352	1.230159	0.000061
H59	H	-0.248154	1.279316	0.000079
H60	H	-0.304098	1.233023	-0.055148
H61	H	-0.304110	1.232994	0.055280
H62	H	0.010434	1.166909	0.436738
H63	H	0.010433	1.166902	0.255948
H64	H	-0.100507	0.913768	0.000027
C65	C	-0.003106	1.184355	0.549074
H66	H	-0.031339	1.220691	0.593021
H67	H	0.022058	1.221480	0.510179
H68	H	-0.032214	1.152284	0.510218
C69	C	0.195925	0.928085	0.758343
H70	H	0.224135	0.891719	0.714396
H71	H	0.225052	0.960091	0.797233
H72	H	0.170711	0.890984	0.797205
H73	H	-0.018077	1.635277	0.000030
H74	H	0.212691	1.595672	0.000010
H75	H	0.010442	1.166947	0.744114
C76	C	-0.033557	1.820967	0.000035
H77	H	-0.023532	1.881645	0.000042
H78	H	-0.059908	1.810166	-0.055172
H79	H	-0.059916	1.810158	0.055255
H80	H	0.182423	0.945542	0.563305
C81	C	0.195941	0.928077	0.450961
H82	H	0.224157	0.891725	0.407008
H83	H	0.225058	0.960110	0.489835
H84	H	0.170752	0.890958	0.489837
H85	H	0.210937	1.477188	0.000015
H86	H	-0.022321	1.347542	0.000038
H87	H	0.182413	0.945513	0.255933
H88	H	0.208444	1.307933	0.000019
H89	H	-0.706623	1.198683	-0.000008
H90	H	-0.232634	0.911283	0.000022
H91	H	0.215184	1.764921	0.000012
H92	H	-0.676672	0.902894	-0.000026
C93	C	-0.566457	1.224665	0.000022
H94	H	-0.603491	1.272607	0.000011
H95	H	-0.538403	1.228586	0.055237
H96	H	-0.538379	1.228594	-0.055191
C97	C	-0.037795	1.533229	0.000045
H98	H	-0.076276	1.498587	0.000041
H99	H	-0.039907	1.570072	0.055255
H100	H	-0.039897	1.570078	-0.055172
H101	H	-0.544550	0.905387	-0.000008
