data_functionalizedCrystal
_audit_creation_method	'MofGen! by Chris Wilmer'
_symmetry_space_group_name_H-M	'P1'
_symmetry_Int_Tables_number	1
_symmetry_cell_setting	triclinic
loop_
_symmetry_equiv_pos_as_xyz
  x,y,z
_cell_length_a	15.995292
_cell_length_b	17.038272
_cell_length_c	15.500227
_cell_angle_alpha	86.966746
_cell_angle_beta	92.845027
_cell_angle_gamma	87.290086
loop_
_atom_site_label
_atom_site_type_symbol
_atom_site_fract_x
_atom_site_fract_y
_atom_site_fract_z
O1	O	1.121817	0.096930	0.071969
O2	O	1.621817	0.596930	0.571969
O3	O	0.878925	0.109422	0.071965
O4	O	1.378925	0.609422	0.571965
O5	O	0.998927	-0.010639	0.071960
O6	O	1.498927	0.489361	0.571960
O7	O	1.001815	0.216991	0.071974
O8	O	1.501815	0.716991	0.571974
O9	O	0.991643	-0.003382	-0.071928
O10	O	1.491643	0.496618	0.428072
O11	O	0.871641	0.116679	-0.071923
O12	O	1.371641	0.616679	0.428077
O13	O	1.114533	0.104187	-0.071920
O14	O	1.614533	0.604187	0.428080
Cu15	Cu	0.992422	0.111096	-0.085059
Cu16	Cu	1.492422	0.611096	0.414941
Cu17	Cu	1.001036	0.102513	0.085105
Cu18	Cu	1.501036	0.602513	0.585105
O19	O	0.994531	0.224248	-0.071914
O20	O	1.494531	0.724248	0.428086
C21	C	0.844051	0.112542	0.000021
C22	C	1.344051	0.612542	0.500021
C23	C	0.750989	0.111018	0.000019
C24	C	1.250989	0.611018	0.500019
C25	C	0.412852	0.105414	0.000029
C26	C	0.912852	0.605414	0.500029
C27	C	0.442354	0.192055	0.000355
C28	C	0.942354	0.692055	0.500355
C29	C	0.539130	0.193718	0.000027
C30	C	1.039130	0.693718	0.500027
C31	C	0.580606	0.108195	0.000025
C32	C	1.080606	0.608195	0.500025
C33	C	0.544258	0.069014	-0.082142
C34	C	1.044258	0.569014	0.417858
C35	C	0.447390	0.067974	-0.082208
C36	C	0.947390	0.567974	0.417792
C37	C	0.455692	0.057952	0.081420
C38	C	0.955692	0.557952	0.581420
C39	C	0.552468	0.061109	0.082503
C40	C	1.052468	0.561109	0.582503
C41	C	0.675413	0.109762	0.000019
C42	C	1.175413	0.609762	0.500019
C43	C	0.318044	0.103844	0.000028
C44	C	0.818044	0.603844	0.500028
C45	C	0.992659	-0.036139	0.000016
C46	C	1.492659	0.463861	0.500016
C47	C	0.984824	-0.122932	0.000016
C48	C	1.484824	0.377068	0.500016
C49	C	1.056754	-0.173043	0.000016
C50	C	1.556754	0.326957	0.500016
C51	C	1.049388	-0.254594	0.000024
C52	C	1.549388	0.245406	0.500024
C53	C	0.970092	-0.286033	0.000026
C54	C	1.470092	0.213967	0.500026
C55	C	0.898157	-0.235916	0.000029
C56	C	1.398157	0.264084	0.500029
C57	C	0.905524	-0.154367	0.000027
C58	C	1.405524	0.345633	0.500027
C59	C	0.944066	-0.531793	0.000038
C60	C	1.444066	-0.031793	0.500038
C61	C	0.936704	-0.613349	0.000037
C62	C	1.436704	-0.113349	0.500037
C63	C	1.087936	-0.632021	0.000034
C64	C	1.587936	-0.132021	0.500034
C65	C	1.095296	-0.550469	0.000027
C66	C	1.595296	-0.050469	0.500027
C67	C	1.023361	-0.500360	0.000034
C68	C	1.523361	-0.000360	0.500034
C69	C	0.962560	-0.369391	0.000032
C70	C	1.462560	0.130609	0.500032
C71	C	1.030893	-0.417003	0.000035
C72	C	1.530893	0.082997	0.500035
C73	C	1.149407	0.101067	0.000027
C74	C	1.649407	0.601067	0.500027
C75	C	1.242469	0.102590	0.000034
C76	C	1.742469	0.602590	0.500034
N77	N	0.986369	0.117131	-0.204744
N78	N	1.486369	0.617131	0.295256
C79	C	1.000799	0.249748	0.000032
C80	C	1.500799	0.749748	0.500032
C81	C	1.008633	0.336541	0.000037
C82	C	1.508633	0.836541	0.500037
C83	C	1.037238	0.066276	-0.250023
C84	C	1.537238	0.566276	0.249977
C85	C	1.032669	0.070848	-0.340596
C86	C	1.532669	0.570848	0.159404
C87	C	0.977234	0.126280	-0.385888
C88	C	1.477234	0.626280	0.114112
C89	C	0.926359	0.177137	-0.340603
C90	C	1.426359	0.677137	0.159397
C91	C	0.930925	0.172561	-0.250032
C92	C	1.430925	0.672561	0.249968
C93	C	0.960785	0.142753	-0.659354
C94	C	1.460785	0.642753	-0.159354
C95	C	0.956225	0.147327	-0.749931
C96	C	1.456225	0.647327	-0.249931
C97	C	1.062535	0.041036	-0.749918
C98	C	1.562535	0.541036	-0.249918
C99	C	1.067099	0.036467	-0.659345
C100	C	1.567099	0.536467	-0.159345
C101	C	1.016221	0.087322	-0.614068
C102	C	1.516221	0.587322	-0.114068
C103	C	0.972564	0.130956	-0.478468
C104	C	1.472564	0.630956	0.021532
C105	C	1.020887	0.082642	-0.521490
C106	C	1.520887	0.582642	-0.021490
N107	N	1.007095	0.096471	0.204790
N108	N	1.507095	0.596471	0.704790
H109	H	0.563555	0.224673	0.058930
H110	H	1.063555	0.724673	0.558930
H111	H	1.074090	0.029437	-0.377461
H112	H	1.574090	0.529437	0.122539
Cl113	Cl	0.407409	0.239041	0.091333
Cl114	Cl	0.907409	0.739041	0.591333
H115	H	1.095457	-0.391403	0.000052
H116	H	1.595457	0.108597	0.500052
Cl117	Cl	0.902877	0.200643	-0.535410
Cl118	Cl	1.402877	0.700643	-0.035410
H119	H	0.897997	-0.394998	0.000031
H120	H	1.397997	0.105002	0.500031
H121	H	0.428125	0.004625	-0.085942
H122	H	0.928125	0.504625	0.414058
H123	H	0.889500	0.213972	-0.213166
H124	H	1.389500	0.713972	0.286834
H125	H	0.432447	0.081897	0.143698
H126	H	0.932447	0.581897	0.643698
H127	H	0.576362	0.089588	0.143289
H128	H	1.076362	0.589588	0.643289
Cl129	Cl	0.896830	0.206686	-0.602440
Cl130	Cl	1.396830	0.706686	-0.102440
H131	H	0.872127	-0.638942	0.000025
H132	H	1.372127	-0.138942	0.500025
H133	H	0.885491	-0.491003	0.000043
H134	H	1.385491	0.008997	0.500043
Cl135	Cl	1.156446	-0.133528	0.000005
Cl136	Cl	1.656446	0.366472	0.500005
Cl137	Cl	1.136791	-0.033218	-0.602407
Cl138	Cl	1.636791	0.466782	-0.102407
Cl139	Cl	0.815094	-0.091370	0.000030
Cl140	Cl	1.315094	0.408630	0.500030
H141	H	0.412735	0.228226	-0.058236
H142	H	0.912735	0.728226	0.441764
H143	H	1.082383	0.021141	-0.213152
H144	H	1.582383	0.521141	0.286848
Cl145	Cl	0.573753	0.120225	-0.176551
Cl146	Cl	1.073753	0.620225	0.323449
Cl147	Cl	1.126489	-0.022895	-0.806842
Cl148	Cl	1.626489	0.477105	-0.306842
Cl149	Cl	0.886530	0.217021	-0.806864
Cl150	Cl	1.386530	0.717021	-0.306864
Cl151	Cl	0.798469	-0.275440	0.000042
Cl152	Cl	1.298469	0.224560	0.500042
H153	H	1.066020	0.037506	-0.484611
H154	H	1.566020	0.537506	0.015389
Cl155	Cl	0.566693	0.251008	-0.091064
Cl156	Cl	1.066693	0.751008	0.408936
Cl157	Cl	0.404482	0.119086	-0.177031
Cl158	Cl	0.904482	0.619086	0.322969
Cl159	Cl	0.596885	-0.035660	0.090160
Cl160	Cl	1.096885	0.464340	0.590160
Cl161	Cl	1.178362	-0.695020	0.000028
Cl162	Cl	1.678362	-0.195020	0.500028
Cl163	Cl	1.139819	-0.317587	0.000022
Cl164	Cl	1.639819	0.182413	0.500022
Cl165	Cl	0.427121	-0.040571	0.082273
Cl166	Cl	0.927121	0.459429	0.582273
H167	H	0.571489	0.006234	-0.085200
H168	H	1.071489	0.506234	0.414800
Cl169	Cl	1.194988	-0.510954	0.000053
Cl170	Cl	1.694988	-0.010954	0.500053
H171	H	0.881218	0.222269	-0.377485
H172	H	1.381218	0.722269	0.122515
