data_functionalizedCrystal
_audit_creation_method	'MofGen! by Chris Wilmer'
_symmetry_space_group_name_H-M	'P1'
_symmetry_Int_Tables_number	1
_symmetry_cell_setting	triclinic
loop_
_symmetry_equiv_pos_as_xyz
  x,y,z
_cell_length_a	13.339070
_cell_length_b	15.186229
_cell_length_c	13.185408
_cell_angle_alpha	89.994774
_cell_angle_beta	83.801400
_cell_angle_gamma	89.996148
loop_
_atom_site_label
_atom_site_type_symbol
_atom_site_fract_x
_atom_site_fract_y
_atom_site_fract_z
O1	O	1.204768	-0.073264	0.505097
O2	O	0.928290	-0.073258	0.438800
O3	O	1.113898	-0.073254	0.327532
O4	O	1.019160	-0.073267	0.616364
O5	O	1.113889	0.073203	0.327527
O6	O	0.928281	0.073199	0.438795
O7	O	1.204759	0.073194	0.505092
Zn8	Zn	1.066519	0.096450	0.471942
Zn9	Zn	1.066530	-0.096514	0.471949
O10	O	1.019151	0.073190	0.616359
C11	C	0.893645	-0.000029	0.427598
C12	C	0.790432	-0.000026	0.394217
N13	N	1.066517	0.228142	0.471939
N14	N	1.066541	-0.228207	0.471946
C15	C	0.354975	-0.000052	0.653772
C16	C	0.451948	-0.000057	0.685138
C17	C	0.536573	-0.000049	0.612411
C18	C	0.524217	-0.000037	0.508311
C19	C	0.427234	-0.000038	0.476941
C20	C	0.608832	-0.000035	0.435580
C21	C	0.596476	-0.000023	0.331481
C22	C	0.499502	-0.000024	0.300116
C23	C	0.414877	-0.000032	0.372844
C24	C	0.705815	-0.000034	0.466950
C25	C	0.778074	-0.000020	0.290120
C26	C	0.681101	-0.000015	0.258753
C27	C	1.239404	-0.000038	0.516293
C28	C	1.342617	-0.000046	0.549674
C29	C	1.148720	0.453867	0.422700
C30	C	1.148723	0.546057	0.422698
C31	C	0.984331	0.546062	0.521187
C32	C	0.984325	0.453874	0.521182
C33	C	1.066525	0.407779	0.471941
C34	C	1.066534	0.592157	0.471945
C35	C	1.066537	0.692113	0.471943
C36	C	1.066521	0.307817	0.471940
C37	C	1.009552	-0.000040	0.654084
C38	C	0.980945	-0.000046	0.766489
C39	C	0.879090	-0.000038	0.805540
C40	C	0.852210	-0.000036	0.911149
C41	C	0.927181	-0.000036	0.977718
C42	C	1.029038	-0.000037	0.938667
C43	C	1.055921	-0.000046	0.833047
C44	C	1.104011	-0.000043	1.005225
C45	C	1.205868	-0.000045	0.966174
C46	C	1.232746	-0.000053	0.860564
C47	C	1.157775	-0.000053	0.793996
C48	C	1.077128	-0.000035	1.110844
C49	C	1.253959	-0.000042	1.138351
C50	C	1.280839	-0.000044	1.032742
C51	C	1.123497	-0.000028	1.289807
C52	C	1.152104	-0.000034	1.177402
H53	H	0.715865	-0.000040	0.551708
H54	H	0.917407	0.583602	0.561280
O55	O	1.228472	0.408953	0.374895
C56	C	1.210821	0.317701	0.385398
H57	H	1.154137	0.305093	0.454947
H58	H	1.179410	0.291586	0.314180
C59	C	1.380160	0.285819	0.313704
C60	C	1.310547	0.270332	0.399131
H61	H	1.441676	0.256598	0.322171
H62	H	1.392052	0.347296	0.306624
H63	H	1.353972	0.264056	0.254364
H64	H	1.336730	0.292105	0.458467
H65	H	1.298662	0.208857	0.406221
O66	O	0.753228	0.000010	0.948911
C67	C	0.692820	-0.000011	0.867514
H68	H	0.737903	0.027709	0.796256
H69	H	0.668490	-0.070273	0.852066
C70	C	0.543430	0.023389	0.983246
C71	C	0.598799	0.057441	0.895728
H72	H	0.485431	0.058824	1.000650
H73	H	0.584127	0.023400	1.038086
H74	H	0.523165	-0.035162	0.970361
H75	H	0.619073	0.115986	0.908618
H76	H	0.558103	0.057441	0.840891
O77	O	0.904415	0.409235	0.569106
C78	C	0.831857	0.469686	0.612554
H79	H	0.869859	0.535396	0.625318
H80	H	0.771351	0.479504	0.558791
C81	C	0.736328	0.352987	0.699723
C82	C	0.783004	0.433691	0.715407
H83	H	0.706189	0.330784	0.763165
H84	H	0.785209	0.312260	0.670448
H85	H	0.685912	0.361180	0.654917
H86	H	0.833426	0.425496	0.760202
H87	H	0.734130	0.474417	0.744692
H88	H	0.994196	-0.000033	1.142629
O89	O	1.228670	0.590689	0.374857
C90	C	1.301202	0.530232	0.331374
H91	H	1.291005	0.464515	0.373002
H92	H	1.291241	0.520435	0.247328
C93	C	1.420186	0.646914	0.290048
C94	C	1.407667	0.566201	0.341182
H95	H	1.485859	0.669101	0.296093
H96	H	1.371319	0.687646	0.319339
H97	H	1.411879	0.638739	0.220013
H98	H	1.415961	0.574379	0.411217
H99	H	1.456539	0.525471	0.311902
H100	H	1.363772	-0.000046	1.000931
H101	H	0.286067	-0.000066	0.712975
H102	H	0.615531	-0.000055	0.637956
H103	H	0.462001	-0.000074	0.769896
H104	H	1.315685	-0.000062	0.828773
H105	H	0.335910	-0.000028	0.347310
H106	H	0.489447	-0.000024	0.215352
H107	H	0.671026	-0.000012	0.173993
H108	H	0.846979	-0.000017	0.230898
H109	H	0.905289	-0.000033	1.063709
H110	H	0.818060	-0.000046	0.751332
H111	H	1.179656	-0.000045	0.707999
H112	H	1.315006	-0.000087	1.192552
