data_functionalizedCrystal
_audit_creation_method	'MofGen! by Chris Wilmer'
_symmetry_space_group_name_H-M	'P1'
_symmetry_Int_Tables_number	1
_symmetry_cell_setting	triclinic
loop_
_symmetry_equiv_pos_as_xyz
  x,y,z
_cell_length_a	6.817900
_cell_length_b	27.923497
_cell_length_c	27.923559
_cell_angle_alpha	97.590127
_cell_angle_beta	98.965071
_cell_angle_gamma	98.964248
loop_
_atom_site_label
_atom_site_type_symbol
_atom_site_fract_x
_atom_site_fract_y
_atom_site_fract_z
V1	V	-3.954328	-0.067819	-0.151591
V2	V	-3.454328	0.432181	0.348409
O3	O	-3.966068	0.002549	-0.148377
O4	O	-3.466068	0.502549	0.351623
O5	O	-3.884366	-0.133791	-0.150871
O6	O	-3.384366	0.366209	0.349129
O7	O	-3.884362	-0.067087	-0.217561
O8	O	-3.384362	0.432913	0.282439
O9	O	-3.966072	-0.064616	-0.081225
O10	O	-3.466072	0.435384	0.418775
V11	V	-4.443544	-0.059365	-0.143136
V12	V	-3.943544	0.440635	0.356864
O13	O	-4.203097	-0.086363	-0.170137
O14	O	-3.703097	0.413637	0.329863
O15	O	-4.644972	-0.040822	-0.124590
O16	O	-4.144972	0.459178	0.375410
O17	O	-4.290300	0.006606	-0.143857
O18	O	-3.790300	0.506606	0.356143
O19	O	-4.549201	-0.129733	-0.146351
O20	O	-4.049201	0.370267	0.353649
O21	O	-4.549197	-0.062568	-0.213503
O22	O	-4.049197	0.437432	0.286497
O23	O	-4.290304	-0.060097	-0.077166
O24	O	-3.790304	0.439903	0.422834
C25	C	-3.724819	-0.149864	-0.148561
C26	C	-3.224819	0.350136	0.351439
C27	C	-3.748760	-0.203798	-0.148411
C28	C	-3.248760	0.296202	0.351589
C29	C	-3.874196	-0.531114	-0.102970
C30	C	-3.374196	-0.031114	0.397030
C31	C	-3.964250	-0.733818	-0.102382
C32	C	-3.464250	-0.233818	0.397618
O33	O	-3.956249	-0.753966	-0.064493
O34	O	-3.456249	-0.253966	0.435507
N35	N	-3.998704	-0.766295	-0.146773
N36	N	-3.498704	-0.266295	0.353227
C37	C	-4.010659	-0.748093	-0.191313
C38	C	-3.510659	-0.248093	0.308687
O39	O	-4.042051	-0.780367	-0.229057
O40	O	-3.542051	-0.280367	0.270943
C41	C	-3.920618	-0.545389	-0.191901
C42	C	-3.420618	-0.045389	0.308099
C43	C	-3.886143	-0.512914	-0.147507
C44	C	-3.386143	-0.012914	0.352493
C45	C	-3.839725	-0.498640	-0.058579
C46	C	-3.339725	0.001360	0.441421
C47	C	-3.817202	-0.447966	-0.058727
C48	C	-3.317202	0.052034	0.441273
C49	C	-3.829150	-0.429767	-0.103264
C50	C	-3.329150	0.070233	0.396736
C51	C	-3.863620	-0.462241	-0.147654
C52	C	-3.363620	0.037759	0.352346
C53	C	-3.932587	-0.527188	-0.236441
C54	C	-3.432587	-0.027188	0.263559
C55	C	-3.910078	-0.476508	-0.236584
C56	C	-3.410078	0.023492	0.263416
C57	C	-3.875603	-0.444034	-0.192190
C58	C	-3.375603	0.055966	0.307810
C59	C	-3.853045	-0.393369	-0.192339
C60	C	-3.353045	0.106631	0.307661
N61	N	-3.818591	-0.360892	-0.147948
N62	N	-3.318591	0.139108	0.352052
C63	C	-3.806643	-0.379092	-0.103411
C64	C	-3.306643	0.120908	0.396589
C65	C	-4.057925	-0.854514	-0.191002
C66	C	-3.557925	-0.354514	0.308998
C67	C	-4.080432	-0.905190	-0.190855
C68	C	-3.580432	-0.405190	0.309145
C69	C	-4.034026	-0.890912	-0.101924
C70	C	-3.534026	-0.390912	0.398076
C71	C	-4.011505	-0.840236	-0.102071
C72	C	-3.511505	-0.340236	0.397929
C73	C	-4.023471	-0.822038	-0.146611
C74	C	-3.523471	-0.322038	0.353389
C75	C	-3.759343	-0.272675	-0.103723
C76	C	-3.259343	0.227325	0.396277
C77	C	-3.736812	-0.221997	-0.103874
C78	C	-3.236812	0.278003	0.396126
C79	C	-3.783231	-0.236280	-0.192806
C80	C	-3.283231	0.263720	0.307194
C81	C	-3.805750	-0.286952	-0.192655
C82	C	-3.305750	0.213048	0.307345
C83	C	-3.793810	-0.305148	-0.148110
C84	C	-3.293810	0.194852	0.351890
O85	O	-3.861045	-0.373187	-0.230208
O86	O	-3.361045	0.126813	0.269792
O87	O	-3.775294	-0.346810	-0.065673
O88	O	-3.275294	0.153190	0.434327
C89	C	-3.896718	-0.581787	-0.102822
C90	C	-3.396718	-0.081787	0.397178
C91	C	-3.931189	-0.614261	-0.147212
C92	C	-3.431189	-0.114261	0.352788
C93	C	-3.943137	-0.596062	-0.191750
C94	C	-3.443137	-0.096062	0.308250
C95	C	-3.953696	-0.664936	-0.147066
C96	C	-3.453696	-0.164936	0.352934
C97	C	-3.941748	-0.683136	-0.102528
C98	C	-3.441748	-0.183136	0.397472
C99	C	-3.907294	-0.650659	-0.058138
C100	C	-3.407294	-0.150659	0.441862
C101	C	-3.884771	-0.599986	-0.058285
C102	C	-3.384771	-0.099986	0.441715
C103	C	-3.977591	-0.628538	-0.236140
C104	C	-3.477591	-0.128538	0.263860
C105	C	-4.000110	-0.679211	-0.235989
C106	C	-3.500110	-0.179211	0.264011
C107	C	-3.988162	-0.697410	-0.191452
C108	C	-3.488162	-0.197410	0.308548
C109	C	-3.724813	-0.064776	-0.233630
C110	C	-3.224813	0.435224	0.266370
C111	C	-3.748749	-0.064614	-0.287563
C112	C	-3.248749	0.435386	0.212437
C113	C	-3.920608	-0.108134	-0.629156
C114	C	-3.420608	0.391866	-0.129156
C115	C	-4.010668	-0.107555	-0.831862
C116	C	-3.510668	0.392445	-0.331862
O117	O	-4.042132	-0.145295	-0.864147
O118	O	-3.542132	0.354705	-0.364147
N119	N	-3.998716	-0.063018	-0.850066
N120	N	-3.498716	0.436982	-0.350066
C121	C	-3.964260	-0.018624	-0.817590
C122	C	-3.464260	0.481376	-0.317590
O123	O	-3.956181	0.019271	-0.837726
O124	O	-3.456181	0.519271	-0.337726
C125	C	-3.874215	-0.019203	-0.614886
C126	C	-3.374215	0.480797	-0.114886
C127	C	-3.886149	-0.063742	-0.596684
C128	C	-3.386149	0.436258	-0.096684
C129	C	-3.932543	-0.152669	-0.610954
C130	C	-3.432543	0.347331	-0.110954
C131	C	-3.910018	-0.152813	-0.560280
C132	C	-3.410018	0.347187	-0.060280
C133	C	-3.875559	-0.108422	-0.527809
C134	C	-3.375559	0.391578	-0.027809
C135	C	-3.863625	-0.063886	-0.546011
C136	C	-3.363625	0.436114	-0.046011
C137	C	-3.839774	0.025191	-0.582411
C138	C	-3.339774	0.525191	-0.082411
C139	C	-3.817268	0.025042	-0.531732
C140	C	-3.317268	0.525042	-0.031732
C141	C	-3.829202	-0.019497	-0.513531
C142	C	-3.329202	0.480503	-0.013531
C143	C	-3.806641	-0.019639	-0.462865
C144	C	-3.306641	0.480361	0.037135
N145	N	-3.818593	-0.064175	-0.444661
N146	N	-3.318593	0.435825	0.055339
C147	C	-3.853052	-0.108567	-0.477133
C148	C	-3.353052	0.391433	0.022867
C149	C	-4.011532	-0.018322	-0.924014
C150	C	-3.511532	0.481678	-0.424014
C151	C	-4.034040	-0.018177	-0.974690
C152	C	-3.534040	0.481823	-0.474690
C153	C	-4.080450	-0.107109	-0.988958
C154	C	-3.580450	0.392891	-0.488958
C155	C	-4.057928	-0.107254	-0.938281
C156	C	-3.557928	0.392746	-0.438281
C157	C	-4.023484	-0.062859	-0.905810
C158	C	-3.523484	0.437141	-0.405810
C159	C	-3.805745	-0.108866	-0.370714
C160	C	-3.305745	0.391134	0.129286
C161	C	-3.783208	-0.109006	-0.320035
C162	C	-3.283208	0.390994	0.179965
C163	C	-3.736810	-0.020075	-0.305771
C164	C	-3.236810	0.479925	0.194229
C165	C	-3.759335	-0.019934	-0.356446
C166	C	-3.259335	0.480066	0.143554
C167	C	-3.793810	-0.064334	-0.388916
C168	C	-3.293810	0.435666	0.111084
O169	O	-3.775195	0.018081	-0.430552
O170	O	-3.275195	0.518081	0.069448
O171	O	-3.861168	-0.146456	-0.456988
O172	O	-3.361168	0.353544	0.043012
C173	C	-3.943133	-0.107990	-0.679830
C174	C	-3.443133	0.392010	-0.179830
C175	C	-3.931198	-0.063454	-0.698032
C176	C	-3.431198	0.436546	-0.198032
C177	C	-3.896739	-0.019062	-0.665560
C178	C	-3.396739	0.480938	-0.165560
C179	C	-3.953706	-0.063309	-0.748707
C180	C	-3.453706	0.436691	-0.248707
C181	C	-3.988165	-0.107701	-0.781179
C182	C	-3.488165	0.392299	-0.281179
C183	C	-4.000117	-0.152237	-0.762975
C184	C	-3.500117	0.347763	-0.262975
C185	C	-3.977592	-0.152381	-0.712301
C186	C	-3.477592	0.347619	-0.212301
C187	C	-3.884788	0.025474	-0.683764
C188	C	-3.384788	0.525474	-0.183764
C189	C	-3.907312	0.025615	-0.734438
C190	C	-3.407312	0.525615	-0.234438
C191	C	-3.941771	-0.018777	-0.766910
C192	C	-3.441771	0.481223	-0.266910
C193	C	-4.113188	0.022677	-0.146165
C194	C	-3.613188	0.522677	0.353835
C195	C	-4.068484	0.076611	-0.146318
C196	C	-3.568484	0.576611	0.353682
C197	C	-4.113195	-0.062410	-0.061095
C198	C	-3.613195	0.437590	0.438905
C199	C	-4.068499	-0.062569	-0.007161
C200	C	-3.568499	0.437431	0.492839
H201	H	-3.792923	-0.145277	-0.305218
H202	H	-3.292923	0.354723	0.194782
O203	O	-3.746443	-0.292294	-0.055678
O204	O	-3.246443	0.207706	0.444322
H205	H	-3.620639	-0.313190	-0.051667
H206	H	-3.120639	0.186810	0.448333
H207	H	-3.856734	0.061624	-0.657330
H208	H	-3.356734	0.561624	-0.157330
O209	O	-3.796197	-0.216603	-0.240819
O210	O	-3.296197	0.283397	0.259181
H211	H	-3.676725	-0.227862	-0.260328
H212	H	-3.176725	0.272138	0.239672
H213	H	-3.833813	-0.145020	-0.397146
H214	H	-3.333813	0.354980	0.102854
H215	H	-4.024293	0.018091	-0.989504
H216	H	-3.524293	0.518091	-0.489504
H217	H	-3.830037	0.061460	-0.597221
H218	H	-3.330037	0.561460	-0.097221
O219	O	-3.974348	0.029563	-0.888992
O220	O	-3.474348	0.529563	-0.388992
H221	H	-3.969797	0.060553	-0.910170
H222	H	-3.469797	0.560553	-0.410170
H223	H	-4.028166	-0.705648	-0.272143
H224	H	-3.528166	-0.205648	0.227857
H225	H	-3.960607	-0.188820	-0.637388
H226	H	-3.460607	0.311180	-0.137388
H227	H	-3.708744	0.016068	-0.279324
H228	H	-3.208744	0.516068	0.220676
O229	O	-4.070814	-0.155291	-0.918650
O230	O	-3.570814	0.344709	-0.418650
H231	H	-4.098565	-0.186132	-0.949748
H232	H	-3.598565	0.313868	-0.449748
O233	O	-3.780097	0.072926	-0.496708
O234	O	-3.280097	0.572926	0.003292
H235	H	-3.775566	0.103918	-0.517883
H236	H	-3.275566	0.603918	-0.017883
H237	H	-3.987313	-0.188650	-0.697487
H238	H	-3.487313	0.311350	-0.197487
O239	O	-3.847576	-0.564962	-0.010403
O240	O	-3.347576	-0.064962	0.489597
H241	H	-3.843064	-0.586138	0.020587
H242	H	-3.343064	-0.086138	0.520587
H243	H	-3.833788	-0.313394	-0.228803
H244	H	-3.333788	0.186606	0.271197
H245	H	-3.919750	-0.189082	-0.545466
H246	H	-3.419750	0.310918	-0.045466
O247	O	-4.070881	-0.834903	-0.239052
O248	O	-3.570881	-0.334903	0.260948
H249	H	-4.196729	-0.814021	-0.243070
H250	H	-3.696729	-0.314021	0.256930
H251	H	-3.960658	-0.553621	-0.272591
H252	H	-3.460658	-0.053621	0.227409
O253	O	-3.746460	0.028102	-0.376082
O254	O	-3.246460	0.528102	0.123918
H255	H	-3.718722	0.058946	-0.344987
H256	H	-3.218722	0.558946	0.155013
O257	O	-3.974335	-0.805213	-0.054189
O258	O	-3.474335	-0.305213	0.445811
H259	H	-3.828006	-0.779933	-0.050306
H260	H	-3.328006	-0.279933	0.449694
H261	H	-4.024292	-0.905738	-0.065659
H262	H	-3.524292	-0.405738	0.434341
O263	O	-4.037297	-0.200119	-0.798002
O264	O	-3.537297	0.299881	-0.298002
H265	H	-4.050968	-0.192530	-0.836297
H266	H	-3.550968	0.307470	-0.336297
O267	O	-4.117642	-0.154991	-1.023985
O268	O	-3.617642	0.345009	-0.523985
H269	H	-4.131304	-0.147403	-1.062280
H270	H	-3.631304	0.352597	-0.562280
H271	H	-4.108470	-0.931627	-0.227005
H272	H	-3.608470	-0.431627	0.272995
H273	H	-3.897576	0.061887	-0.749252
H274	H	-3.397576	0.561887	-0.249252
H275	H	-3.708733	-0.195558	-0.067722
H276	H	-3.208733	0.304442	0.432278
H277	H	-3.919848	-0.461696	-0.272856
H278	H	-3.419848	0.038304	0.227144
H279	H	-3.829997	-0.513451	-0.022310
H280	H	-3.329997	-0.013451	0.477690
O281	O	-3.780003	-0.412946	-0.010842
O282	O	-3.280003	0.087054	0.489158
H283	H	-3.908154	-0.421102	0.008688
H284	H	-3.408154	0.078898	0.508688
O285	O	-3.894401	-0.670292	-0.010099
O286	O	-3.394401	-0.170292	0.489901
H287	H	-3.915866	-0.710986	-0.017461
H288	H	-3.415866	-0.210986	0.482539
H289	H	-3.987324	-0.613726	-0.272409
H290	H	-3.487324	-0.113726	0.227591
