data_functionalizedCrystal
_audit_creation_method	'MofGen! by Chris Wilmer'
_symmetry_space_group_name_H-M	'P1'
_symmetry_Int_Tables_number	1
_symmetry_cell_setting	triclinic
loop_
_symmetry_equiv_pos_as_xyz
  x,y,z
_cell_length_a	10.686220
_cell_length_b	18.101395
_cell_length_c	18.101389
_cell_angle_alpha	89.979213
_cell_angle_beta	94.353309
_cell_angle_gamma	94.412841
loop_
_atom_site_label
_atom_site_type_symbol
_atom_site_fract_x
_atom_site_fract_y
_atom_site_fract_z
Zn1	Zn	1.928972	-0.207904	-0.331996
Zn2	Zn	1.928802	-0.331746	-0.208165
Zn3	Zn	1.717969	-0.217429	-0.217657
Zn4	Zn	1.717878	-0.341226	-0.341451
O5	O	1.823406	-0.274577	-0.274817
O6	O	2.105528	-0.216379	-0.307640
O7	O	1.900802	-0.316600	-0.105793
O8	O	1.746069	-0.112528	-0.232840
O9	O	2.105403	-0.307365	-0.216662
O10	O	1.901092	-0.105530	-0.316844
O11	O	1.745904	-0.232612	-0.112767
O12	O	1.541379	-0.241805	-0.242008
O13	O	1.745913	-0.323522	-0.443828
O14	O	1.541313	-0.332758	-0.332958
O15	O	1.901003	-0.225571	-0.436881
O16	O	1.900713	-0.436642	-0.225830
O17	O	1.745748	-0.443607	-0.323755
C18	C	1.495561	-0.289344	-0.289540
C19	C	1.355308	-0.295680	-0.295856
C20	C	1.823237	-0.466995	-0.274803
C21	C	1.823280	-0.549307	-0.274817
C22	C	1.823557	-0.848385	-0.274844
C23	C	1.726283	-0.821463	-0.336587
C24	C	1.725821	-0.735866	-0.336428
C25	C	1.823419	-0.700009	-0.274831
C26	C	1.787422	-0.732774	-0.198400
C27	C	1.786795	-0.818448	-0.198772
C28	C	1.957040	-0.810713	-0.288835
C29	C	1.956255	-0.725097	-0.290582
C30	C	1.823344	-0.616153	-0.274819
C31	C	1.823629	-0.932241	-0.274851
C32	C	2.152530	-0.259752	-0.260038
C33	C	2.292783	-0.253434	-0.253740
C34	C	1.823467	-0.274542	-0.467976
C35	C	1.823494	-0.274527	-0.550289
C36	C	1.823609	-0.081405	-0.274846
C37	C	1.823696	0.000913	-0.274859
C38	C	1.823541	-0.274467	-0.700996
C39	C	1.725978	-0.336083	-0.736719
C40	C	1.725623	-0.335898	-0.822354
C41	C	1.823588	-0.274409	-0.849376
C42	C	1.787999	-0.197919	-0.819892
C43	C	1.787264	-0.198316	-0.734280
C44	C	1.956949	-0.288635	-0.726565
C45	C	1.956260	-0.290356	-0.812246
C46	C	1.823616	-0.274372	-0.933235
C47	C	1.823509	-0.274499	-0.617138
C48	C	1.823417	-0.274554	-0.082406
C49	C	1.823635	-0.274350	-0.000083
H50	H	1.301534	-0.336702	-0.336743
H51	H	2.032563	-0.700240	-0.248412
O52	O	2.053112	-0.833362	-0.229293
H53	H	2.006093	-0.871242	-0.189905
O54	O	1.363988	-0.199106	-0.199568
H55	H	1.338804	-0.142125	-0.213482
H56	H	1.626783	-0.326961	-0.847286
H57	H	1.748342	-0.713793	-0.393289
H58	H	1.748581	-0.841012	-0.393645
O59	O	1.755022	-0.411270	-0.848881
H60	H	1.769618	-0.448181	-0.800519
O61	O	1.659541	-0.710216	-0.181309
H62	H	1.594945	-0.760541	-0.175429
O63	O	1.594774	-0.714709	-0.324760
H64	H	1.531486	-0.765646	-0.319202
O65	O	1.999982	-0.360866	-0.696018
H66	H	2.015568	-0.398178	-0.742537
O67	O	2.057682	-0.234617	-0.836014
H68	H	2.103931	-0.204635	-0.786563
O69	O	1.658113	-0.181522	-0.713619
H70	H	1.666017	-0.130454	-0.679123
H71	H	1.627943	-0.847482	-0.327932
H72	H	1.983102	-0.346620	-0.831353
O73	O	1.657551	-0.850834	-0.182152
H74	H	1.586706	-0.832850	-0.225103
H75	H	1.854572	-0.836104	-0.151522
H76	H	1.856896	-0.151000	-0.837151
O77	O	1.755012	-0.411735	-0.708128
H78	H	1.839284	-0.406230	-0.668147
O79	O	1.878304	-0.701689	-0.136141
H80	H	1.950262	-0.662460	-0.159069
O81	O	2.000520	-0.837291	-0.360987
H82	H	1.927464	-0.877653	-0.387683
H83	H	1.983401	-0.703517	-0.346801
O84	O	1.595771	-0.324450	-0.714077
H85	H	1.600240	-0.274973	-0.677493
H86	H	1.855260	-0.151149	-0.710493
H87	H	1.691581	-0.184879	-0.845677
H88	H	2.029632	-0.243682	-0.703037
