data_functionalizedCrystal
_audit_creation_method	'MofGen! by Chris Wilmer'
_symmetry_space_group_name_H-M	'P1'
_symmetry_Int_Tables_number	1
_symmetry_cell_setting	triclinic
loop_
_symmetry_equiv_pos_as_xyz
  x,y,z
_cell_length_a	10.654559
_cell_length_b	17.038272
_cell_length_c	9.130313
_cell_angle_alpha	89.998262
_cell_angle_beta	89.999532
_cell_angle_gamma	87.800120
loop_
_atom_site_label
_atom_site_type_symbol
_atom_site_fract_x
_atom_site_fract_y
_atom_site_fract_z
O1	O	1.678033	0.109909	-0.121809
O2	O	1.313527	0.120370	-0.121811
O3	O	1.493614	0.001312	-0.121798
O4	O	1.497946	0.228967	-0.121822
O5	O	1.493612	0.001315	0.121800
O6	O	1.313525	0.120373	0.121788
O7	O	1.678031	0.109912	0.121790
Cu8	Cu	1.495778	0.115143	0.144031
Cu9	Cu	1.495780	0.115139	-0.144052
O10	O	1.497944	0.228970	0.121777
C11	C	1.266657	0.119602	-0.000011
C12	C	1.127000	0.117299	-0.000011
C13	C	1.068751	0.045036	-0.000000
C14	C	0.937528	0.042877	-0.000011
C15	C	0.922816	0.185252	-0.000038
C16	C	1.054036	0.187410	-0.000038
C17	C	1.141715	-0.025075	0.000026
C18	C	1.083465	-0.097344	0.000039
C19	C	0.952243	-0.099503	0.000028
C20	C	0.879270	-0.029392	0.000004
C21	C	1.489672	-0.027837	0.000001
C22	C	1.477915	-0.114696	0.000000
C23	C	1.585859	-0.164205	0.000002
C24	C	1.574804	-0.245817	-0.000012
C25	C	1.455805	-0.277919	-0.000017
C26	C	1.347853	-0.228404	-0.000023
C27	C	1.358908	-0.146793	-0.000020
C28	C	1.416747	-0.523896	-0.000037
C29	C	1.405699	-0.605513	-0.000036
C30	C	1.632652	-0.622921	-0.000027
C31	C	1.643697	-0.541308	-0.000015
C32	C	1.535745	-0.491800	-0.000029
C33	C	1.444502	-0.361340	-0.000027
C34	C	1.547049	-0.408380	-0.000030
C35	C	1.724901	0.110680	-0.000013
C36	C	1.864558	0.112983	-0.000022
C37	C	1.501886	0.258119	-0.000025
C38	C	1.513643	0.344978	-0.000034
N39	N	1.495785	0.115145	0.346654
N40	N	1.495782	0.115131	-0.346675
C41	C	1.575551	0.062444	0.423311
C42	C	1.575547	0.062435	0.576648
C43	C	1.416007	0.167834	0.576657
C44	C	1.416006	0.167839	0.423323
C45	C	1.655330	0.009751	0.346643
C46	C	1.735103	-0.042954	0.423300
C47	C	1.735099	-0.042963	0.576637
C48	C	1.655321	0.009732	0.653316
H49	H	1.142889	-0.154425	0.000045
H50	H	1.800049	-0.085861	0.360860
C51	C	1.694052	-0.347679	-0.125251
C52	C	1.693465	-0.300233	-0.000015
H53	H	1.767318	-0.381267	-0.125258
H54	H	1.621613	-0.378478	-0.125248
H55	H	1.693644	-0.315464	-0.210182
H56	H	1.693864	-0.332448	0.084917
H57	H	1.765923	-0.269431	-0.000005
C58	C	1.866921	-0.566716	-0.000008
C59	C	1.774506	-0.506024	-0.000007
H60	H	1.947676	-0.544931	-0.000004
H61	H	1.857882	-0.598187	0.084930
H62	H	1.857888	-0.598181	-0.084968
H63	H	1.783532	-0.474562	0.084959
H64	H	1.783548	-0.474539	-0.084953
C65	C	0.695309	-0.071245	-0.125240
C66	C	0.735026	-0.031765	-0.000017
H67	H	0.606262	-0.072713	-0.125242
H68	H	0.722281	-0.044464	-0.210171
H69	H	0.730436	-0.123339	-0.125216
H70	H	0.699908	0.020332	-0.000047
H71	H	0.708042	-0.058545	0.084936
H72	H	1.720540	-0.663239	-0.000019
H73	H	0.863391	0.242333	-0.000054
C74	C	1.182465	-0.580112	-0.000090
C75	C	1.274885	-0.640801	-0.000066
H76	H	1.101712	-0.601900	-0.000119
H77	H	1.191477	-0.548646	0.084856
H78	H	1.191517	-0.548640	-0.085042
H79	H	1.265838	-0.672270	0.084892
H80	H	1.265868	-0.672280	-0.085020
H81	H	1.682761	-0.138074	0.000016
C82	C	0.979972	-0.240016	0.000066
C83	C	0.888213	-0.178939	0.000040
H84	H	0.940442	-0.289057	0.000088
H85	H	1.030847	-0.236218	-0.084876
H86	H	1.030845	-0.236201	0.085022
H87	H	0.837346	-0.182750	-0.084922
H88	H	0.837317	-0.182738	0.084990
C89	C	1.081909	0.309425	-0.125269
C90	C	1.118076	0.266842	-0.000042
H91	H	1.121442	0.358465	-0.125268
H92	H	1.106440	0.280527	-0.210197
H93	H	0.993316	0.318172	-0.125254
H94	H	1.206669	0.258090	-0.000062
H95	H	1.093553	0.295747	0.084908
H96	H	1.248564	-0.023325	0.000039
H97	H	1.328844	-0.483596	-0.000048
C98	C	1.230133	-0.345776	-0.000015
C99	C	1.217045	-0.263688	-0.000024
H100	H	1.149374	-0.367556	-0.000003
H101	H	1.274935	-0.362723	-0.084959
H102	H	1.274948	-0.362720	0.084939
H103	H	1.172237	-0.246743	-0.084984
H104	H	1.172223	-0.246734	0.084928
H105	H	1.271008	-0.106483	-0.000022
C106	C	1.892801	-0.147140	0.561219
C107	C	1.822781	-0.100895	0.660901
H108	H	1.946942	-0.182900	0.613242
H109	H	1.837498	-0.175584	0.501414
H110	H	1.941468	-0.114298	0.501415
H111	H	1.774107	-0.133737	0.720699
H112	H	1.878091	-0.072450	0.720732
H113	H	1.643938	-0.382239	-0.000058
C114	C	1.203383	0.212500	0.623893
C115	C	1.328326	0.225755	0.660944
H116	H	1.149255	0.248257	0.675937
H117	H	1.191971	0.220051	0.521616
H118	H	1.184184	0.160205	0.649024
H119	H	1.347528	0.278049	0.635803
H120	H	1.339744	0.218211	0.763244
H121	H	1.347612	-0.387486	-0.000028
C122	C	1.356680	0.302845	0.376096
C123	C	1.328335	0.225770	0.339043
H124	H	1.302556	0.338607	0.324055
H125	H	1.345254	0.310383	0.478374
H126	H	1.441451	0.311819	0.350963
H127	H	1.243566	0.216795	0.364186
H128	H	1.339751	0.218229	0.236742
H129	H	1.655343	0.009755	0.221788
H130	H	1.655316	0.009714	0.778174
