data_functionalizedCrystal
_audit_creation_method	'MofGen! by Chris Wilmer'
_symmetry_space_group_name_H-M	'P1'
_symmetry_Int_Tables_number	1
_symmetry_cell_setting	triclinic
loop_
_symmetry_equiv_pos_as_xyz
  x,y,z
_cell_length_a	6.817900
_cell_length_b	10.773894
_cell_length_c	17.078472
_cell_angle_alpha	96.744406
_cell_angle_beta	99.306020
_cell_angle_gamma	96.645922
loop_
_atom_site_label
_atom_site_type_symbol
_atom_site_fract_x
_atom_site_fract_y
_atom_site_fract_z
V1	V	-3.928691	-0.388822	-0.106853
O2	O	-3.939481	-0.381550	0.008135
O3	O	-3.860287	-0.386039	-0.214756
O4	O	-3.846912	-0.558458	-0.103893
O5	O	-3.952948	-0.207937	-0.103496
V6	V	-4.419236	-0.367202	-0.093255
O7	O	-4.174545	-0.436248	-0.136682
O8	O	-4.623578	-0.319776	-0.063426
O9	O	-4.264433	-0.369985	0.014649
O10	O	-4.525842	-0.374475	-0.208242
O11	O	-4.512375	-0.548087	-0.096611
O12	O	-4.277807	-0.197567	-0.096214
C13	C	-3.701501	-0.379873	-0.241102
C14	C	-3.726637	-0.378728	-0.329306
C15	C	-3.918551	-0.384408	-0.374739
C16	C	-3.942159	-0.383340	-0.457617
C17	C	-3.773848	-0.376582	-0.495059
C18	C	-3.581918	-0.370906	-0.449621
C19	C	-3.558315	-0.371983	-0.366745
C20	C	-3.825128	-0.372702	-0.742492
C21	C	-3.848746	-0.371621	-0.825373
C22	C	-4.208986	-0.384057	-0.833364
C23	C	-4.185364	-0.385126	-0.750486
C24	C	-3.993439	-0.379456	-0.705055
N25	N	-3.797973	-0.375486	-0.579773
N26	N	-3.969318	-0.380562	-0.620344
C27	C	-3.684440	-0.599809	-0.099684
C28	C	-3.698728	-0.738486	-0.097978
C29	C	-3.876255	-0.806344	-0.100934
C30	C	-3.891027	-0.949674	-0.099171
C31	C	-4.086560	-0.376148	0.040991
C32	C	-4.040661	-0.377301	0.129194
C33	C	-4.103622	-0.156209	-0.100426
C34	C	-4.068573	-0.017531	-0.102128
H35	H	-3.402041	-0.367363	-0.329755
H36	H	-4.055611	-0.389898	-0.344259
H37	H	-4.322427	-0.390638	-0.720007
H38	H	-4.098433	-0.387967	-0.494605
H39	H	-3.668853	-0.368077	-0.705512
H40	H	-4.365245	-0.388673	-0.870362
H41	H	-4.209640	-0.969524	-0.105969
H42	H	-3.711680	-0.366147	-0.855859
H43	H	-3.749961	-0.997683	-0.095329
H44	H	-3.444879	-0.365412	-0.480114
H45	H	-4.017304	-0.758328	-0.104766
H46	H	-3.557676	-0.786499	-0.094135
