data_functionalizedCrystal
_audit_creation_method	'MofGen! by Chris Wilmer'
_symmetry_space_group_name_H-M	'P1'
_symmetry_Int_Tables_number	1
_symmetry_cell_setting	triclinic
loop_
_symmetry_equiv_pos_as_xyz
  x,y,z
_cell_length_a	19.902436
_cell_length_b	14.560438
_cell_length_c	14.560438
_cell_angle_alpha	119.999504
_cell_angle_beta	89.997029
_cell_angle_gamma	59.996626
loop_
_atom_site_label
_atom_site_type_symbol
_atom_site_fract_x
_atom_site_fract_y
_atom_site_fract_z
Zr1	Zr	0.647317	1.005176	0.120437
O2	O	0.540020	1.196800	0.267096
O3	O	0.680210	0.813568	0.075481
O4	O	0.680203	1.005176	0.267084
O5	O	0.540033	1.005185	-0.075650
O6	O	0.790782	1.005159	0.267071
O7	O	0.540027	1.005191	0.075493
O8	O	0.790794	0.662406	-0.075672
O9	O	0.540020	1.347938	0.267093
O10	O	0.776762	0.892359	0.056295
O11	O	0.694242	0.892368	-0.056492
O12	O	0.694234	1.117963	0.169096
O13	O	0.611715	1.117971	0.056309
Zr14	Zr	0.823687	1.005137	-0.120638
Zr15	Zr	0.823678	1.005147	0.120417
Zr16	Zr	0.647326	1.005165	-0.120618
Zr17	Zr	0.647318	1.246223	0.120432
Zr18	Zr	0.823686	0.764089	-0.120633
O19	O	0.790795	1.196745	-0.075682
O20	O	0.790782	1.196759	0.267068
O21	O	0.540033	1.196785	-0.075654
O22	O	0.930984	0.813513	-0.267297
O23	O	0.930972	0.813527	0.075453
O24	O	0.680222	0.813553	-0.267269
O25	O	0.930972	1.005128	0.075449
O26	O	0.790801	1.005136	-0.267285
O27	O	0.680223	1.005154	-0.267272
O28	O	0.930977	1.005122	-0.075694
O29	O	0.680203	1.347915	0.267077
O30	O	0.790801	0.662398	-0.267278
O31	O	0.930984	0.662375	-0.267294
O32	O	0.930977	0.662383	-0.075687
O33	O	0.540027	1.347930	0.075486
O34	O	0.680210	1.347907	0.075470
O35	O	0.776770	0.892350	-0.169297
O36	O	0.859290	0.892341	-0.056510
O37	O	0.776762	1.117945	0.056291
O38	O	0.694243	1.117953	-0.056496
C39	C	0.735502	0.703643	-0.000095
C40	C	0.735502	0.601311	-0.000093
C41	C	0.778574	0.553231	0.058781
C42	C	0.778577	0.457072	0.058770
C43	C	0.692429	0.457086	-0.058989
C44	C	0.692431	0.553237	-0.058985
C45	C	0.514902	1.005192	-0.000076
C46	C	0.440033	1.005204	-0.000068
C47	C	0.168031	1.005140	-0.000111
C48	C	0.144461	1.147455	0.070705
C49	C	0.222299	1.147544	0.071098
C50	C	0.302974	1.005173	-0.000090
C51	C	0.300560	0.934500	0.051800
C52	C	0.222333	0.935410	0.052323
C53	C	0.223327	0.932480	-0.122849
C54	C	0.300248	0.935154	-0.122660
C55	C	0.379240	1.005183	-0.000078
C56	C	0.091765	1.005125	-0.000119
C57	C	0.956102	1.005121	-0.000125
C58	C	1.030972	1.005109	-0.000133
C59	C	0.735491	1.005169	0.301423
C60	C	0.735487	1.005173	0.403757
C61	C	0.735503	1.306670	-0.000106
C62	C	0.735503	1.409001	-0.000108
C63	C	0.692409	1.122935	0.510715
C64	C	0.692417	1.122931	0.606865
C65	C	0.778583	0.887394	0.489085
C66	C	0.778579	0.887399	0.392938
C67	C	0.735509	1.005150	0.698379
C68	C	0.735499	1.005164	0.596054
C69	C	0.956102	0.703607	-0.000119
C70	C	1.030971	0.601264	-0.000126
C71	C	0.735513	0.703630	-0.301618
C72	C	0.735516	0.601295	-0.403950
C73	C	0.956113	0.703594	-0.301643
C74	C	1.030986	0.601247	-0.403983
C75	C	0.514891	1.306718	0.301442
C76	C	0.440018	1.409066	0.403782
C77	C	0.514903	1.306706	-0.000082
C78	C	0.440033	1.409049	-0.000075
C79	C	0.735491	1.306683	0.301417
C80	C	0.735488	1.409018	0.403749
C81	C	1.023052	0.553212	0.058765
C82	C	1.093393	0.457063	0.058781
C83	C	1.171653	0.408961	-0.000100
C84	C	1.179570	0.457023	-0.058992
C85	C	1.109230	0.553177	-0.059001
C86	C	1.109229	0.553179	-0.393170
C87	C	1.179587	0.457026	-0.489320
C88	C	1.171701	0.408937	-0.596283
C89	C	1.093449	0.457014	-0.607095
C90	C	1.023093	0.553172	-0.510945
C91	C	0.361775	1.457145	0.392969
C92	C	0.291417	1.553328	0.489119
C93	C	0.299304	1.601423	0.596082
C94	C	0.377555	1.553339	0.606894
C95	C	0.447911	1.457165	0.510744
C96	C	0.447952	1.457111	-0.058956
C97	C	0.377611	1.553286	-0.058946
C98	C	0.299352	1.601391	-0.000061
C99	C	0.291434	1.553325	0.058826
C100	C	0.361774	1.457158	0.058822
C101	C	0.778596	0.553206	-0.510910
C102	C	0.778590	0.457060	-0.607058
C103	C	0.692424	0.457096	-0.489274
C104	C	0.692425	0.553247	-0.393128
H105	H	0.813652	0.417925	0.106709
H106	H	0.657342	0.417962	-0.480476
H107	H	1.115666	0.592320	-0.306084
C108	C	0.377378	0.793142	-0.014419
N109	N	0.435262	0.686693	-0.064257
C110	C	0.825961	0.606099	0.123552
N111	N	0.861657	0.645913	0.172336
H112	H	1.228921	0.330666	-0.000084
H113	H	0.657339	1.218824	0.693951
C114	C	0.825972	0.757849	0.477197
N115	N	0.861662	0.660273	0.468240
H116	H	0.657355	0.592383	-0.106932
C117	C	0.645015	1.252490	0.522621
N118	N	0.609319	1.350075	0.531593
C119	C	0.250242	0.790848	-0.194466
N120	N	0.270507	0.684176	-0.248399
H121	H	0.813663	0.791497	0.305842
C122	C	1.084665	0.404202	0.123558
N123	N	1.078089	0.364386	0.172345
H124	H	0.227706	1.592507	0.106768
H125	H	0.383967	1.592510	0.693994
C126	C	0.534032	1.404220	-0.123732
N127	N	0.598865	1.364394	-0.172518
C128	C	1.265664	0.404087	-0.123766
N129	N	1.330511	0.364206	-0.172561
C130	C	0.221901	1.707207	0.701840
N131	N	0.163598	1.786879	0.781492
H132	H	0.959336	0.592375	0.106726
H133	H	0.657341	0.592404	-0.306031
H134	H	0.242083	1.679697	-0.000067
H135	H	1.115689	0.592288	-0.106963
C136	C	1.265656	0.404147	-0.477403
N137	N	1.330480	0.364318	-0.468423
C138	C	0.353080	1.404267	0.275318
N139	N	0.346523	1.364453	0.186706
C140	C	1.249103	0.303150	-0.702041
N141	N	1.307406	0.223467	-0.781693
C142	C	0.205349	1.606200	0.477202
N143	N	0.140524	1.646020	0.468222
H144	H	1.087040	0.417845	-0.694197
C145	C	0.825986	0.404161	-0.724713
N146	N	0.861688	0.364316	-0.813334
H147	H	0.959387	0.592296	-0.519765
H148	H	0.384074	1.592405	-0.106903
H149	H	0.511618	1.418019	0.519562
H150	H	0.657361	0.417933	-0.106935
H151	H	0.813680	0.592328	-0.519728
C152	C	0.091559	1.222913	0.023917
N153	N	0.051714	1.279746	-0.011332
C154	C	0.090548	1.222546	0.192288
N155	N	0.049942	1.279101	0.283864
H156	H	0.221022	1.203276	0.036563
H157	H	0.355315	1.418029	0.106766
H158	H	0.220521	1.203333	0.161635
H159	H	0.241682	0.830995	0.004079
C160	C	0.302628	1.000834	0.172666
N161	N	0.304175	1.050812	0.263708
C162	C	0.172957	1.003269	0.174340
N163	N	0.135770	1.054384	0.266245
C164	C	0.174276	0.994012	-0.181401
N165	N	0.137327	1.040374	-0.225490
H166	H	0.357709	0.831285	-0.179865
C167	C	0.299749	1.004759	-0.175036
N168	N	0.299379	1.057186	-0.214484
