data_functionalizedCrystal
_audit_creation_method	'MofGen! by Chris Wilmer'
_symmetry_space_group_name_H-M	'P1'
_symmetry_Int_Tables_number	1
_symmetry_cell_setting	triclinic
loop_
_symmetry_equiv_pos_as_xyz
  x,y,z
_cell_length_a	18.050590
_cell_length_b	18.050588
_cell_length_c	18.050582
_cell_angle_alpha	90.021152
_cell_angle_beta	89.999233
_cell_angle_gamma	90.018727
loop_
_atom_site_label
_atom_site_type_symbol
_atom_site_fract_x
_atom_site_fract_y
_atom_site_fract_z
Zn1	Zn	1.135286	-0.295921	0.419609
Zn2	Zn	1.135193	-0.420105	0.295422
Zn3	Zn	1.011105	-0.295910	0.295467
Zn4	Zn	1.011050	-0.420051	0.419605
O5	O	1.073158	-0.357997	0.357526
O6	O	1.239198	-0.312422	0.403118
O7	O	1.118717	-0.403648	0.191503
O8	O	1.027639	-0.191987	0.311955
O9	O	1.239130	-0.403659	0.311879
O10	O	1.118874	-0.191995	0.403162
O11	O	1.027550	-0.312402	0.191536
O12	O	0.907173	-0.312350	0.311951
O13	O	1.027546	-0.403567	0.523530
O14	O	0.907133	-0.403555	0.403154
O15	O	1.118821	-0.312370	0.523533
O16	O	1.118664	-0.524022	0.311874
O17	O	1.027456	-0.523982	0.403111
C18	C	0.880206	-0.357946	0.357558
C19	C	0.797660	-0.357942	0.357589
C20	C	0.598209	-0.407682	0.407067
C21	C	0.548818	-0.339967	0.425341
C22	C	0.646530	-0.357984	0.357553
C23	C	0.548840	-0.425737	0.339278
C24	C	0.500545	-0.358030	0.357519
C25	C	0.598226	-0.290233	0.375862
C26	C	0.598252	-0.376049	0.289767
C27	C	0.548883	-0.308287	0.308015
C28	C	0.730628	-0.357958	0.357574
C29	C	0.416448	-0.358047	0.357498
C30	C	1.073064	-0.550949	0.357503
C31	C	1.073092	-0.633495	0.357519
C32	C	1.023571	-0.882325	0.407133
C33	C	1.091288	-0.832870	0.425339
C34	C	1.073246	-0.930615	0.357560
C35	C	1.005457	-0.832989	0.339369
C36	C	1.073167	-0.784630	0.357542
C37	C	1.140999	-0.882246	0.375801
C38	C	1.055123	-0.882370	0.289799
C39	C	1.122886	-0.832936	0.307979
C40	C	1.073291	-1.014713	0.357573
C41	C	1.073130	-0.700533	0.357529
C42	C	1.266864	-0.358048	0.357494
C43	C	1.349410	-0.358070	0.357480
C44	C	1.073187	-0.357964	0.551231
C45	C	1.073200	-0.357950	0.633777
C46	C	1.073273	-0.164291	0.357564
C47	C	1.073322	-0.081745	0.357581
C48	C	1.073172	-0.357976	0.164574
C49	C	1.073304	-0.357781	0.082028
C50	C	1.023602	-0.407475	0.833226
C51	C	1.091357	-0.425641	0.882599
C52	C	1.073236	-0.357893	0.784908
C53	C	1.005519	-0.339706	0.882616
C54	C	1.073266	-0.357840	0.930893
C55	C	1.141027	-0.376095	0.833194
C56	C	1.055143	-0.290128	0.833206
C57	C	1.122945	-0.308269	0.882557
C58	C	1.073219	-0.357926	0.700809
C59	C	1.073291	-0.357807	1.014989
H60	H	0.527104	-0.324702	0.482651
H61	H	0.619870	-0.449636	0.448987
H62	H	0.948163	-0.811348	0.323991
C63	C	1.179651	-0.803818	0.251338
H64	H	1.227733	-0.820774	0.264375
H65	H	1.167216	-0.821515	0.203354
H66	H	1.179033	-0.751191	0.251354
H67	H	1.164980	-0.266316	0.904081
H68	H	0.619828	-0.232937	0.391368
H69	H	1.039802	-0.232860	0.811493
H70	H	0.948239	-0.324346	0.904325
C71	C	1.111962	-0.803495	0.502736
H72	H	1.155775	-0.774510	0.499391
H73	H	1.072677	-0.773821	0.521319
H74	H	1.120200	-0.844040	0.535246
H75	H	0.527143	-0.483016	0.323838
H76	H	0.981648	-0.904009	0.449096
H77	H	0.981668	-0.449460	0.811566
C78	C	1.112054	-0.503023	0.911917
H79	H	1.076730	-0.538215	0.895031
H80	H	1.159829	-0.516267	0.894269
H81	H	1.112353	-0.502329	0.964542
H82	H	1.198310	-0.903794	0.391245
H83	H	1.198324	-0.391520	0.811576
H84	H	0.619982	-0.391334	0.232474
C85	C	0.519798	-0.251479	0.251430
H86	H	0.490835	-0.276186	0.215072
H87	H	0.490159	-0.215704	0.276151
H88	H	0.560462	-0.227507	0.228149
C89	C	1.034427	-0.911773	0.212424
H90	H	0.986250	-0.894940	0.199578
H91	H	1.069193	-0.894129	0.177076
H92	H	1.035051	-0.964397	0.212889
