data_functionalizedCrystal
_audit_creation_method	'MofGen! by Chris Wilmer'
_symmetry_space_group_name_H-M	'P1'
_symmetry_Int_Tables_number	1
_symmetry_cell_setting	triclinic
loop_
_symmetry_equiv_pos_as_xyz
  x,y,z
_cell_length_a	14.853567
_cell_length_b	10.868271
_cell_length_c	14.853567
_cell_angle_alpha	89.998659
_cell_angle_beta	96.365070
_cell_angle_gamma	90.001344
loop_
_atom_site_label
_atom_site_type_symbol
_atom_site_fract_x
_atom_site_fract_y
_atom_site_fract_z
O1	O	1.196364	0.102227	-0.117705
O2	O	1.696364	0.602227	0.382295
O3	O	0.933905	0.102247	-0.131726
O4	O	1.433905	0.602247	0.368274
O5	O	1.072145	0.102240	0.006514
O6	O	1.572145	0.602240	0.506514
O7	O	1.058124	0.102233	-0.255945
O8	O	1.558124	0.602233	0.244055
O9	O	1.072134	-0.102405	0.006520
O10	O	1.572134	0.397595	0.506520
O11	O	0.933894	-0.102398	-0.131721
O12	O	1.433894	0.397602	0.368279
O13	O	1.196353	-0.102418	-0.117699
O14	O	1.696353	0.397582	0.382301
Zn15	Zn	1.065122	-0.134900	-0.124709
Zn16	Zn	1.565122	0.365100	0.375291
Zn17	Zn	1.065137	0.134728	-0.124716
Zn18	Zn	1.565137	0.634728	0.375284
O19	O	1.058113	-0.102411	-0.255940
O20	O	1.558113	0.397589	0.244060
C21	C	0.900311	-0.000073	-0.131088
C22	C	1.400311	0.499927	0.368912
C23	C	0.800227	-0.000065	-0.129184
C24	C	1.300227	0.499935	0.370816
C25	C	0.387693	-0.000090	-0.039019
C26	C	0.887693	0.499910	0.460981
C27	C	0.366412	-0.000093	-0.203251
C28	C	0.866412	0.499907	0.296749
C29	C	0.460446	-0.000089	-0.205041
C30	C	0.960446	0.499911	0.294959
C31	C	0.518108	-0.000084	-0.123819
C32	C	1.018108	0.499916	0.376181
C33	C	0.481736	-0.000083	-0.040806
C34	C	0.981736	0.499917	0.459194
C35	C	0.496825	-0.000078	-0.288053
C36	C	0.996825	0.499922	0.211947
C37	C	0.590864	-0.000073	-0.289846
C38	C	1.090864	0.499927	0.210154
C39	C	0.648528	-0.000076	-0.208623
C40	C	1.148528	0.499924	0.291377
C41	C	0.612150	-0.000076	-0.125607
C42	C	1.112150	0.499924	0.374393
C43	C	0.669812	-0.000071	-0.044384
C44	C	1.169812	0.499929	0.455616
C45	C	0.633437	-0.000080	0.038633
C46	C	1.133437	0.499920	0.538633
C47	C	0.539399	-0.000086	0.040417
C48	C	1.039399	0.499914	0.540417
C49	C	0.742565	-0.000070	-0.210407
C50	C	1.242565	0.499930	0.289593
C51	C	0.763855	-0.000064	-0.046172
C52	C	1.263855	0.499936	0.453828
N53	N	1.065118	-0.318914	-0.124704
N54	N	1.565118	0.181086	0.375296
C55	C	1.065132	-0.569920	-0.124714
C56	C	1.565132	-0.069920	0.375286
C57	C	1.065121	-0.430242	-0.124711
C58	C	1.565121	0.069758	0.375289
C59	C	1.229947	-0.000096	-0.118337
C60	C	1.729947	0.499904	0.381663
C61	C	1.330031	-0.000095	-0.120241
C62	C	1.830031	0.499905	0.379759
C63	C	1.071504	-0.000079	0.040106
C64	C	1.571504	0.499921	0.540106
C65	C	1.069601	-0.000068	0.140189
C66	C	1.569601	0.499932	0.640189
N67	N	1.065147	0.318743	-0.124715
N68	N	1.565147	0.818743	0.375285
C69	C	1.058754	-0.000090	-0.289531
C70	C	1.558754	0.499910	0.210469
C71	C	1.060657	-0.000092	-0.389615
C72	C	1.560657	0.499908	0.110385
C73	C	0.979435	-0.000085	0.552723
C74	C	1.479435	0.499915	1.052723
C75	C	1.143668	-0.000097	0.574004
C76	C	1.643668	0.499903	1.074004
C77	C	1.145458	-0.000090	0.479971
C78	C	1.645458	0.499910	0.979971
C79	C	1.064235	-0.000082	0.422309
C80	C	1.564235	0.499918	0.922309
C81	C	0.981223	-0.000081	0.458680
C82	C	1.481223	0.499919	0.958680
C83	C	1.228469	-0.000103	0.443591
C84	C	1.728469	0.499897	0.943591
C85	C	1.230262	-0.000097	0.349552
C86	C	1.730262	0.499903	0.849552
C87	C	1.149039	-0.000081	0.291889
C88	C	1.649039	0.499919	0.791889
C89	C	1.066023	-0.000079	0.328266
C90	C	1.566023	0.499921	0.828266
C91	C	0.984800	-0.000071	0.270604
C92	C	1.484800	0.499929	0.770604
C93	C	0.901783	-0.000060	0.306979
C94	C	1.401783	0.499940	0.806979
C95	C	0.899999	-0.000065	0.401017
C96	C	1.399999	0.499935	0.901017
C97	C	1.150823	-0.000076	0.197851
C98	C	1.650823	0.499924	0.697851
C99	C	0.986588	-0.000067	0.176561
C100	C	1.486588	0.499933	0.676561
H101	H	0.772178	-0.000065	-0.277998
H102	H	1.272178	0.499935	0.222002
O103	O	0.440944	-0.000020	-0.367030
O104	O	0.940944	0.499980	0.132970
C105	C	0.493211	-0.000036	-0.440684
C106	C	0.993211	0.499964	0.059316
H107	H	0.563364	0.038712	-0.417887
H108	H	1.063364	0.538712	0.082113
H109	H	0.458592	0.059382	-0.497594
H110	H	0.958592	0.559382	0.002406
H111	H	0.499941	-0.098210	-0.466128
H112	H	0.999941	0.401790	0.033872
O113	O	0.822802	-0.000105	0.251092
O114	O	1.322802	0.499895	0.751092
C115	C	0.749144	-0.000059	0.303354
C116	C	1.249144	0.499941	0.803354
H117	H	0.771930	-0.038803	0.373510
H118	H	1.271930	0.461197	0.873510
H119	H	0.692227	-0.059465	0.268735
H120	H	1.192227	0.440535	0.768735
H121	H	0.723714	0.098124	0.310076
H122	H	1.223714	0.598124	0.810076
H123	H	0.810798	-0.000064	0.019971
H124	H	1.310798	0.499936	0.519971
O125	O	0.310439	0.000124	-0.282169
O126	O	0.810439	0.500124	0.217831
C127	C	0.326958	0.106094	-0.332577
C128	C	0.826958	0.606094	0.167423
H129	H	0.359040	0.180175	-0.285025
H130	H	0.859040	0.680175	0.214975
H131	H	0.260286	0.141670	-0.368646
H132	H	0.760286	0.641670	0.131354
H133	H	0.374903	0.082130	-0.384819
H134	H	0.874903	0.582130	0.115181
H135	H	0.832411	-0.000057	0.430643
H136	H	1.332411	0.499943	0.930643
H137	H	0.680397	-0.000068	0.104764
H138	H	1.180397	0.499932	0.604764
H139	H	1.297860	-0.000105	0.319944
H140	H	1.797860	0.499895	0.819944
H141	H	1.209795	-0.000113	0.620958
H142	H	1.709795	0.499887	1.120958
H143	H	0.620472	-0.000065	-0.357443
H144	H	1.120472	0.499935	0.142557
O145	O	1.307447	-0.000161	0.499473
O146	O	1.807447	0.499839	0.999473
C147	C	1.381100	-0.000138	0.447205
C148	C	1.881100	0.499862	0.947205
H149	H	1.358304	-0.038888	0.377053
H150	H	1.858304	0.461112	0.877053
H151	H	1.438012	-0.059550	0.481826
H152	H	1.938012	0.440450	0.981826
H153	H	1.406542	0.098039	0.440472
H154	H	1.906542	0.598039	0.940472
H155	H	0.920445	-0.000056	0.129618
H156	H	1.420445	0.499944	0.629618
H157	H	0.509774	-0.000123	0.108005
H158	H	1.009774	0.499877	0.608005
H159	H	1.218414	-0.000093	0.168238
H160	H	1.718414	0.499907	0.668238
O161	O	0.352214	-0.000043	0.041542
O162	O	0.852214	0.499957	0.541542
C163	C	0.256850	-0.000089	0.025711
C164	C	0.756850	0.499911	0.525711
H165	H	0.234853	0.038652	-0.044617
H166	H	0.734853	0.538652	0.455383
H167	H	0.227906	0.059318	0.078835
H168	H	0.727906	0.559318	0.578835
H169	H	0.230676	-0.098272	0.030113
H170	H	0.730676	0.401728	0.530113
O171	O	0.898874	-0.000130	0.588202
O172	O	1.398874	0.499870	1.088202
C173	C	0.914706	-0.000097	0.683567
C174	C	1.414706	0.499903	1.183567
H175	H	0.985030	-0.038846	0.705561
H176	H	1.485030	0.461154	1.205561
H177	H	0.861577	-0.059505	0.712508
H178	H	1.361577	0.440495	1.212508
H179	H	0.910311	0.098083	0.709745
H180	H	1.410311	0.598083	1.209745
