data_functionalizedCrystal
_audit_creation_method	'MofGen! by Chris Wilmer'
_symmetry_space_group_name_H-M	'P1'
_symmetry_Int_Tables_number	1
_symmetry_cell_setting	triclinic
loop_
_symmetry_equiv_pos_as_xyz
  x,y,z
_cell_length_a	14.044220
_cell_length_b	14.519709
_cell_length_c	13.101018
_cell_angle_alpha	93.379581
_cell_angle_beta	93.666689
_cell_angle_gamma	91.565489
loop_
_atom_site_label
_atom_site_type_symbol
_atom_site_fract_x
_atom_site_fract_y
_atom_site_fract_z
O1	O	1.252875	-0.227025	-0.085111
O2	O	1.752875	0.272975	0.414889
O3	O	0.976891	-0.219003	-0.085137
O4	O	1.476891	0.280997	0.414863
O5	O	1.122201	-0.089365	-0.085114
O6	O	1.622201	0.410635	0.414886
O7	O	1.107565	-0.356663	-0.085134
O8	O	1.607565	0.143337	0.414866
O9	O	1.132618	-0.080034	0.085318
O10	O	1.632618	0.419966	0.585318
O11	O	0.987308	-0.209671	0.085295
O12	O	1.487308	0.290329	0.585295
O13	O	1.263292	-0.217694	0.085321
O14	O	1.763292	0.282306	0.585321
Zn15	Zn	1.126954	-0.212201	0.112368
Zn16	Zn	1.626954	0.287799	0.612368
Zn17	Zn	1.113229	-0.224496	-0.112184
Zn18	Zn	1.613229	0.275504	0.387816
O19	O	1.117982	-0.347332	0.085298
O20	O	1.617982	0.152668	0.585298
C21	C	0.946779	-0.210825	0.000076
C22	C	1.446779	0.289175	0.500076
C23	C	0.841535	-0.200348	0.000066
C24	C	1.341535	0.299652	0.500066
C25	C	0.648842	-0.181193	0.000088
C26	C	1.148842	0.318807	0.500088
C27	C	0.591335	-0.255501	0.000087
C28	C	1.091335	0.244499	0.500087
C29	C	0.484114	-0.244842	0.000099
C30	C	0.984114	0.255158	0.500099
C31	C	0.756073	-0.191850	0.000076
C32	C	1.256073	0.308150	0.500076
C33	C	1.126727	-0.050285	0.000102
C34	C	1.626727	0.449715	0.500102
C35	C	1.124684	0.052261	0.000102
C36	C	1.624684	0.552261	0.500102
C37	C	1.293404	-0.225872	0.000106
C38	C	1.793404	0.274128	0.500106
C39	C	1.398648	-0.236349	0.000108
C40	C	1.898648	0.263651	0.500108
C41	C	1.113456	-0.386412	0.000080
C42	C	1.613456	0.113588	0.500080
C43	C	1.115499	-0.488959	0.000072
C44	C	1.615499	0.011041	0.500072
N45	N	1.103863	-0.232879	-0.265434
N46	N	1.603863	0.267121	0.234566
C47	C	1.117158	0.427762	0.000075
C48	C	1.617158	0.927762	0.500075
C49	C	1.119248	0.323286	0.000083
C50	C	1.619248	0.823286	0.500083
C51	C	1.120921	0.240015	0.000090
C52	C	1.620921	0.740015	0.500090
C53	C	1.123011	0.135532	0.000096
C54	C	1.623011	0.635532	0.500096
C55	C	1.149075	-0.192409	-0.525337
C56	C	1.649075	0.307591	-0.025337
C57	C	1.091119	-0.244278	-0.474473
C58	C	1.591119	0.255722	0.025527
C59	C	1.098212	-0.237934	-0.358153
C60	C	1.598212	0.262066	0.141847
C61	C	1.141983	-0.198752	-0.641667
C62	C	1.641983	0.301248	-0.141667
N63	N	1.136328	-0.203811	0.265618
N64	N	1.636328	0.296189	0.765618
H65	H	0.622627	-0.327123	0.000076
H66	H	1.122627	0.172877	0.500076
C67	C	0.606575	-0.084445	0.000089
C68	C	1.106575	0.415555	0.500089
H69	H	0.539009	-0.089885	0.000085
H70	H	1.039009	0.410115	0.500085
H71	H	0.630951	-0.048621	0.059517
H72	H	1.130951	0.451379	0.559517
H73	H	0.623669	-0.055148	-0.059357
H74	H	1.123669	0.444852	0.440643
H75	H	1.036175	-0.293448	-0.518287
H76	H	1.536175	0.206552	-0.018287
C77	C	1.223286	-0.125980	-0.466156
C78	C	1.723286	0.374020	0.033844
H79	H	1.218367	-0.130372	-0.394608
H80	H	1.718367	0.369628	0.105392
H81	H	1.285557	-0.142048	-0.483665
H82	H	1.785557	0.357952	0.016335
H83	H	1.211700	-0.064529	-0.483666
H84	H	1.711700	0.435471	0.016334
