data_functionalizedCrystal
_audit_creation_method	'MofGen! by Chris Wilmer'
_symmetry_space_group_name_H-M	'P1'
_symmetry_Int_Tables_number	1
_symmetry_cell_setting	triclinic
loop_
_symmetry_equiv_pos_as_xyz
  x,y,z
_cell_length_a	18.101398
_cell_length_b	18.101395
_cell_length_c	18.101389
_cell_angle_alpha	89.979213
_cell_angle_beta	89.987605
_cell_angle_gamma	90.029256
loop_
_atom_site_label
_atom_site_type_symbol
_atom_site_fract_x
_atom_site_fract_y
_atom_site_fract_z
Zn1	Zn	1.132107	-0.294915	-0.418650
Zn2	Zn	1.132007	-0.418749	-0.294812
Zn3	Zn	1.008270	-0.294922	-0.294832
Zn4	Zn	1.008216	-0.418715	-0.418622
O5	O	1.070150	-0.356825	-0.356729
O6	O	1.235726	-0.311353	-0.402225
O7	O	1.115573	-0.402340	-0.191181
O8	O	1.024761	-0.191288	-0.311277
O9	O	1.235653	-0.402334	-0.311242
O10	O	1.115744	-0.191283	-0.402245
O11	O	1.024664	-0.311365	-0.191197
O12	O	0.904630	-0.311332	-0.311250
O13	O	1.024670	-0.402276	-0.522258
O14	O	0.904591	-0.402283	-0.402198
O15	O	1.115692	-0.311320	-0.522279
O16	O	1.115522	-0.522378	-0.311215
O17	O	1.024573	-0.522353	-0.402178
C18	C	0.877739	-0.356805	-0.356724
C19	C	0.795425	-0.356814	-0.356739
C20	C	1.070051	-0.549236	-0.356707
C21	C	1.070076	-0.631550	-0.356722
C22	C	0.644717	-0.356828	-0.356738
C23	C	0.613363	-0.414139	-0.413871
C24	C	0.527745	-0.414371	-0.413702
C25	C	0.496334	-0.356842	-0.356738
C26	C	0.527390	-0.377660	-0.278597
C27	C	0.613035	-0.378068	-0.278927
C28	C	0.613195	-0.278556	-0.377064
C29	C	0.527545	-0.278985	-0.378785
C30	C	0.412475	-0.356848	-0.356733
C31	C	0.728576	-0.356823	-0.356737
C32	C	1.070239	-0.930641	-0.356762
C33	C	1.013149	-0.899331	-0.414136
C34	C	1.012878	-0.813713	-0.413956
C35	C	1.070158	-0.782258	-0.356743
C36	C	1.049032	-0.813400	-0.278695
C37	C	1.048664	-0.899045	-0.279039
C38	C	1.148580	-0.898989	-0.376750
C39	C	1.148119	-0.813339	-0.378461
C40	C	1.070114	-0.698399	-0.356728
C41	C	1.070281	-1.014500	-0.356773
C42	C	1.263312	-0.356846	-0.356734
C43	C	1.345626	-0.356855	-0.356737
C44	C	1.070186	-0.356793	-0.549891
C45	C	1.070202	-0.356780	-0.632205
C46	C	1.070270	-0.163663	-0.356767
C47	C	1.070321	-0.081349	-0.356783
C48	C	1.070229	-0.356722	-0.782913
C49	C	1.012970	-0.413937	-0.814254
C50	C	1.012762	-0.413736	-0.899873
C51	C	1.070257	-0.356667	-0.931296
C52	C	1.049370	-0.278571	-0.900213
C53	C	1.048938	-0.278934	-0.814568
C54	C	1.148526	-0.376908	-0.814475
C55	C	1.148122	-0.378597	-0.900126
C56	C	1.070273	-0.356630	-1.015156
C57	C	1.070211	-0.356753	-0.699054
C58	C	1.070156	-0.356804	-0.164318
C59	C	1.070285	-0.356609	-0.082005
H60	H	0.506748	-0.401386	-0.471633
C61	C	1.030364	-0.491956	-0.928267
H62	H	1.037704	-0.524143	-0.887459
H63	H	1.073915	-0.490543	-0.957523
H64	H	0.990316	-0.509448	-0.957327
H65	H	0.991397	-0.919085	-0.262107
H66	H	0.507045	-0.337196	-0.234859
H67	H	0.505911	-0.434242	-0.261125
C68	C	0.642371	-0.252875	-0.452760
H69	H	0.674056	-0.289652	-0.472676
H70	H	0.669069	-0.208056	-0.446979
H71	H	0.601975	-0.245096	-0.485338
C72	C	1.102385	-0.927032	-0.219313
H73	H	1.124332	-0.886057	-0.194944
H74	H	1.139835	-0.956147	-0.241730
H75	H	1.076116	-0.956148	-0.184406
C76	C	1.030361	-0.492428	-0.786441
H77	H	0.995181	-0.526124	-0.805983
H78	H	1.028163	-0.493318	-0.734015
H79	H	1.078471	-0.506270	-0.802177
H80	H	0.633473	-0.235859	-0.335455
C81	C	1.102844	-0.219364	-0.786552
H82	H	1.102949	-0.219185	-0.734068
H83	H	1.087665	-0.172330	-0.804192
H84	H	1.151180	-0.229834	-0.804105
C85	C	1.208620	-0.784424	-0.326117
H86	H	1.187028	-0.752881	-0.290169
H87	H	1.244333	-0.757627	-0.353728
H88	H	1.231813	-0.824935	-0.302141
C89	C	0.935179	-0.928485	-0.396486
H90	H	0.901029	-0.909309	-0.431413
H91	H	0.921295	-0.913233	-0.348236
H92	H	0.935112	-0.980910	-0.398935
H93	H	1.089305	-0.793026	-0.234783
C94	C	1.206044	-0.926339	-0.320306
H95	H	1.253268	-0.907027	-0.332669
H96	H	1.207795	-0.978780	-0.321140
H97	H	1.192518	-0.910070	-0.272282
C98	C	0.934401	-0.395631	-0.927561
H99	H	0.902573	-0.388363	-0.886466
H100	H	0.916498	-0.435428	-0.956704
H101	H	0.935788	-0.351916	-0.956587
C102	C	0.971633	-0.255874	-0.787583
H103	H	0.940787	-0.246376	-0.828963
H104	H	0.975548	-0.212476	-0.758352
H105	H	0.950865	-0.294556	-0.758798
C106	C	1.206159	-0.320622	-0.787094
H107	H	1.253356	-0.333105	-0.806352
H108	H	1.207870	-0.321474	-0.734651
H109	H	1.192807	-0.272559	-0.803399
H110	H	0.955284	-0.400719	-0.792735
C111	C	0.500121	-0.257759	-0.456466
H112	H	0.469774	-0.296177	-0.475388
H113	H	0.541288	-0.250685	-0.488250
H114	H	0.472362	-0.213320	-0.453678
C115	C	1.103987	-0.219381	-0.927712
H116	H	1.140097	-0.241824	-0.958470
H117	H	1.127578	-0.196890	-0.886590
H118	H	1.077977	-0.182917	-0.955056
H119	H	0.634852	-0.471810	-0.400549
C120	C	0.972925	-0.255077	-0.929188
H121	H	0.953636	-0.292751	-0.960218
H122	H	0.977532	-0.210517	-0.956544
H123	H	0.940440	-0.247486	-0.888673
H124	H	1.163875	-0.436073	-0.920439
C125	C	0.972484	-0.784520	-0.255413
H126	H	0.953299	-0.753493	-0.293146
H127	H	0.976916	-0.757182	-0.210847
H128	H	0.940006	-0.825076	-0.247899
C129	C	1.208820	-0.326409	-0.929009
H130	H	1.187372	-0.290398	-0.960592
H131	H	1.244457	-0.354112	-0.955756
H132	H	1.232068	-0.302502	-0.888489
H133	H	0.954810	-0.793286	-0.400717
H134	H	0.507223	-0.472375	-0.400217
C135	C	1.030818	-0.927097	-0.492572
H136	H	0.995735	-0.907576	-0.526365
H137	H	1.028657	-0.979524	-0.493448
H138	H	1.078963	-0.911309	-0.506298
C139	C	0.639980	-0.455347	-0.255728
H140	H	0.598584	-0.486198	-0.246194
H141	H	0.669203	-0.451389	-0.212325
H142	H	0.668765	-0.476139	-0.294364
H143	H	0.633982	-0.401305	-0.471982
C144	C	1.174270	-0.452559	-0.785303
H145	H	1.137504	-0.472542	-0.753598
H146	H	1.219075	-0.446688	-0.758624
H147	H	1.182096	-0.485126	-0.825694
H148	H	0.633776	-0.338108	-0.234898
C149	C	1.174601	-0.928102	-0.452324
H150	H	1.137925	-0.959835	-0.472395
H151	H	1.219404	-0.954737	-0.446326
H152	H	1.182508	-0.887689	-0.484882
H153	H	0.506165	-0.234031	-0.340239
C154	C	1.169651	-0.785831	-0.456049
H155	H	1.131297	-0.755528	-0.475132
H156	H	1.176873	-0.826966	-0.487807
H157	H	1.214066	-0.758009	-0.453071
H158	H	1.026095	-0.792656	-0.471828
