data_functionalizedCrystal
_audit_creation_method	'MofGen! by Chris Wilmer'
_symmetry_space_group_name_H-M	'P1'
_symmetry_Int_Tables_number	1
_symmetry_cell_setting	triclinic
loop_
_symmetry_equiv_pos_as_xyz
  x,y,z
_cell_length_a	14.971486
_cell_length_b	19.188930
_cell_length_c	13.448316
_cell_angle_alpha	89.988273
_cell_angle_beta	89.998199
_cell_angle_gamma	83.379455
loop_
_atom_site_label
_atom_site_type_symbol
_atom_site_fract_x
_atom_site_fract_y
_atom_site_fract_z
O1	O	1.186467	0.090988	-0.082589
O2	O	0.926009	0.101884	-0.082618
O3	O	1.063754	-0.005195	-0.082583
O4	O	1.048722	0.198067	-0.082624
O5	O	1.063737	-0.005202	0.082801
O6	O	0.925992	0.101877	0.082766
O7	O	1.186450	0.090981	0.082795
Cu8	Cu	1.056219	0.096429	0.097881
Cu9	Cu	1.056239	0.096437	-0.097704
O10	O	1.048704	0.198061	0.082760
C11	C	0.892678	0.101393	0.000071
C12	C	0.793389	0.099933	0.000061
C13	C	0.735831	0.162839	0.000050
C14	C	0.642539	0.161463	0.000065
C15	C	0.606806	0.097180	0.000084
C16	C	0.664371	0.034269	0.000098
C17	C	0.757662	0.035646	0.000090
C18	C	0.469924	0.031403	0.000112
C19	C	0.376627	0.030026	0.000119
C20	C	0.354801	0.157221	0.000087
C21	C	0.448092	0.158598	0.000079
C22	C	0.505650	0.095686	0.000091
C23	C	1.063259	-0.031211	0.000112
C24	C	1.061797	-0.108721	0.000120
C25	C	1.142622	-0.153384	0.000134
C26	C	1.141249	-0.226213	0.000118
C27	C	1.059047	-0.254374	0.000108
C28	C	0.978212	-0.209700	0.000089
C29	C	0.979587	-0.136874	0.000095
N30	N	0.996208	-0.362583	0.056384
N31	N	0.994907	-0.431766	0.056381
C32	C	1.054899	-0.473796	0.000087
N33	N	1.116254	-0.444030	-0.056190
N34	N	1.117558	-0.374842	-0.056182
C35	C	1.057547	-0.333341	0.000101
C36	C	1.134240	-0.597429	0.000082
C37	C	1.132864	-0.670258	0.000060
C38	C	0.969825	-0.653744	0.000041
C39	C	0.971203	-0.580916	0.000053
C40	C	1.053413	-0.552763	0.000078
C41	C	1.219780	0.091472	0.000104
C42	C	1.319070	0.092932	0.000107
C43	C	1.049200	0.224077	0.000063
C44	C	1.050661	0.301586	0.000048
N45	N	1.056211	0.096423	0.235446
N46	N	1.056254	0.096437	-0.235268
C47	C	1.117224	0.049028	0.287501
C48	C	1.117229	0.049027	0.391604
C49	C	1.056226	0.096426	0.443650
C50	C	0.995207	0.143823	0.391587
C51	C	0.995198	0.143820	0.287486
C52	C	0.995232	0.143828	0.608567
C53	C	0.995242	0.143832	0.712676
C54	C	1.117263	0.049035	0.712686
C55	C	1.117254	0.049032	0.608585
C56	C	1.056236	0.096430	0.556529
H57	H	0.477182	0.210943	0.000054
N58	N	0.532010	-0.036448	0.000120
H59	H	0.571205	-0.038716	0.061425
H60	H	0.495158	-0.077343	0.000092
N61	N	0.292758	0.225093	0.000098
H62	H	0.253550	0.227382	-0.061199
H63	H	0.253637	0.227324	0.061458
H64	H	0.347537	-0.022319	0.000135
N65	N	0.625826	-0.035063	0.000130
H66	H	0.587605	-0.038469	-0.061173
H67	H	0.676493	-0.074667	0.000178
N68	N	0.889552	-0.240071	0.000092
H69	H	0.838556	-0.200723	0.000087
H70	H	0.885435	-0.269921	-0.061217
H71	H	0.804525	-0.015579	0.000099
H72	H	1.209564	-0.130467	0.000151
N73	N	0.881168	-0.684116	0.000038
H74	H	0.845766	-0.667845	0.061344
H75	H	0.845843	-0.667817	-0.061312
N76	N	1.228426	-0.274398	0.000130
H77	H	1.280713	-0.245512	0.000145
H78	H	1.231391	-0.304983	0.061439
H79	H	1.198683	-0.706623	0.000065
N80	N	0.892414	-0.088690	0.000087
H81	H	0.856541	-0.097738	-0.061226
H82	H	0.856600	-0.097787	0.061430
N83	N	1.222903	-0.567057	0.000105
H84	H	1.273899	-0.606405	0.000103
H85	H	1.227031	-0.537186	-0.061199
H86	H	0.945566	0.182428	0.755046
N87	N	0.884028	-0.532737	0.000044
H88	H	0.831743	-0.561626	0.000036
H89	H	0.881042	-0.502173	0.061356
H90	H	1.166903	0.010433	0.245132
N91	N	1.183066	-0.002068	0.447751
H92	H	1.221723	-0.032084	0.398984
H93	H	1.222485	0.024744	0.490909
H94	H	1.166931	0.010440	0.566209
N95	N	1.183079	-0.002087	0.768824
H96	H	1.173828	0.005103	0.842669
H97	H	1.172949	-0.051633	0.750644
N98	N	0.929417	0.194946	0.552418
H99	H	0.890775	0.224976	0.601183
H100	H	0.963533	0.225855	0.509209
N101	N	0.929415	0.194945	0.447727
H102	H	0.939515	0.244512	0.429588
H103	H	0.865994	0.186761	0.429605
H104	H	0.945515	0.182413	0.245103
H105	H	0.764917	0.215186	0.000034
H106	H	0.595679	0.212688	0.000055
