data_functionalizedCrystal
_audit_creation_method	'MofGen! by Chris Wilmer'
_symmetry_space_group_name_H-M	'P1'
_symmetry_Int_Tables_number	1
_symmetry_cell_setting	triclinic
loop_
_symmetry_equiv_pos_as_xyz
  x,y,z
_cell_length_a	17.000383
_cell_length_b	17.019294
_cell_length_c	13.101039
_cell_angle_alpha	89.487532
_cell_angle_beta	86.906869
_cell_angle_gamma	79.506204
loop_
_atom_site_label
_atom_site_type_symbol
_atom_site_fract_x
_atom_site_fract_y
_atom_site_fract_z
O1	O	1.060563	0.023661	-0.087373
O2	O	0.828927	0.052154	-0.089873
O3	O	0.950689	-0.076820	-0.078495
O4	O	0.938800	0.152635	-0.098751
O5	O	0.941953	-0.067552	0.091117
O6	O	0.820190	0.061423	0.079739
O7	O	1.051826	0.032929	0.082240
Zn8	Zn	0.934621	0.048647	0.107919
Zn9	Zn	0.946132	0.036436	-0.115552
O10	O	0.930064	0.161903	0.070861
C11	C	0.794910	0.058319	-0.005200
C12	C	0.706567	0.062869	-0.005596
C13	C	0.206452	0.092249	-0.008228
C14	C	0.289460	0.087968	-0.007850
C15	C	0.340202	0.013650	-0.001281
C16	C	0.307932	-0.056390	0.004899
C17	C	0.224925	-0.052109	0.004513
C18	C	0.591290	-0.002889	0.000197
C19	C	0.674302	-0.007166	0.000586
C20	C	0.655825	0.137193	-0.012164
C21	C	0.572817	0.141468	-0.012544
C22	C	0.540554	0.071427	-0.006369
C23	C	0.425050	0.009272	-0.000890
C24	C	0.455708	0.075806	-0.006767
C25	C	0.945698	-0.101400	0.008888
C26	C	0.943832	-0.188449	0.016567
C27	C	0.947719	-0.234392	-0.072281
C28	C	0.945961	-0.316182	-0.065063
C29	C	0.940321	-0.352029	0.031004
C30	C	0.936431	-0.306079	0.119858
C31	C	0.938183	-0.224289	0.112639
C32	C	0.934785	-0.598728	0.057426
C33	C	0.933034	-0.680525	0.064638
C34	C	0.942563	-0.690622	-0.120283
C35	C	0.944320	-0.608831	-0.127494
C36	C	0.940426	-0.562888	-0.038640
C37	C	0.938525	-0.435632	0.038384
C38	C	0.942215	-0.479285	-0.046021
C39	C	1.085843	0.026765	-0.002435
C40	C	1.174187	0.022214	-0.002046
C41	C	0.935055	0.186484	-0.016524
C42	C	0.936922	0.273532	-0.024209
N43	N	0.926772	0.056980	0.260432
N44	N	0.953988	0.028097	-0.268065
C45	C	0.916092	0.068325	0.468474
C46	C	0.964665	0.016755	0.523899
C47	C	0.958723	0.023067	0.639661
C48	C	0.922033	0.062013	0.352702
H49	H	0.165142	0.152767	-0.013569
F50	F	0.323795	0.162509	-0.014435
H51	H	0.870048	0.117212	0.507958
H52	H	0.945732	-0.728038	-0.192623
H53	H	1.010713	-0.032135	0.484410
H54	H	0.531508	0.201985	-0.017895
F55	F	0.690167	0.211729	-0.018741
H56	H	0.715615	-0.067687	0.005930
H57	H	0.931833	-0.335271	0.198077
H58	H	0.946802	-0.450094	-0.124238
F59	F	0.556966	-0.077435	0.006749
H60	H	0.349253	-0.116901	0.010241
F61	F	0.401705	0.154896	-0.013764
F62	F	0.190587	-0.126650	0.011093
F63	F	0.927035	-0.718674	0.166890
F64	F	0.953728	-0.196250	-0.174529
F65	F	0.479059	-0.069819	0.006109
H66	H	0.949130	-0.353587	-0.137412
H67	H	0.935007	-0.186881	0.184988
F68	F	0.950325	-0.570687	-0.229741
H69	H	0.931629	-0.561334	0.129778
H70	H	0.933936	-0.464828	0.116602
