data_functionalizedCrystal
_audit_creation_method	'MofGen! by Chris Wilmer'
_symmetry_space_group_name_H-M	'P1'
_symmetry_Int_Tables_number	1
_symmetry_cell_setting	triclinic
loop_
_symmetry_equiv_pos_as_xyz
  x,y,z
_cell_length_a	27.732064
_cell_length_b	27.732048
_cell_length_c	15.186229
_cell_angle_alpha	89.991324
_cell_angle_beta	90.004285
_cell_angle_gamma	82.646040
loop_
_atom_site_label
_atom_site_type_symbol
_atom_site_fract_x
_atom_site_fract_y
_atom_site_fract_z
O1	O	0.640921	0.057555	-0.073081
O2	O	1.140921	0.557555	0.426919
O3	O	0.500129	0.066292	-0.073118
O4	O	1.000129	0.566292	0.426882
O5	O	0.574898	-0.008473	-0.073082
O6	O	1.074898	0.491527	0.426918
O7	O	0.566152	0.132320	-0.073118
O8	O	1.066152	0.632320	0.426882
O9	O	0.574893	-0.008474	0.073376
O10	O	1.074893	0.491526	0.573376
O11	O	0.500124	0.066291	0.073339
O12	O	1.000124	0.566291	0.573339
O13	O	0.640916	0.057554	0.073376
O14	O	1.140916	0.557554	0.573376
Zn15	Zn	0.570519	0.061922	0.096611
Zn16	Zn	1.070519	0.561922	0.596611
Zn17	Zn	0.570526	0.061923	-0.096353
Zn18	Zn	1.070526	0.561923	0.403647
O19	O	0.566147	0.132319	0.073340
O20	O	1.066147	0.632319	0.573340
C21	C	0.482120	0.066106	0.000106
C22	C	0.982120	0.566106	0.500106
C23	C	0.428465	0.065551	0.000092
C24	C	0.928465	0.565551	0.500092
C25	C	0.051392	0.017583	0.000154
C26	C	0.551392	0.517583	0.500154
C27	C	0.253053	0.019630	0.000131
C28	C	0.753053	0.519630	0.500131
O29	O	0.284305	-0.017591	0.000173
O30	O	0.784305	0.482409	0.500173
N31	N	0.272180	0.063964	0.000116
N32	N	0.772180	0.563964	0.500116
C33	C	0.240889	0.107790	0.000112
C34	C	0.740889	0.607790	0.500112
O35	O	0.261785	0.145546	0.000108
O36	O	0.761785	0.645546	0.500108
C37	C	0.039230	0.105743	0.000142
C38	C	0.539230	0.605743	0.500142
C39	C	0.020105	0.061406	0.000148
C40	C	0.520105	0.561406	0.500148
C41	C	0.032267	-0.026750	0.000162
C42	C	0.532267	0.473250	0.500162
C43	C	-0.018145	-0.027261	0.000163
C44	C	0.481855	0.472739	0.500163
C45	C	-0.049432	0.016561	0.000157
C46	C	0.450568	0.516561	0.500157
C47	C	-0.030307	0.060895	0.000149
C48	C	0.469693	0.560895	0.500149
C49	C	0.007940	0.149568	0.000145
C50	C	0.507940	0.649568	0.500145
C51	C	-0.042478	0.149053	0.000154
C52	C	0.457522	0.649053	0.500154
C53	C	-0.061602	0.104716	0.000161
C54	C	0.438398	0.604716	0.500161
C55	C	-0.112006	0.104206	0.000144
C56	C	0.387994	0.604206	0.500144
N57	N	-0.131134	0.059872	0.000159
N58	N	0.368866	0.559872	0.500159
C59	C	-0.099846	0.016049	0.000166
C60	C	0.400154	0.516049	0.500166
C61	C	0.346763	0.108861	0.000095
C62	C	0.846763	0.608861	0.500095
C63	C	0.397178	0.109373	0.000086
C64	C	0.897178	0.609373	0.500086
C65	C	0.409338	0.021213	0.000106
C66	C	0.909338	0.521213	0.500106
C67	C	0.358923	0.020701	0.000109
C68	C	0.858923	0.520701	0.500109
C69	C	0.327636	0.064527	0.000110
C70	C	0.827636	0.564527	0.500110
C71	C	-0.205716	0.014979	0.000167
C72	C	0.294284	0.514979	0.500167
C73	C	-0.256133	0.014472	0.000164
C74	C	0.243867	0.514472	0.500164
C75	C	-0.268289	0.102632	0.000149
C76	C	0.231711	0.602632	0.500149
C77	C	-0.217876	0.103140	0.000147
C78	C	0.282124	0.603140	0.500147
C79	C	-0.186590	0.059309	0.000159
C80	C	0.313410	0.559309	0.500159
O81	O	-0.143287	0.141407	0.000112
O82	O	0.356713	0.641407	0.500112
O83	O	-0.120752	-0.021701	0.000190
O84	O	0.379248	0.478299	0.500190
C85	C	0.101805	0.018094	0.000153
C86	C	0.601805	0.518094	0.500153
C87	C	0.120930	0.062428	0.000146
C88	C	0.620930	0.562428	0.500146
C89	C	0.089642	0.106250	0.000140
C90	C	0.589642	0.606250	0.500140
C91	C	0.171344	0.062940	0.000137
C92	C	0.671344	0.562940	0.500137
C93	C	0.202631	0.019117	0.000143
C94	C	0.702631	0.519117	0.500143
C95	C	0.183504	-0.025217	0.000159
C96	C	0.683504	0.474783	0.500159
C97	C	0.133092	-0.025728	0.000160
C98	C	0.633092	0.474272	0.500160
C99	C	0.108770	0.150585	0.000125
C100	C	0.608770	0.650585	0.500125
C101	C	0.159183	0.151092	0.000123
C102	C	0.659183	0.651092	0.500123
C103	C	0.190470	0.107270	0.000129
C104	C	0.690470	0.607270	0.500129
C105	C	0.574712	-0.026481	0.000149
C106	C	1.074712	0.473519	0.500149
C107	C	0.574159	-0.080136	0.000156
C108	C	1.074159	0.419864	0.500156
C109	C	0.614862	-0.418948	0.000122
C110	C	1.114862	0.081052	0.500122
C111	C	0.612811	-0.620608	0.000109
C112	C	1.112811	-0.120608	0.500109
O113	O	0.650032	-0.651862	0.000081
O114	O	1.150032	-0.151862	0.500081
N115	N	0.568476	-0.639735	0.000098
N116	N	1.068476	-0.139735	0.500098
C117	C	0.524651	-0.608442	0.000085
C118	C	1.024651	-0.108442	0.500085
O119	O	0.486895	-0.629338	0.000066
O120	O	0.986895	-0.129338	0.500066
C121	C	0.526703	-0.406784	0.000091
C122	C	1.026703	0.093216	0.500091
C123	C	0.571040	-0.387660	0.000111
C124	C	1.071040	0.112340	0.500111
C125	C	0.659196	-0.399824	0.000141
C126	C	1.159196	0.100176	0.500141
C127	C	0.659709	-0.349412	0.000149
C128	C	1.159709	0.150588	0.500149
C129	C	0.615887	-0.318124	0.000138
C130	C	1.115887	0.181876	0.500138
C131	C	0.571553	-0.337248	0.000119
C132	C	1.071553	0.162752	0.500119
C133	C	0.482878	-0.375493	0.000071
C134	C	0.982878	0.124507	0.500071
C135	C	0.483395	-0.325075	0.000071
C136	C	0.983395	0.174925	0.500071
C137	C	0.527733	-0.305952	0.000091
C138	C	1.027733	0.194048	0.500091
C139	C	0.528243	-0.255548	0.000116
C140	C	1.028243	0.244452	0.500116
N141	N	0.572578	-0.236422	0.000127
N142	N	1.072578	0.263578	0.500127
C143	C	0.616400	-0.267710	0.000138
C144	C	1.116400	0.232290	0.500138
C145	C	0.523577	-0.714317	0.000083
C146	C	1.023577	-0.214317	0.500083
C147	C	0.523064	-0.764731	0.000083
C148	C	1.023064	-0.264731	0.500083
C149	C	0.611225	-0.776893	0.000106
C150	C	1.111225	-0.276893	0.500106
C151	C	0.611737	-0.726478	0.000112
C152	C	1.111737	-0.226478	0.500112
C153	C	0.567912	-0.695190	0.000094
C154	C	1.067912	-0.195190	0.500094
C155	C	0.617472	-0.161841	0.000156
C156	C	1.117472	0.338159	0.500156
C157	C	0.617981	-0.111424	0.000167
C158	C	1.117981	0.388576	0.500167
C159	C	0.529821	-0.099266	0.000140
C160	C	1.029821	0.400734	0.500140
C161	C	0.529312	-0.149679	0.000133
C162	C	1.029312	0.350321	0.500133
C163	C	0.573142	-0.180965	0.000138
C164	C	1.073142	0.319035	0.500138
O165	O	0.491043	-0.224267	0.000135
O166	O	0.991043	0.275733	0.500135
O167	O	0.654151	-0.246805	0.000137
O168	O	1.154151	0.253195	0.500137
C169	C	0.614350	-0.469360	0.000114
C170	C	1.114350	0.030640	0.500114
C171	C	0.570016	-0.488484	0.000095
C172	C	1.070016	0.011516	0.500095
C173	C	0.526194	-0.457196	0.000084
C174	C	1.026194	0.042804	0.500084
C175	C	0.569503	-0.538899	0.000095
C176	C	1.069503	-0.038899	0.500095
C177	C	0.613325	-0.570187	0.000106
C178	C	1.113325	-0.070187	0.500106
C179	C	0.657660	-0.551060	0.000117
C180	C	1.157660	-0.051060	0.500117
C181	C	0.658172	-0.500648	0.000125
C182	C	1.158172	-0.000648	0.500125
C183	C	0.481859	-0.476323	0.000073
C184	C	0.981859	0.023677	0.500073
C185	C	0.481351	-0.526735	0.000066
C186	C	0.981351	-0.026735	0.500066
C187	C	0.525172	-0.558023	0.000077
C188	C	1.025172	-0.058023	0.500077
C189	C	0.658925	0.057739	0.000150
C190	C	1.158925	0.557739	0.500150
C191	C	0.712580	0.058295	0.000158
C192	C	1.212580	0.558295	0.500158
C193	C	0.566333	0.150326	0.000107
C194	C	1.066333	0.650326	0.500107
C195	C	0.566886	0.203981	0.000094
C196	C	1.066886	0.703981	0.500094
N197	N	0.570518	0.061921	0.228304
N198	N	1.070518	0.561921	0.728304
N199	N	0.570531	0.061921	-0.228046
N200	N	1.070531	0.561921	0.271954
C201	C	0.603637	0.028826	0.454043
C202	C	1.103637	0.528826	0.954043
C203	C	0.603639	0.028825	0.546232
C204	C	1.103639	0.528825	1.046232
C205	C	0.537408	0.095017	0.546209
C206	C	1.037408	0.595017	1.046209
C207	C	0.537405	0.095016	0.454021
C208	C	1.037405	0.595016	0.954021
C209	C	0.570522	0.061920	0.407940
C210	C	1.070522	0.561920	0.907940
C211	C	0.570527	0.061921	0.592318
C212	C	1.070527	0.561921	1.092318
C213	C	0.570528	0.061920	0.692274
C214	C	1.070528	0.561920	1.192274
C215	C	0.570520	0.061921	0.307978
C216	C	1.070520	0.561921	0.807978
H217	H	-0.180248	-0.020712	0.000177
H218	H	0.319752	0.479288	0.500177
H219	H	0.083300	0.186271	0.000121
H220	H	0.583300	0.686271	0.500121
C221	C	0.501401	0.130971	0.596082
C222	C	1.001401	0.630971	1.096082
C223	C	0.472389	0.159944	0.535973
C224	C	0.972389	0.659944	1.035973
C225	C	0.439209	0.193066	0.581881
C226	C	0.939209	0.693066	1.081881
H227	H	0.518581	0.151022	0.632042
H228	H	1.018581	0.651022	1.132042
H229	H	0.481386	0.113731	0.632031
H230	H	0.981386	0.613731	1.132031
H231	H	0.492402	0.177182	0.500039
H232	H	0.992402	0.677182	1.000039
H233	H	0.455199	0.139906	0.500011
H234	H	0.955199	0.639906	1.000011
H235	H	0.419194	0.175826	0.617830
H236	H	0.919194	0.675826	1.117830
H237	H	0.456393	0.213114	0.617840
H238	H	0.956393	0.713114	1.117840
H239	H	0.419518	0.212725	0.541104
H240	H	0.919518	0.712725	1.041104
H241	H	0.447706	-0.299603	0.000055
H242	H	0.947706	0.200397	0.500055
C243	C	0.481125	-0.170350	0.000068
C244	C	0.981125	0.329650	0.500068
C245	C	0.442858	-0.132156	0.000041
C246	C	0.942858	0.367844	0.500041
C247	C	0.398461	-0.151176	-0.000042
C248	C	0.898461	0.348824	0.499958
H249	H	0.479018	-0.189766	0.051118
H250	H	0.979018	0.310234	0.551118
H251	H	0.479070	-0.189740	-0.051034
H252	H	0.979070	0.310260	0.448966
H253	H	0.444912	-0.112775	0.051138
H254	H	0.944912	0.387225	0.551138
H255	H	0.444949	-0.112737	-0.051006
H256	H	0.944949	0.387263	0.448994
H257	H	0.396406	-0.170566	-0.051145
H258	H	0.896406	0.329434	0.448855
H259	H	0.396359	-0.170592	0.051009
H260	H	0.896359	0.329408	0.551009
H261	H	0.372491	-0.125265	-0.000069
H262	H	0.872491	0.374735	0.499931
H263	H	0.412744	0.145477	0.000068
H264	H	0.912744	0.645477	0.500068
H265	H	0.487888	-0.688846	0.000068
H266	H	0.987888	-0.188846	0.500068
H267	H	0.446173	-0.450852	0.000062
H268	H	0.946173	0.049148	0.500062
C269	C	0.434689	-0.396152	-0.000000
C270	C	0.934689	0.103848	0.500000
C271	C	0.396428	-0.357952	-0.000039
C272	C	0.896428	0.142048	0.499961
C273	C	0.352026	-0.376963	-0.000118
C274	C	0.852026	0.123037	0.499882
H275	H	0.432577	-0.415563	0.051055
H276	H	0.932577	0.084437	0.551055
H277	H	0.432631	-0.415545	-0.051098
H278	H	0.932631	0.084455	0.448902
H279	H	0.398484	-0.338567	0.051054
H280	H	0.898484	0.161433	0.551054
H281	H	0.398523	-0.338538	-0.051090
H282	H	0.898523	0.161462	0.448910
H283	H	0.349968	-0.396356	-0.051215
H284	H	0.849968	0.103644	0.448785
H285	H	0.349919	-0.396374	0.050938
H286	H	0.849919	0.103626	0.550938
H287	H	0.326061	-0.351048	-0.000152
H288	H	0.826061	0.148952	0.499848
C289	C	0.501473	0.130898	0.403801
C290	C	1.001473	0.630898	0.903801
C291	C	0.508550	0.123803	0.313204
C292	C	1.008550	0.623803	0.813204
C293	C	0.475456	0.156841	0.266914
C294	C	0.975456	0.656841	0.766914
H295	H	0.506450	0.163145	0.418790
H296	H	1.006450	0.663145	0.918790
H297	H	0.469242	0.125867	0.418857
H298	H	0.969242	0.625867	0.918857
H299	H	0.540773	0.128838	0.298154
H300	H	1.040773	0.628838	0.798154
H301	H	0.503569	0.091562	0.298189
H302	H	1.003569	0.591562	0.798189
H303	H	0.443226	0.151810	0.281970
H304	H	0.943226	0.651810	0.781970
H305	H	0.480436	0.189087	0.281910
H306	H	0.980436	0.689087	0.781910
H307	H	0.480251	0.152029	0.205440
H308	H	0.980251	0.652029	0.705440
H309	H	0.630602	0.001877	0.416526
H310	H	1.130602	0.501877	0.916526
C311	C	0.028716	0.197696	-0.000056
C312	C	0.528716	0.697696	0.499944
C313	C	0.057282	0.200580	-0.075425
C314	C	0.557282	0.700580	0.424575
C315	C	0.076419	0.244916	-0.075651
C316	C	0.576419	0.744916	0.424349
H317	H	0.048167	0.199785	0.050951
H318	H	0.548167	0.699785	0.550951
H319	H	0.002865	0.223728	-0.000106
H320	H	0.502865	0.723728	0.499894
H321	H	0.083129	0.174556	-0.075366
H322	H	0.583129	0.674556	0.424634
H323	H	0.037841	0.198500	-0.126444
H324	H	0.537841	0.698500	0.373556
H325	H	0.050568	0.270947	-0.075702
H326	H	0.550568	0.770947	0.424298
H327	H	0.095868	0.247001	-0.024641
H328	H	0.595868	0.747001	0.475359
H329	H	0.095799	0.246880	-0.126792
H330	H	0.595799	0.746880	0.373208
C331	C	0.666171	-0.090756	0.000140
C332	C	1.166171	0.409244	0.500140
C333	C	0.704437	-0.128952	0.000121
C334	C	1.204437	0.371048	0.500121
C335	C	0.748835	-0.109933	0.000082
C336	C	1.248835	0.390067	0.500082
H337	H	0.668274	-0.071357	0.051202
H338	H	1.168274	0.428643	0.551202
H339	H	0.668232	-0.071351	-0.050951
H340	H	1.168232	0.428649	0.449049
H341	H	0.702377	-0.148349	0.051206
H342	H	1.202377	0.351651	0.551206
H343	H	0.702351	-0.148355	-0.050937
H344	H	1.202351	0.351645	0.449063
H345	H	0.750896	-0.090528	-0.051009
H346	H	1.250896	0.409472	0.448991
H347	H	0.750932	-0.090534	0.051144
H348	H	1.250932	0.409466	0.551144
H349	H	0.774804	-0.135845	0.000061
H350	H	1.274804	0.364155	0.500061
H351	H	-0.271701	-0.021634	0.000167
H352	H	0.228299	0.478366	0.500167
C353	C	0.639571	-0.007183	0.596174
C354	C	1.139571	0.492817	1.096174
C355	C	0.632097	-0.054632	0.573743
C356	C	1.132097	0.445368	1.073743
C357	C	0.665194	-0.087817	0.619722
C358	C	1.165194	0.412183	1.119722
H359	H	0.634866	-0.002513	0.657691
H360	H	1.134866	0.497487	1.157691
H361	H	0.671800	-0.002183	0.581046
H362	H	1.171800	0.497817	1.081046
H363	H	0.599876	-0.059630	0.588877
H364	H	1.099876	0.440370	1.088877
H365	H	0.636807	-0.059317	0.512234
H366	H	1.136807	0.440683	1.012234
H367	H	0.697424	-0.082816	0.604595
H368	H	1.197424	0.417184	1.104595
H369	H	0.660486	-0.083142	0.681237
H370	H	1.160486	0.416858	1.181237
H371	H	0.660131	-0.120014	0.604504
H372	H	1.160131	0.379986	1.104504
H373	H	0.057737	-0.062438	0.000170
H374	H	0.557737	0.437562	0.500170
C375	C	-0.038810	-0.075450	0.000228
C376	C	0.461190	0.424550	0.500228
C377	C	-0.000612	-0.113713	0.000260
C378	C	0.499388	0.386287	0.500260
C379	C	-0.019626	-0.158113	0.000338
C380	C	0.480374	0.341887	0.500338
H381	H	-0.058221	-0.077557	-0.050825
H382	H	0.441779	0.422443	0.449175
H383	H	-0.058204	-0.077509	0.051327
H384	H	0.441796	0.422491	0.551327
H385	H	0.018774	-0.111654	-0.050833
H386	H	0.518774	0.388346	0.449167
H387	H	0.018802	-0.111622	0.051310
H388	H	0.518802	0.388378	0.551310
H389	H	-0.039020	-0.160173	0.051437
H390	H	0.460980	0.339827	0.551437
H391	H	-0.039037	-0.160215	-0.050717
H392	H	0.460963	0.339785	0.449283
H393	H	0.006288	-0.184080	0.000368
H394	H	0.506288	0.315920	0.500368
H395	H	0.434821	-0.014469	0.000108
H396	H	0.934821	0.485531	0.500108
C397	C	0.338134	-0.027422	-0.000059
C398	C	0.838134	0.472578	0.499941
C399	C	0.309548	-0.030298	-0.075412
C400	C	0.809548	0.469702	0.424588
C401	C	0.290398	-0.074626	-0.075600
C402	C	0.790398	0.425374	0.424400
H403	H	0.318693	-0.029506	0.050959
H404	H	0.818693	0.470494	0.550959
H405	H	0.363979	-0.053459	-0.000106
H406	H	0.863979	0.446541	0.499894
H407	H	0.283707	-0.004267	-0.075356
H408	H	0.783707	0.495733	0.424644
H409	H	0.328978	-0.028222	-0.126442
H410	H	0.828978	0.471778	0.373558
H411	H	0.316243	-0.100664	-0.075647
H412	H	0.816243	0.399336	0.424353
H413	H	0.270960	-0.076706	-0.024579
H414	H	0.770960	0.423294	0.475421
H415	H	0.271005	-0.076585	-0.126730
H416	H	0.771005	0.423415	0.373270
H417	H	0.646906	-0.802377	0.000115
H418	H	1.146906	-0.302377	0.500115
C419	C	0.312879	0.156499	0.000044
C420	C	0.812879	0.656499	0.500044
C421	C	0.340427	0.195429	0.000003
C422	C	0.840427	0.695429	0.500003
C423	C	0.309231	0.239320	-0.000060
C424	C	0.809231	0.739320	0.499940
H425	H	0.292952	0.158205	0.051105
H426	H	0.792952	0.658205	0.551105
H427	H	0.292962	0.158161	-0.051048
H428	H	0.792962	0.658161	0.448952
H429	H	0.360335	0.193767	0.051089
H430	H	0.860335	0.693767	0.551089
H431	H	0.360353	0.193739	-0.051054
H432	H	0.860353	0.693739	0.448946
H433	H	0.289314	0.240982	-0.051152
H434	H	0.789314	0.740982	0.448848
H435	H	0.289306	0.241021	0.051002
H436	H	0.789306	0.741021	0.551002
H437	H	0.327918	0.265739	-0.000096
H438	H	0.827918	0.765739	0.499904
H439	H	-0.067950	0.184742	0.000159
H440	H	0.432050	0.684742	0.500159
C441	C	-0.197203	0.151326	0.000176
C442	C	0.302797	0.651326	0.500176
C443	C	-0.235396	0.189594	0.000187
C444	C	0.264604	0.689594	0.500187
C445	C	-0.216375	0.233991	0.000234
C446	C	0.283625	0.733991	0.500234
H447	H	-0.177797	0.153430	-0.050881
H448	H	0.322203	0.653430	0.449119
H449	H	-0.177803	0.153384	0.051271
H450	H	0.322197	0.653384	0.551271
H451	H	-0.254788	0.187538	-0.050904
H452	H	0.245212	0.687538	0.449096
H453	H	-0.254806	0.187507	0.051240
H454	H	0.245194	0.687507	0.551240
H455	H	-0.196975	0.236048	0.051329
H456	H	0.303025	0.736048	0.551329
H457	H	-0.196970	0.236089	-0.050824
H458	H	0.303030	0.736089	0.449176
H459	H	-0.242286	0.259961	0.000250
H460	H	0.257714	0.759961	0.500250
C461	C	0.112426	-0.073917	0.000218
C462	C	0.612426	0.426083	0.500218
C463	C	0.150625	-0.112179	0.000247
C464	C	0.650625	0.387821	0.500247
C465	C	0.131610	-0.156580	0.000314
C466	C	0.631610	0.343420	0.500314
H467	H	0.093017	-0.076021	-0.050838
H468	H	0.593017	0.423979	0.449162
H469	H	0.093032	-0.075979	0.051315
H470	H	0.593032	0.424021	0.551315
H471	H	0.170011	-0.110118	-0.050845
H472	H	0.670011	0.389882	0.449155
H473	H	0.170037	-0.110091	0.051299
H474	H	0.670037	0.389909	0.551299
H475	H	0.112216	-0.158642	0.051411
H476	H	0.612216	0.341358	0.551411
H477	H	0.112201	-0.158679	-0.050743
H478	H	0.612201	0.341321	0.449257
H479	H	0.157525	-0.182546	0.000342
H480	H	0.657525	0.317454	0.500342
H481	H	0.494142	-0.073782	0.000134
H482	H	0.994142	0.426218	0.500134
C483	C	0.179873	0.199271	-0.000025
C484	C	0.679873	0.699271	0.499975
C485	C	0.163922	0.225748	-0.075365
C486	C	0.663922	0.725748	0.424635
C487	C	0.182963	0.270134	-0.075517
C488	C	0.682963	0.770134	0.424483
H489	H	0.214377	0.193376	-0.000068
H490	H	0.714377	0.693376	0.499932
H491	H	0.169096	0.217319	0.051020
H492	H	0.669096	0.717319	0.551020
H493	H	0.174702	0.207703	-0.126396
H494	H	0.674702	0.707703	0.373604
H495	H	0.129420	0.231655	-0.075337
H496	H	0.629420	0.731655	0.424663
H497	H	0.172186	0.288182	-0.024472
H498	H	0.672186	0.788182	0.475528
H499	H	0.217467	0.264234	-0.075558
H500	H	0.717467	0.764234	0.424442
H501	H	0.172140	0.288105	-0.126630
H502	H	0.672140	0.788105	0.373370
H503	H	0.695813	-0.333847	0.000162
H504	H	1.195813	0.166153	0.500162
C505	C	0.665043	-0.195828	-0.000015
C506	C	1.165043	0.304172	0.499985
C507	C	0.667341	-0.225110	-0.075377
C508	C	1.167341	0.274890	0.424623
C509	C	0.711159	-0.256420	-0.075563
C510	C	1.211159	0.243580	0.424437
H511	H	0.666723	-0.215798	0.050997
H512	H	1.166723	0.284202	0.550997
H513	H	0.691531	-0.177229	-0.000048
H514	H	1.191531	0.322771	0.499952
H515	H	0.640861	-0.243707	-0.075335
H516	H	1.140861	0.256293	0.424665
H517	H	0.665671	-0.205152	-0.126401
H518	H	1.165671	0.294848	0.373599
H519	H	0.737647	-0.237821	-0.075597
H520	H	1.237647	0.262179	0.424403
H521	H	0.712834	-0.276387	-0.024548
H522	H	1.212834	0.223613	0.475452
H523	H	0.712726	-0.276288	-0.126699
H524	H	1.212726	0.223712	0.373301
C525	C	0.706743	-0.433847	0.000292
C526	C	1.206743	0.066153	0.500292
C527	C	0.709019	-0.463159	0.075632
C528	C	1.209019	0.036841	0.575632
C529	C	0.752811	-0.494507	0.075802
C530	C	1.252811	0.005493	0.575802
H531	H	0.733256	-0.415292	0.000347
H532	H	1.233256	0.084708	0.500347
H533	H	0.708386	-0.453792	-0.050753
H534	H	1.208386	0.046208	0.449247
H535	H	0.707380	-0.443216	0.126664
H536	H	1.207380	0.056784	0.626664
H537	H	0.682515	-0.481724	0.075593
H538	H	1.182515	0.018276	0.575593
H539	H	0.754455	-0.514452	0.024757
H540	H	1.254455	-0.014452	0.524757
H541	H	0.779321	-0.475948	0.075855
H542	H	1.279321	0.024052	0.575855
H543	H	0.754359	-0.514402	0.126914
H544	H	1.254359	-0.014402	0.626914
C545	C	0.659840	-0.705651	-0.000012
C546	C	1.159840	-0.205651	0.499988
C547	C	0.662709	-0.677050	-0.075352
C548	C	1.162709	-0.177050	0.424648
C549	C	0.707013	-0.657854	-0.075493
C550	C	1.207013	-0.157854	0.424507
H551	H	0.685904	-0.731459	-0.000050
H552	H	1.185904	-0.231459	0.499950
H553	H	0.661877	-0.686212	0.051033
H554	H	1.161877	-0.186212	0.551033
H555	H	0.660676	-0.696487	-0.126384
H556	H	1.160676	-0.196487	0.373616
H557	H	0.636655	-0.651234	-0.075331
H558	H	1.136655	-0.151234	0.424669
H559	H	0.709051	-0.638415	-0.024448
H560	H	1.209051	-0.138415	0.475552
H561	H	0.733074	-0.683665	-0.075528
H562	H	1.233074	-0.183665	0.424472
H563	H	0.708964	-0.638442	-0.126606
H564	H	1.208964	-0.138442	0.373394
H565	H	-0.293772	0.138311	0.000139
H566	H	0.206228	0.638311	0.500139
H567	H	0.208987	-0.060899	0.000158
H568	H	0.708987	0.439101	0.500158
H569	H	0.486960	-0.780296	0.000082
H570	H	0.986960	-0.280296	0.500082
H571	H	0.445243	-0.542300	0.000058
H572	H	0.945243	-0.042300	0.500058
H573	H	0.693341	-0.576544	0.000130
H574	H	1.193341	-0.076544	0.500130
H575	H	0.694276	-0.485083	0.000141
H576	H	1.194276	0.014917	0.500141
