data_functionalizedCrystal
_audit_creation_method	'MofGen! by Chris Wilmer'
_symmetry_space_group_name_H-M	'P1'
_symmetry_Int_Tables_number	1
_symmetry_cell_setting	triclinic
loop_
_symmetry_equiv_pos_as_xyz
  x,y,z
_cell_length_a	6.817900
_cell_length_b	10.943632
_cell_length_c	9.582880
_cell_angle_alpha	90.873838
_cell_angle_beta	111.207034
_cell_angle_gamma	108.838880
loop_
_atom_site_label
_atom_site_type_symbol
_atom_site_fract_x
_atom_site_fract_y
_atom_site_fract_z
V1	V	-4.143822	-0.178085	-0.466566
O2	O	-4.100994	0.009118	-0.457721
O3	O	-4.121577	-0.353652	-0.463339
O4	O	-4.134140	-0.175100	-0.670067
O5	O	-4.088344	-0.170670	-0.249562
V6	V	-4.619044	-0.155723	-0.440614
O7	O	-4.423290	-0.227139	-0.523491
O8	O	-4.789774	-0.106668	-0.383689
O9	O	-4.418083	0.019844	-0.443841
O10	O	-4.779269	-0.342926	-0.449459
O11	O	-4.791920	-0.163138	-0.657618
O12	O	-4.405520	-0.158708	-0.237113
C13	C	-3.971687	-0.396459	-0.455970
C14	C	-4.035044	-0.539986	-0.454688
C15	C	-3.987712	-0.168696	-0.719670
C16	C	-4.061252	-0.167417	-0.886033
C17	C	-3.879373	-0.617148	-0.446165
C18	C	-3.950873	-0.689936	-0.325356
C19	C	-4.076461	-0.722939	-0.573229
C20	C	-4.105659	-0.610869	-0.333793
C21	C	-4.231272	-0.643879	-0.581776
C22	C	-4.302881	-0.716629	-0.460943
C23	C	-4.231315	0.062645	-0.451206
C24	C	-4.147199	0.206170	-0.452498
C25	C	-4.215289	-0.165115	-0.187502
C26	C	-4.120986	-0.166388	-0.021138
H27	H	-3.699671	-0.573672	-0.439776
C28	C	-3.791616	-0.718165	-0.178885
N29	N	-3.671652	-0.739425	-0.068568
C30	C	-4.121430	-0.545149	-0.196947
N31	N	-4.133297	-0.495644	-0.093872
H32	H	-4.349081	-0.622962	-0.690203
H33	H	-4.482514	-0.759846	-0.467149
H34	H	-4.064682	-0.771741	-0.674384
