data_functionalizedCrystal
_audit_creation_method	'MofGen! by Chris Wilmer'
_symmetry_space_group_name_H-M	'P1'
_symmetry_Int_Tables_number	1
_symmetry_cell_setting	triclinic
loop_
_symmetry_equiv_pos_as_xyz
  x,y,z
_cell_length_a	11.792241
_cell_length_b	11.792254
_cell_length_c	9.198806
_cell_angle_alpha	89.996981
_cell_angle_beta	89.999916
_cell_angle_gamma	84.196007
loop_
_atom_site_label
_atom_site_type_symbol
_atom_site_fract_x
_atom_site_fract_y
_atom_site_fract_z
O1	O	1.506916	0.155564	-0.120752
O2	O	1.840249	0.488897	0.212581
O3	O	2.173582	0.822230	0.545915
O4	O	1.176575	0.171597	-0.120786
O5	O	1.509909	0.504930	0.212547
O6	O	1.843242	0.838263	0.545881
O7	O	1.349755	-0.001589	-0.120758
O8	O	1.683088	0.331744	0.212576
O9	O	2.016421	0.665077	0.545909
O10	O	1.333737	0.328750	-0.120780
O11	O	1.667070	0.662083	0.212553
O12	O	2.000403	0.995416	0.545887
O13	O	1.349740	-0.001589	0.121027
O14	O	1.683073	0.331745	0.454361
O15	O	2.016406	0.665078	0.787694
O16	O	1.176560	0.171597	0.120999
O17	O	1.509894	0.504931	0.454332
O18	O	1.843227	0.838264	0.787666
O19	O	1.506901	0.155565	0.121033
O20	O	1.840234	0.488898	0.454366
O21	O	2.173567	0.822231	0.787700
Cu22	Cu	1.341729	0.163581	0.143093
Cu23	Cu	1.675063	0.496914	0.476426
Cu24	Cu	2.008396	0.830248	0.809760
Cu25	Cu	1.341747	0.163580	-0.142846
Cu26	Cu	1.675080	0.496913	0.190488
Cu27	Cu	2.008414	0.830247	0.523821
O28	O	1.333722	0.328751	0.121005
O29	O	1.667055	0.662084	0.454338
O30	O	2.000388	0.995417	0.787672
C31	C	1.348738	-0.043880	0.000134
C32	C	1.682071	0.289454	0.333468
C33	C	2.015405	0.622787	0.666801
C34	C	1.345718	-0.169893	0.000133
C35	C	1.679051	0.163441	0.333466
C36	C	2.012385	0.496774	0.666799
C37	C	1.134277	0.170590	0.000102
C38	C	1.467610	0.503923	0.333436
C39	C	1.800944	0.837257	0.666769
C40	C	1.008263	0.167576	0.000090
C41	C	1.341596	0.500909	0.333423
C42	C	1.674930	0.834242	0.666756
C43	C	1.343264	-0.272229	0.000127
C44	C	1.676597	0.061104	0.333460
C45	C	2.009931	0.394437	0.666794
C46	C	1.340196	-0.400616	0.000113
C47	C	1.673529	-0.067283	0.333447
C48	C	2.006862	0.266051	0.666780
C49	C	0.777551	0.162033	0.000132
C50	C	1.110884	0.495366	0.333465
C51	C	1.444217	0.828699	0.666798
C52	C	0.905936	0.165112	0.000109
C53	C	1.239269	0.498446	0.333442
C54	C	1.572603	0.831779	0.666775
C55	C	1.549199	0.156571	0.000142
C56	C	1.882533	0.489905	0.333475
C57	C	2.215866	0.823238	0.666808
C58	C	1.675213	0.159586	0.000145
C59	C	2.008546	0.492919	0.333478
C60	C	2.341880	0.826252	0.666811
C61	C	1.334738	0.371041	0.000110
C62	C	1.668071	0.704374	0.333443
C63	C	2.001405	1.037708	0.666776
C64	C	1.337758	0.497054	0.000102
C65	C	1.671092	0.830387	0.333435
C66	C	2.004425	1.163721	0.666769
N67	N	1.341725	0.163581	0.344207
N68	N	1.675058	0.496914	0.677540
N69	N	2.008392	0.830248	1.010874
C70	C	1.414615	0.090710	0.583820
C71	C	1.747949	0.424043	0.917153
C72	C	2.081282	0.757376	1.250486
C73	C	1.414602	0.090709	0.416407
C74	C	1.747935	0.424043	0.749741
C75	C	2.081269	0.757376	1.083074
N76	N	1.341751	0.163580	0.656040
N77	N	1.675085	0.496913	0.989374
N78	N	2.008418	0.830247	1.322707
H79	H	1.477012	0.028325	0.645926
H80	H	1.810345	0.361659	0.979259
H81	H	2.143679	0.694992	1.312592
C82	C	1.257462	0.247867	0.572157
C83	C	1.590796	0.581201	0.905490
C84	C	1.924129	0.914534	1.238823
H85	H	1.211755	0.293592	0.639177
H86	H	1.545089	0.626925	0.972510
H87	H	1.878422	0.960258	1.305843
H88	H	1.209993	0.206694	0.512784
H89	H	1.543326	0.540027	0.846117
H90	H	1.876659	0.873361	1.179451
H91	H	1.298645	0.295337	0.512776
H92	H	1.631978	0.628671	0.846110
H93	H	1.965312	0.962004	1.179443
H94	H	1.476980	0.028318	0.354301
H95	H	1.810313	0.361651	0.687634
H96	H	2.143646	0.694984	1.020968
H97	H	1.279336	0.225968	0.406304
H98	H	1.612669	0.559301	0.739637
H99	H	1.946002	0.892635	1.072971
