data_functionalizedCrystal
_audit_creation_method	'MofGen! by Chris Wilmer'
_symmetry_space_group_name_H-M	'P1'
_symmetry_Int_Tables_number	1
_symmetry_cell_setting	triclinic
loop_
_symmetry_equiv_pos_as_xyz
  x,y,z
_cell_length_a	9.065218
_cell_length_b	12.837942
_cell_length_c	11.295498
_cell_angle_alpha	94.532372
_cell_angle_beta	85.829210
_cell_angle_gamma	89.922413
loop_
_atom_site_label
_atom_site_type_symbol
_atom_site_fract_x
_atom_site_fract_y
_atom_site_fract_z
O1	O	1.969909	0.159085	0.099028
O2	O	1.542142	0.171569	0.099030
O3	O	1.746541	0.014335	0.099022
O4	O	1.765510	0.316320	0.099036
O5	O	1.764515	0.000555	-0.099030
O6	O	1.560116	0.157790	-0.099022
O7	O	1.987883	0.145306	-0.099023
Cu8	Cu	1.775641	0.150289	-0.117106
Cu9	Cu	1.754385	0.166586	0.117113
O10	O	1.783484	0.302540	-0.099015
C11	C	1.495997	0.163480	0.000004
C12	C	1.331718	0.159892	0.000005
C13	C	1.749120	-0.031236	-0.000003
C14	C	1.730006	-0.146492	-0.000001
C15	C	1.959781	-0.385291	0.000023
C16	C	1.941829	-0.493586	0.000025
C17	C	1.676151	-0.471376	0.000014
C18	C	1.694103	-0.363082	0.000011
C19	C	1.835922	-0.320044	0.000014
C20	C	1.853874	-0.211748	0.000004
C21	C	1.588196	-0.189540	0.000001
C22	C	1.570244	-0.297834	0.000003
C23	C	2.034029	0.153395	0.000005
C24	C	2.198307	0.156983	0.000012
C25	C	1.780906	0.348111	0.000013
C26	C	1.800018	0.463368	0.000018
N27	N	1.739434	0.178040	0.281850
C28	C	1.898283	0.056387	0.531133
C29	C	1.886974	0.065036	0.655797
C30	C	1.705515	0.203992	0.655844
C31	C	1.716824	0.195343	0.531180
C32	C	1.813210	0.121537	0.468829
C33	C	1.824510	0.112883	0.344163
C34	C	1.643060	0.251844	0.344212
C35	C	1.631751	0.260493	0.468876
N36	N	1.790591	0.138835	0.718157
H37	H	2.075257	-0.350250	0.000013
H38	H	1.454778	-0.332891	0.000005
H39	H	1.902988	0.052784	0.293397
C40	C	1.376523	-0.144357	-0.101828
C41	C	1.452042	-0.117813	-0.000011
H42	H	1.292477	-0.100070	-0.101840
H43	H	1.345535	-0.215002	-0.101813
H44	H	1.440337	-0.135981	-0.170881
H45	H	1.388231	-0.126196	0.069043
H46	H	1.483027	-0.047151	-0.000015
C47	C	2.076482	-0.080116	0.543603
C48	C	2.004207	-0.024749	0.462588
H49	H	2.141877	-0.130205	0.501284
H50	H	2.005432	-0.114763	0.592218
H51	H	2.131174	-0.032929	0.592236
H52	H	1.949506	-0.071936	0.413961
H53	H	2.075267	0.009898	0.413952
H54	H	1.573784	0.304890	0.293470
C55	C	1.492617	-0.573202	0.101831
C56	C	1.520277	-0.518704	0.000016
H57	H	1.396390	-0.602426	0.101827
H58	H	1.498857	-0.526601	0.170878
H59	H	1.563836	-0.627550	0.101825
H60	H	1.449064	-0.464351	0.000027
H61	H	1.514024	-0.565309	-0.069049
H62	H	1.627051	0.264090	0.706627
C63	C	1.533834	0.335446	0.660000
C64	C	1.525800	0.341612	0.537420
H65	H	1.468412	0.385521	0.702311
H66	H	1.632109	0.349250	0.680424
H67	H	1.506405	0.267387	0.680397
H68	H	1.553240	0.409669	0.517021
H69	H	1.427504	0.327815	0.516987
H70	H	1.969351	-0.176709	0.000002
H71	H	2.042687	-0.546707	0.000036
H72	H	1.956250	0.011985	0.706522
