data_functionalizedCrystal
_audit_creation_method	'MofGen! by Chris Wilmer'
_symmetry_space_group_name_H-M	'P1'
_symmetry_Int_Tables_number	1
_symmetry_cell_setting	triclinic
loop_
_symmetry_equiv_pos_as_xyz
  x,y,z
_cell_length_a	19.188905
_cell_length_b	19.188930
_cell_length_c	18.266242
_cell_angle_alpha	90.011475
_cell_angle_beta	89.983837
_cell_angle_gamma	96.860332
loop_
_atom_site_label
_atom_site_type_symbol
_atom_site_fract_x
_atom_site_fract_y
_atom_site_fract_z
O1	O	0.926160	-0.087085	-0.061010
O2	O	0.722847	-0.098838	-0.060986
O3	O	0.830371	0.008694	-0.060984
O4	O	0.818636	-0.194618	-0.061011
O5	O	0.830353	0.008700	0.060778
O6	O	0.722828	-0.098833	0.060776
O7	O	0.926142	-0.087080	0.060752
Zn8	Zn	0.824482	-0.092955	0.080097
Zn9	Zn	0.824506	-0.092963	-0.080330
O10	O	0.818618	-0.194612	0.060751
C11	C	0.696826	-0.098458	-0.000102
C12	C	0.619321	-0.097324	-0.000092
C13	C	0.582939	-0.096782	-0.066466
C14	C	0.510115	-0.095709	-0.066475
C15	C	0.473678	-0.095164	-0.000106
C16	C	0.510068	-0.095709	0.066277
C17	C	0.582890	-0.096789	0.066284
N18	N	0.364651	-0.053733	0.049292
N19	N	0.295474	-0.052705	0.049280
C20	C	0.254272	-0.091911	-0.000123
N21	N	0.284861	-0.132174	-0.049526
N22	N	0.354045	-0.133199	-0.049517
C23	C	0.394716	-0.093993	-0.000106
C24	C	0.138926	-0.090207	-0.066512
C25	C	0.066100	-0.089138	-0.066518
C26	C	0.066056	-0.089132	0.066236
C27	C	0.138879	-0.090207	0.066240
C28	C	0.175310	-0.090742	-0.000136
C29	C	0.829982	0.034708	-0.000101
C30	C	0.828841	0.112213	-0.000095
C31	C	0.952163	-0.087460	-0.000134
C32	C	1.029668	-0.088594	-0.000148
C33	C	0.819007	-0.220626	-0.000134
C34	C	0.820148	-0.298131	-0.000145
N35	N	0.824471	-0.092950	0.189583
C36	C	0.891933	0.157142	-0.000099
C37	C	0.890861	0.229966	-0.000110
C38	C	0.826694	0.257857	-0.000103
C39	C	0.763594	0.212917	-0.000103
C40	C	0.764668	0.140095	-0.000099
N41	N	0.777640	0.365859	0.041341
N42	N	0.776624	0.435038	0.041338
C43	C	0.823456	0.477265	-0.000118
N44	N	0.871352	0.447702	-0.041561
N45	N	0.872369	0.378517	-0.041556
C46	C	0.825523	0.336819	-0.000108
C47	C	0.885390	0.601159	-0.000135
C48	C	0.884315	0.673984	-0.000151
C49	C	0.757047	0.656933	-0.000137
C50	C	0.758123	0.584110	-0.000128
C51	C	0.822296	0.556228	-0.000124
N52	N	0.824523	-0.092962	-0.189817
C53	C	0.872098	-0.045358	0.227893
C54	C	0.872103	-0.045355	0.304538
C55	C	0.824487	-0.092956	0.342870
C56	C	0.776851	-0.140551	0.304552
C57	C	0.776843	-0.140549	0.227908
N58	N	0.815411	-0.154764	0.463195
N59	N	0.815423	-0.154764	0.536003
C60	C	0.824506	-0.092966	0.573793
N61	N	0.833592	-0.031165	0.536024
N62	N	0.833584	-0.031165	0.463209
C63	C	0.824490	-0.092963	0.425977
C64	C	0.872141	-0.045366	0.695210
C65	C	0.872141	-0.045362	0.771856
C66	C	0.776892	-0.140565	0.771868
C67	C	0.776889	-0.140563	0.695223
C68	C	0.824517	-0.092964	0.656898
H69	H	0.612511	-0.097231	0.120336
C70	C	1.011080	0.625324	-0.000168
C71	C	0.955927	0.570504	-0.000148
H72	H	1.054626	0.606399	-0.000182
H73	H	1.008015	0.653381	0.042290
H74	H	1.008010	0.653363	-0.042632
H75	H	0.958994	0.542468	0.042320
H76	H	0.958994	0.542436	-0.042610
C77	C	0.654804	0.220801	-0.062689
C78	C	0.693061	0.243573	-0.000097
H79	H	0.611261	0.239730	-0.062689
H80	H	0.646414	0.171006	-0.062681
H81	H	0.680790	0.236233	-0.105146
H82	H	0.667077	0.228136	0.042361
H83	H	0.701449	0.293378	-0.000098
C84	C	0.734579	-0.182833	0.422047
C85	C	0.724512	-0.192877	0.346684
H86	H	0.702267	-0.215141	0.448055
H87	H	0.727142	-0.136260	0.434621
H88	H	0.781155	-0.190299	0.434577
H89	H	0.677937	-0.185406	0.334153
H90	H	0.731944	-0.239461	0.334105
H91	H	0.910879	-0.006599	0.196691
H92	H	0.738058	-0.179304	0.196716
C93	C	0.398419	-0.094037	0.125210
C94	C	0.470020	-0.095105	0.139232
H95	H	0.373698	-0.093661	0.170251
H96	H	0.381040	-0.134565	0.097937
H97	H	0.391962	-0.053152	0.097940
H98	H	0.476478	-0.135993	0.166497
H99	H	0.487404	-0.054573	0.166516
H100	H	0.942239	0.266555	-0.000116
H101	H	0.910888	-0.006598	0.335735
H102	H	0.036479	-0.088702	-0.120570
H103	H	0.713289	0.103513	-0.000096
H104	H	0.168589	-0.090650	-0.120559
H105	H	0.168502	-0.090644	0.120290
H106	H	0.910921	-0.006606	0.664004
H107	H	0.480487	-0.095269	-0.120527
C108	C	-0.045588	-0.087459	0.125171
C109	C	0.026013	-0.088524	0.139192
H110	H	-0.070308	-0.087079	0.170213
H111	H	-0.062967	-0.127990	0.097903
H112	H	-0.052047	-0.046577	0.097897
H113	H	0.032473	-0.129409	0.166461
H114	H	0.043398	-0.047989	0.166471
C115	C	0.672900	-0.037994	-0.143468
C116	C	0.622983	-0.097378	-0.139425
H117	H	0.697619	-0.038362	-0.188512
H118	H	0.704989	-0.038474	-0.103941
H119	H	0.649940	0.003131	-0.140706
H120	H	0.645944	-0.138503	-0.142181
H121	H	0.590890	-0.096904	-0.178963
C122	C	0.956958	0.765743	-0.062762
C123	C	0.953673	0.723372	-0.000161
H124	H	0.999780	0.796229	-0.062769
H125	H	0.918595	0.792773	-0.062759
H126	H	0.954738	0.736959	-0.105213
H127	H	0.955888	0.752156	0.042290
H128	H	0.992047	0.696339	-0.000157
C129	C	0.966303	0.048725	0.764141
C130	C	0.924500	0.006953	0.813969
H131	H	0.998631	0.081019	0.790142
H132	H	0.937322	0.073772	0.734267
H133	H	0.991316	0.019714	0.734228
H134	H	0.899482	0.035964	0.843878
H135	H	0.953485	-0.018095	0.843856
C136	C	0.698892	0.760990	-0.000138
C137	C	0.686512	0.687582	-0.000131
H138	H	0.655344	0.779911	-0.000133
H139	H	0.724864	0.776410	-0.042600
H140	H	0.724854	0.776431	0.042323
H141	H	0.660554	0.672141	-0.042595
H142	H	0.660529	0.672156	0.042335
C143	C	0.632220	0.574575	-0.000104
C144	C	0.688770	0.534719	-0.000111
H145	H	0.589403	0.544080	-0.000090
H146	H	0.634452	0.603319	-0.042566
H147	H	0.634449	0.603346	0.042357
H148	H	0.686544	0.505951	-0.042575
H149	H	0.686536	0.505962	0.042355
C150	C	0.682743	-0.234664	0.764177
C151	C	0.724548	-0.192888	0.813993
H152	H	0.650423	-0.266963	0.790187
H153	H	0.711724	-0.259704	0.734268
H154	H	0.657720	-0.205656	0.734298
H155	H	0.749575	-0.221896	0.843869
H156	H	0.695563	-0.167846	0.843914
C157	C	0.761444	-0.235623	0.609015
C158	C	0.724544	-0.192887	0.653108
H159	H	0.729124	-0.267924	0.583013
H160	H	0.790425	-0.260660	0.638898
H161	H	0.789798	-0.207265	0.575221
H162	H	0.696193	-0.221244	0.686906
H163	H	0.695550	-0.167848	0.623222
H164	H	0.944187	0.134445	-0.000097
