data_functionalizedCrystal
_audit_creation_method	'MofGen! by Chris Wilmer'
_symmetry_space_group_name_H-M	'P1'
_symmetry_Int_Tables_number	1
_symmetry_cell_setting	triclinic
loop_
_symmetry_equiv_pos_as_xyz
  x,y,z
_cell_length_a	12.759401
_cell_length_b	19.121063
_cell_length_c	19.121595
_cell_angle_alpha	90.075983
_cell_angle_beta	87.546681
_cell_angle_gamma	92.469017
loop_
_atom_site_label
_atom_site_type_symbol
_atom_site_fract_x
_atom_site_fract_y
_atom_site_fract_z
Zn1	Zn	1.615432	-0.262215	-0.408236
Zn2	Zn	1.600337	-0.384455	-0.295992
Zn3	Zn	1.431947	-0.267234	-0.291019
Zn4	Zn	1.432520	-0.379418	-0.413196
O5	O	1.520059	-0.323330	-0.352111
O6	O	1.760451	-0.278437	-0.393352
O7	O	1.571443	-0.373113	-0.197227
O8	O	1.462365	-0.168461	-0.302410
O9	O	1.749360	-0.368246	-0.310887
O10	O	1.597170	-0.164773	-0.388529
O11	O	1.447728	-0.286992	-0.193573
O12	O	1.285002	-0.282109	-0.307220
O13	O	1.463341	-0.359663	-0.510643
O14	O	1.285423	-0.364530	-0.396983
O15	O	1.597726	-0.273554	-0.506999
O16	O	1.571998	-0.481894	-0.315697
O17	O	1.448704	-0.478194	-0.401806
C18	C	1.247092	-0.323318	-0.352100
C19	C	1.130315	-0.323329	-0.352114
C20	C	1.075691	-0.366320	-0.398782
C21	C	0.965967	-0.366329	-0.398790
C22	C	0.965501	-0.280352	-0.305455
C23	C	1.075224	-0.280341	-0.305451
C24	C	1.075958	-0.415961	-0.452666
C25	C	0.966234	-0.415969	-0.452674
C26	C	1.508804	-0.505481	-0.359845
C27	C	1.504087	-0.583405	-0.363177
C28	C	1.566119	-0.621916	-0.319947
C29	C	1.561689	-0.695133	-0.323085
C30	C	1.495221	-0.729839	-0.369449
C31	C	1.433187	-0.691324	-0.412684
C32	C	1.437624	-0.618107	-0.409549
C33	C	1.478617	-0.950810	-0.381159
C34	C	1.474184	-1.024032	-0.384289
C35	C	1.602687	-1.027837	-0.294691
C36	C	1.607112	-0.954619	-0.291557
C37	C	1.545083	-0.916109	-0.334794
C38	C	1.490689	-0.804679	-0.372657
C39	C	1.549621	-0.841270	-0.331590
C40	C	1.794092	-0.323343	-0.352121
C41	C	1.910869	-0.323349	-0.352126
C42	C	1.532281	-0.315486	-0.534970
C43	C	1.537489	-0.312144	-0.612894
C44	C	1.531387	-0.140467	-0.344362
C45	C	1.536215	-0.062542	-0.341060
C46	C	1.469971	-0.355402	-0.651401
C47	C	1.474873	-0.352261	-0.724619
C48	C	1.547290	-0.305858	-0.759328
C49	C	1.614815	-0.262598	-0.720816
C50	C	1.609917	-0.265742	-0.647600
C51	C	1.565584	-0.294123	-0.980299
C52	C	1.570474	-0.290980	-1.053521
C53	C	1.430533	-0.380645	-1.057319
C54	C	1.425637	-0.383783	-0.984101
C55	C	1.493166	-0.340525	-0.945595
C56	C	1.552300	-0.302645	-0.834169
C57	C	1.488160	-0.343742	-0.870757
C58	C	1.507948	-0.331093	-0.169960
C59	C	1.502956	-0.334239	-0.092028
H60	H	1.119696	-0.245328	-0.267453
H61	H	0.936855	-0.394394	-0.503467
H62	H	0.920633	-0.245353	-0.267464
F63	F	1.348557	-0.433169	-0.947166
F64	F	1.403425	-1.060967	-0.433632
H65	H	1.603743	-0.813011	-0.293843
F66	F	1.120803	-0.394018	-0.522864
F67	F	1.114589	-0.484442	-0.430044
H68	H	1.612200	-0.726486	-0.287882
F69	F	1.677868	-0.917687	-0.242217
F70	F	1.392890	-0.404788	-0.614468
F71	F	1.412598	-0.909835	-0.427176
H72	H	1.379073	-0.719587	-0.450438
H73	H	1.419894	-0.387488	-0.755969
H74	H	1.673783	-0.224818	-0.749082
F75	F	1.419950	-0.841622	-0.421999
H76	H	0.932131	-0.470876	-0.440348
H77	H	1.620239	-0.593663	-0.282189
F78	F	1.629368	-0.253259	-0.871115
F79	F	1.371604	-0.577122	-0.455562
H80	H	1.375555	-0.415863	-1.088678
H81	H	1.629441	-0.253186	-1.081779
H82	H	1.620571	-0.258900	-0.948957
H83	H	1.653189	-1.059199	-0.259491
F84	F	1.681783	-0.219703	-0.606618
F85	F	1.411095	-0.393129	-0.833815
