data_functionalizedCrystal
_audit_creation_method	'MofGen! by Chris Wilmer'
_symmetry_space_group_name_H-M	'P1'
_symmetry_Int_Tables_number	1
_symmetry_cell_setting	triclinic
loop_
_symmetry_equiv_pos_as_xyz
  x,y,z
_cell_length_a	10.654562
_cell_length_b	10.654550
_cell_length_c	18.366186
_cell_angle_alpha	90.006851
_cell_angle_beta	90.004016
_cell_angle_gamma	84.487503
loop_
_atom_site_label
_atom_site_type_symbol
_atom_site_fract_x
_atom_site_fract_y
_atom_site_fract_z
O1	O	1.667825	0.176481	0.060596
O2	O	1.302349	0.193271	0.060586
O3	O	1.493490	0.002137	0.060588
O4	O	1.476684	0.367615	0.060593
O5	O	1.493487	0.002118	-0.060511
O6	O	1.302345	0.193251	-0.060513
O7	O	1.667822	0.176462	-0.060504
Zn8	Zn	1.485083	0.184854	-0.079736
Zn9	Zn	1.485088	0.184879	0.079818
O10	O	1.476681	0.367596	-0.060506
C11	C	1.255549	0.192025	0.000035
C12	C	1.116107	0.188327	0.000032
C13	C	1.492254	-0.044671	0.000040
C14	C	1.488563	-0.184114	0.000042
C15	C	1.050574	0.186591	-0.065974
C16	C	0.919552	0.183126	-0.065962
C17	C	0.919606	0.183138	0.066068
C18	C	1.050627	0.186594	0.066055
C19	C	1.116054	0.188324	-0.131996
C20	C	1.050522	0.186590	-0.198007
C21	C	0.919499	0.183125	-0.197995
C22	C	0.854010	0.181394	-0.131972
C23	C	1.601103	-0.263595	0.000043
C24	C	1.597627	-0.394615	0.000048
C25	C	1.369059	-0.366662	0.000048
C26	C	1.372537	-0.235644	0.000049
C27	C	1.717129	-0.212064	0.000036
C28	C	1.829680	-0.291546	0.000036
C29	C	1.826203	-0.422567	0.000041
C30	C	1.710176	-0.474106	0.000046
C31	C	1.714621	0.177708	0.000049
C32	C	1.854064	0.181406	0.000057
C33	C	1.477916	0.414403	0.000045
C34	C	1.481608	0.553847	0.000047
N35	N	1.485091	0.184887	0.188709
N36	N	1.485089	0.184836	-0.188627
C37	C	1.569896	0.100393	0.773261
C38	C	1.569893	0.100391	0.697033
C39	C	1.485095	0.184854	0.658921
C40	C	1.400271	0.269302	0.697042
C41	C	1.400269	0.269293	0.773269
C42	C	1.469401	0.299088	0.538167
C43	C	1.469413	0.299099	0.461942
C44	C	1.485096	0.184881	0.423813
C45	C	1.500794	0.070648	0.461918
C46	C	1.500791	0.070639	0.538145
C47	C	1.485088	0.184872	0.576266
C48	C	1.569904	0.100430	0.303045
C49	C	1.569892	0.100426	0.226816
C50	C	1.400276	0.269347	0.226827
C51	C	1.400282	0.269340	0.303055
C52	C	1.485103	0.184883	0.341160
H53	H	1.222739	0.191149	-0.132014
H54	H	1.513564	-0.022360	0.430876
Cl55	Cl	1.293662	0.375478	0.649132
Cl56	Cl	1.133017	0.188773	0.149035
Cl57	Cl	1.676508	-0.005746	0.178900
H58	H	1.719973	-0.105382	0.000030
H59	H	1.924144	-0.249574	0.000050
H60	H	1.917847	-0.487279	0.000048
H61	H	1.707355	-0.580794	0.000058
H62	H	1.274595	-0.408637	0.000051
H63	H	1.280896	-0.170928	0.000047
Cl64	Cl	1.293646	0.375459	0.821185
Cl65	Cl	1.676519	-0.005773	0.649112
Cl66	Cl	1.293663	0.375519	0.178920
H67	H	1.456639	0.392114	0.430922
Cl68	Cl	1.293669	0.375508	0.350973
H69	H	1.638959	0.031620	0.804283
H70	H	0.866274	0.181732	0.119820
H71	H	1.103853	0.187990	-0.251761
H72	H	1.513570	-0.022374	0.569167
Cl73	Cl	0.837119	0.180937	-0.280979
H74	H	1.456608	0.392104	0.569205
H75	H	0.747323	0.178570	-0.131968
Cl76	Cl	1.676527	-0.005750	0.350952
