data_functionalizedCrystal
_audit_creation_method	'MofGen! by Chris Wilmer'
_symmetry_space_group_name_H-M	'P1'
_symmetry_Int_Tables_number	1
_symmetry_cell_setting	triclinic
loop_
_symmetry_equiv_pos_as_xyz
  x,y,z
_cell_length_a	17.639044
_cell_length_b	17.640280
_cell_length_c	10.686551
_cell_angle_alpha	106.368030
_cell_angle_beta	83.973003
_cell_angle_gamma	70.392877
loop_
_atom_site_label
_atom_site_type_symbol
_atom_site_fract_x
_atom_site_fract_y
_atom_site_fract_z
Zn1	Zn	1.329981	-0.578620	0.096828
Zn2	Zn	1.347190	-0.727003	-0.167583
Zn3	Zn	1.185892	-0.557125	-0.060633
Zn4	Zn	1.220028	-0.688542	0.096887
O5	O	1.270773	-0.637823	-0.008625
O6	O	1.445784	-0.623395	0.016970
O7	O	1.318709	-0.711569	-0.329976
O8	O	1.183518	-0.442878	0.004989
O9	O	1.458427	-0.732412	-0.177292
O10	O	1.289380	-0.458670	0.120675
O11	O	1.200205	-0.586760	-0.251400
O12	O	1.076901	-0.549466	0.005046
O13	O	1.241698	-0.666861	0.273459
O14	O	1.101981	-0.646018	0.120775
O15	O	1.322480	-0.586101	0.273416
O16	O	1.351810	-0.838999	-0.177235
O17	O	1.258384	-0.810742	0.017070
C18	C	1.060007	-0.591236	0.074523
C19	C	0.969845	-0.571326	0.110117
C20	C	0.836203	-0.486586	0.261509
C21	C	0.920924	-0.505302	0.228052
C22	C	0.934056	-0.618657	0.025587
C23	C	0.849333	-0.599948	0.059024
C24	C	0.800413	-0.533912	0.176987
C25	C	0.813543	-0.647274	-0.025498
C26	C	0.728828	-0.628569	0.007940
C27	C	0.679903	-0.562538	0.125900
C28	C	0.715698	-0.515207	0.210425
C29	C	0.862466	-0.713314	-0.143456
C30	C	0.826676	-0.760640	-0.227978
C31	C	0.741959	-0.741931	-0.194545
C32	C	0.693034	-0.675900	-0.076585
C33	C	0.706164	-0.789262	-0.279070
C34	C	0.621449	-0.770557	-0.245632
C35	C	0.608319	-0.657195	-0.043147
C36	C	1.310692	-0.855237	-0.091663
C37	C	1.327845	-0.948262	-0.127174
C38	C	1.140813	-1.180759	0.261475
C39	C	1.156931	-1.268172	0.228066
C40	C	1.254285	-1.297539	0.025874
C41	C	1.238179	-1.210126	0.059269
C42	C	1.181441	-1.151743	0.177070
C43	C	1.278806	-1.181110	-0.025136
C44	C	1.262697	-1.093705	0.008254
C45	C	1.205960	-1.035316	0.126048
C46	C	1.165332	-1.064337	0.210460
C47	C	1.335540	-1.239495	-0.142942
C48	C	1.376167	-1.210479	-0.227346
C49	C	1.360063	-1.123073	-0.193953
C50	C	1.303326	-1.064684	-0.076159
C51	C	1.400692	-1.094051	-0.278365
C52	C	1.384583	-1.006646	-0.244975
C53	C	1.287217	-0.977278	-0.042769
C54	C	1.482362	-0.684591	-0.092098
C55	C	1.572529	-0.704521	-0.127669
C56	C	1.283977	-0.624588	0.320503
C57	C	1.289604	-0.618948	0.460758
C58	C	1.230722	-0.419563	0.074755
C59	C	1.213654	-0.326554	0.110287
C60	C	1.257656	-0.650955	-0.336469
C61	C	1.252143	-0.656394	-0.476695
H62	H	0.568483	-0.603413	0.052900
Cl63	Cl	0.576456	-0.830066	-0.351875
H64	H	0.675862	-0.461425	0.306472
Cl65	Cl	1.345779	-0.562793	0.543741
H66	H	1.119136	-1.016799	0.306393
Cl67	Cl	1.325612	-1.370943	-0.122211
H68	H	1.215768	-0.692770	0.469553
Cl69	Cl	0.774694	-0.403556	0.409796
H70	H	1.241022	-0.929740	0.053164
H71	H	0.610924	-0.547312	0.153126
H72	H	0.973898	-0.672425	-0.070456
Cl73	Cl	0.965914	-0.445797	0.334322
H74	H	1.348656	-1.310665	-0.170121
H75	H	0.931442	-0.728529	-0.170691
H76	H	0.866518	-0.814408	-0.324021
Cl77	Cl	1.472010	-1.167456	-0.426457
Cl78	Cl	0.767675	-0.872284	-0.427351
H79	H	1.094617	-1.133220	0.357408
Cl80	Cl	1.185906	-0.925463	0.168243
Cl81	Cl	1.105839	-1.304644	0.334178
H82	H	1.417665	-0.983022	-0.313708
Cl83	Cl	1.447494	-1.283882	-0.375431
