data_functionalizedCrystal
_audit_creation_method	'MofGen! by Chris Wilmer'
_symmetry_space_group_name_H-M	'P1'
_symmetry_Int_Tables_number	1
_symmetry_cell_setting	triclinic
loop_
_symmetry_equiv_pos_as_xyz
  x,y,z
_cell_length_a	18.050591
_cell_length_b	18.050590
_cell_length_c	18.050582
_cell_angle_alpha	90.023337
_cell_angle_beta	90.020922
_cell_angle_gamma	90.014558
loop_
_atom_site_label
_atom_site_type_symbol
_atom_site_fract_x
_atom_site_fract_y
_atom_site_fract_z
Zn1	Zn	1.135342	-0.295786	0.420027
Zn2	Zn	1.135274	-0.419969	0.295836
Zn3	Zn	1.011162	-0.295789	0.295839
Zn4	Zn	1.011131	-0.419930	0.419971
O5	O	1.073227	-0.357868	0.357918
O6	O	1.239258	-0.312274	0.403576
O7	O	1.118795	-0.403514	0.191912
O8	O	1.027676	-0.191864	0.312337
O9	O	1.239208	-0.403511	0.312332
O10	O	1.118911	-0.191862	0.403578
O11	O	1.027610	-0.312279	0.191914
O12	O	0.907233	-0.312241	0.312283
O13	O	1.027623	-0.403444	0.523903
O14	O	0.907210	-0.403447	0.403482
O15	O	1.118881	-0.312236	0.523945
O16	O	1.118765	-0.523888	0.312278
O17	O	1.027557	-0.523860	0.403480
C18	C	0.880275	-0.357841	0.357877
C19	C	0.797729	-0.357847	0.357877
C20	C	0.598269	-0.308191	0.308397
C21	C	0.548861	-0.375927	0.290120
C22	C	0.646599	-0.357869	0.357911
C23	C	0.548925	-0.290157	0.376186
C24	C	0.500614	-0.357885	0.357942
C25	C	0.598278	-0.425641	0.339598
C26	C	0.598346	-0.339825	0.425696
C27	C	0.548961	-0.407607	0.407445
C28	C	0.730697	-0.357859	0.357891
C29	C	0.416517	-0.357903	0.357962
C30	C	1.073170	-0.550820	0.357889
C31	C	1.073214	-0.633366	0.357901
C32	C	1.122916	-0.832806	0.308375
C33	C	1.141051	-0.882145	0.376157
C34	C	1.073256	-0.784497	0.357930
C35	C	1.055196	-0.882238	0.290179
C36	C	1.073298	-0.930482	0.357953
C37	C	1.091426	-0.832749	0.425748
C38	C	1.005539	-0.832838	0.339725
C39	C	1.023649	-0.882155	0.407554
C40	C	1.073233	-0.700398	0.357916
C41	C	1.073320	-1.014578	0.357975
C42	C	1.266933	-0.357897	0.357960
C43	C	1.349479	-0.357909	0.357978
C44	C	1.073256	-0.357835	0.551624
C45	C	1.073269	-0.357821	0.634170
C46	C	1.073305	-0.164163	0.357964
C47	C	1.073338	-0.081617	0.357984
C48	C	1.073241	-0.357848	0.164966
C49	C	1.073372	-0.357652	0.082421
C50	C	1.023681	-0.407353	0.833598
C51	C	1.091439	-0.425511	0.882996
C52	C	1.073305	-0.357765	0.785300
C53	C	1.005584	-0.339586	0.882984
C54	C	1.073335	-0.357711	0.931285
C55	C	1.141099	-0.375958	0.833611
C56	C	1.055199	-0.290002	0.833594
C57	C	1.123004	-0.308134	0.882970
C58	C	1.073287	-0.357797	0.701202
C59	C	1.073360	-0.357679	1.015382
H60	H	0.620100	-0.324530	0.482990
N61	N	1.212903	-0.909338	0.395500
N62	N	1.220970	-0.948909	0.451739
H63	H	1.271716	-0.968113	0.465397
H64	H	0.948301	-0.324232	0.904672
N65	N	0.625426	-0.255538	0.255819
N66	N	0.580960	-0.218360	0.217935
H67	H	0.600139	-0.181175	0.180801
N68	N	0.521603	-0.395086	0.218221
N69	N	0.537394	-0.355612	0.163579
H70	H	0.518148	-0.369139	0.112798
H71	H	1.106662	-0.811103	0.483104
H72	H	1.106771	-0.482794	0.904696
N73	N	1.212980	-0.395294	0.806513
N74	N	1.224562	-0.398459	0.738317
H75	H	1.275327	-0.412113	0.719176
N76	N	1.175730	-0.255501	0.909989
N77	N	1.242758	-0.262316	0.894014
H78	H	1.279998	-0.225146	0.913097
H79	H	1.164925	-0.811136	0.266510
N80	N	0.970980	-0.909178	0.460184
N81	N	0.918211	-0.948810	0.439147
H82	H	0.881013	-0.967894	0.476317
N83	N	1.035934	-0.218161	0.806357
N84	N	0.974458	-0.190492	0.822145
H85	H	0.960844	-0.139753	0.802909
N86	N	0.933704	-0.805637	0.320350
N87	N	0.925858	-0.765157	0.264731
H88	H	0.875123	-0.745945	0.251038
N89	N	0.625365	-0.497504	0.320143
N90	N	0.693560	-0.509087	0.316965
H91	H	0.712693	-0.559839	0.303223
H92	H	0.527446	-0.449673	0.449330
H93	H	0.527208	-0.232894	0.391604
N94	N	1.036009	-0.909493	0.218285
N95	N	1.022832	-0.865095	0.166818
H96	H	1.009287	-0.884341	0.116040
H97	H	0.981754	-0.449342	0.811921
