data_functionalizedCrystal
_audit_creation_method	'MofGen! by Chris Wilmer'
_symmetry_space_group_name_H-M	'P1'
_symmetry_Int_Tables_number	1
_symmetry_cell_setting	triclinic
loop_
_symmetry_equiv_pos_as_xyz
  x,y,z
_cell_length_a	15.298068
_cell_length_b	29.839131
_cell_length_c	15.298431
_cell_angle_alpha	99.726164
_cell_angle_beta	88.414624
_cell_angle_gamma	99.692747
loop_
_atom_site_label
_atom_site_type_symbol
_atom_site_fract_x
_atom_site_fract_y
_atom_site_fract_z
Zn1	Zn	1.253505	-0.008245	0.727423
Zn2	Zn	1.753505	0.491755	1.227423
Zn3	Zn	1.278710	-0.093840	0.580900
Zn4	Zn	1.778710	0.406160	1.080900
Zn5	Zn	1.132345	-0.033507	0.555563
Zn6	Zn	1.632345	0.466493	1.055563
Zn7	Zn	1.106959	-0.098160	0.701932
Zn8	Zn	1.606959	0.401840	1.201932
O9	O	1.192880	-0.058438	0.641454
O10	O	1.692880	0.441562	1.141454
O11	O	1.379433	-0.007219	0.729259
O12	O	1.879433	0.492781	1.229259
O13	O	1.280467	-0.094600	0.454962
O14	O	1.780467	0.405400	0.954962
O15	O	1.148494	0.032724	0.578425
O16	O	1.648494	0.532724	1.078425
O17	O	1.397951	-0.070105	0.621608
O18	O	1.897951	0.429895	1.121608
O19	O	1.237509	0.051283	0.704691
O20	O	1.737509	0.551283	1.204691
O21	O	1.172933	-0.050274	0.436347
O22	O	1.672933	0.449726	0.936347
O23	O	1.006394	-0.054463	0.553707
O24	O	1.506394	0.445537	1.053707
O25	O	1.105226	-0.077469	0.827890
O26	O	1.605226	0.422531	1.327890
O27	O	0.987742	-0.101964	0.661244
O28	O	1.487742	0.398036	1.161244
O29	O	1.212893	-0.011409	0.846618
O30	O	1.712893	0.488591	1.346618
O31	O	1.255851	-0.157292	0.596890
O32	O	1.755851	0.342708	1.096890
O33	O	1.129666	-0.160466	0.685812
O34	O	1.629666	0.339534	1.185812
C35	C	0.965283	-0.081424	0.601960
C36	C	1.465283	0.418576	1.101960
C37	C	0.867913	-0.091267	0.585085
C38	C	1.367913	0.408733	1.085085
C39	C	0.554818	0.011798	0.762065
C40	C	1.054818	0.511798	1.262065
C41	C	0.646302	0.021045	0.777925
C42	C	1.146302	0.521045	1.277925
C43	C	0.701709	-0.007032	0.729716
C44	C	1.201709	0.492968	1.229716
C45	C	0.665624	-0.044358	0.665645
C46	C	1.165624	0.455642	1.165645
C47	C	0.574130	-0.053608	0.649788
C48	C	1.074130	0.446392	1.149788
C49	C	0.721021	-0.072438	0.617440
C50	C	1.221021	0.427562	1.117440
C51	C	0.684936	-0.109764	0.553369
C52	C	1.184936	0.390236	1.053369
C53	C	0.593451	-0.119012	0.537515
C54	C	1.093451	0.380988	1.037515
C55	C	0.538044	-0.090935	0.585723
C56	C	1.038044	0.409065	1.085723
C57	C	0.812514	-0.063188	0.633296
C58	C	1.312514	0.436812	1.133296
C59	C	0.831827	-0.128594	0.521020
C60	C	1.331827	0.371406	1.021020
C61	C	0.740343	-0.137841	0.505160
C62	C	1.240343	0.362159	1.005160
C63	C	1.192759	-0.175179	0.641357
C64	C	1.692759	0.324821	1.141357
C65	C	1.192782	-0.225112	0.641359
C66	C	1.692782	0.274888	1.141359
C67	C	1.239204	-0.525035	0.707278
C68	C	1.739204	-0.025035	1.207278
C69	C	1.239290	-0.712695	0.707348
C70	C	1.739290	-0.212695	1.207348
O71	O	1.278638	-0.728713	0.763317
O72	O	1.778638	-0.228713	1.263317
N73	N	1.193012	-0.745858	0.641577
N74	N	1.693012	-0.245858	1.141577
C75	C	1.146704	-0.732104	0.575789
C76	C	1.646704	-0.232104	1.075789
O77	O	1.107336	-0.764618	0.519854
O78	O	1.607336	-0.264618	1.019854
C79	C	1.146613	-0.544446	0.575724
C80	C	1.646613	-0.044446	1.075724
C81	C	1.192902	-0.511284	0.641493
C82	C	1.692902	-0.011284	1.141493
C83	C	1.285489	-0.491874	0.773043
C84	C	1.785489	0.008126	1.273043
C85	C	1.285471	-0.444962	0.773022
C86	C	1.785471	0.055038	1.273022
C87	C	1.239168	-0.431211	0.707237
C88	C	1.739168	0.068789	1.207237
C89	C	1.192884	-0.464372	0.641473
C90	C	1.692884	0.035628	1.141473
C91	C	1.100300	-0.530693	0.509940
C92	C	1.600300	-0.030693	1.009940
C93	C	1.100280	-0.483774	0.509931
C94	C	1.600280	0.016226	1.009931
C95	C	1.146569	-0.450613	0.575700
C96	C	1.646569	0.049387	1.075700
C97	C	1.146564	-0.403708	0.575667
C98	C	1.646564	0.096292	1.075667
N99	N	1.192842	-0.370545	0.641437
N100	N	1.692842	0.129455	1.141437
C101	C	1.239145	-0.384296	0.707222
C102	C	1.739145	0.115704	1.207222
C103	C	1.146756	-0.830627	0.575826
C104	C	1.646756	-0.330627	1.075826
C105	C	1.146780	-0.877542	0.575841
C106	C	1.646780	-0.377542	1.075841
C107	C	1.239365	-0.858129	0.707402
C108	C	1.739365	-0.358129	1.207402
C109	C	1.239346	-0.811214	0.707382
C110	C	1.739346	-0.311214	1.207382
C111	C	1.193035	-0.797464	0.641596
C112	C	1.693035	-0.297464	1.141596
C113	C	1.239104	-0.285778	0.707173
C114	C	1.739104	0.214222	1.207173
C115	C	1.239085	-0.238863	0.707144
C116	C	1.739085	0.261137	1.207144
C117	C	1.146496	-0.258280	0.575587
C118	C	1.646496	0.241720	1.075587
C119	C	1.146518	-0.305191	0.575613
C120	C	1.646518	0.194809	1.075613
C121	C	1.192824	-0.318938	0.641413
C122	C	1.692824	0.181062	1.141413
O123	O	1.107228	-0.387658	0.519732
O124	O	1.607228	0.112342	1.019732
O125	O	1.278491	-0.351776	0.763160
O126	O	1.778491	0.148224	1.263160
C127	C	1.239222	-0.571947	0.707299
C128	C	1.739222	-0.071947	1.207299
C129	C	1.192938	-0.605108	0.641535
C130	C	1.692938	-0.105108	1.141535
C131	C	1.146636	-0.591357	0.575750
C132	C	1.646636	-0.091357	1.075750
C133	C	1.192962	-0.652023	0.641550
C134	C	1.692962	-0.152023	1.141550
C135	C	1.239264	-0.665774	0.707335
C136	C	1.739264	-0.165774	1.207335
C137	C	1.285543	-0.632611	0.773105
C138	C	1.785543	-0.132611	1.273105
C139	C	1.285525	-0.585698	0.773084
C140	C	1.785525	-0.085698	1.273084
C141	C	1.100357	-0.624520	0.509979
C142	C	1.600357	-0.124520	1.009979
C143	C	1.100380	-0.671432	0.510005
C144	C	1.600380	-0.171432	1.010005
C145	C	1.146682	-0.685183	0.575790
C146	C	1.646682	-0.185183	1.075790
C147	C	1.421365	-0.035362	0.681103
C148	C	1.921365	0.464638	1.181103
C149	C	1.518732	-0.025529	0.697999
C150	C	2.018732	0.474471	1.197999
C151	C	1.153417	-0.042103	0.869926
C152	C	1.653417	0.457897	1.369926
C153	C	1.136600	-0.035142	0.967286
C154	C	1.636600	0.464858	1.467286
C155	C	1.193022	0.058763	0.641575
C156	C	1.693022	0.558763	1.141575
C157	C	1.193082	0.108707	0.641627
C158	C	1.693082	0.608707	1.141627
C159	C	1.232240	-0.074672	0.413881
C160	C	1.732240	0.425328	0.913881
C161	C	1.249227	-0.081489	0.316550
C162	C	1.749227	0.418511	0.816550
C163	C	1.072711	-0.008792	1.003328
C164	C	1.572711	0.491208	1.503328
C165	C	1.056899	-0.002254	1.094801
C166	C	1.556899	0.497746	1.594801
C167	C	1.104980	-0.022062	1.150243
C168	C	1.604980	0.477938	1.650243
C169	C	1.168874	-0.048410	1.114202
C170	C	1.668874	0.451590	1.614202
C171	C	1.184683	-0.054952	1.022719
C172	C	1.684683	0.445048	1.522719
C173	C	1.216952	-0.068221	1.169634
C174	C	1.716952	0.431779	1.669634
C175	C	1.280847	-0.094569	1.133594
C176	C	1.780847	0.405431	1.633594
C177	C	1.296653	-0.101110	1.042120
C178	C	1.796653	0.398890	1.542120
C179	C	1.248572	-0.081302	0.986678
C180	C	1.748572	0.418698	1.486678
C181	C	1.201143	-0.061679	1.261117
C182	C	1.701143	0.438321	1.761117
C183	C	1.313116	-0.107839	1.280509
C184	C	1.813116	0.392161	1.780509
C185	C	1.328928	-0.114377	1.189036
C186	C	1.828928	0.385623	1.689036
H187	H	1.276782	-0.211863	0.760702
H188	H	1.776782	0.288137	1.260702
Br189	Br	1.114432	-0.025922	1.310018
Br190	Br	1.614432	0.474078	1.810018
H191	H	1.004873	0.019197	1.124138
H192	H	1.504873	0.519197	1.624138
H193	H	0.564073	-0.149408	0.485350
H194	H	1.064073	0.350592	0.985350
H195	H	1.261446	-0.086622	0.912192
H196	H	1.761446	0.413378	1.412192
Br197	Br	0.413883	-0.103481	0.564196
Br198	Br	0.913883	0.396519	1.064196
H199	H	1.062565	-0.472583	0.456361
H200	H	1.562565	0.027417	0.956361
Br201	Br	1.007479	0.018095	0.928086
Br202	Br	1.507479	0.518095	1.428086
Br203	Br	1.301949	-0.304428	0.796473
Br204	Br	1.801949	0.195572	1.296473
H205	H	0.710949	-0.168232	0.452994
H206	H	1.210949	0.331768	0.952994
Br207	Br	1.348288	-0.399964	0.862290
Br208	Br	1.848288	0.100036	1.362290
H209	H	1.348669	-0.122571	1.012777
H210	H	1.848669	0.377429	1.512777
H211	H	1.323193	-0.503064	0.826618
H212	H	1.823193	-0.003064	1.326618
H213	H	0.841886	-0.032796	0.685463
H214	H	1.341886	0.467204	1.185463
H215	H	1.277068	-0.869333	0.760966
H216	H	1.777068	-0.369333	1.260966
H217	H	1.277038	-0.784215	0.760937
H218	H	1.777038	-0.284215	1.260937
H219	H	0.876939	-0.151459	0.481769
H220	H	1.376939	0.348541	0.981769
Br221	Br	1.083974	-0.922541	0.486567
Br222	Br	1.583974	-0.422541	0.986567
Br223	Br	1.083893	-0.811975	0.486541
Br224	Br	1.583893	-0.311975	0.986541
Br225	Br	0.825867	0.005518	0.751241
Br226	Br	1.325867	0.505518	1.251241
Br227	Br	0.695268	0.071697	0.864880
Br228	Br	1.195268	0.571697	1.364880
H229	H	1.092103	-0.016736	1.224724
H230	H	1.592103	0.483264	1.724724
H231	H	1.380951	-0.135830	1.159678
H232	H	1.880951	0.364170	1.659678
H233	H	1.352269	-0.123967	1.325650
H234	H	1.852269	0.376033	1.825650
H235	H	1.108834	-0.332193	0.522053
H236	H	1.608834	0.167807	1.022053
Br237	Br	0.479619	0.049892	0.827497
Br238	Br	0.979619	0.549892	1.327497
H239	H	1.062607	-0.557686	0.456383
H240	H	1.562607	-0.057686	0.956383
H241	H	1.108800	-0.247076	0.522023
H242	H	1.608800	0.252924	1.022023
H243	H	1.323217	-0.558701	0.826640
H244	H	1.823217	-0.058701	1.326640
H245	H	1.323247	-0.643815	0.826667
H246	H	1.823247	-0.143815	1.326667
Br247	Br	1.037559	-0.716432	0.420733
Br248	Br	1.537559	-0.216432	0.920733
H249	H	1.062651	-0.613329	0.456410
H250	H	1.562651	-0.113329	0.956410
