data_functionalizedCrystal
_audit_creation_method	'MofGen! by Chris Wilmer'
_symmetry_space_group_name_H-M	'P1'
_symmetry_Int_Tables_number	1
_symmetry_cell_setting	triclinic
loop_
_symmetry_equiv_pos_as_xyz
  x,y,z
_cell_length_a	12.503572
_cell_length_b	11.792241
_cell_length_c	11.792241
_cell_angle_alpha	95.806584
_cell_angle_beta	86.452757
_cell_angle_gamma	86.461724
loop_
_atom_site_label
_atom_site_type_symbol
_atom_site_fract_x
_atom_site_fract_y
_atom_site_fract_z
O1	O	0.089216	-1.513406	0.149050
O2	O	0.589216	-1.013406	0.649050
O3	O	0.089241	-1.183067	0.165081
O4	O	0.589241	-0.683067	0.665081
O5	O	0.089221	-1.356252	-0.008105
O6	O	0.589221	-0.856252	0.491895
O7	O	0.089237	-1.340220	0.322235
O8	O	0.589237	-0.840220	0.822235
O9	O	-0.089420	-1.343228	0.004941
O10	O	0.410580	-0.843228	0.504941
O11	O	-0.089399	-1.170042	0.178127
O12	O	0.410601	-0.670042	0.678127
O13	O	-0.089424	-1.500381	0.162096
O14	O	0.410576	-1.000381	0.662096
Cu15	Cu	-0.105723	-1.334023	0.171303
Cu16	Cu	0.394277	-0.834023	0.671303
Cu17	Cu	0.105540	-1.349425	0.155874
Cu18	Cu	0.605540	-0.849425	0.655874
O19	O	-0.089403	-1.327196	0.335281
O20	O	0.410597	-0.827196	0.835281
C21	C	-0.000076	-1.134264	0.170596
C22	C	0.499924	-0.634264	0.670596
C23	C	-0.000066	-1.008251	0.167581
C24	C	0.499934	-0.508251	0.667581
N25	N	-0.254314	-1.323197	0.182154
N26	N	0.245686	-0.823197	0.682154
C27	C	-0.000099	-1.348733	-0.043873
C28	C	0.499901	-0.848733	0.456127
C29	C	-0.000098	-1.345718	-0.169886
C30	C	0.499902	-0.845718	0.330114
C31	C	-0.473427	-1.307273	0.198126
C32	C	0.026573	-0.807273	0.698126
C33	C	-0.526763	-1.376180	0.129046
C34	C	-0.026763	-0.876180	0.629046
C35	C	-0.648685	-1.367320	0.137933
C36	C	-0.148685	-0.867320	0.637933
C37	C	-0.351494	-1.316132	0.189240
C38	C	0.148506	-0.816132	0.689240
N39	N	0.254131	-1.360260	0.145014
N40	N	0.754131	-0.860260	0.645014
C41	C	-0.000105	-1.549185	0.156580
C42	C	0.499895	-1.049185	0.656580
C43	C	-0.000107	-1.675198	0.159594
C44	C	0.499893	-1.175198	0.659594
C45	C	-0.000097	-0.777536	0.162041
C46	C	0.499903	-0.277536	0.662041
C47	C	-0.000080	-0.905923	0.165119
C48	C	0.499920	-0.405923	0.665119
C49	C	-0.000079	-1.340177	-0.400600
C50	C	0.499921	-0.840177	0.099400
C51	C	-0.000089	-1.343256	-0.272214
C52	C	0.499911	-0.843256	0.227786
C53	C	-0.000081	-1.334715	0.371049
C54	C	0.499919	-0.834715	0.871049
C55	C	-0.000076	-1.337730	0.497062
C56	C	0.499924	-0.837730	0.997062
H57	H	-0.480857	-1.441829	0.063231
H58	H	0.019143	-0.941829	0.563231
Br59	Br	-0.549931	-1.197861	0.307820
Br60	Br	-0.049931	-0.697861	0.807820
