data_functionalizedCrystal
_audit_creation_method	'MofGen! by Chris Wilmer'
_symmetry_space_group_name_H-M	'P1'
_symmetry_Int_Tables_number	1
_symmetry_cell_setting	triclinic
loop_
_symmetry_equiv_pos_as_xyz
  x,y,z
_cell_length_a	15.298068
_cell_length_b	21.295417
_cell_length_c	15.296720
_cell_angle_alpha	99.639335
_cell_angle_beta	88.354818
_cell_angle_gamma	99.688570
loop_
_atom_site_label
_atom_site_type_symbol
_atom_site_fract_x
_atom_site_fract_y
_atom_site_fract_z
Zn1	Zn	1.253349	-0.187264	-0.727337
Zn2	Zn	1.278597	-0.271807	-0.580856
Zn3	Zn	1.132230	-0.181147	-0.555505
Zn4	Zn	1.106821	-0.307097	-0.701874
O5	O	1.192749	-0.236829	-0.641393
O6	O	1.379276	-0.186270	-0.729172
O7	O	1.280381	-0.242452	-0.454934
O8	O	1.148363	-0.093867	-0.578345
O9	O	1.397826	-0.248383	-0.621553
O10	O	1.237349	-0.098361	-0.704590
O11	O	1.172846	-0.175845	-0.436308
O12	O	1.006281	-0.210064	-0.553655
O13	O	1.105058	-0.308530	-0.827811
O14	O	0.987614	-0.302599	-0.661192
O15	O	1.212711	-0.220489	-0.846518
O16	O	1.255744	-0.364580	-0.596862
O17	O	1.129540	-0.390508	-0.685774
C18	C	0.965164	-0.259498	-0.601910
C19	C	0.867799	-0.269213	-0.585040
C20	C	0.554651	-0.167547	-0.761968
C21	C	0.646130	-0.158421	-0.777824
C22	C	0.701551	-0.186118	-0.729629
C23	C	0.665486	-0.222943	-0.665576
C24	C	0.573997	-0.232074	-0.649724
C25	C	0.720897	-0.250645	-0.617385
C26	C	0.684832	-0.287470	-0.553332
C27	C	0.593352	-0.296599	-0.537483
C28	C	0.537930	-0.268902	-0.585677
C29	C	0.812386	-0.241514	-0.633237
C30	C	0.831732	-0.306042	-0.520993
C31	C	0.740253	-0.315168	-0.505138
C32	C	1.192645	-0.400385	-0.641329
C33	C	1.192676	-0.470352	-0.641345
C34	C	1.238972	-0.505510	-0.707115
C35	C	1.238999	-0.571253	-0.707142
C36	C	1.192742	-0.601831	-0.641385
C37	C	1.146436	-0.566665	-0.575609
C38	C	1.146403	-0.500926	-0.575589
N39	N	1.199402	-0.694899	-0.563593
N40	N	1.199438	-0.757349	-0.563615
C41	C	1.192837	-0.799901	-0.641442
N42	N	1.186216	-0.777643	-0.719251
N43	N	1.186185	-0.715187	-0.719228
C44	C	1.192772	-0.673115	-0.641400
C45	C	1.239165	-0.906345	-0.707247
C46	C	1.239186	-0.972090	-0.707274
C47	C	1.146629	-0.967500	-0.575734
C48	C	1.146602	-0.901758	-0.575714
C49	C	1.192875	-0.871184	-0.641470
C50	C	1.421222	-0.214072	-0.681030
C51	C	1.518584	-0.204375	-0.697921
C52	C	1.153234	-0.269128	-0.869831
C53	C	1.136395	-0.282892	-0.967178
C54	C	1.192874	-0.072634	-0.641480
C55	C	1.192927	-0.002664	-0.641517
C56	C	1.313133	-0.138342	-1.280544
C57	C	1.328960	-0.125411	-1.189083
C58	C	1.280820	-0.164780	-1.133602
C59	C	1.216851	-0.217083	-1.169592
C60	C	1.201027	-0.230019	-1.261063
C61	C	1.168714	-0.256456	-1.114121
C62	C	1.104745	-0.308759	-1.150111
C63	C	1.088924	-0.321692	-1.241573
C64	C	1.137064	-0.282323	-1.297053
C65	C	1.184537	-0.243520	-1.022650
C66	C	1.072431	-0.335197	-1.003169
C67	C	1.056605	-0.348128	-1.094630
C68	C	1.232161	-0.204605	-0.413852
C69	C	1.249170	-0.190647	-0.316535
H70	H	0.509518	-0.145004	-0.801206
H71	H	0.776038	-0.178683	-0.742539
H72	H	0.876856	-0.328599	-0.481753
H73	H	1.004520	-0.390714	-1.123946
H74	H	1.236621	-0.200934	-0.993356
C75	C	1.325817	-0.203922	-1.006452
C76	C	1.298252	-0.150567	-1.033073
H77	H	1.336595	-0.195142	-0.944390
H78	H	1.280822	-0.240694	-1.019922
H79	H	1.378736	-0.212105	-1.036983
H80	H	1.245329	-0.142386	-1.002547
H81	H	1.343250	-0.113783	-1.019594
C82	C	1.053359	-0.350763	-1.417471
C83	C	1.119667	-0.296539	-1.397593
H84	H	1.042619	-0.359535	-1.479540
H85	H	1.072060	-0.386946	-1.399390
H86	H	1.000425	-0.342576	-1.386972
H87	H	1.172604	-0.304728	-1.428087
H88	H	1.100970	-0.260348	-1.415683
H89	H	1.276840	-0.881452	-0.760792
C90	C	1.129554	-0.570242	-0.419894
C91	C	1.095589	-0.600273	-0.503326
H92	H	1.098154	-0.590988	-0.375271
H93	H	1.190624	-0.573313	-0.417342
H94	H	1.122903	-0.526059	-0.410481
H95	H	1.102245	-0.644456	-0.512741
H96	H	1.034503	-0.597208	-0.505880
C97	C	1.280150	-0.674067	-0.765567
C98	C	1.289894	-0.609909	-0.779438
H99	H	1.311568	-0.697930	-0.810202
H100	H	1.303194	-0.675244	-0.708971
H101	H	1.219079	-0.692541	-0.768135
H102	H	1.350965	-0.591433	-0.776863
H103	H	1.266854	-0.608729	-0.836049
H104	H	0.675487	-0.128440	-0.829978
C105	C	1.005502	-0.489523	-0.507071
C106	C	1.095515	-0.462275	-0.503285
H107	H	0.974089	-0.465663	-0.462428
H108	H	0.982461	-0.488334	-0.563664
H109	H	0.998909	-0.533052	-0.497674
H110	H	1.102109	-0.418748	-0.512689
H111	H	1.118563	-0.463458	-0.446679
H112	H	1.276647	-0.480619	-0.760659
C113	C	1.030968	-1.051510	-0.543060
C114	C	1.095774	-1.001104	-0.503455
H115	H	0.999573	-1.072260	-0.498438
H116	H	0.990832	-1.034603	-0.575360
H117	H	1.058553	-1.081858	-0.582233
H118	H	1.068189	-0.970753	-0.464287
H119	H	1.135917	-1.018011	-0.471140
H120	H	1.276884	-1.000715	-0.760836
H121	H	1.108908	-0.873129	-0.522155
H122	H	0.463439	-0.276336	-0.572777
C123	C	1.046899	-0.356073	-0.854309
C124	C	1.019507	-0.378474	-0.942192
H125	H	1.014225	-0.382788	-0.816663
H126	H	1.108331	-0.357308	-0.849529
H127	H	1.036703	-0.312933	-0.837131
H128	H	1.029710	-0.421613	-0.959372
H129	H	0.958061	-0.377246	-0.946976
H130	H	0.563989	-0.326591	-0.485334
H131	H	0.710875	-0.345152	-0.452986
H132	H	0.841742	-0.211530	-0.685388
H133	H	1.381045	-0.082827	-1.159788
C134	C	1.338649	-0.117477	-1.429410
C135	C	1.366046	-0.095075	-1.341529
H136	H	1.371317	-0.090761	-1.467058
H137	H	1.348842	-0.160612	-1.446588
H138	H	1.277208	-0.116240	-1.434186
H139	H	1.427486	-0.096316	-1.336752
H140	H	1.355861	-0.051929	-1.324346
H141	H	1.036843	-0.364285	-1.270873
