data_functionalizedCrystal
_audit_creation_method	'MofGen! by Chris Wilmer'
_symmetry_space_group_name_H-M	'P1'
_symmetry_Int_Tables_number	1
_symmetry_cell_setting	triclinic
loop_
_symmetry_equiv_pos_as_xyz
  x,y,z
_cell_length_a	16.959455
_cell_length_b	13.032721
_cell_length_c	13.032268
_cell_angle_alpha	103.289627
_cell_angle_beta	97.163809
_cell_angle_gamma	97.201375
loop_
_atom_site_label
_atom_site_type_symbol
_atom_site_fract_x
_atom_site_fract_y
_atom_site_fract_z
Zn1	Zn	1.097589	-0.499160	-0.654200
Zn2	Zn	1.597589	0.000840	-0.154200
Zn3	Zn	1.097503	-0.654244	-0.499148
Zn4	Zn	1.597503	-0.154244	0.000852
Zn5	Zn	0.984636	-0.476647	-0.476620
Zn6	Zn	1.484636	0.023353	0.023380
Zn7	Zn	0.946163	-0.676707	-0.676690
Zn8	Zn	1.446163	-0.176707	-0.176690
O9	O	1.031473	-0.576690	-0.576665
O10	O	1.531473	-0.076690	-0.076665
O11	O	1.208185	-0.519753	-0.633648
O12	O	1.708185	-0.019753	-0.133648
O13	O	1.098596	-0.611863	-0.347540
O14	O	1.598596	-0.111863	0.152460
O15	O	1.015757	-0.331004	-0.481336
O16	O	1.515757	0.168996	0.018664
O17	O	1.208121	-0.633693	-0.519732
O18	O	1.708121	-0.133693	-0.019732
O19	O	1.098743	-0.347544	-0.611804
O20	O	1.598743	0.152456	-0.111804
O21	O	1.015674	-0.481383	-0.330989
O22	O	1.515674	0.018617	0.169011
O23	O	0.868926	-0.503164	-0.503144
O24	O	1.368926	-0.003164	-0.003144
O25	O	0.950184	-0.671978	-0.822327
O26	O	1.450184	-0.171978	-0.322327
O27	O	0.840659	-0.650148	-0.650135
O28	O	1.340659	-0.150148	-0.150135
O29	O	1.061437	-0.541535	-0.805803
O30	O	1.561437	-0.041535	-0.305803
O31	O	1.061289	-0.805853	-0.541540
O32	O	1.561289	-0.305853	-0.041540
O33	O	0.950101	-0.822357	-0.671979
O34	O	1.450101	-0.322357	-0.171979
C35	C	1.001530	-0.852646	-0.611668
C36	C	1.501530	-0.352646	-0.111668
C37	C	0.988788	-0.970706	-0.626677
C38	C	1.488788	-0.470706	-0.126677
C39	C	0.826113	-0.576651	-0.576636
C40	C	1.326113	-0.076651	-0.076636
C41	C	0.738253	-0.576664	-0.576652
C42	C	1.238253	-0.076664	-0.076652
C43	C	1.038159	-1.015147	-0.568879
C44	C	1.538159	-0.515147	-0.068879
C45	C	1.024992	-1.137167	-0.584391
C46	C	1.524992	-0.637167	-0.084391
C47	C	0.381459	-0.500118	-0.500261
C48	C	0.881459	-0.000118	-0.000261
C49	C	0.352073	-0.653357	-0.653140
C50	C	0.852073	-0.153357	-0.153140
C51	C	0.434622	-0.653341	-0.653131
C52	C	0.934622	-0.153341	-0.153131
C53	C	0.490593	-0.576713	-0.576686
C54	C	0.990593	-0.076713	-0.076686
C55	C	0.464015	-0.500101	-0.500249
C56	C	0.964015	-0.000101	-0.000249
C57	C	0.461205	-0.729958	-0.729560
C58	C	0.961205	-0.229958	-0.229560
C59	C	0.543758	-0.729945	-0.729554
C60	C	1.043758	-0.229945	-0.229554
C61	C	0.599731	-0.653312	-0.653113
C62	C	1.099731	-0.153312	-0.153113
C63	C	0.573149	-0.576696	-0.576673
C64	C	1.073149	-0.076696	-0.076673
C65	C	0.629120	-0.500069	-0.500228
C66	C	1.129120	-0.000069	-0.000228
C67	C	0.602540	-0.423447	-0.423792
C68	C	1.102540	0.076553	0.076208
C69	C	0.519988	-0.423468	-0.423807
C70	C	1.019988	0.076532	0.076193
C71	C	0.682283	-0.653292	-0.653098
C72	C	1.182283	-0.153292	-0.153098
C73	C	0.711676	-0.500052	-0.500215
C74	C	1.211676	-0.000052	-0.000215
C75	C	1.237634	-0.576729	-0.576694
C76	C	1.737634	-0.076729	-0.076694
C77	C	1.325488	-0.576745	-0.576707
C78	C	1.825488	-0.076745	-0.076707
C79	C	1.001528	-0.611773	-0.853678
C80	C	1.501528	-0.111773	-0.353678
C81	C	0.988768	-0.626724	-0.971725
C82	C	1.488768	-0.126724	-0.471725
C83	C	1.061552	-0.299659	-0.541548
C84	C	1.561552	0.200341	-0.041548
C85	C	1.074369	-0.181604	-0.526584
C86	C	1.574369	0.318396	-0.026584
C87	C	1.038124	-0.568849	-1.016178
C88	C	1.538124	-0.068849	-0.516178
C89	C	1.024937	-0.584299	-1.138185
C90	C	1.524937	-0.084299	-0.638185
C91	C	1.061354	-0.541666	-0.300719
C92	C	1.561354	-0.041666	0.199281
C93	C	1.074300	-0.526416	-0.182635
C94	C	1.574300	-0.026416	0.317365
H95	H	1.090179	-0.962861	-0.507914
H96	H	1.590179	-0.462861	-0.007914
O97	O	0.352785	-0.417505	-0.417809
O98	O	0.852785	0.082495	0.082191
H99	H	0.315872	-0.369579	-0.458579
H100	H	0.815872	0.130421	0.041421
H101	H	0.936745	-0.687705	-1.023991
H102	H	1.436745	-0.187705	-0.523991
O103	O	0.291715	-0.736022	-0.735576
O104	O	0.791715	-0.236022	-0.235576
H105	H	0.300516	-0.728509	-0.816669
H106	H	0.800516	-0.228509	-0.316669
H107	H	0.972974	-1.189453	-0.645367
H108	H	1.472974	-0.689453	-0.145367
O109	O	0.400831	-0.812591	-0.812007
O110	O	0.900831	-0.312591	-0.312007
H111	H	0.362537	-0.771975	-0.860099
H112	H	0.862537	-0.271975	-0.360099
O113	O	1.143213	-0.445627	-1.113414
O114	O	1.643213	0.054373	-0.613414
H115	H	1.177359	-0.405580	-1.164538
H116	H	1.677359	0.094420	-0.664538
O117	O	1.143284	-1.112363	-0.445823
O118	O	1.643284	-0.612363	0.054177
H119	H	1.119198	-1.055036	-0.385366
H120	H	1.619198	-0.555036	0.114634
O121	O	0.919877	-1.039951	-0.707432
O122	O	1.419877	-0.539951	-0.207432
H123	H	0.920342	-1.124924	-0.706933
H124	H	1.420342	-0.624924	-0.206933
O125	O	1.107030	-0.488059	-0.946951
O126	O	1.607030	0.011941	-0.446951
H127	H	1.141176	-0.448009	-0.998072
H128	H	1.641176	0.051991	-0.498072
O129	O	0.956020	-0.665087	-1.207401
O130	O	1.456020	-0.165087	-0.707401
H131	H	0.980102	-0.725492	-1.264787
H132	H	1.480102	-0.225492	-0.764787
H133	H	0.648122	-0.361061	-0.361546
H134	H	1.148122	0.138939	0.138454
O135	O	0.772045	-0.417414	-0.417751
O136	O	1.272045	0.082586	0.082249
H137	H	0.739691	-0.364151	-0.364600
H138	H	1.239691	0.135849	0.135400
O139	O	0.572427	-0.812570	-0.812000
O140	O	1.072427	-0.312570	-0.312000
H141	H	0.519638	-0.865849	-0.865164
H142	H	1.019638	-0.365849	-0.365164
H143	H	0.498338	-0.361088	-0.361576
H144	H	0.998338	0.138912	0.138424
O145	O	0.710957	-0.735918	-0.735529
O146	O	1.210957	-0.235918	-0.235529
H147	H	0.658168	-0.789202	-0.788690
H148	H	1.158168	-0.289202	-0.288690
