data_functionalizedCrystal
_audit_creation_method	'MofGen! by Chris Wilmer'
_symmetry_space_group_name_H-M	'P1'
_symmetry_Int_Tables_number	1
_symmetry_cell_setting	triclinic
loop_
_symmetry_equiv_pos_as_xyz
  x,y,z
_cell_length_a	10.654550
_cell_length_b	17.038272
_cell_length_c	9.730223
_cell_angle_alpha	89.998176
_cell_angle_beta	89.996251
_cell_angle_gamma	87.798229
loop_
_atom_site_label
_atom_site_type_symbol
_atom_site_fract_x
_atom_site_fract_y
_atom_site_fract_z
O1	O	1.678036	0.109875	-0.114405
O2	O	1.313530	0.120343	-0.114384
O3	O	1.493617	0.001281	-0.114383
O4	O	1.497950	0.228936	-0.114406
O5	O	1.493615	0.001284	0.114196
O6	O	1.313528	0.120346	0.114196
O7	O	1.678034	0.109878	0.114175
Zn8	Zn	1.495781	0.115112	0.150477
Zn9	Zn	1.495783	0.115108	-0.150686
O10	O	1.497948	0.228939	0.114174
C11	C	1.266660	0.119576	-0.000091
C12	C	1.127003	0.117276	-0.000082
C13	C	1.054026	0.187378	-0.000109
C14	C	0.922804	0.185212	-0.000132
C15	C	0.937548	0.042837	-0.000108
C16	C	1.068767	0.045004	-0.000075
C17	C	1.045513	0.269577	-0.000129
C18	C	0.914292	0.267411	-0.000152
C19	C	1.489675	-0.027867	-0.000093
C20	C	1.477918	-0.114726	-0.000093
C21	C	1.585862	-0.164237	-0.000098
C22	C	1.574808	-0.245850	-0.000111
C23	C	1.455808	-0.277949	-0.000108
C24	C	1.347856	-0.228431	-0.000107
C25	C	1.358911	-0.146821	-0.000105
C26	C	1.416750	-0.523925	-0.000125
C27	C	1.405702	-0.605542	-0.000123
C28	C	1.632656	-0.622955	-0.000129
C29	C	1.643701	-0.541342	-0.000118
C30	C	1.535749	-0.491831	-0.000124
C31	C	1.444505	-0.361370	-0.000116
C32	C	1.547052	-0.408412	-0.000126
C33	C	1.724905	0.110645	-0.000121
C34	C	1.864562	0.112944	-0.000139
C35	C	1.501889	0.258088	-0.000119
C36	C	1.513646	0.344947	-0.000128
N37	N	1.495788	0.115115	0.356014
N38	N	1.495785	0.115100	-0.356223
C39	C	1.575554	0.062412	0.427940
C40	C	1.575550	0.062402	0.571823
C41	C	1.416010	0.167805	0.571841
C42	C	1.416009	0.167810	0.427961
C43	C	1.667667	0.001561	0.427931
C44	C	1.667663	0.001551	0.571814
H45	H	1.083600	0.295749	-0.098819
H46	H	1.077829	0.301726	0.095534
H47	H	1.351046	0.210718	0.369400
H48	H	1.347615	-0.387514	-0.000111
H49	H	1.351055	0.210708	0.630436
C50	C	0.861802	0.309142	-0.129492
H51	H	0.929260	0.327777	-0.182666
H52	H	0.807750	0.352158	-0.103094
H53	H	0.816031	0.273196	-0.182554
C54	C	1.716763	-0.128935	-0.000101
H55	H	1.779466	-0.170114	-0.000119
H56	H	1.725796	-0.097463	0.079609
H57	H	1.725793	-0.097460	-0.079822
C58	C	1.631148	-0.079662	0.375171
H59	H	1.616117	-0.113069	0.451111
H60	H	1.697579	-0.101892	0.320927
H61	H	1.557195	-0.074133	0.320941
C62	C	1.298007	-0.469474	-0.000107
H63	H	1.225555	-0.500282	-0.000087
H64	H	1.297590	-0.437271	-0.079814
H65	H	1.297605	-0.437281	0.079618
H66	H	1.271011	-0.106509	-0.000101
H67	H	1.250963	-0.254573	-0.000114
H68	H	1.643941	-0.382273	-0.000158
H69	H	1.662708	-0.286159	-0.000112
C70	C	1.793237	0.027292	0.367623
H71	H	1.849159	0.038743	0.440331
H72	H	1.778956	0.072845	0.312673
H73	H	1.829077	-0.013851	0.312675
H74	H	1.765419	0.014955	0.610857
C75	C	1.619339	-0.075211	0.632107
H76	H	1.597826	-0.109391	0.559394
H77	H	1.547267	-0.063723	0.687068
H78	H	1.683131	-0.099885	0.687043
H79	H	1.128180	-0.012080	-0.000033
C80	C	0.873490	-0.036658	-0.000108
H81	H	0.935750	-0.078098	-0.000079
H82	H	0.822624	-0.040466	-0.079828
H83	H	0.822592	-0.040459	0.079604
C84	C	0.855698	0.300971	0.133149
H85	H	0.920407	0.317420	0.192525
H86	H	0.809562	0.261614	0.177445
H87	H	0.800989	0.344596	0.111708
H88	H	1.740603	-0.515213	-0.000120
H89	H	1.720544	-0.663275	-0.000126
C90	C	1.274797	-0.640850	-0.000144
H91	H	1.212087	-0.599676	-0.000164
H92	H	1.265753	-0.672328	0.079563
H93	H	1.265789	-0.672321	-0.079869
