data_functionalizedCrystal
_audit_creation_method	'MofGen! by Chris Wilmer'
_symmetry_space_group_name_H-M	'P1'
_symmetry_Int_Tables_number	1
_symmetry_cell_setting	triclinic
loop_
_symmetry_equiv_pos_as_xyz
  x,y,z
_cell_length_a	9.065218
_cell_length_b	14.048226
_cell_length_c	9.065218
_cell_angle_alpha	89.995444
_cell_angle_beta	85.015885
_cell_angle_gamma	89.993494
loop_
_atom_site_label
_atom_site_type_symbol
_atom_site_fract_x
_atom_site_fract_y
_atom_site_fract_z
O1	O	1.960405	-0.079159	0.216360
O2	O	1.531121	-0.079160	0.234107
O3	O	1.754636	-0.079157	0.010591
O4	O	1.736890	-0.079161	0.439876
O5	O	1.754609	0.079164	0.010577
O6	O	1.531093	0.079162	0.234093
O7	O	1.960378	0.079163	0.216346
Zn8	Zn	1.745731	0.104299	0.225217
Zn9	Zn	1.745767	-0.104296	0.225235
O10	O	1.736862	0.079160	0.439862
C11	C	1.476120	0.000001	0.232394
C12	C	1.312277	0.000000	0.227294
N13	N	1.745717	0.246660	0.225204
N14	N	1.745793	-0.246657	0.225237
C15	C	2.015378	-0.000000	0.218059
C16	C	2.179221	-0.000006	0.223158
C17	C	1.752917	0.000002	-0.044403
C18	C	1.747817	-0.000003	-0.208245
C19	C	1.844722	0.296479	0.126273
C20	C	1.844732	0.396136	0.126273
C21	C	1.745743	0.445973	0.225211
C22	C	1.646728	0.396147	0.324147
C23	C	1.646712	0.296491	0.324139
C24	C	1.646771	0.603861	0.324158
C25	C	1.646788	0.703524	0.324168
C26	C	1.844791	0.703506	0.126292
C27	C	1.844775	0.603851	0.126284
C28	C	1.745761	0.554031	0.225222
C29	C	1.738582	-0.000001	0.494855
C30	C	1.743681	-0.000003	0.658698
H31	H	1.925336	0.255908	0.045713
H32	H	1.925348	0.436699	0.045715
C33	C	1.953692	0.758303	0.017450
H34	H	1.939514	0.824792	0.031608
H35	H	2.052378	0.741959	0.034847
H36	H	1.936345	0.741976	-0.081257
C37	C	1.537795	0.450960	0.432935
H38	H	1.478806	0.407014	0.491832
H39	H	1.591650	0.489838	0.495122
H40	H	1.475688	0.489834	0.378947
C41	C	1.953658	0.549032	0.017454
H42	H	2.012620	0.592973	-0.041479
H43	H	2.015774	0.510140	0.071388
H44	H	1.899742	0.510172	-0.044716
C45	C	1.537813	0.241690	0.432969
H46	H	1.478870	0.285642	0.491905
H47	H	1.475681	0.202827	0.379030
H48	H	1.591711	0.202803	0.495136
C49	C	1.537809	0.758343	0.432902
H50	H	1.478796	0.714402	0.491784
H51	H	1.591617	0.797236	0.495109
H52	H	1.475730	0.797202	0.378859
H53	H	1.566138	0.563302	0.404719
