data_functionalizedCrystal
_audit_creation_method	'MofGen! by Chris Wilmer'
_symmetry_space_group_name_H-M	'P1'
_symmetry_Int_Tables_number	1
_symmetry_cell_setting	triclinic
loop_
_symmetry_equiv_pos_as_xyz
  x,y,z
_cell_length_a	19.805407
_cell_length_b	19.121063
_cell_length_c	19.805399
_cell_angle_alpha	92.411105
_cell_angle_beta	89.979591
_cell_angle_gamma	92.471006
loop_
_atom_site_label
_atom_site_type_symbol
_atom_site_fract_x
_atom_site_fract_y
_atom_site_fract_z
Zn1	Zn	1.023235	-0.279595	-0.394216
Zn2	Zn	1.273235	-0.029595	-0.144216
Zn3	Zn	1.523235	0.220405	0.105784
Zn4	Zn	1.773235	0.470405	0.355784
Zn5	Zn	1.018319	-0.397047	-0.285851
Zn6	Zn	1.268319	-0.147047	-0.035851
Zn7	Zn	1.518319	0.102953	0.214149
Zn8	Zn	1.768319	0.352953	0.464149
Zn9	Zn	0.910049	-0.279618	-0.281040
Zn10	Zn	1.160049	-0.029618	-0.031040
Zn11	Zn	1.410049	0.220382	0.218960
Zn12	Zn	1.660049	0.470382	0.468960
Zn13	Zn	0.905184	-0.397014	-0.398995
Zn14	Zn	1.155184	-0.147014	-0.148995
Zn15	Zn	1.405184	0.102986	0.101005
Zn16	Zn	1.655184	0.352986	0.351005
O17	O	0.964197	-0.338318	-0.340026
O18	O	1.214197	-0.088318	-0.090026
O19	O	1.464197	0.161682	0.159974
O20	O	1.714197	0.411682	0.409974
O21	O	1.117299	-0.295179	-0.379855
O22	O	1.367299	-0.045179	-0.129855
O23	O	1.617299	0.204821	0.120145
O24	O	1.867299	0.454821	0.370145
O25	O	1.003935	-0.381494	-0.190497
O26	O	1.253935	-0.131494	0.059503
O27	O	1.503935	0.118506	0.309503
O28	O	1.753935	0.368506	0.559503
O29	O	0.929157	-0.181330	-0.292040
O30	O	1.179157	0.068670	-0.042040
O31	O	1.429157	0.318670	0.207960
O32	O	1.679157	0.568670	0.457960
O33	O	1.113687	-0.381471	-0.300240
O34	O	1.363687	-0.131471	-0.050240
O35	O	1.613687	0.118529	0.199760
O36	O	1.863687	0.368529	0.449760
O37	O	1.012314	-0.181313	-0.375190
O38	O	1.262314	0.068687	-0.125190
O39	O	1.512314	0.318687	0.124810
O40	O	1.762314	0.568687	0.374810
O41	O	0.924390	-0.295219	-0.186963
O42	O	1.174390	-0.045219	0.063037
O43	O	1.424390	0.204781	0.313037
O44	O	1.674390	0.454781	0.563037
O45	O	0.814687	-0.295187	-0.296674
O46	O	1.064687	-0.045187	-0.046674
O47	O	1.314687	0.204813	0.203326
O48	O	1.564687	0.454813	0.453326
O49	O	0.920865	-0.381414	-0.493077
O50	O	1.170865	-0.131414	-0.243077
O51	O	1.420865	0.118586	0.006923
O52	O	1.670865	0.368586	0.256923
O53	O	0.811113	-0.381437	-0.383334
O54	O	1.061113	-0.131437	-0.133334
O55	O	1.311113	0.118563	0.116666
O56	O	1.561113	0.368563	0.366666
O57	O	1.007597	-0.295147	-0.489566
O58	O	1.257597	-0.045147	-0.239566
O59	O	1.507597	0.204853	0.010434
O60	O	1.757597	0.454853	0.260434
O61	O	0.999218	-0.495328	-0.304873
O62	O	1.249218	-0.245328	-0.054873
O63	O	1.499218	0.004672	0.195127
O64	O	1.749218	0.254672	0.445127
O65	O	0.916098	-0.495303	-0.388000
O66	O	1.166098	-0.245303	-0.138000
O67	O	1.416098	0.004697	0.112000
O68	O	1.666098	0.254697	0.362000
C69	C	0.788341	-0.338311	-0.340001
C70	C	1.038341	-0.088311	-0.090001
C71	C	1.288341	0.161689	0.159999
C72	C	1.538341	0.411689	0.409999
C73	C	0.713108	-0.338325	-0.340007
C74	C	0.963108	-0.088325	-0.090007
C75	C	1.213108	0.161675	0.159993
C76	C	1.463108	0.411675	0.409993
C77	C	0.253198	-0.293470	-0.381577
C78	C	0.503198	-0.043470	-0.131577
C79	C	0.753198	0.206530	0.118423
C80	C	1.003198	0.456530	0.368423
C81	C	0.323887	-0.293472	-0.381572
C82	C	0.573887	-0.043472	-0.131572
C83	C	0.823887	0.206528	0.118428
C84	C	1.073887	0.456528	0.368428
C85	C	0.357347	-0.338329	-0.340048
C86	C	0.607347	-0.088329	-0.090048
C87	C	0.857347	0.161671	0.159952
C88	C	1.107347	0.411671	0.409952
C89	C	0.320114	-0.383193	-0.298531
C90	C	0.570114	-0.133193	-0.048531
C91	C	0.820114	0.116807	0.201469
C92	C	1.070114	0.366807	0.451469
C93	C	0.249427	-0.383195	-0.298540
C94	C	0.499427	-0.133195	-0.048540
C95	C	0.749427	0.116805	0.201460
C96	C	0.999427	0.366805	0.451460
C97	C	0.605187	-0.383188	-0.298495
C98	C	0.855187	-0.133188	-0.048495
C99	C	1.105187	0.116812	0.201505
C100	C	1.355187	0.366812	0.451505
C101	C	0.675880	-0.383181	-0.298487
C102	C	0.925880	-0.133181	-0.048487
C103	C	1.175880	0.116819	0.201513
C104	C	1.425880	0.366819	0.451513
C105	C	0.679648	-0.293464	-0.381528
C106	C	0.929648	-0.043464	-0.131528
C107	C	1.179648	0.206536	0.118472
C108	C	1.429648	0.456536	0.368472
C109	C	0.608960	-0.293466	-0.381536
C110	C	0.858960	-0.043466	-0.131536
C111	C	1.108960	0.206534	0.118464
C112	C	1.358960	0.456534	0.368464
C113	C	0.571734	-0.338333	-0.340022
C114	C	0.821734	-0.088333	-0.090022
C115	C	1.071734	0.161667	0.159978
C116	C	1.321734	0.411667	0.409978
C117	C	0.495085	-0.338332	-0.340029
C118	C	0.745085	-0.088332	-0.090029
C119	C	0.995085	0.161668	0.159971
C120	C	1.245085	0.411668	0.409971
C121	C	0.433994	-0.338327	-0.340037
C122	C	0.683994	-0.088327	-0.090037
C123	C	0.933994	0.161673	0.159963
C124	C	1.183994	0.411673	0.409963
C125	C	0.956615	-0.520800	-0.347492
C126	C	1.206615	-0.270800	-0.097492
C127	C	1.456615	-0.020800	0.152508
C128	C	1.706615	0.229200	0.402508
C129	C	0.953433	-0.598866	-0.350708
C130	C	1.203433	-0.348866	-0.100708
C131	C	1.453433	-0.098866	0.149292
C132	C	1.703433	0.151134	0.399292
C133	C	0.995248	-0.635531	-0.308976
C134	C	1.245248	-0.385531	-0.058976
C135	C	1.495248	-0.135531	0.191024
C136	C	1.745248	0.114469	0.441024
C137	C	0.992259	-0.708882	-0.312005
C138	C	1.242259	-0.458882	-0.062005
C139	C	1.492259	-0.208882	0.187995
C140	C	1.742259	0.041118	0.437995
C141	C	0.947452	-0.745567	-0.356764
C142	C	1.197452	-0.495567	-0.106764
C143	C	1.447452	-0.245567	0.143236
C144	C	1.697452	0.004433	0.393236
C145	C	0.905635	-0.708897	-0.398501
C146	C	1.155635	-0.458897	-0.148501
C147	C	1.405635	-0.208897	0.101499
C148	C	1.655635	0.041103	0.351499
C149	C	0.908628	-0.635547	-0.395475
C150	C	1.158628	-0.385547	-0.145475
C151	C	1.408628	-0.135547	0.104525
C152	C	1.658628	0.114453	0.354525
C153	C	0.936254	-0.967038	-0.368068
C154	C	1.186254	-0.717038	-0.118068
C155	C	1.436254	-0.467038	0.131932
C156	C	1.686254	-0.217038	0.381932
C157	C	0.933263	-1.040393	-0.371090
C158	C	1.183263	-0.790393	-0.121090
C159	C	1.433263	-0.540393	0.128910
C160	C	1.683263	-0.290393	0.378910
C161	C	1.019889	-1.040374	-0.284595
C162	C	1.269889	-0.790374	-0.034595
C163	C	1.519889	-0.540374	0.215405
C164	C	1.769889	-0.290374	0.465405
C165	C	1.022874	-0.967022	-0.281570
C166	C	1.272874	-0.717022	-0.031570
C167	C	1.522874	-0.467022	0.218430
C168	C	1.772874	-0.217022	0.468430
C169	C	0.981060	-0.930358	-0.323309
C170	C	1.231060	-0.680358	-0.073309
C171	C	1.481060	-0.430358	0.176691
C172	C	1.731060	-0.180358	0.426691
C173	C	0.944395	-0.820544	-0.359860
C174	C	1.194395	-0.570544	-0.109860
C175	C	1.444395	-0.320544	0.140140
C176	C	1.694395	-0.070544	0.390140
C177	C	0.984121	-0.855382	-0.320216
C178	C	1.234121	-0.605382	-0.070216
C179	C	1.484121	-0.355382	0.179784
C180	C	1.734121	-0.105382	0.429784
C181	C	1.140739	-0.338326	-0.340051
C182	C	1.390739	-0.088326	-0.090051
C183	C	1.640739	0.161674	0.159949
C184	C	1.890739	0.411674	0.409949
C185	C	1.215971	-0.338330	-0.340062
C186	C	1.465971	-0.088330	-0.090062
C187	C	1.715971	0.161670	0.159938
C188	C	1.965971	0.411670	0.409938
C189	C	0.964236	-0.338274	-0.516567
C190	C	1.214236	-0.088274	-0.266567
C191	C	1.464236	0.161726	-0.016567
C192	C	1.714236	0.411726	0.233433
C193	C	0.964253	-0.338255	-0.591798
C194	C	1.214253	-0.088255	-0.341798
C195	C	1.464253	0.161745	-0.091798
C196	C	1.714253	0.411745	0.158202
C197	C	0.971827	-0.155125	-0.332545
C198	C	1.221827	0.094875	-0.082545
C199	C	1.471827	0.344875	0.167455
C200	C	1.721827	0.594875	0.417455
C201	C	0.975078	-0.077058	-0.329357
C202	C	1.225078	0.172942	-0.079357
C203	C	1.475078	0.422942	0.170643
C204	C	1.725078	0.672942	0.420643
C205	C	1.009416	-0.293334	-0.625315
C206	C	1.259416	-0.043334	-0.375315
C207	C	1.509416	0.206666	-0.125315
C208	C	1.759416	0.456666	0.124685
C209	C	1.009424	-0.293313	-0.696003
C210	C	1.259424	-0.043313	-0.446003
C211	C	1.509424	0.206687	-0.196003
C212	C	1.759424	0.456687	0.053997
C213	C	0.964272	-0.338219	-0.733172
C214	C	1.214272	-0.088219	-0.483172
C215	C	1.464272	0.161781	-0.233172
C216	C	1.714272	0.411781	0.016828
C217	C	0.919104	-0.383142	-0.699650
C218	C	1.169104	-0.133142	-0.449650
C219	C	1.419104	0.116858	-0.199650
C220	C	1.669104	0.366858	0.050350
C221	C	0.919094	-0.383159	-0.628964
C222	C	1.169094	-0.133159	-0.378964
C223	C	1.419094	0.116841	-0.128964
C224	C	1.669094	0.366841	0.121036
C225	C	0.919145	-0.383077	-0.984721
C226	C	1.169145	-0.133077	-0.734721
C227	C	1.419145	0.116923	-0.484721
C228	C	1.669145	0.366923	-0.234721
C229	C	0.919161	-0.383059	-1.055412
C230	C	1.169161	-0.133059	-0.805412
C231	C	1.419161	0.116941	-0.555412
C232	C	1.669161	0.366941	-0.305412
C233	C	1.009475	-0.293232	-1.051760
C234	C	1.259475	-0.043232	-0.801760
C235	C	1.509475	0.206768	-0.551760
C236	C	1.759475	0.456768	-0.301760
C237	C	1.009465	-0.293248	-0.981073
C238	C	1.259465	-0.043248	-0.731073
C239	C	1.509465	0.206752	-0.481073
C240	C	1.759465	0.456752	-0.231073
C241	C	0.964295	-0.338169	-0.947557
C242	C	1.214295	-0.088169	-0.697557
C243	C	1.464295	0.161831	-0.447557
C244	C	1.714295	0.411831	-0.197557
C245	C	0.964286	-0.338189	-0.870910
C246	C	1.214286	-0.088189	-0.620910
C247	C	1.464286	0.161811	-0.370910
C248	C	1.714286	0.411811	-0.120910
C249	C	0.964283	-0.338202	-0.809819
C250	C	1.214283	-0.088202	-0.559819
C251	C	1.464283	0.161798	-0.309819
C252	C	1.714283	0.411798	-0.059819
C253	C	0.964198	-0.338312	-0.164169
C254	C	1.214198	-0.088312	0.085831
C255	C	1.464198	0.161688	0.335831
C256	C	1.714198	0.411688	0.585831
C257	C	0.964320	-0.338133	-0.088930
C258	C	1.214320	-0.088133	0.161070
C259	C	1.464320	0.161867	0.411070
C260	C	1.714320	0.411867	0.661070
H261	H	0.709966	-0.256934	-0.415333
H262	H	0.959966	-0.006934	-0.165333
H263	H	1.209966	0.243066	0.084667
H264	H	1.459966	0.493066	0.334667
F265	F	0.711488	-0.430927	-0.254289
F266	F	0.961488	-0.180927	-0.004289
F267	F	1.211488	0.069073	0.245711
F268	F	1.461488	0.319073	0.495711
H269	H	1.046186	-0.256769	-0.595057
H270	H	1.296186	-0.006769	-0.345057
H271	H	1.546186	0.243231	-0.095057
H272	H	1.796186	0.493231	0.154943
H273	H	1.046201	-0.256735	-0.723289
H274	H	1.296201	-0.006735	-0.473289
H275	H	1.546201	0.243265	-0.223289
H276	H	1.796201	0.493265	0.026711
F277	F	0.871101	-0.430855	-1.094970
F278	F	1.121101	-0.180855	-0.844970
F279	F	1.371101	0.069145	-0.594970
F280	F	1.621101	0.319145	-0.344970
H281	H	1.046252	-0.256652	-1.079057
H282	H	1.296252	-0.006652	-0.829057
H283	H	1.546252	0.243348	-0.579057
H284	H	1.796252	0.493348	-0.329057
F285	F	1.031809	-0.816338	-0.272585
F286	F	1.281809	-0.566338	-0.022585
F287	F	1.531809	-0.316338	0.227415
F288	F	1.781809	-0.066338	0.477415
H289	H	0.219117	-0.419726	-0.264735
H290	H	0.469117	-0.169726	-0.014735
H291	H	0.719117	0.080274	0.235265
H292	H	0.969117	0.330274	0.485265
H293	H	0.907911	-0.850422	-0.396301
H294	H	1.157911	-0.600422	-0.146301
H295	H	1.407911	-0.350422	0.103699
H296	H	1.657911	-0.100422	0.353699
H297	H	0.869155	-0.738772	-0.434947
H298	H	1.119155	-0.488772	-0.184947
H299	H	1.369155	-0.238772	0.065053
H300	H	1.619155	0.011228	0.315053
F301	F	1.070572	-0.927984	-0.233939
F302	F	1.320572	-0.677984	0.016061
F303	F	1.570572	-0.427984	0.266061
F304	F	1.820572	-0.177984	0.516061
F305	F	0.871072	-0.430886	-0.949060
F306	F	1.121072	-0.180886	-0.699060
F307	F	1.371072	0.069114	-0.449060
F308	F	1.621072	0.319114	-0.199060
H309	H	0.882311	-0.419731	-0.601675
H310	H	1.132311	-0.169731	-0.351675
H311	H	1.382311	0.080269	-0.101675
H312	H	1.632311	0.330269	0.148325
F313	F	0.871048	-0.430931	-0.739210
F314	F	1.121048	-0.180931	-0.489210
F315	F	1.371048	0.069069	-0.239210
F316	F	1.621048	0.319069	0.010790
H317	H	0.354194	-0.256945	-0.415381
H318	H	0.604194	-0.006945	-0.165381
H319	H	0.854194	0.243055	0.084619
H320	H	1.104194	0.493055	0.334619
F321	F	1.057523	-0.245456	-0.941519
F322	F	1.307523	0.004544	-0.691519
F323	F	1.557523	0.254544	-0.441519
F324	F	1.807523	0.504544	-0.191519
H325	H	1.053932	-1.070233	-0.250614
H326	H	1.303932	-0.820233	-0.000614
H327	H	1.553932	-0.570233	0.249386
H328	H	1.803932	-0.320233	0.499386
F329	F	0.217595	-0.245722	-0.425770
F330	F	0.467595	0.004278	-0.175770
F331	F	0.717595	0.254278	0.074230
F332	F	0.967595	0.504278	0.324230
H333	H	0.874578	-0.605695	-0.429458
H334	H	1.124578	-0.355695	-0.179458
H335	H	1.374578	-0.105695	0.070542
H336	H	1.624578	0.144305	0.320542
H337	H	0.896784	-1.070260	-0.407549
H338	H	1.146784	-0.820260	-0.157549
H339	H	1.396784	-0.570260	0.092451
H340	H	1.646784	-0.320260	0.342451
H341	H	0.581721	-0.256936	-0.415347
H342	H	0.831721	-0.006936	-0.165347
H343	H	1.081721	0.243064	0.084653
H344	H	1.331721	0.493064	0.334653
F345	F	0.565578	-0.430923	-0.254295
F346	F	0.815578	-0.180923	-0.004295
F347	F	1.065578	0.069077	0.245705
F348	F	1.315578	0.319077	0.495705
F349	F	0.355726	-0.430938	-0.254340
F350	F	0.605726	-0.180938	-0.004340
F351	F	0.855726	0.069062	0.245660
F352	F	1.105726	0.319062	0.495660
H353	H	1.031732	-0.605667	-0.272526
H354	H	1.281732	-0.355667	-0.022526
H355	H	1.531732	-0.105667	0.227474
H356	H	1.781732	0.144333	0.477474
H357	H	1.026309	-0.738732	-0.278022
H358	H	1.276309	-0.488732	-0.028022
H359	H	1.526309	-0.238732	0.221978
H360	H	1.776309	0.011268	0.471978
F361	F	0.891750	-0.928027	-0.412491
F362	F	1.141750	-0.678027	-0.162491
F363	F	1.391750	-0.428027	0.087509
F364	F	1.641750	-0.178027	0.337509
