data_functionalizedCrystal
_audit_creation_method	'MofGen! by Chris Wilmer'
_symmetry_space_group_name_H-M	'P1'
_symmetry_Int_Tables_number	1
_symmetry_cell_setting	triclinic
loop_
_symmetry_equiv_pos_as_xyz
  x,y,z
_cell_length_a	16.109302
_cell_length_b	17.019294
_cell_length_c	15.186229
_cell_angle_alpha	93.883247
_cell_angle_beta	90.005906
_cell_angle_gamma	83.427801
loop_
_atom_site_label
_atom_site_type_symbol
_atom_site_fract_x
_atom_site_fract_y
_atom_site_fract_z
O1	O	1.103040	0.101398	0.080956
O2	O	0.860966	0.114016	0.081905
O3	O	0.988756	-0.007127	0.072719
O4	O	0.975250	0.222541	0.090142
O5	O	0.988746	-0.007130	-0.073739
O6	O	0.860957	0.114013	-0.064552
O7	O	1.103030	0.101395	-0.065502
Zn8	Zn	0.981992	0.107704	-0.088280
Zn9	Zn	0.982005	0.107707	0.104684
O10	O	0.975240	0.222539	-0.056315
C11	C	0.829987	0.113503	0.008637
C12	C	0.737693	0.111971	0.008518
C13	C	0.525350	0.108425	-0.071576
C14	C	0.438631	0.106977	-0.071683
C15	C	0.438652	0.106984	0.087993
C16	C	0.525370	0.108427	0.088099
C17	C	0.568716	0.109151	0.008312
C18	C	0.395280	0.106260	0.008099
C19	C	0.301255	0.104689	0.007984
C20	C	0.662747	0.110721	0.008426
C21	C	0.988239	-0.036518	-0.002738
C22	C	0.986703	-0.124088	-0.009376
C23	C	0.985988	-0.165223	0.067339
C24	C	0.984539	-0.247503	0.061099
C25	C	0.983811	-0.288649	-0.021856
C26	C	0.984523	-0.247508	-0.098577
C27	C	0.985966	-0.165228	-0.092336
C28	C	0.979449	-0.537080	-0.044693
C29	C	0.978008	-0.619366	-0.050928
C30	C	0.978023	-0.619356	0.108749
C31	C	0.979471	-0.537075	0.114982
C32	C	0.980178	-0.495941	0.038262
C33	C	0.982332	-0.372753	-0.028236
C34	C	0.981651	-0.411837	0.044643
C35	C	1.134009	0.101908	0.007768
C36	C	1.226303	0.103441	0.007893
C37	C	0.975757	0.251929	0.019143
C38	C	0.977294	0.339499	0.025787
N39	N	0.981989	0.107701	-0.219973
C40	C	1.038597	0.054076	-0.541958
C41	C	1.038595	0.054077	-0.449768
C42	C	0.925403	0.161334	-0.441645
C43	C	0.925410	0.161337	-0.533833
C44	C	0.982006	0.107704	-0.583987
C45	C	0.981997	0.107701	-0.399610
C46	C	0.981994	0.107702	-0.299654
C47	C	0.982010	0.107704	-0.683950
N48	N	0.982014	0.107704	0.236376
H49	H	0.403326	0.106386	-0.136736
F50	F	1.098834	-0.003003	-0.595333
F51	F	0.977269	-0.663139	0.190394
H52	H	0.560640	0.109015	-0.136544
F53	F	0.392516	0.106197	0.172902
H54	H	0.879326	0.205011	-0.568055
F55	F	0.571528	0.109194	0.173131
F56	F	0.865170	0.218410	-0.388261
H57	H	0.986536	-0.131736	-0.154806
F58	F	0.986769	-0.121441	0.155632
F59	F	0.983780	-0.291278	0.142750
H60	H	1.084677	0.010409	-0.415551
H61	H	0.980041	-0.503601	-0.107165
F62	F	0.980248	-0.493291	0.203275
H63	H	0.977411	-0.652864	-0.118484
H64	H	0.983925	-0.281014	-0.166121
H65	H	0.982238	-0.378332	0.112185
F66	F	0.981554	-0.416550	-0.116522
