data_functionalizedCrystal
_audit_creation_method	'MofGen! by Chris Wilmer'
_symmetry_space_group_name_H-M	'P1'
_symmetry_Int_Tables_number	1
_symmetry_cell_setting	triclinic
loop_
_symmetry_equiv_pos_as_xyz
  x,y,z
_cell_length_a	21.295420
_cell_length_b	21.295417
_cell_length_c	18.101389
_cell_angle_alpha	90.022566
_cell_angle_beta	90.019054
_cell_angle_gamma	90.026289
loop_
_atom_site_label
_atom_site_type_symbol
_atom_site_fract_x
_atom_site_fract_y
_atom_site_fract_z
Zn1	Zn	0.962321	-0.250746	0.418713
Zn2	Zn	1.462321	0.249254	0.918713
Zn3	Zn	0.962233	-0.356000	0.294863
Zn4	Zn	1.462233	0.144000	0.794863
Zn5	Zn	0.857054	-0.250740	0.294886
Zn6	Zn	1.357054	0.249260	0.794886
Zn7	Zn	0.857014	-0.355974	0.418663
Zn8	Zn	1.357014	0.144026	0.918663
O9	O	0.909656	-0.303365	0.356781
O10	O	1.409656	0.196635	0.856781
O11	O	1.050399	-0.264721	0.402296
O12	O	1.550399	0.235279	0.902296
O13	O	0.948262	-0.342045	0.191233
O14	O	1.448262	0.157955	0.691233
O15	O	0.871072	-0.162652	0.311342
O16	O	1.371072	0.337348	0.811342
O17	O	1.050334	-0.342051	0.311303
O18	O	1.550334	0.157949	0.811303
O19	O	0.948411	-0.162656	0.402318
O20	O	1.448411	0.337344	0.902318
O21	O	0.870987	-0.264712	0.191250
O22	O	1.370987	0.235288	0.691250
O23	O	0.768960	-0.264687	0.311294
O24	O	1.268960	0.235313	0.811294
O25	O	0.871002	-0.342006	0.522302
O26	O	1.371002	0.157994	1.022302
O27	O	0.768930	-0.342001	0.402232
O28	O	1.268930	0.157999	0.902232
O29	O	0.948371	-0.264696	0.522339
O30	O	1.448371	0.235304	1.022339
O31	O	0.948222	-0.444086	0.311254
O32	O	1.448222	0.055914	0.811254
O33	O	0.870918	-0.444066	0.402210
O34	O	1.370918	0.055934	0.902210
C35	C	0.746104	-0.303341	0.356760
C36	C	1.246104	0.196659	0.856760
C37	C	0.676136	-0.303346	0.356769
C38	C	1.176136	0.196654	0.856769
C39	C	0.176711	-0.263194	0.404249
C40	C	0.676711	0.236806	0.904249
C41	C	0.242453	-0.263190	0.404249
C42	C	0.742453	0.236810	0.904249
C43	C	0.275296	-0.303384	0.356798
C44	C	0.775296	0.196616	0.856798
C45	C	0.242392	-0.343597	0.309358
C46	C	0.742392	0.156403	0.809358
C47	C	0.176650	-0.343605	0.309364
C48	C	0.676650	0.156395	0.809364
N49	N	0.378492	-0.308121	0.291953
N50	N	0.878492	0.191879	0.791953
N51	N	0.440943	-0.308109	0.291948
N52	N	0.940943	0.191891	0.791948
C53	C	0.473371	-0.303363	0.356777
C54	C	0.973371	0.196637	0.856777
N55	N	0.440988	-0.298617	0.421610
N56	N	0.940988	0.201383	0.921610
N57	N	0.378531	-0.298625	0.421614
N58	N	0.878531	0.201375	0.921614
C59	C	0.346582	-0.303380	0.356786
C60	C	0.846582	0.196620	0.856786
C61	C	0.577553	-0.263151	0.404218
C62	C	1.077553	0.236849	0.904218
C63	C	0.643297	-0.263150	0.404219
C64	C	1.143297	0.236850	0.904219
C65	C	0.643234	-0.343555	0.309321
C66	C	1.143234	0.156445	0.809321
C67	C	0.577492	-0.343558	0.309327
C68	C	1.077492	0.156442	0.809327
C69	C	0.544655	-0.303353	0.356774
C70	C	1.044655	0.196647	0.856774
C71	C	0.909573	-0.466917	0.356740
C72	C	1.409573	0.033083	0.856740
C73	C	0.909595	-0.536885	0.356747
C74	C	1.409595	-0.036885	0.856747
C75	C	0.949884	-0.569740	0.309435
C76	C	1.449884	-0.069740	0.809435
C77	C	0.949913	-0.635483	0.309452
C78	C	1.449913	-0.135483	0.809452
C79	C	0.909643	-0.668367	0.356773
C80	C	1.409643	-0.168367	0.856773
C81	C	0.869352	-0.635504	0.404094
C82	C	1.369352	-0.135504	0.904094
C83	C	0.869328	-0.569762	0.404081
C84	C	1.369328	-0.069762	0.904081
N85	N	0.854576	-0.771630	0.362411
N86	N	1.354576	-0.271630	0.862411
N87	N	0.854600	-0.834081	0.362419
N88	N	1.354600	-0.334081	0.862419
C89	C	0.909714	-0.866442	0.356815
C90	C	1.409714	-0.366442	0.856815
N91	N	0.964803	-0.833992	0.351189
N92	N	1.464803	-0.333992	0.851189
N93	N	0.964778	-0.771535	0.351177
N94	N	1.464778	-0.271535	0.851177
C95	C	0.909665	-0.739653	0.356792
C96	C	1.409665	-0.239653	0.856792
C97	C	0.950037	-0.970583	0.309519
C98	C	1.450037	-0.470583	0.809519
C99	C	0.950068	-1.036327	0.309541
C100	C	1.450068	-0.536327	0.809541
C101	C	0.869501	-1.036346	0.404179
C102	C	1.369501	-0.536346	0.904179
C103	C	0.869476	-0.970604	0.404161
C104	C	1.369476	-0.470604	0.904161
C105	C	0.909743	-0.937726	0.356827
C106	C	1.409743	-0.437726	0.856827
C107	C	1.073846	-0.303390	0.356803
C108	C	1.573846	0.196610	0.856803
C109	C	1.143814	-0.303400	0.356812
C110	C	1.643814	0.196600	0.856812
C111	C	0.909692	-0.303349	0.549943
C112	C	1.409692	0.196651	1.049943
C113	C	0.909707	-0.303342	0.632257
C114	C	1.409707	0.196658	1.132257
C115	C	0.909756	-0.139175	0.356838
C116	C	1.409756	0.360825	0.856838
C117	C	0.909798	-0.069207	0.356863
C118	C	1.409798	0.430793	0.856863
C119	C	0.909656	-0.303335	0.164371
C120	C	1.409656	0.196665	0.664371
C121	C	0.909762	-0.303165	0.082057
C122	C	1.409762	0.196835	0.582057
C123	C	0.909744	-0.303224	0.931348
C124	C	1.409744	0.196776	1.431348
C125	C	0.860898	-0.351711	0.900000
C126	C	1.360898	0.148289	1.400000
C127	C	0.861030	-0.351936	0.814381
C128	C	1.361030	0.148064	1.314381
C129	C	0.909725	-0.303283	0.782966
C130	C	1.409725	0.196717	1.282966
C131	C	0.976048	-0.321294	0.814063
C132	C	1.476048	0.178706	1.314063
C133	C	0.975776	-0.321613	0.899708
C134	C	1.475776	0.178387	1.399708
C135	C	0.892844	-0.236618	0.899780
C136	C	1.392844	0.263382	1.399780
C137	C	0.891368	-0.237003	0.814129
C138	C	1.391368	0.262997	1.314129
C139	C	0.909719	-0.303315	0.699106
C140	C	1.409719	0.196685	1.199106
C141	C	0.909755	-0.303194	1.015208
C142	C	1.409755	0.196806	1.515208
H143	H	0.670081	-0.230412	0.442853
H144	H	1.170081	0.269588	0.942853
H145	H	0.924349	-0.198959	0.792745
H146	H	1.424349	0.301041	1.292745
H147	H	0.872188	-0.401307	0.793894
H148	H	1.372188	0.098693	1.293894
H149	H	0.842561	-0.223420	0.793804
H150	H	1.342561	0.276580	1.293804
H151	H	0.149979	-0.230459	0.442887
H152	H	0.649979	0.269541	0.942887
H153	H	0.550707	-0.376295	0.270695
H154	H	1.050707	0.123705	0.770695
H155	H	0.990103	-0.370303	0.919685
H156	H	1.490103	0.129697	1.419685
H157	H	0.928421	-0.200493	0.920055
H158	H	1.428421	0.299507	1.420055
H159	H	0.836667	-0.943851	0.442684
H160	H	1.336667	-0.443851	0.942684
H161	H	0.845322	-0.220209	0.921373
H162	H	1.345322	0.279791	1.421373
H163	H	0.982673	-0.542973	0.270895
H164	H	1.482673	-0.042973	0.770895
H165	H	0.811569	-0.340555	0.920592
H166	H	1.311569	0.159445	1.420592
H167	H	0.269243	-0.230447	0.442877
H168	H	0.769243	0.269553	0.942877
H169	H	0.836715	-1.063120	0.442712
H170	H	1.336715	-0.563120	0.942712
H171	H	0.269137	-0.376326	0.270725
H172	H	0.769137	0.123674	0.770725
H173	H	0.811849	-0.340664	0.793355
H174	H	1.311849	0.159336	1.293355
H175	H	1.013404	-0.287830	0.920447
H176	H	1.513404	0.212170	1.420447
H177	H	0.149866	-0.376347	0.270734
H178	H	0.649866	0.123653	0.770734
H179	H	1.013420	-0.287089	0.793716
H180	H	1.513420	0.212911	1.293716
H181	H	0.871945	-0.400780	0.921520
H182	H	1.371945	0.099220	1.421520
H183	H	0.990623	-0.369467	0.792615
H184	H	1.490623	0.130533	1.292615
H185	H	0.550817	-0.230413	0.442852
H186	H	1.050817	0.269587	0.942852
H187	H	0.669975	-0.376287	0.270692
H188	H	1.169975	0.123713	0.770692
H189	H	0.982723	-0.662239	0.270925
H190	H	1.482723	-0.162239	0.770925
H191	H	0.836565	-0.662282	0.442624
H192	H	1.336565	-0.162282	0.942624
H193	H	0.982827	-0.943813	0.270979
H194	H	1.482827	-0.443813	0.770979
H195	H	0.836520	-0.543011	0.442609
H196	H	1.336520	-0.043011	0.942609
H197	H	0.982879	-1.063077	0.271015
H198	H	1.482879	-0.563077	0.771015
