data_functionalizedCrystal
_audit_creation_method	'MofGen! by Chris Wilmer'
_symmetry_space_group_name_H-M	'P1'
_symmetry_Int_Tables_number	1
_symmetry_cell_setting	triclinic
loop_
_symmetry_equiv_pos_as_xyz
  x,y,z
_cell_length_a	14.971486
_cell_length_b	16.109301
_cell_length_c	13.448316
_cell_angle_alpha	89.991973
_cell_angle_beta	89.998199
_cell_angle_gamma	83.537805
loop_
_atom_site_label
_atom_site_type_symbol
_atom_site_fract_x
_atom_site_fract_y
_atom_site_fract_z
O1	O	1.186791	0.108348	-0.082581
O2	O	0.926372	0.121323	-0.082608
O3	O	1.063736	-0.006187	-0.082584
O4	O	1.049428	0.235857	-0.082605
O5	O	1.063718	-0.006195	0.082800
O6	O	0.926355	0.121315	0.082776
O7	O	1.186774	0.108340	0.082803
Cu8	Cu	1.056563	0.114827	0.097890
Cu9	Cu	1.056583	0.114836	-0.097695
O10	O	1.049410	0.235850	0.082778
C11	C	0.893040	0.120739	0.000080
C12	C	0.793745	0.119000	0.000070
C13	C	1.063147	-0.037166	0.000109
C14	C	1.061410	-0.129464	0.000110
C15	C	0.736412	0.193908	0.000065
C16	C	0.643115	0.192269	0.000080
C17	C	0.607153	0.115721	0.000093
C18	C	0.664494	0.040807	0.000101
C19	C	0.757789	0.042447	0.000093
C20	C	0.470036	0.037395	0.000115
C21	C	0.376734	0.035755	0.000121
C22	C	0.355362	0.187217	0.000102
C23	C	0.448657	0.188857	0.000094
C24	C	0.505991	0.113942	0.000100
C25	C	1.138878	-0.351640	0.000102
C26	C	1.137239	-0.438362	0.000094
C27	C	0.974262	-0.418691	0.000081
C28	C	0.975902	-0.331970	0.000082
C29	C	1.058213	-0.298447	0.000098
C30	C	1.054933	-0.471890	0.000088
C31	C	1.053155	-0.565918	0.000079
C32	C	1.059992	-0.204413	0.000105
C33	C	1.220106	0.108924	0.000112
C34	C	1.319401	0.110663	0.000116
C35	C	1.049999	0.266829	0.000084
C36	C	1.051736	0.359127	0.000076
N37	N	1.056555	0.114820	0.235454
N38	N	1.056598	0.114837	-0.235260
C39	C	1.117398	0.058382	0.287506
C40	C	1.117404	0.058381	0.391609
C41	C	1.056570	0.114823	0.443659
C42	C	0.995720	0.171264	0.391601
C43	C	0.995711	0.171260	0.287499
C44	C	0.995745	0.171269	0.608581
C45	C	0.995755	0.171275	0.712689
C46	C	1.117438	0.058391	0.712690
C47	C	1.117429	0.058387	0.608589
C48	C	1.056580	0.114829	0.556538
H49	H	0.596437	0.253267	0.000074
H50	H	0.946183	0.217217	0.433986
O51	O	0.775196	0.276472	0.000048
H52	H	0.817199	0.280834	0.067448
O53	O	0.930089	0.232125	0.231341
H54	H	0.941462	0.296962	0.251287
O55	O	0.885485	-0.454846	0.000085
H56	H	0.897894	-0.524086	0.000099
O57	O	0.487451	0.271417	0.000092
H58	H	0.431911	0.323234	0.000104
O59	O	0.293531	0.268022	0.000106
H60	H	0.222615	0.254025	0.000128
O61	O	0.819627	-0.038350	0.000105
H62	H	0.890542	-0.024351	0.000111
O63	O	0.337940	-0.046805	0.000149
H64	H	0.393480	-0.098622	0.000169
H65	H	0.516716	-0.023609	0.000122
H66	H	0.635206	-0.021520	0.000126
H67	H	1.205901	-0.324348	0.000113
H68	H	1.202924	-0.481669	0.000096
O69	O	0.888896	-0.274588	0.000088
H70	H	0.831384	-0.312466	0.000096
H71	H	1.166940	0.012424	0.245133
H72	H	1.166969	0.012432	0.566210
O73	O	1.183043	-0.002476	0.447754
H74	H	1.225356	-0.041711	0.394071
O75	O	1.183065	-0.002495	0.768822
H76	H	1.172845	0.006980	0.849955
H77	H	0.946216	0.217235	0.755063
H78	H	0.946192	0.217228	0.566204
