data_functionalizedCrystal
_audit_creation_method	'MofGen! by Chris Wilmer'
_symmetry_space_group_name_H-M	'P1'
_symmetry_Int_Tables_number	1
_symmetry_cell_setting	triclinic
loop_
_symmetry_equiv_pos_as_xyz
  x,y,z
_cell_length_a	31.640172
_cell_length_b	14.809374
_cell_length_c	14.809374
_cell_angle_alpha	60.797835
_cell_angle_beta	90.004769
_cell_angle_gamma	67.424801
loop_
_atom_site_label
_atom_site_type_symbol
_atom_site_fract_x
_atom_site_fract_y
_atom_site_fract_z
Zr1	Zr	0.466858	0.955103	-0.203542
O2	O	0.415083	1.113035	-0.350716
O3	O	0.475400	0.777335	-0.145463
O4	O	0.492689	0.926479	-0.331998
O5	O	0.392494	0.993388	-0.031784
O6	O	0.562244	0.926464	-0.331979
O7	O	0.397794	0.963891	-0.164181
O8	O	0.531317	0.659673	0.001699
O9	O	0.423421	1.260179	-0.365462
O10	O	0.539807	0.857789	-0.136340
O11	O	0.483944	0.879813	-0.037548
O12	O	0.504299	1.055411	-0.257169
O13	O	0.448436	1.077435	-0.158378
Zr14	Zr	0.569338	1.002124	0.007646
Zr15	Zr	0.577791	0.955080	-0.203511
Zr16	Zr	0.458405	1.002147	0.007615
Zr17	Zr	0.480156	1.189781	-0.227060
Zr18	Zr	0.556040	0.767446	0.031163
O19	O	0.560796	1.179892	-0.050433
O20	O	0.572815	1.113002	-0.350672
O21	O	0.403064	1.179925	-0.050478
O22	O	0.621113	0.844192	0.154820
O23	O	0.633132	0.777301	-0.145419
O24	O	0.463381	0.844225	0.154775
O25	O	0.643702	0.963839	-0.164112
O26	O	0.543507	1.030748	0.136102
O27	O	0.473952	1.030763	0.136082
O28	O	0.638402	0.993336	-0.031715
O29	O	0.511598	1.260160	-0.365437
O30	O	0.524598	0.697066	0.169540
O31	O	0.612775	0.697048	0.169565
O32	O	0.619494	0.659654	0.001723
O33	O	0.416702	1.297573	-0.197620
O34	O	0.504879	1.297554	-0.197595
O35	O	0.531897	0.901816	0.061273
O36	O	0.587760	0.879792	-0.037519
O37	O	0.552252	1.077413	-0.158348
O38	O	0.496389	1.099437	-0.059557
C39	C	0.501464	0.685067	-0.068532
C40	C	0.495818	0.585440	-0.058548
C41	C	0.521013	0.530098	-0.103104
C42	C	0.515179	0.427128	-0.092786
C43	C	0.379338	0.978643	-0.097987
C44	C	0.332244	0.978652	-0.098000
C45	C	0.058767	0.875449	-0.034855
C46	C	-0.118220	0.875432	-0.034834
O47	O	-0.125344	0.787708	0.018842
N48	N	-0.158885	0.978587	-0.097907
C49	C	-0.155301	1.081756	-0.160984
O50	O	-0.193950	1.169497	-0.214623
C51	C	0.021685	1.081773	-0.160999
C52	C	0.062349	0.978609	-0.097931
C53	C	0.099429	0.772294	0.028209
C54	C	0.143673	0.772298	0.028199
C55	C	0.147255	0.875458	-0.034876
C56	C	0.106593	0.978614	-0.097941
C57	C	0.025268	1.184942	-0.224071
C58	C	0.069519	1.184937	-0.224067
C59	C	0.110183	1.081773	-0.160998
C60	C	0.154419	1.081778	-0.161027
N61	N	0.195083	0.978623	-0.097954
C62	C	0.191502	0.875463	-0.034878
C63	C	-0.248220	1.081739	-0.160973
C64	C	-0.292466	1.081734	-0.160971
C65	C	-0.255382	0.875410	-0.034819
C66	C	-0.211135	0.875415	-0.034828
C67	C	-0.207556	0.978583	-0.097900
C68	C	0.284416	0.875480	-0.034906
C69	C	0.328662	0.875493	-0.034925
C70	C	0.291575	1.081817	-0.161073
C71	C	0.247332	1.081804	-0.161058
C72	C	0.243755	0.978626	-0.097966
O73	O	0.161578	1.169458	-0.214666
O74	O	0.230155	0.787738	0.018770
C75	C	0.014523	0.875445	-0.034845
C76	C	-0.026139	0.978600	-0.097910
C77	C	-0.022557	1.081760	-0.160985
C78	C	-0.070386	0.978596	-0.097907
C79	C	-0.073968	0.875436	-0.034832
C80	C	-0.033303	0.772281	0.028241
C81	C	0.010941	0.772285	0.028230
C82	C	-0.063222	1.184916	-0.224058
C83	C	-0.107464	1.184902	-0.224043
C84	C	-0.111046	1.081743	-0.160968
C85	C	0.656858	0.978584	-0.097909
C86	C	0.703952	0.978574	-0.097896
C87	C	0.528671	0.919768	-0.362074
C88	C	0.532259	0.899797	-0.451716
C89	C	0.534732	1.272160	-0.127365
C90	C	0.540378	1.371787	-0.137349
C91	C	0.516245	0.988927	-0.551620
C92	C	0.519953	0.968288	-0.644271
C93	C	0.507525	1.037458	0.166177
C94	C	0.503937	1.057430	0.255819
C95	C	0.640224	0.685038	-0.068493
C96	C	0.681672	0.585401	-0.058496
C97	C	0.490891	0.743912	0.195594
C98	C	0.481657	0.664256	0.295220
C99	C	0.629651	0.743883	0.195633
C100	C	0.667511	0.664217	0.295272
C101	C	0.406545	1.213344	-0.391529
C102	C	0.368686	1.293009	-0.491168
C103	C	0.395972	1.272189	-0.127404
C104	C	0.354524	1.371826	-0.137401
C105	C	0.545305	1.213315	-0.391490
C106	C	0.554539	1.292970	-0.491116
C107	C	0.676106	0.527124	-0.105393
C108	C	0.715048	0.433513	-0.096021
C109	C	0.759556	0.398176	-0.039745
C110	C	0.765121	0.456463	0.007154
C111	C	0.726180	0.550077	-0.002225
C112	C	0.502351	0.638336	0.393597
C113	C	0.493674	0.563506	0.487212
C114	C	0.464304	0.514591	0.482449
C115	C	0.443607	0.540519	0.384061
C116	C	0.452282	0.615354	0.290447
C117	C	0.714455	0.615309	0.290495
C118	C	0.750034	0.540466	0.384107
C119	C	0.738667	0.514527	0.482495
C120	C	0.691718	0.563444	0.487269
C121	C	0.656140	0.638291	0.393657
C122	C	0.321742	1.341929	-0.486393
C123	C	0.286165	1.416801	-0.580007
C124	C	0.297532	1.442745	-0.678396
C125	C	0.344481	1.393823	-0.683169
C126	C	0.380057	1.318958	-0.589556
C127	C	0.360091	1.430111	-0.090513
C128	C	0.321151	1.523743	-0.099911
C129	C	0.276644	1.559082	-0.156191
C130	C	0.271078	1.500791	-0.203085
C131	C	0.310018	1.407167	-0.193693
C132	C	0.583911	1.341863	-0.486318
C133	C	0.592596	1.416697	-0.579917
C134	C	0.571907	1.442644	-0.678314
C135	C	0.542533	1.393742	-0.683110
C136	C	0.533851	1.318903	-0.589511
H137	H	0.489289	0.398279	-0.046996
H138	H	0.566271	0.400629	-0.183132
H139	H	0.791260	0.321947	-0.032115
O140	O	0.411945	0.487722	0.378932
H141	H	0.409402	0.431311	0.460562
H142	H	0.801364	0.427678	0.052973
H143	H	0.730718	0.597517	0.035972
H144	H	0.244940	1.635319	-0.163830
H145	H	0.312477	1.320809	-0.406288
H146	H	0.548717	0.808210	-0.434776
H147	H	0.096520	0.688285	0.079578
H148	H	0.234835	1.529579	-0.248908
O149	O	0.679464	0.535450	0.593395
H150	H	0.640843	0.582034	0.581003
H151	H	-0.060312	1.268922	-0.275424
O152	O	0.628106	0.565227	-0.166105
H153	H	0.614785	0.655797	-0.233454
H154	H	0.305479	1.359713	-0.231872
O155	O	0.461520	0.547242	0.002098
H156	H	0.462317	0.472366	0.000677
O157	O	0.541765	0.846952	-0.621798
H158	H	0.521369	0.801035	-0.575409
H159	H	0.418280	1.279126	-0.593456
H160	H	0.710507	0.386065	-0.134213
H161	H	0.268559	1.503706	-0.754613
H162	H	0.353731	1.414957	-0.763288
H163	H	0.600761	1.320751	-0.406207
H164	H	0.396327	1.401348	-0.044678
H165	H	-0.178028	0.791411	0.016538
H166	H	0.723719	0.636416	0.210391
H167	H	0.617917	0.678103	0.397562
H168	H	0.788259	0.500644	0.380201
O169	O	0.502164	1.266186	-0.594692
H170	H	0.489234	1.296820	-0.678843
H171	H	0.616513	1.456507	-0.575993
H172	H	0.526266	0.678157	0.397496
H173	H	0.578980	1.503585	-0.754521
O174	O	0.494442	1.110252	-0.574078
H175	H	0.494946	1.107424	-0.497782
O176	O	0.555306	0.568314	-0.163756
H177	H	0.591318	0.496419	-0.126082
O178	O	0.327158	1.586591	-0.049314
H179	H	0.364647	1.546266	-0.008585
O180	O	0.520216	1.421714	-0.789230
H181	H	0.497752	1.515882	-0.840425
O182	O	0.372523	0.764220	0.033103
H183	H	0.362595	0.692491	0.076971
O184	O	0.280561	0.764197	0.033128
H185	H	0.316274	0.692475	0.076964
O186	O	0.516007	0.535530	0.593325
H187	H	0.537894	0.582098	0.580903
O188	O	0.482133	1.178763	-0.766648
H189	H	0.482637	1.175938	-0.690354
H190	H	0.247940	1.456622	-0.576100
O191	O	0.454960	0.433857	0.583430
H192	H	0.438268	0.479696	0.624306
O193	O	0.187530	0.661030	0.096230
H194	H	0.177597	0.589308	0.140092
H195	H	0.435431	0.636445	0.210348
H196	H	0.767641	0.453579	0.558711
H197	H	-0.258305	0.791412	0.016533
H198	H	-0.245312	1.165755	-0.212342
O199	O	-0.336323	1.192998	-0.229008
H200	H	-0.338903	1.254612	-0.204709
O201	O	-0.018585	1.296213	-0.292090
H202	H	-0.008652	1.367938	-0.335932
H203	H	0.072428	1.268954	-0.275417
O204	O	0.203470	1.193068	-0.229082
H205	H	0.213396	1.264802	-0.272940
H206	H	0.044047	0.688279	0.079590
O207	O	0.295476	1.193022	-0.229173
H208	H	0.312581	1.210148	-0.177711
O209	O	-0.037169	0.661009	0.096271
H210	H	-0.058618	0.668228	0.153832
O211	O	-0.151323	1.296179	-0.292072
H212	H	-0.141393	1.367909	-0.335921
