data_functionalizedCrystal
_audit_creation_method	'MofGen! by Chris Wilmer'
_symmetry_space_group_name_H-M	'P1'
_symmetry_Int_Tables_number	1
_symmetry_cell_setting	triclinic
loop_
_symmetry_equiv_pos_as_xyz
  x,y,z
_cell_length_a	16.625546
_cell_length_b	13.032831
_cell_length_c	13.032268
_cell_angle_alpha	90.886977
_cell_angle_beta	82.855386
_cell_angle_gamma	97.173222
loop_
_atom_site_label
_atom_site_type_symbol
_atom_site_fract_x
_atom_site_fract_y
_atom_site_fract_z
Zn1	Zn	-0.544521	-1.498429	0.780776
Zn2	Zn	-0.044521	-0.998429	1.280776
Zn3	Zn	-0.664651	-1.520160	0.608784
Zn4	Zn	-0.164651	-1.020160	1.108784
Zn5	Zn	-0.510838	-1.348291	0.587021
Zn6	Zn	-0.010838	-0.848291	1.087021
Zn7	Zn	-0.660292	-1.326409	0.758909
Zn8	Zn	-0.160292	-0.826409	1.258909
O9	O	-0.595075	-1.423322	0.683873
O10	O	-0.095075	-0.923322	1.183873
O11	O	-0.576377	-1.645231	0.776220
O12	O	-0.076377	-1.145231	1.276220
O13	O	-0.631976	-1.515614	0.461981
O14	O	-0.131976	-1.015614	0.961981
O15	O	-0.402484	-1.368270	0.612767
O16	O	0.097516	-0.868270	1.112767
O17	O	-0.664636	-1.661197	0.649858
O18	O	-0.164636	-1.161197	1.149858
O19	O	-0.427231	-1.478576	0.755118
O20	O	0.072769	-0.978576	1.255118
O21	O	-0.518970	-1.389342	0.445992
O22	O	-0.018970	-0.889342	0.945992
O23	O	-0.514743	-1.201469	0.591563
O24	O	-0.014743	-0.701469	1.091563
O25	O	-0.657206	-1.330976	0.905725
O26	O	-0.157206	-0.830976	1.405725
O27	O	-0.624546	-1.185392	0.717849
O28	O	-0.124546	-0.685392	1.217849
O29	O	-0.572150	-1.457358	0.921791
O30	O	-0.072150	-0.957358	1.421791
O31	O	-0.776895	-1.494396	0.628654
O32	O	-0.276895	-0.994396	1.128654
O33	O	-0.773692	-1.352048	0.738951
O34	O	-0.273692	-0.852048	1.238951
C35	C	-0.804552	-1.423230	0.683817
C36	C	-0.304552	-0.923230	1.183817
C37	C	-0.894180	-1.423281	0.683840
C38	C	-0.394180	-0.923281	1.183840
C39	C	-0.565517	-1.156114	0.649972
C40	C	-0.065517	-0.656114	1.149972
C41	C	-0.552893	-1.041798	0.635494
C42	C	-0.052893	-0.541798	1.135494
C43	C	-0.617949	-1.389302	0.952117
C44	C	-0.117949	-0.889302	1.452117
C45	C	-0.627696	-1.374805	1.066427
C46	C	-0.127696	-0.874805	1.566427
C47	C	-1.222385	-1.423447	0.683970
C48	C	-0.722385	-0.923447	1.183970
C49	C	-1.131068	-1.423397	0.683936
C50	C	-0.631068	-0.923397	1.183936
C51	C	-1.058285	-1.423363	0.683904
C52	C	-0.558285	-0.923363	1.183904
C53	C	-0.966963	-1.423315	0.683872
C54	C	-0.466963	-0.923315	1.183872
C55	C	-0.384786	-1.423440	0.683954
C56	C	0.115214	-0.923440	1.183954
C57	C	-0.295173	-1.423490	0.683989
C58	C	0.204827	-0.923490	1.183989
C59	C	-0.624750	-1.691574	0.717906
C60	C	-0.124750	-1.191574	1.217906
C61	C	-0.637396	-1.805887	0.732409
C62	C	-0.137396	-1.305887	1.232409
C63	C	-0.601664	-0.982917	0.691429
C64	C	-0.101664	-0.482917	1.191429
C65	C	-0.588618	-0.864766	0.676466
C66	C	-0.088618	-0.364766	1.176466
C67	C	-0.572239	-1.457270	0.416679
C68	C	-0.072239	-0.957270	0.916679
C69	C	-0.562287	-1.471966	0.302395
C70	C	-0.062287	-0.971966	0.802395
C71	C	-0.589958	-1.430873	1.125339
C72	C	-0.089958	-0.930873	1.625339
C73	C	-0.600031	-1.415890	1.243485
C74	C	-0.100031	-0.915890	1.743485
H75	H	-0.653074	-1.019978	0.750398
H76	H	-0.153074	-0.519978	1.250398
H77	H	-0.688808	-0.842942	0.791385
H78	H	-0.188808	-0.342942	1.291385
H79	H	-0.639795	-1.356786	1.280509
H80	H	-0.139795	-0.856786	1.780509
H81	H	-0.501477	-1.004736	0.576533
H82	H	-0.001477	-0.504736	1.076533
F83	F	-0.537959	-1.508094	1.076942
F84	F	-0.037959	-1.008094	1.576942
H85	H	-0.522512	-1.531059	1.265370
H86	H	-0.022512	-1.031059	1.765370
H87	H	-0.537199	-0.827708	0.617501
H88	H	-0.037199	-0.327708	1.117501
F89	F	-0.679671	-1.297557	1.114821
F90	F	-0.179671	-0.797557	1.614821
