data_functionalizedCrystal
_audit_creation_method	'MofGen! by Chris Wilmer'
_symmetry_space_group_name_H-M	'P1'
_symmetry_Int_Tables_number	1
_symmetry_cell_setting	triclinic
loop_
_symmetry_equiv_pos_as_xyz
  x,y,z
_cell_length_a	9.065215
_cell_length_b	10.723022
_cell_length_c	7.540329
_cell_angle_alpha	89.997341
_cell_angle_beta	89.997358
_cell_angle_gamma	84.740962
loop_
_atom_site_label
_atom_site_type_symbol
_atom_site_fract_x
_atom_site_fract_y
_atom_site_fract_z
O1	O	0.206929	1.658026	-0.147467
O2	O	0.706929	2.158026	0.352533
O3	O	0.226740	1.294953	-0.147473
O4	O	0.726740	1.794953	0.352527
O5	O	0.002149	1.483996	-0.147462
O6	O	0.502149	1.983996	0.352538
O7	O	0.431520	1.468983	-0.147478
O8	O	0.931520	1.968983	0.352522
O9	O	0.002146	1.483985	0.147503
O10	O	0.502146	1.983985	0.647503
O11	O	0.226737	1.294942	0.147492
O12	O	0.726737	1.794942	0.647492
O13	O	0.206926	1.658014	0.147498
O14	O	0.706926	2.158014	0.647498
Cu15	Cu	0.216831	1.476477	0.174428
Cu16	Cu	0.716831	1.976477	0.674428
Cu17	Cu	0.216835	1.476491	-0.174403
Cu18	Cu	0.716835	1.976491	0.325597
O19	O	0.431517	1.468972	0.147487
O20	O	0.931517	1.968972	0.647487
C21	C	0.225297	1.248442	0.000009
C22	C	0.725297	1.748442	0.500009
C23	C	0.220985	1.109870	0.000007
C24	C	0.720985	1.609870	0.500007
C25	C	0.091471	1.060784	0.000011
C26	C	0.591471	1.560784	0.500011
C27	C	0.087012	0.917564	0.000008
C28	C	0.587012	1.417564	0.500008
C29	C	-0.052831	1.482548	0.000019
C30	C	0.447169	1.982548	0.500019
C31	C	-0.216650	1.478237	0.000013
C32	C	0.283350	1.978237	0.500013
C33	C	0.486497	1.470419	0.000003
C34	C	0.986497	1.970419	0.500003
C35	C	0.650315	1.474731	-0.000003
C36	C	1.150315	1.974731	0.499997
C37	C	0.208369	1.704526	0.000012
C38	C	0.708369	2.204526	0.500012
C39	C	0.212681	1.843097	0.000003
C40	C	0.712681	2.343097	0.500003
N41	N	0.216828	1.476477	0.419776
N42	N	0.716828	1.976477	0.919776
N43	N	0.216826	1.476501	-0.419751
N44	N	0.716826	1.976501	0.080249
H45	H	0.323575	0.885350	0.000010
H46	H	0.823575	1.385350	0.500010
F47	F	0.361605	1.026216	-0.000012
F48	F	0.861605	1.526216	0.499988
H49	H	-0.016108	1.124791	0.000006
H50	H	0.483892	1.624791	0.500006
F51	F	-0.057933	0.862330	0.000025
F52	F	0.442067	1.362330	0.500025
