data_functionalizedCrystal
_audit_creation_method	'MofGen! by Chris Wilmer'
_symmetry_space_group_name_H-M	'P1'
_symmetry_Int_Tables_number	1
_symmetry_cell_setting	triclinic
loop_
_symmetry_equiv_pos_as_xyz
  x,y,z
_cell_length_a	14.853567
_cell_length_b	9.065218
_cell_length_c	8.140239
_cell_angle_alpha	90.001686
_cell_angle_beta	89.999751
_cell_angle_gamma	84.325408
loop_
_atom_site_label
_atom_site_type_symbol
_atom_site_fract_x
_atom_site_fract_y
_atom_site_fract_z
O1	O	-1.197788	-0.192614	-0.136493
O2	O	-0.697788	0.307386	0.363507
O3	O	-0.935498	-0.215559	-0.136521
O4	O	-0.435498	0.284441	0.363479
O5	O	-1.072065	0.010663	-0.136503
O6	O	-0.572065	0.510663	0.363497
O7	O	-1.061222	-0.418836	-0.136511
O8	O	-0.561222	0.081164	0.363489
O9	O	-1.072057	0.010666	0.136724
O10	O	-0.572057	0.510666	0.636724
O11	O	-0.935491	-0.215556	0.136706
O12	O	-0.435491	0.284444	0.636706
O13	O	-1.197780	-0.192611	0.136734
O14	O	-0.697780	0.307389	0.636734
Zn15	Zn	-1.066634	-0.204083	0.180101
Zn16	Zn	-0.566634	0.295917	0.680101
Zn17	Zn	-1.066644	-0.204087	-0.179888
Zn18	Zn	-0.566644	0.295913	0.320112
O19	O	-1.061214	-0.418834	0.136716
O20	O	-0.561214	0.081166	0.636716
C21	C	-1.071019	0.065631	0.000108
C22	C	-0.571019	0.565631	0.500108
C23	C	-1.067903	0.229412	0.000100
C24	C	-0.567903	0.729412	0.500100
C25	C	-0.901898	-0.214518	0.000089
C26	C	-0.401898	0.285482	0.500089
C27	C	-0.801791	-0.211403	0.000079
C28	C	-0.301791	0.288597	0.500079
C29	C	-1.231381	-0.193652	0.000120
C30	C	-0.731381	0.306348	0.500120
C31	C	-1.331487	-0.196768	0.000120
C32	C	-0.831487	0.303232	0.500120
C33	C	-0.388166	-0.063852	0.000118
C34	C	0.111834	0.436148	0.500118
C35	C	-0.368873	-0.332609	0.000112
C36	C	0.131127	0.167391	0.500112
C37	C	-0.462929	-0.335539	0.000106
C38	C	0.037071	0.164461	0.500106
C39	C	-0.519607	-0.202622	0.000104
C40	C	-0.019607	0.297378	0.500104
C41	C	-0.482230	-0.066777	0.000108
C42	C	0.017770	0.433223	0.500108
C43	C	-0.500313	-0.471382	0.000086
C44	C	-0.000313	0.028618	0.500086
C45	C	-0.594374	-0.474316	0.000079
C46	C	-0.094374	0.025684	0.500079
C47	C	-0.651054	-0.341399	0.000089
C48	C	-0.151054	0.158601	0.500089
C49	C	-0.613672	-0.205548	0.000094
C50	C	-0.113672	0.294452	0.500094
C51	C	-0.670350	-0.072632	0.000092
C52	C	-0.170350	0.427368	0.500092
C53	C	-0.632969	0.063221	0.000109
C54	C	-0.132969	0.563221	0.500109
C55	C	-0.538910	0.066141	0.000118
C56	C	-0.038910	0.566141	0.500118
C57	C	-0.745113	-0.344319	0.000081
C58	C	-0.245113	0.155681	0.500081
C59	C	-0.764414	-0.075557	0.000082
C60	C	-0.264414	0.424443	0.500082
C61	C	-1.062260	-0.473801	0.000102
C62	C	-0.562260	0.026199	0.500102
C63	C	-1.065376	-0.637582	0.000099
C64	C	-0.565376	-0.137582	0.500099
N65	N	-1.066634	-0.204080	0.425783
N66	N	-0.566634	0.295920	0.925783
N67	N	-1.066652	-0.204078	-0.425570
N68	N	-0.566652	0.295922	0.074430
H69	H	-0.810556	0.032681	0.000087
H70	H	-0.310556	0.532681	0.500087
H71	H	-0.508466	0.176745	0.000171
H72	H	-0.008466	0.676745	0.500171
C73	C	-0.694662	0.207367	0.000187
C74	C	-0.194662	0.707367	0.500187
C75	C	-0.785033	0.175715	0.000203
C76	C	-0.285033	0.675715	0.500203
C77	C	-0.841892	0.308459	0.000295
C78	C	-0.341892	0.808459	0.500295
H79	H	-0.683325	0.263172	-0.095061
H80	H	-0.183325	0.763172	0.404939
H81	H	-0.683276	0.263072	0.095512
H82	H	-0.183276	0.763072	0.595512
H83	H	-0.796414	0.120033	-0.095113
H84	H	-0.296414	0.620033	0.404887
H85	H	-0.796398	0.119930	0.095444
H86	H	-0.296398	0.619930	0.595444
H87	H	-0.830507	0.364165	0.095621
H88	H	-0.330507	0.864165	0.595621
H89	H	-0.830547	0.364255	-0.094954
H90	H	-0.330547	0.864255	0.405046
H91	H	-0.903215	0.287001	0.000322
H92	H	-0.403215	0.787001	0.500322
C93	C	-0.347413	0.083491	0.000051
C94	C	0.152587	0.583491	0.500051
C95	C	-0.252909	0.057617	0.000027
C96	C	0.247091	0.557617	0.500027
C97	C	-0.215338	0.193313	-0.000057
C98	C	0.284662	0.693313	0.499943
H99	H	-0.366699	0.138337	0.095304
H100	H	0.133301	0.638337	0.595304
H101	H	-0.366737	0.138237	-0.095269
H102	H	0.133263	0.638237	0.404731
H103	H	-0.233594	0.002893	0.095338
H104	H	0.266406	0.502893	0.595338
H105	H	-0.233598	0.002792	-0.095219
H106	H	0.266402	0.502792	0.404781
H107	H	-0.234661	0.248059	-0.095377
H108	H	0.265339	0.748059	0.404623
H109	H	-0.234630	0.248149	0.095197
H110	H	0.265370	0.748149	0.595197
H111	H	-0.151213	0.175776	-0.000089
H112	H	0.348787	0.675776	0.499911
H113	H	-0.322721	-0.440823	0.000099
H114	H	0.177279	0.059177	0.500099
H115	H	-0.454159	-0.579594	0.000071
H116	H	0.045841	-0.079594	0.500071
H117	H	-0.624801	-0.584935	0.000065
H118	H	-0.124801	-0.084935	0.500065
H119	H	-0.775544	-0.454927	0.000070
H120	H	-0.275544	0.045073	0.500070
