data_functionalizedCrystal
_audit_creation_method	'MofGen! by Chris Wilmer'
_symmetry_space_group_name_H-M	'P1'
_symmetry_Int_Tables_number	1
_symmetry_cell_setting	triclinic
loop_
_symmetry_equiv_pos_as_xyz
  x,y,z
_cell_length_a	17.038272
_cell_length_b	10.654541
_cell_length_c	9.130307
_cell_angle_alpha	90.003083
_cell_angle_beta	90.004095
_cell_angle_gamma	92.202257
loop_
_atom_site_label
_atom_site_type_symbol
_atom_site_fract_x
_atom_site_fract_y
_atom_site_fract_z
O1	O	1.038886	-0.272863	-0.121615
O2	O	0.811231	-0.268530	-0.121658
O3	O	0.930294	-0.088443	-0.121627
O4	O	0.919824	-0.452950	-0.121647
O5	O	0.930290	-0.088441	0.121972
O6	O	0.811227	-0.268528	0.121941
O7	O	1.038882	-0.272860	0.121984
Cu8	Cu	0.925054	-0.270694	0.144205
Cu9	Cu	0.925059	-0.270697	-0.143879
O10	O	0.919820	-0.452947	0.121952
C11	C	0.782079	-0.264588	0.000136
C12	C	0.695221	-0.252831	0.000119
N13	N	0.925057	-0.270692	0.346827
C14	C	0.929524	-0.041572	0.000172
C15	C	0.927225	0.098085	0.000169
C16	C	0.645709	-0.360775	0.000115
C17	C	0.564097	-0.349721	0.000135
C18	C	0.531998	-0.230721	0.000151
C19	C	0.581516	-0.122768	0.000160
C20	C	0.663127	-0.133824	0.000149
C21	C	0.286022	-0.191663	0.000192
C22	C	0.204405	-0.180615	0.000198
C23	C	0.186991	-0.407569	0.000176
C24	C	0.268604	-0.418614	0.000157
C25	C	0.318115	-0.310662	0.000174
C26	C	0.448577	-0.219418	0.000167
C27	C	0.401534	-0.321965	0.000168
C28	C	1.068034	-0.276802	0.000186
C29	C	1.154893	-0.288559	0.000193
C30	C	0.920590	-0.499818	0.000150
C31	C	0.922889	-0.639475	0.000144
C32	C	1.069596	0.112836	0.000214
C33	C	1.139699	0.185820	0.000240
C34	C	1.137534	0.317040	0.000235
C35	C	1.065259	0.375276	0.000200
C36	C	0.995156	0.302291	0.000174
C37	C	0.997329	0.171070	0.000184
C38	C	0.852786	0.287540	0.000118
C39	C	0.854949	0.156321	0.000134
C40	C	0.780511	0.345776	0.000083
C41	C	0.710407	0.272791	0.000068
C42	C	0.712575	0.141565	0.000075
C43	C	0.784847	0.083336	0.000108
N44	N	0.925063	-0.270689	-0.346502
C45	C	1.030530	-0.111278	0.346845
C46	C	1.083272	-0.031576	0.423521
C47	C	1.083280	-0.031576	0.576854
C48	C	1.030539	-0.111284	0.653516
C49	C	0.977797	-0.190987	0.576840
C50	C	0.977796	-0.190981	0.423503
C51	C	0.872321	-0.350392	0.576822
C52	C	0.872316	-0.350400	0.423489
C53	C	0.819580	-0.430100	0.653484
C54	C	0.766840	-0.509811	0.576808
C55	C	0.766835	-0.509809	0.423465
C56	C	0.819574	-0.430103	0.346813
H57	H	0.671837	-0.457678	0.000101
O58	O	1.071939	-0.028693	0.000239
H59	H	1.041778	-0.066457	0.099526
H60	H	0.703439	-0.045924	0.000152
H61	H	1.198544	0.138390	0.000281
O62	O	0.632463	0.335611	0.000037
H63	H	0.598749	0.306890	-0.099262
H64	H	0.146671	-0.495457	0.000166
O65	O	0.413952	-0.091071	0.000171
H66	H	0.433793	-0.038780	0.099463
H67	H	1.194618	0.376464	0.000244
O68	O	0.510691	-0.466145	0.000131
H69	H	0.546722	-0.550749	0.000101
H70	H	0.786619	-0.023509	0.000123
O71	O	0.169785	-0.052255	0.000225
H72	H	0.133020	-0.041809	0.099511
H73	H	0.778753	0.452622	0.000070
O74	O	0.436155	-0.450310	0.000163
H75	H	0.388019	-0.523522	0.000171
O76	O	0.709962	-0.595780	0.659484
H77	H	0.718829	-0.582390	0.778987
O78	O	0.636959	0.062855	0.000057
H79	H	0.634541	0.002715	-0.099231
O80	O	0.819569	-0.430087	0.181432
H81	H	0.832583	-0.525301	0.140979
O82	O	1.062925	0.516805	0.000196
H83	H	1.093094	0.554579	-0.099077
O84	O	1.140135	0.054431	0.340842
H85	H	1.131269	0.041052	0.221337
H86	H	1.030536	-0.111281	0.221993
H87	H	1.126224	0.033329	0.639284
O88	O	0.303216	-0.546971	0.000174
H89	H	0.283363	-0.599275	-0.099101
O90	O	0.339419	-0.075235	0.000209
H91	H	0.303385	0.009367	0.000209
O92	O	0.546901	0.005587	0.000181
H93	H	0.481834	-0.004858	0.000174
H94	H	1.030542	-0.111268	0.778368
H95	H	0.819585	-0.430091	0.778336
H96	H	0.723883	-0.574707	0.361044
