data_functionalizedCrystal
_audit_creation_method	'MofGen! by Chris Wilmer'
_symmetry_space_group_name_H-M	'P1'
_symmetry_Int_Tables_number	1
_symmetry_cell_setting	triclinic
loop_
_symmetry_equiv_pos_as_xyz
  x,y,z
_cell_length_a	16.625548
_cell_length_b	13.032721
_cell_length_c	13.033327
_cell_angle_alpha	105.164023
_cell_angle_beta	97.187858
_cell_angle_gamma	82.794397
loop_
_atom_site_label
_atom_site_type_symbol
_atom_site_fract_x
_atom_site_fract_y
_atom_site_fract_z
Zn1	Zn	1.247728	0.499335	0.654268
Zn2	Zn	1.217283	0.654353	0.499203
Zn3	Zn	1.097738	0.476757	0.476672
Zn4	Zn	1.097662	0.676906	0.676758
O5	O	1.165103	0.576837	0.576725
O6	O	1.356522	0.519909	0.633716
O7	O	1.188715	0.611908	0.347583
O8	O	1.130408	0.331113	0.481389
O9	O	1.334154	0.633800	0.519791
O10	O	1.240605	0.347701	0.611868
O11	O	1.100886	0.481428	0.331029
O12	O	0.984895	0.503296	0.503197
O13	O	1.130278	0.672237	0.822406
O14	O	0.984839	0.650345	0.650199
O15	O	1.240531	0.541777	0.805883
O16	O	1.188641	0.805984	0.541598
O17	O	1.100757	0.822553	0.672046
C18	C	0.955610	0.576819	0.576694
C19	C	0.865989	0.576839	0.576709
C20	C	1.141411	0.852812	0.611731
C21	C	1.131352	0.970879	0.626742
C22	C	1.188792	0.612041	0.853761
C23	C	1.198887	0.627043	0.971817
C24	C	0.537816	0.576852	0.576755
C25	C	0.629124	0.576845	0.576738
C26	C	0.701900	0.576846	0.576731
C27	C	0.793213	0.576838	0.576716
C28	C	1.375413	0.576857	0.576758
C29	C	1.465034	0.576866	0.576772
C30	C	1.188911	0.299789	0.541607
C31	C	1.199056	0.181727	0.526641
C32	C	1.170399	1.015291	0.568939
C33	C	1.160004	1.137319	0.584452
C34	C	1.159932	0.569173	1.016259
C35	C	1.170364	0.584676	1.138276
C36	C	1.141498	0.541796	1.300771
C37	C	1.131403	0.526798	1.182715
H38	H	1.211528	0.962975	0.507970
O39	O	1.219479	0.657415	1.200512
C40	C	1.299545	0.630781	1.170572
H41	H	1.297884	0.579782	1.084833
H42	H	1.328802	0.706976	1.176611
H43	H	1.336693	0.584048	1.226060
H44	H	1.118880	1.189635	0.645432
H45	H	1.239961	0.688067	1.024101
O46	O	1.248002	1.119266	0.453774
C47	C	1.201694	1.046433	0.377042
H48	H	1.134785	1.079159	0.374644
H49	H	1.224034	1.034683	0.295164
H50	H	1.208816	0.966562	0.399267
O51	O	1.082396	1.033408	0.699551
C52	C	1.128715	1.106203	0.776314
H53	H	1.185254	1.117904	0.741005
H54	H	1.090473	1.186093	0.800367
H55	H	1.147870	1.073477	0.849641
H56	H	1.118853	0.508154	0.963976
O57	O	1.082333	0.454124	1.120260
C58	C	1.019597	0.506501	1.063777
H59	H	1.039715	0.584916	1.057475
H60	H	1.005880	0.453386	0.980247
H61	H	0.962467	0.523552	1.107935
