data_functionalizedCrystal
_audit_creation_method	'MofGen! by Chris Wilmer'
_symmetry_space_group_name_H-M	'P1'
_symmetry_Int_Tables_number	1
_symmetry_cell_setting	triclinic
loop_
_symmetry_equiv_pos_as_xyz
  x,y,z
_cell_length_a	19.188933
_cell_length_b	19.188930
_cell_length_c	13.101039
_cell_angle_alpha	93.345801
_cell_angle_beta	86.655175
_cell_angle_gamma	83.145175
loop_
_atom_site_label
_atom_site_type_symbol
_atom_site_fract_x
_atom_site_fract_y
_atom_site_fract_z
O1	O	0.929996	0.083310	-0.085191
O2	O	0.726685	0.095042	-0.085202
O3	O	0.834206	-0.012479	-0.085176
O4	O	0.822474	0.190831	-0.085217
O5	O	0.826492	-0.004751	0.085252
O6	O	0.718970	0.102769	0.085226
O7	O	0.922281	0.091037	0.085237
Zn8	Zn	0.819401	0.098130	0.112290
Zn9	Zn	0.829565	0.087949	-0.112256
O10	O	0.814759	0.198558	0.085211
C11	C	0.696817	0.098526	0.000011
C12	C	0.619312	0.097384	0.000007
C13	C	0.829969	-0.034626	0.000040
C14	C	0.828828	-0.112130	0.000049
C15	C	0.070262	0.085027	-0.092880
C16	C	0.143086	0.086095	-0.092885
C17	C	0.175298	0.090845	0.000015
C18	C	0.134681	0.094508	0.092926
C19	C	0.061859	0.093433	0.092928
N20	N	0.281188	0.135398	0.069157
N21	N	0.350366	0.136421	0.069149
C22	C	0.394707	0.094083	0.000016
N23	N	0.367255	0.050692	-0.069124
N24	N	0.298071	0.049672	-0.069119
C25	C	0.254261	0.092011	0.000024
C26	C	0.514279	0.091572	-0.092893
C27	C	0.587106	0.092636	-0.092894
C28	C	0.578698	0.101056	0.092920
C29	C	0.505875	0.099985	0.092918
C30	C	0.473669	0.095246	0.000008
C31	C	0.891918	-0.157053	0.000058
C32	C	0.890847	-0.229878	0.000041
C33	C	0.826682	-0.257775	0.000037
C34	C	0.763583	-0.212842	0.000023
C35	C	0.764656	-0.140020	0.000029
N36	N	0.775009	-0.363151	0.058034
N37	N	0.773994	-0.432330	0.058030
C38	C	0.823444	-0.477185	0.000016
N39	N	0.873959	-0.450248	-0.057982
N40	N	0.874976	-0.381063	-0.057974
C41	C	0.825511	-0.336738	0.000029
C42	C	0.885378	-0.601073	0.000005
C43	C	0.884305	-0.673899	-0.000018
C44	C	0.757038	-0.656861	-0.000026
C45	C	0.758114	-0.584038	-0.000013
C46	C	0.822285	-0.556148	0.000007
C47	C	0.952149	0.087554	0.000022
C48	C	1.029654	0.088695	0.000018
C49	C	0.818997	0.220705	-0.000008
C50	C	0.820138	0.298209	-0.000024
N51	N	0.812469	0.105078	0.265537
N52	N	0.836502	0.080996	-0.265503
C53	C	0.803038	0.114537	0.474577
C54	C	0.845931	0.071539	0.525463
C55	C	0.840684	0.076802	0.641781
C56	C	0.808285	0.109275	0.358250
H57	H	0.044045	0.081166	-0.168535
C58	C	0.970926	-0.089010	-0.087542
C59	C	0.962456	-0.126398	0.000066
H60	H	1.014471	-0.070081	-0.087534
H61	H	0.970553	-0.119753	-0.146963
H62	H	0.933502	-0.051829	-0.087532
H63	H	0.999877	-0.163582	0.000052
H64	H	0.962835	-0.095653	0.059502
C65	C	1.016751	-0.239410	0.000077
C66	C	0.960201	-0.279269	0.000058
H67	H	1.059566	-0.269902	0.000094
H68	H	1.017221	-0.213344	-0.059352
H69	H	1.011824	-0.207961	0.059513
H70	H	0.965125	-0.310715	-0.059383
H71	H	0.959732	-0.305347	0.059492
H72	H	0.762378	0.155299	0.518365
C73	C	0.157979	0.042008	0.251300
C74	C	0.170087	0.099728	0.195043
H75	H	0.179841	0.045227	0.314342
H76	H	0.108802	0.041897	0.264597
H77	H	0.177094	-0.000245	0.213119
H78	H	0.150968	0.141981	0.233221
H79	H	0.219274	0.099845	0.181750
H80	H	0.713279	-0.103443	0.000022
C81	C	0.888498	-0.050979	0.492481
C82	C	0.900823	0.016440	0.466481
H83	H	0.922382	-0.085012	0.456096
H84	H	0.892073	-0.054531	0.564042
H85	H	0.842684	-0.059119	0.474919
H86	H	0.946636	0.024583	0.484049
H87	H	0.897255	0.019994	0.394903
C88	C	0.960903	-0.769626	-0.087637
C89	C	0.953662	-0.723280	-0.000016
H90	H	1.003724	-0.800109	-0.087638
H91	H	0.922541	-0.796661	-0.087642
H92	H	0.961366	-0.743538	-0.147056
H93	H	0.953193	-0.749368	0.059403
H94	H	0.992034	-0.696243	-0.000003
C95	C	0.144085	0.077695	-0.276553
C96	C	0.187732	0.082077	-0.195006
H97	H	0.171647	0.075222	-0.339597
H98	H	0.120964	0.036742	-0.272701
H99	H	0.110050	0.118156	-0.272674
H100	H	0.221764	0.041614	-0.198881
H101	H	0.210865	0.123034	-0.198860
C102	C	-0.016873	0.037098	0.200731
C103	C	0.017221	0.097465	0.195052
H104	H	-0.044428	0.039587	0.263783
H105	H	-0.046477	0.034127	0.145411
H106	H	0.017166	-0.003359	0.196869
H107	H	-0.016819	0.137922	0.198906
H108	H	0.046826	0.100444	0.250387
H109	H	0.937631	-0.578364	0.000017
H110	H	0.620169	0.089644	-0.168546
C111	C	0.529901	0.083356	-0.276560
C112	C	0.478874	0.086358	-0.195016
H113	H	0.508044	0.080134	-0.339605
H114	H	0.552683	0.124651	-0.272701
H115	H	0.563577	0.043239	-0.272685
H116	H	0.445201	0.126478	-0.198887
H117	H	0.456081	0.045058	-0.198877
H118	H	0.704793	-0.679575	-0.000034
H119	H	0.604925	0.104921	0.168561
H120	H	0.472811	0.102974	0.168566
C121	C	0.653935	-0.551061	-0.087619
C122	C	0.688760	-0.534654	-0.000008
H123	H	0.611115	-0.520577	-0.087612
H124	H	0.682944	-0.545307	-0.147038
H125	H	0.644119	-0.598426	-0.087614
H126	H	0.698580	-0.487291	-0.000017
H127	H	0.659745	-0.540403	0.059426
C128	C	0.705430	-0.316910	0.000026
C129	C	0.693050	-0.243504	0.000022
H130	H	0.661884	-0.335836	0.000028
H131	H	0.734085	-0.335027	-0.059401
H132	H	0.728709	-0.329647	0.059464
H133	H	0.669776	-0.230766	-0.059420
H134	H	0.664385	-0.225379	0.059455
