data_functionalizedCrystal
_audit_creation_method	'MofGen! by Chris Wilmer'
_symmetry_space_group_name_H-M	'P1'
_symmetry_Int_Tables_number	1
_symmetry_cell_setting	triclinic
loop_
_symmetry_equiv_pos_as_xyz
  x,y,z
_cell_length_a	12.759401
_cell_length_b	12.759400
_cell_length_c	12.759393
_cell_angle_alpha	90.028927
_cell_angle_beta	90.021189
_cell_angle_gamma	90.014231
loop_
_atom_site_label
_atom_site_type_symbol
_atom_site_fract_x
_atom_site_fract_y
_atom_site_fract_z
Zn1	Zn	1.606258	-0.418206	0.594076
Zn2	Zn	1.606154	-0.593925	0.418404
Zn3	Zn	1.430560	-0.418260	0.418407
Zn4	Zn	1.430550	-0.593843	0.594038
O5	O	1.518381	-0.506058	0.506231
O6	O	1.753266	-0.441527	0.570788
O7	O	1.582822	-0.570679	0.271384
O8	O	1.453915	-0.271232	0.441727
O9	O	1.753189	-0.570626	0.441722
O10	O	1.583000	-0.271192	0.570791
O11	O	1.453814	-0.441619	0.271386
O12	O	1.283538	-0.441540	0.441690
O13	O	1.453898	-0.570488	0.741064
O14	O	1.283531	-0.570540	0.570725
O15	O	1.582990	-0.441448	0.741092
O16	O	1.582812	-0.740935	0.441685
O17	O	1.453797	-0.740875	0.570722
C18	C	1.245413	-0.506038	0.506204
C19	C	1.128637	-0.506055	0.506218
C20	C	0.964001	-0.573193	0.438959
C21	C	1.073725	-0.573174	0.438929
C22	C	1.073819	-0.438943	0.573532
C23	C	0.964097	-0.438958	0.573556
C24	C	0.963948	-0.650693	0.361250
C25	C	1.073672	-0.650674	0.361221
C26	C	1.518320	-0.779026	0.506222
C27	C	1.518391	-0.895802	0.506253
C28	C	1.451198	-0.950671	0.573390
C29	C	1.451254	-1.060395	0.573399
C30	C	1.585704	-1.060372	0.439134
C31	C	1.585642	-0.950650	0.439119
C32	C	1.373577	-0.950686	0.650910
C33	C	1.373633	-1.060410	0.650920
C34	C	1.792414	-0.506080	0.506259
C35	C	1.909191	-0.506089	0.506271
C36	C	1.518454	-0.505952	0.780265
C37	C	1.518486	-0.505907	0.897041
C38	C	1.518470	-0.232025	0.506264
C39	C	1.518508	-0.115248	0.506277
C40	C	1.518368	-0.506088	0.233264
C41	C	1.518540	-0.505837	0.116488
C42	C	1.585713	-0.438710	0.951920
C43	C	1.585738	-0.438672	1.061644
C44	C	1.451305	-0.573038	1.061602
C45	C	1.451276	-0.573070	0.951879
C46	C	1.663330	-0.361138	0.951945
C47	C	1.663355	-0.361100	1.061670
H48	H	1.118537	-0.384287	0.628312
H49	H	1.396583	-0.627717	1.106264
H50	H	1.395343	-1.090120	0.732329
H51	H	1.296370	-1.094521	0.621709
H52	H	0.929923	-0.728024	0.390276
H53	H	1.103455	-0.732064	0.382877
C54	C	1.378227	-0.646124	0.892485
C55	C	1.319392	-0.704947	0.963998
C56	C	1.252090	-0.772262	0.909323
H57	H	1.332367	-0.606044	0.849689
H58	H	1.418350	-0.691982	0.849693
H59	H	1.279272	-0.659094	1.006772
H60	H	1.365224	-0.745048	1.006796
H61	H	1.292213	-0.818120	0.866531
H62	H	1.206238	-0.732173	0.866528
H63	H	1.212170	-0.812188	0.957835
H64	H	1.641561	-0.279773	0.922185
H65	H	1.740602	-0.390306	0.917914
C66	C	1.658704	-0.891266	0.366182
C67	C	1.717631	-0.962786	0.307417
C68	C	1.784959	-0.908121	0.240224
H69	H	1.618629	-0.848520	0.320274
H70	H	1.704497	-0.848424	0.406381
H71	H	1.671844	-1.005610	0.267222
H72	H	1.757728	-1.005534	0.353297
H73	H	1.830751	-0.865279	0.280423
H74	H	1.744875	-0.865377	0.194323
H75	H	1.824955	-0.956639	0.200351
C76	C	1.624573	-0.257919	1.106872
C77	C	1.598844	-0.189605	1.024973
C78	C	1.563126	-0.094546	1.066575
H79	H	1.564284	-0.270236	1.148750
H80	H	1.678099	-0.227449	1.148758
H81	H	1.545322	-0.220068	0.983104
H82	H	1.659116	-0.177258	0.983087
H83	H	1.616652	-0.064076	1.108461
H84	H	1.502840	-0.106873	1.108453
H85	H	1.545674	-0.048179	1.011013
H86	H	1.744726	-0.382892	1.091453
H87	H	1.292201	-0.920990	0.629044
C88	C	0.904777	-0.366052	0.646743
C89	C	0.976349	-0.307281	0.705679
C90	C	0.921743	-0.240115	0.773121
H91	H	0.861954	-0.320146	0.606749
H92	H	0.862018	-0.406270	0.692525
H93	H	1.019090	-0.267066	0.659904
H94	H	1.019175	-0.353159	0.745694
H95	H	0.878984	-0.280333	0.818902
H96	H	0.878921	-0.194216	0.733119
H97	H	0.970296	-0.200238	0.813124
C98	C	1.412330	-0.905401	0.754097
C99	C	1.438078	-0.987246	0.822466
C100	C	1.473767	-0.945568	0.917535
H101	H	1.472605	-0.863469	0.741809
H102	H	1.358784	-0.863554	0.784507
H103	H	1.491619	-1.029075	0.792062
H104	H	1.377818	-1.029185	0.834784
H105	H	1.420220	-0.903721	0.947946
H106	H	1.534039	-0.903637	0.905236
H107	H	1.491231	-1.001093	0.963939
C108	C	0.924322	-0.621658	0.252722
C109	C	0.961010	-0.694856	0.179651
C110	C	0.924540	-0.668135	0.079666
H111	H	0.849875	-0.621685	0.252583
H112	H	0.949162	-0.553850	0.234595
H113	H	0.936164	-0.762646	0.197773
H114	H	1.035452	-0.694839	0.179757
H115	H	0.949380	-0.600328	0.061539
H116	H	0.850095	-0.668163	0.079539
H117	H	0.949435	-0.717790	0.030074
C118	C	1.119141	-0.611870	0.258205
C119	C	1.180832	-0.690832	0.213488
C120	C	1.222746	-0.655116	0.118601
H121	H	1.063771	-0.594311	0.211636
H122	H	1.161116	-0.551642	0.270748
H123	H	1.138859	-0.751041	0.200940
H124	H	1.236218	-0.708399	0.260027
H125	H	1.264721	-0.594888	0.131144
H126	H	1.167369	-0.637558	0.072040
H127	H	1.264615	-0.708682	0.088253
H128	H	1.640457	-1.105042	0.384475
