data_functionalizedCrystal
_audit_creation_method	'MofGen! by Chris Wilmer'
_symmetry_space_group_name_H-M	'P1'
_symmetry_Int_Tables_number	1
_symmetry_cell_setting	triclinic
loop_
_symmetry_equiv_pos_as_xyz
  x,y,z
_cell_length_a	18.101395
_cell_length_b	19.805407
_cell_length_c	19.805399
_cell_angle_alpha	89.983114
_cell_angle_beta	89.973474
_cell_angle_gamma	90.031104
loop_
_atom_site_label
_atom_site_type_symbol
_atom_site_fract_x
_atom_site_fract_y
_atom_site_fract_z
Zn1	Zn	-0.294836	1.034696	-0.382731
Zn2	Zn	0.038497	1.368029	-0.049398
Zn3	Zn	0.371830	1.701362	0.283935
Zn4	Zn	-0.418683	1.034607	-0.269548
Zn5	Zn	-0.085350	1.367940	0.063786
Zn6	Zn	0.247984	1.701273	0.397119
Zn7	Zn	-0.294860	0.921516	-0.269556
Zn8	Zn	0.038473	1.254849	0.063778
Zn9	Zn	0.371807	1.588182	0.397111
Zn10	Zn	-0.418641	0.921465	-0.382695
Zn11	Zn	-0.085307	1.254798	-0.049361
Zn12	Zn	0.248026	1.588131	0.283972
O13	O	-0.356755	0.978071	-0.326132
O14	O	-0.023422	1.311404	0.007201
O15	O	0.309912	1.644737	0.340534
O16	O	-0.311273	1.129400	-0.367729
O17	O	0.022060	1.462734	-0.034396
O18	O	0.355394	1.796067	0.298937
O19	O	-0.402285	1.019589	-0.174832
O20	O	-0.068952	1.352922	0.158501
O21	O	0.264381	1.686256	0.491834
O22	O	-0.191224	0.936588	-0.284587
O23	O	0.142109	1.269921	0.048746
O24	O	0.475443	1.603255	0.382079
O25	O	-0.402263	1.129335	-0.284574
O26	O	-0.068929	1.462668	0.048759
O27	O	0.264404	1.796002	0.382093
O28	O	-0.191207	1.019741	-0.367737
O29	O	0.142127	1.353074	-0.034404
O30	O	0.475460	1.686407	0.298930
O31	O	-0.311313	0.936501	-0.174838
O32	O	0.022020	1.269835	0.158495
O33	O	0.355354	1.603168	0.491829
O34	O	-0.311272	0.826792	-0.284552
O35	O	0.022062	1.160126	0.048781
O36	O	0.355395	1.493459	0.382115
O37	O	-0.402190	0.936501	-0.477416
O38	O	-0.068857	1.269834	-0.144083
O39	O	0.264476	1.603167	0.189251
O40	O	-0.402213	0.826755	-0.367674
O41	O	-0.068880	1.160088	-0.034341
O42	O	0.264454	1.493421	0.298992
O43	O	-0.311232	1.019691	-0.477443
O44	O	0.022102	1.353025	-0.144110
O45	O	0.355435	1.686358	0.189224
O46	O	-0.522310	1.019539	-0.284538
O47	O	-0.188977	1.352873	0.048795
O48	O	0.144356	1.686206	0.382128
O49	O	-0.522279	0.936414	-0.367667
O50	O	-0.188946	1.269748	-0.034333
O51	O	0.144387	1.603081	0.299000
C52	C	-0.356741	0.802215	-0.326110
C53	C	-0.023408	1.135548	0.007223
C54	C	0.309926	1.468881	0.340556
C55	C	-0.356753	0.726983	-0.326117
C56	C	-0.023419	1.060316	0.007216
C57	C	0.309914	1.393649	0.340549
C58	C	-0.404177	0.691637	-0.369329
C59	C	-0.070844	1.024970	-0.035996
C60	C	0.262490	1.358303	0.297338
C61	C	-0.404178	0.620948	-0.369339
C62	C	-0.070845	0.954281	-0.036005
C63	C	0.262488	1.287615	0.297328
C64	C	-0.356758	0.585607	-0.326132
C65	C	-0.023425	0.918940	0.007201
C66	C	0.309908	1.252274	0.340534
C67	C	-0.309329	0.620958	-0.282919
C68	C	0.024004	0.954291	0.050415
C69	C	0.357338	1.287625	0.383748
C70	C	-0.309324	0.691645	-0.282913
C71	C	0.024009	1.024978	0.050420
C72	C	0.357342	1.358312	0.383754
C73	C	-0.309345	0.335885	-0.282941
C74	C	0.023988	0.669218	0.050392
C75	C	0.357321	1.002551	0.383726
C76	C	-0.309355	0.265193	-0.282948
C77	C	0.023978	0.598526	0.050385
C78	C	0.357312	0.931859	0.383718
C79	C	-0.404199	0.265188	-0.369367
C80	C	-0.070866	0.598521	-0.036033
C81	C	0.262467	0.931854	0.297300
C82	C	-0.404195	0.335875	-0.369361
C83	C	-0.070861	0.669208	-0.036028
C84	C	0.262472	1.002542	0.297306
C85	C	-0.356763	0.371220	-0.326150
C86	C	-0.023429	0.704553	0.007183
C87	C	0.309904	1.037886	0.340517
C88	C	-0.356761	0.447868	-0.326141
C89	C	-0.023428	0.781201	0.007192
C90	C	0.309906	1.114535	0.340526
C91	C	-0.356763	0.508960	-0.326137
C92	C	-0.023430	0.842293	0.007196
C93	C	0.309903	1.175627	0.340529
C94	C	-0.549166	0.977980	-0.326112
C95	C	-0.215832	1.311313	0.007221
C96	C	0.117501	1.644647	0.340554
C97	C	-0.631480	0.978003	-0.326127
C98	C	-0.298146	1.311337	0.007207
C99	C	0.035187	1.644670	0.340540
C100	C	-0.930571	0.978152	-0.326163
C101	C	-0.597237	1.311485	0.007170
C102	C	-0.263904	1.644818	0.340504
C103	C	-0.899257	0.925973	-0.378595
C104	C	-0.565923	1.259306	-0.045262
C105	C	-0.232590	1.592640	0.288072
C106	C	-0.813639	0.925725	-0.378431
C107	C	-0.480305	1.259058	-0.045098
C108	C	-0.146972	1.592392	0.288236
C109	C	-0.782188	0.978078	-0.326146
C110	C	-0.448855	1.311411	0.007188
C111	C	-0.115521	1.644745	0.340521
C112	C	-0.813338	0.958771	-0.254811
C113	C	-0.480005	1.292104	0.078522
C114	C	-0.146672	1.625437	0.411856
C115	C	-0.898984	0.958434	-0.255125
C116	C	-0.565650	1.291768	0.078209
C117	C	-0.232317	1.625101	0.411542
C118	C	-0.898915	1.049752	-0.344438
C119	C	-0.565581	1.383085	-0.011104
C120	C	-0.232248	1.716419	0.322229
C121	C	-0.813264	1.049331	-0.346002
C122	C	-0.479930	1.382664	-0.012669
C123	C	-0.146597	1.715998	0.320665
C124	C	-0.698329	0.978038	-0.326131
C125	C	-0.364995	1.311371	0.007202
C126	C	-0.031662	1.644704	0.340535
C127	C	-1.014430	0.978191	-0.326173
C128	C	-0.681097	1.311524	0.007161
C129	C	-0.347763	1.644857	0.340494
C130	C	-0.163593	0.978180	-0.326167
C131	C	0.169740	1.311513	0.007166
C132	C	0.503074	1.644847	0.340500
C133	C	-0.081279	0.978227	-0.326182
C134	C	0.252054	1.311560	0.007151
C135	C	0.585388	1.644893	0.340485
C136	C	-0.356704	0.978100	-0.502675
C137	C	-0.023370	1.311434	-0.169342
C138	C	0.309963	1.644767	0.163992
C139	C	-0.356682	0.978113	-0.577907
C140	C	-0.023348	1.311446	-0.244574
C141	C	0.309985	1.644780	0.088759
C142	C	-0.356770	1.154613	-0.326155
C143	C	-0.023437	1.487947	0.007179
C144	C	0.309897	1.821280	0.340512
C145	C	-0.356776	1.229845	-0.326164
C146	C	-0.023443	1.563179	0.007169
C147	C	0.309891	1.896512	0.340502
C148	C	-0.309308	0.934862	-0.613254
C149	C	0.024025	1.268195	-0.279921
C150	C	0.357359	1.601528	0.053413
C151	C	-0.309294	0.934871	-0.683942
C152	C	0.024040	1.268204	-0.350609
C153	C	0.357373	1.601538	-0.017276
C154	C	-0.356650	0.978135	-0.719283
C155	C	-0.023316	1.311469	-0.385950
C156	C	0.310017	1.644802	-0.052616
C157	C	-0.404029	1.021389	-0.683931
C158	C	-0.070695	1.354722	-0.350598
C159	C	0.262638	1.688055	-0.017265
C160	C	-0.404046	1.021375	-0.613244
C161	C	-0.070713	1.354709	-0.279911
C162	C	0.262620	1.688042	0.053423
C163	C	-0.403959	1.021442	-0.969005
C164	C	-0.070626	1.354776	-0.635671
C165	C	0.262707	1.688109	-0.302338
C166	C	-0.403937	1.021454	-1.039697
C167	C	-0.070603	1.354787	-0.706363
C168	C	0.262730	1.688120	-0.373030
C169	C	-0.309207	0.934938	-1.039703
C170	C	0.024127	1.268271	-0.706370
C171	C	0.357460	1.601605	-0.373036
C172	C	-0.309224	0.934925	-0.969016
C173	C	0.024109	1.268258	-0.635682
C174	C	0.357442	1.601591	-0.302349
C175	C	-0.356606	0.978175	-0.933670
C176	C	-0.023272	1.311508	-0.600337
C177	C	0.310061	1.644842	-0.267004
C178	C	-0.356622	0.978163	-0.857022
C179	C	-0.023288	1.311497	-0.523689
C180	C	0.310045	1.644830	-0.190355
C181	C	-0.356631	0.978151	-0.795930
C182	C	-0.023297	1.311484	-0.462597
C183	C	0.310036	1.644818	-0.129263
C184	C	-0.356753	0.978080	-0.150276
C185	C	-0.023419	1.311413	0.183057
C186	C	0.309914	1.644747	0.516390
C187	C	-0.356566	0.978198	-0.075045
C188	C	-0.023233	1.311532	0.258289
C189	C	0.310101	1.644865	0.591622
H190	H	-0.270716	0.592178	-0.247742
H191	H	0.062618	0.925511	0.085591
H192	H	0.395951	1.258844	0.418924
H193	H	-0.270720	0.899649	-0.712719
H194	H	0.062613	1.232982	-0.379385
H195	H	0.395947	1.566316	-0.046052
Cl196	Cl	-0.929931	0.877626	-0.231225
Cl197	Cl	-0.596598	1.210960	0.102108
Cl198	Cl	-0.263265	1.544293	0.435441
H199	H	-0.792575	0.937804	-0.431325
H200	H	-0.459242	1.271138	-0.097992
H201	H	-0.125909	1.604471	0.235342
Cl202	Cl	-0.930985	0.944432	-0.460526
Cl203	Cl	-0.597651	1.277765	-0.127193
Cl204	Cl	-0.264318	1.611099	0.206140
Cl205	Cl	-0.932600	0.844534	-0.360156
Cl206	Cl	-0.599266	1.177867	-0.026823
Cl207	Cl	-0.265933	1.511200	0.306511
Cl208	Cl	-0.932182	1.076931	-0.423381
Cl209	Cl	-0.598849	1.410264	-0.090047
Cl210	Cl	-0.265515	1.743598	0.243286
Cl211	Cl	-0.463519	1.075820	-0.924580
Cl212	Cl	-0.130186	1.409153	-0.591246
Cl213	Cl	0.203147	1.742486	-0.257913
H214	H	-0.442591	1.056612	-0.712711
H215	H	-0.109257	1.389945	-0.379378
H216	H	0.224076	1.723279	-0.046044
H217	H	-0.919164	1.088627	-0.306250
H218	H	-0.585831	1.421960	0.027084
H219	H	-0.252497	1.755294	0.360417
Cl220	Cl	-0.463476	1.075846	-1.084124
Cl221	Cl	-0.130143	1.409180	-0.750791
Cl222	Cl	0.203190	1.742513	-0.417457
H223	H	-0.270735	0.236420	-0.247765
H224	H	0.062598	0.569753	0.085569
H225	H	0.395931	0.903086	0.418902
H226	H	-0.442617	1.056600	-0.584466
H227	H	-0.109284	1.389934	-0.251132
H228	H	0.224049	1.723267	0.082201
Cl229	Cl	-0.780199	1.112531	-0.291344
Cl230	Cl	-0.446866	1.445865	0.041989
Cl231	Cl	-0.113533	1.779198	0.375323
H232	H	-0.792901	1.063891	-0.398501
H233	H	-0.459568	1.397224	-0.065167
H234	H	-0.126235	1.730558	0.268166
Cl235	Cl	-0.249701	0.736080	-0.228589
Cl236	Cl	0.083633	1.069414	0.104745
Cl237	Cl	0.416966	1.402747	0.438078
Cl238	Cl	-0.463798	0.736059	-0.423646
Cl239	Cl	-0.130465	1.069392	-0.090312
Cl240	Cl	0.202869	1.402725	0.243021
Cl241	Cl	-0.249714	0.380309	-0.228620
Cl242	Cl	0.083619	0.713642	0.104713
Cl243	Cl	0.416952	1.046976	0.438046
H244	H	-0.442811	0.364646	-0.404542
H245	H	-0.109478	0.697979	-0.071208
H246	H	0.223855	1.031313	0.262125
H247	H	-0.442797	0.592173	-0.404525
H248	H	-0.109463	0.925506	-0.071192
H249	H	0.223870	1.258839	0.262141
H250	H	-0.442818	0.236402	-0.404554
H251	H	-0.109485	0.569735	-0.071220
H252	H	0.223849	0.903068	0.262113
Cl253	Cl	-0.249767	0.880472	-0.568833
Cl254	Cl	0.083566	1.213805	-0.235499
Cl255	Cl	0.416899	1.547139	0.097834
H256	H	-0.793215	0.872653	-0.366326
H257	H	-0.459882	1.205986	-0.032992
H258	H	-0.126549	1.539320	0.300341
H259	H	-0.919700	0.994790	-0.214727
H260	H	-0.586367	1.328124	0.118607
H261	H	-0.253034	1.661457	0.451940
H262	H	-0.792968	0.995580	-0.214680
H263	H	-0.459634	1.328913	0.118654
H264	H	-0.126301	1.662246	0.451987
Cl265	Cl	-0.780328	0.878816	-0.230481
Cl266	Cl	-0.446995	1.212150	0.102852
Cl267	Cl	-0.113662	1.545483	0.436186
H268	H	-0.270659	0.899697	-0.940245
H269	H	0.062674	1.233030	-0.606912
H270	H	0.396007	1.566363	-0.273578
H271	H	-0.270629	0.899719	-1.068490
H272	H	0.062705	1.233053	-0.735156
H273	H	0.396038	1.566386	-0.401823
