data_functionalizedCrystal
_audit_creation_method	'MofGen! by Chris Wilmer'
_symmetry_space_group_name_H-M	'P1'
_symmetry_Int_Tables_number	1
_symmetry_cell_setting	triclinic
loop_
_symmetry_equiv_pos_as_xyz
  x,y,z
_cell_length_a	14.395555
_cell_length_b	23.196402
_cell_length_c	14.395555
_cell_angle_alpha	59.998855
_cell_angle_beta	89.999455
_cell_angle_gamma	60.000171
loop_
_atom_site_label
_atom_site_type_symbol
_atom_site_fract_x
_atom_site_fract_y
_atom_site_fract_z
Zr1	Zr	0.894944	0.630976	-0.121817
O2	O	0.746622	0.751250	-0.270147
O3	O	0.940409	0.510708	-0.076352
O4	O	0.940418	0.630979	-0.270145
O5	O	0.746610	0.630975	0.076520
O6	O	1.093292	0.630975	-0.270137
O7	O	0.746613	0.630979	-0.076354
O8	O	1.093277	0.415832	0.076524
O9	O	0.746626	0.846117	-0.270140
O10	O	1.073892	0.560171	-0.056948
O11	O	0.959802	0.560171	0.057134
O12	O	0.959812	0.701774	-0.171033
O13	O	0.845722	0.701774	-0.056951
Zr14	Zr	1.138757	0.630962	0.122012
Zr15	Zr	1.138761	0.630969	-0.121804
Zr16	Zr	0.894940	0.630969	0.122000
Zr17	Zr	0.894951	0.782279	-0.121807
Zr18	Zr	1.138750	0.479660	0.122002
O19	O	1.093291	0.751230	0.076547
O20	O	1.093297	0.751240	-0.270129
O21	O	0.746616	0.751240	0.076529
O22	O	1.287079	0.510689	0.270342
O23	O	1.287085	0.510699	-0.076333
O24	O	0.940403	0.510699	0.270324
O25	O	1.287090	0.630964	-0.076325
O26	O	1.093283	0.630960	0.270340
O27	O	0.940409	0.630964	0.270332
O28	O	1.287088	0.630960	0.076549
O29	O	0.940428	0.846112	-0.270130
O30	O	1.093273	0.415827	0.270326
O31	O	1.287075	0.415822	0.270336
O32	O	1.287078	0.415827	0.076534
O33	O	0.746623	0.846112	-0.076339
O34	O	0.940424	0.846106	-0.076328
O35	O	1.073888	0.560164	0.171228
O36	O	1.187979	0.560164	0.057146
O37	O	1.073899	0.701768	-0.056938
O38	O	0.959808	0.701768	0.057144
C39	C	1.016842	0.441713	0.000085
C40	C	1.016839	0.377481	0.000080
C41	C	1.076385	0.347311	-0.059474
C42	C	1.076396	0.286950	-0.059465
C43	C	1.016839	0.256773	0.000083
C44	C	0.957290	0.286947	0.059650
C45	C	0.957290	0.347301	0.059649
C46	C	0.917087	0.194747	-0.008421
C47	C	0.917083	0.134397	-0.008428
C48	C	1.016840	0.070618	0.000095
C49	C	1.116600	0.067203	0.008601
C50	C	1.116600	0.127558	0.008599
C51	C	1.016833	0.191329	0.000092
C52	C	1.076404	-0.025003	-0.059452
C53	C	1.076418	-0.085369	-0.059435
C54	C	0.957301	-0.085364	0.059672
C55	C	0.957298	-0.025006	0.059663
C56	C	1.016847	0.005174	0.000094
C57	C	0.711873	0.630978	0.000082
C58	C	0.608367	0.630981	0.000076
C59	C	0.485576	0.708189	-0.062118
C60	C	0.454740	0.669594	-0.107197
C61	C	0.454780	0.669572	0.045147
C62	C	0.578894	0.592386	-0.045066
C63	C	0.578930	0.592375	0.107338
C64	C	0.548167	0.553724	0.062285
C65	C	1.321828	0.630961	0.000114
C66	C	1.425334	0.630958	0.000119
C67	C	1.016856	0.630978	-0.304880
C68	C	1.016858	0.630981	-0.408386
C69	C	1.016859	0.820226	0.000111
C70	C	1.016862	0.884457	0.000115
C71	C	0.954644	0.708189	-0.531179
C72	C	1.061911	0.669590	-0.562015
C73	C	0.909596	0.669576	-0.561973
C74	C	1.124188	0.592382	-0.437859
C75	C	0.971796	0.592379	-0.437820
C76	C	1.079127	0.553724	-0.468583
C77	C	1.016845	0.630961	0.305075
C78	C	1.016843	0.630958	0.408582
C79	C	1.321819	0.441704	0.000101
C80	C	1.425323	0.377470	0.000102
C81	C	1.016837	0.441704	0.305062
C82	C	1.016832	0.377470	0.408564
C83	C	1.321814	0.441696	0.305078
C84	C	1.425316	0.377458	0.408586
C85	C	0.711887	0.820243	-0.304883
C86	C	0.608385	0.884480	-0.408390
C87	C	0.711881	0.820234	0.000095
C88	C	0.608378	0.884469	0.000094
C89	C	1.016864	0.820234	-0.304866
C90	C	1.016869	0.884469	-0.408369
C91	C	1.414378	0.347308	-0.059464
C92	C	1.511621	0.286961	-0.059486
C93	C	1.619809	0.256773	0.000066
C94	C	1.630752	0.286941	0.059633
C95	C	1.533510	0.347291	0.059648
C96	C	1.076382	0.347301	0.516736
C97	C	1.076373	0.286954	0.613996
C98	C	1.016821	0.256773	0.603083
C99	C	0.957264	0.286947	0.494899
C100	C	0.957266	0.347297	0.397641
C101	C	1.533486	0.347292	0.397644
C102	C	1.630746	0.286942	0.494891
C103	C	1.619834	0.256756	0.603079
C104	C	1.511653	0.286929	0.614018
C105	C	1.414395	0.347281	0.516772
C106	C	0.500215	0.914654	-0.397449
C107	C	0.402955	0.975023	-0.494696
C108	C	0.413867	1.005212	-0.602883
C109	C	0.522048	0.975035	-0.613823
C110	C	0.619306	0.914672	-0.516577
C111	C	0.619323	0.914637	0.059649
C112	C	0.522080	0.975001	0.059644
C113	C	0.413892	1.005191	0.000089
C114	C	0.402949	0.975020	-0.059474
C115	C	0.500191	0.914662	-0.059475
C116	C	1.076433	0.914631	-0.397418
C117	C	1.076459	0.974978	-0.494660
C118	C	1.016915	1.005167	-0.602851
C119	C	0.957349	0.974998	-0.613799
C120	C	0.957330	0.914648	-0.516559
H121	H	1.124896	-0.000433	-0.107952
N122	N	0.309008	1.070288	0.000097
H123	H	0.308975	1.120365	-0.033788
H124	H	0.309037	1.049204	0.080782
N125	N	1.499892	0.254366	0.730709
H126	H	1.577924	0.211554	0.790644
H127	H	1.456897	0.229363	0.739721
N128	N	1.140630	0.254413	0.730665
H129	H	1.200554	0.193827	0.773673
H130	H	1.085947	0.264977	0.773587
N131	N	0.789447	0.712814	-0.632828
H132	H	0.782695	0.673805	-0.639990
H133	H	0.770373	0.760696	-0.710970
N134	N	0.308955	1.070310	-0.707758
H135	H	0.308898	1.049310	-0.754570
H136	H	0.308956	1.120377	-0.754484
N137	N	1.545262	0.379852	0.280960
H138	H	1.507574	0.369349	0.237950
H139	H	1.628570	0.351569	0.288889
N140	N	0.533902	1.007543	0.123874
H141	H	0.455889	1.050371	0.114829
H142	H	0.576925	1.032522	0.092590
H143	H	1.326322	0.371835	0.525697
N144	N	1.140637	0.379843	-0.123695
H145	H	1.131608	0.422654	-0.114658
H146	H	1.109376	0.404840	-0.206979
N147	N	1.016825	0.191680	0.707987
H148	H	1.063593	0.177150	0.778167
H149	H	1.050694	0.141638	0.707937
H150	H	1.131807	0.488383	-0.442928
H151	H	1.718823	0.262382	0.485964
N152	N	0.286258	1.007573	-0.123683
H153	H	0.226326	1.050379	-0.114626
H154	H	0.277258	0.961473	-0.092393
N155	N	0.533799	1.007600	-0.730517
H156	H	0.576746	0.961558	-0.739641
H157	H	0.576729	1.032653	-0.739570
N158	N	0.488377	0.882126	-0.123712
H159	H	0.405083	0.910413	-0.161434
H160	H	0.526118	0.821541	-0.069034
N161	N	0.451899	0.794662	-0.131877
H162	H	0.366218	0.833889	-0.164110
H163	H	0.484172	0.803740	-0.196184
H164	H	0.401225	0.702228	-0.197890
N165	N	1.545328	0.379818	0.123897
H166	H	1.467316	0.422635	0.114874
H167	H	1.588338	0.404809	0.092617
H168	H	0.314879	0.999582	-0.485767
H169	H	0.902125	0.773476	-0.556620
H170	H	0.573821	0.488383	0.114887
H171	H	0.908778	0.262365	0.486030
H172	H	0.908869	0.999587	-0.701902
N173	N	1.140621	0.379844	0.528524
H174	H	1.178335	0.351570	0.611815
H175	H	1.085941	0.440431	0.490763
N176	N	1.747449	0.254363	0.123869
H177	H	1.756566	0.229311	0.207182
H178	H	1.756517	0.300432	0.092561
H179	H	1.326294	0.371886	-0.107972
H180	H	0.491309	0.890078	-0.309366
N181	N	0.892966	0.379876	0.280971
H182	H	0.855223	0.351608	0.288827
H183	H	0.947590	0.369397	0.237966
N184	N	0.893047	0.379854	0.123871
H185	H	0.902081	0.422669	0.114830
H186	H	0.924315	0.333762	0.207156
H187	H	1.100021	0.702221	-0.615536
H188	H	1.699037	0.207613	0.682253
H189	H	1.502689	0.262405	-0.107992
H190	H	0.707380	0.890105	-0.525499
N191	N	1.140659	0.882079	-0.280734
H192	H	1.178395	0.910349	-0.288570
H193	H	1.200522	0.821492	-0.237791
N194	N	0.649561	0.549194	-0.095674
H195	H	0.719480	0.549491	-0.095410
H196	H	0.603067	0.578157	-0.176426
H197	H	1.197835	0.015267	0.015555
N198	N	0.736003	0.882083	0.123887
H199	H	0.728164	0.910364	0.161604
H200	H	0.778948	0.892585	0.069204
N201	N	1.140710	1.007507	-0.482837
H202	H	1.178416	0.979227	-0.399541
H203	H	1.086041	1.068095	-0.520595
H204	H	0.908821	0.890097	-0.525491
N205	N	1.140614	0.254397	-0.123702
H206	H	1.223926	0.229355	-0.092476
H207	H	1.109279	0.300482	-0.207000
N208	N	1.140652	-0.117917	-0.123665
H209	H	1.178370	-0.089636	-0.161401
H210	H	1.085969	-0.107416	-0.183529
N211	N	1.224197	0.123866	0.017788
H212	H	1.246479	0.120182	0.088075
H213	H	1.210728	0.174644	-0.051790
N214	N	0.893073	-0.117910	0.123911
H215	H	0.902110	-0.160725	0.114880
H216	H	0.809790	-0.071816	0.092642
H217	H	0.632442	0.559769	0.198011
N218	N	1.016953	1.070251	-0.707728
H219	H	1.063727	1.084773	-0.684363
H220	H	0.936274	1.120299	-0.754507
H221	H	0.835852	0.137186	-0.015360
N222	N	0.893072	0.007540	0.123896
H223	H	0.855345	-0.020735	0.161623
H224	H	0.833203	0.068127	0.069216
N225	N	0.921276	0.549195	-0.366937
H226	H	0.852573	0.587931	-0.358540
H227	H	0.979840	0.500680	-0.289285
N228	N	0.809486	0.263535	-0.017610
H229	H	0.746289	0.256545	-0.023008
H230	H	0.787302	0.317268	-0.087891
H231	H	0.908799	0.262373	0.108135
H232	H	0.401275	0.702217	0.083247
N233	N	1.244388	0.549211	-0.367204
H234	H	1.263940	0.500988	-0.289221
H235	H	1.250841	0.588162	-0.359586
N236	N	1.724687	0.191682	0.000043
H237	H	1.701326	0.177158	-0.046730
H238	H	1.771453	0.141637	0.080727
