data_functionalizedCrystal
_audit_creation_method	'MofGen! by Chris Wilmer'
_symmetry_space_group_name_H-M	'P1'
_symmetry_Int_Tables_number	1
_symmetry_cell_setting	triclinic
loop_
_symmetry_equiv_pos_as_xyz
  x,y,z
_cell_length_a	19.377372
_cell_length_b	19.379189
_cell_length_c	14.628931
_cell_angle_alpha	52.484454
_cell_angle_beta	89.999623
_cell_angle_gamma	62.432560
loop_
_atom_site_label
_atom_site_type_symbol
_atom_site_fract_x
_atom_site_fract_y
_atom_site_fract_z
Zr1	Zr	0.316730	1.207664	-0.593924
O2	O	0.190322	1.345816	-0.755982
O3	O	0.382895	1.039830	-0.509137
O4	O	0.343363	1.220785	-0.750470
O5	O	0.229854	1.164861	-0.364217
O6	O	0.432900	1.264899	-0.786059
O7	O	0.229854	1.164861	-0.514649
O8	O	0.503616	0.941204	-0.354358
O9	O	0.159138	1.488557	-0.795918
O10	O	0.444814	1.152778	-0.541952
O11	O	0.377993	1.119856	-0.403127
O12	O	0.331449	1.332907	-0.687266
O13	O	0.264628	1.299986	-0.548441
Zr14	Zr	0.459532	1.278022	-0.410763
Zr15	Zr	0.459532	1.278021	-0.650684
Zr16	Zr	0.316730	1.207664	-0.354003
Zr17	Zr	0.266996	1.435319	-0.657618
Zr18	Zr	0.509266	1.050366	-0.347070
O19	O	0.393367	1.445856	-0.495550
O20	O	0.393368	1.445855	-0.836687
O21	O	0.190321	1.345817	-0.414845
O22	O	0.585940	1.139870	-0.248706
O23	O	0.585941	1.139869	-0.589842
O24	O	0.382894	1.039831	-0.168000
O25	O	0.546408	1.320824	-0.640470
O26	O	0.432899	1.264900	-0.254217
O27	O	0.343362	1.220786	-0.218628
O28	O	0.546408	1.320825	-0.490039
O29	O	0.272646	1.544481	-0.841034
O30	O	0.503616	0.941204	-0.163653
O31	O	0.617124	0.997129	-0.208770
O32	O	0.617124	0.997128	-0.399475
O33	O	0.159138	1.488557	-0.605212
O34	O	0.272646	1.544482	-0.650329
O35	O	0.444813	1.152778	-0.317421
O36	O	0.511634	1.185700	-0.456246
O37	O	0.398269	1.365829	-0.601560
O38	O	0.331448	1.332908	-0.462735
C39	C	0.450341	0.958081	-0.422673
C40	C	0.471455	0.861435	-0.395633
C41	C	0.208508	0.814829	-0.732596
C42	C	0.228388	0.723950	-0.707055
C43	C	0.361374	0.615394	-0.536551
C44	C	0.341503	0.706263	-0.562074
C45	C	0.265069	0.805976	-0.660099
C46	C	0.398064	0.697411	-0.489578
C47	C	0.378196	0.788274	-0.515103
C48	C	0.301767	0.887990	-0.613126
C49	C	0.245201	0.896839	-0.685625
C50	C	0.474500	0.597699	-0.391559
C51	C	0.531061	0.588846	-0.319062
C52	C	0.511191	0.679709	-0.344582
C53	C	0.434762	0.779424	-0.442604
C54	C	0.567756	0.670859	-0.272083
C55	C	0.547889	0.761722	-0.297608
C56	C	0.414894	0.870288	-0.468130
C57	C	0.209508	1.154837	-0.431346
C58	C	0.148885	1.124968	-0.407250
C59	C	-0.346367	1.496852	-0.707260
C60	C	-0.403316	1.468762	-0.684597
C61	C	-0.284962	1.280720	-0.532901
C62	C	-0.228002	1.308795	-0.555547
C63	C	-0.258711	1.416863	-0.642729
C64	C	-0.140346	1.228806	-0.491016
C65	C	-0.083391	1.256879	-0.513665
C66	C	-0.114091	1.364942	-0.600845
C67	C	-0.201756	1.444936	-0.665378
C68	C	-0.109638	1.120739	-0.403840
C69	C	-0.021982	1.040749	-0.339309
C70	C	0.034974	1.068822	-0.361951
C71	C	0.004274	1.176884	-0.449132
C72	C	0.122639	0.988827	-0.297418
C73	C	0.179594	1.016900	-0.320067
C74	C	0.061229	1.204958	-0.471781
C75	C	0.566754	1.330849	-0.573342
C76	C	0.627377	1.360717	-0.597438
C77	C	0.388131	1.242842	-0.802448
C78	C	0.388132	1.242842	-0.904301
C79	C	0.325920	1.527605	-0.582014
C80	C	0.304807	1.624250	-0.609054
C81	C	0.331895	1.332198	-1.021796
C82	C	0.331894	1.332200	-1.127068
C83	C	0.388131	1.242843	-0.202239
C84	C	0.388130	1.242844	-0.100386
C85	C	0.628965	1.046087	-0.493671
C86	C	0.710701	0.979310	-0.490727
C87	C	0.450341	0.958082	-0.122568
C88	C	0.471454	0.861436	0.006324
C89	C	0.628964	1.046088	-0.193566
C90	C	0.710701	0.979311	-0.088770
C91	C	0.147298	1.439598	-0.811121
C92	C	0.065561	1.506375	-0.915917
C93	C	0.147297	1.439599	-0.511017
C94	C	0.065560	1.506376	-0.513960
C95	C	0.325921	1.527604	-0.882119
C96	C	0.304807	1.624249	-1.011011
C97	C	0.714206	0.930765	-0.534093
C98	C	0.790998	0.868031	-0.531351
C99	C	0.864286	0.853836	-0.485235
C100	C	0.860778	0.902389	-0.441869
C101	C	0.783986	0.965128	-0.444620
C102	C	0.516249	0.833236	0.111601
C103	C	0.536082	0.742439	0.232716
C104	C	0.511125	0.679839	0.248551
C105	C	0.466324	0.708047	0.143262
C106	C	0.446487	0.798846	0.022150
C107	C	0.783971	0.965139	-0.112024
C108	C	0.860774	0.902411	-0.013572
C109	C	0.864306	0.853848	0.108136
C110	C	0.791027	0.868025	0.131388
C111	C	0.714225	0.930759	0.032935
C112	C	-0.007712	1.520557	-0.892666
C113	C	-0.084521	1.583314	-0.991127
C114	C	-0.088054	1.631881	-1.112835
C115	C	-0.014774	1.617698	-1.136086
C116	C	0.062032	1.554949	-1.037628
C117	C	0.062054	1.554930	-0.470607
C118	C	-0.014744	1.617689	-0.473383
C119	C	-0.088032	1.631887	-0.519503
C120	C	-0.084523	1.583330	-0.562863
C121	C	-0.007728	1.520578	-0.560095
C122	C	0.329778	1.686823	-1.026805
C123	C	0.309955	1.777626	-1.147906
C124	C	0.265157	1.805858	-1.253211
C125	C	0.240187	1.743274	-1.237412
C126	C	0.260015	1.652469	-1.116313
H127	H	0.182947	0.978027	-0.765418
Br128	Br	0.960211	0.883183	-0.045155
Br129	Br	0.161504	1.535681	-0.408013
H130	H	0.283753	1.408699	-1.044452
H131	H	-0.144206	1.594900	-0.600413
Br132	Br	0.104770	0.950158	-0.865620
H133	H	-0.371375	1.584852	-0.778220
Br134	Br	-0.002982	1.454683	-0.618930
Br135	Br	0.251635	1.459712	-1.295015
H136	H	0.330290	1.828573	-1.160746
H137	H	0.203710	1.766275	-1.323169
Br138	Br	0.465103	0.480067	-0.403525
H139	H	0.239675	1.601528	-1.103470
H140	H	0.285594	0.961975	-0.633910
H141	H	-0.156018	1.097885	-0.385410
H142	H	0.352640	0.951475	-0.547923
Br143	Br	0.468379	1.115321	-0.932437
H144	H	0.793839	0.828504	-0.566663
H145	H	0.654538	0.942323	-0.571662
H146	H	-0.017585	1.657215	-0.438069
H147	H	0.527284	0.605907	0.347175
Br148	Br	0.968499	0.768685	-0.481510
Br149	Br	0.151623	0.735976	-0.805466
Br150	Br	0.019685	0.894091	-0.220999
Br151	Br	0.550135	0.918170	0.090145
Br152	Br	0.968546	0.768712	0.241739
H153	H	0.446008	0.657065	0.156175
Br154	Br	0.795835	0.802112	0.296570
H155	H	0.410015	0.821795	-0.063564
H156	H	0.593946	0.754511	-0.238572
Br157	Br	0.779245	1.030998	-0.385752
Br158	Br	0.634790	0.453519	-0.186036
Br159	Br	0.671490	0.535533	-0.139068
Br160	Br	0.238252	1.929100	-1.417554
Br161	Br	0.596884	0.704177	0.375586
Br162	Br	0.019558	1.351623	-0.590083
Br163	Br	0.960249	0.883110	-0.379282
Br164	Br	0.779199	1.031041	-0.277190
H165	H	0.436279	1.166343	-0.881646
H166	H	0.250969	0.951765	-0.267501
Br167	Br	-0.002938	1.454652	-0.727500
Br168	Br	-0.243427	1.591601	-0.783681
H169	H	0.490683	0.523720	-0.370800
Br170	Br	-0.192249	1.717055	-0.523250
H171	H	0.654570	0.942285	0.051888
Br172	Br	-0.183959	1.602545	-0.959544
Br173	Br	-0.192299	1.717040	-1.246445
H174	H	0.366254	1.663853	-0.941075
H175	H	-0.017661	1.657250	-1.235192
Br176	Br	-0.522284	1.577332	-0.772202
H177	H	0.121692	1.543403	-1.056573
H178	H	-0.067712	1.387796	-0.619287
H179	H	-0.259969	1.192732	-0.461920
H180	H	0.147631	0.900839	-0.226444
