data_functionalizedCrystal
_audit_creation_method	'MofGen! by Chris Wilmer'
_symmetry_space_group_name_H-M	'P1'
_symmetry_Int_Tables_number	1
_symmetry_cell_setting	triclinic
loop_
_symmetry_equiv_pos_as_xyz
  x,y,z
_cell_length_a	16.120530
_cell_length_b	18.215405
_cell_length_c	18.215399
_cell_angle_alpha	90.030551
_cell_angle_beta	92.916648
_cell_angle_gamma	87.120245
loop_
_atom_site_label
_atom_site_type_symbol
_atom_site_fract_x
_atom_site_fract_y
_atom_site_fract_z
Zn1	Zn	1.274537	-0.350119	0.473077
Zn2	Zn	1.274433	-0.473185	0.350000
Zn3	Zn	1.135120	-0.343893	0.343792
Zn4	Zn	1.135081	-0.466897	0.466796
O5	O	1.204793	-0.408524	0.408416
O6	O	1.391189	-0.371681	0.461977
O7	O	1.255925	-0.456060	0.246191
O8	O	1.153673	-0.241737	0.360972
O9	O	1.391112	-0.462097	0.371553
O10	O	1.256102	-0.246311	0.455957
O11	O	1.153573	-0.361070	0.241630
O12	O	1.018449	-0.354973	0.354882
O13	O	1.153608	-0.451381	0.570615
O14	O	1.018421	-0.445344	0.445252
O15	O	1.256065	-0.365584	0.575229
O16	O	1.255888	-0.575333	0.365463
O17	O	1.153507	-0.570713	0.451272
C18	C	1.204705	-0.599726	0.408377
C19	C	1.204743	-0.681527	0.408388
C20	C	0.988185	-0.398801	0.398712
C21	C	0.895519	-0.394659	0.394578
C22	C	1.258178	-0.872107	0.363799
C23	C	1.258216	-0.948968	0.363819
C24	C	1.151514	-0.944193	0.453091
C25	C	1.151481	-0.867334	0.453075
C26	C	1.204812	-0.831293	0.408425
C27	C	1.204882	-0.985012	0.408460
C28	C	1.204922	-1.068348	0.408482
C29	C	1.204774	-0.747952	0.408404
C30	C	0.725858	-0.387080	0.387037
C31	C	0.684568	-0.430021	0.429849
C32	C	0.590163	-0.425804	0.425653
C33	C	0.820272	-0.391296	0.391232
C34	C	1.422246	-0.418285	0.418158
C35	C	1.514912	-0.422445	0.422310
C36	C	1.204843	-0.408475	0.600371
C37	C	1.204865	-0.408455	0.682171
C38	C	1.204904	-0.216576	0.408473
C39	C	1.204951	-0.134779	0.408497
C40	C	1.204790	-0.408521	0.217210
C41	C	1.204930	-0.408342	0.135418
C42	C	1.258234	-0.363737	0.872770
C43	C	1.258244	-0.363716	0.949629
C44	C	1.151555	-0.453061	0.944813
C45	C	1.151542	-0.453077	0.867955
C46	C	1.204886	-0.408417	0.831936
C47	C	1.204909	-0.408379	0.985653
C48	C	1.204920	-0.408357	1.068987
C49	C	1.204875	-0.408438	0.748596
H50	H	1.301605	-0.842765	0.327444
Cl51	Cl	0.739454	-0.491666	0.491308
H52	H	1.301673	-0.982195	0.327482
H53	H	1.301684	-0.327332	0.982874
Cl54	Cl	1.325291	-0.307589	0.827491
Cl55	Cl	1.084392	-0.816021	0.509184
Cl56	Cl	1.084470	-0.989507	0.509216
Cl57	Cl	0.670971	-0.325436	0.325586
Cl58	Cl	1.084503	-0.509207	0.990100
Cl59	Cl	1.084465	-0.509247	0.816616
