data_functionalizedCrystal
_audit_creation_method	'MofGen! by Chris Wilmer'
_symmetry_space_group_name_H-M	'P1'
_symmetry_Int_Tables_number	1
_symmetry_cell_setting	triclinic
loop_
_symmetry_equiv_pos_as_xyz
  x,y,z
_cell_length_a	16.625548
_cell_length_b	19.120786
_cell_length_c	16.625539
_cell_angle_alpha	92.471374
_cell_angle_beta	90.020568
_cell_angle_gamma	92.466188
loop_
_atom_site_label
_atom_site_type_symbol
_atom_site_fract_x
_atom_site_fract_y
_atom_site_fract_z
Zn1	Zn	1.218970	-0.279609	0.442197
Zn2	Zn	1.718970	0.220391	0.942197
Zn3	Zn	1.213114	-0.397074	0.301603
Zn4	Zn	1.713114	0.102926	0.801603
Zn5	Zn	1.084131	-0.279636	0.307376
Zn6	Zn	1.584131	0.220364	0.807376
Zn7	Zn	1.078345	-0.397034	0.436395
Zn8	Zn	1.578345	0.102966	0.936395
O9	O	1.148640	-0.338338	0.371893
O10	O	1.648640	0.161662	0.871893
O11	O	1.331025	-0.295197	0.423559
O12	O	1.831025	0.204803	0.923559
O13	O	1.195974	-0.381524	0.189535
O14	O	1.695974	0.118476	0.689535
O15	O	1.106890	-0.181342	0.330104
O16	O	1.606890	0.318658	0.830104
O17	O	1.326723	-0.381498	0.320265
O18	O	1.826723	0.118502	0.820265
O19	O	1.205956	-0.181323	0.429156
O20	O	1.705956	0.318677	0.929156
O21	O	1.101211	-0.295243	0.193776
O22	O	1.601211	0.204757	0.693776
O23	O	0.970531	-0.295204	0.324478
O24	O	1.470531	0.204796	0.824478
O25	O	1.097028	-0.381429	0.549998
O26	O	1.597028	0.118571	1.049998
O27	O	0.966280	-0.381455	0.419268
O28	O	1.466280	0.118545	0.919268
O29	O	1.200345	-0.295158	0.554261
O30	O	1.700345	0.204842	1.054261
O31	O	1.190364	-0.495359	0.314640
O32	O	1.690364	0.004641	0.814640
O33	O	1.091350	-0.495329	0.413671
O34	O	1.591350	0.004671	0.913671
C35	C	0.939149	-0.338328	0.371871
C36	C	1.439149	0.161672	0.871871
C37	C	0.849528	-0.338341	0.371879
C38	C	1.349528	0.161659	0.871879
C39	C	0.521352	-0.338345	0.371914
C40	C	1.021352	0.161655	0.871914
C41	C	0.612660	-0.338342	0.371902
C42	C	1.112660	0.161658	0.871902
C43	C	0.685437	-0.338344	0.371896
C44	C	1.185437	0.161656	0.871896
C45	C	0.776751	-0.338340	0.371885
C46	C	1.276751	0.161660	0.871885
C47	C	1.139615	-0.520830	0.362917
C48	C	1.639615	-0.020830	0.862917
C49	C	1.135828	-0.598901	0.359104
C50	C	1.635828	-0.098901	0.859104
C51	C	1.185589	-0.635508	0.408925
C52	C	1.685589	-0.135508	0.908925
C53	C	1.182027	-0.708863	0.405344
C54	C	1.682027	-0.208863	0.905344
C55	C	1.128709	-0.745611	0.351936
C56	C	1.628709	-0.245611	0.851936
C57	C	1.078942	-0.708998	0.302113
C58	C	1.578942	-0.208998	0.802113
C59	C	1.082500	-0.635644	0.305699
C60	C	1.582500	-0.135644	0.805699
C61	C	1.115383	-0.967097	0.338531
C62	C	1.615383	-0.467097	0.838531
C63	C	1.111831	-1.040456	0.334947
C64	C	1.611831	-0.540456	0.834947
C65	C	1.214915	-1.040316	0.438180
C66	C	1.714915	-0.540316	0.938180
C67	C	1.218472	-0.966960	0.441758
C68	C	1.718472	-0.466960	0.941758
C69	C	1.168703	-0.930355	0.391937
C70	C	1.668703	-0.430355	0.891937
C71	C	1.125069	-0.820592	0.348273
C72	C	1.625069	-0.320592	0.848273
C73	C	1.172339	-0.855375	0.395605
C74	C	1.672339	-0.355375	0.895605
C75	C	1.358948	-0.338349	0.371915
C76	C	1.858948	0.161651	0.871915
C77	C	1.448569	-0.338353	0.371925
C78	C	1.948569	0.161647	0.871925
C79	C	1.148695	-0.338286	0.582204
C80	C	1.648695	0.161714	1.082204
C81	C	1.148718	-0.338264	0.671826
C82	C	1.648718	0.161736	1.171826
C83	C	1.157722	-0.155134	0.380921
C84	C	1.657722	0.344866	0.880921
C85	C	1.161592	-0.077063	0.384769
C86	C	1.661592	0.422937	0.884769
C87	C	1.148634	-0.338340	0.162402
C88	C	1.648634	0.161660	0.662402
C89	C	1.148776	-0.338164	0.072790
C90	C	1.648776	0.161836	0.572790
C91	C	1.148759	-0.338185	1.000006
C92	C	1.648759	0.161815	1.500006
C93	C	1.148745	-0.338209	0.908696
C94	C	1.648745	0.161791	1.408696
C95	C	1.148739	-0.338225	0.835919
C96	C	1.648739	0.161775	1.335919
C97	C	1.148724	-0.338248	0.744604
C98	C	1.648724	0.161752	1.244604
H99	H	1.229010	-0.605593	0.452412
H100	H	1.729010	-0.105593	0.952412
H101	H	1.255434	-1.070129	0.478742
H102	H	1.755434	-0.570129	0.978742
O103	O	1.066959	-0.931516	0.290247
O104	O	1.566959	-0.431516	0.790247
C105	C	0.962139	-0.848766	0.283328
C106	C	1.462139	-0.348766	0.783328
C107	C	1.016920	-0.889032	0.338108
C108	C	1.516920	-0.389032	0.838108
H109	H	0.921681	-0.814397	0.322002
H110	H	1.421681	-0.314397	0.822002
H111	H	0.923369	-0.887605	0.244557
H112	H	1.423369	-0.387605	0.744557
H113	H	1.000860	-0.814449	0.242861
H114	H	1.500860	-0.314449	0.742861
H115	H	0.978262	-0.923350	0.378624
H116	H	1.478262	-0.423350	0.878624
H117	H	1.055694	-0.850155	0.376825
H118	H	1.555694	-0.350155	0.876825
H119	H	1.068408	-1.070374	0.291455
H120	H	1.568408	-0.570374	0.791455
H121	H	1.222554	-0.738666	0.445908
H122	H	1.722554	-0.238666	0.945908
O123	O	1.027105	-0.744770	0.250340
O124	O	1.527105	-0.244770	0.750340
C125	C	0.914202	-0.827649	0.235339
C126	C	1.414202	-0.327649	0.735339
C127	C	0.972864	-0.787196	0.294063
C128	C	1.472864	-0.287196	0.794063
H129	H	0.870322	-0.861949	0.270667
H130	H	1.370322	-0.361949	0.770667
H131	H	0.949534	-0.862032	0.191545
H132	H	1.449534	-0.362032	0.691545
H133	H	0.879284	-0.788870	0.200329
H134	H	1.379284	-0.288870	0.700329
H135	H	1.007797	-0.825925	0.329128
H136	H	1.507797	-0.325925	0.829128
H137	H	0.937486	-0.752802	0.337805
H138	H	1.437486	-0.252802	0.837805
H139	H	1.081659	-0.850520	0.304786
H140	H	1.581659	-0.350520	0.804786
H141	H	1.261888	-0.937042	0.485246
H142	H	1.761888	-0.437042	0.985246
O143	O	1.034080	-0.600049	0.257418
O144	O	1.534080	-0.100049	0.757418
C145	C	0.929272	-0.517286	0.250524
C146	C	1.429272	-0.017286	0.750524
C147	C	0.984051	-0.557565	0.305292
C148	C	1.484051	-0.057565	0.805292
H149	H	0.888821	-0.482917	0.289207
H150	H	1.388821	0.017083	0.789207
H151	H	0.890494	-0.556116	0.211749
H152	H	1.390494	-0.056116	0.711749
H153	H	0.967994	-0.482967	0.210059
H154	H	1.467994	0.017033	0.710059
H155	H	0.945391	-0.591884	0.345805
H156	H	1.445391	-0.091884	0.845805
H157	H	1.022833	-0.518697	0.344011
H158	H	1.522833	-0.018697	0.844011
H159	H	1.215749	-0.825453	0.439093
H160	H	1.715749	-0.325453	0.939093
