data_functionalizedCrystal
_audit_creation_method	'MofGen! by Chris Wilmer'
_symmetry_space_group_name_H-M	'P1'
_symmetry_Int_Tables_number	1
_symmetry_cell_setting	triclinic
loop_
_symmetry_equiv_pos_as_xyz
  x,y,z
_cell_length_a	23.096457
_cell_length_b	23.096457
_cell_length_c	18.760492
_cell_angle_alpha	59.999917
_cell_angle_beta	89.995950
_cell_angle_gamma	59.998275
loop_
_atom_site_label
_atom_site_type_symbol
_atom_site_fract_x
_atom_site_fract_y
_atom_site_fract_z
Zr1	Zr	0.557755	0.633761	-0.093553
O2	O	0.465308	0.754549	-0.207362
O3	O	0.586096	0.512971	-0.058666
O4	O	0.586099	0.633761	-0.207370
O5	O	0.465301	0.633759	0.058645
O6	O	0.681379	0.633763	-0.207374
O7	O	0.465305	0.633759	-0.058658
O8	O	0.681375	0.417691	0.058630
O9	O	0.465306	0.849830	-0.207360
O10	O	0.669288	0.562655	-0.043788
O11	O	0.598179	0.562654	0.043757
O12	O	0.598182	0.704869	-0.131323
O13	O	0.527072	0.704867	-0.043778
Zr14	Zr	0.709709	0.633763	0.093525
Zr15	Zr	0.709716	0.633763	-0.093559
Zr16	Zr	0.557748	0.633761	0.093532
Zr17	Zr	0.557751	0.785723	-0.093549
Zr18	Zr	0.709712	0.481801	0.093521
O19	O	0.681368	0.754553	0.058638
O20	O	0.681377	0.754553	-0.207372
O21	O	0.465298	0.754549	0.058648
O22	O	0.802156	0.512975	0.207334
O23	O	0.802166	0.512975	-0.058676
O24	O	0.586087	0.512971	0.207344
O25	O	0.802163	0.633765	-0.058673
O26	O	0.681365	0.633763	0.207342
O27	O	0.586085	0.633761	0.207347
O28	O	0.802159	0.633765	0.058630
O29	O	0.586095	0.849832	-0.207365
O30	O	0.681369	0.417692	0.207337
O31	O	0.802158	0.417694	0.207332
O32	O	0.802164	0.417694	0.058625
O33	O	0.465300	0.849830	-0.058653
O34	O	0.586089	0.849832	-0.058658
O35	O	0.669282	0.562655	0.131295
O36	O	0.740392	0.562656	0.043750
O37	O	0.669285	0.704870	-0.043785
O38	O	0.598176	0.704869	0.043760
C39	C	0.633736	0.443680	-0.000018
C40	C	0.633737	0.379168	-0.000020
C41	C	0.670852	-0.081350	-0.045697
C42	C	0.670850	-0.020730	-0.045705
C43	C	0.633733	0.009582	-0.000007
C44	C	0.596599	-0.020716	0.045684
C45	C	0.596596	-0.081329	0.045683
N46	N	0.638883	0.071976	0.074359
N47	N	0.638889	0.129555	0.074357
C48	C	0.633738	0.192208	-0.000005
N49	N	0.628594	0.195100	-0.074364
N50	N	0.628591	0.137513	-0.074361
C51	C	0.633731	0.075308	-0.000002
C52	C	0.670863	0.288234	-0.045706
C53	C	0.670856	0.348859	-0.045717
C54	C	0.596610	0.348866	0.045680
C55	C	0.596612	0.288248	0.045682
C56	C	0.633743	0.257933	-0.000009
C57	C	0.443652	0.633759	-0.000005
C58	C	0.379140	0.633758	-0.000002
C59	C	0.385951	0.559526	0.045682
C60	C	0.325336	0.559525	0.045685
C61	C	0.257910	0.633760	-0.000012
C62	C	0.251101	0.708001	-0.045698
C63	C	0.311716	0.708000	-0.045693
N64	N	0.135115	0.689016	-0.074384
N65	N	0.077536	0.689012	-0.074386
C66	C	0.075277	0.633767	-0.000027
N67	N	0.132779	0.578513	0.074334
N68	N	0.190365	0.578515	0.074335
C69	C	0.192178	0.633769	-0.000022
C70	C	0.016364	0.559529	0.045665
C71	C	-0.044254	0.559531	0.045671
C72	C	-0.118489	0.708009	-0.045721
C73	C	-0.057871	0.708005	-0.045719
C74	C	0.009553	0.633763	-0.000028
C75	C	0.823812	0.633765	-0.000022
C76	C	0.888324	0.633766	-0.000025
C77	C	0.633740	0.633762	-0.234028
C78	C	0.633743	0.633762	-0.313450
C79	C	0.633728	0.823844	-0.000009
C80	C	0.633727	0.888356	-0.000008
C81	C	0.670841	0.559525	-0.603571
C82	C	0.596605	0.707998	-0.694955
C83	C	0.596609	0.708000	-0.620335
C84	C	0.633730	0.633762	-0.537328
C85	C	0.670846	0.559524	-0.528943
C86	C	0.559489	0.782237	-0.628714
C87	C	0.559491	0.782241	-0.554091
C88	C	0.596616	0.708003	-0.471082
C89	C	0.633734	0.633761	-0.462699
C90	C	0.670854	0.559524	-0.379693
C91	C	0.707977	0.485282	-0.371308
C92	C	0.707971	0.485286	-0.445934
C93	C	0.596623	0.707999	-0.396456
C94	C	0.670859	0.559523	-0.305064
C95	C	0.633724	0.633762	0.234000
C96	C	0.633721	0.633762	0.313422
C97	C	0.823816	0.443683	-0.000027
C98	C	0.888329	0.379172	-0.000031
C99	C	0.633728	0.443680	0.233996
C100	C	0.633726	0.379168	0.313416
C101	C	0.823808	0.443683	0.233987
C102	C	0.888318	0.379172	0.313405
C103	C	0.443656	0.823841	-0.234015
C104	C	0.379146	0.888352	-0.313433
C105	C	0.443648	0.823841	-0.000001
C106	C	0.379135	0.888352	0.000003
C107	C	0.633736	0.823844	-0.234023
C108	C	0.633738	0.888356	-0.313444
C109	C	0.881510	0.348876	-0.045735
C110	C	0.942121	0.288270	-0.045757
C111	C	1.009550	0.257956	-0.000069
C112	C	1.016368	0.288258	0.045637
C113	C	0.955758	0.348867	0.045653
C114	C	0.670841	0.348873	0.396415
C115	C	0.670837	0.288266	0.471046
C116	C	0.633722	0.257950	0.462677
C117	C	0.596603	0.288251	0.379669
C118	C	0.596603	0.348861	0.305040
C119	C	0.955738	0.348878	0.305003
C120	C	1.016358	0.288271	0.379617
C121	C	1.009556	0.257956	0.462633
C122	C	0.942130	0.288257	0.471033
C123	C	0.881511	0.348866	0.396419
C124	C	0.311726	0.918653	-0.305030
C125	C	0.251106	0.979279	-0.379645
C126	C	0.257908	1.009597	-0.462660
C127	C	0.325334	0.979293	-0.471061
C128	C	0.385953	0.918673	-0.396447
C129	C	0.385954	0.918654	0.045700
C130	C	0.325343	0.979277	0.045701
C131	C	0.257914	1.009593	0.000010
C132	C	0.251096	0.979289	-0.045692
C133	C	0.311706	0.918671	-0.045697
C134	C	0.670860	0.918652	-0.305047
C135	C	0.670875	0.979260	-0.379664
C136	C	0.633763	1.009575	-0.462677
C137	C	0.596640	0.979272	-0.471073
C138	C	0.596630	0.918661	-0.396457
H139	H	0.566376	0.003970	0.082889
H140	H	0.440847	0.894001	-0.403299
N141	N	0.710918	1.011934	-0.370597
H142	H	0.734419	0.983534	-0.306685
H143	H	0.676843	1.072782	-0.399567
N144	N	0.178386	1.011955	-0.370581
H145	H	0.172711	1.037089	-0.337600
H146	H	0.172758	0.965667	-0.337648
H147	H	0.330882	0.499074	0.082888
N148	N	0.556583	0.885995	-0.405529
H149	H	0.504662	0.932253	-0.438498
H150	H	0.562256	0.842987	-0.345641
N151	N	0.519449	0.862300	-0.718239
H152	H	0.482102	0.865596	-0.751225
H153	H	0.553538	0.865562	-0.751172
H154	H	0.440847	0.499072	0.082881
N155	N	0.178365	1.011980	-0.094954
H156	H	0.172667	1.037137	-0.158884
H157	H	0.141057	1.054940	-0.087932
N158	N	0.710903	0.885953	-0.215518
H159	H	0.705271	0.842956	-0.169514
H160	H	0.691423	0.932242	-0.208599
H161	H	0.701083	0.003941	-0.082912
N162	N	1.089079	0.255586	0.370555
H163	H	1.094754	0.301835	0.337577
H164	H	1.094708	0.230422	0.337619
H165	H	0.936603	0.263565	0.538634
H166	H	0.208542	1.058957	-0.523408
H167	H	0.566384	0.263579	0.082891
N168	N	0.556557	-0.114012	0.094969
H169	H	0.533041	-0.085613	0.123918
H170	H	0.590640	-0.174859	0.140909
N171	N	1.089098	0.255559	0.094911
H172	H	1.126453	0.212564	0.087963
H173	H	1.094717	0.230446	0.158818
N174	N	0.332661	1.011991	-0.560603
H175	H	0.384569	0.983600	-0.554613
H176	H	0.309127	1.072839	-0.593549
H177	H	-0.173387	0.768453	-0.082929
N178	N	0.710906	0.255534	-0.094987
H179	H	0.734421	0.283931	-0.123939
H180	H	0.676827	0.266079	-0.140923
H181	H	0.529265	0.842694	-0.560927
N182	N	0.633786	1.074940	-0.543153
H183	H	0.662937	1.089528	-0.525228
H184	H	0.583500	1.125202	-0.579043
H185	H	0.566425	1.003964	-0.538673
H186	H	0.961320	0.373526	0.082875
H187	H	0.701066	0.263602	0.538627
N188	N	0.304372	0.885972	-0.215503
H189	H	0.327869	0.896516	-0.182504
H190	H	0.327848	0.825136	-0.182574
H191	H	0.701084	-0.106028	-0.082904
N192	N	0.808795	0.381534	0.405488
H193	H	0.813692	0.353127	0.469402
H194	H	0.782033	0.370976	0.376527
H195	H	0.701085	0.373528	-0.082927
H196	H	0.440853	0.893975	0.082912
H197	H	0.936555	0.263605	-0.082976
H198	H	1.058897	0.208603	-0.000088
N199	N	0.556568	0.381557	0.094962
H200	H	0.562201	0.424555	0.088028
H201	H	0.576052	0.335267	0.158866
N202	N	0.332715	1.011956	0.094990
H203	H	0.309236	1.072798	0.053078
H204	H	0.384644	0.983483	0.123928
N205	N	0.633726	0.192576	0.543174
H206	H	0.662874	0.177987	0.597021
H207	H	0.654838	0.142318	0.543135
N208	N	0.710877	0.381561	0.405455
H209	H	0.734383	0.353168	0.469364
H210	H	0.676795	0.442410	0.376482
H211	H	0.566385	0.263559	0.372868
H212	H	0.566382	0.373520	0.237461
N213	N	0.178380	0.788070	-0.094980
H214	H	0.141014	0.776807	-0.088052
H215	H	0.172770	0.820492	-0.158882
H216	H	0.961289	0.373551	0.237414
N217	N	0.304375	0.788066	-0.094976
H218	H	0.277597	0.820525	-0.071008
H219	H	0.277622	0.820453	-0.158890
N220	N	1.074941	0.192585	0.543105
H221	H	1.118681	0.177996	0.525177
H222	H	1.074911	0.142325	0.578990
H223	H	0.071265	0.499076	0.082888
H224	H	-0.038701	0.499080	0.082879
H225	H	0.208567	1.058952	0.000022
H226	H	0.306143	0.894000	-0.082906
H227	H	0.701089	0.499069	-0.237479
N228	N	-0.065213	0.788070	-0.095005
H229	H	-0.117124	0.835099	-0.123957
H230	H	-0.041675	0.791296	-0.140941
H231	H	0.738196	0.424838	-0.303715
H232	H	0.738194	0.424842	-0.439116
N233	N	0.710876	0.479456	-0.594531
H234	H	0.691407	0.447000	-0.561562
H235	H	0.762792	0.447068	-0.561597
N236	N	0.556569	0.788065	-0.784477
H237	H	0.504645	0.820519	-0.791458
H238	H	0.562252	0.776733	-0.830424
N239	N	0.556589	0.788060	-0.405486
H240	H	0.504663	0.820512	-0.438439
H241	H	0.576110	0.820455	-0.438433
N242	N	0.808787	0.381563	-0.095015
H243	H	0.813675	0.353169	-0.123970
H244	H	0.782021	0.442411	-0.140949
