data_functionalizedCrystal
_audit_creation_method	'MofGen! by Chris Wilmer'
_symmetry_space_group_name_H-M	'P1'
_symmetry_Int_Tables_number	1
_symmetry_cell_setting	triclinic
loop_
_symmetry_equiv_pos_as_xyz
  x,y,z
_cell_length_a	17.639054
_cell_length_b	17.637651
_cell_length_c	12.759387
_cell_angle_alpha	78.750696
_cell_angle_beta	78.752245
_cell_angle_gamma	109.615240
loop_
_atom_site_label
_atom_site_type_symbol
_atom_site_fract_x
_atom_site_fract_y
_atom_site_fract_z
Zn1	Zn	1.193763	-0.073601	-0.895702
Zn2	Zn	1.165802	-0.211485	-0.675395
Zn3	Zn	1.055918	-0.101483	-0.675414
Zn4	Zn	1.028058	-0.239248	-0.806468
O5	O	1.110885	-0.156454	-0.763245
O6	O	1.305389	-0.068603	-0.903815
O7	O	1.151183	-0.196943	-0.528352
O8	O	1.097565	0.017576	-0.741988
O9	O	1.284846	-0.169907	-0.741957
O10	O	1.198839	0.038061	-0.903833
O11	O	1.070452	-0.116125	-0.528365
O12	O	0.936887	-0.143046	-0.655461
O13	O	1.050081	-0.217225	-0.965351
O14	O	0.916418	-0.244261	-0.751746
O15	O	1.171824	-0.095524	-1.030911
O16	O	1.124168	-0.330528	-0.655430
O17	O	1.022968	-0.350926	-0.751729
C18	C	0.896747	-0.199693	-0.693923
C19	C	0.805134	-0.218210	-0.664285
C20	C	1.067533	-0.370634	-0.693924
C21	C	1.049063	-0.462246	-0.664328
C22	C	0.665330	-0.296967	-0.538172
C23	C	0.751416	-0.279560	-0.566031
C24	C	0.772780	-0.174245	-0.734723
C25	C	0.686694	-0.191645	-0.706882
C26	C	0.632975	-0.253006	-0.608604
C27	C	0.654339	-0.147684	-0.777313
C28	C	0.568261	-0.165080	-0.749470
C29	C	0.514537	-0.226437	-0.651196
C30	C	0.546897	-0.270402	-0.580761
C31	C	0.708060	-0.086319	-0.875587
C32	C	0.675705	-0.042358	-0.946018
C33	C	0.589625	-0.059758	-0.918180
C34	C	0.535901	-0.121115	-0.819905
C35	C	0.557265	-0.015793	-0.988615
C36	C	0.471187	-0.033189	-0.960772
C37	C	0.449823	-0.138511	-0.792062
C38	C	1.251740	-0.709967	-0.988587
C39	C	1.234358	-0.796055	-0.960750
C40	C	1.128971	-0.817480	-0.792114
C41	C	1.146347	-0.731391	-0.819934
C42	C	1.207732	-0.677641	-0.918172
C43	C	1.102339	-0.699065	-0.749519
C44	C	1.119711	-0.612984	-0.777340
C45	C	1.181091	-0.559229	-0.875576
C46	C	1.225104	-0.591560	-0.945993
C47	C	1.040951	-0.752817	-0.651285
C48	C	0.996943	-0.720491	-0.580870
C49	C	1.014319	-0.634408	-0.608686
C50	C	1.075699	-0.580653	-0.706922
C51	C	0.970306	-0.602077	-0.538269
C52	C	0.987678	-0.515996	-0.566090
C53	C	1.093071	-0.494572	-0.734743
C54	C	1.325859	-0.113048	-0.832838
C55	C	1.417468	-0.094551	-0.862494
C56	C	1.110964	-0.156361	-1.037325
C57	C	1.110997	-0.156321	-1.154121
C58	C	1.154429	0.058566	-0.832866
C59	C	1.172984	0.150195	-0.862535
C60	C	1.237774	-0.029600	-1.222409
C61	C	1.301176	0.033775	-1.311421
C62	C	1.301203	0.033810	-1.421159
C63	C	1.237818	-0.029537	-1.441883
C64	C	1.174416	-0.092912	-1.352871
C65	C	1.174398	-0.092941	-1.243134
C66	C	1.047637	-0.219629	-1.284585
C67	C	1.047613	-0.219668	-1.174846
C68	C	0.984252	-0.282976	-1.305309
C69	C	0.920852	-0.346356	-1.216296
C70	C	0.920829	-0.346388	-1.106553
C71	C	0.984210	-0.283043	-1.085834
C72	C	1.110866	-0.156478	-0.490266
C73	C	1.111039	-0.156254	-0.373597
H74	H	0.406080	-0.188485	-0.712042
O75	O	0.910624	-0.654183	-0.442831
C76	C	0.875521	-0.607188	-0.386629
H77	H	0.885042	-0.546381	-0.448563
H78	H	0.907577	-0.591962	-0.319597
C79	C	0.769320	-0.733248	-0.256057
C80	C	0.781007	-0.658566	-0.332127
H81	H	0.711020	-0.764941	-0.222433
H82	H	0.792971	-0.764909	-0.293918
H83	H	0.796039	-0.720548	-0.200207
H84	H	0.754297	-0.671267	-0.387983
H85	H	0.757349	-0.626908	-0.294274
H86	H	1.026801	-0.822911	-0.628644
O87	O	1.198049	-0.475593	-0.902796
C88	C	1.261680	-0.435083	-1.004586
H89	H	1.263190	-0.482325	-1.053687
H90	H	1.324882	-0.407653	-0.987395
C91	C	1.241915	-0.306047	-1.012363
C92	C	1.243765	-0.364069	-1.072674
H93	H	1.230867	-0.262240	-1.054362
H94	H	1.199048	-0.333338	-0.943783
H95	H	1.294585	-0.283198	-0.998041
H96	H	1.191092	-0.386925	-1.086983
H97	H	1.286623	-0.336781	-1.141258
O98	O	0.859201	-0.408040	-1.020218
C99	C	0.803259	-0.463928	-1.062049
H100	H	0.836454	-0.459935	-1.150286
H101	H	0.746778	-0.446375	-1.063216
C102	C	0.732834	-0.558984	-0.878600
C103	C	0.773607	-0.554085	-0.986971
H104	H	0.714539	-0.614598	-0.832287
H105	H	0.770521	-0.521331	-0.850416
H106	H	0.685771	-0.544352	-0.879588
H107	H	0.820674	-0.568707	-0.985983
H108	H	0.735927	-0.591744	-1.015154
O109	O	1.311468	-0.657695	-1.083906
C110	C	1.374763	-0.597128	-1.057482
H111	H	1.374644	-0.622075	-0.968002
H112	H	1.362441	-0.537056	-1.066667
C113	C	1.460855	-0.547777	-1.246985
C114	C	1.460713	-0.578420	-1.137087
H115	H	1.513873	-0.536233	-1.296092
H116	H	1.418211	-0.588579	-1.264790
H117	H	1.450583	-0.497720	-1.254624
H118	H	1.470975	-0.628481	-1.129447
H119	H	1.503361	-0.537625	-1.119283
H120	H	0.444450	-0.240587	-0.628516
H121	H	0.778150	-0.072154	-0.898250
O122	O	1.277137	-0.827530	-1.029005
C123	C	1.320375	-0.866545	-0.970426
H124	H	1.288730	-0.885380	-0.877184
H125	H	1.388159	-0.820994	-0.989458
C126	C	1.357652	-0.922119	-1.121202
C127	C	1.318781	-0.945259	-1.006681
H128	H	1.356673	-0.970672	-1.143568
H129	H	1.328525	-0.895832	-1.160670
H130	H	1.414135	-0.884159	-1.137048
H131	H	1.262296	-0.983210	-0.990839
H132	H	1.347899	-0.971555	-0.967211
H133	H	0.984276	-0.282941	-1.394666
O134	O	0.728001	0.017192	-1.041464
C135	C	0.810918	0.023138	-1.050923
H136	H	0.809797	-0.038071	-0.999594
H137	H	0.845225	0.077023	-1.018819
C138	C	0.858042	0.114704	-1.237005
C139	C	0.856665	0.039524	-1.173969
H140	H	0.886263	0.124816	-1.312905
H141	H	0.802180	0.110702	-1.230632
H142	H	0.886629	0.159599	-1.210238
H143	H	0.828069	-0.005371	-1.200727
H144	H	0.912523	0.043520	-1.180350
H145	H	1.237839	-0.029498	-1.531241
H146	H	0.601016	0.034173	-1.068626
H147	H	1.237765	-0.029627	-1.133058
O148	O	0.944853	-0.484567	-0.497827
C149	C	0.901662	-0.445516	-0.556451
H150	H	0.891306	-0.472458	-0.629156
H151	H	0.940318	-0.375112	-0.589447
C152	C	0.828975	-0.428479	-0.388406
C153	C	0.816249	-0.461575	-0.477698
H154	H	0.776289	-0.438381	-0.339828
H155	H	0.858076	-0.454785	-0.348910
H156	H	0.861191	-0.369812	-0.415917
H157	H	0.784043	-0.520242	-0.450188
H158	H	0.787140	-0.435278	-0.517188
H159	H	0.503154	-0.320376	-0.500740
O160	O	1.362682	0.095405	-1.291341
C161	C	1.361341	0.173946	-1.338956
H162	H	1.296350	0.164834	-1.349152
H163	H	1.409908	0.204432	-1.423940
C164	C	1.461883	0.242062	-1.249872
C165	C	1.382058	0.230870	-1.262386
H166	H	1.474666	0.277177	-1.202645
H167	H	1.462790	0.189148	-1.217796
H168	H	1.502346	0.267463	-1.320698
H169	H	1.341595	0.205460	-1.191564
H170	H	1.381145	0.283781	-1.294449
O171	O	1.069288	-0.869794	-0.696791
C172	C	1.005965	-0.930334	-0.723209
H173	H	1.032405	-0.937303	-0.808114
H174	H	0.951568	-0.909531	-0.725615
C175	C	0.942087	-1.006594	-0.529843
C176	C	0.974563	-1.015158	-0.634121
H177	H	0.922713	-1.058916	-0.474888
H178	H	0.984747	-0.965805	-0.512044
H179	H	0.896761	-0.989255	-0.531864
H180	H	1.019895	-1.032486	-0.632103
H181	H	0.931910	-1.055951	-0.651919
O182	O	0.825076	-0.114694	-0.830169
C183	C	0.907993	-0.108748	-0.839628
H184	H	0.906872	-0.169957	-0.788299
H185	H	0.942300	-0.054864	-0.807524
C186	C	0.955117	-0.017182	-1.025710
C187	C	0.953740	-0.092362	-0.962674
H188	H	0.983338	-0.007070	-1.101610
H189	H	0.899255	-0.021184	-1.019337
H190	H	0.983704	0.027713	-0.998943
H191	H	0.925144	-0.137257	-0.989432
H192	H	1.009598	-0.088366	-0.969055
O193	O	1.362690	0.095435	-1.507667
C194	C	1.326562	0.139211	-1.573210
H195	H	1.262677	0.131195	-1.520767
H196	H	1.318573	0.113167	-1.647197
C197	C	1.462656	0.242883	-1.680112
C198	C	1.384193	0.233044	-1.615698
H199	H	1.498206	0.300763	-1.706326
H200	H	1.486996	0.213390	-1.635958
H201	H	1.455986	0.221175	-1.741760
H202	H	1.390862	0.254742	-1.554044
H203	H	1.359855	0.262544	-1.659843
H204	H	0.621587	-0.346940	-0.458151
O205	O	1.284637	-0.539391	-1.041533
C206	C	1.262357	-0.564038	-1.133597
H207	H	1.191729	-0.601051	-1.109852
H208	H	1.296469	-0.605027	-1.159284
C209	C	1.374094	-0.440131	-1.260704
C210	C	1.287346	-0.485585	-1.231542
H211	H	1.389512	-0.391739	-1.321124
H212	H	1.389107	-0.423527	-1.198679
H213	H	1.402510	-0.474298	-1.282103
H214	H	1.258933	-0.451422	-1.210131
H215	H	1.272329	-0.502182	-1.293566
H216	H	0.869246	-0.397924	-1.233181
H217	H	0.946961	-0.764266	-0.500886
H218	H	0.777754	-0.315363	-0.508670
H219	H	0.984200	-0.283066	-0.996484
H220	H	0.444844	0.002611	-1.018121
H221	H	1.143063	-0.450805	-0.814733
