data_functionalizedCrystal
_audit_creation_method	'MofGen! by Chris Wilmer'
_symmetry_space_group_name_H-M	'P1'
_symmetry_Int_Tables_number	1
_symmetry_cell_setting	triclinic
loop_
_symmetry_equiv_pos_as_xyz
  x,y,z
_cell_length_a	14.044220
_cell_length_b	17.666332
_cell_length_c	19.188930
_cell_angle_alpha	90.011603
_cell_angle_beta	88.166830
_cell_angle_gamma	90.004261
loop_
_atom_site_label
_atom_site_type_symbol
_atom_site_fract_x
_atom_site_fract_y
_atom_site_fract_z
O1	O	1.257015	0.062884	0.168285
O2	O	0.981071	0.062903	0.162212
O3	O	1.127007	0.062878	0.064107
O4	O	1.111080	0.062909	0.266390
O5	O	1.126981	-0.063018	0.064099
O6	O	0.981046	-0.062994	0.162205
O7	O	1.256990	-0.063012	0.168277
Cu8	Cu	1.119016	-0.074498	0.165240
Cu9	Cu	1.119046	0.074389	0.165249
O10	O	1.111055	-0.062988	0.266383
C11	C	0.945755	-0.000043	0.159550
C12	C	0.840562	-0.000037	0.151621
N13	N	1.119001	-0.179218	0.165234
C14	C	0.647961	-0.000054	0.137126
C15	C	0.590095	-0.000049	0.193360
C16	C	0.482925	-0.000058	0.185295
C17	C	0.755141	-0.000045	0.145190
C18	C	1.183642	-0.218839	0.121818
C19	C	1.183648	-0.298086	0.121815
C20	C	1.119021	-0.337710	0.165241
C21	C	1.054368	-0.298080	0.208660
C22	C	1.054358	-0.218834	0.208657
N23	N	1.106703	-0.462119	0.226253
N24	N	1.106718	-0.537399	0.226254
C25	C	1.119046	-0.576474	0.165252
N26	N	1.131378	-0.537424	0.104248
N27	N	1.131367	-0.462137	0.104247
C28	C	1.119025	-0.423639	0.165249
C29	C	1.183697	-0.702024	0.121829
C30	C	1.183696	-0.781273	0.121824
C31	C	1.054421	-0.781265	0.208676
C32	C	1.054417	-0.702018	0.208674
C33	C	1.119060	-0.662402	0.165252
C34	C	1.292306	-0.000065	0.170939
C35	C	1.397499	-0.000066	0.178868
C36	C	1.126478	-0.000072	0.038059
C37	C	1.124930	-0.000079	-0.039546
N38	N	1.119068	0.179108	0.165250
C39	C	1.210560	-0.000088	-0.078944
C40	C	1.209105	-0.000076	-0.151862
C41	C	1.122016	-0.000069	-0.185378
C42	C	1.036375	-0.000056	-0.145971
C43	C	1.037832	-0.000060	-0.073055
N44	N	1.055438	-0.042910	-0.297681
N45	N	1.054060	-0.042907	-0.366949
C46	C	1.117621	-0.000054	-0.405070
N47	N	1.182627	0.042787	-0.371308
N48	N	1.184008	0.042781	-0.302034
C49	C	1.120427	-0.000064	-0.264443
C50	C	1.201680	-0.000049	-0.523534
C51	C	1.200222	-0.000032	-0.596453
C52	C	1.027489	-0.000019	-0.590561
C53	C	1.028949	-0.000029	-0.517644
C54	C	1.116047	-0.000047	-0.484135
C55	C	1.111583	-0.000036	0.292431
C56	C	1.113132	-0.000024	0.370035
H57	H	0.621041	-0.000037	0.247562
H58	H	0.617017	-0.000066	0.082929
C59	C	0.983320	-0.658428	0.256441
C60	C	0.912255	-0.702005	0.304232
C61	C	0.841152	-0.658415	0.351998
C62	C	0.841115	-0.571247	0.351974
C63	C	0.912182	-0.527665	0.304181
C64	C	0.983285	-0.571256	0.256414
H65	H	0.912280	-0.766536	0.304251
H66	H	0.788543	-0.690678	0.387378
H67	H	0.788480	-0.538979	0.387334
H68	H	0.912157	-0.463134	0.304161
H69	H	1.035894	-0.538993	0.221035
C70	C	1.303303	-0.000094	-0.195211
C71	C	1.399106	-0.000115	-0.158354
C72	C	1.493303	-0.000136	-0.201701
C73	C	1.491698	-0.000135	-0.281906
C74	C	1.395892	-0.000113	-0.318768
C75	C	1.301695	-0.000093	-0.275421
H76	H	1.400297	-0.000116	-0.098977
H77	H	1.564225	-0.000152	-0.174412
H78	H	1.561428	-0.000150	-0.313994
H79	H	1.394700	-0.000113	-0.378144
H80	H	1.230773	-0.000077	-0.302709
C81	C	1.254762	-0.341680	0.074057
C82	C	1.325892	-0.298102	0.026318
C83	C	1.397008	-0.341691	-0.021438
C84	C	1.396995	-0.428859	-0.021456
C85	C	1.325862	-0.472442	0.026285
C86	C	1.254746	-0.428852	0.074041
H87	H	1.325905	-0.233571	0.026330
H88	H	1.449665	-0.309428	-0.056779
H89	H	1.449639	-0.461127	-0.056808
H90	H	1.325850	-0.536973	0.026273
H91	H	1.202089	-0.461115	0.109382
C92	C	1.254793	-0.658442	0.074058
C93	C	1.327148	-0.603949	0.105874
C94	C	1.398244	-0.560371	0.058103
C95	C	1.396986	-0.571285	-0.021484
C96	C	1.324629	-0.625781	-0.053304
C97	C	1.253532	-0.669359	-0.005533
H98	H	1.328081	-0.595867	0.164792
H99	H	1.451808	-0.520029	0.081658
H100	H	1.449616	-0.539026	-0.056847
H101	H	1.323695	-0.633863	-0.112222
H102	H	1.199969	-0.709701	-0.029088
C103	C	0.934753	-0.000032	-0.474301
C104	C	0.838954	-0.000027	-0.511163
C105	C	0.744754	-0.000030	-0.467820
C106	C	0.746352	-0.000037	-0.387614
C107	C	0.842155	-0.000042	-0.350748
C108	C	0.936356	-0.000039	-0.394091
H109	H	0.837768	-0.000022	-0.570539
H110	H	0.673834	-0.000026	-0.495111
H111	H	0.676619	-0.000039	-0.355529
H112	H	0.843342	-0.000047	-0.291372
H113	H	1.007275	-0.000043	-0.366800
H114	H	1.236276	-0.186586	0.086459
C115	C	0.983254	-0.175246	0.256422
C116	C	0.912189	-0.218823	0.304213
C117	C	0.841087	-0.175232	0.351980
C118	C	0.841049	-0.088065	0.351955
C119	C	0.912117	-0.044483	0.304163
C120	C	0.983219	-0.088073	0.256396
H121	H	0.912215	-0.283354	0.304233
H122	H	0.788478	-0.207495	0.387359
H123	H	0.788415	-0.055797	0.387315
H124	H	0.912091	0.020048	0.304143
H125	H	1.035828	-0.055810	0.221016
H126	H	0.965466	-0.000049	-0.173265
C127	C	1.254804	-0.824861	0.074063
C128	C	1.325926	-0.781284	0.026318
C129	C	1.397036	-0.824874	-0.021444
C130	C	1.397023	-0.912041	-0.021460
C131	C	1.325898	-0.955624	0.026286
C132	C	1.254789	-0.912034	0.074048
H133	H	1.325938	-0.716753	0.026328
H134	H	1.449687	-0.792611	-0.056789
H135	H	1.449662	-0.944309	-0.056816
H136	H	1.325886	-1.020155	0.026276
H137	H	1.202137	-0.944297	0.109393
H138	H	1.001797	-0.813527	0.244032
C139	C	1.297482	-0.000061	-0.486667
C140	C	1.368519	-0.065439	-0.499141
C141	C	1.464320	-0.065452	-0.462275
C142	C	1.489085	-0.000088	-0.412934
C143	C	1.418046	0.065295	-0.400458
C144	C	1.322245	0.065308	-0.437324
H145	H	1.350188	-0.113830	-0.535668
H146	H	1.516908	-0.113853	-0.471511
H147	H	1.560003	-0.000098	-0.385644
H148	H	1.436377	0.113686	-0.363931
H149	H	1.269658	0.113709	-0.428088
H150	H	1.001747	-0.330346	0.244017
H151	H	1.281482	-0.000100	-0.051666
H152	H	0.968099	-0.000053	-0.040977
H153	H	1.269955	-0.000035	-0.628531
H154	H	0.956579	-0.000010	-0.617849
