data_functionalizedCrystal
_audit_creation_method	'MofGen! by Chris Wilmer'
_symmetry_space_group_name_H-M	'P1'
_symmetry_Int_Tables_number	1
_symmetry_cell_setting	triclinic
loop_
_symmetry_equiv_pos_as_xyz
  x,y,z
_cell_length_a	19.077105
_cell_length_b	14.908520
_cell_length_c	19.076919
_cell_angle_alpha	95.429006
_cell_angle_beta	90.076224
_cell_angle_gamma	91.150228
loop_
_atom_site_label
_atom_site_type_symbol
_atom_site_fract_x
_atom_site_fract_y
_atom_site_fract_z
Zn1	Zn	1.037881	-0.436364	-0.459234
Zn2	Zn	1.537881	0.063636	0.040766
Zn3	Zn	1.035744	-0.581390	-0.347980
Zn4	Zn	1.535744	-0.081390	0.152020
Zn5	Zn	0.925663	-0.424281	-0.336506
Zn6	Zn	1.425663	0.075719	0.163494
Zn7	Zn	0.913591	-0.580846	-0.460710
Zn8	Zn	1.413591	-0.080846	0.039290
O9	O	0.978220	-0.505720	-0.401107
O10	O	1.478220	-0.005720	0.098893
O11	O	1.135682	-0.460886	-0.448660
O12	O	1.635682	0.039114	0.051340
O13	O	1.025299	-0.555720	-0.247919
O14	O	1.525299	-0.055720	0.252081
O15	O	0.946495	-0.299666	-0.347366
O16	O	1.446495	0.200334	0.152634
O17	O	1.134112	-0.567437	-0.366923
O18	O	1.634112	-0.067437	0.133077
O19	O	1.028941	-0.308543	-0.437534
O20	O	1.528941	0.191457	0.062466
O21	O	0.944423	-0.440292	-0.239489
O22	O	1.444423	0.059708	0.260511
O23	O	0.825977	-0.439765	-0.348797
O24	O	1.325977	0.060235	0.151203
O25	O	0.925920	-0.566510	-0.559053
O26	O	1.425920	-0.066510	-0.059053
O27	O	0.817107	-0.554793	-0.440049
O28	O	1.317107	-0.054793	0.059951
O29	O	1.017235	-0.460359	-0.557969
O30	O	1.517235	0.039641	-0.057969
O31	O	1.013594	-0.707536	-0.368354
O32	O	1.513594	-0.207536	0.131646
O33	O	0.923848	-0.707136	-0.451175
O34	O	1.423848	-0.207136	0.048825
C35	C	0.796110	-0.495910	-0.393339
C36	C	1.296110	0.004090	0.106661
C37	C	0.718201	-0.491735	-0.390033
C38	C	1.218201	0.008265	0.109967
C39	C	0.967198	-0.740065	-0.411186
C40	C	1.467198	-0.240065	0.088814
C41	C	0.962545	-0.840323	-0.415524
C42	C	1.462545	-0.340323	0.084476
C43	C	0.676998	-0.549746	-0.435923
C44	C	1.176998	-0.049746	0.064077
C45	C	0.603795	-0.545812	-0.432820
C46	C	1.103795	-0.045812	0.067180
C47	C	0.571795	-0.483870	-0.383823
C48	C	1.071795	0.016130	0.116177
C49	C	0.613003	-0.425853	-0.337931
C50	C	1.113003	0.074147	0.162069
C51	C	0.686205	-0.429783	-0.341038
C52	C	1.186205	0.070217	0.158962
C53	C	0.353358	-0.465680	-0.369446
C54	C	0.853358	0.034320	0.130554
C55	C	0.280150	-0.461756	-0.366341
C56	C	0.780150	0.038244	0.133659
C57	C	0.270947	-0.581715	-0.461231
C58	C	0.770947	-0.081715	0.038769
C59	C	0.344151	-0.585643	-0.464331
C60	C	0.844151	-0.085643	0.035669
C61	C	0.385353	-0.527623	-0.418441
C62	C	0.885353	-0.027623	0.081559
N63	N	0.496969	-0.479850	-0.380648
N64	N	0.996969	0.020150	0.119352
N65	N	0.460177	-0.531640	-0.421620
N66	N	0.960177	-0.031640	0.078380
C67	C	1.047344	-1.029082	-0.337510
C68	C	1.547344	-0.529082	0.162490
C69	C	1.042976	-1.123283	-0.341584
C70	C	1.542976	-0.623283	0.158416
C71	C	0.949443	-1.122929	-0.427749
C72	C	1.449443	-0.622929	0.072251
C73	C	0.953812	-1.028727	-0.423675
C74	C	1.453812	-0.528727	0.076325
C75	C	1.002763	-0.981807	-0.378553
C76	C	1.502763	-0.481807	0.121447
C77	C	1.007128	-0.887604	-0.374476
C78	C	1.507128	-0.387604	0.125524
C79	C	0.913600	-0.887251	-0.460644
C80	C	1.413600	-0.387251	0.039356
C81	C	0.909231	-0.981453	-0.464718
C82	C	1.409231	-0.481453	0.035282
C83	C	1.161040	-0.515570	-0.408907
C84	C	1.661040	-0.015570	0.091093
C85	C	1.238948	-0.519767	-0.412230
C86	C	1.738948	-0.019767	0.087770
C87	C	0.970470	-0.514721	-0.584776
C88	C	1.470470	-0.014721	-0.084776
C89	C	0.967167	-0.518557	-0.663044
C90	C	1.467167	-0.018557	-0.163044
C91	C	0.989303	-0.270463	-0.391006
C92	C	1.489303	0.229537	0.108994
C93	C	0.994026	-0.170210	-0.386701
C94	C	1.494026	0.329790	0.113299
C95	C	1.013156	-0.465095	-0.699251
C96	C	1.513156	0.034905	-0.199251
C97	C	1.010044	-0.468695	-0.772793
C98	C	1.510044	0.031305	-0.272793
C99	C	0.960947	-0.525763	-0.810125
C100	C	1.460947	-0.025763	-0.310125
C101	C	0.914953	-0.579227	-0.773913
C102	C	1.414953	-0.079227	-0.273913
C103	C	0.918062	-0.575622	-0.700373
C104	C	1.418062	-0.075622	-0.200373
C105	C	0.946548	-0.542468	-1.030127
C106	C	1.446548	-0.042468	-0.530127
C107	C	0.943444	-0.546071	-1.103672
C108	C	1.443444	-0.046071	-0.603672
C109	C	1.038535	-0.435537	-1.102547
C110	C	1.538535	0.064463	-0.602547
C111	C	1.041642	-0.431941	-1.029006
C112	C	1.541642	0.068059	-0.529006
C113	C	0.995646	-0.485402	-0.992799
C114	C	1.495646	0.014598	-0.492799
N115	N	0.957767	-0.529446	-0.885296
N116	N	1.457767	-0.029446	-0.385296
N117	N	0.998824	-0.481713	-0.917629
N118	N	1.498824	0.018287	-0.417629
C119	C	0.985983	-0.496691	-0.218153
C120	C	1.485983	0.003309	0.281847
C121	C	0.989433	-0.492609	-0.139879
C122	C	1.489433	0.007391	0.360121
H123	H	0.703047	-0.600189	-0.475819
H124	H	1.203047	-0.100189	0.024181
C125	C	0.820699	-0.896367	-0.546219
C126	C	1.320699	-0.396367	-0.046219
C127	C	0.864587	-0.835286	-0.505760
C128	C	1.364587	-0.335286	-0.005760
H129	H	0.790437	-0.864283	-0.574063
H130	H	1.290437	-0.364283	-0.074063
H131	H	0.848374	-0.936016	-0.576073
H132	H	1.348374	-0.436016	-0.076073
H133	H	0.793511	-0.930215	-0.515955
H134	H	1.293511	-0.430215	-0.015955
H135	H	0.891779	-0.801441	-0.536024
H136	H	1.391779	-0.301441	-0.036024
H137	H	0.836909	-0.795621	-0.475902
H138	H	1.336909	-0.295621	0.024098
C139	C	0.901223	-1.267181	-0.472248
C140	C	1.401223	-0.767181	0.027752
C141	C	0.895639	-1.174515	-0.477342
C142	C	1.395639	-0.674515	0.022658
H143	H	0.868002	-1.299025	-0.502862
H144	H	1.368002	-0.799025	-0.002862
H145	H	0.947154	-1.285589	-0.485271
H146	H	1.447154	-0.785589	0.014729
H147	H	0.892288	-1.279773	-0.425156
H148	H	1.392288	-0.779773	0.074844
H149	H	0.904579	-1.161921	-0.524433
H150	H	1.404579	-0.661921	-0.024433
H151	H	0.849697	-1.156100	-0.464323
H152	H	1.349697	-0.656100	0.035677
C153	C	1.106830	-0.356192	-0.705533
C154	C	1.606830	0.143808	-0.205533
C155	C	1.067125	-0.402360	-0.658219
C156	C	1.567125	0.097640	-0.158219
H157	H	1.140144	-0.317456	-0.680200
H158	H	1.640144	0.182544	-0.180200
H159	H	1.130577	-0.398340	-0.737046
H160	H	1.630577	0.101660	-0.237046
H161	H	1.076695	-0.321456	-0.731432
H162	H	1.576695	0.178544	-0.231432
H163	H	1.097259	-0.437102	-0.632323
H164	H	1.597259	0.062898	-0.132323
H165	H	1.043376	-0.360207	-0.626693
H166	H	1.543376	0.139793	-0.126693
H167	H	1.087198	-0.990878	-0.300765
H168	H	1.587198	-0.490878	0.199235
C169	C	1.021998	-0.351929	-0.850681
C170	C	1.521998	0.148071	-0.350681
C171	C	1.060594	-0.409915	-0.812584
C172	C	1.560594	0.090085	-0.312584
H173	H	1.053207	-0.315631	-0.875240
H174	H	1.553207	0.184369	-0.375240
H175	H	0.992324	-0.386429	-0.883442
H176	H	1.492324	0.113571	-0.383442
H177	H	0.994297	-0.314391	-0.819193
H178	H	1.494297	0.185609	-0.319193
H179	H	1.088292	-0.447458	-0.844072
H180	H	1.588292	0.052542	-0.344072
H181	H	1.090281	-0.375412	-0.779820
H182	H	1.590281	0.124588	-0.279820
H183	H	0.586943	-0.375415	-0.298039
H184	H	1.086943	0.124585	0.201961
C185	C	1.135317	-0.323034	-1.035282
C186	C	1.635317	0.176966	-0.535282
C187	C	1.095608	-0.369204	-0.987971
C188	C	1.595608	0.130796	-0.487971
H189	H	1.168631	-0.284302	-1.009947
H190	H	1.668631	0.215698	-0.509947
H191	H	1.159064	-0.365182	-1.066796
H192	H	1.659064	0.134818	-0.566796
H193	H	1.105184	-0.288295	-1.061181
H194	H	1.605184	0.211705	-0.561181
H195	H	1.125741	-0.403948	-0.962076
H196	H	1.625741	0.096052	-0.462076
H197	H	1.071860	-0.327051	-0.956445
H198	H	1.571860	0.172949	-0.456445
C199	C	0.849751	-0.654962	-1.097401
C200	C	1.349751	-0.154962	-0.597401
C201	C	0.889469	-0.608801	-1.144710
C202	C	1.389469	-0.108801	-0.644710
H203	H	0.816430	-0.693683	-1.122737
H204	H	1.316430	-0.193683	-0.622737
H205	H	0.879871	-0.689704	-1.071503
H206	H	1.379871	-0.189704	-0.571503
H207	H	0.826005	-0.612802	-1.065885
H208	H	1.326005	-0.112802	-0.565885
H209	H	0.913219	-0.650962	-1.176222
H210	H	1.413219	-0.150962	-0.676222
H211	H	0.859344	-0.574057	-1.170620
H212	H	1.359344	-0.074057	-0.670620
C213	C	0.239796	-0.734975	-0.500961
C214	C	0.739796	-0.234975	-0.000961
C215	C	0.225659	-0.645479	-0.511679
C216	C	0.725659	-0.145479	-0.011679
H217	H	0.211834	-0.774338	-0.532107
H218	H	0.711834	-0.274338	-0.032107
H219	H	0.287966	-0.746172	-0.509822
H220	H	0.787966	-0.246172	-0.009822
H221	H	0.229162	-0.745112	-0.453686
H222	H	0.729162	-0.245112	0.046314
H223	H	0.236298	-0.635340	-0.558953
H224	H	0.736298	-0.135340	-0.058953
H225	H	0.177477	-0.634278	-0.502823
H226	H	0.677477	-0.134278	-0.002823
C227	C	0.359607	-0.636865	-0.586373
C228	C	0.859607	-0.136865	-0.086373
C229	C	0.379321	-0.653729	-0.518194
C230	C	0.879321	-0.153729	-0.018194
H231	H	0.381322	-0.678898	-0.619624
H232	H	0.881322	-0.178898	-0.119624
H233	H	0.310119	-0.642827	-0.591084
H234	H	0.810119	-0.142827	-0.091084
H235	H	0.374021	-0.577434	-0.594651
H236	H	0.874021	-0.077434	-0.094651
H237	H	0.364901	-0.713157	-0.509914
H238	H	0.864901	-0.213157	-0.009914
H239	H	0.428819	-0.647774	-0.513481
H240	H	0.928819	-0.147774	-0.013481
C241	C	0.574188	-0.594651	-0.552942
C242	C	1.074188	-0.094651	-0.052942
C243	C	0.558511	-0.609594	-0.483258
C244	C	1.058511	-0.109594	0.016742
H245	H	0.546235	-0.634037	-0.584080
H246	H	1.046235	-0.134037	-0.084080
H247	H	0.564593	-0.533947	-0.560216
H248	H	1.064593	-0.033947	-0.060216
H249	H	0.622367	-0.605852	-0.561790
H250	H	1.122367	-0.105852	-0.061790
H251	H	0.510332	-0.598386	-0.474408
H252	H	1.010332	-0.098386	0.025592
H253	H	0.568100	-0.670313	-0.475981
H254	H	1.068100	-0.170313	0.024019
H255	H	0.254099	-0.411305	-0.326445
H256	H	0.754099	0.088695	0.173555
H257	H	1.075982	-0.392011	-1.132034
H258	H	1.575982	0.107989	-0.632034
C259	C	0.934570	-0.659220	-0.952228
C260	C	1.434570	-0.159220	-0.452228
C261	C	0.895988	-0.601238	-0.990342
C262	C	1.395988	-0.101238	-0.490342
H263	H	0.903352	-0.695500	-0.927664
H264	H	1.403352	-0.195500	-0.427664
H265	H	0.962268	-0.696768	-0.983700
H266	H	1.462268	-0.196768	-0.483700
H267	H	0.964246	-0.624712	-0.919464
H268	H	1.464246	-0.124712	-0.419464
H269	H	0.866315	-0.635747	-1.023110
H270	H	1.366315	-0.135747	-0.523110
H271	H	0.868278	-0.563686	-0.958867
H272	H	1.368278	-0.063686	-0.458867
C273	C	1.106744	-0.786155	-0.364211
C274	C	1.606744	-0.286155	0.135789
C275	C	1.060934	-0.836024	-0.324881
C276	C	1.560934	-0.336024	0.175119
H277	H	1.139960	-0.754311	-0.333592
H278	H	1.639960	-0.254311	0.166408
H279	H	1.130528	-0.825804	-0.397640
H280	H	1.630528	-0.325804	0.102360
H281	H	1.080811	-0.744518	-0.388067
H282	H	1.580811	-0.244518	0.111933
H283	H	1.086868	-0.877667	-0.301029
H284	H	1.586868	-0.377667	0.198971
H285	H	1.037149	-0.796371	-0.291440
H286	H	1.537149	-0.296371	0.208560
H287	H	0.719751	-0.382540	-0.303673
H288	H	1.219751	0.117460	0.196327
H289	H	0.869378	-1.019668	-0.501457
H290	H	1.369378	-0.519668	-0.001457
H291	H	0.386895	-0.418442	-0.332074
H292	H	0.886895	0.081558	0.167926
C293	C	0.821271	-0.688119	-0.767633
C294	C	1.321271	-0.188119	-0.267633
C295	C	0.860982	-0.641958	-0.814946
C296	C	1.360982	-0.141958	-0.314946
H297	H	0.787950	-0.726844	-0.792965
H298	H	1.287950	-0.226844	-0.292965
H299	H	0.851396	-0.722857	-0.741736
H300	H	1.351396	-0.222857	-0.241736
H301	H	0.797525	-0.645960	-0.736116
H302	H	1.297525	-0.145960	-0.236116
H303	H	0.884732	-0.684117	-0.846460
H304	H	1.384732	-0.184117	-0.346460
H305	H	0.830853	-0.607218	-0.840855
H306	H	1.330853	-0.107218	-0.340855
C307	C	1.135862	-1.114167	-0.256001
C308	C	1.635862	-0.614167	0.243999
C309	C	1.091977	-1.175248	-0.296464
C310	C	1.591977	-0.675248	0.203536
H311	H	1.166111	-1.146249	-0.228143
H312	H	1.666111	-0.646249	0.271857
H313	H	1.163056	-1.080329	-0.286257
H314	H	1.663056	-0.580329	0.213743
H315	H	1.108178	-1.074506	-0.226152
H316	H	1.608178	-0.574506	0.273848
H317	H	1.119661	-1.214905	-0.326317
H318	H	1.619661	-0.714905	0.173683
H319	H	1.064780	-1.209101	-0.266205
H320	H	1.564780	-0.709101	0.233795
C321	C	0.906114	-0.692359	-0.622453
C322	C	1.406114	-0.192359	-0.122453
C323	C	0.867516	-0.634390	-0.660564
C324	C	1.367516	-0.134390	-0.160564
H325	H	0.874906	-0.728634	-0.597873
H326	H	1.374906	-0.228634	-0.097873
H327	H	0.933805	-0.729912	-0.653929
H328	H	1.433805	-0.229912	-0.153929
H329	H	0.935799	-0.657840	-0.589703
H330	H	1.435799	-0.157840	-0.089703
H331	H	0.837835	-0.668909	-0.693318
H332	H	1.337835	-0.168909	-0.193318
H333	H	0.839813	-0.596833	-0.629085
H334	H	1.339813	-0.096833	-0.129085
