data_functionalizedCrystal
_audit_creation_method	'MofGen! by Chris Wilmer'
_symmetry_space_group_name_H-M	'P1'
_symmetry_Int_Tables_number	1
_symmetry_cell_setting	triclinic
loop_
_symmetry_equiv_pos_as_xyz
  x,y,z
_cell_length_a	31.640172
_cell_length_b	31.640171
_cell_length_c	31.640172
_cell_angle_alpha	59.993592
_cell_angle_beta	89.999972
_cell_angle_gamma	59.974735
loop_
_atom_site_label
_atom_site_type_symbol
_atom_site_fract_x
_atom_site_fract_y
_atom_site_fract_z
Zr1	Zr	0.406951	0.462758	-0.055611
O2	O	0.339411	0.550978	-0.123122
O3	O	0.427684	0.374547	-0.034899
O4	O	0.427630	0.462763	-0.123101
O5	O	0.339475	0.462755	0.034637
O6	O	0.497186	0.462756	-0.123104
O7	O	0.339465	0.462762	-0.034920
O8	O	0.497284	0.304954	0.034674
O9	O	0.339378	0.620557	-0.123141
O10	O	0.488401	0.410820	-0.026088
O11	O	0.436500	0.410820	0.025824
O12	O	0.436436	0.514683	-0.078023
O13	O	0.384534	0.514683	-0.026112
Zr14	Zr	0.517901	0.462735	0.055319
Zr15	Zr	0.517885	0.462746	-0.055616
Zr16	Zr	0.406967	0.462746	0.055323
Zr17	Zr	0.406899	0.573728	-0.055642
Zr18	Zr	0.517953	0.351765	0.055349
O19	O	0.497167	0.550945	0.034606
O20	O	0.497145	0.550962	-0.123128
O21	O	0.339433	0.550961	0.034612
O22	O	0.585441	0.374514	0.122829
O23	O	0.585419	0.374531	-0.034905
O24	O	0.427707	0.374530	0.122836
O25	O	0.585377	0.462737	-0.034930
O26	O	0.497222	0.462729	0.122808
O27	O	0.427666	0.462737	0.122811
O28	O	0.585387	0.462730	0.034627
O29	O	0.427556	0.620548	-0.123145
O30	O	0.497296	0.304944	0.122852
O31	O	0.585474	0.304935	0.122848
O32	O	0.585461	0.304945	0.034670
O33	O	0.339391	0.620548	-0.034963
O34	O	0.427568	0.620538	-0.034967
O35	O	0.488416	0.410809	0.077731
O36	O	0.540318	0.410810	0.025819
O37	O	0.488352	0.514672	-0.026116
O38	O	0.436451	0.514672	0.025795
C39	C	0.462491	0.323940	-0.000108
C40	C	0.462514	0.276830	-0.000095
C41	C	0.500773	-0.097744	0.038179
C42	C	0.500819	0.079209	0.038207
O43	O	0.533445	0.069469	0.070795
N44	N	0.462481	0.139692	-0.000118
C45	C	0.424130	0.155937	-0.038456
O46	O	0.391526	0.211442	-0.071057
C47	C	0.424087	-0.021016	-0.038486
C48	C	0.462425	-0.081499	-0.000155
C49	C	0.539108	-0.158224	0.076506
C50	C	0.539094	-0.202460	0.076500
C51	C	0.500746	-0.186215	0.038167
C52	C	0.462411	-0.125734	-0.000161
C53	C	0.385740	-0.004770	-0.076825
C54	C	0.385733	-0.049015	-0.076830
C55	C	0.424071	-0.109498	-0.038499
C56	C	0.424050	-0.153725	-0.038500
N57	N	0.462388	-0.214208	-0.000175
C58	C	0.500736	-0.230453	0.038159
C59	C	0.424155	0.248837	-0.038437
C60	C	0.424165	0.293075	-0.038429
C61	C	0.500855	0.216344	0.038234
C62	C	0.500842	0.172105	0.038228
C63	C	0.462493	0.188354	-0.000111
C64	C	0.500705	-0.323347	0.038144
C65	C	0.500687	-0.367583	0.038136
C66	C	0.423999	-0.290848	-0.038528
C67	C	0.424015	-0.246616	-0.038519
C68	C	0.462373	-0.262870	-0.000180
O69	O	0.391444	-0.144029	-0.071075
O70	O	0.533343	-0.285960	0.070748
C71	C	0.500787	-0.053509	0.038185
C72	C	0.462452	0.006971	-0.000143
C73	C	0.424104	0.023216	-0.038477
C74	C	0.462462	0.051209	-0.000135
C75	C	0.500810	0.034964	0.038198
C76	C	0.539148	-0.025519	0.076524
C77	C	0.539135	-0.069754	0.076518
C78	C	0.385765	0.083700	-0.076802
C79	C	0.385782	0.127932	-0.076793
C80	C	0.424130	0.111687	-0.038459
C81	C	0.323664	0.462760	-0.000141
C82	C	0.276570	0.462765	-0.000139
C83	C	-0.015441	0.462739	-0.038465
C84	C	-0.192428	0.462732	-0.038468
O85	O	-0.215305	0.462709	-0.071045
N86	N	-0.214553	0.462729	-0.000150
C87	C	-0.192427	0.462724	0.038175
O88	O	-0.215303	0.462715	0.070770
C89	C	-0.015439	0.462727	0.038180
C90	C	0.006681	0.462736	-0.000144
C91	C	0.006679	0.462748	-0.076785
C92	C	0.050921	0.462753	-0.076786
C93	C	0.073044	0.462750	-0.038465
C94	C	0.050923	0.462741	-0.000144
C95	C	0.006689	0.462718	0.076506
C96	C	0.050939	0.462717	0.076505
C97	C	0.073059	0.462726	0.038181
C98	C	0.117288	0.462743	0.038176
N99	N	0.139413	0.462746	-0.000143
C100	C	0.117291	0.462749	-0.038463
C101	C	-0.285348	0.462724	0.038168
C102	C	-0.329596	0.462724	0.038167
C103	C	-0.329593	0.462731	-0.038476
C104	C	-0.285347	0.462735	-0.038476
C105	C	-0.263223	0.462727	-0.000150
C106	C	0.210203	0.462761	-0.038461
C107	C	0.254448	0.462768	-0.038459
C108	C	0.254443	0.462759	0.038184
C109	C	0.210200	0.462754	0.038181
C110	C	0.188082	0.462753	-0.000144
O111	O	0.140196	0.462760	0.070738
O112	O	0.140182	0.462745	-0.071047
C113	C	-0.059684	0.462734	-0.038464
C114	C	-0.081804	0.462726	-0.000144
C115	C	-0.059682	0.462723	0.038177
C116	C	-0.126051	0.462726	-0.000145
C117	C	-0.148173	0.462729	-0.038466
C118	C	-0.126048	0.462732	-0.076784
C119	C	-0.081806	0.462737	-0.076785
C120	C	-0.081807	0.462720	0.076496
C121	C	-0.126049	0.462716	0.076492
C122	C	-0.148172	0.462719	0.038172
C123	C	0.601188	0.462732	-0.000152
C124	C	0.648282	0.462727	-0.000154
C125	C	0.462406	0.462761	-0.138908
C126	C	0.462399	0.462766	-0.186003
C127	C	0.462360	0.601553	-0.000185
C128	C	0.462338	0.648662	-0.000198
C129	C	0.500755	0.462731	-0.478010
C130	C	0.500766	0.462724	-0.654996
O131	O	0.533369	0.462694	-0.677870
N132	N	0.462447	0.462729	-0.677125
C133	C	0.424123	0.462732	-0.655003
O134	O	0.391533	0.462730	-0.677883
C135	C	0.424114	0.462735	-0.478015
C136	C	0.462433	0.462736	-0.455892
C137	C	0.539071	0.462732	-0.455886
C138	C	0.539066	0.462737	-0.411643
C139	C	0.500745	0.462742	-0.389525
C140	C	0.462429	0.462742	-0.411649
C141	C	0.385793	0.462734	-0.455892
C142	C	0.385795	0.462734	-0.411641
C143	C	0.424115	0.462735	-0.389518
C144	C	0.424102	0.462752	-0.345289
N145	N	0.462422	0.462747	-0.323160
C146	C	0.500743	0.462742	-0.345278
C147	C	0.424130	0.462731	-0.747925
C148	C	0.424131	0.462731	-0.792172
C149	C	0.500775	0.462722	-0.792161
C150	C	0.500771	0.462726	-0.747915
C151	C	0.462450	0.462726	-0.725795
C152	C	0.500730	0.462753	-0.252366
C153	C	0.500721	0.462761	-0.208121
C154	C	0.424078	0.462767	-0.208134
C155	C	0.424086	0.462763	-0.252377
C156	C	0.462416	0.462754	-0.274491
O157	O	0.391520	0.462775	-0.322384
O158	O	0.533335	0.462731	-0.322383
C159	C	0.500760	0.462726	-0.522252
C160	C	0.462443	0.462726	-0.544376
C161	C	0.424122	0.462731	-0.522258
C162	C	0.462445	0.462726	-0.588623
C163	C	0.500766	0.462721	-0.610742
C164	C	0.539086	0.462716	-0.588612
C165	C	0.539081	0.462721	-0.544370
C166	C	0.385802	0.462736	-0.544387
C167	C	0.385810	0.462731	-0.588630
C168	C	0.424131	0.462727	-0.610748
C169	C	0.462446	0.462731	0.138616
C170	C	0.462453	0.462726	0.185710
C171	C	0.601253	0.323925	-0.000114
C172	C	0.648370	0.276811	-0.000103
C173	C	0.462511	0.323925	0.138654
C174	C	0.462541	0.276810	0.185761
C175	C	0.601273	0.323911	0.138648
C176	C	0.648397	0.276791	0.185754
C177	C	0.323579	0.601582	-0.138941
C178	C	0.276455	0.648701	-0.186047
C179	C	0.323599	0.601567	-0.000179
C180	C	0.276482	0.648681	-0.000190
C181	C	0.462340	0.601567	-0.138947
C182	C	0.462311	0.648682	-0.186054
C183	C	0.643396	0.254691	-0.027197
C184	C	0.687663	0.210428	-0.027197
C185	C	0.736903	0.188283	-0.000099
C186	C	0.741876	0.210407	0.026996
C187	C	0.697609	0.254672	0.026993
C188	C	0.489654	0.254679	0.234983
C189	C	0.489679	0.210416	0.279250
C190	C	0.462594	0.188282	0.274294
C191	C	0.435477	0.210417	0.225067
C192	C	0.435449	0.254683	0.180801
C193	C	0.697623	0.254663	0.180778
C194	C	0.741905	0.210396	0.225035
C195	C	0.736959	0.188254	0.274267
C196	C	0.687727	0.210386	0.279241
C197	C	0.643447	0.254656	0.234985
C198	C	0.227229	0.670834	-0.181071
C199	C	0.182947	0.715116	-0.225328
C200	C	0.187893	0.737260	-0.274559
C201	C	0.237124	0.715125	-0.279534
C202	C	0.281405	0.670848	-0.235278
C203	C	0.281455	0.670806	0.026899
C204	C	0.237189	0.715081	0.026887
C205	C	0.187949	0.737228	-0.000212
C206	C	0.182976	0.715102	-0.027305
C207	C	0.227243	0.670830	-0.027296
C208	C	0.489402	0.670802	-0.181082
C209	C	0.489385	0.715065	-0.225340
C210	C	0.462274	0.737211	-0.274570
C211	C	0.435182	0.715087	-0.279542
C212	C	0.435203	0.670821	-0.235284
H213	H	0.531939	-0.336590	0.069363
F214	F	0.784092	0.141137	0.321364
F215	F	0.186655	0.462754	0.078966
F216	F	0.242380	0.738698	-0.331935
F217	F	0.406326	0.738666	-0.331941
F218	F	0.794296	0.186847	0.219729
F219	F	0.130556	0.738664	-0.220022
H220	H	0.462261	0.773255	-0.310604
H221	H	0.151833	0.773314	-0.310591
H222	H	0.701666	0.272676	0.049059
H223	H	0.570279	0.462726	-0.473889
H224	H	0.241247	0.733089	0.048951
F225	F	0.406363	0.647288	-0.240585
F226	F	0.518543	0.186864	0.331636
F227	F	0.590996	0.278253	-0.056042
F228	F	0.130568	0.738677	-0.056143
F229	F	0.462629	0.141170	0.321411
F230	F	0.579900	-0.266828	0.117297
F231	F	0.541556	0.462726	-0.724373
F232	F	0.702899	0.278223	0.128386
F233	F	0.518218	0.738606	-0.220038
H234	H	0.321486	0.652827	-0.239336
H235	H	0.354557	0.177181	-0.108006
F236	F	0.221942	0.647285	-0.056127
F237	F	0.682472	0.186814	0.331642
H238	H	0.772943	0.152239	-0.000100
H239	H	0.532060	0.122859	0.069440
F240	F	-0.353138	0.462725	0.078951
H241	H	0.683605	0.192420	-0.049261
F242	F	0.541491	-0.431955	0.078936
F243	F	0.591058	0.278198	0.240289
H244	H	0.413425	0.192389	0.221039
H245	H	0.413372	0.272696	0.140724
H246	H	0.223192	0.652807	-0.140988
H247	H	0.392775	-0.277630	-0.069737
F248	F	0.579927	-0.175526	0.117310
F249	F	0.383356	0.357444	-0.079220
H250	H	-0.063799	0.462745	-0.107992
H251	H	0.511710	0.272696	0.239029
H252	H	0.392879	0.462771	-0.270394
H253	H	0.511479	0.652778	-0.141000
H254	H	0.151908	0.773277	-0.000216
F255	F	0.541668	0.199062	0.079031
H256	H	0.570353	-0.119000	0.107731
H257	H	0.392925	0.262077	-0.069658
H258	H	0.570371	-0.038739	0.107738
F259	F	0.794284	0.186831	0.055835
H260	H	0.570270	0.462735	-0.393631
F261	F	0.344934	0.059594	-0.117623
F262	F	0.277986	0.462780	-0.079252
F263	F	0.344917	-0.031716	-0.117638
H264	H	0.321545	0.652777	0.048970
H265	H	0.392785	-0.197366	-0.069718
F266	F	-0.261809	0.462743	-0.079265
F267	F	0.186670	0.462760	-0.079252
F268	F	0.344947	0.100999	-0.117604
H269	H	0.068930	0.462758	-0.107991
F270	F	-0.016858	0.462750	-0.117574
H271	H	-0.267338	0.462718	0.069379
F272	F	-0.353145	0.462734	-0.079259
H273	H	-0.011315	0.462710	0.107713
H274	H	0.068951	0.462709	0.107716
H275	H	-0.144069	0.462738	-0.107988
F276	F	0.277993	0.462757	0.078965
H277	H	-0.144059	0.462713	0.107700
F278	F	-0.058267	0.462717	0.117283
F279	F	0.541506	0.462764	-0.184578
H280	H	0.531943	0.462745	-0.270366
H281	H	0.531978	0.462719	-0.810178
H282	H	0.392924	0.462740	-0.810187
H283	H	0.392922	0.462732	-0.729918
F284	F	0.345009	0.462732	-0.479429
H285	H	0.354590	0.462732	-0.393632
H286	H	0.392876	0.462774	-0.190120
H287	H	0.570287	0.462715	-0.606630
F288	F	0.579866	0.462722	-0.520829
H289	H	0.354597	0.462739	-0.526381
F290	F	0.345020	0.462735	-0.612173
