data_functionalizedCrystal
_audit_creation_method	'MofGen! by Chris Wilmer'
_symmetry_space_group_name_H-M	'P1'
_symmetry_Int_Tables_number	1
_symmetry_cell_setting	triclinic
loop_
_symmetry_equiv_pos_as_xyz
  x,y,z
_cell_length_a	16.974810
_cell_length_b	10.489741
_cell_length_c	9.565339
_cell_angle_alpha	89.999484
_cell_angle_beta	93.653544
_cell_angle_gamma	96.035679
loop_
_atom_site_label
_atom_site_type_symbol
_atom_site_fract_x
_atom_site_fract_y
_atom_site_fract_z
O1	O	-1.050071	0.162502	-0.002603
O2	O	-0.819983	0.183220	0.023445
O3	O	-0.940263	-0.012824	0.009820
O4	O	-0.929792	0.358545	0.011022
O5	O	-0.940253	-0.012812	-0.222699
O6	O	-0.819973	0.183232	-0.209074
O7	O	-1.050062	0.162514	-0.235122
Zn8	Zn	-0.935016	0.172875	-0.259016
Zn9	Zn	-0.935029	0.172859	0.047338
O10	O	-0.929782	0.358558	-0.221497
C11	C	-0.790515	0.182440	-0.089480
C12	C	-0.702725	0.180082	-0.079541
C13	C	-0.661481	0.178978	-0.201622
C14	C	-0.578994	0.176742	-0.192288
C15	C	-0.537753	0.175620	-0.060872
C16	C	-0.579003	0.176720	0.061217
C17	C	-0.661489	0.178947	0.051882
C18	C	-0.291058	0.168952	-0.019361
C19	C	-0.208566	0.166729	-0.010035
C20	C	-0.208563	0.166749	-0.263541
C21	C	-0.291050	0.168983	-0.272865
C22	C	-0.332293	0.170076	-0.150776
N23	N	-0.453438	0.173339	-0.051328
N24	N	-0.416607	0.172348	-0.160321
C25	C	-0.939467	-0.060337	-0.106349
C26	C	-0.937101	-0.201927	-0.106079
C27	C	-0.860571	-0.268795	-0.097405
C28	C	-0.896718	-0.361512	-0.216142
C29	C	-0.896746	-0.361499	0.013102
C30	C	-0.973280	-0.292780	-0.224914
C31	C	-0.973297	-0.292757	0.004434
C32	C	-1.009500	-0.385448	-0.114337
C33	C	-0.079530	0.163287	-0.122192
C34	C	-0.167322	0.165625	-0.132115
C35	C	-0.930578	0.406070	-0.105325
C36	C	-0.932944	0.547660	-0.105586
N37	N	-0.935013	0.172885	-0.468095
C38	C	-0.879371	0.263519	-0.552995
C39	C	-0.950963	0.288139	-0.654277
C40	C	-0.863453	0.148274	-0.644371
C41	C	-1.006641	0.197562	-0.567329
C42	C	-0.919084	0.057648	-0.557410
C43	C	-0.990727	0.082219	-0.658656
N44	N	-0.935038	0.172838	0.256417
H45	H	-0.545418	0.175822	-0.291699
H46	H	-1.072480	-0.435919	-0.121530
O47	O	-0.164086	0.165516	0.131718
H48	H	-0.099798	0.163801	0.117693
O49	O	-1.016134	-0.252669	-0.358301
H50	H	-0.975462	-0.185116	-0.416256
H51	H	-0.324629	0.169838	0.080053
H52	H	-0.832359	0.340235	-0.506815
H53	H	-0.545419	0.175797	0.168219
H54	H	-0.324623	0.169891	-0.379877
H55	H	-0.964452	0.385572	-0.696767
O56	O	-0.164033	0.166216	-0.395212
H57	H	-0.099730	0.164709	-0.366647
O58	O	-1.086840	0.225256	-0.522395
H59	H	-1.100136	0.320575	-0.562176
O60	O	-1.053132	-0.019336	-0.719532
H61	H	-1.112450	0.001386	-0.688701
O62	O	-0.853840	-0.401840	0.146336
H63	H	-0.894663	-0.468755	0.204735
H64	H	-1.005655	-0.262255	0.097700
O65	O	-0.777227	-0.201623	-0.088130
H66	H	-0.779731	-0.096317	-0.087438
H67	H	-0.695069	0.179848	0.151293
H68	H	-0.905572	-0.039754	-0.514885
O69	O	-0.783281	0.120710	-0.689557
H70	H	-0.737194	0.196094	-0.647056
H71	H	-0.864332	-0.391980	-0.309399
O72	O	-0.705961	0.180205	-0.343364
H73	H	-0.663420	0.179055	-0.426684
