data_functionalizedCrystal
_audit_creation_method	'MofGen! by Chris Wilmer'
_symmetry_space_group_name_H-M	'P1'
_symmetry_Int_Tables_number	1
_symmetry_cell_setting	triclinic
loop_
_symmetry_equiv_pos_as_xyz
  x,y,z
_cell_length_a	10.654549
_cell_length_b	10.654551
_cell_length_c	9.730223
_cell_angle_alpha	89.997362
_cell_angle_beta	89.997731
_cell_angle_gamma	84.485103
loop_
_atom_site_label
_atom_site_type_symbol
_atom_site_fract_x
_atom_site_fract_y
_atom_site_fract_z
O1	O	1.667840	0.176396	-0.114252
O2	O	1.302362	0.193203	-0.114262
O3	O	1.493503	0.002060	-0.114254
O4	O	1.476699	0.367539	-0.114260
O5	O	1.493491	0.002055	0.114326
O6	O	1.302349	0.193198	0.114318
O7	O	1.667828	0.176391	0.114328
Zn8	Zn	1.485087	0.184793	0.150615
Zn9	Zn	1.485103	0.184800	-0.150549
O10	O	1.476686	0.367533	0.114320
C11	C	1.255557	0.191966	0.000027
C12	C	1.116114	0.188275	0.000024
C13	C	0.905600	0.297338	0.000027
C14	C	1.036621	0.300816	0.000019
C15	C	1.064581	0.072247	0.000023
C16	C	0.933563	0.068770	0.000021
C17	C	1.492263	-0.044740	0.000034
C18	C	1.488570	-0.184183	0.000027
C19	C	1.486844	-0.249684	-0.124573
C20	C	1.483364	-0.380705	-0.124574
C21	C	1.483342	-0.380712	0.124636
C22	C	1.486813	-0.249693	0.124636
C23	C	1.714632	0.177628	0.000036
C24	C	1.854075	0.181319	0.000030
C25	C	1.477927	0.414334	0.000029
C26	C	1.481619	0.553777	0.000026
N27	N	1.485085	0.184788	0.356151
N28	N	1.485115	0.184796	-0.356085
C29	C	1.569751	0.100186	0.428081
C30	C	1.569764	0.100187	0.571964
C31	C	1.400439	0.269402	0.571975
C32	C	1.400421	0.269394	0.428095
H33	H	1.129316	-0.019386	0.000018
H34	H	1.331510	0.338288	0.630566
H35	H	1.638687	0.031293	0.369508
O36	O	1.086724	0.413489	-0.000235
C37	C	1.218458	0.550044	-0.118646
C38	C	1.161782	0.422404	-0.118535
H39	H	1.279176	0.557282	-0.214266
H40	H	1.139181	0.629928	-0.118735
H41	H	1.279049	0.557380	-0.022950
H42	H	1.101205	0.414945	-0.214214
H43	H	1.241120	0.342582	-0.118374
H44	H	1.638705	0.031295	0.630525
O45	O	1.481855	-0.444490	-0.245524
C46	C	1.586597	-0.605637	-0.390188
C47	C	1.588448	-0.533521	-0.253144
H48	H	1.672782	-0.677617	-0.396406
H49	H	1.497290	-0.656335	-0.396450
H50	H	1.588388	-0.536273	-0.479218
H51	H	1.586705	-0.602800	-0.164035
H52	H	1.677748	-0.482803	-0.247002
H53	H	0.840884	0.388983	0.000034
O54	O	1.318126	0.351704	0.358426
C55	C	1.150128	0.519491	0.373609
C56	C	1.243278	0.426374	0.452679
H57	H	1.089571	0.579868	0.449778
H58	H	1.204818	0.582819	0.306264
H59	H	1.086974	0.464649	0.306232
H60	H	1.306454	0.481114	0.520132
H61	H	1.188509	0.363046	0.519937
H62	H	1.488271	-0.196350	-0.226037
H63	H	1.481914	-0.434067	0.226088
O64	O	0.883712	-0.044046	0.000086
C65	C	0.925260	-0.270389	0.000003
C66	C	0.981884	-0.142722	-0.000030
H67	H	1.004605	-0.350203	-0.000120
H68	H	0.864658	-0.277817	0.095684
H69	H	0.864583	-0.277655	-0.095637
H70	H	1.042620	-0.135370	0.095546
H71	H	1.042414	-0.135349	-0.095774
H72	H	1.488211	-0.196360	0.226107
