data_functionalizedCrystal
_audit_creation_method	'MofGen! by Chris Wilmer'
_symmetry_space_group_name_H-M	'P1'
_symmetry_Int_Tables_number	1
_symmetry_cell_setting	triclinic
loop_
_symmetry_equiv_pos_as_xyz
  x,y,z
_cell_length_a	16.974800
_cell_length_b	16.992695
_cell_length_c	15.455313
_cell_angle_alpha	92.847427
_cell_angle_beta	90.973911
_cell_angle_gamma	87.021674
loop_
_atom_site_label
_atom_site_type_symbol
_atom_site_fract_x
_atom_site_fract_y
_atom_site_fract_z
O1	O	1.055370	0.099968	0.001980
O2	O	0.826692	0.111944	-0.014081
O3	O	0.940114	-0.008189	-0.006108
O4	O	0.941948	0.220100	-0.005993
O5	O	0.933626	-0.001347	0.137698
O6	O	0.820204	0.118785	0.129725
O7	O	1.048882	0.106809	0.145786
Cu8	Cu	0.933951	0.113422	0.150886
Cu9	Cu	0.941623	0.105331	-0.019181
O10	O	0.935460	0.226941	0.137813
C11	C	0.794052	0.114783	0.055758
C12	C	0.706461	0.113043	0.049607
C13	C	0.661778	0.115953	0.125107
C14	C	0.579478	0.114306	0.119330
C15	C	0.541861	0.109754	0.038051
C16	C	0.586550	0.106842	-0.037456
C17	C	0.668849	0.108483	-0.031677
C18	C	0.296102	0.104438	0.012363
C19	C	0.213796	0.102799	0.006591
C20	C	0.206730	0.110262	0.163377
C21	C	0.289031	0.111908	0.169148
C22	C	0.333713	0.108991	0.093642
N23	N	0.457736	0.108072	0.032143
N24	N	0.417836	0.110667	0.099550
C25	C	0.934511	-0.033986	0.065629
C26	C	0.927474	-0.121046	0.065135
C27	C	0.995375	-0.171136	0.069905
C28	C	0.988758	-0.252938	0.069432
C29	C	0.914240	-0.284647	0.064195
C30	C	0.846334	-0.234550	0.059423
C31	C	0.852952	-0.152750	0.059889
C32	C	0.886813	-0.528306	0.062257
C33	C	0.880200	-0.610112	0.061793
C34	C	1.022624	-0.628494	0.071801
C35	C	1.029235	-0.546692	0.072272
C36	C	0.961330	-0.496602	0.067495
N37	N	0.907475	-0.368261	0.063714
N38	N	0.968096	-0.412990	0.067970
C39	C	1.081522	0.103969	0.075945
C40	C	1.169114	0.105709	0.082091
C41	C	0.941063	0.252738	0.066074
C42	C	0.948100	0.339798	0.066563
N43	N	0.928560	0.119112	0.270503
N44	N	0.947020	0.099635	-0.138797
C45	C	0.976765	0.068094	0.319285
C46	C	0.972696	0.072404	0.409807
C47	C	0.920425	0.127737	0.451545
C48	C	0.872215	0.178757	0.402756
C49	C	0.876281	0.174442	0.312236
C50	C	0.902875	0.146340	0.721893
C51	C	0.898815	0.150652	0.812420
C52	C	0.999295	0.044298	0.819465
C53	C	1.003359	0.039992	0.728943
C54	C	0.955146	0.091009	0.680161
N55	N	0.916267	0.132146	0.544073
N56	N	0.959302	0.086596	0.587635
H57	H	0.332472	0.102061	-0.049119
H58	H	0.863620	0.187881	0.682182
Cl59	Cl	0.801445	-0.465347	0.056249
H60	H	1.077909	-0.669285	0.075688
H61	H	0.829652	0.223807	0.436744
H62	H	0.819515	-0.635925	0.057543
H63	H	0.785660	-0.260374	0.055154
H64	H	0.837026	0.215985	0.272517
H65	H	0.797660	-0.111967	0.056005
H66	H	0.543102	0.116662	0.180811
H67	H	1.045922	-0.005064	0.694962
H68	H	0.692399	0.119666	0.191293
H69	H	0.555916	0.103130	-0.103635
Cl70	Cl	1.074123	-0.315906	0.075431
Cl71	Cl	0.150555	0.113924	0.258292
Cl72	Cl	0.336314	0.117636	0.271331
Cl73	Cl	0.166507	0.097079	-0.095597
Cl74	Cl	0.725022	0.104821	-0.126597
Cl75	Cl	1.059899	-0.019836	0.880794
H76	H	1.019332	0.023040	0.285309
Cl77	Cl	1.033296	0.008266	0.471136
H78	H	0.856248	0.195714	0.846399
H79	H	1.056055	-0.145325	0.074174
H80	H	1.089916	-0.520881	0.076536
