data_functionalizedCrystal
_audit_creation_method	'MofGen! by Chris Wilmer'
_symmetry_space_group_name_H-M	'P1'
_symmetry_Int_Tables_number	1
_symmetry_cell_setting	triclinic
loop_
_symmetry_equiv_pos_as_xyz
  x,y,z
_cell_length_a	14.971486
_cell_length_b	10.654550
_cell_length_c	9.730223
_cell_angle_alpha	90.001917
_cell_angle_beta	89.993519
_cell_angle_gamma	95.950470
loop_
_atom_site_label
_atom_site_type_symbol
_atom_site_fract_x
_atom_site_fract_y
_atom_site_fract_z
O1	O	0.125633	-1.666494	-0.114188
O2	O	0.137602	-1.300888	-0.114213
O3	O	0.001471	-1.493490	-0.114190
O4	O	0.261765	-1.473892	-0.114211
O5	O	0.001463	-1.493472	0.114390
O6	O	0.137594	-1.300869	0.114366
O7	O	0.125625	-1.666476	0.114392
Zn8	Zn	0.131608	-1.483669	0.150671
Zn9	Zn	0.131619	-1.483694	-0.150493
O10	O	0.261756	-1.473873	0.114369
C11	C	-0.031863	-1.492604	0.000099
C12	C	-0.131174	-1.489978	0.000098
C13	C	0.136720	-1.254090	0.000073
C14	C	0.134090	-1.114675	0.000064
C15	C	0.126508	-1.713274	0.000102
C16	C	0.129137	-1.852689	0.000102
C17	C	-0.187783	-1.603127	0.000107
C18	C	-0.281096	-1.600651	0.000093
C19	C	-0.317798	-1.485026	0.000080
C20	C	-0.261181	-1.371868	0.000067
C21	C	-0.167870	-1.374345	0.000071
C22	C	-0.455672	-1.366714	0.000061
C23	C	-0.548989	-1.364237	0.000060
C24	C	-0.568898	-1.593020	0.000083
C25	C	-0.475587	-1.595497	0.000087
C26	C	-0.418976	-1.482339	0.000077
C27	C	0.295090	-1.474759	0.000076
C28	C	0.394401	-1.477385	0.000069
N29	N	0.131601	-1.483662	0.356208
C30	C	0.214242	-1.034329	0.000061
C31	C	0.211766	-0.903335	0.000086
C32	C	0.048979	-0.933044	0.000109
C33	C	0.051456	-1.064036	0.000095
C34	C	0.076861	-1.407449	0.572070
C35	C	0.076849	-1.407434	0.428187
C36	C	0.186362	-1.559919	0.428119
C37	C	0.186369	-1.559939	0.571999
N38	N	0.131620	-1.483697	0.643971
H39	H	-0.157909	-1.697282	0.000126
H40	H	-0.409581	-1.274568	0.000049
H41	H	-0.018299	-0.891798	0.000142
H42	H	0.230961	-1.622037	0.630543
Cl43	Cl	0.312534	-0.802334	0.000084
Cl44	Cl	0.008010	-1.311567	0.337802
Cl45	Cl	-0.352260	-1.742903	0.000108
H46	H	0.230937	-1.621991	0.369502
H47	H	-0.121779	-1.282207	0.000063
H48	H	-0.445708	-1.689649	0.000108
Cl49	Cl	0.008031	-1.311607	0.662543
Cl50	Cl	-0.049315	-1.165050	0.000109
Cl51	Cl	-0.307320	-1.226509	0.000033
H52	H	-0.578868	-1.270084	0.000071
Cl53	Cl	0.318124	-1.097985	0.000031
H54	H	-0.614995	-1.685158	0.000087
