data_functionalizedCrystal
_audit_creation_method	'MofGen! by Chris Wilmer'
_symmetry_space_group_name_H-M	'P1'
_symmetry_Int_Tables_number	1
_symmetry_cell_setting	triclinic
loop_
_symmetry_equiv_pos_as_xyz
  x,y,z
_cell_length_a	18.050591
_cell_length_b	18.050590
_cell_length_c	18.101389
_cell_angle_alpha	89.980851
_cell_angle_beta	89.985365
_cell_angle_gamma	90.017393
loop_
_atom_site_label
_atom_site_type_symbol
_atom_site_fract_x
_atom_site_fract_y
_atom_site_fract_z
Zn1	Zn	1.135372	-0.295760	-0.418643
Zn2	Zn	1.385372	-0.045760	-0.168643
Zn3	Zn	1.635372	0.204240	0.081357
Zn4	Zn	1.885372	0.454240	0.331357
Zn5	Zn	1.135295	-0.419935	-0.294800
Zn6	Zn	1.385295	-0.169935	-0.044800
Zn7	Zn	1.635295	0.080065	0.205200
Zn8	Zn	1.885295	0.330065	0.455200
Zn9	Zn	1.011183	-0.295760	-0.294826
Zn10	Zn	1.261183	-0.045760	-0.044826
Zn11	Zn	1.511183	0.204240	0.205174
Zn12	Zn	1.761183	0.454240	0.455174
Zn13	Zn	1.011160	-0.419910	-0.418610
Zn14	Zn	1.261160	-0.169910	-0.168610
Zn15	Zn	1.511160	0.080090	0.081390
Zn16	Zn	1.761160	0.330090	0.331390
O17	O	1.073253	-0.357841	-0.356720
O18	O	1.323253	-0.107841	-0.106720
O19	O	1.573253	0.142159	0.143280
O20	O	1.823253	0.392159	0.393280
O21	O	1.239287	-0.312242	-0.402219
O22	O	1.489287	-0.062242	-0.152219
O23	O	1.739287	0.187758	0.097781
O24	O	1.989287	0.437758	0.347781
O25	O	1.118808	-0.403473	-0.191171
O26	O	1.368808	-0.153473	0.058829
O27	O	1.618808	0.096527	0.308829
O28	O	1.868808	0.346527	0.558829
O29	O	1.027698	-0.191836	-0.311275
O30	O	1.277698	0.058164	-0.061275
O31	O	1.527698	0.308164	0.188725
O32	O	1.777698	0.558164	0.438725
O33	O	1.239230	-0.403473	-0.311232
O34	O	1.489230	-0.153473	-0.061232
O35	O	1.739230	0.096527	0.188768
O36	O	1.989230	0.346527	0.438768
O37	O	1.118940	-0.191836	-0.402243
O38	O	1.368940	0.058164	-0.152243
O39	O	1.618940	0.308164	0.097757
O40	O	1.868940	0.558164	0.347757
O41	O	1.027623	-0.312242	-0.191189
O42	O	1.277623	-0.062242	0.058811
O43	O	1.527623	0.187758	0.308811
O44	O	1.777623	0.437758	0.558811
O45	O	0.907255	-0.312219	-0.311242
O46	O	1.157255	-0.062219	-0.061242
O47	O	1.407255	0.187781	0.188758
O48	O	1.657255	0.437781	0.438758
O49	O	1.027660	-0.403432	-0.522247
O50	O	1.277660	-0.153432	-0.272247
O51	O	1.527660	0.096568	-0.022247
O52	O	1.777660	0.346568	0.227753
O53	O	0.907239	-0.403432	-0.402186
O54	O	1.157239	-0.153432	-0.152186
O55	O	1.407239	0.096568	0.097814
O56	O	1.657239	0.346568	0.347814
O57	O	1.118918	-0.312219	-0.522272
O58	O	1.368918	-0.062219	-0.272272
O59	O	1.618918	0.187781	-0.022272
O60	O	1.868918	0.437781	0.227728
O61	O	1.118787	-0.523856	-0.311199
O62	O	1.368787	-0.273856	-0.061199
O63	O	1.618787	-0.023856	0.188801
O64	O	1.868787	0.226144	0.438801
O65	O	1.027586	-0.523838	-0.402162
O66	O	1.277586	-0.273838	-0.152162
O67	O	1.527586	-0.023838	0.097838
O68	O	1.777586	0.226162	0.347838
C69	C	0.880301	-0.357823	-0.356714
C70	C	1.130301	-0.107823	-0.106714
C71	C	1.380301	0.142177	0.143286
C72	C	1.630301	0.392177	0.393286
C73	C	0.797755	-0.357833	-0.356729
C74	C	1.047755	-0.107833	-0.106729
C75	C	1.297755	0.142167	0.143271
C76	C	1.547755	0.392167	0.393271
C77	C	0.548942	-0.407537	-0.406117
C78	C	0.798942	-0.157537	-0.156117
C79	C	1.048942	0.092463	0.093883
C80	C	1.298942	0.342463	0.343883
C81	C	0.598310	-0.425603	-0.338521
C82	C	0.848310	-0.175603	-0.088521
C83	C	1.098310	0.074397	0.161479
C84	C	1.348310	0.324397	0.411479
C85	C	0.500634	-0.357857	-0.356727
C86	C	0.750634	-0.107857	-0.106727
C87	C	1.000634	0.142143	0.143273
C88	C	1.250634	0.392143	0.393273
C89	C	0.598348	-0.339814	-0.424320
C90	C	0.848348	-0.089814	-0.174320
C91	C	1.098348	0.160186	0.075680
C92	C	1.348348	0.410186	0.325680
C93	C	0.646619	-0.357847	-0.356732
C94	C	0.896619	-0.107847	-0.106732
C95	C	1.146619	0.142153	0.143268
C96	C	1.396619	0.392153	0.393268
C97	C	0.548915	-0.375958	-0.289096
C98	C	0.798915	-0.125958	-0.039096
C99	C	1.048915	0.124042	0.210904
C100	C	1.298915	0.374042	0.460904
C101	C	0.548949	-0.290137	-0.374941
C102	C	0.798949	-0.040137	-0.124941
C103	C	1.048949	0.209863	0.125059
C104	C	1.298949	0.459863	0.375059
C105	C	0.598295	-0.308177	-0.307298
C106	C	0.848295	-0.058177	-0.057298
C107	C	1.098295	0.191823	0.192702
C108	C	1.348295	0.441823	0.442702
C109	C	0.416536	-0.357864	-0.356726
C110	C	0.666536	-0.107864	-0.106726
C111	C	0.916536	0.142136	0.143274
C112	C	1.166536	0.392136	0.393274
C113	C	0.730716	-0.357840	-0.356725
C114	C	0.980716	-0.107840	-0.106725
C115	C	1.230716	0.142160	0.143275
C116	C	1.480716	0.392160	0.393275
C117	C	1.073196	-0.550794	-0.356690
C118	C	1.323196	-0.300794	-0.106690
C119	C	1.573196	-0.050794	0.143310
C120	C	1.823196	0.199206	0.393310
C121	C	1.073239	-0.633339	-0.356702
C122	C	1.323239	-0.383339	-0.106702
C123	C	1.573239	-0.133339	0.143298
C124	C	1.823239	0.116661	0.393298
C125	C	1.122937	-0.832773	-0.307306
C126	C	1.372937	-0.582773	-0.057306
C127	C	1.622937	-0.332773	0.192694
C128	C	1.872937	-0.082773	0.442694
C129	C	1.141078	-0.882116	-0.374895
C130	C	1.391078	-0.632116	-0.124895
C131	C	1.641078	-0.382116	0.125105
C132	C	1.891078	-0.132116	0.375105
C133	C	1.073281	-0.784470	-0.356732
C134	C	1.323281	-0.534470	-0.106732
C135	C	1.573281	-0.284470	0.143268
C136	C	1.823281	-0.034470	0.393268
C137	C	1.055217	-0.882207	-0.289174
C138	C	1.305217	-0.632207	-0.039174
C139	C	1.555217	-0.382207	0.210826
C140	C	1.805217	-0.132207	0.460826
C141	C	1.073323	-0.930455	-0.356755
C142	C	1.323323	-0.680455	-0.106755
C143	C	1.573323	-0.430455	0.143245
C144	C	1.823323	-0.180455	0.393245
C145	C	1.091456	-0.832726	-0.424356
C146	C	1.341456	-0.582726	-0.174356
C147	C	1.591456	-0.332726	0.075644
C148	C	1.841456	-0.082726	0.325644
C149	C	1.005564	-0.832813	-0.338590
C150	C	1.255564	-0.582813	-0.088590
C151	C	1.505564	-0.332813	0.161410
C152	C	1.755564	-0.082813	0.411410
C153	C	1.023678	-0.882134	-0.406225
C154	C	1.273678	-0.632134	-0.156225
C155	C	1.523678	-0.382134	0.093775
C156	C	1.773678	-0.132134	0.343775
C157	C	1.073259	-0.700371	-0.356718
C158	C	1.323259	-0.450371	-0.106718
C159	C	1.573259	-0.200371	0.143282
C160	C	1.823259	0.049629	0.393282
C161	C	1.073346	-1.014551	-0.356776
C162	C	1.323346	-0.764551	-0.106776
C163	C	1.573346	-0.514551	0.143224
C164	C	1.823346	-0.264551	0.393224
C165	C	1.266958	-0.357860	-0.356726
C166	C	1.516958	-0.107860	-0.106726
C167	C	1.766958	0.142140	0.143274
C168	C	2.016958	0.392140	0.393274
C169	C	1.349504	-0.357868	-0.356729
C170	C	1.599504	-0.107868	-0.106729
C171	C	1.849504	0.142132	0.143271
C172	C	2.099504	0.392132	0.393271
C173	C	1.073296	-0.357823	-0.549882
C174	C	1.323296	-0.107823	-0.299882
C175	C	1.573296	0.142177	-0.049882
C176	C	1.823296	0.392177	0.200118
C177	C	1.073314	-0.357815	-0.632196
C178	C	1.323314	-0.107815	-0.382196
C179	C	1.573314	0.142185	-0.132196
C180	C	1.823314	0.392185	0.117804
C181	C	1.073330	-0.164136	-0.356766
C182	C	1.323330	0.085864	-0.106766
C183	C	1.573330	0.335864	0.143234
C184	C	1.823330	0.585864	0.393234
C185	C	1.073363	-0.081590	-0.356785
C186	C	1.323363	0.168410	-0.106785
C187	C	1.573363	0.418410	0.143215
C188	C	1.823363	0.668410	0.393215
C189	C	1.073357	-0.357675	-0.931287
C190	C	1.323357	-0.107675	-0.681287
C191	C	1.573357	0.142325	-0.431287
C192	C	1.823357	0.392325	-0.181287
C193	C	1.015742	-0.414881	-0.899946
C194	C	1.265742	-0.164881	-0.649946
C195	C	1.515742	0.085119	-0.399946
C196	C	1.765742	0.335119	-0.149946
C197	C	1.015898	-0.415147	-0.814328
C198	C	1.265898	-0.165147	-0.564328
C199	C	1.515898	0.084853	-0.314328
C200	C	1.765898	0.334853	-0.064328
C201	C	1.073335	-0.357745	-0.782904
C202	C	1.323335	-0.107745	-0.532904
C203	C	1.573335	0.142255	-0.282904
C204	C	1.823335	0.392255	-0.032904
C205	C	1.151585	-0.378990	-0.813997
C206	C	1.401585	-0.128990	-0.563997
C207	C	1.651585	0.121010	-0.313997
C208	C	1.901585	0.371010	-0.063997
C209	C	1.151264	-0.379365	-0.899642
C210	C	1.401264	-0.129365	-0.649642
C211	C	1.651264	0.120635	-0.399642
C212	C	1.901264	0.370635	-0.149642
C213	C	1.053402	-0.279097	-0.899716
C214	C	1.303402	-0.029097	-0.649716
C215	C	1.553402	0.220903	-0.399716
C216	C	1.803402	0.470903	-0.149716
C217	C	1.051662	-0.279551	-0.814065
C218	C	1.301662	-0.029551	-0.564065
C219	C	1.551662	0.220449	-0.314065
C220	C	1.801662	0.470449	-0.064065
C221	C	1.073327	-0.357782	-0.699045
C222	C	1.323327	-0.107782	-0.449045
C223	C	1.573327	0.142218	-0.199045
C224	C	1.823327	0.392218	0.050955
C225	C	1.073370	-0.357639	-1.015147
C226	C	1.323370	-0.107639	-0.765147
C227	C	1.573370	0.142361	-0.515147
C228	C	1.823370	0.392361	-0.265147
C229	C	1.073253	-0.357807	-0.164309
C230	C	1.323253	-0.107807	0.085691
C231	C	1.573253	0.142193	0.335691
C232	C	1.823253	0.392193	0.585691
C233	C	1.073378	-0.357605	-0.081996
C234	C	1.323378	-0.107605	0.168004
C235	C	1.573378	0.142395	0.418004
C236	C	1.823378	0.392395	0.668004
H237	H	0.527293	-0.391284	-0.231920
H238	H	0.777293	-0.141284	0.018080
H239	H	1.027293	0.108716	0.268080
H240	H	1.277293	0.358716	0.518080
H241	H	0.619992	-0.482868	-0.323112
H242	H	0.869992	-0.232868	-0.073112
H243	H	1.119992	0.017132	0.176888
H244	H	1.369992	0.267132	0.426888
F245	F	1.209244	-0.327236	-0.926744
F246	F	1.459244	-0.077236	-0.676744
F247	F	1.709244	0.172764	-0.426744
F248	F	1.959244	0.422764	-0.176744
F249	F	0.520584	-0.215309	-0.395106
F250	F	0.770584	0.034691	-0.145106
F251	F	1.020584	0.284691	0.104894
F252	F	1.270584	0.534691	0.354894
H253	H	1.198363	-0.903775	-0.390254
H254	H	1.448363	-0.653775	-0.140254
H255	H	1.698363	-0.403775	0.109746
H256	H	1.948363	-0.153775	0.359746
F257	F	1.033154	-0.491269	-0.787549
F258	F	1.283154	-0.241269	-0.537549
F259	F	1.533154	0.008731	-0.287549
F260	F	1.783154	0.258731	-0.037549
H261	H	1.195666	-0.338633	-0.793644
H262	H	1.445666	-0.088633	-0.543644
H263	H	1.695666	0.161367	-0.293644
H264	H	1.945666	0.411367	-0.043644
H265	H	0.948295	-0.811138	-0.323210
H266	H	1.198295	-0.561138	-0.073210
H267	H	1.448295	-0.311138	0.176790
H268	H	1.698295	-0.061138	0.426790
H269	H	0.620061	-0.324558	-0.481480
H270	H	0.870061	-0.074558	-0.231480
H271	H	1.120061	0.175442	0.018520
H272	H	1.370061	0.425442	0.268520
F273	F	1.032757	-0.490539	-0.928121
F274	F	1.282757	-0.240539	-0.678121
F275	F	1.532757	0.009461	-0.428121
F276	F	1.782757	0.259461	-0.178121
H277	H	0.957873	-0.401852	-0.793305
H278	H	1.207873	-0.151852	-0.543305
H279	H	1.457873	0.098148	-0.293305
H280	H	1.707873	0.348148	-0.043305
F281	F	0.968814	-0.910288	-0.460931
F282	F	1.218814	-0.660288	-0.210931
F283	F	1.468814	-0.410288	0.039069
F284	F	1.718814	-0.160288	0.289069
F285	F	1.177841	-0.804441	-0.252729
F286	F	1.427841	-0.554441	-0.002729
F287	F	1.677841	-0.304441	0.247271
F288	F	1.927841	-0.054441	0.497271
H289	H	0.997334	-0.259741	-0.921311
H290	H	1.247334	-0.009741	-0.671311
H291	H	1.497334	0.240259	-0.421311
H292	H	1.747334	0.490259	-0.171311
F293	F	1.111545	-0.804441	-0.499065
F294	F	1.361545	-0.554441	-0.249065
F295	F	1.611545	-0.304441	0.000935
F296	F	1.861545	-0.054441	0.250935
F297	F	1.035222	-0.910617	-0.214486
F298	F	1.285222	-0.660617	0.035514
F299	F	1.535222	-0.410617	0.285514
F300	F	1.785222	-0.160617	0.535514
H301	H	0.619828	-0.266160	-0.265485
H302	H	0.869828	-0.016160	-0.015485
H303	H	1.119828	0.233840	0.234515
H304	H	1.369828	0.483840	0.484515
H305	H	0.957543	-0.401723	-0.920542
H306	H	1.207543	-0.151723	-0.670542
H307	H	1.457543	0.098277	-0.420542
H308	H	1.707543	0.348277	-0.170542
H309	H	1.095366	-0.236476	-0.919985
H310	H	1.345366	0.013524	-0.669985
H311	H	1.595366	0.263524	-0.419985
H312	H	1.845366	0.513524	-0.169985
F313	F	1.173371	-0.454446	-0.925759
F314	F	1.423371	-0.204446	-0.675759
F315	F	1.673371	0.045554	-0.425759
F316	F	1.923371	0.295554	-0.175759
F317	F	0.976390	-0.258612	-0.787511
F318	F	1.226390	-0.008612	-0.537511
F319	F	1.476390	0.241388	-0.287511
F320	F	1.726390	0.491388	-0.037511
F321	F	1.174077	-0.453273	-0.785967
F322	F	1.424077	-0.203273	-0.535967
F323	F	1.674077	0.046727	-0.285967
F324	F	1.924077	0.296727	-0.035967
H325	H	0.527272	-0.449587	-0.447829
H326	H	0.777272	-0.199587	-0.197829
H327	H	1.027272	0.050413	0.052171
H328	H	1.277272	0.300413	0.302171
H329	H	1.090562	-0.234667	-0.792675
H330	H	1.340562	0.015333	-0.542675
H331	H	1.590562	0.265333	-0.292675
H332	H	1.840562	0.515333	-0.042675
