data_functionalizedCrystal
_audit_creation_method	'MofGen! by Chris Wilmer'
_symmetry_space_group_name_H-M	'P1'
_symmetry_Int_Tables_number	1
_symmetry_cell_setting	triclinic
loop_
_symmetry_equiv_pos_as_xyz
  x,y,z
_cell_length_a	6.817900
_cell_length_b	14.858565
_cell_length_c	19.453114
_cell_angle_alpha	95.586354
_cell_angle_beta	101.709288
_cell_angle_gamma	104.523916
loop_
_atom_site_label
_atom_site_type_symbol
_atom_site_fract_x
_atom_site_fract_y
_atom_site_fract_z
V1	V	-4.012078	-0.129639	-0.219196
O2	O	-3.994529	0.005233	-0.214822
O3	O	-3.968832	-0.256094	-0.217891
O4	O	-3.954929	-0.128082	-0.314707
O5	O	-4.008528	-0.123665	-0.117336
V6	V	-4.496171	-0.113455	-0.206989
O7	O	-4.272084	-0.165140	-0.245973
O8	O	-4.686362	-0.077954	-0.180213
O9	O	-4.316211	0.013000	-0.208295
O10	O	-4.631117	-0.248328	-0.211364
O11	O	-4.617118	-0.119429	-0.308850
O12	O	-4.330113	-0.115012	-0.111479
C13	C	-3.815370	-0.286908	-0.214483
C14	C	-3.861240	-0.390289	-0.214052
C15	C	-4.029129	-0.768853	-0.212486
C16	C	-3.982409	-0.663525	-0.212921
C17	C	-3.945185	-0.579575	-0.213268
C18	C	-3.898463	-0.474240	-0.213705
C19	C	-3.797635	-0.123614	-0.337981
C20	C	-3.832227	-0.123178	-0.416062
C21	C	-4.030451	-0.127641	-0.456326
C22	C	-4.062955	-0.127231	-0.529692
C23	C	-3.897233	-0.122377	-0.562794
C24	C	-3.698978	-0.117908	-0.522520
C25	C	-3.666475	-0.118309	-0.449154
N26	N	-3.839491	-0.171490	-0.681658
N27	N	-3.870381	-0.171112	-0.751353
C28	C	-3.995150	-0.121168	-0.783840
N29	N	-4.087898	-0.071629	-0.744002
N30	N	-4.057014	-0.072012	-0.674301
C31	C	-3.932456	-0.121942	-0.642346
C32	C	-4.228630	-0.125186	-0.903656
C33	C	-4.261124	-0.124770	-0.977023
C34	C	-3.897146	-0.115456	-0.969850
C35	C	-3.864653	-0.115863	-0.896484
C36	C	-4.030405	-0.120732	-0.863392
C37	C	-4.133015	0.043809	-0.211701
C38	C	-4.066383	0.147189	-0.212136
C39	C	-4.150751	-0.119483	-0.088201
C40	C	-4.095396	-0.119914	-0.010119
H41	H	-4.165421	-0.131603	-0.429387
O42	O	-4.453660	-0.129226	-1.016226
C43	C	-4.742244	-0.215196	-1.112844
C44	C	-4.524181	-0.210253	-1.068515
H45	H	-4.799345	-0.280712	-1.155120
H46	H	-4.733846	-0.149864	-1.139625
H47	H	-4.855049	-0.218700	-1.076566
H48	H	-4.411256	-0.206780	-1.104744
H49	H	-4.532747	-0.275584	-1.041726
O50	O	-4.255647	-0.131754	-0.568812
C51	C	-4.617267	-0.220601	-0.607022
C52	C	-4.399151	-0.215598	-0.562704
H53	H	-4.733358	-0.288374	-0.602087
H54	H	-4.612155	-0.219550	-0.665160
H55	H	-4.667787	-0.157537	-0.586587
H56	H	-4.348500	-0.278649	-0.583077
H57	H	-4.404384	-0.216604	-0.504573
O58	O	-3.538095	-0.113072	-0.554737
C59	C	-3.322882	-0.026200	-0.623722
C60	C	-3.505155	-0.031580	-0.587284
H61	H	-3.296164	0.039691	-0.650033
H62	H	-3.361768	-0.091155	-0.665728
H63	H	-3.175664	-0.023126	-0.582332
H64	H	-3.652448	-0.034624	-0.628622
H65	H	-3.466093	0.033374	-0.545265
H66	H	-4.363593	-0.129148	-0.876711
H67	H	-3.762206	-0.111496	-0.996800
H68	H	-3.505052	-0.114667	-0.416370
O69	O	-3.672102	-0.111426	-0.857306
C70	C	-3.383642	-0.025641	-0.760585
C71	C	-3.601656	-0.030509	-0.804916
H72	H	-3.326639	0.039765	-0.718208
H73	H	-3.270597	-0.022060	-0.796783
H74	H	-3.392357	-0.091073	-0.733916
H75	H	-3.593143	0.034907	-0.831592
H76	H	-3.714613	-0.034136	-0.768684
