data_functionalizedCrystal
_audit_creation_method	'MofGen! by Chris Wilmer'
_symmetry_space_group_name_H-M	'P1'
_symmetry_Int_Tables_number	1
_symmetry_cell_setting	triclinic
loop_
_symmetry_equiv_pos_as_xyz
  x,y,z
_cell_length_a	6.817900
_cell_length_b	16.417825
_cell_length_c	12.200875
_cell_angle_alpha	94.315196
_cell_angle_beta	107.143593
_cell_angle_gamma	103.385495
loop_
_atom_site_label
_atom_site_type_symbol
_atom_site_fract_x
_atom_site_fract_y
_atom_site_fract_z
V1	V	-4.067883	-0.116076	-0.358064
O2	O	-4.055059	0.005382	-0.350834
O3	O	-4.018691	-0.229971	-0.356013
O4	O	-4.037613	-0.114376	-0.514046
O5	O	-4.036006	-0.111012	-0.191706
V6	V	-4.549265	-0.101538	-0.338118
O7	O	-4.333839	-0.147966	-0.401817
O8	O	-4.733506	-0.069648	-0.294364
O9	O	-4.375251	0.012357	-0.340169
O10	O	-4.679486	-0.222996	-0.345347
O11	O	-4.698539	-0.106601	-0.504475
O12	O	-4.356329	-0.103238	-0.182135
C13	C	-3.862912	-0.257733	-0.350467
C14	C	-3.904099	-0.350844	-0.349829
C15	C	-3.946502	-0.553051	-0.243295
C16	C	-3.985225	-0.640540	-0.242705
C17	C	-4.090028	-0.664563	-0.452899
C18	C	-4.051320	-0.577075	-0.453488
C19	C	-3.979546	-0.521321	-0.348682
C20	C	-4.056977	-0.696298	-0.347503
C21	C	-4.098962	-0.791157	-0.346865
C22	C	-3.937561	-0.426456	-0.349320
C23	C	-3.887048	-0.110280	-0.552052
C24	C	-3.943577	-0.109644	-0.679571
C25	C	-4.047033	-0.108481	-0.913042
C26	C	-3.989454	-0.109128	-0.783122
C27	C	-4.194371	0.040115	-0.345711
C28	C	-4.132424	0.133225	-0.346356
C29	C	-4.170235	-0.107337	-0.144123
C30	C	-4.092945	-0.107968	-0.016603
H31	H	-4.078242	-0.551242	-0.539312
C32	C	-4.167834	-0.725231	-0.566557
C33	C	-4.194603	-0.808640	-0.543486
C34	C	-4.266241	-0.864548	-0.648161
H35	H	-4.299998	-0.718671	-0.613596
H36	H	-4.066075	-0.713145	-0.606166
H37	H	-4.296357	-0.820723	-0.503895
H38	H	-4.062468	-0.815228	-0.496464
H39	H	-4.164481	-0.852461	-0.687770
H40	H	-4.398399	-0.857979	-0.695192
H41	H	-4.284394	-0.921146	-0.632521
C42	C	-3.949145	-0.675106	-0.128363
C43	C	-3.795868	-0.720631	-0.116472
C44	C	-3.762612	-0.752495	-0.011160
H45	H	-3.900755	-0.629455	-0.065928
H46	H	-4.078958	-0.711506	-0.127437
H47	H	-3.666081	-0.684233	-0.117388
H48	H	-3.844216	-0.766293	-0.178882
H49	H	-3.892425	-0.788896	-0.010234
H50	H	-3.714229	-0.706840	0.051267
H51	H	-3.658626	-0.783394	-0.003083
C52	C	-3.868723	-0.492658	-0.129392
C53	C	-3.848140	-0.539178	-0.036976
C54	C	-3.776537	-0.483577	0.067970
H55	H	-3.734472	-0.455276	-0.121404
H56	H	-3.968400	-0.460776	-0.128874
H57	H	-3.748468	-0.571047	-0.037492
H58	H	-3.982365	-0.576558	-0.044925
H59	H	-3.876214	-0.451694	0.068488
H60	H	-3.642290	-0.446197	0.075946
H61	H	-3.762580	-0.515133	0.130686
