data_functionalizedCrystal
_audit_creation_method	'MofGen! by Chris Wilmer'
_symmetry_space_group_name_H-M	'P1'
_symmetry_Int_Tables_number	1
_symmetry_cell_setting	triclinic
loop_
_symmetry_equiv_pos_as_xyz
  x,y,z
_cell_length_a	14.044220
_cell_length_b	14.044202
_cell_length_c	12.503572
_cell_angle_alpha	93.856143
_cell_angle_beta	93.847148
_cell_angle_gamma	86.809210
loop_
_atom_site_label
_atom_site_type_symbol
_atom_site_fract_x
_atom_site_fract_y
_atom_site_fract_z
O1	O	1.272126	-0.235213	-0.089243
O2	O	1.772126	0.264787	0.410757
O3	O	0.995453	-0.226909	-0.089269
O4	O	1.495453	0.273091	0.410731
O5	O	1.129634	-0.092723	-0.089228
O6	O	1.629634	0.407277	0.410772
O7	O	1.137945	-0.369399	-0.089285
O8	O	1.637945	0.130601	0.410715
O9	O	1.139729	-0.082619	0.089417
O10	O	1.639729	0.417381	0.589417
O11	O	1.005548	-0.216804	0.089376
O12	O	1.505548	0.283196	0.589376
O13	O	1.282221	-0.225109	0.089402
O14	O	1.782221	0.274891	0.589402
Cu15	Cu	1.144806	-0.220034	0.105700
Cu16	Cu	1.644806	0.279966	0.605700
Cu17	Cu	1.132868	-0.231984	-0.105568
Cu18	Cu	1.632868	0.268016	0.394432
O19	O	1.148040	-0.359294	0.089360
O20	O	1.648040	0.140706	0.589360
C21	C	0.964878	-0.218221	0.000050
C22	C	1.464878	0.281779	0.500050
C23	C	0.858735	-0.207377	0.000042
C24	C	1.358735	0.292623	0.500042
C25	C	0.664398	-0.187549	0.000067
C26	C	1.164398	0.312451	0.500067
C27	C	0.613270	-0.264465	0.000056
C28	C	1.113270	0.235535	0.500056
C29	C	0.505134	-0.253432	0.000070
C30	C	1.005134	0.246568	0.500070
C31	C	0.772543	-0.198580	0.000053
C32	C	1.272543	0.301420	0.500053
C33	C	1.131045	-0.052049	0.000100
C34	C	1.631045	0.447951	0.500100
C35	C	1.120197	0.054095	0.000114
C36	C	1.620197	0.554095	0.500114
C37	C	1.177294	0.299552	0.000092
C38	C	1.677294	0.799552	0.500092
C39	C	1.100378	0.248427	0.000089
C40	C	1.600378	0.748427	0.500089
C41	C	1.111408	0.140291	0.000103
C42	C	1.611408	0.640291	0.500103
C43	C	1.166266	0.407698	0.000078
C44	C	1.666266	0.907698	0.500078
C45	C	1.312796	-0.233797	0.000080
C46	C	1.812796	0.266203	0.500080
C47	C	1.418939	-0.244641	0.000081
C48	C	1.918939	0.255359	0.500081
C49	C	1.146628	0.600032	0.000045
C50	C	1.646628	1.100032	0.500045
C51	C	1.157471	0.493890	0.000067
C52	C	1.657471	0.993890	0.500067
N53	N	1.124471	-0.240382	-0.254163
N54	N	1.624471	0.259618	0.245837
C55	C	1.112111	-0.252735	-0.473282
C56	C	1.612111	0.247265	0.026718
C57	C	1.165567	-0.199279	-0.526593
C58	C	1.665567	0.300721	-0.026593
C59	C	1.158690	-0.206152	-0.648518
C60	C	1.658690	0.293848	-0.148518
C61	C	1.118987	-0.245863	-0.351346
C62	C	1.618987	0.254137	0.148654
N63	N	1.153210	-0.211629	0.254295
N64	N	1.653210	0.288371	0.754295
H65	H	0.626960	-0.113420	0.000088
H66	H	1.126960	0.386580	0.500088
H67	H	1.251422	0.262112	0.000108
H68	H	1.751422	0.762112	0.500108
H69	H	0.650710	-0.338600	0.000035
H70	H	1.150710	0.161400	0.500035
H71	H	1.216496	-0.148350	-0.480664
H72	H	1.716496	0.351650	0.019336
H73	H	1.061184	-0.303659	-0.519205
H74	H	1.561184	0.196341	-0.019205
H75	H	1.026245	0.285869	0.000078
H76	H	1.526245	0.785869	0.500078
