data_functionalizedCrystal
_audit_creation_method	'MofGen! by Chris Wilmer'
_symmetry_space_group_name_H-M	'P1'
_symmetry_Int_Tables_number	1
_symmetry_cell_setting	triclinic
loop_
_symmetry_equiv_pos_as_xyz
  x,y,z
_cell_length_a	31.640172
_cell_length_b	23.096457
_cell_length_c	23.096457
_cell_angle_alpha	60.008701
_cell_angle_beta	90.017156
_cell_angle_gamma	59.998714
loop_
_atom_site_label
_atom_site_type_symbol
_atom_site_fract_x
_atom_site_fract_y
_atom_site_fract_z
Zr1	Zr	0.407181	0.633660	-0.075881
O2	O	0.339677	0.754459	-0.168338
O3	O	0.427872	0.512870	-0.047541
O4	O	0.427854	0.633658	-0.168327
O5	O	0.339712	0.633670	0.047730
O6	O	0.497411	0.633646	-0.168314
O7	O	0.339696	0.633671	-0.047552
O8	O	0.497444	0.417579	0.047749
O9	O	0.339679	0.849737	-0.168334
O10	O	0.488609	0.562541	-0.035441
O11	O	0.436711	0.562548	0.035657
O12	O	0.436689	0.704760	-0.106552
O13	O	0.384792	0.704768	-0.035454
Zr14	Zr	0.518142	0.633638	0.076103
Zr15	Zr	0.518116	0.633641	-0.075861
Zr16	Zr	0.407207	0.633658	0.076083
Zr17	Zr	0.407183	0.785617	-0.075874
Zr18	Zr	0.518140	0.481681	0.076097
O19	O	0.497450	0.754428	0.047764
O20	O	0.497413	0.754432	-0.168309
O21	O	0.339715	0.754456	0.047735
O22	O	0.585646	0.512839	0.168560
O23	O	0.585608	0.512843	-0.047512
O24	O	0.427910	0.512867	0.168532
O25	O	0.585611	0.633629	-0.047507
O26	O	0.497469	0.633640	0.168549
O27	O	0.427912	0.633652	0.168537
O28	O	0.585627	0.633627	0.047775
O29	O	0.427858	0.849722	-0.168318
O30	O	0.497465	0.417577	0.168540
O31	O	0.585644	0.417561	0.168556
O32	O	0.585623	0.417563	0.047766
O33	O	0.339700	0.849735	-0.047543
O34	O	0.427879	0.849720	-0.047527
O35	O	0.488633	0.562538	0.106775
O36	O	0.540531	0.562530	0.035676
O37	O	0.488611	0.704750	-0.035435
O38	O	0.436714	0.704758	0.035663
C39	C	0.462658	0.443574	0.000103
C40	C	0.462657	0.379064	0.000100
C41	C	0.489743	0.348759	-0.037015
C42	C	0.489748	0.288137	-0.037009
C43	C	0.462657	0.257833	0.000102
C44	C	0.435569	0.288142	0.037226
C45	C	0.435569	0.348758	0.037225
N46	N	0.418559	0.195445	-0.005052
N47	N	0.418560	0.137865	-0.005055
C48	C	0.462656	0.075201	0.000109
N49	N	0.506750	0.072301	0.005263
N50	N	0.506748	0.129890	0.005262
C51	C	0.462654	0.192106	0.000108
C52	C	0.489751	-0.020838	-0.037002
C53	C	0.489757	-0.081465	-0.036991
C54	C	0.435573	-0.081453	0.037239
C55	C	0.435572	-0.020832	0.037233
C56	C	0.462659	0.009474	0.000109
C57	C	0.323898	0.633673	0.000086
C58	C	0.276803	0.633681	0.000077
C59	C	0.011898	0.559404	0.037245
C60	C	-0.165087	0.559390	0.037259
O61	O	-0.164924	0.496253	0.068853
N62	N	-0.214318	0.633627	0.000139
C63	C	-0.219302	0.707872	-0.036984
O64	O	-0.265237	0.771015	-0.068551
C65	C	-0.042317	0.707886	-0.036994
C66	C	0.006913	0.633644	0.000123
C67	C	0.061127	0.485169	0.074359
C68	C	0.105370	0.485173	0.074352
C69	C	0.100385	0.559413	0.037231
C70	C	0.051157	0.633648	0.000116
C71	C	-0.047302	0.782131	-0.074112
C72	C	-0.003050	0.782127	-0.074109
C73	C	0.046180	0.707886	-0.036992
C74	C	0.090415	0.707893	-0.037012
N75	N	0.139646	0.633656	0.000108
C76	C	0.144631	0.559416	0.037230
C77	C	-0.312219	0.707860	-0.036978
C78	C	-0.356465	0.707857	-0.036976
C79	C	-0.302247	0.559374	0.037268
C80	C	-0.258000	0.559378	0.037262
C81	C	-0.262988	0.633623	0.000143
C82	C	0.237543	0.559431	0.037212
C83	C	0.281788	0.559441	0.037199
C84	C	0.227566	0.707924	-0.037042
C85	C	0.183325	0.707913	-0.037033
C86	C	0.188317	0.633660	0.000099
O87	O	0.090292	0.770996	-0.068584
O88	O	0.190570	0.496283	0.068805
C89	C	-0.032345	0.559400	0.037252
C90	C	-0.081573	0.633636	0.000137
C91	C	-0.086558	0.707875	-0.036984
C92	C	-0.125819	0.633632	0.000139
C93	C	-0.120834	0.559393	0.037260
C94	C	-0.071603	0.485156	0.074381
C95	C	-0.027360	0.485160	0.074374
C96	C	-0.135789	0.782112	-0.074104
C97	C	-0.180031	0.782102	-0.074095
C98	C	-0.175046	0.707862	-0.036973
C99	C	0.601425	0.633625	0.000137
C100	C	0.648520	0.633617	0.000145
C101	C	0.462628	0.633652	-0.189972
C102	C	0.462617	0.633654	-0.254485
C103	C	0.462665	0.823725	0.000119
C104	C	0.462666	0.888235	0.000122
C105	C	0.435519	0.707889	-0.321908
C106	C	0.435532	0.707890	-0.382524
C107	C	0.462637	0.633652	-0.375714
C108	C	0.489741	0.559407	-0.308278
C109	C	0.489732	0.559408	-0.247664
N110	N	0.458896	0.578396	-0.443272
N111	N	0.458903	0.578400	-0.500856
C112	C	0.462668	0.633644	-0.558339
N113	N	0.466418	0.688896	-0.556070
N114	N	0.466408	0.688895	-0.498482
C115	C	0.462650	0.633642	-0.441436
C116	C	0.435583	0.707886	-0.691492
C117	C	0.435600	0.707884	-0.752108
C118	C	0.489806	0.559399	-0.677860
C119	C	0.489792	0.559403	-0.617246
C120	C	0.462678	0.633649	-0.624067
C121	C	0.462694	0.633646	0.190195
C122	C	0.462706	0.633645	0.254707
C123	C	0.601421	0.443550	0.000129
C124	C	0.648515	0.379032	0.000134
C125	C	0.462691	0.443571	0.190187
C126	C	0.462701	0.379060	0.254697
C127	C	0.601454	0.443547	0.190212
C128	C	0.648559	0.379028	0.254731
C129	C	0.323869	0.823752	-0.189990
C130	C	0.276764	0.888271	-0.254508
C131	C	0.323902	0.823749	0.000094
C132	C	0.276808	0.888267	0.000088
C133	C	0.462632	0.823728	-0.189964
C134	C	0.462622	0.888239	-0.254474
C135	C	0.643528	0.348739	-0.036992
C136	C	0.687773	0.288126	-0.037000
C137	C	0.737005	0.257803	0.000122
C138	C	0.741991	0.288102	0.037249
C139	C	0.697746	0.348718	0.037253
C140	C	0.489808	0.348759	0.322120
C141	C	0.489816	0.288153	0.382740
C142	C	0.462718	0.257844	0.375934
C143	C	0.435608	0.288150	0.308504
C144	C	0.435598	0.348759	0.247886
C145	C	0.697775	0.348725	0.247916
C146	C	0.742039	0.288111	0.308533
C147	C	0.737087	0.257796	0.375962
C148	C	0.687866	0.288105	0.382775
C149	C	0.643603	0.348722	0.322159
C150	C	0.227548	0.918581	-0.247694
C151	C	0.183284	0.979214	-0.308310
C152	C	0.188236	1.009532	-0.375740
C153	C	0.237457	0.979219	-0.382552
C154	C	0.281720	0.918591	-0.321937
C155	C	0.281795	0.918566	0.037208
C156	C	0.237549	0.979196	0.037200
C157	C	0.188318	1.009521	0.000076
C158	C	0.183332	0.979219	-0.037049
C159	C	0.227576	0.918595	-0.037044
C160	C	0.489725	0.918529	-0.247646
C161	C	0.489725	0.979136	-0.308254
C162	C	0.462620	1.009456	-0.375690
C163	C	0.435517	0.979160	-0.382516
C164	C	0.435519	0.918550	-0.321909
H165	H	0.511806	0.263457	-0.067234
H166	H	0.413546	0.263463	0.302973
N167	N	0.242931	1.011882	0.077233
H168	H	0.225782	1.001354	0.114579
H169	H	0.225787	1.072718	0.043131
N170	N	0.140495	1.074918	-0.441118
H171	H	0.119199	1.125214	-0.441140
H172	H	0.119238	1.053751	-0.441104
H173	H	0.511811	0.498962	-0.302737
H174	H	0.413511	0.373433	0.067449
N175	N	0.242794	1.011922	-0.455282
H176	H	0.207283	1.054924	-0.492642
H177	H	0.262353	0.965631	-0.460901
H178	H	0.321792	0.893913	-0.327494
N179	N	0.784827	0.192411	0.441342
H180	H	0.806125	0.213505	0.441370
H181	H	0.806081	0.142139	0.441325
N182	N	0.462740	0.192464	0.441323
H183	H	0.478164	0.142160	0.441358
H184	H	0.426034	0.213626	0.441319
H185	H	0.701814	0.373375	0.067490
H186	H	0.413525	0.373422	0.192989
H187	H	0.511894	0.263485	0.437639
N188	N	0.519038	0.381440	0.329470
H189	H	0.536208	0.353044	0.381385
H190	H	0.494155	0.442292	0.305932
N191	N	0.703124	0.381406	0.175194
H192	H	0.741021	0.353005	0.180086
H193	H	0.685939	0.442257	0.148422
H194	H	0.413448	1.003856	-0.437430
H195	H	0.782113	0.263439	0.302973
N196	N	0.682383	0.255453	-0.077042
H197	H	0.699540	0.194604	-0.043002
H198	H	0.699511	0.266062	-0.114402
H199	H	0.413512	0.263465	0.067443
H200	H	0.321878	0.893880	0.067443
N201	N	0.682529	0.255405	0.455504
H202	H	0.718040	0.212404	0.492864
H203	H	0.662967	0.230296	0.461119
N204	N	0.140598	1.074909	0.000074
H205	H	0.151233	1.089496	0.029227
H206	H	0.119322	1.053773	0.021180
H207	H	0.511799	0.498955	-0.192763
N208	N	0.784725	0.192425	0.000113
H209	H	0.774090	0.177839	-0.029040
H210	H	0.806012	0.142162	0.050403
N211	N	0.130230	1.011917	-0.077075
H212	H	0.102962	1.054912	-0.071433
H213	H	0.126139	0.965620	-0.057573
N214	N	0.222194	0.885917	-0.077083
H215	H	0.184291	0.914331	-0.100598
H216	H	0.239372	0.825069	-0.043001
H217	H	0.603531	0.373387	0.327717
N218	N	0.406346	0.787965	-0.698849
H219	H	0.431193	0.791268	-0.675332
H220	H	0.379071	0.791238	-0.675390
H221	H	0.511797	0.893852	-0.192742
H222	H	0.462622	1.058808	-0.425034
N223	N	0.406391	0.787956	-0.824834
H224	H	0.389219	0.834986	-0.819953
H225	H	0.379154	0.791213	-0.851642
H226	H	0.782082	0.263404	0.067472
H227	H	0.223506	0.893900	-0.192795
H228	H	0.143211	1.003885	-0.302749
N229	N	0.518961	1.011802	-0.300882
H230	H	0.536126	0.983400	-0.248965
H231	H	0.494082	1.072654	-0.324418
H232	H	0.413447	0.893895	-0.327478
H233	H	0.511801	0.373430	-0.067242
N234	N	0.519046	0.479325	-0.670504
H235	H	0.514942	0.490588	-0.719133
H236	H	0.504820	0.446908	-0.643719
H237	H	0.511809	0.003836	-0.067228
N238	N	-0.409563	0.787929	-0.077014
H239	H	-0.413721	0.820388	-0.128941
H240	H	-0.413668	0.820316	-0.057486
N241	N	0.518976	-0.114158	-0.077020
H242	H	0.536133	-0.085758	-0.100538
H243	H	0.494088	-0.103610	-0.114335
N244	N	0.158465	0.405096	0.114401
H245	H	0.185744	0.416351	0.108773
H246	H	0.162560	0.372672	0.094917
H247	H	0.413513	0.003845	0.067454
N248	N	0.406357	-0.114134	0.077274
H249	H	0.410468	-0.157135	0.071646
H250	H	0.368460	-0.067838	0.057781
H251	H	0.321874	0.498982	0.067426
H252	H	0.603445	0.373427	-0.067230
N253	N	0.519019	0.479330	-0.544523
H254	H	0.504810	0.446879	-0.538864
H255	H	0.514893	0.490660	-0.507200
N256	N	0.242926	0.479350	0.077254
H257	H	0.262489	0.446889	0.129179
H258	H	0.262452	0.446966	0.057722
N259	N	0.066510	0.405089	0.114402
H260	H	0.104414	0.358069	0.137910
H261	H	0.049328	0.401851	0.080321
H262	H	-0.217917	0.498924	0.067492
H263	H	0.413463	0.768343	-0.437430
N264	N	-0.233130	0.862180	-0.114129
H265	H	-0.237293	0.894644	-0.166057
H266	H	-0.237231	0.894562	-0.094598
N267	N	-0.296879	0.479304	0.077309
H268	H	-0.277324	0.446852	0.129236
H269	H	-0.277352	0.446903	0.057792
N270	N	-0.317604	0.787944	-0.077024
H271	H	-0.355506	0.834965	-0.100540
H272	H	-0.300436	0.791176	-0.114342
H273	H	-0.007117	0.842588	-0.104328
N274	N	-0.100394	0.862206	-0.114141
H275	H	-0.096828	0.909230	-0.137648
H276	H	-0.119919	0.865435	-0.080053
H277	H	0.223516	0.768368	-0.067268
N278	N	0.130224	0.787985	-0.077076
H279	H	0.133782	0.835016	-0.100596
H280	H	0.110696	0.791220	-0.042991
H281	H	0.012723	0.424705	0.104599
N282	N	-0.141171	0.862189	-0.114151
H283	H	-0.179074	0.909211	-0.137665
H284	H	-0.124005	0.865421	-0.151471
N285	N	-0.066236	0.405086	0.114412
H286	H	-0.083379	0.401781	0.151763
H287	H	-0.028328	0.358094	0.137884
N288	N	0.406282	0.787964	-0.329263
H289	H	0.389119	0.834993	-0.381177
H290	H	0.431161	0.791190	-0.305712
