data_functionalizedCrystal
_audit_creation_method	'MofGen! by Chris Wilmer'
_symmetry_space_group_name_H-M	'P1'
_symmetry_Int_Tables_number	1
_symmetry_cell_setting	triclinic
loop_
_symmetry_equiv_pos_as_xyz
  x,y,z
_cell_length_a	19.121063
_cell_length_b	16.120490
_cell_length_c	16.120297
_cell_angle_alpha	90.129683
_cell_angle_beta	95.179432
_cell_angle_gamma	89.683840
loop_
_atom_site_label
_atom_site_type_symbol
_atom_site_fract_x
_atom_site_fract_y
_atom_site_fract_z
Zn1	Zn	-0.355804	1.228536	-0.551560
Zn2	Zn	-0.467588	1.229545	-0.417851
Zn3	Zn	-0.343933	1.097156	-0.404913
Zn4	Zn	-0.466935	1.083536	-0.549792
O5	O	-0.408565	1.159693	-0.481029
O6	O	-0.375875	1.344758	-0.539977
O7	O	-0.446490	1.218106	-0.299544
O8	O	-0.247249	1.119862	-0.419691
O9	O	-0.458001	1.345500	-0.441742
O10	O	-0.255971	1.216386	-0.527432
O11	O	-0.355641	1.120841	-0.290039
O12	O	-0.355007	0.979261	-0.417977
O13	O	-0.456888	1.096647	-0.666617
O14	O	-0.445376	0.969254	-0.524419
O15	O	-0.375241	1.203178	-0.667915
O16	O	-0.565760	1.204899	-0.440028
O17	O	-0.565280	1.097626	-0.536965
C18	C	-0.398833	0.944157	-0.469603
C19	C	-0.394688	0.851948	-0.464736
C20	C	-0.430063	0.637106	-0.506278
C21	C	-0.387125	0.683125	-0.455848
C22	C	-0.391334	0.777067	-0.460795
C23	C	-0.425855	0.543156	-0.501333
C24	C	-0.590999	1.149916	-0.489728
C25	C	-0.669049	1.145807	-0.493481
C26	C	-0.705948	1.199767	-0.444821
C27	C	-0.779285	1.195908	-0.448356
C28	C	-0.815722	1.138084	-0.500548
C29	C	-0.778818	1.084121	-0.549213
C30	C	-0.705483	1.087985	-0.545682
C31	C	-1.037136	1.123625	-0.513736
C32	C	-1.110477	1.119763	-0.517262
C33	C	-1.110938	1.231551	-0.416406
C34	C	-1.037601	1.235406	-0.412875
C35	C	-1.000704	1.181447	-0.461544
C36	C	-0.890684	1.134136	-0.504160
C37	C	-0.925744	1.185399	-0.457935
C38	C	-0.225420	1.169531	-0.472315
C39	C	-0.147375	1.173723	-0.468602
C40	C	-0.417316	1.148281	-0.698342
C41	C	-0.421045	1.143418	-0.790948
C42	C	-0.418335	1.376071	-0.492500
C43	C	-0.422499	1.468278	-0.497388
C44	C	-0.427836	1.134509	-0.960498
C45	C	-0.389090	1.185052	-1.002410
C46	C	-0.392869	1.180095	-1.096754
C47	C	-0.424058	1.139465	-0.866146
C48	C	-0.399800	1.171112	-0.264561
C49	C	-0.395880	1.176146	-0.171955
H50	H	-0.676285	1.246850	-0.402317
Cl51	Cl	-0.483432	1.061961	-1.014489
H52	H	-0.353080	1.232046	-0.967439
H53	H	-0.347205	0.651971	-0.408959
H54	H	-0.675441	1.044047	-0.585307
H55	H	-0.469981	0.668258	-0.553163
Cl56	Cl	-0.825669	1.263749	-0.387183
Cl57	Cl	-1.157327	1.299386	-0.355232
Cl58	Cl	-1.156281	1.047055	-0.582868
Cl59	Cl	-0.991801	1.308113	-0.347273
Cl60	Cl	-0.824625	1.011433	-0.614831
Cl61	Cl	-0.990761	1.055788	-0.574919
Cl62	Cl	-0.879937	1.258093	-0.392329
H63	H	-0.920359	1.087054	-0.546653
