data_functionalizedCrystal
_audit_creation_method	'MofGen! by Chris Wilmer'
_symmetry_space_group_name_H-M	'P1'
_symmetry_Int_Tables_number	1
_symmetry_cell_setting	triclinic
loop_
_symmetry_equiv_pos_as_xyz
  x,y,z
_cell_length_a	18.215407
_cell_length_b	18.215405
_cell_length_c	18.215399
_cell_angle_alpha	90.030551
_cell_angle_beta	90.019833
_cell_angle_gamma	90.025333
loop_
_atom_site_label
_atom_site_type_symbol
_atom_site_fract_x
_atom_site_fract_y
_atom_site_fract_z
Zn1	Zn	1.125072	-0.292983	0.416103
Zn2	Zn	1.625072	0.207017	0.916103
Zn3	Zn	1.124980	-0.416054	0.293031
Zn4	Zn	1.624980	0.083946	0.793031
Zn5	Zn	1.002005	-0.293007	0.293050
Zn6	Zn	1.502005	0.206993	0.793050
Zn7	Zn	1.001970	-0.416013	0.416056
Zn8	Zn	1.501970	0.083987	0.916056
O9	O	1.063507	-0.354514	0.354560
O10	O	1.563507	0.145486	0.854560
O11	O	1.228044	-0.309316	0.399788
O12	O	1.728044	0.190684	0.899788
O13	O	1.108643	-0.399759	0.190049
O14	O	1.608643	0.100241	0.690049
O15	O	1.018382	-0.190020	0.309401
O16	O	1.518382	0.309980	0.809401
O17	O	1.227977	-0.399736	0.309368
O18	O	1.727977	0.100264	0.809368
O19	O	1.108799	-0.190002	0.399807
O20	O	1.608799	0.309998	0.899807
O21	O	1.018293	-0.309357	0.190063
O22	O	1.518293	0.190643	0.690063
O23	O	0.899016	-0.309317	0.309355
O24	O	1.399016	0.190683	0.809355
O25	O	1.018324	-0.399666	0.519046
O26	O	1.518324	0.100334	1.019046
O27	O	0.898991	-0.399689	0.399727
O28	O	1.398991	0.100311	0.899727
O29	O	1.108766	-0.309276	0.519081
O30	O	1.608766	0.190724	1.019081
O31	O	1.108610	-0.519033	0.309322
O32	O	1.608610	-0.019033	0.809322
O33	O	1.018235	-0.519003	0.399708
O34	O	1.518235	-0.019003	0.899708
C35	C	0.872301	-0.354502	0.354539
C36	C	1.372301	0.145498	0.854539
C37	C	0.790502	-0.354514	0.354547
C38	C	1.290502	0.145486	0.854547
C39	C	0.602314	-0.401645	0.401544
C40	C	1.102314	0.098355	0.901544
C41	C	0.525455	-0.401647	0.401554
C42	C	1.025455	0.098353	0.901554
C43	C	0.525452	-0.307397	0.307591
C44	C	1.025452	0.192603	0.807591
C45	C	0.602309	-0.307392	0.307586
C46	C	1.102309	0.192608	0.807586
C47	C	0.640738	-0.354520	0.354562
C48	C	1.140738	0.145480	0.854562
C49	C	0.487022	-0.354528	0.354576
C50	C	0.987022	0.145472	0.854576
C51	C	0.403688	-0.354530	0.354585
C52	C	0.903688	0.145470	0.854585
C53	C	0.724077	-0.354517	0.354553
C54	C	1.224077	0.145483	0.854553
C55	C	1.063429	-0.545721	0.354524
C56	C	1.563429	-0.045721	0.854524
C57	C	1.063463	-0.627520	0.354534
C58	C	1.563463	-0.127520	0.854534
C59	C	1.110632	-0.815705	0.307556
C60	C	1.610632	-0.315705	0.807556
C61	C	1.110665	-0.892563	0.307574
C62	C	1.610665	-0.392563	0.807574
C63	C	1.016476	-0.892572	0.401616
C64	C	1.516476	-0.392572	0.901616
C65	C	1.016447	-0.815715	0.401601
C66	C	1.516447	-0.315715	0.901601
C67	C	1.063524	-0.777283	0.354567
C68	C	1.563524	-0.277283	0.854567
C69	C	1.063586	-0.930999	0.354600
C70	C	1.563586	-0.430999	0.854600
C71	C	1.063621	-1.014333	0.354619
C72	C	1.563621	-0.514333	0.854619
C73	C	1.063490	-0.693944	0.354548
C74	C	1.563490	-0.193944	0.854548
C75	C	1.255460	-0.354528	0.354581
C76	C	1.755460	0.145472	0.854581
C77	C	1.337259	-0.354533	0.354591
C78	C	1.837259	0.145467	0.854591
C79	C	1.063552	-0.354464	0.546513
C80	C	1.563552	0.145536	1.046513
C81	C	1.063571	-0.354442	0.628312
C82	C	1.563571	0.145558	1.128312
C83	C	1.063605	-0.162561	0.354611
C84	C	1.563605	0.337439	0.854611
C85	C	1.063647	-0.080763	0.354633
C86	C	1.563647	0.419237	0.854633
C87	C	1.063504	-0.354512	0.163353
C88	C	1.563504	0.145488	0.663353
C89	C	1.063628	-0.354326	0.081555
C90	C	1.563628	0.145674	0.581555
C91	C	1.110681	-0.307332	0.816525
C92	C	1.610681	0.192668	1.316525
C93	C	1.110690	-0.307311	0.893384
C94	C	1.610690	0.192689	1.393384
C95	C	1.016513	-0.401438	0.893336
C96	C	1.516513	0.098562	1.393336
C97	C	1.016501	-0.401455	0.816479
C98	C	1.516501	0.098545	1.316479
C99	C	1.063589	-0.354403	0.778075
C100	C	1.563589	0.145597	1.278075
C101	C	1.063610	-0.354365	0.931791
C102	C	1.563610	0.145635	1.431791
C103	C	1.063619	-0.354342	1.015125
C104	C	1.563619	0.145658	1.515125
C105	C	1.063579	-0.354425	0.694736
C106	C	1.563579	0.145575	1.194736
H107	H	0.494153	-0.269028	0.269344
H108	H	0.994153	0.230972	0.769344
H109	H	0.978146	-0.923873	0.439908
H110	H	1.478146	-0.423873	0.939908
O111	O	0.965628	-0.774277	0.452309
O112	O	1.465628	-0.274277	0.952309
H113	H	0.998528	-0.739211	0.489782
H114	H	1.498528	-0.239211	0.989782
H115	H	0.633601	-0.440018	0.439797
H116	H	1.133601	0.059982	0.939797
H117	H	0.633595	-0.269012	0.269327
H118	H	1.133595	0.230988	0.769327
O119	O	1.161485	-0.256546	0.934857
O120	O	1.661485	0.243454	1.434857
H121	H	1.194228	-0.223837	0.895238
H122	H	1.694228	0.276163	1.395238
O123	O	0.965704	-0.452220	0.774994
O124	O	1.465704	0.047780	1.274994
H125	H	0.928278	-0.419272	0.739990
H126	H	1.428278	0.080728	1.239990
O127	O	1.161460	-0.256581	0.775100
O128	O	1.661460	0.243419	1.275100
H129	H	1.194202	-0.223841	0.814752
H130	H	1.694202	0.276159	1.314752
O131	O	0.483970	-0.452477	0.452193
O132	O	0.983970	0.047523	0.952193
H133	H	0.448928	-0.489845	0.419148
H134	H	0.948928	0.010155	0.919148
O135	O	1.161413	-0.774250	0.256839
O136	O	1.661413	-0.274250	0.756839
H137	H	1.194182	-0.813882	0.224159
H138	H	1.694182	-0.313882	0.724159
H139	H	0.978177	-0.439748	0.924614
H140	H	1.478177	0.060252	1.424614
O141	O	1.161479	-0.934008	0.256877
O142	O	1.661479	-0.434008	0.756877
H143	H	1.128582	-0.969090	0.219416
H144	H	1.628582	-0.469090	0.719416
