data_functionalizedCrystal
_audit_creation_method	'MofGen! by Chris Wilmer'
_symmetry_space_group_name_H-M	'P1'
_symmetry_Int_Tables_number	1
_symmetry_cell_setting	triclinic
loop_
_symmetry_equiv_pos_as_xyz
  x,y,z
_cell_length_a	15.995350
_cell_length_b	9.065218
_cell_length_c	7.540329
_cell_angle_alpha	90.001757
_cell_angle_beta	89.999312
_cell_angle_gamma	84.254130
loop_
_atom_site_label
_atom_site_type_symbol
_atom_site_fract_x
_atom_site_fract_y
_atom_site_fract_z
O1	O	-1.112426	-0.190160	-0.147325
O2	O	-0.868829	-0.213643	-0.147360
O3	O	-0.995662	0.012860	-0.147338
O4	O	-0.985592	-0.416662	-0.147347
O5	O	-0.995655	0.012862	0.147627
O6	O	-0.868821	-0.213640	0.147605
O7	O	-1.112418	-0.190157	0.147640
Cu8	Cu	-0.990619	-0.201898	0.174555
Cu9	Cu	-0.990628	-0.201902	-0.174275
O10	O	-0.985585	-0.416660	0.147618
C11	C	-0.837623	-0.212670	0.000117
C12	C	-0.744650	-0.209760	0.000104
C13	C	-0.994691	0.067825	0.000141
C14	C	-0.991797	0.231600	0.000132
C15	C	-1.143624	-0.191129	0.000158
C16	C	-1.236597	-0.194040	0.000161
C17	C	-0.406824	-0.199308	0.000141
C18	C	-0.453034	-0.037997	0.000802
C19	C	-0.549747	-0.040908	0.000125
C20	C	-0.574423	-0.204492	0.000123
C21	C	-0.533944	-0.284058	-0.168311
C22	C	-0.437278	-0.280005	-0.168439
C23	C	-0.436955	-0.283335	0.166991
C24	C	-0.533900	-0.283297	0.169205
C25	C	-0.669143	-0.207431	0.000108
C26	C	-0.312103	-0.196374	0.000145
C27	C	-0.986556	-0.471625	0.000135
C28	C	-0.989450	-0.635400	0.000132
N29	N	-0.990619	-0.201895	0.419904
N30	N	-0.990635	-0.201893	-0.419624
H31	H	-0.577698	0.021635	0.120866
H32	H	-0.418532	-0.221985	-0.294347
H33	H	-0.561902	-0.228797	-0.293662
H34	H	-0.432957	0.026185	-0.119320
H35	H	-0.416016	-0.230598	0.294660
C36	C	-0.394918	-0.439991	-0.178789
C37	C	-0.298402	-0.468936	-0.181023
C38	C	-0.256047	-0.628917	-0.191387
C39	C	-0.310209	-0.759953	-0.199517
C40	C	-0.406732	-0.731011	-0.197283
C41	C	-0.449086	-0.571030	-0.186920
H42	H	-0.258303	-0.371932	-0.175005
H43	H	-0.184595	-0.650340	-0.193040
H44	H	-0.278856	-0.878380	-0.207189
H45	H	-0.446831	-0.828015	-0.203302
H46	H	-0.520538	-0.549607	-0.185266
H47	H	-0.560773	-0.225215	0.293812
C48	C	-0.555863	-0.444462	0.182945
C49	C	-0.611225	-0.507617	0.040234
C50	C	-0.633183	-0.668792	0.053954
C51	C	-0.599780	-0.766812	0.210386
C52	C	-0.544415	-0.703659	0.353108
C53	C	-0.522457	-0.542484	0.339388
H54	H	-0.635954	-0.435055	-0.075577
H55	H	-0.674167	-0.715541	-0.051700
H56	H	-0.616035	-0.886123	0.220542
H57	H	-0.519685	-0.776221	0.468919
H58	H	-0.481472	-0.495735	0.445042
H59	H	-0.434020	0.026484	0.121593
H60	H	-0.548981	-0.404239	-0.174575
H61	H	-0.577130	0.022055	-0.120824
H62	H	-0.406096	-0.402268	0.168129
