data_functionalizedCrystal
_audit_creation_method	'MofGen! by Chris Wilmer'
_symmetry_space_group_name_H-M	'P1'
_symmetry_Int_Tables_number	1
_symmetry_cell_setting	triclinic
loop_
_symmetry_equiv_pos_as_xyz
  x,y,z
_cell_length_a	17.077404
_cell_length_b	29.839131
_cell_length_c	29.839126
_cell_angle_alpha	89.978002
_cell_angle_beta	89.974084
_cell_angle_gamma	90.041645
loop_
_atom_site_label
_atom_site_type_symbol
_atom_site_fract_x
_atom_site_fract_y
_atom_site_fract_z
Zn1	Zn	1.200003	-0.178895	-0.254007
Zn2	Zn	1.533337	0.154439	0.079326
Zn3	Zn	1.866670	0.487772	0.412659
Zn4	Zn	1.199853	-0.254012	-0.178877
Zn5	Zn	1.533186	0.079321	0.154456
Zn6	Zn	1.866520	0.412654	0.487789
Zn7	Zn	1.068720	-0.178897	-0.178890
Zn8	Zn	1.402054	0.154436	0.154444
Zn9	Zn	1.735387	0.487769	0.487777
Zn10	Zn	1.068661	-0.253999	-0.253979
Zn11	Zn	1.401994	0.079335	0.079355
Zn12	Zn	1.735327	0.412668	0.412688
O13	O	1.134309	-0.216451	-0.216438
O14	O	1.467643	0.116883	0.116895
O15	O	1.800976	0.450216	0.450228
O16	O	1.309830	-0.188864	-0.244048
O17	O	1.643164	0.144470	0.089285
O18	O	1.976497	0.477803	0.422619
O19	O	1.182420	-0.244055	-0.116012
O20	O	1.515754	0.089278	0.217322
O21	O	1.849087	0.422612	0.550655
O22	O	1.086223	-0.116030	-0.188872
O23	O	1.419556	0.217303	0.144462
O24	O	1.752890	0.550637	0.477795
O25	O	1.309720	-0.244052	-0.188850
O26	O	1.643053	0.089281	0.144483
O27	O	1.976387	0.422614	0.477816
O28	O	1.182676	-0.116028	-0.244060
O29	O	1.516009	0.217306	0.089273
O30	O	1.849343	0.550639	0.422607
O31	O	1.086078	-0.188868	-0.116021
O32	O	1.419411	0.144465	0.217312
O33	O	1.752744	0.477798	0.550646
O34	O	0.958865	-0.188855	-0.188844
O35	O	1.292199	0.144478	0.144490
O36	O	1.625532	0.477812	0.477823
O37	O	1.086121	-0.244029	-0.316850
O38	O	1.419454	0.089304	0.016484
O39	O	1.752788	0.422638	0.349817
O40	O	0.958822	-0.244032	-0.244011
O41	O	1.292155	0.089302	0.089322
O42	O	1.625488	0.422635	0.422656
O43	O	1.182618	-0.188850	-0.316871
O44	O	1.515951	0.144483	0.016463
O45	O	1.849285	0.477816	0.349796
O46	O	1.182362	-0.316878	-0.188822
O47	O	1.515696	0.016456	0.144511
O48	O	1.849029	0.349789	0.477844
O49	O	1.085976	-0.316868	-0.243999
O50	O	1.419309	0.016466	0.089334
O51	O	1.752642	0.349799	0.422668
C52	C	0.930361	-0.216443	-0.216426
C53	C	1.263695	0.116891	0.116908
C54	C	1.597028	0.450224	0.450241
C55	C	0.843112	-0.216450	-0.216431
C56	C	1.176445	0.116883	0.116902
C57	C	1.509778	0.450217	0.450235
C58	C	1.134168	-0.333173	-0.216416
C59	C	1.467501	0.000160	0.116917
C60	C	1.800834	0.333493	0.450251
C61	C	1.134179	-0.383108	-0.216421
C62	C	1.467512	-0.049774	0.116912
C63	C	1.800845	0.283559	0.450245
C64	C	0.802119	-0.245224	-0.245111
C65	C	1.135452	0.088110	0.088223
C66	C	1.468786	0.421443	0.421556
C67	C	0.720139	-0.245225	-0.245118
C68	C	1.053472	0.088109	0.088215
C69	C	1.386805	0.421442	0.421549
C70	C	0.679152	-0.216454	-0.216443
C71	C	1.012486	0.116880	0.116890
C72	C	1.345819	0.450213	0.450224
C73	C	0.720150	-0.187677	-0.187762
C74	C	1.053484	0.145657	0.145571
C75	C	1.386817	0.478990	0.478905
C76	C	0.802129	-0.187674	-0.187758
C77	C	1.135463	0.145659	0.145576
C78	C	1.468796	0.478993	0.478909
C79	C	0.549280	-0.187686	-0.187773
C80	C	0.882614	0.145648	0.145560
C81	C	1.215947	0.478981	0.478894
C82	C	0.467296	-0.187689	-0.187777
C83	C	0.800629	0.145644	0.145557
C84	C	1.133962	0.478978	0.478890
C85	C	0.467290	-0.245236	-0.245133
C86	C	0.800623	0.088097	0.088200
C87	C	1.133956	0.421430	0.421533
C88	C	0.549269	-0.245233	-0.245129
C89	C	0.882602	0.088100	0.088205
C90	C	1.215935	0.421433	0.421538
C91	C	0.590261	-0.216457	-0.216447
C92	C	0.923595	0.116876	0.116886
C93	C	1.256928	0.450210	0.450219
C94	C	1.184589	-0.692744	-0.187750
C95	C	1.517922	-0.359410	0.145584
C96	C	1.851256	-0.026077	0.478917
C97	C	1.184686	-0.880417	-0.187767
C98	C	1.518019	-0.547083	0.145566
C99	C	1.851353	-0.213750	0.478899
O100	O	1.227434	-0.904675	-0.163372
O101	O	1.560768	-0.571342	0.169961
O102	O	1.894101	-0.238009	0.503294
N103	N	1.134472	-0.903893	-0.216472
N104	N	1.467805	-0.570559	0.116861
N105	N	1.801139	-0.237226	0.450195
C106	C	1.084234	-0.880448	-0.245177
C107	C	1.417567	-0.547114	0.088157
C108	C	1.750901	-0.213781	0.421490
O109	O	1.041532	-0.904722	-0.269596
O110	O	1.374865	-0.571388	0.063738
O111	O	1.708199	-0.238055	0.397071
C112	C	1.084142	-0.692775	-0.245161
C113	C	1.417475	-0.359442	0.088172
C114	C	1.750808	-0.026109	0.421505
C115	C	1.134353	-0.669302	-0.216451
C116	C	1.467687	-0.335969	0.116882
C117	C	1.801020	-0.002635	0.450215
C118	C	1.234797	-0.669270	-0.159042
C119	C	1.568131	-0.335937	0.174291
C120	C	1.901464	-0.002603	0.507624
C121	C	1.234769	-0.622355	-0.159037
C122	C	1.568103	-0.289021	0.174297
C123	C	1.901436	0.044312	0.507630
C124	C	1.184534	-0.598913	-0.187738
C125	C	1.517867	-0.265579	0.145595
C126	C	1.851200	0.067754	0.478929
C127	C	1.134325	-0.622386	-0.216445
C128	C	1.467659	-0.289053	0.116888
C129	C	1.800992	0.044280	0.450221
C130	C	1.033908	-0.669331	-0.273868
C131	C	1.367241	-0.335998	0.059465
C132	C	1.700575	-0.002665	0.392799
C133	C	1.033891	-0.622410	-0.273862
C134	C	1.367224	-0.289077	0.059471
C135	C	1.700557	0.044256	0.392804
C136	C	1.084102	-0.598937	-0.245152
C137	C	1.417436	-0.265603	0.088181
C138	C	1.750769	0.067730	0.421514
C139	C	1.084062	-0.552029	-0.245141
C140	C	1.417395	-0.218696	0.088192
C141	C	1.750728	0.114638	0.421525
N142	N	1.134276	-0.528553	-0.216436
N143	N	1.467609	-0.195220	0.116897
N144	N	1.800942	0.138114	0.450230
C145	C	1.184512	-0.551995	-0.187735
C146	C	1.517845	-0.218662	0.145599
C147	C	1.851178	0.114672	0.478932
C148	C	1.084285	-0.978978	-0.245182
C149	C	1.417618	-0.645645	0.088151
C150	C	1.750952	-0.312312	0.421484
C151	C	1.084307	-1.025896	-0.245186
C152	C	1.417640	-0.692563	0.088148
C153	C	1.750974	-0.359229	0.421481
C154	C	1.184760	-1.025862	-0.187777
C155	C	1.518093	-0.692529	0.145557
C156	C	1.851427	-0.359195	0.478890
C157	C	1.184734	-0.978943	-0.187771
C158	C	1.518067	-0.645610	0.145562
C159	C	1.851400	-0.312277	0.478895
C160	C	1.134499	-0.955502	-0.216477
C161	C	1.467832	-0.622169	0.116856
C162	C	1.801165	-0.288836	0.450189
C163	C	1.184449	-0.453469	-0.187724
C164	C	1.517782	-0.120136	0.145609
C165	C	1.851116	0.213198	0.478942
C166	C	1.184415	-0.406550	-0.187720
C167	C	1.517748	-0.073216	0.145613
C168	C	1.851081	0.260117	0.478947
C169	C	1.083965	-0.406588	-0.245131
C170	C	1.417298	-0.073254	0.088203
C171	C	1.750631	0.260079	0.421536
C172	C	1.083996	-0.453503	-0.245134
C173	C	1.417329	-0.120170	0.088200
C174	C	1.750662	0.213163	0.421533
C175	C	1.134244	-0.476943	-0.216429
C176	C	1.467578	-0.143609	0.116904
C177	C	1.800911	0.189724	0.450238
O178	O	1.041342	-0.527742	-0.269527
O179	O	1.374676	-0.194408	0.063807
O180	O	1.708009	0.138925	0.397140
O181	O	1.227220	-0.527713	-0.163326
O182	O	1.560553	-0.194379	0.170007
O183	O	1.893886	0.138954	0.503340
C184	C	1.184617	-0.739659	-0.187756
C185	C	1.517950	-0.406326	0.145578
C186	C	1.851283	-0.072992	0.478911
C187	C	1.134409	-0.763133	-0.216463
C188	C	1.467742	-0.429799	0.116870
C189	C	1.801075	-0.096466	0.450204
C190	C	1.084173	-0.739691	-0.245164
C191	C	1.417506	-0.406358	0.088169
C192	C	1.750839	-0.073024	0.421502
C193	C	1.134431	-0.810051	-0.216466
C194	C	1.467764	-0.476717	0.116867
C195	C	1.801097	-0.143384	0.450200
C196	C	1.184667	-0.833492	-0.187765
C197	C	1.518000	-0.500159	0.145569
C198	C	1.851333	-0.166826	0.478902
C199	C	1.234880	-0.810016	-0.159060
C200	C	1.568214	-0.476683	0.174273
C201	C	1.901547	-0.143350	0.507607
C202	C	1.234853	-0.763101	-0.159054
C203	C	1.568186	-0.429768	0.174279
C204	C	1.901519	-0.096434	0.507613
C205	C	1.033959	-0.763167	-0.273869
C206	C	1.367292	-0.429834	0.059464
C207	C	1.700626	-0.096500	0.392797
C208	C	1.033990	-0.810082	-0.273872
C209	C	1.367323	-0.476749	0.059461
C210	C	1.700657	-0.143416	0.392794
C211	C	1.084226	-0.833524	-0.245171
C212	C	1.417559	-0.500191	0.088162
C213	C	1.750893	-0.166858	0.421496
C214	C	1.339054	-0.216459	-0.216451
C215	C	1.672387	0.116874	0.116882
C216	C	2.005720	0.450207	0.450216
C217	C	1.426303	-0.216463	-0.216456
C218	C	1.759637	0.116871	0.116877
C219	C	2.092970	0.450204	0.450210
C220	C	1.134380	-0.216438	-0.333617
C221	C	1.467713	0.116895	-0.000283
C222	C	1.801046	0.450229	0.333050
C223	C	1.134410	-0.216432	-0.383551
C224	C	1.467743	0.116901	-0.050218
C225	C	1.801076	0.450234	0.283116
C226	C	1.134473	-0.099272	-0.216470
C227	C	1.467806	0.234061	0.116863
C228	C	1.801140	0.567394	0.450196
C229	C	1.134543	-0.049338	-0.216484
C230	C	1.467876	0.283995	0.116849
C231	C	1.801209	0.617329	0.450183
C232	C	1.184565	-0.245108	-0.740137
C233	C	1.517898	0.088225	-0.406803
C234	C	1.851231	0.421559	-0.073470
C235	C	1.184566	-0.245139	-0.552463
C236	C	1.517899	0.088194	-0.219130
C237	C	1.851233	0.421527	0.114203
O238	O	1.227202	-0.269591	-0.528197
O239	O	1.560535	0.063742	-0.194864
O240	O	1.893869	0.397076	0.138469
N241	N	1.134406	-0.216411	-0.528996
N242	N	1.467739	0.116923	-0.195663
N243	N	1.801073	0.450256	0.137670
C244	C	1.084239	-0.187674	-0.552450
C245	C	1.417572	0.145659	-0.219117
C246	C	1.750905	0.478992	0.114216
O247	O	1.041569	-0.163243	-0.528184
O248	O	1.374902	0.170091	-0.194850
O249	O	1.708236	0.503424	0.138483
C250	C	1.084234	-0.187646	-0.740122
C251	C	1.417567	0.145688	-0.406789
C252	C	1.750901	0.479021	-0.073456
C253	C	1.134403	-0.216373	-0.763587
C254	C	1.467736	0.116960	-0.430254
C255	C	1.801069	0.450294	-0.096921
C256	C	1.234729	-0.273834	-0.763601
C257	C	1.568062	0.059500	-0.430268
C258	C	1.901395	0.392833	-0.096935
C259	C	1.234731	-0.273824	-0.810517
C260	C	1.568064	0.059510	-0.477184
C261	C	1.901398	0.392843	-0.143850
C262	C	1.184569	-0.245088	-0.833968
C263	C	1.517902	0.088245	-0.500634
C264	C	1.851236	0.421578	-0.167301
C265	C	1.134405	-0.216363	-0.810503
C266	C	1.467738	0.116970	-0.477169
C267	C	1.801072	0.450304	-0.143836
C268	C	1.034063	-0.158912	-0.763576
C269	C	1.367396	0.174422	-0.430242
C270	C	1.700730	0.507755	-0.096909
C271	C	1.034065	-0.158908	-0.810497
C272	C	1.367398	0.174425	-0.477163
C273	C	1.700732	0.507759	-0.143830
C274	C	1.084234	-0.187635	-0.833961
C275	C	1.417567	0.145698	-0.500628
C276	C	1.750901	0.479031	-0.167295
C277	C	1.084245	-0.187618	-0.880869
C278	C	1.417579	0.145715	-0.547536
C279	C	1.750912	0.479049	-0.214202
N280	N	1.134405	-0.216347	-0.904336
N281	N	1.467738	0.116987	-0.571003
N282	N	1.801072	0.450320	-0.237669
C283	C	1.184567	-0.245082	-0.880885
C284	C	1.517900	0.088251	-0.547552
C285	C	1.851234	0.421585	-0.214219
C286	C	1.084246	-0.187691	-0.453920
C287	C	1.417579	0.145643	-0.120586
C288	C	1.750912	0.478976	0.212747
C289	C	1.084248	-0.187697	-0.407002
C290	C	1.417581	0.145636	-0.073668
C291	C	1.750914	0.478969	0.259665
C292	C	1.184574	-0.245163	-0.407018
C293	C	1.517908	0.088170	-0.073685
C294	C	1.851241	0.421504	0.259648
C295	C	1.184576	-0.245154	-0.453937
C296	C	1.517909	0.088179	-0.120604
C297	C	1.851242	0.421513	0.212730
C298	C	1.134406	-0.216419	-0.477387
C299	C	1.467739	0.116914	-0.144053
C300	C	1.801072	0.450247	0.189280
C301	C	1.184568	-0.245059	-0.979411
C302	C	1.517902	0.088274	-0.646078
C303	C	1.851235	0.421608	-0.312745
C304	C	1.184568	-0.245045	-1.026331
C305	C	1.517902	0.088288	-0.692998
C306	C	1.851235	0.421621	-0.359664
C307	C	1.084239	-0.187581	-1.026310
C308	C	1.417573	0.145752	-0.692977
C309	C	1.750906	0.479086	-0.359644
C310	C	1.084242	-0.187593	-0.979395
C311	C	1.417575	0.145740	-0.646061
C312	C	1.750909	0.479074	-0.312728
C313	C	1.134409	-0.216335	-0.955946
C314	C	1.467742	0.116998	-0.622613
C315	C	1.801076	0.450331	-0.289280
O316	O	1.041626	-0.163183	-0.905164
O317	O	1.374959	0.170151	-0.571831
O318	O	1.708292	0.503484	-0.238497
O319	O	1.227218	-0.269517	-0.905160
O320	O	1.560551	0.063816	-0.571827
O321	O	1.893885	0.397150	-0.238493
C322	C	1.184563	-0.245118	-0.693221
C323	C	1.517896	0.088215	-0.359888
C324	C	1.851229	0.421549	-0.026554
C325	C	1.134398	-0.216393	-0.669756
C326	C	1.467732	0.116941	-0.336423
C327	C	1.801065	0.450274	-0.003090
C328	C	1.084237	-0.187657	-0.693207
C329	C	1.417570	0.145676	-0.359874
C330	C	1.750903	0.479009	-0.026540
C331	C	1.134400	-0.216399	-0.622838
C332	C	1.467734	0.116934	-0.289505
C333	C	1.801067	0.450268	0.043828
C334	C	1.184562	-0.245134	-0.599388
C335	C	1.517896	0.088199	-0.266054
C336	C	1.851229	0.421532	0.067279
C337	C	1.234722	-0.273863	-0.622855
C338	C	1.568056	0.059470	-0.289522
C339	C	1.901389	0.392804	0.043812
C340	C	1.234724	-0.273853	-0.669770
C341	C	1.568058	0.059480	-0.336437
C342	C	1.901391	0.392813	-0.003104
C343	C	1.034077	-0.158929	-0.669740
C344	C	1.367410	0.174405	-0.336406
C345	C	1.700743	0.507738	-0.003073
C346	C	1.034079	-0.158940	-0.622824
C347	C	1.367412	0.174393	-0.289491
C348	C	1.700746	0.507726	0.043842
C349	C	1.084241	-0.187676	-0.599374
C350	C	1.417574	0.145658	-0.266040
C351	C	1.750908	0.478991	0.067293
C352	C	1.134284	-0.216431	-0.099716
C353	C	1.467618	0.116902	0.233618
C354	C	1.800951	0.450236	0.566951
C355	C	1.134406	-0.216310	-0.049782
C356	C	1.467740	0.117023	0.283552
C357	C	1.801073	0.450357	0.616885
H358	H	0.835484	-0.268654	-0.268460
H359	H	1.168818	0.064680	0.064873
H360	H	1.502151	0.398013	0.398207
H361	H	0.993017	-0.688435	-0.297245
H362	H	1.326350	-0.355102	0.036089
H363	H	1.659683	-0.021769	0.369422
Br364	Br	0.965977	-0.119906	-0.842319
Br365	Br	1.299310	0.213427	-0.508985
Br366	Br	1.632644	0.546760	-0.175652
Br367	Br	0.411671	-0.148646	-0.148857
Br368	Br	0.745005	0.184687	0.184476
Br369	Br	1.078338	0.518021	0.517810
H370	H	1.275710	-0.688351	-0.135670
H371	H	1.609043	-0.355018	0.197663
H372	H	1.942376	-0.021685	0.530997
H373	H	0.993226	-0.135529	-0.688829
H374	H	1.326560	0.197804	-0.355495
H375	H	1.659893	0.531137	-0.022162
H376	H	1.225427	-0.268546	-0.473039
H377	H	1.558761	0.064787	-0.139706
H378	H	1.892094	0.398120	0.193628
Br379	Br	0.411658	-0.284284	-0.284064
Br380	Br	0.744992	0.049049	0.049269
Br381	Br	1.078325	0.382382	0.382602
Br382	Br	1.252879	-0.947091	-0.148806
Br383	Br	1.586213	-0.613758	0.184527
Br384	Br	1.919546	-0.280424	0.517861
H385	H	1.275658	-0.603245	-0.135660
H386	H	1.608992	-0.269912	0.197673
H387	H	1.942325	0.063422	0.531007
Br388	Br	0.664527	-0.148626	-0.148850
Br389	Br	0.997860	0.184708	0.184484
Br390	Br	1.331194	0.518041	0.517817
H391	H	1.043061	-0.387494	-0.268498
H392	H	1.376394	-0.054161	0.064836
H393	H	1.709727	0.279173	0.398169
H394	H	0.686766	-0.268656	-0.268471
H395	H	1.020099	0.064678	0.064862
H396	H	1.353433	0.398011	0.398195
H397	H	0.582638	-0.268664	-0.268476
H398	H	0.915971	0.064670	0.064857
H399	H	1.249304	0.398003	0.398191
H400	H	1.225664	-1.044956	-0.164407
H401	H	1.558998	-0.711623	0.168927
H402	H	1.892331	-0.378289	0.502260
Br403	Br	0.604913	-0.148631	-0.148849
Br404	Br	0.938246	0.184703	0.184485
Br405	Br	1.271580	0.518036	0.517818
H406	H	0.835505	-0.164241	-0.164406
H407	H	1.168838	0.169092	0.168927
H408	H	1.502171	0.502426	0.502261
H409	H	1.225303	-0.387439	-0.164339
H410	H	1.558636	-0.054105	0.168994
H411	H	1.891969	0.279228	0.502327
Br412	Br	0.965714	-0.590600	-0.312825
Br413	Br	1.299047	-0.257267	0.020509
Br414	Br	1.632381	0.076067	0.353842
Br415	Br	1.252644	-0.485273	-0.148768
Br416	Br	1.585977	-0.151939	0.184565
Br417	Br	1.919311	0.181394	0.517899
H418	H	0.993227	-0.135543	-0.603723
H419	H	1.326560	0.197791	-0.270390
H420	H	1.659894	0.531124	0.062943
H421	H	1.043404	-0.164299	-0.387901
H422	H	1.376738	0.169034	-0.054567
H423	H	1.710071	0.502367	0.278766
H424	H	1.043412	-1.045004	-0.268560
H425	H	1.376746	-0.711671	0.064773
H426	H	1.710079	-0.378338	0.398107
H427	H	1.043376	-0.959896	-0.268559
H428	H	1.376709	-0.626562	0.064774
H429	H	1.710042	-0.293229	0.398108
Br430	Br	1.015832	-0.485361	-0.284086
Br431	Br	1.349166	-0.152028	0.049247
Br432	Br	1.682499	0.181305	0.382580
Br433	Br	1.252652	-0.284067	-0.947596
Br434	Br	1.585985	0.049266	-0.614262
Br435	Br	1.919319	0.382599	-0.280929
H436	H	1.275740	-0.743992	-0.135676
H437	H	1.609073	-0.410659	0.197658
H438	H	1.942406	-0.077325	0.530991
Br439	Br	1.303054	-0.841840	-0.120106
Br440	Br	1.636387	-0.508506	0.213227
Br441	Br	1.969721	-0.175173	0.546560
H442	H	0.993095	-0.829191	-0.297251
H443	H	1.326428	-0.495857	0.036082
H444	H	1.659762	-0.162524	0.369416
H445	H	1.275581	-0.297218	-0.829618
H446	H	1.608914	0.036115	-0.496284
H447	H	1.942248	0.369449	-0.162951
H448	H	0.993052	-0.744084	-0.297242
H449	H	1.326385	-0.410751	0.036091
H450	H	1.659718	-0.077418	0.369425
H451	H	1.225425	-0.268439	-1.045434
H452	H	1.558759	0.064895	-0.712100
H453	H	1.892092	0.398228	-0.378767
H454	H	1.275577	-0.297246	-0.688871
H455	H	1.608910	0.036087	-0.355538
H456	H	1.942244	0.369421	-0.022205
Br457	Br	1.016132	-0.148700	-0.485738
Br458	Br	1.349466	0.184633	-0.152404
Br459	Br	1.682799	0.517966	0.180929
Br460	Br	1.252650	-0.284162	-0.375183
Br461	Br	1.585983	0.049172	-0.041850
Br462	Br	1.919316	0.382505	0.291483
Br463	Br	1.302815	-0.312837	-0.731784
Br464	Br	1.636148	0.020496	-0.398451
Br465	Br	1.969481	0.353830	-0.065118
H466	H	0.993209	-0.135520	-0.744479
H467	H	1.326542	0.197814	-0.411145
H468	H	1.659876	0.531147	-0.077812
Br469	Br	1.302803	-0.312858	-0.591020
Br470	Br	1.636136	0.020475	-0.257686
Br471	Br	1.969470	0.353809	0.075647
Br472	Br	1.016166	-0.148600	-0.947549
Br473	Br	1.349499	0.184734	-0.614215
Br474	Br	1.682833	0.518067	-0.280882
Br475	Br	1.016168	-0.148584	-1.058145
Br476	Br	1.349501	0.184749	-0.724812
Br477	Br	1.682834	0.518083	-0.391479
