data_functionalizedCrystal
_audit_creation_method	'MofGen! by Chris Wilmer'
_symmetry_space_group_name_H-M	'P1'
_symmetry_Int_Tables_number	1
_symmetry_cell_setting	triclinic
loop_
_symmetry_equiv_pos_as_xyz
  x,y,z
_cell_length_a	14.908571
_cell_length_b	13.897448
_cell_length_c	14.908308
_cell_angle_alpha	86.732812
_cell_angle_beta	89.824947
_cell_angle_gamma	86.713891
loop_
_atom_site_label
_atom_site_type_symbol
_atom_site_fract_x
_atom_site_fract_y
_atom_site_fract_z
Zn1	Zn	1.345318	-0.503381	0.587582
Zn2	Zn	1.845318	-0.003381	1.087582
Zn3	Zn	1.353905	-0.655952	0.437223
Zn4	Zn	1.853905	-0.155952	0.937223
Zn5	Zn	1.203632	-0.484854	0.428580
Zn6	Zn	1.703632	0.015146	0.928580
Zn7	Zn	1.194933	-0.654806	0.578874
Zn8	Zn	1.694933	-0.154806	1.078874
O9	O	1.274447	-0.574748	0.508065
O10	O	1.774447	-0.074748	1.008065
O11	O	1.472283	-0.531853	0.574898
O12	O	1.972283	-0.031853	1.074898
O13	O	1.341206	-0.625981	0.310251
O14	O	1.841206	-0.125981	0.810251
O15	O	1.222474	-0.352335	0.449699
O16	O	1.722474	0.147665	0.949699
O17	O	1.478592	-0.643947	0.464429
O18	O	1.978592	-0.143947	0.964429
O19	O	1.326570	-0.365946	0.566518
O20	O	1.826570	0.134054	1.066518
O21	O	1.230801	-0.500276	0.303902
O22	O	1.730801	-0.000276	0.803902
O23	O	1.076652	-0.499165	0.441256
O24	O	1.576652	0.000835	0.941256
O25	O	1.207647	-0.641993	0.705854
O26	O	1.707647	-0.141993	1.205854
O27	O	1.070260	-0.624028	0.551676
O28	O	1.570260	-0.124028	1.051676
O29	O	1.318134	-0.530742	0.712252
O30	O	1.818134	-0.030742	1.212252
O31	O	1.332770	-0.790777	0.455986
O32	O	1.832770	-0.290777	0.955986
O33	O	1.215974	-0.789935	0.560056
O34	O	1.715974	-0.289935	1.060056
C35	C	1.040831	-0.559463	0.494584
C36	C	1.540831	-0.059463	0.994584
C37	C	0.940888	-0.552948	0.488838
C38	C	1.440888	-0.052948	0.988838
C39	C	0.746485	-0.670908	0.592867
C40	C	1.246485	-0.170908	1.092867
C41	C	0.652579	-0.664790	0.587471
C42	C	1.152579	-0.164790	1.087471
C43	C	0.659168	-0.534590	0.472656
C44	C	1.159168	-0.034590	0.972656
C45	C	0.753074	-0.540708	0.478051
C46	C	1.253074	-0.040708	0.978051
C47	C	0.796729	-0.608870	0.538158
C48	C	1.296729	-0.108870	1.038158
C49	C	0.890637	-0.614992	0.543549
C50	C	1.390637	-0.114992	1.043549
C51	C	0.897224	-0.484788	0.428738
C52	C	1.397224	0.015212	0.928738
C53	C	0.803318	-0.478670	0.423343
C54	C	1.303318	0.021330	0.923343
C55	C	1.274383	-0.825357	0.508035
C56	C	1.774383	-0.325357	1.008035
C57	C	1.274436	-0.932575	0.508057
C58	C	1.774436	-0.432575	1.008057
C59	C	1.274527	-1.128880	0.508119
C60	C	1.774527	-0.628880	1.008119
C61	C	1.274474	-1.019642	0.508087
C62	C	1.774474	-0.519642	1.008087
C63	C	1.508975	-0.590094	0.521599
C64	C	2.008975	-0.090094	1.021599
C65	C	1.608918	-0.596634	0.527367
C66	C	2.108918	-0.096634	1.027367
C67	C	1.260963	-0.588307	0.742590
C68	C	1.760963	-0.088307	1.242590
C69	C	1.255216	-0.594084	0.842531
C70	C	1.755216	-0.094084	1.342531
C71	C	1.274535	-0.323164	0.508116
C72	C	1.774535	0.176836	1.008116
C73	C	1.274572	-0.215954	0.508138
C74	C	1.774572	0.284046	1.008138
C75	C	1.287931	-0.561177	0.274455
C76	C	1.787931	-0.061177	0.774455
C77	C	1.293851	-0.555139	0.174525
C78	C	1.793851	-0.055139	0.674525
C79	C	1.359466	-0.489073	1.036993
C80	C	1.859466	0.010927	1.536993
C81	C	1.354070	-0.494498	1.130897
C82	C	1.854070	0.005502	1.630897
C83	C	1.239023	-0.610355	1.124242
C84	C	1.739023	-0.110355	1.624242
C85	C	1.244420	-0.604930	1.030339
C86	C	1.744420	-0.104930	1.530339
C87	C	1.304644	-0.544287	0.986718
C88	C	1.804644	-0.044287	1.486718
C89	C	1.310044	-0.538868	0.892813
C90	C	1.810044	-0.038868	1.392813
C91	C	1.194994	-0.654719	0.886160
C92	C	1.694994	-0.154719	1.386160
C93	C	1.189597	-0.660144	0.980064
C94	C	1.689597	-0.160144	1.480064
H95	H	0.782030	-0.726414	0.641803
H96	H	1.282030	-0.226414	1.141803
H97	H	1.140563	-0.709515	1.015593
H98	H	1.640563	-0.209515	1.515593
C99	C	0.655504	-0.794101	0.701501
C100	C	1.155504	-0.294101	1.201501
C101	C	0.597350	-0.732985	0.647607
C102	C	1.097350	-0.232985	1.147607
H103	H	0.621405	-0.836205	0.738625
H104	H	1.121405	-0.336205	1.238625
H105	H	0.690161	-0.756508	0.738062
H106	H	1.190161	-0.256508	1.238062
H107	H	0.694373	-0.831052	0.664362
H108	H	1.194373	-0.331052	1.164362
H109	H	0.558485	-0.696030	0.684746
H110	H	1.058485	-0.196030	1.184746
H111	H	0.562678	-0.770583	0.611043
H112	H	1.062678	-0.270583	1.111043
C113	C	0.518134	-0.467352	0.413466
C114	C	1.018134	0.032648	0.913466
C115	C	0.611169	-0.459634	0.406627
C116	C	1.111169	0.040366	0.906627
H117	H	0.488503	-0.421071	0.372708
H118	H	0.988503	0.078929	0.872708
H119	H	0.499316	-0.455860	0.473026
H120	H	0.999316	0.044140	0.973026
H121	H	0.503488	-0.530359	0.399287
H122	H	1.003488	-0.030359	0.899287
H123	H	0.625816	-0.396629	0.420813
H124	H	1.125816	0.103371	0.920813
H125	H	0.629994	-0.471119	0.347053
H126	H	1.129994	0.028881	0.847053
C127	C	1.152179	-0.697851	0.739260
C128	C	1.652179	-0.197851	1.239260
C129	C	1.134727	-0.715415	0.830895
C130	C	1.634727	-0.215415	1.330895
H131	H	1.114971	-0.735321	0.705143
H132	H	1.614971	-0.235321	1.205143
H133	H	1.213467	-0.715029	0.727361
H134	H	1.713467	-0.215029	1.227361
H135	H	1.139920	-0.631292	0.723129
H136	H	1.639920	-0.131292	1.223129
H137	H	1.146992	-0.781974	0.847028
H138	H	1.646992	-0.281974	1.347028
H139	H	1.073425	-0.698244	0.842799
H140	H	1.573425	-0.198244	1.342799
C141	C	1.486493	-0.477493	0.938374
C142	C	1.986493	0.022507	1.438374
C143	C	1.425670	-0.422425	0.989042
C144	C	1.925670	0.077575	1.489042
H145	H	1.527368	-0.436346	0.908778
H146	H	2.027368	0.063654	1.408778
H147	H	1.454610	-0.509585	0.894995
H148	H	1.954610	-0.009585	1.394995
H149	H	1.518760	-0.523883	0.976994
H150	H	2.018760	-0.023883	1.476994
H151	H	1.393397	-0.376039	0.950420
H152	H	1.893397	0.123961	1.450420
H153	H	1.457555	-0.390316	1.032426
H154	H	1.957555	0.109684	1.532426
H155	H	0.767761	-0.423172	0.374408
H156	H	1.267761	0.076828	0.874408
C157	C	1.328636	-0.403837	0.787954
C158	C	1.828636	0.096163	1.287954
C159	C	1.376236	-0.472206	0.844861
C160	C	1.876236	0.027794	1.344861
H161	H	1.369501	-0.362684	0.758349
H162	H	1.869501	0.137316	1.258349
H163	H	1.287370	-0.366506	0.822335
H164	H	1.787370	0.133494	1.322335
H165	H	1.296766	-0.435957	0.744572
H166	H	1.796766	0.064043	1.244572
H167	H	1.408101	-0.440086	0.888247
H168	H	1.908101	0.059914	1.388247
H169	H	1.417517	-0.509541	0.810477
H170	H	1.917517	-0.009541	1.310477
H171	H	0.926180	-0.670495	0.592489
H172	H	1.426180	-0.170495	1.092489
H173	H	0.938142	-0.434274	0.384188
H174	H	1.438142	0.065726	0.884188
H175	H	1.398709	-0.449534	1.171828
H176	H	1.898709	0.050466	1.671828
H177	H	1.189991	-0.659727	1.159775
H178	H	1.689991	-0.159727	1.659775
