data_functionalizedCrystal
_audit_creation_method	'MofGen! by Chris Wilmer'
_symmetry_space_group_name_H-M	'P1'
_symmetry_Int_Tables_number	1
_symmetry_cell_setting	triclinic
loop_
_symmetry_equiv_pos_as_xyz
  x,y,z
_cell_length_a	14.560432
_cell_length_b	14.628931
_cell_length_c	14.628931
_cell_angle_alpha	60.000000
_cell_angle_beta	90.000632
_cell_angle_gamma	60.001318
loop_
_atom_site_label
_atom_site_type_symbol
_atom_site_fract_x
_atom_site_fract_y
_atom_site_fract_z
Zr1	Zr	0.884751	1.000601	-0.119964
O2	O	0.738106	1.191302	-0.265924
O3	O	0.929705	0.809897	-0.075219
O4	O	0.929706	1.000602	-0.265924
O5	O	0.738105	1.000598	0.075213
O6	O	1.080843	1.000606	-0.265925
O7	O	0.738105	1.000597	-0.075219
O8	O	1.080842	0.659469	0.075213
O9	O	0.738106	1.341734	-0.265925
O10	O	1.061670	0.888340	-0.056136
O11	O	0.948878	0.888337	0.056130
O12	O	0.948878	1.112868	-0.168402
O13	O	0.836086	1.112866	-0.056136
Zr14	Zr	1.125797	1.000608	0.119957
Zr15	Zr	1.125798	1.000607	-0.119964
Zr16	Zr	0.884750	1.000602	0.119957
Zr17	Zr	0.884751	1.240522	-0.119964
Zr18	Zr	1.125797	0.760686	0.119957
O19	O	1.080843	1.191312	0.075212
O20	O	1.080844	1.191311	-0.265925
O21	O	0.738105	1.191303	0.075213
O22	O	1.272442	0.809906	0.265918
O23	O	1.272443	0.809905	-0.075219
O24	O	0.929705	0.809898	0.265918
O25	O	1.272443	1.000611	-0.075220
O26	O	1.080842	1.000607	0.265918
O27	O	0.929705	1.000603	0.265918
O28	O	1.272443	1.000611	0.075212
O29	O	0.929706	1.341739	-0.265925
O30	O	1.080842	0.659470	0.265918
O31	O	1.272442	0.659475	0.265918
O32	O	1.272443	0.659474	0.075212
O33	O	0.738106	1.341735	-0.075219
O34	O	0.929706	1.341740	-0.075220
O35	O	1.061670	0.888341	0.168395
O36	O	1.174462	0.888343	0.056129
O37	O	1.061670	1.112871	-0.056136
O38	O	0.948878	1.112869	0.056129
C39	C	1.005274	0.700499	-0.000003
C40	C	1.005273	0.598646	-0.000003
C41	C	1.061226	0.553238	-0.055694
C42	C	1.061227	0.447968	-0.055695
C43	C	0.703761	1.000597	-0.000003
C44	C	0.601430	1.000594	-0.000003
C45	C	0.719169	0.766184	0.117193
C46	C	0.729961	0.648984	0.175785
C47	C	0.633809	0.648989	0.175782
C48	C	0.526855	0.766208	0.117183
C49	C	0.516063	0.883409	0.058591
C50	C	0.612224	0.883390	0.058598
C51	C	0.398326	1.117816	-0.058596
C52	C	0.494477	1.117813	-0.058601
C53	C	0.291372	1.235034	-0.117195
C54	C	0.280578	1.352238	-0.175795
C55	C	0.376739	1.352228	-0.175791
C56	C	0.483684	1.235014	-0.117194
C57	C	1.306787	1.000612	-0.000004
C58	C	1.409118	1.000615	-0.000004
C59	C	1.005274	1.000604	-0.300108
C60	C	1.005275	1.000603	-0.401961
C61	C	1.005274	1.300710	-0.000004
C62	C	1.005275	1.402563	-0.000004
C63	C	0.949322	1.111984	-0.503062
C64	C	0.949321	1.111986	-0.608333
C65	C	1.005274	1.000605	0.300101
C66	C	1.005273	1.000606	0.401954
C67	C	1.306787	0.700507	-0.000004
C68	C	1.409117	0.598657	-0.000004
C69	C	1.005273	0.700500	0.300102
C70	C	1.005273	0.598647	0.401955
C71	C	1.306786	0.700508	0.300101
C72	C	1.409117	0.598658	0.401954
C73	C	0.703762	1.300701	-0.300108
C74	C	0.601431	1.402551	-0.401961
C75	C	0.703761	1.300702	-0.000003
C76	C	0.601431	1.402552	-0.000003
C77	C	1.005275	1.300709	-0.300109
C78	C	1.005275	1.402561	-0.401962
C79	C	1.398787	0.553247	-0.055695
C80	C	1.504550	0.447979	-0.055696
C81	C	1.061225	0.553240	0.503055
C82	C	1.061226	0.447970	0.608327
C83	C	1.510692	0.553251	0.391672
C84	C	1.616457	0.447984	0.496941
H85	H	0.957364	0.441612	0.047673
H86	H	1.109131	0.408919	0.695057
H87	H	1.053173	0.905243	-0.511319
N88	N	0.187657	1.235057	-0.117205
H89	H	0.187611	1.189033	-0.037838
H90	H	0.187661	1.189082	-0.150620
N91	N	0.941796	0.454260	0.483178
H92	H	0.995814	0.437618	0.440874
H93	H	0.882576	0.550312	0.440983
N94	N	0.941827	0.546907	0.063163
H95	H	0.882614	0.563551	0.009383
H96	H	0.904560	0.591693	0.100328
N97	N	0.941824	0.546908	0.390532
H98	H	0.972695	0.507155	0.348289
H99	H	0.859457	0.619928	0.348319
H100	H	1.519356	0.592312	0.304937
N101	N	1.068738	0.874288	-0.390530
H102	H	1.014707	0.869128	-0.427664
H103	H	1.106077	0.800032	-0.308577
H104	H	1.703593	0.408931	0.488311
H105	H	1.495881	0.408924	-0.103371
H106	H	1.518988	0.441615	0.606673
N107	N	0.365096	1.478639	-0.238984
H108	H	0.282753	1.552889	-0.276102
H109	H	0.402417	1.483753	-0.297904
H110	H	1.400456	0.559604	0.488691
H111	H	0.817052	0.553546	0.223498
N112	N	1.124678	0.604969	-0.118859
H113	H	1.115679	0.672842	-0.109909
H114	H	1.093768	0.644650	-0.200826
H115	H	0.797467	0.766168	0.117192
N116	N	1.283363	0.604958	-0.118844
H117	H	1.224171	0.672821	-0.109885
H118	H	1.274410	0.531903	-0.088073
H119	H	1.614797	0.441615	0.047685
H120	H	0.901412	1.207344	-0.695063
H121	H	1.109126	0.408924	-0.103380
N122	N	0.885859	1.238300	-0.514492
H123	H	0.848518	1.312630	-0.596424
H124	H	0.939955	1.243337	-0.477299
H125	H	1.496261	0.559605	0.047670
N126	N	1.124676	0.604972	0.514490
H127	H	1.115680	0.672842	0.437667
H128	H	1.207029	0.531932	0.556776
H129	H	0.642601	0.553554	0.223497
N130	N	0.423146	0.766218	0.117194
H131	H	0.446212	0.674187	0.163209
H132	H	0.376904	0.812302	0.037795
N133	N	0.165231	1.478654	-0.238980
H134	H	0.105958	1.460873	-0.230082
H135	H	0.156314	1.529847	-0.320935
H136	H	0.561984	1.234994	-0.117188
