data_functionalizedCrystal
_audit_creation_method	'MofGen! by Chris Wilmer'
_symmetry_space_group_name_H-M	'P1'
_symmetry_Int_Tables_number	1
_symmetry_cell_setting	triclinic
loop_
_symmetry_equiv_pos_as_xyz
  x,y,z
_cell_length_a	12.759395
_cell_length_b	12.759392
_cell_length_c	12.759387
_cell_angle_alpha	90.027265
_cell_angle_beta	89.980011
_cell_angle_gamma	89.970335
loop_
_atom_site_label
_atom_site_type_symbol
_atom_site_fract_x
_atom_site_fract_y
_atom_site_fract_z
Zn1	Zn	1.606150	0.418195	-0.594054
Zn2	Zn	1.606001	0.593911	-0.418384
Zn3	Zn	1.430452	0.418249	-0.418388
Zn4	Zn	1.430396	0.593835	-0.594021
O5	O	1.518250	0.506048	-0.506212
O6	O	1.753151	0.441514	-0.570764
O7	O	1.582675	0.570664	-0.271364
O8	O	1.453844	0.271221	-0.441706
O9	O	1.753042	0.570612	-0.441700
O10	O	1.582929	0.271181	-0.570767
O11	O	1.453700	0.441605	-0.271367
O12	O	1.283424	0.441531	-0.441674
O13	O	1.453749	0.570482	-0.741046
O14	O	1.283383	0.570534	-0.570710
O15	O	1.582874	0.441440	-0.741071
O16	O	1.582621	0.740922	-0.441667
O17	O	1.453605	0.740866	-0.570707
C18	C	1.245282	0.506031	-0.506189
C19	C	1.128506	0.506049	-0.506205
C20	C	1.518119	0.779015	-0.506206
C21	C	1.518160	0.895792	-0.506238
C22	C	0.909078	0.640620	-0.640393
C23	C	0.963948	0.707884	-0.707462
C24	C	1.073669	0.707871	-0.707449
C25	C	1.128524	0.640590	-0.640357
C26	C	1.073654	0.573326	-0.573287
C27	C	0.963930	0.573344	-0.573310
C28	C	1.073636	0.438785	-0.439136
C29	C	0.963914	0.438791	-0.439153
C30	C	1.128490	0.371503	-0.372043
C31	C	1.073620	0.304232	-0.304978
C32	C	0.963892	0.304247	-0.304995
C33	C	0.909044	0.371527	-0.372084
C34	C	1.383911	1.115442	-0.371800
C35	C	1.316741	1.060684	-0.304535
C36	C	1.316709	0.950963	-0.304502
C37	C	1.383852	0.895997	-0.371743
C38	C	1.451022	0.950755	-0.439007
C39	C	1.451049	1.060479	-0.439031
C40	C	1.585330	0.950550	-0.573503
C41	C	1.585369	1.060272	-0.573532
C42	C	1.652473	0.895584	-0.640744
C43	C	1.719650	0.950343	-0.708004
C44	C	1.719680	1.060071	-0.708034
C45	C	1.652539	1.115030	-0.640797
C46	C	1.792283	0.506065	-0.506235
C47	C	1.909060	0.506073	-0.506245
C48	C	1.518322	0.505946	-0.780245
C49	C	1.518353	0.505903	-0.897022
C50	C	1.518346	1.232014	-0.506251
C51	C	1.518226	1.115238	-0.506292
C52	C	1.652878	0.371458	-1.116491
C53	C	1.720093	0.304292	-1.061642
C54	C	1.720064	0.304327	-0.951920
C55	C	1.652813	0.371537	-0.897045
C56	C	1.585598	0.438703	-0.951895
C57	C	1.585633	0.438658	-1.061619
C58	C	1.451138	0.573069	-0.951872
C59	C	1.451161	0.573030	-1.061593
C60	C	1.383888	0.640278	-0.896997
C61	C	1.316666	0.707440	-0.951846
C62	C	1.316697	0.707402	-1.061574
C63	C	1.383945	0.640195	-1.116442
C64	C	1.518238	0.506073	-0.233244
C65	C	1.518411	0.505820	-0.116468
H66	H	0.819737	0.640627	-0.640421
H67	H	1.652437	0.806243	-0.640717
Cl68	Cl	1.142652	0.792437	-0.791759
Cl69	Cl	1.232137	0.791927	-0.882856
H70	H	1.652560	1.204371	-0.640811
Cl71	Cl	1.384177	1.253379	-0.371606
H72	H	1.262073	1.105449	-0.249791
Cl73	Cl	1.652902	0.371390	-1.254428
H74	H	1.774849	0.249574	-1.106333
H75	H	0.919273	0.762666	-0.762085
Cl76	Cl	1.232263	0.882120	-0.219944
H77	H	1.383810	0.806656	-0.371719
Cl78	Cl	1.383985	0.640136	-1.254379
H79	H	1.774369	1.104649	-0.762818
Cl80	Cl	1.804038	0.881239	-0.792535
Cl81	Cl	0.894922	0.219688	-0.220667
H82	H	1.774798	0.249637	-0.907262
Cl83	Cl	1.652792	0.371592	-0.759109
H84	H	1.383873	0.640307	-0.807655
H85	H	1.217865	0.640594	-0.640342
H86	H	1.261966	0.762100	-1.106226
H87	H	1.118291	0.249462	-0.250352
H88	H	1.217831	0.371502	-0.372032
H89	H	0.819703	0.371541	-0.372109
