data_functionalizedCrystal
_audit_creation_method	'MofGen! by Chris Wilmer'
_symmetry_space_group_name_H-M	'P1'
_symmetry_Int_Tables_number	1
_symmetry_cell_setting	triclinic
loop_
_symmetry_equiv_pos_as_xyz
  x,y,z
_cell_length_a	13.185407
_cell_length_b	13.262508
_cell_length_c	12.376457
_cell_angle_alpha	116.815184
_cell_angle_beta	82.592400
_cell_angle_gamma	68.867216
loop_
_atom_site_label
_atom_site_type_symbol
_atom_site_fract_x
_atom_site_fract_y
_atom_site_fract_z
O1	O	1.488754	-0.326851	-0.194469
O2	O	1.163841	-0.210729	-0.158774
O3	O	1.345800	-0.438234	-0.228714
O4	O	1.306795	-0.099345	-0.124528
O5	O	1.300329	-0.381422	-0.023237
O6	O	1.118370	-0.153917	0.046704
O7	O	1.443284	-0.270039	0.011009
Zn8	Zn	1.273607	-0.202958	0.061480
Zn9	Zn	1.333517	-0.277810	-0.209245
O10	O	1.261324	-0.042533	0.080949
C11	C	1.099725	-0.170551	-0.052417
C12	C	0.976425	-0.135487	-0.041639
C13	C	0.708545	-0.470129	-0.144515
C14	C	0.824390	-0.503075	-0.154634
C15	C	0.862405	-0.411181	-0.126387
C16	C	0.784563	-0.286335	-0.088017
C17	C	0.668704	-0.253383	-0.077887
C18	C	0.822564	-0.194435	-0.059759
C19	C	0.744722	-0.069589	-0.021389
C20	C	0.628876	-0.036644	-0.011262
C21	C	0.590861	-0.128538	-0.039510
C22	C	0.938423	-0.227387	-0.069889
C23	C	0.898582	-0.010641	-0.003261
C24	C	0.782737	0.022304	0.006858
C25	C	1.325060	-0.452289	-0.139032
C26	C	1.330991	-0.578804	-0.177934
C27	C	1.248558	-0.811565	0.160444
C28	C	1.242976	-0.692693	0.196997
C29	C	1.264980	-0.664215	0.103267
C30	C	1.292566	-0.754620	-0.027022
C31	C	1.298140	-0.873500	-0.063578
C32	C	1.314561	-0.726150	-0.120754
C33	C	1.342147	-0.816555	-0.251043
C34	C	1.347721	-0.935423	-0.287593
C35	C	1.325717	-0.963901	-0.193863
C36	C	1.308987	-0.607271	-0.084199
C37	C	1.358569	-0.669206	-0.308220
C38	C	1.364151	-0.788077	-0.344773
C39	C	1.507400	-0.310218	-0.095351
C40	C	1.630701	-0.345284	-0.106137
C41	C	1.282065	-0.028479	-0.008736
C42	C	1.276136	0.098034	0.030158
N43	N	1.232729	-0.151876	0.246242
N44	N	1.374405	-0.328903	-0.394011
C45	C	1.469299	-0.447502	0.510345
C46	C	1.497904	-0.483252	0.381014
C47	C	1.431612	-0.400411	0.347314
C48	C	1.336711	-0.281814	0.442958
C49	C	1.308109	-0.246056	0.572303
C50	C	1.270422	-0.198965	0.409273
C51	C	1.175522	-0.080368	0.504917
C52	C	1.146924	-0.044616	0.634247
C53	C	1.213215	-0.127457	0.667947
C54	C	1.299025	-0.234723	0.279928
C55	C	1.137835	-0.033277	0.341886
C56	C	1.109230	0.002473	0.471217
H57	H	0.565495	0.065017	0.019994
C58	C	0.548630	-0.515835	-0.158559
C59	C	0.666755	-0.571127	-0.175557
H60	H	0.522836	-0.578196	-0.177731
H61	H	0.505619	-0.446104	-0.071564
H62	H	0.537330	-0.485726	-0.214873
H63	H	0.678055	-0.601227	-0.119236
H64	H	0.709780	-0.640881	-0.262566
H65	H	0.719342	0.123956	0.038100
C66	C	0.924158	0.113201	0.638386
C67	C	1.004922	0.132836	0.576362
H68	H	0.859767	0.193683	0.703304
H69	H	0.898366	0.063650	0.576991
H70	H	0.959565	0.068971	0.676947
H71	H	0.969517	0.177059	0.537792
H72	H	1.030715	0.182408	0.637768
C73	C	1.311731	-0.835696	-0.534107
C74	C	1.394435	-0.887451	-0.487977
H75	H	1.330425	-0.897045	-0.622514
H76	H	1.237112	-0.814115	-0.485344
H77	H	1.311583	-0.760839	-0.525768
H78	H	1.394577	-0.962304	-0.496307
H79	H	1.469074	-0.909050	-0.536755
C80	C	1.295382	-0.983059	-0.476985
C81	C	1.378055	-1.034793	-0.430812
H82	H	1.314122	-1.044405	-0.565406
H83	H	1.220759	-0.961516	-0.428272
H84	H	1.295214	-0.908182	-0.468609
H85	H	1.378217	-1.109666	-0.439179
H86	H	1.452698	-1.056355	-0.479539
H87	H	1.575172	-0.579812	0.303146
H88	H	1.523271	-0.514936	0.537795
C89	C	1.371927	-0.514438	-0.351646
C90	C	1.382675	-0.637880	-0.411249
H91	H	1.386786	-0.495087	-0.415246
H92	H	1.295487	-0.453944	-0.290890
H93	H	1.426234	-0.510575	-0.308399
H94	H	1.328362	-0.641740	-0.454488
H95	H	1.459126	-0.698391	-0.472028
H96	H	1.330266	-1.060696	-0.223619
C97	C	1.080658	0.158795	0.829871
C98	C	1.042615	0.085751	0.739384
H99	H	1.016261	0.239280	0.894771
H100	H	1.116038	0.114575	0.868440
H101	H	1.135461	0.172086	0.787767
H102	H	0.987818	0.072452	0.781487
H103	H	1.007217	0.129981	0.700812
H104	H	1.376293	-0.331285	0.202065
C105	C	1.560335	-0.561305	0.128317
C106	C	1.463045	-0.439713	0.205151
H107	H	1.579734	-0.585574	0.040546
H108	H	1.623921	-0.558970	0.155785
H109	H	1.543323	-0.621837	0.136497
H110	H	1.480060	-0.379178	0.196978
H111	H	1.399446	-0.442039	0.177674
C112	C	1.260005	-0.185916	0.819488
C113	C	1.181778	-0.088154	0.810116
H114	H	1.240602	-0.161647	0.907259
H115	H	1.255929	-0.262619	0.769143
H116	H	1.336538	-0.199766	0.788435
H117	H	1.105247	-0.074310	0.841160
H118	H	1.185844	-0.011429	0.860478
H119	H	0.929531	0.064188	0.019744
C120	C	1.135895	0.089711	0.246611
C121	C	1.064959	0.057793	0.304859
H122	H	1.090910	0.145925	0.223741
H123	H	1.168377	0.130901	0.305434
H124	H	1.196496	0.013949	0.171141
H125	H	1.004362	0.133554	0.380335
H126	H	1.032458	0.016604	0.246033
C127	C	1.212404	-0.482970	0.352495
C128	C	1.212658	-0.593325	0.340202
H129	H	1.193679	-0.421621	0.440911
H130	H	1.287032	-0.504540	0.303767
H131	H	1.156311	-0.447896	0.321163
H132	H	1.268757	-0.628404	0.371525
H133	H	1.138019	-0.571755	0.388947
H134	H	1.001792	-0.329038	-0.101131
H135	H	0.887760	-0.604723	-0.185870
C136	C	1.168652	-0.476137	0.130820
C137	C	1.278666	-0.507905	0.059008
H138	H	1.149937	-0.414796	0.219235
H139	H	1.112578	-0.441052	0.099490
H140	H	1.168839	-0.551019	0.122450
H141	H	1.278477	-0.433023	0.067369
H142	H	1.334755	-0.542987	0.090347
C143	C	1.050046	-0.576384	-0.177177
C144	C	0.989747	-0.447397	-0.137526
H145	H	1.128668	-0.598747	-0.184067
H146	H	1.015343	-0.589127	-0.115528
H147	H	1.047035	-0.628757	-0.258840
H148	H	0.992750	-0.395023	-0.055858
H149	H	1.024459	-0.434643	-0.199178
C150	C	0.437448	-0.051560	-0.112515
C151	C	0.463520	-0.092331	-0.028394
H152	H	0.358835	-0.029221	-0.105660
H153	H	0.448929	0.021038	-0.090182
H154	H	0.486886	-0.118860	-0.198758
H155	H	0.414087	-0.025028	0.057850
H156	H	0.452027	-0.164938	-0.050720
H157	H	1.260431	-0.567422	0.133037
H158	H	1.230638	-0.834762	0.236745
