data_functionalizedCrystal
_audit_creation_method	'MofGen! by Chris Wilmer'
_symmetry_space_group_name_H-M	'P1'
_symmetry_Int_Tables_number	1
_symmetry_cell_setting	triclinic
loop_
_symmetry_equiv_pos_as_xyz
  x,y,z
_cell_length_a	17.699077
_cell_length_b	23.532407
_cell_length_c	16.776229
_cell_angle_alpha	89.984855
_cell_angle_beta	89.993415
_cell_angle_gamma	83.064661
loop_
_atom_site_label
_atom_site_type_symbol
_atom_site_fract_x
_atom_site_fract_y
_atom_site_fract_z
O1	O	1.003716	0.072004	-0.066293
O2	O	1.503716	0.572004	0.433707
O3	O	0.783289	0.081377	-0.066298
O4	O	1.283289	0.581377	0.433702
O5	O	0.900150	-0.006222	-0.066273
O6	O	1.400150	0.493778	0.433727
O7	O	0.886856	0.159603	-0.066318
O8	O	1.386856	0.659603	0.433682
O9	O	0.900134	-0.006228	0.066304
O10	O	1.400134	0.493772	0.566304
O11	O	0.783274	0.081372	0.066278
O12	O	1.283274	0.581372	0.566278
O13	O	1.003701	0.071998	0.066284
O14	O	1.503701	0.571998	0.566284
Zn15	Zn	0.893485	0.076684	0.087330
Zn16	Zn	1.393485	0.576684	0.587330
Zn17	Zn	0.893505	0.076691	-0.087345
Zn18	Zn	1.393505	0.576691	0.412655
O19	O	0.886840	0.159598	0.066258
O20	O	1.386840	0.659598	0.566258
C21	C	0.755086	0.081039	-0.000011
C22	C	1.255086	0.581039	0.499989
C23	C	0.671073	0.080033	-0.000012
C24	C	1.171073	0.580033	0.499988
C25	C	0.631600	0.079556	0.072257
C26	C	1.131600	0.579556	0.572257
C27	C	0.552662	0.078602	0.072258
C28	C	1.052662	0.578602	0.572258
C29	C	0.513198	0.078129	-0.000010
C30	C	1.013198	0.578129	0.499990
C31	C	0.552678	0.078604	-0.072284
C32	C	1.052678	0.578604	0.427716
C33	C	0.631615	0.079554	-0.072285
C34	C	1.131615	0.579554	0.427715
C35	C	0.234334	0.074772	-0.072285
C36	C	0.734334	0.574772	0.427715
C37	C	0.155391	0.073823	-0.072279
C38	C	0.655391	0.573823	0.427721
C39	C	0.155381	0.073820	0.072258
C40	C	0.655381	0.573820	0.572258
C41	C	0.234318	0.074770	0.072257
C42	C	0.734318	0.574770	0.572257
C43	C	0.273791	0.075242	-0.000016
C44	C	0.773791	0.575242	0.499984
C45	C	0.359385	0.076275	-0.000016
C46	C	0.859385	0.576275	0.499984
C47	C	0.427606	0.077099	-0.000011
C48	C	0.927606	0.577099	0.499989
C49	C	0.899803	-0.027442	0.000019
C50	C	1.399803	0.472558	0.500019
C51	C	0.898786	-0.090662	0.000031
C52	C	1.398786	0.409338	0.500031
C53	C	0.825433	-0.357039	-0.000020
C54	C	1.325433	0.142961	0.499980
C55	C	0.826378	-0.297636	-0.000014
C56	C	1.326378	0.202364	0.499986
O57	O	0.768188	-0.261058	-0.000041
O58	O	1.268188	0.238942	0.499959
N59	N	0.895852	-0.274811	-0.000003
N60	N	1.395852	0.225189	0.499997
C61	C	0.964384	-0.311393	-0.000006
C62	C	1.464384	0.188607	0.499994
O63	O	1.023563	-0.286524	0.000003
O64	O	1.523563	0.213476	0.500003
C65	C	0.963438	-0.370795	-0.000018
C66	C	1.463438	0.129205	0.499982
C67	C	0.893960	-0.393616	-0.000021
C68	C	1.393960	0.106384	0.499979
C69	C	0.755961	-0.379861	-0.000024
C70	C	1.255961	0.120139	0.499976
C71	C	0.755015	-0.439260	-0.000029
C72	C	1.255015	0.060740	0.499971
C73	C	0.823543	-0.475837	-0.000030
C74	C	1.323543	0.024163	0.499970
C75	C	0.893015	-0.453015	-0.000026
C76	C	1.393015	0.046985	0.499974
C77	C	1.031969	-0.407375	-0.000027
C78	C	1.531969	0.092625	0.499973
C79	C	1.031017	-0.466781	-0.000040
C80	C	1.531017	0.033219	0.499960
C81	C	0.961539	-0.489602	-0.000043
C82	C	1.461539	0.010398	0.499957
C83	C	0.960597	-0.548991	-0.000031
C84	C	1.460597	-0.048991	0.499969
N85	N	0.891123	-0.571815	-0.000042
N86	N	1.391123	-0.071815	0.499958
C87	C	0.822596	-0.535238	-0.000041
C88	C	1.322596	-0.035238	0.499959
C89	C	0.966366	-0.186645	0.000017
C90	C	1.466366	0.313355	0.500017
C91	C	0.967313	-0.127244	0.000035
C92	C	1.467313	0.372756	0.500035
C93	C	0.829307	-0.113491	0.000025
C94	C	1.329307	0.386509	0.500025
C95	C	0.828361	-0.172893	0.000014
C96	C	1.328361	0.327107	0.500014
C97	C	0.896893	-0.209470	0.000006
C98	C	1.396893	0.290530	0.500006
C99	C	0.820617	-0.659981	-0.000051
C100	C	1.320617	-0.159981	0.499949
C101	C	0.819677	-0.719386	-0.000052
C102	C	1.319677	-0.219386	0.499948
C103	C	0.957683	-0.733133	-0.000047
C104	C	1.457683	-0.233133	0.499953
C105	C	0.958623	-0.673734	-0.000041
C106	C	1.458623	-0.173734	0.499959
C107	C	0.890083	-0.637158	-0.000046
C108	C	1.390083	-0.137158	0.499954
O109	O	1.018756	-0.585604	-0.000008
O110	O	1.518756	-0.085604	0.499992
O111	O	0.763427	-0.560115	-0.000061
O112	O	1.263427	-0.060115	0.499939
C113	C	1.031904	0.072336	-0.000006
C114	C	1.531904	0.572336	0.499994
C115	C	1.115917	0.073342	-0.000010
C116	C	1.615917	0.573342	0.499990
C117	C	0.887187	0.180817	-0.000036
C118	C	1.387187	0.680817	0.499964
C119	C	0.888205	0.244037	-0.000053
C120	C	1.388205	0.744037	0.499947
N121	N	0.893477	0.076679	0.206542
N122	N	1.393477	0.576679	0.706542
N123	N	0.893520	0.076692	-0.206556
N124	N	1.393520	0.576692	0.293444
C125	C	0.945238	0.037906	0.248270
C126	C	1.445238	0.537906	0.748270
C127	C	0.945242	0.037905	0.331722
C128	C	1.445242	0.537905	0.831722
C129	C	0.893488	0.076681	0.373445
C130	C	1.393488	0.576681	0.873445
C131	C	0.841721	0.115456	0.331710
C132	C	1.341721	0.615456	0.831710
C133	C	0.841714	0.115454	0.248260
C134	C	1.341714	0.615454	0.748260
C135	C	0.841749	0.115467	0.668258
C136	C	1.341749	0.615467	1.168258
C137	C	0.841761	0.115468	0.751714
C138	C	1.341761	0.615468	1.251714
C139	C	0.945277	0.037919	0.751720
C140	C	1.445277	0.537919	1.251720
C141	C	0.945269	0.037917	0.668269
C142	C	1.445269	0.537917	1.168269
C143	C	0.893500	0.076689	0.626542
C144	C	1.393500	0.576689	1.126542
C145	C	0.893495	0.076689	0.536054
C146	C	1.393495	0.576689	1.036054
C147	C	0.893496	0.076685	0.463931
C148	C	1.393496	0.576685	0.963931
H149	H	0.763098	-0.737963	-0.000051
H150	H	1.263098	-0.237963	0.499949
N151	N	1.001097	-0.003901	0.376718
N152	N	1.501097	0.496099	0.876718
H153	H	0.992712	-0.044319	0.362216
H154	H	1.492712	0.455681	0.862216
H155	H	1.054722	0.002679	0.362143
H156	H	1.554722	0.502679	0.862143
H157	H	0.700154	-0.350085	-0.000026
H158	H	1.200154	0.149915	0.499974
N159	N	0.785881	0.157273	0.203254
N160	N	1.285881	0.657273	0.703254
H161	H	0.794289	0.197686	0.217754
H162	H	1.294289	0.697686	0.717754
H163	H	0.793753	0.151337	0.144072
H164	H	1.293753	0.651337	0.644072
N165	N	0.674189	0.080066	-0.150234
N166	N	1.174189	0.580066	0.349766
H167	H	0.654053	0.115191	-0.181842
H168	H	1.154053	0.615191	0.318158
H169	H	0.730174	0.080715	-0.139205
H170	H	1.230174	0.580715	0.360795
N171	N	0.755396	-0.074030	0.000025
N172	N	1.255396	0.425970	0.500025
H173	H	0.752726	-0.049066	-0.049118
H174	H	1.252726	0.450934	0.450882
H175	H	0.711277	-0.097535	0.000049
H176	H	1.211277	0.402465	0.500049
H177	H	0.266445	0.075158	0.131106
H178	H	0.766445	0.575158	0.631106
N179	N	0.112821	0.073307	-0.150226
N180	N	0.612821	0.573307	0.349774
H181	H	0.120157	0.108760	-0.181840
H182	H	0.620157	0.608760	0.318160
H183	H	0.132982	0.038157	-0.181743
H184	H	0.632982	0.538157	0.318257
H185	H	0.987385	0.006333	0.214305
H186	H	1.487385	0.506333	0.714305
H187	H	0.663725	0.079946	0.131106
H188	H	1.163725	0.579946	0.631106
H189	H	0.799614	0.147045	0.785683
H190	H	1.299614	0.647045	1.285683
H191	H	0.799598	0.147038	0.634290
H192	H	1.299598	0.647038	1.134290
N193	N	1.104937	-0.506229	-0.000035
N194	N	1.604937	-0.006229	0.499965
H195	H	1.093802	-0.547324	-0.000038
H196	H	1.593802	-0.047324	0.499962
H197	H	1.135240	-0.498838	-0.049180
H198	H	1.635240	0.001162	0.450820
N199	N	0.753425	-0.197505	0.000014
N200	N	1.253425	0.302495	0.500014
H201	H	0.710161	-0.165315	0.000019
H202	H	1.210161	0.334685	0.500019
H203	H	0.750026	-0.221837	-0.049139
H204	H	1.250026	0.278163	0.450861
H205	H	1.022177	-0.216423	0.000017
H206	H	1.522177	0.283577	0.500017
N207	N	0.785894	0.157276	0.376706
N208	N	1.285894	0.657276	0.876706
H209	H	0.793753	0.151396	0.435904
H210	H	1.293753	0.651396	0.935904
H211	H	0.794326	0.197669	0.362099
H212	H	1.294326	0.697669	0.862099
H213	H	0.987428	0.006347	0.785703
H214	H	1.487428	0.506347	1.285703
N215	N	0.510084	0.078086	0.150203
N216	N	1.010084	0.578086	0.650203
H217	H	0.547131	0.078129	0.195984
H218	H	1.047131	0.578129	0.695984
H219	H	0.471290	0.113187	0.153583
H220	H	0.971290	0.613187	0.653583
H221	H	0.123233	0.073432	0.131106
H222	H	0.623233	0.573432	0.631106
N223	N	0.746699	-0.620531	-0.000049
N224	N	1.246699	-0.120531	0.499951
H225	H	0.716369	-0.627851	-0.049194
H226	H	1.216369	-0.127851	0.450806
H227	H	0.716428	-0.627895	0.049131
H228	H	1.216428	-0.127895	0.549131
H229	H	0.266463	0.075154	-0.131134
H230	H	0.766463	0.575154	0.368866
H231	H	1.015197	-0.655152	-0.000028
H232	H	1.515197	-0.155152	0.499972
N233	N	0.510119	0.078087	-0.150233
N234	N	1.010119	0.578087	0.349767
H235	H	0.454122	0.077413	-0.139268
H236	H	0.954122	0.577413	0.360732
H237	H	0.517516	0.113544	-0.181805
H238	H	1.017516	0.613544	0.318195
N239	N	1.031592	-0.772590	-0.000040
N240	N	1.531592	-0.272590	0.499960
H241	H	1.020444	-0.813682	-0.000046
H242	H	1.520444	-0.313682	0.499954
H243	H	1.061895	-0.765201	-0.049187
H244	H	1.561895	-0.265201	0.450813
H245	H	0.987415	0.006344	0.634302
H246	H	1.487415	0.506344	1.134302
H247	H	1.088546	-0.388805	-0.000025
H248	H	1.588546	0.111195	0.499975
N249	N	0.680078	-0.463870	-0.000026
N250	N	1.180078	0.036130	0.499974
H251	H	0.636817	-0.431678	-0.000024
H252	H	1.136817	0.068322	0.499976
H253	H	0.676677	-0.488204	-0.049176
H254	H	1.176677	0.011796	0.450824
H255	H	1.023889	-0.108669	0.000050
H256	H	1.523889	0.391331	0.500050
