data_functionalizedCrystal
_audit_creation_method	'MofGen! by Chris Wilmer'
_symmetry_space_group_name_H-M	'P1'
_symmetry_Int_Tables_number	1
_symmetry_cell_setting	triclinic
loop_
_symmetry_equiv_pos_as_xyz
  x,y,z
_cell_length_a	19.805407
_cell_length_b	14.908520
_cell_length_c	19.805399
_cell_angle_alpha	93.269050
_cell_angle_beta	89.983114
_cell_angle_gamma	93.320773
loop_
_atom_site_label
_atom_site_type_symbol
_atom_site_fract_x
_atom_site_fract_y
_atom_site_fract_z
Zn1	Zn	1.019185	-0.359168	-0.398269
Zn2	Zn	1.012581	-0.510037	-0.291612
Zn3	Zn	0.906004	-0.359197	-0.285095
Zn4	Zn	0.899441	-0.509986	-0.404757
O5	O	0.959303	-0.434597	-0.344933
O6	O	1.113026	-0.379191	-0.384133
O7	O	0.998426	-0.490062	-0.196032
O8	O	0.926528	-0.232948	-0.294665
O9	O	1.108173	-0.490034	-0.305773
O10	O	1.009682	-0.232927	-0.377813
O11	O	0.920124	-0.379240	-0.191244
O12	O	0.810417	-0.379190	-0.300956
O13	O	0.915343	-0.489946	-0.498611
O14	O	0.805596	-0.489974	-0.388871
O15	O	1.003319	-0.379141	-0.493845
O16	O	0.992063	-0.636275	-0.312064
O17	O	0.908939	-0.636238	-0.395190
C18	C	0.783448	-0.434580	-0.344910
C19	C	0.708215	-0.434594	-0.344918
C20	C	0.670374	-0.492366	-0.390629
C21	C	0.599686	-0.492368	-0.390638
C22	C	0.566839	-0.434601	-0.344933
C23	C	0.604685	-0.376823	-0.299220
C24	C	0.675373	-0.376817	-0.299214
C25	C	0.319611	-0.376843	-0.299243
C26	C	0.248919	-0.376854	-0.299251
C27	C	0.243924	-0.492393	-0.390667
C28	C	0.314612	-0.492388	-0.390662
C29	C	0.352452	-0.434606	-0.344951
C30	C	0.429100	-0.434604	-0.344942
C31	C	0.490192	-0.434607	-0.344938
C32	C	0.949091	-0.668990	-0.355053
C33	C	0.944783	-0.769265	-0.359405
C34	C	1.023335	-0.957670	-0.281093
C35	C	1.019291	-1.051887	-0.285180
C36	C	0.932654	-1.051917	-0.371669
C37	C	0.936698	-0.957700	-0.367582
C38	C	0.982040	-0.910580	-0.322292
C39	C	0.986081	-0.816361	-0.318202
C40	C	0.899447	-0.816394	-0.404694
C41	C	0.895403	-0.910610	-0.408781
C42	C	1.135845	-0.434615	-0.344956
C43	C	1.211077	-0.434623	-0.344966
C44	C	0.959335	-0.434534	-0.521473
C45	C	0.959349	-0.434508	-0.596704
C46	C	0.969574	-0.199288	-0.334788
C47	C	0.973951	-0.099014	-0.330465
C48	C	0.918590	-0.376797	-0.629554
C49	C	0.918600	-0.376780	-0.700242
C50	C	0.959374	-0.434469	-0.738078
C51	C	1.000134	-0.492185	-0.705223
C52	C	1.000120	-0.492207	-0.634537
C53	C	1.000192	-0.492101	-0.990293
C54	C	1.000204	-0.492073	-1.060984
C55	C	0.918672	-0.376674	-1.055998
C56	C	0.918658	-0.376695	-0.985312
C57	C	0.959415	-0.434415	-0.952463
C58	C	0.959403	-0.434435	-0.875816
C59	C	0.959390	-0.434445	-0.814724
C60	C	0.959313	-0.434594	-0.169077
C61	C	0.959441	-0.434367	-0.093835
H62	H	0.222177	-0.329808	-0.262032
H63	H	1.060250	-0.919304	-0.244211
H64	H	1.033329	-0.539161	-0.736035
H65	H	1.033371	-0.539110	-0.963557
Br66	Br	1.047610	-0.752412	-0.256733
H67	H	0.895743	-1.090299	-0.408546
Br68	Br	0.192566	-0.570814	-0.452703
H69	H	0.885483	-0.329678	-1.082752
Br70	Br	1.055544	-0.570370	-1.112333
H71	H	1.033316	-0.539194	-0.607791
H72	H	0.341352	-0.539430	-0.427877
H73	H	0.350412	-0.329800	-0.262018
H74	H	0.858489	-0.948989	-0.445656
Br75	Br	0.843388	-0.752481	-0.460598
H76	H	0.697113	-0.539409	-0.427845
Br77	Br	0.548333	-0.570774	-0.452679
H78	H	0.577936	-0.329784	-0.262009
H79	H	0.706182	-0.329768	-0.261995
Br80	Br	1.075340	-1.115793	-0.229268
H81	H	0.885392	-0.329815	-0.598753
Br82	Br	0.863325	-0.298395	-0.933966
Br83	Br	0.863243	-0.298504	-0.744824
