data_functionalizedCrystal
_audit_creation_method	'MofGen! by Chris Wilmer'
_symmetry_space_group_name_H-M	'P1'
_symmetry_Int_Tables_number	1
_symmetry_cell_setting	triclinic
loop_
_symmetry_equiv_pos_as_xyz
  x,y,z
_cell_length_a	16.974800
_cell_length_b	14.853569
_cell_length_c	16.053802
_cell_angle_alpha	92.568019
_cell_angle_beta	91.074188
_cell_angle_gamma	83.512599
loop_
_atom_site_label
_atom_site_type_symbol
_atom_site_fract_x
_atom_site_fract_y
_atom_site_fract_z
O1	O	1.049204	0.114921	0.001488
O2	O	1.549204	0.614921	0.501488
O3	O	0.819757	0.128722	-0.014023
O4	O	1.319757	0.628722	0.485977
O5	O	0.940608	-0.009402	-0.005846
O6	O	1.440608	0.490598	0.494154
O7	O	0.928353	0.253045	-0.006690
O8	O	1.428353	0.753045	0.493310
O9	O	0.933956	-0.001830	0.132563
O10	O	1.433956	0.498170	0.632563
O11	O	0.813105	0.136293	0.124385
O12	O	1.313105	0.636293	0.624385
O13	O	1.042552	0.122493	0.139896
O14	O	1.542552	0.622493	0.639896
Zn15	Zn	0.926772	0.130595	0.154116
Zn16	Zn	1.426772	0.630595	0.654116
Zn17	Zn	0.935537	0.120620	-0.028243
Zn18	Zn	1.435537	0.620620	0.471757
O19	O	0.921701	0.260616	0.131719
O20	O	1.421701	0.760616	0.631719
C21	C	0.787068	0.131844	0.053196
C22	C	1.287068	0.631844	0.553196
C23	C	0.699573	0.129856	0.047282
C24	C	1.199573	0.629856	0.547282
C25	C	0.654846	0.133047	0.119951
C26	C	1.154846	0.633047	0.619951
C27	C	0.572637	0.131165	0.114397
C28	C	1.072637	0.631165	0.614397
C29	C	0.535155	0.126098	0.036171
C30	C	1.035155	0.626098	0.536171
C31	C	0.579888	0.122904	-0.036504
C32	C	1.079888	0.622904	0.463496
C33	C	0.662096	0.124780	-0.030949
C34	C	1.162096	0.624780	0.469051
C35	C	0.289678	0.120040	0.011465
C36	C	0.789678	0.620040	0.511465
C37	C	0.207463	0.118167	0.005914
C38	C	0.707463	0.618167	0.505914
C39	C	0.200218	0.126426	0.156816
C40	C	0.700218	0.626426	0.656816
C41	C	0.282428	0.128307	0.162365
C42	C	0.782428	0.628307	0.662365
C43	C	0.327154	0.125108	0.089690
C44	C	0.827154	0.625108	0.589690
N45	N	0.451124	0.124177	0.030491
N46	N	0.951124	0.624177	0.530491
N47	N	0.411184	0.127023	0.095370
N48	N	0.911184	0.627023	0.595370
C49	C	0.936727	-0.039205	0.063322
C50	C	1.436727	0.460795	0.563322
C51	C	0.935062	-0.139290	0.063210
C52	C	1.435062	0.360710	0.563210
C53	C	0.862492	-0.175737	0.058305
C54	C	1.362492	0.324263	0.558305
C55	C	1.006068	-0.196888	0.068002
C56	C	1.506068	0.303112	0.568002
C57	C	1.004506	-0.290924	0.067893
C58	C	1.504506	0.209076	0.567893
C59	C	0.931937	-0.327371	0.062989
C60	C	1.431937	0.172629	0.562989
C61	C	0.860929	-0.269781	0.058194
C62	C	1.360929	0.230219	0.558194
C63	C	1.075513	-0.348521	0.072680
C64	C	1.575513	0.151479	0.572680
C65	C	1.073954	-0.442563	0.072570
C66	C	1.573954	0.057437	0.572570
C67	C	1.001384	-0.479011	0.067671
C68	C	1.501384	0.020989	0.567671
C69	C	0.930373	-0.421415	0.062877
C70	C	1.430373	0.078585	0.562877
C71	C	0.857803	-0.457861	0.057973
C72	C	1.357803	0.042139	0.557973
C73	C	0.786791	-0.400267	0.053184
C74	C	1.286791	0.099733	0.553184
C75	C	0.788358	-0.306229	0.053295
C76	C	1.288358	0.193771	0.553295
C77	C	0.999817	-0.573049	0.067560
C78	C	1.499817	-0.073049	0.567560
C79	C	0.856240	-0.551906	0.057861
C80	C	1.356240	-0.051906	0.557861
C81	C	1.075242	0.119370	0.072675
C82	C	1.575242	0.619370	0.572675
C83	C	1.162737	0.121358	0.078584
C84	C	1.662737	0.621358	0.578584
C85	C	0.925582	0.290420	0.062550
C86	C	1.425582	0.790420	0.562550
C87	C	0.927248	0.390505	0.062656
C88	C	1.427248	0.890505	0.562656
N89	N	0.920797	0.137403	0.278572
N90	N	1.420797	0.637403	0.778572
N91	N	0.941519	0.113805	-0.152699
N92	N	1.441519	0.613805	0.347301
C93	C	0.972238	0.078652	0.325747
C94	C	1.472238	0.578652	0.825747
C95	C	0.968065	0.083422	0.412872
C96	C	1.468065	0.583422	0.912872
C97	C	0.912455	0.146949	0.452820
C98	C	1.412455	0.646949	0.952820
C99	C	0.861008	0.205702	0.405638
C100	C	1.361008	0.705702	0.905638
C101	C	0.865178	0.200927	0.318515
C102	C	1.365178	0.700927	0.818515
C103	C	0.894242	0.167783	0.712997
C104	C	1.394242	0.667783	1.212997
C105	C	0.890077	0.172556	0.800126
C106	C	1.390077	0.672556	1.300126
C107	C	0.997134	0.050274	0.807353
C108	C	1.497134	0.550274	1.307353
C109	C	1.001302	0.045508	0.720229
C110	C	1.501302	0.545508	1.220229
C111	C	0.949853	0.104258	0.673055
C112	C	1.449853	0.604258	1.173055
N113	N	0.908190	0.151828	0.541875
N114	N	1.408190	0.651828	1.041875
N115	N	0.954114	0.099374	0.584001
N116	N	1.454114	0.599374	1.084001
H117	H	0.536226	0.133749	0.173572
H118	H	1.036226	0.633749	0.673572
C119	C	0.706967	-0.440370	0.047793
C120	C	1.206967	0.059630	0.547793
N121	N	0.646845	-0.470580	0.043735
N122	N	1.146845	0.029420	0.543735
C123	C	0.338867	0.116513	-0.068481
C124	C	0.838867	0.616513	0.431519
N125	N	0.375920	0.113853	-0.128700
N126	N	0.875920	0.613853	0.371300
C127	C	0.696068	0.138621	0.206007
C128	C	1.196068	0.638621	0.706007
N129	N	0.727115	0.142814	0.270826
N130	N	1.227115	0.642814	0.770826
C131	C	1.053718	-0.014354	0.859251
C132	C	1.553718	0.485646	1.359251
N133	N	1.096337	-0.063037	0.898341
N134	N	1.596337	0.436963	1.398341
H135	H	0.823288	0.248767	0.280106
H136	H	1.323288	0.748767	0.780106
C137	C	0.799828	0.275574	0.449584
C138	C	1.299828	0.775574	0.949584
N139	N	0.753746	0.328202	0.482683
N140	N	1.253746	0.828202	0.982683
H141	H	1.009952	0.035582	0.451281
H142	H	1.509952	0.535582	0.951281
C143	C	0.776406	-0.591988	0.052466
C144	C	1.276406	-0.091988	0.552466
N145	N	0.716274	-0.622177	0.048401
N146	N	1.216274	-0.122177	0.548401
H147	H	1.134593	-0.318836	0.076724
H148	H	1.634593	0.181164	0.576724
C149	C	1.033414	0.008767	0.281812
C150	C	1.533414	0.508767	0.781812
N151	N	1.079491	-0.043876	0.248723
N152	N	1.579491	0.456124	0.748723
H153	H	0.312940	0.132429	0.226064
H154	H	0.812940	0.632429	0.726064
H155	H	0.163793	0.129029	0.215984
H156	H	0.663793	0.629029	0.715984
H157	H	0.804676	-0.128839	0.054410
H158	H	1.304676	0.371161	0.554410
C159	C	0.166236	0.112592	-0.080144
C160	C	0.666236	0.612592	0.419856
N161	N	0.135182	0.108395	-0.144959
N162	N	0.635182	0.608395	0.355041
C163	C	1.085889	-0.156794	0.073401
C164	C	1.585889	0.343206	0.573401
N165	N	1.146014	-0.126590	0.077472
N166	N	1.646014	0.373410	0.577472
C167	C	0.538655	0.117328	-0.122554
C168	C	1.038655	0.617328	0.377446
N169	N	0.507600	0.113131	-0.187368
N170	N	1.007600	0.613131	0.312632
H171	H	1.046584	-0.006220	0.687705
H172	H	1.546584	0.493780	1.187705
C173	C	0.828897	0.242440	0.844067
C174	C	1.328897	0.742440	1.344067
N175	N	0.782818	0.295075	0.877163
N176	N	1.282818	0.795075	1.377163
H177	H	0.730544	-0.259327	0.049395
H178	H	1.230544	0.240673	0.549395
H179	H	1.131777	-0.489450	0.076471
H180	H	1.631777	0.010550	0.576471
C181	C	0.711295	0.121272	-0.110892
C182	C	1.211295	0.621272	0.389108
N183	N	0.748351	0.118627	-0.171107
N184	N	1.248351	0.618627	0.328893
C185	C	0.837748	0.232528	0.661124
C186	C	1.337748	0.732528	1.161124
N187	N	0.795230	0.281339	0.622052
N188	N	1.295230	0.781339	1.122052
C189	C	1.077925	-0.636398	0.072826
C190	C	1.577925	-0.136398	0.572826
N191	N	1.136761	-0.684112	0.076795
N192	N	1.636761	-0.184112	0.576795
