data_functionalizedCrystal
_audit_creation_method	'MofGen! by Chris Wilmer'
_symmetry_space_group_name_H-M	'P1'
_symmetry_Int_Tables_number	1
_symmetry_cell_setting	triclinic
loop_
_symmetry_equiv_pos_as_xyz
  x,y,z
_cell_length_a	10.654550
_cell_length_b	10.654549
_cell_length_c	9.130313
_cell_angle_alpha	89.996954
_cell_angle_beta	89.996889
_cell_angle_gamma	84.484840
loop_
_atom_site_label
_atom_site_type_symbol
_atom_site_fract_x
_atom_site_fract_y
_atom_site_fract_z
O1	O	0.176396	1.667841	-0.121763
O2	O	0.193203	1.302362	-0.121773
O3	O	0.002060	1.493504	-0.121762
O4	O	0.367539	1.476698	-0.121774
O5	O	0.002055	1.493489	0.121837
O6	O	0.193198	1.302347	0.121826
O7	O	0.176391	1.667826	0.121836
Cu8	Cu	0.184794	1.485085	0.144073
Cu9	Cu	0.184800	1.485103	-0.144010
O10	O	0.367534	1.476683	0.121825
C11	C	-0.044740	1.492263	0.000035
C12	C	-0.184183	1.488571	0.000030
C13	C	0.191966	1.255557	0.000025
C14	C	0.188275	1.116113	0.000022
C15	C	0.177628	1.714631	0.000034
C16	C	0.181319	1.854074	0.000028
C17	C	-0.263669	1.601113	0.000037
C18	C	-0.394690	1.597636	0.000027
C19	C	-0.366726	1.369067	0.000008
C20	C	-0.235708	1.372544	0.000008
C21	C	-0.212145	1.717139	0.000060
C22	C	-0.291632	1.829690	0.000069
C23	C	-0.422653	1.826213	0.000058
C24	C	-0.474186	1.710186	0.000039
C25	C	0.414334	1.477925	0.000024
C26	C	0.553777	1.481617	0.000020
N27	N	0.184790	1.485081	0.346696
C28	C	0.072256	2.064589	0.000028
C29	C	0.068778	1.933568	0.000026
C30	C	0.297347	1.905607	0.000018
C31	C	0.300824	2.036625	0.000009
C32	C	0.100188	1.569748	0.423352
C33	C	0.100189	1.569758	0.576689
C34	C	0.269404	1.400433	0.576700
C35	C	0.269396	1.400417	0.423366
N36	N	0.184799	1.485108	0.653367
H37	H	-0.105463	1.719983	0.000072
Br38	Br	0.384211	1.285496	0.319320
Br39	Br	-0.652002	1.705471	0.000093
Br40	Br	0.384226	1.285538	0.680756
H41	H	-0.019389	2.129305	0.000032
Br42	Br	-0.014637	1.684646	0.319306
H43	H	-0.408696	1.274602	-0.000005
H44	H	0.388980	1.840872	0.000010
H45	H	-0.249664	1.924155	0.000048
Br46	Br	-0.530525	1.978957	0.000049
Br47	Br	-0.127826	1.219807	-0.000008
H48	H	0.031297	1.638700	0.639099
Br49	Br	-0.088683	1.863648	0.000013
H50	H	0.395306	2.078575	0.000001
