data_functionalizedCrystal
_audit_creation_method	'MofGen! by Chris Wilmer'
_symmetry_space_group_name_H-M	'P1'
_symmetry_Int_Tables_number	1
_symmetry_cell_setting	triclinic
loop_
_symmetry_equiv_pos_as_xyz
  x,y,z
_cell_length_a	27.732048
_cell_length_b	10.540539
_cell_length_c	9.016244
_cell_angle_alpha	89.996282
_cell_angle_beta	89.999071
_cell_angle_gamma	83.584073
loop_
_atom_site_label
_atom_site_type_symbol
_atom_site_fract_x
_atom_site_fract_y
_atom_site_fract_z
O1	O	-0.641879	-0.151015	-0.123143
O2	O	-0.501230	-0.173978	-0.123187
O3	O	-0.574763	0.022349	-0.123162
O4	O	-0.568345	-0.347342	-0.123168
O5	O	-0.574756	0.022332	0.123519
O6	O	-0.501222	-0.173996	0.123494
O7	O	-0.641871	-0.151032	0.123538
Cu8	Cu	-0.571546	-0.162516	0.146040
Cu9	Cu	-0.571555	-0.162495	-0.145689
O10	O	-0.568338	-0.347360	0.123513
C11	C	-0.574278	0.069623	0.000175
C12	C	-0.572838	0.210508	0.000167
C13	C	-0.483216	-0.173505	0.000148
C14	C	-0.429552	-0.172054	0.000131
C15	C	-0.659885	-0.151506	0.000200
C16	C	-0.713549	-0.152957	0.000207
C17	C	-0.091410	-0.278933	0.000194
C18	C	0.110284	-0.273547	0.000207
O19	O	0.140924	-0.371280	0.000270
N20	N	0.130140	-0.157133	0.000206
C21	C	0.099570	-0.042057	0.000212
O22	O	0.121088	0.057084	0.000226
C23	C	-0.102122	-0.047444	0.000209
C24	C	-0.121976	-0.163865	0.000195
C25	C	-0.111264	-0.395345	0.000181
C26	C	-0.161685	-0.396690	0.000170
C27	C	-0.192251	-0.281623	0.000171
C28	C	-0.172396	-0.165211	0.000183
C29	C	-0.132691	0.067631	0.000225
C30	C	-0.183117	0.066274	0.000228
C31	C	-0.202971	-0.050148	0.000214
C32	C	-0.253383	-0.051489	0.000173
N33	N	-0.273240	-0.167903	0.000174
C34	C	-0.242674	-0.282970	0.000173
C35	C	0.205462	-0.039237	0.000210
C36	C	0.255885	-0.037890	0.000208
C37	C	0.266595	-0.269381	0.000206
C38	C	0.216171	-0.270726	0.000198
C39	C	0.185605	-0.155651	0.000211
C40	C	-0.348561	-0.285786	0.000147
C41	C	-0.398986	-0.287121	0.000130
C42	C	-0.409691	-0.055631	0.000140
C43	C	-0.359270	-0.054295	0.000149
C44	C	-0.328706	-0.169383	0.000158
O45	O	-0.284052	0.046192	0.000127
O46	O	-0.264200	-0.382096	0.000191
C47	C	-0.040990	-0.277588	0.000205
C48	C	-0.021135	-0.161175	0.000217
C49	C	-0.051701	-0.046108	0.000219
C50	C	0.029288	-0.159828	0.000216
C51	C	0.059854	-0.274895	0.000214
C52	C	0.039997	-0.391310	0.000215
C53	C	-0.010423	-0.392655	0.000204
C54	C	-0.031845	0.070306	0.000218
C55	C	0.018576	0.071642	0.000227
C56	C	0.049142	-0.043425	0.000226
C57	C	-0.568823	-0.394633	0.000172
C58	C	-0.570263	-0.535519	0.000171
N59	N	-0.571543	-0.162530	0.351226
C60	C	-0.517663	0.391539	-0.000404
C61	C	-0.519123	0.244984	0.000152
C62	C	-0.598684	0.273278	0.141042
C63	C	-0.596851	0.419743	0.141160
C64	C	-0.597952	0.420329	-0.139362
C65	C	-0.598447	0.273369	-0.141224
C66	C	-0.532190	-0.267538	0.414183
C67	C	-0.532055	-0.267251	0.586074
C68	C	-0.560289	-0.030109	0.586699
C69	C	-0.559999	-0.030747	0.414754
C70	C	-0.622281	-0.188706	0.414578
C71	C	-0.621958	-0.191701	0.586535
N72	N	-0.571554	-0.162494	0.649125
H73	H	-0.415148	-0.381929	0.000117
C74	C	-0.649039	0.486815	0.149833
N75	N	-0.688346	0.537328	0.156375
C76	C	-0.661849	-0.085253	0.359557
N77	N	-0.691649	-0.007330	0.318104
H78	H	-0.588183	0.049904	0.627534
H79	H	-0.498785	0.201505	-0.100833
C80	C	-0.651972	0.245368	0.148159
N81	N	-0.692108	0.224335	0.153522
C82	C	-0.488997	0.428954	-0.136873
N83	N	-0.467405	0.457148	-0.239663
C84	C	-0.663408	-0.095007	0.644504
N85	N	-0.694628	-0.022165	0.688165
H86	H	0.064893	-0.485001	0.000208
C87	C	-0.489115	0.431058	0.135324
N88	N	-0.467615	0.460813	0.237568
C89	C	-0.481202	-0.244707	0.641673
N90	N	-0.442898	-0.227723	0.683549
C91	C	-0.541150	-0.400230	0.643102
N92	N	-0.547993	-0.500402	0.686047
C93	C	-0.650366	0.486413	-0.140632
N94	N	-0.689842	0.536195	-0.141580
C95	C	-0.314947	-0.412389	0.000149
N96	N	-0.289629	-0.507746	0.000139
C97	C	-0.491448	0.187357	0.136793
N98	N	-0.470604	0.143954	0.239719
C99	C	-0.574418	0.214676	0.282656
N100	N	-0.556138	0.170539	0.389317
H101	H	-0.522989	-0.007608	0.374665
H102	H	-0.494756	-0.251104	0.370992
H103	H	-0.177845	-0.491493	0.000157
H104	H	-0.587559	0.049718	0.373103
H105	H	-0.577743	0.447105	0.246455
C106	C	-0.572923	0.216999	-0.282020
N107	N	-0.553694	0.174545	-0.388066
H108	H	-0.343105	0.040505	0.000139
H109	H	0.200010	-0.365527	0.000194
C110	C	-0.541155	-0.400966	0.358347
N111	N	-0.547908	-0.501468	0.316283
C112	C	-0.077648	-0.521940	0.000185
N113	N	-0.052332	-0.617299	0.000180
H114	H	-0.434587	0.038054	0.000135
C115	C	-0.651356	0.242956	-0.152695
N116	N	-0.691211	0.220054	-0.161322
C117	C	0.300227	-0.395956	0.000217
N118	N	0.325561	-0.491286	0.000238
H119	H	0.272045	0.056912	0.000196
H120	H	0.180579	0.054477	0.000221
H121	H	-0.580570	0.451134	-0.246135
H122	H	-0.116536	0.162434	0.000238
C123	C	-0.510862	0.001945	0.644882
N124	N	-0.473632	0.026079	0.688701
H125	H	-0.633038	-0.283164	0.371228
C126	C	-0.633502	-0.323258	0.641669
N127	N	-0.642197	-0.422347	0.683210
H128	H	-0.208002	0.159984	0.000240
H129	H	0.034736	0.166453	0.000227
H130	H	-0.026583	-0.487457	0.000194
C131	C	-0.065461	0.196897	0.000212
N132	N	-0.090779	0.292253	0.000198
