data_functionalizedCrystal
_audit_creation_method	'MofGen! by Chris Wilmer'
_symmetry_space_group_name_H-M	'P1'
_symmetry_Int_Tables_number	1
_symmetry_cell_setting	triclinic
loop_
_symmetry_equiv_pos_as_xyz
  x,y,z
_cell_length_a	17.699083
_cell_length_b	15.072220
_cell_length_c	15.995350
_cell_angle_alpha	90.007147
_cell_angle_beta	83.387695
_cell_angle_gamma	89.997934
loop_
_atom_site_label
_atom_site_type_symbol
_atom_site_fract_x
_atom_site_fract_y
_atom_site_fract_z
O1	O	1.004251	0.073654	0.105889
O2	O	1.504251	0.573654	0.605889
O3	O	0.783895	0.073682	0.119665
O4	O	1.283895	0.573682	0.619665
O5	O	0.900096	0.073666	-0.009123
O6	O	1.400096	0.573666	0.490877
O7	O	0.888049	0.073670	0.234677
O8	O	1.388049	0.573670	0.734677
O9	O	0.900089	-0.073899	-0.009138
O10	O	1.400089	0.426101	0.490862
O11	O	0.783888	-0.073883	0.119649
O12	O	1.283888	0.426117	0.619649
O13	O	1.004243	-0.073911	0.105873
O14	O	1.504243	0.426089	0.605873
Zn15	Zn	0.894064	-0.097326	0.112759
Zn16	Zn	1.394064	0.402674	0.612759
Zn17	Zn	0.894074	0.097097	0.112779
Zn18	Zn	1.394074	0.597097	0.612779
O19	O	0.888042	-0.073896	0.234661
O20	O	1.388042	0.426104	0.734661
C21	C	0.755694	-0.000097	0.119163
C22	C	1.255694	0.499903	0.619163
C23	C	0.671673	-0.000086	0.117683
C24	C	1.171673	0.499914	0.617683
N25	N	0.894063	-0.230015	0.112744
N26	N	1.394063	0.269985	0.612744
C27	C	0.623178	-0.000085	0.193278
C28	C	1.123178	0.499915	0.693278
C29	C	0.544232	-0.000096	0.191882
C30	C	1.044232	0.499904	0.691882
C31	C	0.513783	-0.000102	0.114889
C32	C	1.013783	0.499898	0.614889
C33	C	0.562285	-0.000106	0.039287
C34	C	1.062285	0.499894	0.539287
C35	C	0.641229	-0.000100	0.040685
C36	C	1.141229	0.499900	0.540685
C37	C	0.243912	-0.000128	0.033651
C38	C	0.743912	0.499872	0.533651
C39	C	0.164962	-0.000130	0.032259
C40	C	0.664962	0.499870	0.532259
C41	C	0.146916	-0.000124	0.184848
C42	C	0.646916	0.499876	0.684848
C43	C	0.225860	-0.000118	0.186245
C44	C	0.725860	0.499882	0.686245
C45	C	0.274354	-0.000126	0.110644
C46	C	0.774354	0.499874	0.610644
C47	C	0.359956	-0.000116	0.112159
C48	C	0.859956	0.499884	0.612159
C49	C	0.428183	-0.000107	0.113373
C50	C	0.928183	0.499893	0.613373
C51	C	0.894075	-0.589217	0.112773
C52	C	1.394075	-0.089217	0.612773
C53	C	0.956453	-0.551590	0.044090
C54	C	1.456453	-0.051590	0.544090
C55	C	0.956291	-0.448765	0.043838
C56	C	1.456291	0.051235	0.543838
C57	C	0.894069	-0.411013	0.112759
C58	C	1.394069	0.088987	0.612759
C59	C	0.815105	-0.448345	0.093839
C60	C	1.315105	0.051655	0.593839
C61	C	0.815474	-0.551203	0.093354
C62	C	1.315474	-0.051203	0.593354
C63	C	0.909949	-0.551295	0.200579
C64	C	1.409949	-0.051295	0.700579
C65	C	0.911741	-0.448431	0.199987
C66	C	1.411741	0.051569	0.699987
C67	C	0.894061	-0.310299	0.112752
C68	C	1.394061	0.189701	0.612752
C69	C	0.894078	-0.689930	0.112777
C70	C	1.394078	-0.189930	0.612777
C71	C	1.032445	-0.000131	0.106375
C72	C	1.532445	0.499869	0.606375
C73	C	1.116465	-0.000136	0.107856
C74	C	1.616465	0.499864	0.607856
C75	C	0.899595	-0.000114	-0.040324
C76	C	1.399595	0.499886	0.459676
C77	C	0.898101	-0.000109	-0.133272
C78	C	1.398101	0.499891	0.366728
N79	N	0.894081	0.229786	0.112787
N80	N	1.394081	0.729786	0.612787
C81	C	0.892739	-0.000111	-0.471008
C82	C	1.392739	0.499889	0.028992
C83	C	0.809983	0.000230	-0.423406
C84	C	1.309983	0.500230	0.076594
C85	C	0.811476	-0.000103	-0.326719
C86	C	1.311476	0.499897	0.173281
C87	C	0.895399	-0.000110	-0.303453
C88	C	1.395399	0.499890	0.196547
C89	C	0.936213	-0.084380	-0.344623
C90	C	1.436213	0.415620	0.155377
C91	C	0.934134	-0.084451	-0.441254
C92	C	1.434134	0.415549	0.058746
C93	C	0.935852	0.083358	-0.441598
C94	C	1.435852	0.583358	0.058402
C95	C	0.935833	0.084472	-0.344653
C96	C	1.435833	0.584472	0.155347
C97	C	0.896907	-0.000112	-0.208759
C98	C	1.396907	0.499888	0.291241
C99	C	0.891234	-0.000115	-0.565703
C100	C	1.391234	0.499885	-0.065703
C101	C	0.888544	-0.000113	0.265863
C102	C	1.388544	0.499887	0.765863
C103	C	0.890037	-0.000112	0.358810
C104	C	1.390037	0.499888	0.858810
H105	H	0.647962	-0.000079	0.255975
H106	H	1.147962	0.499921	0.755975
H107	H	0.946148	-0.424167	-0.021328
H108	H	1.446148	0.075833	0.478672
C109	C	0.768125	0.081494	-0.288220
C110	C	1.268125	0.581494	0.211780
H111	H	0.749438	0.115143	-0.331667
H112	H	1.249438	0.615143	0.168333
H113	H	0.801476	0.117146	-0.259993
H114	H	1.301476	0.617146	0.240007
H115	H	0.726700	0.062527	-0.249259
H116	H	1.226700	0.562527	0.250741
H117	H	0.767662	-0.576093	0.141485
H118	H	1.267662	-0.076093	0.641485
H119	H	0.250646	-0.000110	0.248941
H120	H	0.750646	0.499890	0.748941
C121	C	0.093570	-0.000127	0.268009
C122	C	0.593570	0.499873	0.768009
H123	H	0.042192	-0.000141	0.256154
H124	H	0.542192	0.499859	0.756154
H125	H	0.102794	0.051335	0.299591
H126	H	0.602794	0.551335	0.799591
H127	H	0.102807	-0.051590	0.299580
H128	H	0.602807	0.448410	0.799580
C129	C	0.490890	-0.000093	0.275037
C130	C	0.990890	0.499907	0.775037
H131	H	0.520331	-0.000077	0.321091
H132	H	1.020331	0.499923	0.821091
H133	H	0.459724	-0.051555	0.277664
H134	H	0.959724	0.448445	0.777664
H135	H	0.459714	0.051370	0.277666
H136	H	0.959714	0.551370	0.777666
H137	H	0.905992	0.146813	-0.317337
H138	H	1.405992	0.646813	0.182663
H139	H	0.283388	-0.000135	-0.027909
H140	H	0.783388	0.499865	0.472091
C141	C	1.018511	0.091340	-0.324075
C142	C	1.518511	0.591340	0.175925
H143	H	1.029503	0.042492	-0.289941
H144	H	1.529503	0.542492	0.210059
H145	H	1.024924	0.145122	-0.294738
H146	H	1.524924	0.645122	0.205262
H147	H	1.052118	0.090621	-0.374860
H148	H	1.552118	0.590621	0.125140
C149	C	1.018275	0.084126	-0.484677
C150	C	1.518275	0.584126	0.015323
H151	H	1.026405	0.033855	-0.520418
H152	H	1.526405	0.533855	-0.020418
H153	H	1.052469	0.082274	-0.443085
H154	H	1.552469	0.582274	0.056915
H155	H	1.026793	0.136716	-0.517125
H156	H	1.526793	0.636716	-0.017125
H157	H	0.767568	-0.423892	0.142538
H158	H	1.267568	0.076108	0.642538
H159	H	0.537487	-0.000123	-0.023402
H160	H	1.037487	0.499877	0.476598
H161	H	0.680714	-0.000101	-0.020873
H162	H	1.180714	0.499899	0.479127
C163	C	1.035587	-0.414661	0.059014
C164	C	1.535587	0.085339	0.559014
H165	H	1.068191	-0.463670	0.065387
H166	H	1.568191	0.036330	0.565387
H167	H	1.031430	-0.379517	0.108634
H168	H	1.531430	0.120483	0.608634
H169	H	1.056069	-0.379770	0.012368
H170	H	1.556069	0.120230	0.512368
H171	H	0.140174	-0.000136	-0.030442
H172	H	0.640174	0.499864	0.469558
C173	C	0.795739	-0.413566	0.008323
C174	C	1.295739	0.086434	0.508323
H175	H	0.835668	-0.376305	-0.015960
H176	H	1.335668	0.123695	0.484040
H177	H	0.749669	-0.380711	0.016307
H178	H	1.249669	0.119289	0.516307
H179	H	0.789949	-0.462233	-0.028147
H180	H	1.289949	0.037767	0.471853
H181	H	0.779171	-0.060606	-0.298795
H182	H	1.279171	0.439394	0.201205
C183	C	1.036018	-0.585004	0.059025
C184	C	1.536018	-0.085004	0.559025
H185	H	1.031910	-0.622206	0.107277
H186	H	1.531910	-0.122206	0.607277
H187	H	1.067722	-0.535789	0.067710
H188	H	1.567722	-0.035789	0.567710
H189	H	1.057504	-0.617653	0.011302
H190	H	1.557504	-0.117653	0.511302
H191	H	0.997869	-0.087520	-0.330623
H192	H	1.497869	0.412480	0.169377
H193	H	0.801483	-0.575202	0.029322
H194	H	1.301483	-0.075202	0.529322
H195	H	0.946459	-0.577448	-0.020705
H196	H	1.446459	-0.077448	0.479295
C197	C	0.765294	0.081859	-0.448348
C198	C	1.265294	0.581859	0.051652
H199	H	0.796702	0.116463	-0.488020
H200	H	1.296702	0.616463	0.011980
H201	H	0.750075	0.116563	-0.399738
H202	H	1.250075	0.616563	0.100262
H203	H	0.721537	0.062908	-0.472696
H204	H	1.221537	0.562908	0.027304
C205	C	0.986072	-0.586335	0.225201
C206	C	1.486072	-0.086335	0.725201
H207	H	1.008887	-0.624422	0.182153
H208	H	1.508887	-0.124422	0.682153
H209	H	0.977229	-0.618365	0.276538
H210	H	1.477229	-0.118365	0.776538
H211	H	1.019072	-0.537830	0.232079
H212	H	1.519072	-0.037830	0.732079
H213	H	0.969831	-0.424031	0.214347
H214	H	1.469831	0.075969	0.714347
H215	H	0.869252	-0.422730	0.253478
H216	H	1.369252	0.077270	0.753478
C217	C	0.893911	-0.169533	-0.465908
C218	C	1.393911	0.330467	0.034092
H219	H	0.878990	-0.203727	-0.416889
H220	H	1.378990	0.296273	0.083111
H221	H	0.927722	-0.203229	-0.503951
H222	H	1.427722	0.296771	-0.003951
H223	H	0.850192	-0.154130	-0.492080
H224	H	1.350192	0.345870	0.007920
C225	C	0.848503	-0.584169	0.269626
C226	C	1.348503	-0.084169	0.769626
H227	H	0.813341	-0.620828	0.245108
H228	H	1.313341	-0.120828	0.745108
H229	H	0.822476	-0.534711	0.296115
H230	H	1.322476	-0.034711	0.796115
H231	H	0.871785	-0.617271	0.310241
H232	H	1.371785	-0.117271	0.810241
H233	H	0.777050	-0.059857	-0.442939
H234	H	1.277050	0.440143	0.057061
C235	C	1.016206	-0.089647	-0.484994
C236	C	1.516206	0.410353	0.015006
H237	H	1.015493	-0.089722	-0.544293
H238	H	1.515493	0.410278	-0.044293
H239	H	1.039519	-0.142596	-0.468448
H240	H	1.539519	0.357404	0.031552
H241	H	1.044237	-0.039818	-0.469233
H242	H	1.544237	0.460182	0.030767
H243	H	0.907859	-0.147087	-0.316190
H244	H	1.407859	0.352913	0.183810
H245	H	0.908799	0.147230	-0.462076
H246	H	1.408799	0.647230	0.037924
