data_functionalizedCrystal
_audit_creation_method	'MofGen! by Chris Wilmer'
_symmetry_space_group_name_H-M	'P1'
_symmetry_Int_Tables_number	1
_symmetry_cell_setting	triclinic
loop_
_symmetry_equiv_pos_as_xyz
  x,y,z
_cell_length_a	19.077105
_cell_length_b	19.121111
_cell_length_c	19.077174
_cell_angle_alpha	85.193718
_cell_angle_beta	85.483752
_cell_angle_gamma	89.735527
loop_
_atom_site_label
_atom_site_type_symbol
_atom_site_fract_x
_atom_site_fract_y
_atom_site_fract_z
Zn1	Zn	1.079653	0.341256	-0.455855
Zn2	Zn	1.412986	0.674589	-0.122522
Zn3	Zn	1.746320	1.007922	0.210812
Zn4	Zn	1.070204	0.453789	-0.342588
Zn5	Zn	1.403537	0.787122	-0.009255
Zn6	Zn	1.736871	1.120456	0.324079
Zn7	Zn	0.957442	0.331438	-0.332850
Zn8	Zn	1.290776	0.664771	0.000484
Zn9	Zn	1.624109	0.998104	0.333817
Zn10	Zn	0.957100	0.453743	-0.455704
Zn11	Zn	1.290433	0.787076	-0.122371
Zn12	Zn	1.623766	1.120410	0.210963
O13	O	1.016100	0.395056	-0.396749
O14	O	1.349433	0.728390	-0.063416
O15	O	1.682766	1.061723	0.269918
O16	O	1.176880	0.360311	-0.444969
O17	O	1.510213	0.693645	-0.111635
O18	O	1.843546	1.026978	0.221698
O19	O	1.051435	0.433469	-0.242478
O20	O	1.384768	0.766803	0.090855
O21	O	1.718101	1.100136	0.424188
O22	O	0.977752	0.234459	-0.345154
O23	O	1.311085	0.567792	-0.011821
O24	O	1.644418	0.901126	0.321512
O25	O	1.169938	0.442989	-0.361752
O26	O	1.503271	0.776323	-0.028419
O27	O	1.836604	1.109656	0.304915
O28	O	1.067539	0.241672	-0.435526
O29	O	1.400873	0.575006	-0.102193
O30	O	1.734206	0.908339	0.231141
O31	O	0.968589	0.343578	-0.235324
O32	O	1.301923	0.676912	0.098010
O33	O	1.635256	1.010245	0.431343
O34	O	0.858917	0.343534	-0.345008
O35	O	1.192250	0.676867	-0.011674
O36	O	1.525583	1.010200	0.321659
O37	O	0.977168	0.442911	-0.554542
O38	O	1.310501	0.776244	-0.221208
O39	O	1.643834	1.109578	0.112125
O40	O	0.858665	0.433391	-0.435268
O41	O	1.191998	0.766724	-0.101935
O42	O	1.525332	1.100058	0.231399
O43	O	1.067207	0.360267	-0.554653
O44	O	1.400541	0.693600	-0.221319
O45	O	1.733874	1.026933	0.112014
O46	O	1.051103	0.552064	-0.361605
O47	O	1.384436	0.885397	-0.028272
O48	O	1.717769	1.218731	0.305061
O49	O	0.968005	0.552030	-0.444711
O50	O	1.301339	0.885364	-0.111378
O51	O	1.634672	1.218697	0.221956
C52	C	0.833256	0.387392	-0.389065
C53	C	1.166589	0.720726	-0.055732
C54	C	1.499923	1.054059	0.277602
C55	C	0.755035	0.384131	-0.385795
C56	C	1.088368	0.717465	-0.052462
C57	C	1.421701	1.050798	0.280871
C58	C	0.718168	0.429448	-0.431185
C59	C	1.051501	0.762781	-0.097851
C60	C	1.384835	1.096115	0.235482
C61	C	0.644671	0.426375	-0.428115
C62	C	0.978005	0.759708	-0.094782
C63	C	1.311338	1.093042	0.238551
C64	C	0.608042	0.377988	-0.379653
C65	C	0.941376	0.711321	-0.046319
C66	C	1.274709	1.044655	0.287014
C67	C	0.644914	0.332667	-0.334261
C68	C	0.978248	0.666000	-0.000928
C69	C	1.311581	0.999333	0.332405
C70	C	0.718410	0.335737	-0.337335
C71	C	1.051743	0.669070	-0.004001
C72	C	1.385077	1.002403	0.329332
C73	C	0.388246	0.363778	-0.365433
C74	C	0.721580	0.697112	-0.032099
C75	C	1.054913	1.030445	0.301234
C76	C	0.314745	0.360713	-0.362361
C77	C	0.648079	0.694046	-0.029028
C78	C	0.981412	1.027380	0.304305
C79	C	0.314508	0.454421	-0.456217
C80	C	0.647841	0.787754	-0.122884
C81	C	0.981174	1.121087	0.210450
C82	C	0.388004	0.457490	-0.459283
C83	C	0.721338	0.790823	-0.125950
C84	C	1.054671	1.124156	0.207384
C85	C	0.424870	0.412166	-0.413894
C86	C	0.758204	0.745499	-0.080561
C87	C	1.091537	1.078832	0.252773
N88	N	0.532917	0.374847	-0.376513
N89	N	0.866250	0.708180	-0.043179
N90	N	1.199583	1.041514	0.290154
N91	N	0.499995	0.415304	-0.417038
N92	N	0.833328	0.748637	-0.083705
N93	N	1.166662	1.081971	0.249629
C94	C	1.008511	0.577532	-0.404215
C95	C	1.341844	0.910865	-0.070881
C96	C	1.675178	1.244198	0.262452
C97	C	1.005330	0.655599	-0.407435
C98	C	1.338663	0.988932	-0.074101
C99	C	1.671997	1.322266	0.259232
C100	C	1.047136	0.692273	-0.365718
C101	C	1.380469	1.025606	-0.032384
C102	C	1.713803	1.358939	0.300949
C103	C	1.044148	0.765626	-0.368751
C104	C	1.377482	1.098959	-0.035417
C105	C	1.710815	1.432292	0.297916
C106	C	0.999351	0.802303	-0.413497
C107	C	1.332684	1.135637	-0.080164
C108	C	1.666017	1.468970	0.253169
C109	C	0.957543	0.765625	-0.455219
C110	C	1.290876	1.098958	-0.121886
C111	C	1.624210	1.432292	0.211448
C112	C	0.960535	0.692274	-0.452189
C113	C	1.293868	1.025607	-0.118856
C114	C	1.627201	1.358940	0.214477
C115	C	0.988155	1.023777	-0.424811
C116	C	1.321488	1.357111	-0.091478
C117	C	1.654821	1.690444	0.241856
C118	C	0.985164	1.097134	-0.427836
C119	C	1.318498	1.430467	-0.094502
C120	C	1.651831	1.763800	0.238831
C121	C	1.071771	1.097130	-0.341368
C122	C	1.405105	1.430463	-0.008035
C123	C	1.738438	1.763796	0.325299
C124	C	1.074756	1.023777	-0.338339
C125	C	1.408089	1.357110	-0.005006
C126	C	1.741423	1.690443	0.328327
C127	C	1.032951	0.987105	-0.380064
C128	C	1.366284	1.320438	-0.046730
C129	C	1.699618	1.653771	0.286603
C130	C	0.996294	0.877282	-0.416597
C131	C	1.329627	1.210615	-0.083263
C132	C	1.662961	1.543948	0.250070
C133	C	1.036012	0.912128	-0.376967
C134	C	1.369345	1.245461	-0.043634
C135	C	1.702678	1.578795	0.289699
C136	C	1.199657	0.402751	-0.404464
C137	C	1.532991	0.736084	-0.071130
C138	C	1.866324	1.069417	0.262203
C139	C	1.277879	0.406030	-0.407751
C140	C	1.611212	0.739363	-0.074418
C141	C	1.944545	1.072696	0.258916
C142	C	1.023203	0.402679	-0.580936
C143	C	1.356537	0.736012	-0.247603
C144	C	1.689870	1.069346	0.085731
C145	C	1.026230	0.405927	-0.659425
C146	C	1.359564	0.739261	-0.326092
C147	C	1.692897	1.072594	0.007241
C148	C	1.023732	1.211870	-0.389279
C149	C	1.357066	1.545203	-0.055946
C150	C	1.690399	1.878537	0.277387
C151	C	1.026971	1.133807	-0.386119
C152	C	1.360304	1.467141	-0.052785
C153	C	1.693637	1.800474	0.280548
C154	C	0.984521	0.360653	-0.692574
C155	C	1.317855	0.693986	-0.359241
C156	C	1.651188	1.027319	-0.025908
C157	C	0.987363	0.363711	-0.766324
C158	C	1.320696	0.697044	-0.432990
C159	C	1.654029	1.030377	-0.099657
C160	C	1.031917	0.412040	-0.806923
C161	C	1.365251	0.745373	-0.473589
C162	C	1.698584	1.078707	-0.140256
C163	C	1.073628	0.457319	-0.773769
C164	C	1.406961	0.790653	-0.440435
C165	C	1.740295	1.123986	-0.107102
C166	C	1.070782	0.454264	-0.700021
C167	C	1.404116	0.787598	-0.366687
C168	C	1.737449	1.120931	-0.033354
C169	C	1.045049	0.426198	-1.027885
C170	C	1.378382	0.759532	-0.694552
C171	C	1.711716	1.092865	-0.361219
C172	C	1.047893	0.429248	-1.101638
C173	C	1.381226	0.762582	-0.768305
C174	C	1.714560	1.095915	-0.434971
C175	C	0.961626	0.335640	-1.094188
C176	C	1.294960	0.668974	-0.760855
C177	C	1.628293	1.002307	-0.427521
C178	C	0.958788	0.332587	-1.020439
C179	C	1.292121	0.665920	-0.687105
C180	C	1.625455	0.999253	-0.353772
C181	C	1.000496	0.377868	-0.987291
C182	C	1.333829	0.711202	-0.653958
C183	C	1.667163	1.044535	-0.320625
N184	N	1.034824	0.415165	-0.882306
N185	N	1.368158	0.748499	-0.548973
N186	N	1.701491	1.081832	-0.215640
N187	N	0.997585	0.374746	-0.911909
N188	N	1.330918	0.708079	-0.578576
N189	N	1.664251	1.041413	-0.245242
C190	C	1.009066	0.387414	-0.213279
C191	C	1.342400	0.720748	0.120055
C192	C	1.675733	1.054081	0.453388
C193	C	1.006184	0.383974	-0.134787
C194	C	1.339517	0.717307	0.198546
C195	C	1.672851	1.050641	0.531880
H196	H	0.417823	0.496893	-0.498745
H197	H	0.751156	0.830226	-0.165412
H198	H	1.084489	1.163560	0.167922
H199	H	0.615085	0.293266	-0.294805
H200	H	0.948419	0.626599	0.038528
H201	H	1.281752	0.959933	0.371862
H202	H	0.748426	0.298832	-0.300377
H203	H	1.081760	0.632165	0.032956
H204	H	1.415093	0.965498	0.366289
H205	H	0.926493	0.662415	-0.486161
H206	H	1.259826	0.995748	-0.152827
H207	H	1.593159	1.329081	0.180506
H208	H	1.105808	1.126996	-0.307399
H209	H	1.439141	1.460329	0.025934
H210	H	1.772474	1.793662	0.359267
H211	H	0.927670	0.298775	-1.121185
H212	H	1.261003	0.632108	-0.787851
H213	H	1.594336	0.965442	-0.454518
H214	H	1.072489	0.882263	-0.340537
H215	H	1.405822	1.215596	-0.007204
H216	H	1.739156	1.548930	0.326129
H217	H	0.948694	1.126996	-0.464287
H218	H	1.282027	1.460329	-0.130953
H219	H	1.615360	1.793662	0.202380
H220	H	1.109901	0.496674	-0.806830
H221	H	1.443235	0.830007	-0.473497
H222	H	1.776568	1.163340	-0.140164
H223	H	0.418253	0.326878	-0.328469
H224	H	0.751587	0.660211	0.004865
H225	H	1.084920	0.993544	0.338198
H226	H	0.953396	0.326846	-0.793310
H227	H	1.286729	0.660179	-0.459977
H228	H	1.620063	0.993512	-0.126643
H229	H	0.284484	0.491320	-0.493171
H230	H	0.617817	0.824653	-0.159838
H231	H	0.951150	1.157987	0.173496
H232	H	1.079003	0.463077	-1.000906
H233	H	1.412336	0.796411	-0.667572
H234	H	1.745669	1.129744	-0.334239
H235	H	0.922505	0.293234	-0.987388
H236	H	1.255838	0.626567	-0.654054
H237	H	1.589172	0.959900	-0.320721
H238	H	1.084178	0.468605	-1.134692
H239	H	1.417511	0.801938	-0.801359
H240	H	1.750844	1.135272	-0.468026
H241	H	1.104752	0.491127	-0.673032
H242	H	1.438085	0.824460	-0.339699
H243	H	1.771419	1.157793	-0.006365
H244	H	1.083612	0.662414	-0.329277
H245	H	1.416945	0.995747	0.004056
H246	H	1.750279	1.329081	0.337390
H247	H	0.954114	0.993925	-0.458783
H248	H	1.287447	1.327258	-0.125450
H249	H	1.620781	1.660591	0.207883
H250	H	0.614657	0.463277	-0.465076
H251	H	0.947991	0.796610	-0.131742
H252	H	1.281324	1.129944	0.201591
H253	H	0.747986	0.468852	-0.470646
H254	H	1.081319	0.802186	-0.137313
H255	H	1.414652	1.135519	0.196020
H256	H	0.921071	0.795494	-0.491656
H257	H	1.254404	1.128827	-0.158323
H258	H	1.587737	1.462161	0.175011
H259	H	0.284925	0.321302	-0.322901
H260	H	0.618258	0.654636	0.010432
H261	H	0.951591	0.987969	0.343765
H262	H	1.078191	0.795482	-0.334780
H263	H	1.411524	1.128815	-0.001446
H264	H	1.744858	1.462149	0.331887
H265	H	0.948244	0.321294	-0.659523
H266	H	1.281577	0.654627	-0.326190
H267	H	1.614911	0.987961	0.007143
H268	H	1.111234	0.993915	-0.301903
H269	H	1.444567	1.327248	0.031430
H270	H	1.777901	1.660582	0.364764
H271	H	0.959818	0.907153	-0.453028
H272	H	1.293151	1.240486	-0.119695
H273	H	1.626485	1.573820	0.213639
