data_functionalizedCrystal
_audit_creation_method	'MofGen! by Chris Wilmer'
_symmetry_space_group_name_H-M	'P1'
_symmetry_Int_Tables_number	1
_symmetry_cell_setting	triclinic
loop_
_symmetry_equiv_pos_as_xyz
  x,y,z
_cell_length_a	11.792241
_cell_length_b	12.837942
_cell_length_c	11.295483
_cell_angle_alpha	94.530417
_cell_angle_beta	85.870734
_cell_angle_gamma	89.511178
loop_
_atom_site_label
_atom_site_type_symbol
_atom_site_fract_x
_atom_site_fract_y
_atom_site_fract_z
O1	O	1.528213	0.135234	-0.098907
O2	O	1.199360	0.149884	-0.098935
O3	O	1.356494	-0.008384	-0.098914
O4	O	1.371079	0.293502	-0.098928
O5	O	1.342690	0.005495	0.099135
O6	O	1.185556	0.163764	0.099114
O7	O	1.514409	0.149114	0.099142
Cu8	Cu	1.348722	0.157706	0.117212
Cu9	Cu	1.365047	0.141292	-0.117004
O10	O	1.357275	0.307382	0.099121
C11	C	1.344666	-0.040093	0.000109
C12	C	1.329972	-0.155253	0.000106
C13	C	1.150074	0.155903	0.000086
C14	C	1.023782	0.153148	0.000076
C15	C	1.506618	-0.395219	0.000096
C16	C	1.492818	-0.503423	0.000093
C17	C	1.288572	-0.479866	0.000088
C18	C	1.302372	-0.371663	0.000091
C19	C	1.411399	-0.329343	0.000097
C20	C	1.425198	-0.221137	0.000109
C21	C	1.220954	-0.197583	0.000095
C22	C	1.207153	-0.305787	0.000092
C23	C	0.792553	0.148085	0.000110
C24	C	0.921225	0.150898	0.000091
C25	C	1.563695	0.143094	0.000118
C26	C	1.689988	0.145849	0.000121
C27	C	1.369104	0.339090	0.000095
C28	C	1.383798	0.454250	0.000091
N29	N	1.337249	0.169250	0.281946
N30	N	1.376529	0.129739	-0.281739
C31	C	1.459116	0.046580	0.531252
C32	C	1.450454	0.055311	0.655914
C33	C	1.311258	0.195439	0.655936
C34	C	1.319920	0.186707	0.531274
C35	C	1.393852	0.112277	0.468936
C36	C	1.402519	0.103551	0.344271
C37	C	1.263318	0.243673	0.344295
C38	C	1.254656	0.252404	0.468958
H39	H	1.513973	-0.186682	0.000118
H40	H	1.194459	0.313002	0.519728
C41	C	1.540446	-0.035289	0.462677
N42	N	1.601705	-0.096956	0.411029
H43	H	1.143418	-0.143934	0.000106
H44	H	1.595391	-0.360761	0.000112
C45	C	1.597567	-0.575883	0.000100
N46	N	1.676468	-0.630460	0.000107
H47	H	1.503596	0.001813	0.706649
H48	H	1.462722	0.042948	0.293517
H49	H	1.251056	0.256032	0.706708
C50	C	1.168651	-0.526437	0.000093
N51	N	1.078324	-0.561514	0.000105
C52	C	1.087229	-0.352350	0.000100
N53	N	0.996899	-0.387420	0.000114
C54	C	1.191524	0.315944	0.275738
N55	N	1.137451	0.370378	0.224099
