data_functionalizedCrystal
_audit_creation_method	'MofGen! by Chris Wilmer'
_symmetry_space_group_name_H-M	'P1'
_symmetry_Int_Tables_number	1
_symmetry_cell_setting	triclinic
loop_
_symmetry_equiv_pos_as_xyz
  x,y,z
_cell_length_a	15.625950
_cell_length_b	14.044190
_cell_length_c	14.185569
_cell_angle_alpha	75.616153
_cell_angle_beta	120.545593
_cell_angle_gamma	88.497992
loop_
_atom_site_label
_atom_site_type_symbol
_atom_site_fract_x
_atom_site_fract_y
_atom_site_fract_z
O1	O	1.292812	0.024344	0.386694
O2	O	1.008335	0.065691	0.283242
O3	O	1.146305	-0.092578	0.333436
O4	O	1.154843	0.182613	0.336501
O5	O	1.187063	-0.139328	0.515098
O6	O	1.049093	0.018941	0.464904
O7	O	1.333570	-0.022405	0.568357
Cu8	Cu	1.195053	-0.006000	0.533218
Cu9	Cu	1.146852	0.049286	0.318381
O10	O	1.195600	0.135864	0.518163
C11	C	0.992087	0.045073	0.360754
C12	C	0.882950	0.053277	0.321066
C13	C	0.634978	-0.047071	0.685526
C14	C	0.532415	-0.039331	0.648183
C15	C	0.488033	0.011630	0.450160
C16	C	0.590594	0.003898	0.487487
C17	C	0.664060	-0.025454	0.605171
C18	C	0.619676	0.025516	0.407132
C19	C	0.722229	0.017780	0.444456
C20	C	0.795700	-0.011574	0.562136
C21	C	0.766612	-0.033190	0.642495
C22	C	0.546209	0.054861	0.289448
C23	C	0.575291	0.076478	0.209094
C24	C	0.677845	0.068749	0.246417
C25	C	0.751316	0.039396	0.364097
C26	C	0.706932	0.090365	0.166057
C27	C	0.809485	0.082629	0.203382
C28	C	0.853869	0.031659	0.401421
C29	C	1.162946	-0.150923	0.422910
C30	C	1.151794	-0.255122	0.418864
C31	C	1.210496	-0.510817	0.440172
C32	C	1.131412	-0.445890	0.411419
C33	C	1.142755	-0.339737	0.415562
C34	C	1.199154	-0.616980	0.436029
C35	C	1.349818	-0.001787	0.490842
C36	C	1.458953	-0.009989	0.530523
C37	C	1.178959	0.194209	0.428686
C38	C	1.190109	0.298410	0.432725
N39	N	1.228962	-0.044887	0.684325
N40	N	1.112950	0.088165	0.167276
C41	C	1.013322	0.202374	0.973525
C42	C	1.039015	0.172923	1.087893
C43	C	1.161218	0.032821	1.132312
C44	C	1.135532	0.062257	1.017944
C45	C	1.061584	0.147035	0.938558
C46	C	1.183794	0.006918	0.982977
C47	C	1.158114	0.036355	0.868620
C48	C	1.084171	0.121131	0.789229
C49	C	1.035903	0.176472	0.824201
C50	C	1.257747	-0.077855	1.062366
C51	C	1.306009	-0.133194	1.027400
C52	C	1.280324	-0.103762	0.913039
C53	C	1.206381	-0.018986	0.833648
C54	C	1.328591	-0.159102	0.878067
C55	C	1.302910	-0.129665	0.763710
C56	C	1.180700	0.010452	0.719291
H57	H	0.694798	-0.070958	0.781356
H58	H	0.879204	-0.017873	0.592523
H59	H	1.055186	-0.470028	0.383693
C60	C	1.099347	0.103697	0.631952
H61	H	1.090962	0.113294	0.558837
H62	H	1.119737	0.160656	0.656564
H63	H	1.037143	0.094651	0.626560
H64	H	0.515463	0.100372	0.113275
C65	C	1.286001	-0.110239	1.188159
H66	H	1.336963	-0.168646	1.230434
H67	H	1.227943	-0.124020	1.190825
H68	H	1.310549	-0.058028	1.220832
C69	C	1.313467	-0.478219	0.477641
H70	H	1.307680	-0.410115	0.475557
H71	H	1.333921	-0.485887	0.426901
H72	H	1.362324	-0.518529	0.553599
C73	C	0.954559	0.269725	0.736870
H74	H	0.929493	0.298473	0.774071
H75	H	0.900701	0.251130	0.676326
H76	H	0.983315	0.317113	0.706351
C77	C	1.387343	-0.226447	1.114726
H78	H	1.395722	-0.236058	1.187840
H79	H	1.449546	-0.217426	1.120117
H80	H	1.366923	-0.283398	1.090097
H81	H	1.063266	0.145100	0.696114
C82	C	0.985923	0.233798	1.126357
H83	H	1.011812	0.204131	1.205835
H84	H	0.915303	0.234422	1.083483
H85	H	0.997922	0.300399	1.113500
C86	C	0.931978	0.295627	0.886194
H87	H	0.906911	0.324375	0.923394
H88	H	0.878119	0.277032	0.825650
H89	H	0.960733	0.343015	0.855674
H90	H	0.833162	0.100237	0.137948
H91	H	1.221431	-0.036204	1.196961
C92	C	1.409931	-0.252349	0.965398
H93	H	1.418311	-0.261956	1.038512
H94	H	1.472132	-0.243322	0.970785
H95	H	1.389519	-0.309305	0.940778
C96	C	1.355985	-0.190538	0.725234
H97	H	1.330104	-0.160858	0.645759
H98	H	1.343993	-0.257136	0.738091
H99	H	1.426610	-0.191156	0.768106
C100	C	0.847431	-0.065505	0.771947
H101	H	0.815427	-0.077286	0.814464
H102	H	0.885742	-0.014114	0.789682
H103	H	0.890977	-0.125079	0.791559
C104	C	0.934690	-0.000618	0.530871
H105	H	0.999929	-0.002121	0.541586
H106	H	0.929644	-0.065305	0.566416
H107	H	0.924364	0.045678	0.564466
H108	H	0.508743	-0.056914	0.713626
H109	H	0.428205	0.035524	0.354341
C110	C	0.626116	0.122646	0.036614
H111	H	0.560874	0.124159	0.025895
H112	H	0.636445	0.076365	0.003011
H113	H	0.631161	0.187344	0.001080
C114	C	0.433403	0.063356	0.248386
H115	H	0.393816	0.083914	0.166791
H116	H	0.415745	0.111179	0.275535
H117	H	0.421051	0.000196	0.277486
