data_functionalizedCrystal
_audit_creation_method	'MofGen! by Chris Wilmer'
_symmetry_space_group_name_H-M	'P1'
_symmetry_Int_Tables_number	1
_symmetry_cell_setting	triclinic
loop_
_symmetry_equiv_pos_as_xyz
  x,y,z
_cell_length_a	16.959455
_cell_length_b	12.594516
_cell_length_c	16.959447
_cell_angle_alpha	90.026821
_cell_angle_beta	90.014322
_cell_angle_gamma	90.008763
loop_
_atom_site_label
_atom_site_type_symbol
_atom_site_fract_x
_atom_site_fract_y
_atom_site_fract_z
Zn1	Zn	1.208429	-0.423808	0.446928
Zn2	Zn	1.208371	-0.601815	0.314757
Zn3	Zn	1.076258	-0.423841	0.314765
Zn4	Zn	1.076241	-0.601735	0.446896
O5	O	1.142325	-0.512800	0.380837
O6	O	1.319032	-0.447440	0.429405
O7	O	1.190828	-0.578253	0.204148
O8	O	1.093822	-0.274891	0.332314
O9	O	1.318989	-0.578221	0.332300
O10	O	1.190928	-0.274866	0.429413
O11	O	1.093765	-0.447497	0.204153
O12	O	0.965645	-0.447420	0.332283
O13	O	1.093794	-0.578085	0.557511
O14	O	0.965633	-0.578118	0.429359
O15	O	1.190912	-0.447363	0.557535
O16	O	1.190812	-0.750750	0.332269
O17	O	1.093737	-0.750692	0.429351
C18	C	0.936958	-0.512765	0.380819
C19	C	0.849102	-0.512775	0.380830
C20	C	0.477608	-0.444690	0.330395
C21	C	0.477644	-0.580998	0.431324
C22	C	0.560190	-0.580982	0.431319
C23	C	0.601449	-0.512821	0.380850
C24	C	0.560162	-0.444674	0.330387
C25	C	0.601484	-0.649135	0.481776
C26	C	0.684035	-0.649123	0.481773
C27	C	0.725295	-0.580955	0.431307
C28	C	0.684002	-0.512806	0.380842
C29	C	0.725261	-0.444644	0.330374
C30	C	0.683970	-0.376488	0.279912
C31	C	0.601422	-0.376507	0.279922
C32	C	0.807843	-0.580937	0.431298
C33	C	0.807815	-0.444629	0.330366
C34	C	1.142288	-0.789341	0.380823
C35	C	1.142345	-0.907646	0.380844
C36	C	1.195205	-0.976892	0.328097
C37	C	1.214514	-1.047592	0.400242
C38	C	1.123134	-1.047745	0.308744
C39	C	1.161691	-0.976787	0.453026
C40	C	1.070277	-0.976935	0.361480
C41	C	1.089559	-1.047602	0.433675
C42	C	1.348493	-0.512836	0.380855
C43	C	1.436349	-0.512851	0.380863
C44	C	1.142358	-0.512712	0.587005
C45	C	1.142372	-0.512674	0.674862
C46	C	1.142383	-0.235179	0.380868
C47	C	1.142408	-0.116873	0.380881
C48	C	1.142337	-0.512811	0.175470
C49	C	1.142477	-0.512548	0.087614
C50	C	1.091901	-0.580623	1.046328
C51	C	1.193031	-0.444501	1.046347
C52	C	1.193010	-0.444523	0.963801
C53	C	1.142435	-0.512598	0.922515
C54	C	1.091880	-0.580650	0.963774
C55	C	1.243569	-0.376480	0.922536
C56	C	1.243550	-0.376501	0.839985
C57	C	1.192970	-0.444571	0.798697
C58	C	1.142414	-0.512625	0.839961
C59	C	1.091838	-0.580699	0.798675
C60	C	1.041277	-0.648749	0.839938
C61	C	1.041300	-0.648720	0.922486
C62	C	1.192947	-0.444600	0.716148
C63	C	1.091817	-0.580726	0.716121
H64	H	0.841401	-0.389116	0.289273
H65	H	1.234211	-0.389083	1.079968
H66	H	1.177904	-0.945752	0.514068
C67	C	0.452244	-0.761293	0.469617
C68	C	0.432300	-0.655913	0.486804
H69	H	0.424244	-0.807540	0.503871
H70	H	0.507310	-0.771026	0.476835
H71	H	0.438689	-0.776783	0.416492
H72	H	0.445860	-0.640420	0.539928
H73	H	0.377221	-0.646175	0.479593
H74	H	1.009322	-0.945872	0.345059
H75	H	0.443985	-0.389196	0.289312
C76	C	1.080904	-0.723768	1.139131
C77	C	1.036327	-0.655424	1.091678
H78	H	1.046593	-0.769951	1.167124
H79	H	1.111016	-0.683222	1.175533
H80	H	1.115325	-0.764495	1.106915
H81	H	1.001909	-0.614692	1.123895
H82	H	1.006201	-0.695975	1.055272
H83	H	1.000138	-0.704125	0.956090
H84	H	0.717647	-0.704619	0.522862
C85	C	0.576112	-0.701180	0.615558
C86	C	0.556126	-0.724038	0.537255
H87	H	0.548108	-0.747422	0.649812
H88	H	0.562599	-0.629688	0.627202
H89	H	0.631184	-0.710945	0.622767
H90	H	0.501055	-0.714265	0.530045
H91	H	0.569634	-0.795546	0.525608
H92	H	1.284749	-0.321064	0.956157
H93	H	1.239914	-0.945844	0.283531
H94	H	0.567795	-0.321019	0.238838
H95	H	1.284720	-0.321090	0.806395
C96	C	1.203942	-0.301468	0.623336
C97	C	1.248519	-0.369813	0.670789
H98	H	1.238254	-0.255301	0.595330
H99	H	1.169533	-0.260735	0.655548
H100	H	1.173818	-0.342022	0.586938
H101	H	1.278640	-0.329259	0.707190
H102	H	1.282942	-0.410550	0.638574
H103	H	0.841459	-0.636432	0.472381
C104	C	0.810501	-0.315955	0.235091
C105	C	0.729327	-0.301565	0.224439
H106	H	0.838503	-0.269697	0.200847
H107	H	0.824013	-0.387441	0.223427
H108	H	0.824040	-0.300467	0.288221
H109	H	0.715788	-0.317060	0.171309
H110	H	0.715811	-0.230062	0.236096
C111	C	1.026189	-1.052622	0.205600
C112	C	1.101156	-1.089821	0.226415
H113	H	1.012625	-1.078603	0.154775
H114	H	1.026487	-0.977214	0.204876
H115	H	0.988612	-1.076838	0.243028
H116	H	1.138734	-1.065599	0.188990
H117	H	1.100864	-1.165245	0.227133
H118	H	1.275487	-1.078632	0.416641
C119	C	1.049588	-1.053245	0.569413
C120	C	1.029250	-1.089264	0.493978
H121	H	1.012360	-1.078974	0.606642
H122	H	1.049543	-0.977834	0.570023
H123	H	1.100652	-1.078518	0.582738
H124	H	0.978189	-1.063986	0.480651
H125	H	1.029287	-1.164691	0.493365
H126	H	1.050625	-0.636152	0.682511
C127	C	0.996351	-0.709224	0.713382
C128	C	0.985684	-0.723575	0.794550
H129	H	0.962028	-0.755413	0.685361
H130	H	1.049448	-0.724820	0.699862
H131	H	0.984797	-0.637707	0.699874
H132	H	0.997244	-0.795090	0.808058
H133	H	0.932575	-0.707986	0.808074
