data_functionalizedCrystal
_audit_creation_method	'MofGen! by Chris Wilmer'
_symmetry_space_group_name_H-M	'P1'
_symmetry_Int_Tables_number	1
_symmetry_cell_setting	triclinic
loop_
_symmetry_equiv_pos_as_xyz
  x,y,z
_cell_length_a	16.109301
_cell_length_b	14.472310
_cell_length_c	16.109301
_cell_angle_alpha	90.002494
_cell_angle_beta	83.461481
_cell_angle_gamma	90.010306
loop_
_atom_site_label
_atom_site_type_symbol
_atom_site_fract_x
_atom_site_fract_y
_atom_site_fract_z
O1	O	1.103143	0.076785	0.106861
O2	O	1.603143	0.576785	0.606861
O3	O	0.861081	0.076801	0.120161
O4	O	1.361081	0.576801	0.620161
O5	O	0.988761	0.076783	-0.007520
O6	O	1.488761	0.576783	0.492480
O7	O	0.975462	0.076803	0.234542
O8	O	1.475462	0.576803	0.734542
O9	O	0.988729	-0.076899	-0.007512
O10	O	1.488729	0.423101	0.492488
O11	O	0.861048	-0.076881	0.120168
O12	O	1.361048	0.423119	0.620168
O13	O	1.103110	-0.076897	0.106869
O14	O	1.603110	0.423103	0.606869
Cu15	Cu	0.982076	-0.090921	0.113519
Cu16	Cu	1.482076	0.409079	0.613519
Cu17	Cu	0.982115	0.090825	0.113510
Cu18	Cu	1.482115	0.590825	0.613510
O19	O	0.975429	-0.076879	0.234550
O20	O	1.475429	0.423121	0.734550
C21	C	0.830090	-0.000039	0.119626
C22	C	1.330090	0.499961	0.619626
C23	C	0.737794	-0.000033	0.118011
C24	C	1.237794	0.499967	0.618011
N25	N	0.982055	-0.218752	0.113525
N26	N	1.482055	0.281248	0.613525
C27	C	0.515522	-0.000038	0.190018
C28	C	1.015522	0.499962	0.690018
C29	C	0.428801	-0.000044	0.188494
C30	C	0.928801	0.499956	0.688494
C31	C	0.448676	-0.000053	0.037006
C32	C	0.948676	0.499947	0.537006
C33	C	0.535394	-0.000053	0.038530
C34	C	1.035394	0.499947	0.538530
C35	C	0.568815	-0.000041	0.115039
C36	C	1.068815	0.499959	0.615039
C37	C	0.395376	-0.000047	0.111990
C38	C	0.895376	0.499953	0.611990
C39	C	0.301350	-0.000053	0.110337
C40	C	0.801350	0.499947	0.610337
C41	C	0.662847	-0.000036	0.116693
C42	C	1.162847	0.499964	0.616693
C43	C	0.982114	-0.592844	0.113507
C44	C	1.482114	-0.092844	0.613507
C45	C	0.913565	-0.553668	0.181597
C46	C	1.413565	-0.053668	0.681597
C47	C	0.913723	-0.446580	0.181846
C48	C	1.413723	0.053420	0.681846
C49	C	0.982084	-0.407252	0.113516
C50	C	1.482084	0.092748	0.613516
C51	C	1.068828	-0.446093	0.132440
C52	C	1.568828	0.053907	0.632440
C53	C	1.068443	-0.553215	0.132924
C54	C	1.568443	-0.053215	0.632924
C55	C	0.964692	-0.553379	0.026291
C56	C	1.464692	-0.053379	0.526291
C57	C	0.962702	-0.446251	0.026873
C58	C	1.462702	0.053749	0.526873
C59	C	0.982072	-0.302364	0.113519
C60	C	1.482072	0.197636	0.613519
C61	C	0.982131	-0.697732	0.113506
C62	C	1.482131	-0.197732	0.613506
C63	C	1.134101	-0.000055	0.107404
C64	C	1.634101	0.499945	0.607404
C65	C	1.226397	-0.000055	0.109019
C66	C	1.726397	0.499945	0.609019
C67	C	0.988206	-0.000058	-0.038491
C68	C	1.488206	0.499942	0.461509
C69	C	0.986591	-0.000059	-0.130786
C70	C	1.486591	0.499941	0.369214
N71	N	0.982143	0.218656	0.113498
N72	N	1.482143	0.718656	0.613498
C73	C	1.058599	-0.000049	-0.353059
C74	C	1.558599	0.499951	0.146941
C75	C	1.057075	-0.000042	-0.439779
C76	C	1.557075	0.499958	0.060221
C77	C	0.905586	-0.000036	-0.419905
C78	C	1.405586	0.499964	0.080095
C79	C	0.907111	-0.000037	-0.333186
C80	C	1.407111	0.499963	0.166814
C81	C	0.983620	-0.000048	-0.299766
C82	C	1.483620	0.499952	0.200234
C83	C	0.980571	-0.000040	-0.473205
C84	C	1.480571	0.499960	0.026795
C85	C	0.978918	-0.000031	-0.567231
C86	C	1.478918	0.499969	-0.067231
C87	C	0.985273	-0.000055	-0.205734
C88	C	1.485273	0.499945	0.294266
C89	C	0.975984	-0.000036	0.265521
C90	C	1.475984	0.499964	0.765521
C91	C	0.977600	-0.000028	0.357816
C92	C	1.477600	0.499972	0.857816
H93	H	0.542730	-0.000035	0.252317
H94	H	1.042730	0.499965	0.752317
H95	H	0.385413	-0.000043	0.249550
H96	H	0.885413	0.499957	0.749550
Br97	Br	0.607728	-0.000069	-0.063234
Br98	Br	1.107728	0.499931	0.436766
Br99	Br	0.403314	-0.000065	-0.066823
Br100	Br	0.903314	0.499935	0.433177
H101	H	0.849244	-0.420321	0.170574
H102	H	1.349244	0.079679	0.670574
Br103	Br	0.805738	-0.596617	0.163108
Br104	Br	1.305738	-0.096617	0.663108
H105	H	1.120897	-0.000057	-0.325851
H106	H	1.620897	0.499943	0.174149
H107	H	0.924846	-0.420942	0.246568
H108	H	1.424846	0.079058	0.746568
Br109	Br	0.931855	-0.598490	0.288870
Br110	Br	1.431855	-0.098490	0.788870
Br111	Br	0.805346	-0.000023	-0.260853
Br112	Br	1.305346	0.499977	0.239147
Br113	Br	1.158837	-0.000038	-0.512103
Br114	Br	1.658837	0.499962	-0.012103
Br115	Br	1.094037	-0.594841	0.238936
Br116	Br	1.594037	-0.094841	0.738936
Br117	Br	1.155926	-0.596411	0.053316
Br118	Br	1.655926	-0.096411	0.553316
Br119	Br	1.155881	-0.403640	0.051977
Br120	Br	1.655881	0.096360	0.551977
Br121	Br	1.095041	-0.401358	0.237243
Br122	Br	1.595041	0.098642	0.737243
Br123	Br	0.861538	-0.598456	-0.004032
Br124	Br	1.361538	-0.098456	0.495968
H125	H	1.014681	-0.578712	-0.024379
H126	H	1.514681	-0.078712	0.475621
Br127	Br	0.856347	-0.403945	0.002932
Br128	Br	1.356347	0.096055	0.502932
Br129	Br	1.040524	-0.401652	-0.061537
Br130	Br	1.540524	0.098348	0.438463
Br131	Br	0.801758	-0.000018	-0.465267
Br132	Br	1.301758	0.499982	0.034733
