data_functionalizedCrystal
_audit_creation_method	'MofGen! by Chris Wilmer'
_symmetry_space_group_name_H-M	'P1'
_symmetry_Int_Tables_number	1
_symmetry_cell_setting	triclinic
loop_
_symmetry_equiv_pos_as_xyz
  x,y,z
_cell_length_a	15.995350
_cell_length_b	14.971486
_cell_length_c	14.048226
_cell_angle_alpha	90.001501
_cell_angle_beta	90.004202
_cell_angle_gamma	83.553252
loop_
_atom_site_label
_atom_site_type_symbol
_atom_site_fract_x
_atom_site_fract_y
_atom_site_fract_z
O1	O	0.109116	1.186822	0.079046
O2	O	0.609116	1.686822	0.579046
O3	O	0.122183	0.926407	0.079072
O4	O	0.622183	1.426407	0.579072
O5	O	-0.006231	1.063733	0.079057
O6	O	0.493769	1.563733	0.579057
O7	O	0.237530	1.049496	0.079061
O8	O	0.737530	1.549496	0.579061
O9	O	-0.006238	1.063717	-0.079264
O10	O	0.493762	1.563717	0.420736
O11	O	0.122176	0.926391	-0.079250
O12	O	0.622176	1.426391	0.420750
O13	O	0.109109	1.186806	-0.079275
O14	O	0.609109	1.686806	0.420725
Zn15	Zn	0.115641	1.056596	-0.104399
Zn16	Zn	0.615641	1.556596	0.395601
Zn17	Zn	0.115651	1.056617	0.104196
Zn18	Zn	0.615651	1.556617	0.604196
O19	O	0.237523	1.049480	-0.079261
O20	O	0.737523	1.549480	0.420739
C21	C	0.121595	0.893075	-0.000086
C22	C	0.621595	1.393075	0.499914
C23	C	0.119844	0.793780	-0.000076
C24	C	0.619844	1.293780	0.499924
C25	C	0.195284	0.736468	-0.000076
C26	C	0.695284	1.236468	0.499924
C27	C	0.193633	0.643171	-0.000090
C28	C	0.693633	1.143171	0.499910
C29	C	0.116542	0.607187	-0.000098
C30	C	0.616542	1.107187	0.499902
C31	C	0.041097	0.664505	-0.000100
C32	C	0.541097	1.164505	0.499900
C33	C	0.042748	0.757801	-0.000093
C34	C	0.542748	1.257801	0.499907
C35	C	0.037660	0.470047	-0.000113
C36	C	0.537660	0.970047	0.499887
C37	C	0.036008	0.376745	-0.000119
C38	C	0.536008	0.876745	0.499881
C39	C	0.188545	0.355417	-0.000111
C40	C	0.688545	0.855417	0.499889
C41	C	0.190197	0.448712	-0.000104
C42	C	0.690197	0.948712	0.499896
C43	C	0.114751	0.506025	-0.000104
C44	C	0.614751	1.006025	0.499896
C45	C	-0.037430	1.063137	-0.000101
C46	C	0.462570	1.563137	0.499899
C47	C	-0.130382	1.061372	-0.000096
C48	C	0.369618	1.561372	0.499904
C49	C	-0.468136	1.055035	-0.000098
C50	C	0.031864	1.555035	0.499902
C51	C	-0.420800	0.957234	0.000266
C52	C	0.079200	1.457234	0.500266
C53	C	-0.324108	0.958999	-0.000091
C54	C	0.175892	1.458999	0.499909
C55	C	-0.300572	1.058178	-0.000097
C56	C	0.199428	1.558178	0.499903
C57	C	-0.341606	1.106408	-0.090509
C58	C	0.158394	1.606408	0.409491
C59	C	-0.438244	1.103951	-0.090584
C60	C	0.061756	1.603951	0.409416
C61	C	-0.438591	1.105990	0.089456
C62	C	0.061409	1.605990	0.589456
C63	C	-0.341646	1.105967	0.090651
C64	C	0.158354	1.605967	0.590651
C65	C	-0.205873	1.059960	-0.000099
C66	C	0.294127	1.559960	0.499901
C67	C	-0.562835	1.053256	-0.000103
C68	C	-0.062835	1.553256	0.499897
C69	C	0.268722	1.050077	-0.000100
C70	C	0.768722	1.550077	0.499900
C71	C	0.361674	1.051841	-0.000099
C72	C	0.861674	1.551841	0.499901
C73	C	0.109697	1.220138	-0.000116
C74	C	0.609697	1.720138	0.499884
C75	C	0.111448	1.319433	-0.000119
C76	C	0.611448	1.819433	0.499881
N77	N	0.115634	1.056587	-0.246760
N78	N	0.615634	1.556587	0.253240
C79	C	0.058795	1.117414	-0.296584
C80	C	0.558795	1.617414	0.203416
C81	C	0.058795	1.117421	-0.396242
C82	C	0.558795	1.617421	0.103758
C83	C	0.115637	1.056603	-0.446073
C84	C	0.615637	1.556603	0.053927
C85	C	0.172478	0.995769	-0.396242
C86	C	0.672478	1.495769	0.103758
C87	C	0.172474	0.995760	-0.296586
C88	C	0.672474	1.495760	0.203414
C89	C	0.172484	0.995795	-0.603956
C90	C	0.672484	1.495795	-0.103956
C91	C	0.172490	0.995806	-0.703619
C92	C	0.672490	1.495806	-0.203619
C93	C	0.058805	1.117456	-0.703612
C94	C	0.558805	1.617456	-0.203612
C95	C	0.058801	1.117446	-0.603956
C96	C	0.558801	1.617446	-0.103956
C97	C	0.115643	1.056614	-0.554132
C98	C	0.615643	1.556614	-0.054132
N99	N	0.115652	1.056633	0.246557
N100	N	0.615652	1.556633	0.746557
H101	H	-0.021672	0.635200	-0.000119
H102	H	0.478328	1.135200	0.499881
H103	H	0.012511	1.166943	-0.256018
H104	H	0.512511	1.666943	0.243982
F105	F	-0.037545	0.818797	-0.000096
F106	F	0.462455	1.318797	0.499904
H107	H	0.255064	0.596511	-0.000090
H108	H	0.755064	1.096511	0.499910
F109	F	-0.323049	1.201647	-0.094913
F110	F	0.176951	1.701647	0.405087
F111	F	-0.321468	1.200502	0.097787
F112	F	0.178532	1.700502	0.597787
F113	F	0.232981	0.931046	-0.550934
F114	F	0.732981	1.431046	-0.050934
H115	H	-0.295721	0.921086	0.064720
H116	H	0.204279	1.421086	0.564720
H117	H	-0.470280	1.178098	0.090060
H118	H	0.029720	1.678098	0.590060
H119	H	-0.440436	0.918310	-0.064202
H120	H	0.059564	1.418310	0.435798
H121	H	-0.026766	0.347450	-0.000126
H122	H	0.473234	0.847450	0.499874
H123	H	0.012522	1.166988	-0.744185
H124	H	0.512522	1.666988	-0.244185
H125	H	0.258060	0.765759	-0.000070
H126	H	0.758060	1.265759	0.499930
H127	H	-0.439368	0.918150	0.065103
H128	H	0.060632	1.418150	0.565103
F129	F	0.272245	0.487007	-0.000086
F130	F	0.772245	0.987007	0.499914
F131	F	-0.305683	1.060232	0.178087
F132	F	0.194317	1.560232	0.678087
H133	H	0.012513	1.166950	-0.436809
H134	H	0.512513	1.666950	0.063191
F135	F	0.268841	0.294420	-0.000112
F136	F	0.768841	0.794420	0.499888
H137	H	0.012520	1.166973	-0.563384
H138	H	0.512520	1.666973	-0.063384
F139	F	-0.042639	0.531041	-0.000117
F140	F	0.457361	1.031041	0.499883
F141	F	0.232988	0.931074	-0.756646
F142	F	0.732988	1.431074	-0.256646
F143	F	0.232971	0.931038	-0.449277
F144	F	0.732971	1.431038	0.050723
F145	F	-0.287736	0.909091	-0.084937
F146	F	0.212264	1.409091	0.415063
H147	H	-0.456584	1.068768	-0.158165
H148	H	0.043416	1.568768	0.341835
F149	F	0.232967	0.931016	-0.243561
F150	F	0.732967	1.431016	0.256439
F151	F	-0.480303	1.197801	-0.095961
F152	F	0.019697	1.697801	0.404039
H153	H	-0.313261	1.072896	-0.157786
H154	H	0.186739	1.572896	0.342214
F155	F	-0.465466	1.064199	0.179027
F156	F	0.034534	1.564199	0.679027
