data_functionalizedCrystal
_audit_creation_method	'MofGen! by Chris Wilmer'
_symmetry_space_group_name_H-M	'P1'
_symmetry_Int_Tables_number	1
_symmetry_cell_setting	triclinic
loop_
_symmetry_equiv_pos_as_xyz
  x,y,z
_cell_length_a	19.288864
_cell_length_b	8.559649
_cell_length_c	17.766277
_cell_angle_alpha	89.994756
_cell_angle_beta	89.976791
_cell_angle_gamma	76.457456
loop_
_atom_site_label
_atom_site_type_symbol
_atom_site_fract_x
_atom_site_fract_y
_atom_site_fract_z
O1	O	0.910987	0.199405	-0.062829
O2	O	0.707328	0.226304	-0.062777
O3	O	0.827100	-0.019877	-0.062807
O4	O	0.791215	0.445585	-0.062799
O5	O	0.827082	-0.019889	0.062381
O6	O	0.707310	0.226291	0.062411
O7	O	0.910969	0.199392	0.062359
Cu8	Cu	0.809138	0.212841	0.073816
Cu9	Cu	0.809160	0.212855	-0.074234
O10	O	0.791197	0.445573	0.062389
C11	C	0.681488	0.225432	-0.000176
C12	C	0.604519	0.222834	-0.000157
C13	C	0.552314	0.367282	-0.000166
C14	C	0.479994	0.364841	-0.000174
C15	C	0.459883	0.217944	-0.000188
C16	C	0.512099	0.073477	-0.000175
C17	C	0.584417	0.075922	-0.000159
C18	C	0.357630	0.102471	-0.044075
C19	C	0.285312	0.100032	-0.044095
C20	C	0.236829	0.210396	-0.000234
C21	C	0.260670	0.323227	0.043638
C22	C	0.332989	0.325672	0.043654
C23	C	0.381467	0.215276	-0.000205
C24	C	0.106205	0.352207	-0.000251
C25	C	0.033884	0.349760	-0.000255
C26	C	0.065991	0.058393	-0.000263
C27	C	0.138310	0.060844	-0.000252
C28	C	0.158412	0.207756	-0.000250
C29	C	0.829811	-0.079432	-0.000215
C30	C	0.837906	-0.256871	-0.000221
C31	C	0.936810	0.200264	-0.000243
C32	C	1.013778	0.202862	-0.000268
C33	C	0.788487	0.505129	-0.000205
C34	C	0.780392	0.682567	-0.000203
N35	N	0.809128	0.212829	0.177946
N36	N	0.809176	0.212854	-0.178364
C37	C	0.862176	0.103874	0.217320
C38	C	0.862180	0.103866	0.296122
C39	C	0.809142	0.212842	0.335547
C40	C	0.756085	0.321806	0.296164
C41	C	0.756078	0.321800	0.217364
C42	C	0.792272	0.358486	0.460389
C43	C	0.792284	0.358494	0.539188
C44	C	0.809160	0.212861	0.578593
C45	C	0.826039	0.067213	0.539190
C46	C	0.826032	0.067207	0.460390
C47	C	0.809144	0.212860	0.420993
C48	C	0.862215	0.103889	0.703413
C49	C	0.862215	0.103879	0.782216
C50	C	0.756123	0.321833	0.782257
C51	C	0.756120	0.321828	0.703455
C52	C	0.809170	0.212858	0.664038
H53	H	0.724959	-0.233537	-0.000187
C54	C	0.912798	-0.370199	-0.000236
H55	H	0.947793	-0.308411	-0.000243
H56	H	0.918411	-0.436051	-0.043889
H57	H	0.918395	-0.436035	0.043428
C58	C	0.697732	0.441669	0.174047
H59	H	0.705324	0.426056	0.121471
H60	H	0.699586	0.548306	0.186957
H61	H	0.652287	0.424577	0.186982
H62	H	0.905371	0.015140	0.185229
C63	C	0.697774	0.441698	0.660142
H64	H	0.666190	0.506610	0.694906
H65	H	0.671918	0.384369	0.629418
H66	H	0.719219	0.508095	0.629388
H67	H	0.905410	0.015153	0.671318
H68	H	0.905379	0.015138	0.328186
C69	C	0.128322	0.513800	-0.000241
H70	H	0.086869	0.599481	-0.000237
H71	H	0.155888	0.520816	-0.043893
H72	H	0.155844	0.520803	0.043425
H73	H	0.839773	-0.051384	0.428312
H74	H	0.839780	-0.051375	0.571273
H75	H	0.905411	0.015146	0.814275
C76	C	0.410958	-0.018938	-0.092322
H77	H	0.457444	-0.001335	-0.086024
H78	H	0.397588	-0.005287	-0.143791
H79	H	0.410750	-0.125101	-0.076901
C80	C	0.697782	0.441704	0.825615
H81	H	0.705384	0.426110	0.878185
H82	H	0.652338	0.424617	0.812726
H83	H	0.699637	0.548347	0.812692
C84	C	0.773719	0.518693	0.582527
H85	H	0.776149	0.497842	0.635101
H86	H	0.726856	0.575940	0.569636
H87	H	0.806712	0.581121	0.569588
H88	H	0.712900	0.410533	0.328268
C89	C	0.574424	0.528877	-0.000150
H90	H	0.532970	0.614556	-0.000149
H91	H	0.601995	0.535902	-0.043796
H92	H	0.601940	0.535877	0.043521
C93	C	0.422559	0.523739	-0.000196
H94	H	0.444890	0.611582	-0.000199
H95	H	0.393650	0.528855	0.043449
H96	H	0.393713	0.528818	-0.043868
H97	H	0.778518	0.477086	0.428311
H98	H	0.352397	0.417538	0.079378
H99	H	0.265907	0.008165	-0.079821
H100	H	-0.008622	0.467392	-0.000259
C101	C	0.207348	0.444643	0.091883
H102	H	0.160864	0.427024	0.085597
H103	H	0.207556	0.550798	0.076463
H104	H	0.220720	0.430992	0.143356
C105	C	0.195741	-0.098046	-0.000252
H106	H	0.241691	-0.075552	-0.000236
H107	H	0.190507	-0.158299	-0.043912
H108	H	0.190461	-0.158307	0.043405
H109	H	0.495719	-0.046127	-0.000196
C110	C	0.043877	-0.103191	-0.000283
H111	H	-0.006670	-0.083962	-0.000299
H112	H	0.062301	-0.162662	0.043371
H113	H	0.062348	-0.162631	-0.043946
H114	H	0.626924	-0.041708	-0.000151
