data_functionalizedCrystal
_audit_creation_method	'MofGen! by Chris Wilmer'
_symmetry_space_group_name_H-M	'P1'
_symmetry_Int_Tables_number	1
_symmetry_cell_setting	triclinic
loop_
_symmetry_equiv_pos_as_xyz
  x,y,z
_cell_length_a	17.699083
_cell_length_b	13.185408
_cell_length_c	16.176319
_cell_angle_alpha	89.991281
_cell_angle_beta	90.000958
_cell_angle_gamma	112.371743
loop_
_atom_site_label
_atom_site_type_symbol
_atom_site_fract_x
_atom_site_fract_y
_atom_site_fract_z
O1	O	-0.976149	0.137981	-0.068627
O2	O	-0.752137	0.155933	-0.068656
O3	O	-0.902523	-0.011893	-0.068630
O4	O	-0.825764	0.305808	-0.068652
O5	O	-0.902509	-0.011904	0.068863
O6	O	-0.752124	0.155922	0.068837
O7	O	-0.976136	0.137971	0.068867
Cu8	Cu	-0.864128	0.146946	0.081406
Cu9	Cu	-0.864145	0.146958	-0.081196
O10	O	-0.825750	0.305797	0.068841
C11	C	-0.724064	0.155285	0.000087
C12	C	-0.640436	0.153355	0.000076
C13	C	-0.910298	-0.052548	0.000117
C14	C	-0.933476	-0.173669	0.000120
C15	C	-0.571875	0.251865	0.000069
C16	C	-0.493300	0.250045	0.000079
C17	C	-0.483288	0.149714	0.000091
C18	C	-0.551857	0.051196	0.000100
C19	C	-0.630430	0.053017	0.000096
C20	C	-0.234980	0.043851	0.000118
C21	C	-0.156399	0.042038	0.000120
C22	C	-0.097851	0.240879	0.000102
C23	C	-0.176424	0.242700	0.000098
C24	C	-0.244986	0.144183	0.000111
C25	C	-0.330185	0.146157	0.000102
C26	C	-0.398090	0.147739	0.000094
C27	C	-1.016002	-0.243758	0.000132
C28	C	-1.037782	-0.357558	0.000128
C29	C	-0.977038	-0.401281	0.000117
C30	C	-0.894510	-0.331192	0.000110
C31	C	-0.872728	-0.217381	0.000108
C32	C	-0.833763	-0.374904	0.000093
C33	C	-0.751235	-0.304815	0.000086
C34	C	-0.729458	-0.191015	0.000085
C35	C	-0.790202	-0.147292	0.000096
C36	C	-0.855545	-0.488715	0.000095
C37	C	-0.712271	-0.462338	0.000071
C38	C	-0.690491	-0.348538	0.000076
C39	C	-0.004209	0.138619	0.000120
C40	C	-0.087837	0.140549	0.000119
C41	C	-0.817975	0.346451	0.000092
C42	C	-0.794797	0.467573	0.000084
N43	N	-0.864122	0.146936	0.195771
N44	N	-0.864158	0.146959	-0.195561
C45	C	-0.930723	0.072653	0.239047
C46	C	-0.930727	0.072652	0.325594
C47	C	-0.864132	0.146940	0.368864
C48	C	-0.797526	0.221226	0.325582
C49	C	-0.797520	0.221222	0.239037
C50	C	-0.797548	0.221247	0.674611
C51	C	-0.797560	0.221248	0.761162
C52	C	-0.930754	0.072677	0.761168
C53	C	-0.930748	0.072672	0.674622
C54	C	-0.864141	0.146955	0.631348
C55	C	-0.864136	0.146954	0.537504
C56	C	-0.864138	0.146947	0.462707
H57	H	-0.580018	0.333567	0.000059
O58	O	-0.426788	0.345839	0.000035
C59	C	-0.452474	0.434784	0.000040
H60	H	-0.517065	0.406933	-0.025994
H61	H	-0.409293	0.503795	-0.039883
H62	H	-0.451835	0.465546	0.065998
O63	O	-0.697008	-0.042704	-0.000048
C64	C	-0.695607	-0.103642	-0.071241
H65	H	-0.656874	-0.045967	-0.121016
H66	H	-0.760559	-0.147540	-0.095142
H67	H	-0.668256	-0.166695	-0.055135
H68	H	-0.042017	0.321097	0.000095
O69	O	-0.732813	0.293263	0.632540
C70	C	-0.698011	0.234924	0.582474
H71	H	-0.714254	0.148878	0.608567
H72	H	-0.628765	0.279563	0.581489
H73	H	-0.722870	0.229155	0.516882
H74	H	-0.743301	0.281710	0.360818
H75	H	-0.623296	-0.291456	0.000070
H76	H	-0.543699	-0.030495	0.000121
O77	O	-1.075104	-0.201467	0.000098
C78	C	-1.152616	-0.287727	0.000128
H79	H	-1.147147	-0.364988	-0.025896
H80	H	-1.196423	-0.264059	-0.039791
H81	H	-1.176958	-0.303885	0.066092
O82	O	-0.995488	0.000403	0.632719
C83	C	-1.054282	-0.065147	0.689475
H84	H	-1.023499	-0.066320	0.751173
H85	H	-1.083580	-0.152307	0.664481
H86	H	-1.103309	-0.029821	0.698665
H87	H	-0.290796	-0.036368	0.000130
H88	H	-0.922740	-0.545771	0.000099
H89	H	-0.662807	-0.497936	0.000061
O90	O	-0.995464	0.000383	0.197146
C91	C	-1.054255	-0.065163	0.253906
H92	H	-1.023468	-0.066335	0.315602
H93	H	-1.083556	-0.152324	0.228914
H94	H	-1.103280	-0.029836	0.263099
H95	H	-0.994776	-0.493943	0.000113
O96	O	-1.117932	-0.425679	-0.000012
C97	C	-1.134819	-0.492300	-0.071212
H98	H	-1.087606	-0.450513	-0.120987
H99	H	-1.198424	-0.505242	-0.095107
H100	H	-1.132084	-0.575014	-0.055117
O101	O	-0.769153	-0.036763	0.000214
C102	C	-0.801152	-0.006007	0.071446
H103	H	-0.855522	-0.079307	0.095189
H104	H	-0.821812	0.063642	0.055446
H105	H	-0.751998	0.022515	0.121300
O106	O	-0.995345	0.000388	0.367664
C107	C	-0.968525	-0.066848	0.417755
H108	H	-0.909192	-0.068591	0.391686
H109	H	-1.017089	-0.153627	0.418739
H110	H	-0.957609	-0.032697	0.483344
O111	O	-0.146819	-0.055526	0.000173
C112	C	-0.224181	-0.142091	0.000165
H113	H	-0.271611	-0.111652	0.026191
H114	H	-0.221949	-0.212148	0.040093
H115	H	-0.241540	-0.172472	-0.065793
O116	O	-0.649320	-0.122817	0.000181
C117	C	-0.632421	-0.056225	0.071396
H118	H	-0.691352	-0.050632	0.095149
H119	H	-0.586792	0.029387	0.055372
H120	H	-0.605454	-0.093580	0.121254
H121	H	-0.984989	0.012189	0.796411
O122	O	-0.732781	0.293450	0.803068
C123	C	-0.673997	0.359029	0.746316
H124	H	-0.682250	0.314296	0.684629
H125	H	-0.610149	0.375772	0.771332
H126	H	-0.682055	0.440047	0.737096
O127	O	-0.732871	0.293533	0.197033
C128	C	-0.723160	0.401526	0.218176
H129	H	-0.783668	0.401954	0.241959
H130	H	-0.703290	0.456297	0.161252
H131	H	-0.674670	0.433652	0.268412
O132	O	-0.186294	0.340066	0.000040
C133	C	-0.270347	0.320549	0.000053
H134	H	-0.306237	0.235348	-0.025963
H135	H	-0.281510	0.384731	-0.039881
H136	H	-0.291262	0.325785	0.066011
