data_functionalizedCrystal
_audit_creation_method	'MofGen! by Chris Wilmer'
_symmetry_space_group_name_H-M	'P1'
_symmetry_Int_Tables_number	1
_symmetry_cell_setting	triclinic
loop_
_symmetry_equiv_pos_as_xyz
  x,y,z
_cell_length_a	17.640112
_cell_length_b	12.759400
_cell_length_c	12.759393
_cell_angle_alpha	90.025008
_cell_angle_beta	78.824614
_cell_angle_gamma	101.226899
loop_
_atom_site_label
_atom_site_type_symbol
_atom_site_fract_x
_atom_site_fract_y
_atom_site_fract_z
Zn1	Zn	1.208363	-0.093188	0.269873
Zn2	Zn	1.708363	0.406812	0.769873
Zn3	Zn	1.208309	-0.268921	0.094228
Zn4	Zn	1.708309	0.231079	0.594228
Zn5	Zn	1.076194	-0.128792	0.129668
Zn6	Zn	1.576194	0.371208	0.629668
Zn7	Zn	1.076212	-0.304370	0.305306
Zn8	Zn	1.576212	0.195630	0.805306
O9	O	1.142269	-0.198818	0.199769
O10	O	1.642269	0.301182	0.699769
O11	O	1.318952	-0.086763	0.216913
O12	O	1.818952	0.413237	0.716913
O13	O	1.190754	-0.250398	-0.048084
O14	O	1.690754	0.249602	0.451916
O15	O	1.093742	0.022956	0.148270
O16	O	1.593742	0.522956	0.648270
O17	O	1.318912	-0.215874	0.087867
O18	O	1.818912	0.284126	0.587867
O19	O	1.190845	0.049114	0.251278
O20	O	1.690845	0.549114	0.751278
O21	O	1.093690	-0.147445	-0.022046
O22	O	1.593690	0.352555	0.477954
O23	O	0.965600	-0.181819	0.182627
O24	O	1.465600	0.318181	0.682627
O25	O	1.093771	-0.276291	0.447619
O26	O	1.593771	0.223709	0.947619
O27	O	0.965613	-0.310815	0.311668
O28	O	1.465613	0.189185	0.811668
O29	O	1.190862	-0.121137	0.421587
O30	O	1.690862	0.378863	0.921587
O31	O	1.190771	-0.420649	0.122225
O32	O	1.690771	0.079351	0.622225
O33	O	1.093720	-0.446693	0.277303
O34	O	1.593720	0.053307	0.777303
C35	C	0.936930	-0.254028	0.254839
C36	C	1.436930	0.245972	0.754839
C37	C	0.849086	-0.277673	0.278423
C38	C	1.349086	0.222327	0.778423
C39	C	1.142263	-0.471787	0.199780
C40	C	1.642263	0.028213	0.699780
C41	C	1.142332	-0.588545	0.199801
C42	C	1.642332	-0.088545	0.699801
C43	C	1.142325	-0.198697	0.473787
C44	C	1.642325	0.301303	0.973787
C45	C	1.142348	-0.198645	0.590558
C46	C	1.642348	0.301355	1.090558
C47	C	0.560032	-0.019174	0.020611
C48	C	1.060032	0.480826	0.520611
C49	C	0.477488	-0.041413	0.042786
C50	C	0.977488	0.458587	0.542786
C51	C	0.477556	-0.175922	0.176924
C52	C	0.977556	0.324078	0.676924
C53	C	0.560101	-0.153691	0.154764
C54	C	1.060101	0.346309	0.654764
C55	C	0.601333	-0.075317	0.076605
C56	C	1.101333	0.424683	0.576605
C57	C	0.601402	-0.209834	0.210758
C58	C	1.101402	0.290166	0.710758
C59	C	0.683940	-0.187608	0.188596
C60	C	1.183940	0.312392	0.688596
C61	C	0.725177	-0.109239	0.110439
C62	C	1.225177	0.390761	0.610439
C63	C	0.683871	-0.053091	0.054443
C64	C	1.183871	0.446909	0.554443
C65	C	0.560169	-0.288213	0.288911
C66	C	1.060169	0.211787	0.788911
C67	C	0.601470	-0.344355	0.344906
C68	C	1.101470	0.155645	0.844906
C69	C	0.684009	-0.322124	0.322749
C70	C	1.184009	0.177876	0.822749
C71	C	0.725247	-0.243756	0.244591
C72	C	1.225247	0.256244	0.744591
C73	C	0.725316	-0.378273	0.378744
C74	C	1.225316	0.121727	0.878744
C75	C	0.807854	-0.356047	0.356582
C76	C	1.307854	0.143953	0.856582
C77	C	0.807785	-0.221530	0.222429
C78	C	1.307785	0.278470	0.722429
C79	C	1.348410	-0.143393	0.144484
C80	C	1.848410	0.356607	0.644484
C81	C	1.436255	-0.119774	0.120925
C82	C	1.936255	0.380226	0.620925
C83	C	1.142298	0.075223	0.199775
C84	C	1.642298	0.575223	0.699775
C85	C	1.142310	0.192003	0.199777
C86	C	1.642310	0.692003	0.699777
C87	C	1.091761	0.233250	0.146150
C88	C	1.591761	0.733250	0.646150
C89	C	1.091770	0.342976	0.146164
C90	C	1.591770	0.842976	0.646164
C91	C	1.192883	0.370202	0.253435
C92	C	1.692883	0.870202	0.753435
C93	C	1.192869	0.260476	0.253426
C94	C	1.692869	0.760476	0.753426
C95	C	1.142260	-0.198850	-0.073196
C96	C	1.642260	0.301150	0.426804
C97	C	1.142389	-0.198565	-0.190007
C98	C	1.642389	0.301435	0.309993
C99	C	1.091825	-0.145021	0.658972
C100	C	1.591825	0.354979	1.158972
C101	C	1.091843	-0.144983	0.768692
C102	C	1.591843	0.355017	1.268692
C103	C	1.192915	-0.252196	0.741570
C104	C	1.692915	0.247804	1.241570
C105	C	1.192892	-0.252239	0.631854
C106	C	1.692892	0.247761	1.131854
H107	H	0.841358	-0.157694	0.158800
H108	H	1.341358	0.342306	0.658800
F109	F	0.433666	-0.259342	0.260093
F110	F	0.933666	0.240658	0.760093
H111	H	1.050608	0.376555	0.102498
H112	H	1.550608	0.876555	0.602498
F113	F	0.603918	0.064248	-0.062568
F114	F	1.103918	0.564248	0.437432
F115	F	1.246666	-0.309321	0.559038
F116	F	1.746666	0.190679	1.059038
F117	F	1.246667	0.216575	0.310515
F118	F	1.746667	0.716575	0.810515
F119	F	1.246705	-0.309229	0.785530
F120	F	1.746705	0.190771	1.285530
H121	H	1.234048	0.425963	0.297113
H122	H	1.734048	0.925963	0.797113
H123	H	1.050702	-0.101318	0.824391
H124	H	1.550702	0.398682	1.324391
F125	F	0.813023	-0.085589	0.086846
F126	F	1.313023	0.414411	0.586846
H127	H	1.050669	-0.101381	0.625353
H128	H	1.550669	0.398619	1.125353
F129	F	0.557580	-0.427775	0.428074
F130	F	1.057580	0.072225	0.928074
F131	F	0.727757	0.030331	-0.028736
F132	F	1.227757	0.530331	0.471264
H133	H	0.492961	-0.306306	0.306953
H134	H	0.992961	0.193694	0.806953
F135	F	0.433536	0.018342	-0.016823
F136	F	0.933536	0.518342	0.483177
H137	H	0.691733	-0.442092	0.442373
H138	H	1.191733	0.057908	0.942373
H139	H	1.050591	0.177501	0.102468
H140	H	1.550591	0.677501	0.602468
F141	F	0.851812	-0.415802	0.416175
F142	F	1.351812	0.084198	0.916175
