data_functionalizedCrystal
_audit_creation_method	'MofGen! by Chris Wilmer'
_symmetry_space_group_name_H-M	'P1'
_symmetry_Int_Tables_number	1
_symmetry_cell_setting	triclinic
loop_
_symmetry_equiv_pos_as_xyz
  x,y,z
_cell_length_a	12.759401
_cell_length_b	12.594516
_cell_length_c	12.759393
_cell_angle_alpha	89.970876
_cell_angle_beta	89.980596
_cell_angle_gamma	90.015974
loop_
_atom_site_label
_atom_site_type_symbol
_atom_site_fract_x
_atom_site_fract_y
_atom_site_fract_z
Zn1	Zn	1.606246	-0.423682	-0.594025
Zn2	Zn	1.606136	-0.601701	-0.418352
Zn3	Zn	1.430547	-0.423737	-0.418361
Zn4	Zn	1.430532	-0.601618	-0.593991
O5	O	1.518365	-0.512684	-0.506182
O6	O	1.753252	-0.447308	-0.570732
O7	O	1.582804	-0.578151	-0.271332
O8	O	1.453907	-0.274783	-0.441681
O9	O	1.753171	-0.578098	-0.441666
O10	O	1.582991	-0.274743	-0.570740
O11	O	1.453800	-0.447401	-0.271339
O12	O	1.283524	-0.447321	-0.441649
O13	O	1.453880	-0.577957	-0.741016
O14	O	1.283513	-0.578010	-0.570683
O15	O	1.582976	-0.447228	-0.741041
O16	O	1.582789	-0.750636	-0.441633
O17	O	1.453774	-0.750575	-0.570674
C18	C	1.245398	-0.512664	-0.506164
C19	C	1.128621	-0.512680	-0.506181
C20	C	0.964009	-0.444561	-0.439124
C21	C	1.073733	-0.444541	-0.439112
C22	C	1.073779	-0.580837	-0.573274
C23	C	0.964057	-0.580851	-0.573291
C24	C	0.963984	-0.365875	-0.361663
C25	C	1.073708	-0.365854	-0.361651
C26	C	1.518296	-0.789225	-0.506172
C27	C	1.518363	-0.907531	-0.506203
C28	C	1.448185	-0.976789	-0.576339
C29	C	1.422585	-1.047660	-0.480472
C30	C	1.544058	-1.047459	-0.602086
C31	C	1.492713	-0.976843	-0.410285
C32	C	1.614230	-0.976636	-0.531964
C33	C	1.588667	-1.047474	-0.436031
C34	C	1.792398	-0.512706	-0.506202
C35	C	1.909175	-0.512715	-0.506210
C36	C	1.518439	-0.512577	-0.780216
C37	C	1.518470	-0.512531	-0.896992
C38	C	1.518463	-0.235063	-0.506216
C39	C	1.518505	-0.116758	-0.506230
C40	C	1.585700	-0.444454	-0.951869
C41	C	1.585725	-0.444415	-1.061593
C42	C	1.451288	-0.580541	-1.061554
C43	C	1.451258	-0.580573	-0.951832
C44	C	1.663319	-0.365866	-0.951892
C45	C	1.663344	-0.365828	-1.061617
C46	C	1.518352	-0.512714	-0.233215
C47	C	1.518525	-0.512460	-0.116439
H48	H	0.929909	-0.395318	-0.284327
F49	F	1.118226	-0.263540	-0.399909
H50	H	0.934231	-0.283468	-0.383592
H51	H	1.118477	-0.636310	-0.627890
H52	H	1.341578	-1.078880	-0.458705
F53	F	1.769701	-0.394673	-1.100547
H54	H	1.740590	-0.395417	-0.917859
H55	H	1.565734	-1.078479	-0.683163
F56	F	0.905702	-0.653377	-0.644704
F57	F	1.625175	-0.263504	-1.106120
F58	F	1.112581	-0.394590	-0.255246
H59	H	1.470943	-0.945951	-0.329186
F60	F	1.370478	-0.936219	-0.653752
H61	H	1.648075	-1.078315	-0.376662
H62	H	1.641552	-0.283437	-0.922133
F63	F	1.379689	-0.653015	-0.893432
F64	F	1.720089	-0.935830	-0.560474
H65	H	1.396564	-0.635935	-1.106218
