data_functionalizedCrystal
_audit_creation_method	'MofGen! by Chris Wilmer'
_symmetry_space_group_name_H-M	'P1'
_symmetry_Int_Tables_number	1
_symmetry_cell_setting	triclinic
loop_
_symmetry_equiv_pos_as_xyz
  x,y,z
_cell_length_a	27.732048
_cell_length_b	27.732048
_cell_length_c	26.210047
_cell_angle_alpha	90.000479
_cell_angle_beta	89.996535
_cell_angle_gamma	97.357345
loop_
_atom_site_label
_atom_site_type_symbol
_atom_site_fract_x
_atom_site_fract_y
_atom_site_fract_z
O1	O	0.640931	-0.057510	-0.042369
O2	O	0.500138	-0.066256	-0.042385
O3	O	0.574907	0.008514	-0.042367
O4	O	0.566162	-0.132279	-0.042387
O5	O	0.574893	0.008502	0.042491
O6	O	0.500123	-0.066267	0.042473
O7	O	0.640917	-0.057522	0.042489
Cu8	Cu	0.570519	-0.061896	0.050229
Cu9	Cu	0.570536	-0.061882	-0.050125
O10	O	0.566147	-0.132291	0.042471
C11	C	0.482124	-0.066078	0.000042
C12	C	0.428469	-0.065525	0.000036
C13	C	0.089654	-0.106229	0.000053
C14	C	-0.112006	-0.104178	0.000057
O15	O	-0.143262	-0.141398	0.000074
N16	N	-0.131130	-0.059843	0.000063
C17	C	-0.099835	-0.016017	0.000071
O18	O	-0.120728	0.021740	0.000081
C19	C	0.101824	-0.018068	0.000069
C20	C	0.120944	-0.062407	0.000059
C21	C	0.108775	-0.150563	0.000043
C22	C	0.159187	-0.151076	0.000039
C23	C	0.190477	-0.107253	0.000045
C24	C	0.171356	-0.062919	0.000055
C25	C	0.133117	0.025757	0.000081
C26	C	0.183535	0.025240	0.000082
C27	C	0.202655	-0.019098	0.000071
C28	C	0.253059	-0.019609	0.000057
N29	N	0.272183	-0.063944	0.000051
C30	C	0.240892	-0.107766	0.000045
C31	C	-0.205709	-0.014943	0.000070
C32	C	-0.256124	-0.014430	0.000070
C33	C	-0.268291	-0.102591	0.000057
C34	C	-0.217876	-0.103104	0.000054
C35	C	-0.186585	-0.059278	0.000065
C36	C	0.346761	-0.108839	0.000036
C37	C	0.397178	-0.109347	0.000030
C38	C	0.409341	-0.021186	0.000045
C39	C	0.358929	-0.020678	0.000049
C40	C	0.327639	-0.064508	0.000046
O41	O	0.284343	0.017592	0.000046
O42	O	0.261794	-0.145518	0.000047
C43	C	0.039242	-0.105716	0.000057
C44	C	0.020120	-0.061382	0.000067
C45	C	0.051411	-0.017560	0.000073
C46	C	-0.030294	-0.060869	0.000066
C47	C	-0.061585	-0.104691	0.000060
C48	C	-0.042461	-0.149026	0.000054
C49	C	0.007951	-0.149539	0.000050
C50	C	0.032287	0.026775	0.000078
C51	C	-0.018125	0.027284	0.000082
C52	C	-0.049416	-0.016538	0.000076
C53	C	0.574716	0.026515	0.000064
C54	C	0.574164	0.080170	0.000068
C55	C	0.658931	-0.057699	0.000061
C56	C	0.712586	-0.058252	0.000064
C57	C	0.566338	-0.150292	0.000040
C58	C	0.566891	-0.203947	0.000032
N59	N	0.570510	-0.061905	0.120813
C60	C	0.614867	0.418985	0.000046
C61	C	0.612816	0.620645	0.000039
O62	O	0.650037	0.651900	0.000021
N63	N	0.568481	0.639768	0.000034
C64	C	0.524656	0.608474	0.000028
O65	O	0.486899	0.629367	0.000019
C66	C	0.526707	0.406815	0.000032
C67	C	0.571045	0.387694	0.000042
C68	C	0.659202	0.399864	0.000056
C69	C	0.659714	0.349452	0.000060
C70	C	0.615892	0.318161	0.000056
C71	C	0.571557	0.337282	0.000046
C72	C	0.482882	0.375521	0.000022
C73	C	0.483399	0.325104	0.000022
C74	C	0.527737	0.305983	0.000032
C75	C	0.528247	0.255580	0.000046
N76	N	0.572583	0.236456	0.000051
C77	C	0.616405	0.267747	0.000056
C78	C	0.523582	0.714348	0.000027
C79	C	0.523069	0.764762	0.000027
C80	C	0.611230	0.776930	0.000037
C81	C	0.611742	0.726514	0.000041
C82	C	0.567917	0.695224	0.000032
C83	C	0.617477	0.161878	0.000066
C84	C	0.617986	0.111461	0.000073
C85	C	0.529825	0.099298	0.000060
C86	C	0.529316	0.149710	0.000056
C87	C	0.573147	0.180999	0.000057
O88	O	0.491047	0.224296	0.000059
O89	O	0.654156	0.246844	0.000054
C90	C	0.614355	0.469397	0.000042
C91	C	0.570021	0.488518	0.000033
C92	C	0.526198	0.457228	0.000028
C93	C	0.569508	0.538933	0.000033
C94	C	0.613330	0.570223	0.000037
C95	C	0.657665	0.551100	0.000042
C96	C	0.658177	0.500688	0.000046
C97	C	0.481863	0.476351	0.000023
C98	C	0.481355	0.526764	0.000019
C99	C	0.525177	0.558054	0.000024
N100	N	0.570548	-0.061868	-0.120709
C101	C	0.603640	-0.028781	0.473336
C102	C	0.603651	-0.028774	0.686994
O103	O	0.631801	-0.000614	0.714623
N104	N	0.570538	-0.061871	0.713707
C105	C	0.537419	-0.094970	0.687003
O106	O	0.509251	-0.123117	0.714626
C107	C	0.537406	-0.094974	0.473345
C108	C	0.570524	-0.061878	0.446635
C109	C	0.636755	0.004312	0.446625
C110	C	0.636754	0.004308	0.393214
C111	C	0.603638	-0.028789	0.366513
C112	C	0.570523	-0.061882	0.393223
C113	C	0.504284	-0.128070	0.446641
C114	C	0.504283	-0.128067	0.393223
C115	C	0.537401	-0.094971	0.366513
C116	C	0.537405	-0.094983	0.313111
N117	N	0.570518	-0.061886	0.286397
C118	C	0.603634	-0.028789	0.313098
C119	C	0.537428	-0.094966	0.799176
C120	C	0.537432	-0.094965	0.852590
C121	C	0.603664	-0.028769	0.852578
C122	C	0.603662	-0.028773	0.799163
C123	C	0.570541	-0.061869	0.772463
C124	C	0.603629	-0.028800	0.200931
C125	C	0.603626	-0.028808	0.147514
C126	C	0.537393	-0.095002	0.147531
C127	C	0.537397	-0.094996	0.200943
C128	C	0.570517	-0.061891	0.227641
O129	O	0.509267	-0.123125	0.285449
O130	O	0.631790	-0.000639	0.285466
C131	C	0.603641	-0.028777	0.526747
C132	C	0.570527	-0.061871	0.553457
C133	C	0.537410	-0.094968	0.526756
C134	C	0.570530	-0.061870	0.606872
C135	C	0.603646	-0.028773	0.633573
C136	C	0.636759	0.004323	0.606859
C137	C	0.636758	0.004320	0.553448
C138	C	0.504298	-0.128064	0.553470
C139	C	0.504302	-0.128058	0.606881
C140	C	0.537418	-0.094961	0.633582
H141	H	0.343360	0.015426	0.000050
H142	H	0.630629	-0.001821	0.874327
H143	H	0.446777	0.391080	0.000011
H144	H	0.694282	0.485125	0.000054
H145	H	-0.271687	0.021674	0.000070
H146	H	0.510469	-0.121920	0.874334
C147	C	0.312738	-0.156389	-0.000050
C148	C	0.283433	-0.158659	-0.043701
C149	C	0.252082	-0.202451	-0.043799
H150	H	0.331291	-0.182903	-0.000084
H151	H	0.292788	-0.158035	0.029526
H152	H	0.303381	-0.157017	-0.073270
H153	H	0.264870	-0.132155	-0.043676
H154	H	0.232131	-0.204098	-0.014222
H155	H	0.270639	-0.228962	-0.043832
H156	H	0.232192	-0.203996	-0.073413
H157	H	0.663725	0.031269	0.531704
C158	C	0.501446	-0.130960	0.770284
C159	C	0.472462	-0.159949	0.805117
C160	C	0.439316	-0.193118	0.778523
H161	H	0.481404	-0.113771	0.749447
H162	H	0.518668	-0.150991	0.749456
H163	H	0.455241	-0.139920	0.825935
H164	H	0.492491	-0.177149	0.825954
H165	H	0.456538	-0.213149	0.757695
H166	H	0.419278	-0.175925	0.757687
H167	H	0.419650	-0.212794	0.802153
H168	H	0.653168	0.187348	0.000065
H169	H	0.647846	0.710950	0.000048
C170	C	0.112298	0.073860	0.000174
C171	C	0.083700	0.076719	0.043827
C172	C	0.064509	0.121025	0.043928
H173	H	0.138109	0.099924	0.000206
H174	H	0.092859	0.075907	-0.029401
H175	H	0.103138	0.074677	0.073395
H176	H	0.057881	0.050666	0.043804
H177	H	0.045070	0.123072	0.014352
H178	H	0.090323	0.147085	0.043959
H179	H	0.045099	0.122968	0.073543
C180	C	-0.171716	0.032627	0.000180
C181	C	-0.142428	0.034917	0.043844
C182	C	-0.111114	0.078734	0.043962
H183	H	-0.151749	0.034311	-0.029377
H184	H	-0.190313	0.059116	0.000209
H185	H	-0.123833	0.008435	0.043810
H186	H	-0.162382	0.033242	0.073408
H187	H	-0.129711	0.105222	0.043991
H188	H	-0.091151	0.080413	0.014403
H189	H	-0.091242	0.080295	0.073590
H190	H	0.477317	-0.155019	0.468381
H191	H	0.477311	-0.155018	0.371487
H192	H	0.630629	-0.001823	0.777418
H193	H	0.663725	0.031271	0.628608
C194	C	0.482233	0.065343	0.000156
C195	C	0.455504	0.073922	0.043813
C196	C	0.411663	0.042647	0.043917
H197	H	0.463988	0.071076	-0.029406
H198	H	0.488870	0.032573	0.000185
H199	H	0.448866	0.106684	0.043779
H200	H	0.473735	0.068186	0.073382
H201	H	0.418300	0.009877	0.043945
H202	H	0.393422	0.048382	0.014353
H203	H	0.393524	0.048460	0.073539
H204	H	0.434827	0.014492	0.000048
H205	H	0.654093	0.095896	0.000082
H206	H	0.209009	0.060929	0.000091
H207	H	0.693347	0.576585	0.000048
H208	H	0.663720	0.031259	0.371469
H209	H	-0.293777	-0.138273	0.000053
H210	H	0.663722	0.031266	0.468360
H211	H	0.630597	-0.001858	0.125768
C212	C	0.501386	-0.130948	0.229854
C213	C	0.472377	-0.159926	0.195034
C214	C	0.439188	-0.193042	0.221644
H215	H	0.518560	-0.150998	0.250697
H216	H	0.481370	-0.113703	0.250675
H217	H	0.492391	-0.177170	0.174222
H218	H	0.455192	-0.139890	0.174190
H219	H	0.419172	-0.175797	0.242465
H220	H	0.456366	-0.213088	0.242487
H221	H	0.419499	-0.212704	0.198024
H222	H	0.023514	-0.185643	0.000042
H223	H	0.174750	-0.187180	0.000030
H224	H	-0.067947	-0.184708	0.000047
H225	H	0.445246	0.542327	0.000016
H226	H	-0.033688	0.063392	0.000086
H227	H	0.447710	0.299629	0.000014
H228	H	0.694889	0.425336	0.000058
H229	H	0.486964	0.780325	0.000028
C230	C	0.074783	-0.198131	0.000136
C231	C	0.045485	-0.200436	0.043797
C232	C	0.014174	-0.244254	0.043899
H233	H	0.054822	-0.199807	-0.029423
H234	H	0.093381	-0.224619	0.000158
H235	H	0.026889	-0.173956	0.043771
H236	H	0.065433	-0.198769	0.073364
H237	H	0.032772	-0.270742	0.043920
H238	H	-0.005784	-0.245926	0.014338
H239	H	-0.005705	-0.245826	0.073525
H240	H	0.646911	0.802415	0.000041
H241	H	0.510432	-0.121951	0.125783
H242	H	0.477334	-0.155013	0.628625
H243	H	0.493213	0.165279	0.000062
H244	H	0.695819	0.333889	0.000066
C245	C	0.468321	-0.164057	0.524577
C246	C	0.439334	-0.193045	0.559410
C247	C	0.406191	-0.226216	0.532815
H248	H	0.448280	-0.146870	0.503738
H249	H	0.485545	-0.184090	0.503753
H250	H	0.422112	-0.173015	0.580225
H251	H	0.459362	-0.210243	0.580250
H252	H	0.423415	-0.246248	0.511991
H253	H	0.386154	-0.209024	0.511977
H254	H	0.386523	-0.245891	0.556445
H255	H	0.412743	-0.145454	0.000021
C256	C	-0.197212	-0.151292	0.000073
C257	C	-0.235412	-0.189556	0.000078
C258	C	-0.216399	-0.233956	0.000103
H259	H	-0.177803	-0.153392	-0.029510
H260	H	-0.177817	-0.153357	0.029678
H261	H	-0.254799	-0.187492	-0.029523
H262	H	-0.254824	-0.187472	0.029659
H263	H	-0.197004	-0.236021	0.029708
H264	H	-0.196990	-0.236051	-0.029480
H265	H	-0.242314	-0.259924	0.000112
H266	H	0.057760	0.062462	0.000085
H267	H	0.487892	0.688875	0.000020
H268	H	0.446177	0.450879	0.000018
H269	H	0.630598	-0.001842	0.222662
