data_functionalizedCrystal
_audit_creation_method	'MofGen! by Chris Wilmer'
_symmetry_space_group_name_H-M	'P1'
_symmetry_Int_Tables_number	1
_symmetry_cell_setting	triclinic
loop_
_symmetry_equiv_pos_as_xyz
  x,y,z
_cell_length_a	29.839134
_cell_length_b	29.839131
_cell_length_c	29.839126
_cell_angle_alpha	89.975848
_cell_angle_beta	89.970362
_cell_angle_gamma	90.036281
loop_
_atom_site_label
_atom_site_type_symbol
_atom_site_fract_x
_atom_site_fract_y
_atom_site_fract_z
Zn1	Zn	0.686754	-0.178949	-0.254125
Zn2	Zn	1.020087	0.154384	0.079208
Zn3	Zn	1.353420	0.487717	0.412542
Zn4	Zn	0.686676	-0.254070	-0.178995
Zn5	Zn	1.020009	0.079264	0.154338
Zn6	Zn	1.353342	0.412597	0.487672
Zn7	Zn	0.611626	-0.178948	-0.178995
Zn8	Zn	0.944960	0.154385	0.154339
Zn9	Zn	1.278293	0.487719	0.487672
Zn10	Zn	0.611584	-0.254046	-0.254083
Zn11	Zn	0.944917	0.079287	0.079250
Zn12	Zn	1.278251	0.412620	0.412583
O13	O	0.649160	-0.216503	-0.216549
O14	O	0.982493	0.116830	0.116784
O15	O	1.315827	0.450163	0.450117
O16	O	0.749610	-0.188925	-0.244176
O17	O	1.082944	0.144409	0.089157
O18	O	1.416277	0.477742	0.422490
O19	O	0.676705	-0.244114	-0.116128
O20	O	1.010039	0.089219	0.217206
O21	O	1.343372	0.422553	0.550539
O22	O	0.621642	-0.116081	-0.188978
O23	O	0.954976	0.217252	0.144355
O24	O	1.288309	0.550586	0.477689
O25	O	0.749553	-0.244115	-0.188979
O26	O	1.082886	0.089218	0.144355
O27	O	1.416220	0.422551	0.477688
O28	O	0.676838	-0.116082	-0.244176
O29	O	1.010171	0.217251	0.089157
O30	O	1.343505	0.550585	0.422491
O31	O	0.621567	-0.188922	-0.116128
O32	O	0.954900	0.144411	0.217206
O33	O	1.288234	0.477744	0.550539
O34	O	0.548754	-0.188899	-0.188938
O35	O	0.882087	0.144434	0.144396
O36	O	1.215420	0.477767	0.477729
O37	O	0.621570	-0.244075	-0.316956
O38	O	0.954904	0.089258	0.016377
O39	O	1.288237	0.422591	0.349711
O40	O	0.548723	-0.244074	-0.244105
O41	O	0.882056	0.089259	0.089228
O42	O	1.215389	0.422593	0.422562
O43	O	0.676797	-0.188902	-0.316987
O44	O	1.010130	0.144432	0.016347
O45	O	1.343464	0.477765	0.349680
O46	O	0.676664	-0.316934	-0.188938
O47	O	1.009998	0.016400	0.144395
O48	O	1.343331	0.349733	0.477728
O49	O	0.621495	-0.316917	-0.244105
O50	O	0.954828	0.016417	0.089228
O51	O	1.288162	0.349750	0.422561
C52	C	0.532437	-0.216484	-0.216517
C53	C	0.865771	0.116849	0.116816
C54	C	1.199104	0.450182	0.450150
C55	C	0.482503	-0.216487	-0.216514
C56	C	0.815836	0.116846	0.116819
C57	C	1.149170	0.450180	0.450153
C58	C	0.172853	-0.245275	-0.245240
C59	C	0.506186	0.088058	0.088093
C60	C	0.839520	0.421392	0.421427
C61	C	-0.014820	-0.245288	-0.245260
C62	C	0.318513	0.088046	0.088073
C63	C	0.651846	0.421379	0.421407
O64	O	-0.039091	-0.269743	-0.269665
O65	O	0.294243	0.063590	0.063669
O66	O	0.627576	0.396923	0.397002
N67	N	-0.038282	-0.216520	-0.216583
N68	N	0.295051	0.116814	0.116750
N69	N	0.628385	0.450147	0.450083
C70	C	-0.014823	-0.187744	-0.187902
C71	C	0.318510	0.145589	0.145432
C72	C	0.651844	0.478922	0.478765
O73	O	-0.039085	-0.163273	-0.163514
O74	O	0.294248	0.170061	0.169819
O75	O	0.627582	0.503394	0.503152
C76	C	0.172849	-0.187730	-0.187884
C77	C	0.506183	0.145603	0.145449
C78	C	0.839516	0.478937	0.478782
C79	C	0.196309	-0.216503	-0.216560
C80	C	0.529642	0.116830	0.116774
C81	C	0.862975	0.450164	0.450107
C82	C	0.196312	-0.274046	-0.273913
C83	C	0.529646	0.059288	0.059420
C84	C	0.862979	0.392621	0.392753
C85	C	0.243228	-0.274044	-0.273906
C86	C	0.576561	0.059290	0.059427
C87	C	0.909895	0.392623	0.392760
C88	C	0.266684	-0.245272	-0.245226
C89	C	0.600017	0.088062	0.088107
C90	C	0.933350	0.421395	0.421441
C91	C	0.243224	-0.216501	-0.216553
C92	C	0.576558	0.116832	0.116781
C93	C	0.909891	0.450165	0.450114
C94	C	0.196308	-0.158953	-0.159205
C95	C	0.529641	0.174381	0.174128
C96	C	0.862974	0.507714	0.507461
C97	C	0.243229	-0.158951	-0.159204
C98	C	0.576562	0.174383	0.174129
C99	C	0.909895	0.507716	0.507462
C100	C	0.266688	-0.187724	-0.187880
C101	C	0.600021	0.145609	0.145454
C102	C	0.933355	0.478943	0.478787
C103	C	0.313596	-0.187727	-0.187865
C104	C	0.646929	0.145606	0.145468
C105	C	0.980262	0.478939	0.478801
N106	N	0.337058	-0.216495	-0.216542
N107	N	0.670391	0.116838	0.116791
N108	N	1.003724	0.450171	0.450125
C109	C	0.313602	-0.245268	-0.245222
C110	C	0.646935	0.088066	0.088111
C111	C	0.980268	0.421399	0.421444
C112	C	-0.113354	-0.187755	-0.187912
C113	C	0.219980	0.145579	0.145421
C114	C	0.553313	0.478912	0.478754
C115	C	-0.160271	-0.187759	-0.187916
C116	C	0.173062	0.145574	0.145417
C117	C	0.506395	0.478908	0.478751
C118	C	-0.160265	-0.245302	-0.245275
C119	C	0.173068	0.088032	0.088058
C120	C	0.506401	0.421365	0.421392
C121	C	-0.113347	-0.245300	-0.245269
C122	C	0.219987	0.088034	0.088065
C123	C	0.553320	0.421367	0.421398
C124	C	-0.089892	-0.216523	-0.216589
C125	C	0.243442	0.116811	0.116744
C126	C	0.576775	0.450144	0.450078
C127	C	0.412127	-0.245262	-0.245205
C128	C	0.745461	0.088071	0.088128
C129	C	1.078794	0.421405	0.421462
C130	C	0.459047	-0.245259	-0.245194
C131	C	0.792380	0.088074	0.088139
C132	C	1.125714	0.421408	0.421472
C133	C	0.459037	-0.187715	-0.187837
C134	C	0.792370	0.145619	0.145496
C135	C	1.125704	0.478952	0.478829
C136	C	0.412121	-0.187719	-0.187846
C137	C	0.745455	0.145614	0.145487
C138	C	1.078788	0.478947	0.478820
C139	C	0.388668	-0.216494	-0.216534
C140	C	0.722001	0.116839	0.116800
C141	C	1.055335	0.450172	0.450133
O142	O	0.337895	-0.163281	-0.163477
O143	O	0.671228	0.170052	0.169856
O144	O	1.004562	0.503386	0.503190
O145	O	0.337872	-0.269729	-0.269613
O146	O	0.671205	0.063605	0.063720
O147	O	1.004538	0.396938	0.397054
C148	C	0.125937	-0.245277	-0.245247
C149	C	0.459271	0.088056	0.088086
C150	C	0.792604	0.421390	0.421420
C151	C	0.102478	-0.216506	-0.216574
C152	C	0.435811	0.116827	0.116760
C153	C	0.769145	0.450160	0.450093
C154	C	0.125934	-0.187734	-0.187893
C155	C	0.459267	0.145599	0.145440
C156	C	0.792600	0.478932	0.478773
C157	C	0.055560	-0.216511	-0.216577
C158	C	0.388893	0.116823	0.116756
C159	C	0.722227	0.450156	0.450089
C160	C	0.032104	-0.245283	-0.245258
C161	C	0.365437	0.088051	0.088076
C162	C	0.698771	0.421384	0.421409
C163	C	0.055566	-0.274051	-0.273934
C164	C	0.388899	0.059283	0.059399
C165	C	0.722233	0.392616	0.392732
C166	C	0.102482	-0.274049	-0.273927
C167	C	0.435815	0.059284	0.059406
C168	C	0.769148	0.392618	0.392739
C169	C	0.102472	-0.158966	-0.159217
C170	C	0.435805	0.174367	0.174117
C171	C	0.769138	0.507700	0.507450
C172	C	0.055556	-0.158971	-0.159226
C173	C	0.388890	0.174363	0.174108
C174	C	0.722223	0.507696	0.507441
C175	C	0.032100	-0.187743	-0.187906
C176	C	0.365434	0.145590	0.145427
C177	C	0.698767	0.478924	0.478761
C178	C	0.649079	-0.333226	-0.216527
C179	C	0.982412	0.000107	0.116806
C180	C	1.315745	0.333441	0.450139
C181	C	0.649085	-0.383160	-0.216533
C182	C	0.982419	-0.049827	0.116801
C183	C	1.315752	0.283506	0.450134
C184	C	0.677939	-0.692800	-0.187866
C185	C	1.011272	-0.359467	0.145467
C186	C	1.344606	-0.026133	0.478801
C187	C	0.677994	-0.880473	-0.187883
C188	C	1.011328	-0.547140	0.145450
C189	C	1.344661	-0.213806	0.478783
O190	O	0.702462	-0.904735	-0.163493
O191	O	1.035796	-0.571401	0.169841
O192	O	1.369129	-0.238068	0.503174
N193	N	0.649253	-0.903945	-0.216583
N194	N	0.982586	-0.570612	0.116750
N195	N	1.315920	-0.237279	0.450083
C196	C	0.620498	-0.880496	-0.245283
C197	C	0.953831	-0.547163	0.088050
C198	C	1.287165	-0.213830	0.421384
O199	O	0.596056	-0.904767	-0.269698
O200	O	0.929390	-0.571434	0.063635
O201	O	1.262723	-0.238101	0.396969
C202	C	0.620445	-0.692824	-0.245268
C203	C	0.953778	-0.359491	0.088066
C204	C	1.287112	-0.026158	0.421399
C205	C	0.649185	-0.669354	-0.216563
C206	C	0.982518	-0.336021	0.116771
C207	C	1.315852	-0.002688	0.450104
C208	C	0.706677	-0.669330	-0.159164
C209	C	1.040010	-0.335997	0.174170
C210	C	1.373344	-0.002663	0.507503
C211	C	0.706661	-0.622415	-0.159158
C212	C	1.039994	-0.289081	0.174176
C213	C	1.373328	0.044252	0.507509
C214	C	0.677907	-0.598969	-0.187854
C215	C	1.011240	-0.265636	0.145479
C216	C	1.344574	0.067698	0.478812
C217	C	0.649169	-0.622439	-0.216557
C218	C	0.982503	-0.289106	0.116777
C219	C	1.315836	0.044228	0.450110
C220	C	0.591693	-0.669376	-0.273969
C221	C	0.925026	-0.336043	0.059364
C222	C	1.258359	-0.002710	0.392697
C223	C	0.591683	-0.622455	-0.273964
C224	C	0.925016	-0.289122	0.059370
C225	C	1.258349	0.044211	0.392703
C226	C	0.620423	-0.598985	-0.245259
C227	C	0.953756	-0.265652	0.088075
C228	C	1.287089	0.067681	0.421408
C229	C	0.620399	-0.552078	-0.245248
C230	C	0.953733	-0.218745	0.088086
C231	C	1.287066	0.114589	0.421419
N232	N	0.649141	-0.528606	-0.216548
N233	N	0.982474	-0.195272	0.116786
N234	N	1.315807	0.138061	0.450119
C235	C	0.677895	-0.552051	-0.187851
C236	C	1.011228	-0.218718	0.145482
C237	C	1.344561	0.114615	0.478816
C238	C	0.620527	-0.979027	-0.245289
C239	C	0.953860	-0.645694	0.088045
C240	C	1.287194	-0.312360	0.421378
C241	C	0.620540	-1.025945	-0.245292
C242	C	0.953873	-0.692612	0.088041
C243	C	1.287206	-0.359278	0.421375
C244	C	0.678037	-1.025918	-0.187893
C245	C	1.011370	-0.692585	0.145441
C246	C	1.344703	-0.359252	0.478774
C247	C	0.678022	-0.979000	-0.187887
C248	C	1.011355	-0.645666	0.145446
C249	C	1.344688	-0.312333	0.478779
C250	C	0.649268	-0.955555	-0.216589
C251	C	0.982602	-0.622221	0.116745
C252	C	1.315935	-0.288888	0.450078
C253	C	0.677859	-0.453525	-0.187841
C254	C	1.011192	-0.120192	0.145493
C255	C	1.344525	0.213141	0.478826
C256	C	0.677839	-0.406606	-0.187836
C257	C	1.011172	-0.073273	0.145497
C258	C	1.344506	0.260061	0.478831
C259	C	0.620344	-0.406637	-0.245237
C260	C	0.953677	-0.073303	0.088096
C261	C	1.287010	0.260030	0.421430
C262	C	0.620362	-0.453552	-0.245240
C263	C	0.953695	-0.120219	0.088093
C264	C	1.287028	0.213115	0.421427
C265	C	0.649123	-0.476995	-0.216540
C266	C	0.982456	-0.143662	0.116793
C267	C	1.315789	0.189671	0.450126
O268	O	0.595948	-0.527787	-0.269629
O269	O	0.929281	-0.194454	0.063704
O270	O	1.262614	0.138879	0.397038
O271	O	0.702340	-0.527772	-0.163447
O272	O	1.035673	-0.194439	0.169886
O273	O	1.369006	0.138894	0.503220
C274	C	0.677955	-0.739715	-0.187872
C275	C	1.011288	-0.406382	0.145462
C276	C	1.344621	-0.073049	0.478795
C277	C	0.649217	-0.763185	-0.216574
C278	C	0.982550	-0.429852	0.116759
C279	C	1.315883	-0.096519	0.450093
C280	C	0.620463	-0.739740	-0.245271
C281	C	0.953796	-0.406406	0.088063
C282	C	1.287130	-0.073073	0.421396
C283	C	0.649229	-0.810103	-0.216578
C284	C	0.982563	-0.476770	0.116756
C285	C	1.315896	-0.143437	0.450089
C286	C	0.677983	-0.833549	-0.187881
C287	C	1.011317	-0.500215	0.145452
C288	C	1.344650	-0.166882	0.478786
C289	C	0.706724	-0.810076	-0.159181
C290	C	1.040058	-0.476743	0.174152
C291	C	1.373391	-0.143410	0.507486
C292	C	0.706709	-0.763161	-0.159175
C293	C	1.040042	-0.429828	0.174158
C294	C	1.373375	-0.096494	0.507491
C295	C	0.591722	-0.763212	-0.273971
C296	C	0.925055	-0.429879	0.059363
C297	C	1.258388	-0.096545	0.392696
C298	C	0.591740	-0.810128	-0.273974
C299	C	0.925073	-0.476794	0.059360
C300	C	1.258406	-0.143461	0.392693
C301	C	0.620493	-0.833573	-0.245277
C302	C	0.953827	-0.500240	0.088056
C303	C	1.287160	-0.166906	0.421389
C304	C	0.766338	-0.216523	-0.216582
C305	C	1.099672	0.116811	0.116751
C306	C	1.433005	0.450144	0.450084
C307	C	0.816273	-0.216531	-0.216596
C308	C	1.149606	0.116802	0.116737
C309	C	1.482939	0.450136	0.450070
C310	C	0.649188	-0.216486	-0.333728
C311	C	0.982521	0.116847	-0.000395
C312	C	1.315854	0.450181	0.332939
C313	C	0.649200	-0.216479	-0.383662
C314	C	0.982533	0.116855	-0.050329
C315	C	1.315866	0.450188	0.283004
C316	C	0.649254	-0.099325	-0.216582
C317	C	0.982587	0.234008	0.116752
C318	C	1.315920	0.567342	0.450085
C319	C	0.649294	-0.049390	-0.216595
C320	C	0.982627	0.283943	0.116738
C321	C	1.315960	0.617276	0.450071
C322	C	0.620498	-0.187695	-0.693309
C323	C	0.953831	0.145638	-0.359975
C324	C	1.287165	0.478971	-0.026642
C325	C	0.620511	-0.187664	-0.880982
C326	C	0.953844	0.145669	-0.547648
C327	C	1.287177	0.479002	-0.214315
O328	O	0.596085	-0.163236	-0.905249
O329	O	0.929418	0.170097	-0.571916
O330	O	1.262752	0.503430	-0.238582
N331	N	0.649221	-0.216394	-0.904448
N332	N	0.982554	0.116939	-0.571114
N333	N	1.315888	0.450272	-0.237781
C334	C	0.677928	-0.245137	-0.880992
C335	C	1.011261	0.088197	-0.547659
C336	C	1.344595	0.421530	-0.214326
O337	O	0.702345	-0.269576	-0.905258
O338	O	1.035678	0.063757	-0.571925
O339	O	1.369011	0.397091	-0.238591
C340	C	0.677913	-0.245170	-0.693320
C341	C	1.011246	0.088164	-0.359987
C342	C	1.344579	0.421497	-0.026653
C343	C	0.649204	-0.216434	-0.669857
C344	C	0.982537	0.116899	-0.336523
C345	C	1.315870	0.450232	-0.003190
C346	C	0.591791	-0.158963	-0.669845
C347	C	0.925124	0.174370	-0.336512
C348	C	1.258458	0.507704	-0.003178
C349	C	0.591790	-0.158969	-0.622930
C350	C	0.925123	0.174364	-0.289596
C351	C	1.258457	0.507697	0.043737
C352	C	0.620496	-0.187708	-0.599478
C353	C	0.953829	0.145625	-0.266144
C354	C	1.287162	0.478958	0.067189
C355	C	0.649203	-0.216441	-0.622941
C356	C	0.982536	0.116893	-0.289608
C357	C	1.315869	0.450226	0.043726
C358	C	0.706617	-0.273914	-0.669866
C359	C	1.039950	0.059420	-0.336532
C360	C	1.373284	0.392753	-0.003199
C361	C	0.706610	-0.273920	-0.622945
C362	C	1.039943	0.059413	-0.289611
C363	C	1.373276	0.392746	0.043722
C364	C	0.677901	-0.245185	-0.599481
C365	C	1.011234	0.088148	-0.266148
C366	C	1.344568	0.421482	0.067185
C367	C	0.677907	-0.245186	-0.552574
C368	C	1.011240	0.088147	-0.219240
C369	C	1.344574	0.421481	0.114093
N370	N	0.649197	-0.216456	-0.529108
N371	N	0.982530	0.116877	-0.195774
N372	N	1.315864	0.450211	0.137559
C373	C	0.620491	-0.187717	-0.552560
C374	C	0.953825	0.145616	-0.219226
C375	C	1.287158	0.478950	0.114107
C376	C	0.677935	-0.245117	-0.979523
C377	C	1.011268	0.088217	-0.646190
C378	C	1.344601	0.421550	-0.312856
C379	C	0.677939	-0.245108	-1.026441
C380	C	1.011272	0.088226	-0.693108
C381	C	1.344606	0.421559	-0.359774
C382	C	0.620521	-0.187636	-1.026427
C383	C	0.953854	0.145697	-0.693094
C384	C	1.287188	0.479031	-0.359760
C385	C	0.620519	-0.187643	-0.979508
C386	C	0.953853	0.145691	-0.646175
C387	C	1.287186	0.479024	-0.312842
C388	C	0.649224	-0.216386	-0.956057
C389	C	0.982558	0.116947	-0.622724
C390	C	1.315891	0.450280	-0.289390
C391	C	0.620491	-0.187732	-0.454034
C392	C	0.953825	0.145601	-0.120701
C393	C	1.287158	0.478934	0.212633
C394	C	0.620494	-0.187740	-0.407114
C395	C	0.953827	0.145594	-0.073781
C396	C	1.287161	0.478927	0.259552
C397	C	0.677910	-0.245213	-0.407132
C398	C	1.011243	0.088120	-0.073799
C399	C	1.344577	0.421454	0.259534
C400	C	0.677909	-0.245204	-0.454048
C401	C	1.011242	0.088129	-0.120714
C402	C	1.344576	0.421463	0.212619
C403	C	0.649196	-0.216462	-0.477497
C404	C	0.982529	0.116871	-0.144164
C405	C	1.315863	0.450205	0.189169
O406	O	0.702316	-0.269605	-0.528278
O407	O	1.035650	0.063729	-0.194944
O408	O	1.368983	0.397062	0.138389
O409	O	0.596071	-0.163288	-0.528286
O410	O	0.929404	0.170045	-0.194953
O411	O	1.262738	0.503378	0.138380
C412	C	0.620499	-0.187689	-0.740224
C413	C	0.953832	0.145644	-0.406891
C414	C	1.287166	0.478978	-0.073557
C415	C	0.649206	-0.216422	-0.763688
C416	C	0.982539	0.116912	-0.430354
C417	C	1.315873	0.450245	-0.097021
C418	C	0.677912	-0.245161	-0.740236
C419	C	1.011245	0.088173	-0.406902
C420	C	1.344578	0.421506	-0.073569
C421	C	0.649211	-0.216413	-0.810605
C422	C	0.982544	0.116920	-0.477272
C423	C	1.315877	0.450254	-0.143939
C424	C	0.620505	-0.187674	-0.834057
C425	C	0.953838	0.145659	-0.500724
C426	C	1.287171	0.478993	-0.167391
C427	C	0.591795	-0.158944	-0.810591
C428	C	0.925128	0.174390	-0.477258
C429	C	1.258461	0.507723	-0.143925
C430	C	0.591793	-0.158950	-0.763676
C431	C	0.925127	0.174383	-0.430343
C432	C	1.258460	0.507716	-0.097009
C433	C	0.706622	-0.273891	-0.763702
C434	C	1.039955	0.059443	-0.430368
C435	C	1.373289	0.392776	-0.097035
C436	C	0.706621	-0.273882	-0.810617
C437	C	1.039954	0.059452	-0.477284
C438	C	1.373288	0.392785	-0.143950
C439	C	0.677915	-0.245143	-0.834069
C440	C	1.011249	0.088191	-0.500736
C441	C	1.344582	0.421524	-0.167402
C442	C	0.649158	-0.216488	-0.099827
C443	C	0.982491	0.116845	0.233506
C444	C	1.315825	0.450179	0.566840
C445	C	0.649233	-0.216369	-0.049893
C446	C	0.982567	0.116964	0.283440
C447	C	1.315900	0.450298	0.616774
H448	H	0.262324	-0.297473	-0.297258
H449	H	0.595658	0.035860	0.036076
H450	H	0.928991	0.369194	0.369409
H451	H	0.597112	-0.959941	-0.268661
H452	H	0.930445	-0.626608	0.064672
H453	H	1.263778	-0.293275	0.398005
H454	H	0.568287	-0.688477	-0.297342
H455	H	0.901621	-0.355144	0.035991
H456	H	1.234954	-0.021811	0.369325
Br457	Br	0.164488	-0.313098	-0.312843
Br458	Br	0.497822	0.020235	0.020491
Br459	Br	0.831155	0.353568	0.353824
Br460	Br	0.581346	-0.485405	-0.284186
Br461	Br	0.914680	-0.152072	0.049147
Br462	Br	1.248013	0.181261	0.382481
H463	H	0.568413	-0.135560	-0.688935
H464	H	0.901746	0.197773	-0.355601
H465	H	1.235080	0.531107	-0.022268
Br466	Br	0.716869	-0.284211	-0.375296
Br467	Br	1.050202	0.049122	-0.041962
Br468	Br	1.383536	0.382456	0.291371
Br469	Br	0.581531	-0.148737	-0.375274
Br470	Br	0.914864	0.184596	-0.041940
Br471	Br	1.248198	0.517929	0.291393
H472	H	0.597142	-0.164244	-0.960407
H473	H	0.930476	0.169090	-0.627074
H474	H	1.263809	0.502423	-0.293741
H475	H	0.597111	-0.164327	-0.473121
H476	H	0.930444	0.169006	-0.139788
H477	H	1.263777	0.502339	0.193546
H478	H	0.568423	-0.135542	-0.829694
H479	H	0.901756	0.197792	-0.496361
H480	H	1.235090	0.531125	-0.163028
H481	H	0.701242	-0.387498	-0.164459
H482	H	1.034576	-0.054165	0.168874
H483	H	1.367909	0.279169	0.502207
H484	H	0.730094	-0.688415	-0.135795
H485	H	1.063427	-0.355081	0.197538
H486	H	1.396761	-0.021748	0.530871
Br487	Br	0.745589	-0.312882	-0.842454
Br488	Br	1.078922	0.020452	-0.509121
Br489	Br	1.412256	0.353785	-0.175788
H490	H	0.701322	-0.268502	-1.045541
H491	H	1.034655	0.064831	-0.712208
H492	H	1.367988	0.398165	-0.378874
Br493	Br	0.716892	-0.485334	-0.148891
Br494	Br	1.050225	-0.152001	0.184442
Br495	Br	1.383559	0.181333	0.517776
Br496	Br	0.716897	-0.284128	-0.947703
Br497	Br	1.050230	0.049205	-0.614370
Br498	Br	1.383564	0.382539	-0.281037
H499	H	0.121578	-0.297479	-0.297278
H500	H	0.454911	0.035854	0.036055
H501	H	0.788245	0.369188	0.369389
H502	H	0.597149	-0.164235	-1.045530
H503	H	0.930482	0.169099	-0.712196
H504	H	1.263815	0.502432	-0.378863
Br505	Br	0.164482	-0.119898	-0.120289
Br506	Br	0.497815	0.213435	0.213044
Br507	Br	0.831148	0.546768	0.546378
H508	H	0.596931	-0.387540	-0.268600
H509	H	0.930265	-0.054207	0.064733
H510	H	1.263598	0.279127	0.398067
Br511	Br	0.745674	-0.590570	-0.120205
Br512	Br	1.079007	-0.257237	0.213128
Br513	Br	1.412341	0.076097	0.546461
Br514	Br	0.552830	-0.119950	-0.731840
Br515	Br	0.886163	0.213384	-0.398507
Br516	Br	1.219496	0.546717	-0.065173
H517	H	-0.094249	-0.268729	-0.268619
H518	H	0.239084	0.064605	0.064714
H519	H	0.572418	0.397938	0.398047
Br520	Br	0.745578	-0.312917	-0.701697
Br521	Br	1.078912	0.020416	-0.368364
Br522	Br	1.412245	0.353749	-0.035030
Br523	Br	-0.192107	-0.284347	-0.284201
Br524	Br	0.141226	0.048986	0.049133
Br525	Br	0.474559	0.382320	0.382466
H526	H	0.393037	-0.268692	-0.268566
H527	H	0.726370	0.064641	0.064767
H528	H	1.059704	0.397974	0.398100
H529	H	0.036460	-0.297479	-0.297286
H530	H	0.369793	0.035854	0.036048
H531	H	0.703127	0.369187	0.369381
Br532	Br	0.745567	-0.312934	-0.591121
Br533	Br	1.078900	0.020399	-0.257788
Br534	Br	1.412233	0.353733	0.075546
H535	H	0.701424	-0.959893	-0.164514
H536	H	1.034758	-0.626560	0.168820
H537	H	1.368091	-0.293226	0.502153
Br538	Br	0.552660	-0.590640	-0.312919
Br539	Br	0.885993	-0.257307	0.020414
Br540	Br	1.219327	0.076027	0.353747
H541	H	0.729996	-0.297296	-0.744612
H542	H	1.063330	0.036038	-0.411278
H543	H	1.396663	0.369371	-0.077945
Br544	Br	0.745716	-0.731316	-0.120217
Br545	Br	1.079049	-0.397983	0.213116
Br546	Br	1.412383	-0.064650	0.546449
H547	H	0.262323	-0.135514	-0.135852
H548	H	0.595657	0.197819	0.197481
H549	H	0.928990	0.531153	0.530815
H550	H	0.730136	-0.829174	-0.135814
H551	H	1.063469	-0.495841	0.197519
H552	H	1.396802	-0.162507	0.530853
Br553	Br	0.716880	-0.284193	-0.485892
Br554	Br	1.050214	0.049140	-0.152559
Br555	Br	1.383547	0.382474	0.180774
H556	H	0.568307	-0.744126	-0.297340
H557	H	0.901641	-0.410793	0.035994
H558	H	1.234974	-0.077460	0.369327
Br559	Br	0.717058	-1.057746	-0.148946
Br560	Br	1.050391	-0.724413	0.184387
Br561	Br	1.383725	-0.391079	0.517721
H562	H	0.597133	-1.045050	-0.268662
H563	H	0.930466	-0.711717	0.064671
H564	H	1.263799	-0.378383	0.398004
Br565	Br	0.023724	-0.119920	-0.120303
Br566	Br	0.357058	0.213414	0.213030
Br567	Br	0.690391	0.546747	0.546363
Br568	Br	0.490882	-0.284313	-0.284111
Br569	Br	0.824216	0.049020	0.049222
Br570	Br	1.157549	0.382354	0.382555
H571	H	-0.179368	-0.164333	-0.164561
H572	H	0.153965	0.169000	0.168772
H573	H	0.487298	0.502333	0.502105
H574	H	-0.094261	-0.164321	-0.164556
H575	H	0.239073	0.169013	0.168778
H576	H	0.572406	0.502346	0.502111
H577	H	0.393020	-0.164291	-0.164496
H578	H	0.726353	0.169043	0.168838
H579	H	1.059686	0.502376	0.502171
H580	H	0.121565	-0.135536	-0.135861
H581	H	0.454898	0.197797	0.197472
H582	H	0.788231	0.531131	0.530805
Br583	Br	0.490879	-0.148669	-0.148915
Br584	Br	0.824212	0.184664	0.184418
Br585	Br	1.157546	0.517998	0.517751
Br586	Br	0.552824	-0.119971	-0.591094
Br587	Br	0.886157	0.213362	-0.257760
Br588	Br	1.219490	0.546695	0.075573
Br589	Br	0.552730	-0.841974	-0.312933
Br590	Br	0.886064	-0.508640	0.020400
Br591	Br	1.219397	-0.175307	0.353733
