data_functionalizedCrystal
_audit_creation_method	'MofGen! by Chris Wilmer'
_symmetry_space_group_name_H-M	'P1'
_symmetry_Int_Tables_number	1
_symmetry_cell_setting	triclinic
loop_
_symmetry_equiv_pos_as_xyz
  x,y,z
_cell_length_a	11.026607
_cell_length_b	22.610064
_cell_length_c	11.026607
_cell_angle_alpha	89.992479
_cell_angle_beta	71.413983
_cell_angle_gamma	89.990476
loop_
_atom_site_label
_atom_site_type_symbol
_atom_site_fract_x
_atom_site_fract_y
_atom_site_fract_z
O1	O	1.726738	-0.049183	-0.533607
O2	O	1.360158	-0.049184	-0.472844
O3	O	1.513067	-0.049182	-0.319936
O4	O	1.573830	-0.049186	-0.686516
O5	O	1.513038	0.049188	-0.319958
O6	O	1.360130	0.049185	-0.472866
O7	O	1.726710	0.049186	-0.533630
Zn8	Zn	1.543416	0.064804	-0.503252
Zn9	Zn	1.543453	-0.064802	-0.503222
O10	O	1.573802	0.049184	-0.686538
C11	C	1.312485	0.000000	-0.461645
C12	C	1.170471	0.000000	-0.428228
N13	N	1.543399	0.153256	-0.503273
C14	C	1.116821	-0.000001	-0.520498
C15	C	0.970043	-0.000002	-0.485962
C16	C	1.611168	0.561899	-0.435538
C17	C	1.611173	0.623819	-0.435531
O18	O	1.668741	0.655838	-0.377942
N19	N	1.543447	0.654793	-0.503206
C20	C	1.475701	0.623845	-0.570882
O21	O	1.418095	0.655877	-0.628444
C22	C	1.475690	0.561926	-0.570881
C23	C	1.543431	0.530955	-0.503212
C24	C	1.678902	0.530927	-0.367873
C25	C	1.678899	0.469012	-0.367882
C26	C	1.611162	0.438068	-0.435556
C27	C	1.543428	0.469039	-0.503221
C28	C	1.407938	0.530979	-0.638549
C29	C	1.407932	0.469056	-0.638541
C30	C	1.475673	0.438084	-0.570872
C31	C	1.475688	0.376179	-0.570904
N32	N	1.543414	0.345205	-0.503229
C33	C	1.611151	0.376149	-0.435555
C34	C	1.475728	0.753879	-0.570878
C35	C	1.475746	0.815796	-0.570888
C36	C	1.611216	0.815766	-0.435534
C37	C	1.611204	0.753847	-0.435533
C38	C	1.543454	0.722904	-0.503203
C39	C	1.611141	0.246121	-0.435580
C40	C	1.611136	0.184200	-0.435599
C41	C	1.475662	0.184236	-0.570947
C42	C	1.475671	0.246152	-0.570933
C43	C	1.543414	0.277093	-0.503240
O44	O	1.418145	0.344120	-0.628459
O45	O	1.668734	0.344109	-0.377989
C46	C	1.774384	0.000000	-0.544828
C47	C	1.916398	-0.000003	-0.578245
C48	C	1.501843	0.000002	-0.272287
C49	C	1.468426	0.000000	-0.130273
N50	N	1.543478	0.846746	-0.503208
C51	C	1.585026	-0.000002	-0.734187
C52	C	1.618443	-0.000003	-0.876200
C53	C	1.560695	-0.000000	-0.076624
C54	C	1.526160	-0.000003	0.070155
H55	H	0.907314	-0.000016	-0.381393
O56	O	1.751947	0.435615	-0.294873
H57	H	1.825616	0.407404	-0.362068
O58	O	0.999470	0.000004	-0.716766
H59	H	0.978817	-0.040087	-0.764864
H60	H	1.666364	0.728634	-0.380430
H61	H	1.734060	0.556116	-0.312759
O62	O	1.756959	-0.000009	0.040717
H63	H	1.819293	-0.000017	0.102346
O64	O	1.329915	0.000005	-0.047188
H65	H	1.310299	-0.040086	0.014106
O66	O	1.199900	-0.000002	-0.659010
H67	H	1.302149	-0.000006	-0.664400
H68	H	1.420602	0.841009	-0.626006
H69	H	1.107738	-0.000014	-0.323666
H70	H	1.420515	0.159032	-0.626051
H71	H	1.420563	0.728688	-0.625994
O72	O	1.684191	0.150794	-0.362601
H73	H	1.731278	0.182718	-0.315530
O74	O	1.684222	0.279490	-0.362590
H75	H	1.731329	0.247543	-0.315560
H76	H	1.352757	0.443865	-0.693644
O77	O	1.684277	0.849143	-0.362532
H78	H	1.617101	0.877350	-0.288841
O79	O	1.334930	0.564376	-0.711591
H80	H	1.287843	0.532446	-0.758649
O81	O	1.387642	-0.000005	0.153233
H82	H	1.339532	0.040087	0.132562
H83	H	1.420526	0.271370	-0.626051
H84	H	1.665258	0.000003	-0.139357
