data_functionalizedCrystal
_audit_creation_method	'MofGen! by Chris Wilmer'
_symmetry_space_group_name_H-M	'P1'
_symmetry_Int_Tables_number	1
_symmetry_cell_setting	triclinic
loop_
_symmetry_equiv_pos_as_xyz
  x,y,z
_cell_length_a	10.654546
_cell_length_b	19.188924
_cell_length_c	9.130313
_cell_angle_alpha	89.996698
_cell_angle_beta	89.998822
_cell_angle_gamma	83.812724
loop_
_atom_site_label
_atom_site_type_symbol
_atom_site_fract_x
_atom_site_fract_y
_atom_site_fract_z
O1	O	1.665758	0.098047	-0.121839
O2	O	1.300080	0.107393	-0.121835
O3	O	1.493476	0.001133	-0.121820
O4	O	1.472362	0.204307	-0.121854
O5	O	1.493474	0.001136	0.121779
O6	O	1.300078	0.107396	0.121763
O7	O	1.665755	0.098050	0.121760
Cu8	Cu	1.482916	0.102723	0.144004
Cu9	Cu	1.482919	0.102720	-0.144080
O10	O	1.472359	0.204310	0.121744
C11	C	1.492793	-0.024881	-0.000019
C12	C	1.490744	-0.102399	-0.000015
C13	C	1.253296	0.106709	-0.000035
C14	C	1.113896	0.104657	-0.000033
C15	C	1.048423	0.103685	-0.132826
C16	C	0.917443	0.101752	-0.132837
C17	C	0.917421	0.101761	0.132748
C18	C	1.048397	0.103699	0.132758
C19	C	1.113921	0.104643	-0.265617
C20	C	1.048448	0.103670	-0.398420
C21	C	0.917468	0.101737	-0.398431
C22	C	0.851962	0.100777	-0.265640
C23	C	1.489790	-0.138806	-0.132801
C24	C	1.487847	-0.211641	-0.132812
C25	C	1.486885	-0.248069	-0.000030
C26	C	1.487833	-0.211653	0.132774
C27	C	1.489762	-0.138818	0.132781
N28	N	1.555317	-0.367284	0.098796
N29	N	1.553487	-0.436474	0.098780
C30	C	1.481068	-0.467516	-0.000044
N31	N	1.410565	-0.426755	-0.098874
N32	N	1.412402	-0.357559	-0.098862
C33	C	1.484792	-0.327046	-0.000023
C34	C	1.478006	-0.582899	-0.132851
C35	C	1.476055	-0.655735	-0.132857
C36	C	1.476053	-0.655746	0.132733
C37	C	1.477991	-0.582911	0.132735
C38	C	1.478973	-0.546492	-0.000061
C39	C	1.712540	0.098735	-0.000043
C40	C	1.851940	0.100786	-0.000055
C41	C	1.473043	0.230324	-0.000059
C42	C	1.475091	0.307842	-0.000073
N43	N	1.482923	0.102725	0.346627
N44	N	1.482922	0.102712	-0.346702
C45	C	1.568581	0.055690	0.423286
C46	C	1.568577	0.055681	0.576622
C47	C	1.397256	0.149750	0.576628
C48	C	1.397254	0.149755	0.423294
C49	C	1.654250	0.008660	0.346618
C50	C	1.739915	-0.038379	0.423277
C51	C	1.739912	-0.038387	0.576614
C52	C	1.654244	0.008643	0.653292
H53	H	1.220572	0.106216	-0.265622
H54	H	1.478798	-0.553245	-0.240982
H55	H	1.654240	0.008628	0.778149
H56	H	1.327509	0.188041	0.639069
H57	H	0.864162	0.100952	-0.506566
H58	H	0.864075	0.100978	0.240860
H59	H	1.475272	-0.685376	-0.240992
H60	H	1.101791	0.104458	-0.506534
H61	H	1.654263	0.008664	0.221764
H62	H	1.809657	-0.076674	0.360838
O63	O	1.490460	-0.103479	-0.261878
C64	C	1.381246	-0.113959	-0.342582
H65	H	1.304758	-0.128804	-0.264805
H66	H	1.404700	-0.157935	-0.425311
C67	C	1.427530	-0.027714	-0.519580
C68	C	1.333582	-0.045941	-0.424050
H69	H	1.398130	0.014240	-0.569840
H70	H	1.501112	-0.020655	-0.465212
H71	H	1.447066	-0.064367	-0.588507
H72	H	1.314059	-0.009293	-0.355115
H73	H	1.259995	-0.052993	-0.478410
H74	H	1.101706	0.104494	0.240889
O75	O	1.479105	-0.547476	0.261630
C76	C	1.588974	-0.512745	0.269590
H77	H	1.625514	-0.504292	0.154296
H78	H	1.664370	-0.545988	0.335118
C79	C	1.512901	-0.451700	0.487118
C80	C	1.557774	-0.441313	0.345511
H81	H	1.493659	-0.407639	0.533955
H82	H	1.438883	-0.475101	0.481759
H83	H	1.575739	-0.479405	0.541705
H84	H	1.494931	-0.413616	0.290921
H85	H	1.631782	-0.417906	0.350862
O86	O	1.314005	0.195514	0.349045
C87	C	1.238379	0.237015	0.449590
H88	H	1.289854	0.238070	0.558893
H89	H	1.145224	0.213862	0.465897
C90	C	1.148848	0.310906	0.255492
C91	C	1.212076	0.312206	0.389737
H92	H	1.132617	0.357287	0.218571
H93	H	1.199795	0.282945	0.187752
H94	H	1.071226	0.291609	0.269100
H95	H	1.289703	0.331495	0.376124
H96	H	1.161141	0.340173	0.457474
O97	O	1.475279	-0.691064	0.261806
C98	C	1.584496	-0.680679	0.342593
H99	H	1.622161	-0.630255	0.304863
H100	H	1.659546	-0.726843	0.324176
C101	C	1.505279	-0.737019	0.553030
C102	C	1.551533	-0.675085	0.506697
H103	H	1.484949	-0.733572	0.654258
H104	H	1.431699	-0.744019	0.498601
H105	H	1.567828	-0.775483	0.537670
H106	H	1.488979	-0.636624	0.522040
H107	H	1.625102	-0.668079	0.561133
H108	H	0.745307	0.099211	-0.265660
H109	H	1.490534	-0.109176	0.240915
H110	H	1.487045	-0.241317	0.240886
O111	O	1.486691	-0.247043	-0.261756
C112	C	1.376854	-0.281804	-0.269663
H113	H	1.301435	-0.254684	-0.194323
H114	H	1.399972	-0.338669	-0.233953
C115	C	1.420155	-0.312901	-0.520843
C116	C	1.327520	-0.279588	-0.428319
H117	H	1.389725	-0.311537	-0.618710
H118	H	1.494157	-0.289484	-0.515516
H119	H	1.439411	-0.360286	-0.491067
H120	H	1.308276	-0.232202	-0.458084
H121	H	1.253513	-0.302997	-0.433655
O122	O	1.823239	-0.084106	0.650856
C123	C	1.898823	-0.125624	0.550300
H124	H	1.900077	-0.096985	0.441002
H125	H	1.858349	-0.177702	0.533987
C126	C	2.032830	-0.174488	0.744383
C127	C	2.034378	-0.139311	0.610143
H128	H	2.116445	-0.182934	0.781298
H129	H	1.981905	-0.146519	0.812130
H130	H	1.999095	-0.217883	0.730770
H131	H	2.068097	-0.095914	0.623761
H132	H	2.085312	-0.167273	0.542399
