data_functionalizedCrystal
_audit_creation_method	'MofGen! by Chris Wilmer'
_symmetry_space_group_name_H-M	'P1'
_symmetry_Int_Tables_number	1
_symmetry_cell_setting	triclinic
loop_
_symmetry_equiv_pos_as_xyz
  x,y,z
_cell_length_a	16.625548
_cell_length_b	12.645330
_cell_length_c	16.625525
_cell_angle_alpha	89.911590
_cell_angle_beta	89.938871
_cell_angle_gamma	90.018760
loop_
_atom_site_label
_atom_site_type_symbol
_atom_site_fract_x
_atom_site_fract_y
_atom_site_fract_z
Zn1	Zn	1.233030	-0.421336	-0.455933
Zn2	Zn	1.733030	0.078664	0.044067
Zn3	Zn	1.232849	-0.598820	-0.321110
Zn4	Zn	1.732849	-0.098820	0.178890
Zn5	Zn	1.098096	-0.421575	-0.321113
Zn6	Zn	1.598096	0.078425	0.178887
Zn7	Zn	1.098174	-0.598561	-0.455900
Zn8	Zn	1.598174	-0.098561	0.044100
O9	O	1.165537	-0.510073	-0.388514
O10	O	1.665537	-0.010073	0.111486
O11	O	1.345839	-0.444888	-0.438061
O12	O	1.845839	0.055112	0.061939
O13	O	1.214866	-0.575517	-0.208277
O14	O	1.714866	-0.075517	0.291723
O15	O	1.116039	-0.273196	-0.339013
O16	O	1.616039	0.226804	0.160987
O17	O	1.345706	-0.575285	-0.339007
O18	O	1.845706	-0.075285	0.160993
O19	O	1.215174	-0.273020	-0.438065
O20	O	1.715174	0.226980	0.061935
O21	O	1.115864	-0.445295	-0.208280
O22	O	1.615864	0.054705	0.291720
O23	O	0.985274	-0.445044	-0.338981
O24	O	1.485274	0.054956	0.161019
O25	O	1.116171	-0.574843	-0.568737
O26	O	1.616171	-0.074843	-0.068737
O27	O	0.985331	-0.575075	-0.438008
O28	O	1.485331	-0.075075	0.061992
O29	O	1.215249	-0.444637	-0.568762
O30	O	1.715249	0.055363	-0.068762
O31	O	1.214941	-0.747133	-0.338974
O32	O	1.714941	-0.247133	0.161026
O33	O	1.115995	-0.746943	-0.438004
O34	O	1.615995	-0.246943	0.061996
C35	C	0.956046	-0.510058	-0.388491
C36	C	1.456046	-0.010058	0.111509
C37	C	0.866425	-0.510077	-0.388501
C38	C	1.366425	-0.010077	0.111499
C39	C	0.538250	-0.510084	-0.388535
C40	C	1.038250	-0.010084	0.111465
C41	C	0.629558	-0.510079	-0.388523
C42	C	1.129558	-0.010079	0.111477
C43	C	0.702335	-0.510081	-0.388518
C44	C	1.202335	-0.010081	0.111482
C45	C	0.793649	-0.510075	-0.388507
C46	C	1.293649	-0.010075	0.111493
C47	C	1.165478	-0.785503	-0.388503
C48	C	1.665478	-0.285503	0.111497
C49	C	1.165527	-0.903333	-0.388525
C50	C	1.665527	-0.403333	0.111475
C51	C	1.103537	-1.070821	-0.451017
C52	C	1.603537	-0.570821	0.048983
C53	C	1.103220	-0.948262	-0.450816
C54	C	1.603220	-0.448262	0.049184
C55	C	1.142465	-0.948051	-0.303549
C56	C	1.642465	-0.448051	0.196451
C57	C	1.142087	-1.070649	-0.303929
C58	C	1.642087	-0.570649	0.196071
C59	C	1.250958	-1.070388	-0.410319
C60	C	1.750958	-0.570388	0.089681
C61	C	1.250435	-0.947779	-0.412178
C62	C	1.750435	-0.447779	0.087822
C63	C	1.375846	-0.510089	-0.388537
C64	C	1.875846	-0.010089	0.111463
C65	C	1.465467	-0.510096	-0.388547
C66	C	1.965467	-0.010096	0.111453
C67	C	1.165739	-0.509684	-0.598824
C68	C	1.665739	-0.009684	-0.098824
C69	C	1.165825	-0.509519	-0.688445
C70	C	1.665825	-0.009519	-0.188445
C71	C	1.165618	-0.233568	-0.388543
C72	C	1.665618	0.266432	0.111457
C73	C	1.165653	-0.115738	-0.388555
C74	C	1.665653	0.384262	0.111445
C75	C	1.165383	-0.510384	-0.179023
C76	C	1.665383	-0.010384	0.320977
C77	C	1.165454	-0.510251	-0.089402
C78	C	1.665454	-0.010251	0.410598
C79	C	1.165524	-0.510126	-0.016620
C80	C	1.665524	-0.010126	0.483380
C81	C	1.165610	-0.509960	0.074689
C82	C	1.665610	-0.009960	0.574689
C83	C	1.165675	-0.509822	0.147465
C84	C	1.665675	-0.009822	0.647465
C85	C	1.165760	-0.509657	0.238779
C86	C	1.665760	-0.009657	0.738779
H87	H	1.117656	-0.918015	-0.513824
H88	H	1.617656	-0.418015	-0.013824
H89	H	1.271984	-1.101143	-0.471230
H90	H	1.771984	-0.601143	0.028770
H91	H	1.080755	-0.917469	-0.284779
H92	H	1.580755	-0.417469	0.215221
H93	H	1.117841	-1.100140	-0.514232
H94	H	1.617841	-0.600140	-0.014232
N95	N	1.273480	-0.909048	-0.495014
N96	N	1.773480	-0.409048	0.004986
H97	H	1.229112	-0.862901	-0.517133
H98	H	1.729112	-0.362901	-0.017133
H99	H	1.324900	-0.866758	-0.491547
H100	H	1.824900	-0.366758	0.008453
H101	H	1.040693	-1.101744	-0.436782
H102	H	1.540693	-0.601744	0.063218
H103	H	1.299156	-0.917189	-0.369997
H104	H	1.799156	-0.417189	0.130003
N105	N	1.312263	-1.108864	-0.350062
N106	N	1.812263	-0.608864	0.149938
H107	H	1.284958	-1.155442	-0.308863
H108	H	1.784958	-0.655442	0.191137
H109	H	1.355305	-1.150645	-0.378814
H110	H	1.855305	-0.650645	0.121186
H111	H	1.185363	-1.100376	-0.255803
H112	H	1.685363	-0.600376	0.244197
H113	H	1.039980	-0.919049	-0.436397
H114	H	1.539980	-0.419049	0.063603
N115	N	1.059488	-1.108703	-0.279504
N116	N	1.559488	-0.608703	0.220496
H117	H	1.023665	-1.045837	-0.268594
H118	H	1.523665	-0.545837	0.231406
H119	H	1.035704	-1.152479	-0.324333
H120	H	1.535704	-0.652479	0.175667
N121	N	1.200485	-0.909527	-0.240213
N122	N	1.700485	-0.409527	0.259787
H123	H	1.242377	-0.862602	-0.266056
H124	H	1.742377	-0.362602	0.233944
H125	H	1.170142	-0.868100	-0.198085
H126	H	1.670142	-0.368100	0.301915
