data_functionalizedCrystal
_audit_creation_method	'MofGen! by Chris Wilmer'
_symmetry_space_group_name_H-M	'P1'
_symmetry_Int_Tables_number	1
_symmetry_cell_setting	triclinic
loop_
_symmetry_equiv_pos_as_xyz
  x,y,z
_cell_length_a	17.699077
_cell_length_b	17.699092
_cell_length_c	16.776229
_cell_angle_alpha	89.995030
_cell_angle_beta	89.993415
_cell_angle_gamma	83.283472
loop_
_atom_site_label
_atom_site_type_symbol
_atom_site_fract_x
_atom_site_fract_y
_atom_site_fract_z
O1	O	1.004084	0.095691	-0.066275
O2	O	1.504084	0.595691	0.433725
O3	O	0.783706	0.108148	-0.066278
O4	O	1.283706	0.608148	0.433722
O5	O	0.900118	-0.008269	-0.066274
O6	O	1.400118	0.491731	0.433726
O7	O	0.887672	0.212109	-0.066278
O8	O	1.387672	0.712109	0.433722
O9	O	0.900102	-0.008276	0.066302
O10	O	1.400102	0.491724	0.566302
O11	O	0.783690	0.108141	0.066298
O12	O	1.283690	0.608141	0.566298
O13	O	1.004069	0.095684	0.066302
O14	O	1.504069	0.595684	0.566302
Zn15	Zn	0.893877	0.101911	0.087349
Zn16	Zn	1.393877	0.601911	0.587349
Zn17	Zn	0.893897	0.101921	-0.087326
Zn18	Zn	1.393897	0.601921	0.412674
O19	O	0.887656	0.212101	0.066298
O20	O	1.387656	0.712101	0.566298
C21	C	0.755501	0.107699	0.000010
C22	C	1.255501	0.607699	0.500010
C23	C	0.671482	0.106362	0.000008
C24	C	1.171482	0.606362	0.500008
C25	C	0.632007	0.105729	0.072276
C26	C	1.132007	0.605729	0.572276
C27	C	0.553064	0.104460	0.072277
C28	C	1.053064	0.604460	0.572277
C29	C	0.513598	0.103831	0.000009
C30	C	1.013598	0.603831	0.500009
C31	C	0.553080	0.104463	-0.072265
C32	C	1.053080	0.604463	0.427735
C33	C	0.632021	0.105726	-0.072265
C34	C	1.132021	0.605726	0.427735
C35	C	0.234716	0.099370	-0.072266
C36	C	0.734716	0.599370	0.427734
C37	C	0.155768	0.098109	-0.072261
C38	C	0.655768	0.598109	0.427739
C39	C	0.155759	0.098104	0.072276
C40	C	0.655759	0.598104	0.572276
C41	C	0.234701	0.099367	0.072276
C42	C	0.734701	0.599367	0.572276
C43	C	0.274176	0.099994	0.000003
C44	C	0.774176	0.599994	0.500003
C45	C	0.359774	0.101368	0.000002
C46	C	0.859774	0.601368	0.500002
C47	C	0.428000	0.102463	0.000008
C48	C	0.928000	0.602463	0.500008
C49	C	0.899663	-0.036470	0.000013
C50	C	1.399663	0.463530	0.500013
C51	C	0.898322	-0.120487	0.000009
C52	C	1.398322	0.379513	0.500009
C53	C	0.897702	-0.159951	-0.072260
C54	C	1.397702	0.340049	0.427740
C55	C	0.896437	-0.238894	-0.072260
C56	C	1.396437	0.261106	0.427740
C57	C	0.895798	-0.278373	0.000008
C58	C	1.395798	0.221627	0.500008
C59	C	0.896415	-0.238903	0.072282
C60	C	1.396415	0.261097	0.572282
C61	C	0.897675	-0.159961	0.072282
C62	C	1.397675	0.340039	0.572282
C63	C	0.891335	-0.557268	0.072283
C64	C	1.391335	-0.057268	0.572283
C65	C	0.890078	-0.636216	0.072277
C66	C	1.390078	-0.136216	0.572277
C67	C	0.890097	-0.636201	-0.072260
C68	C	1.390097	-0.136201	0.427740
C69	C	0.891357	-0.557259	-0.072259
C70	C	1.391357	-0.057259	0.427741
C71	C	0.891970	-0.517796	0.000014
C72	C	1.391970	-0.017796	0.500014
C73	C	0.893341	-0.432197	0.000014
C74	C	1.393341	0.067803	0.500014
C75	C	0.894433	-0.363971	0.000008
C76	C	1.394433	0.136029	0.500008
C77	C	1.032274	0.096133	0.000012
C78	C	1.532274	0.596133	0.500012
C79	C	1.116292	0.097470	0.000009
C80	C	1.616292	0.597470	0.500009
C81	C	0.888111	0.240302	0.000009
C82	C	1.388111	0.740302	0.500009
C83	C	0.889452	0.324320	0.000008
C84	C	1.389452	0.824320	0.500008
N85	N	0.893869	0.101905	0.206561
N86	N	1.393869	0.601905	0.706561
N87	N	0.893912	0.101922	-0.206537
N88	N	1.393912	0.601922	0.293463
C89	C	0.945432	0.050376	0.248279
C90	C	1.445432	0.550376	0.748279
C91	C	0.945436	0.050375	0.331732
C92	C	1.445436	0.550375	0.831732
C93	C	0.893880	0.101907	0.373464
C94	C	1.393880	0.601907	0.873464
C95	C	0.842312	0.153438	0.331739
C96	C	1.342312	0.653438	0.831739
C97	C	0.842304	0.153435	0.248288
C98	C	1.342304	0.653435	0.748288
C99	C	0.842339	0.153453	0.668286
C100	C	1.342339	0.653453	1.168286
C101	C	0.842352	0.153454	0.751743
C102	C	1.342352	0.653454	1.251743
C103	C	0.945470	0.050394	0.751729
C104	C	1.445470	0.550394	1.251729
C105	C	0.945463	0.050390	0.668279
C106	C	1.445463	0.550390	1.168279
C107	C	0.893892	0.101918	0.626562
C108	C	1.393892	0.601918	1.126562
C109	C	0.893888	0.101917	0.536073
C110	C	1.393888	0.601917	1.036073
C111	C	0.893888	0.101913	0.463950
C112	C	1.393888	0.601913	0.963950
H113	H	0.123637	0.097596	-0.131114
H114	H	0.623637	0.597596	0.368886
H115	H	0.987460	0.008434	0.785705
H116	H	1.487460	0.508434	1.285705
H117	H	0.889594	-0.668341	-0.131108
H118	H	1.389594	-0.168341	0.368892
H119	H	0.987422	0.008416	0.365699
H120	H	1.487422	0.508416	0.865699
O121	O	0.995573	0.000258	0.627865
O122	O	1.495573	0.500258	1.127865
C123	C	1.097883	-0.101942	0.636661
C124	C	1.597883	0.398058	1.136661
C125	C	1.041166	-0.045217	0.682527
C126	C	1.541166	0.454783	1.182527
H127	H	1.134770	-0.138712	0.680836
H128	H	1.634770	0.361288	1.180836
H129	H	1.065312	-0.139764	0.597628
H130	H	1.565312	0.360236	1.097628
H131	H	1.135592	-0.069300	0.597556
H132	H	1.635592	0.430700	1.097556
H133	H	1.003442	-0.077797	0.721676
H134	H	1.503442	0.422203	1.221676
H135	H	1.073784	-0.007396	0.721511
H136	H	1.573784	0.492604	1.221511
O137	O	0.889419	-0.674445	0.142554
O138	O	1.389419	-0.174445	0.642554
C139	C	0.889565	-0.666139	0.285921
C140	C	1.389565	-0.166139	0.785921
C141	C	0.890294	-0.622748	0.206397
C142	C	1.390294	-0.122748	0.706397
H143	H	0.890288	-0.624363	0.337558
H144	H	1.390288	-0.124363	0.837558
H145	H	0.836017	-0.696053	0.289579
H146	H	1.336017	-0.196053	0.789579
H147	H	0.941910	-0.710139	0.289494
H148	H	1.441910	-0.210139	0.789494
H149	H	0.837985	-0.578711	0.202770
H150	H	1.337985	-0.078711	0.702770
H151	H	0.943876	-0.592886	0.202772
H152	H	1.443876	-0.092886	0.702772
O153	O	0.792189	0.203540	0.792159
O154	O	1.292189	0.703540	1.292159
C155	C	0.689924	0.305785	0.783371
C156	C	1.189924	0.805785	1.283371
C157	C	0.746675	0.249098	0.737500
C158	C	1.246675	0.749098	1.237500
H159	H	0.653121	0.342645	0.739199
H160	H	1.153121	0.842645	1.239199
H161	H	0.652136	0.273189	0.822433
H162	H	1.152136	0.773189	1.322433
H163	H	0.722544	0.343525	0.822448
H164	H	1.222544	0.843525	1.322448
H165	H	0.714117	0.211344	0.698379
H166	H	1.214117	0.711344	1.198379
H167	H	0.784462	0.281741	0.698488
H168	H	1.284462	0.781741	1.198488
H169	H	0.800350	0.195410	0.634327
H170	H	1.300350	0.695410	1.134327
H171	H	0.266848	0.099878	-0.131116
H172	H	0.766848	0.599878	0.368884
H173	H	0.800330	0.195394	0.365722
H174	H	1.300330	0.695394	0.865722
H175	H	0.123609	0.097590	0.131125
H176	H	0.623609	0.597590	0.631125
H177	H	0.520941	0.103946	-0.131107
H178	H	1.020941	0.603946	0.368893
H179	H	0.891850	-0.525149	0.131132
H180	H	1.391850	-0.025149	0.631132
H181	H	0.266829	0.099883	0.131124
H182	H	0.766829	0.599883	0.631124
O183	O	0.895829	-0.277372	0.142413
O184	O	1.395829	0.222628	0.642413
C185	C	0.893847	-0.398986	0.206473
C186	C	1.393847	0.101014	0.706473
C187	C	0.894522	-0.355519	0.126991
C188	C	1.394522	0.144481	0.626991
H189	H	0.892774	-0.462173	0.194033
H190	H	1.392774	0.037827	0.694033
H191	H	0.947050	-0.390546	0.242121
H192	H	1.447050	0.109454	0.742121
H193	H	0.841157	-0.376403	0.242113
H194	H	1.341157	0.123597	0.742113
H195	H	0.947176	-0.378074	0.091287
H196	H	1.447176	0.121926	0.591287
H197	H	0.841284	-0.363958	0.091404
H198	H	1.341284	0.136042	0.591404
H199	H	0.800316	0.195394	0.214322
H200	H	1.300316	0.695394	0.714322
H201	H	0.898169	-0.127829	0.131130
H202	H	1.398169	0.372171	0.631130
H203	H	0.664161	0.106243	-0.131113
H204	H	1.164161	0.606243	0.368887
O205	O	0.898288	-0.121717	-0.142534
O206	O	1.398288	0.378283	0.357466
C207	C	0.898216	-0.130049	-0.285899
C208	C	1.398216	0.369951	0.214101
C209	C	0.897536	-0.173437	-0.206370
C210	C	1.397536	0.326563	0.293630
H211	H	0.897624	-0.171848	-0.337532
H212	H	1.397624	0.328152	0.162468
H213	H	0.845847	-0.086085	-0.289569
H214	H	1.345847	0.413915	0.210431
H215	H	0.951741	-0.100092	-0.289470
H216	H	1.451741	0.399908	0.210530
H217	H	0.844046	-0.203440	-0.202746
H218	H	1.344046	0.296560	0.297254
H219	H	0.949941	-0.217358	-0.202734
H220	H	1.449941	0.282642	0.297266
H221	H	0.664133	0.106247	0.131126
H222	H	1.164133	0.606247	0.631126
H223	H	0.520928	0.103932	0.131125
H224	H	1.020928	0.603932	0.631125
O225	O	0.891833	-0.518830	-0.142423
O226	O	1.391833	-0.018830	0.357577
C227	C	0.827588	-0.421087	-0.226322
C228	C	1.327588	0.078913	0.273678
C229	C	0.826997	-0.464525	-0.146815
C230	C	1.326997	0.035475	0.353185
H231	H	0.775166	-0.377184	-0.229906
H232	H	1.275166	0.122816	0.270094
H233	H	0.881069	-0.391071	-0.230011
H234	H	1.381069	0.108929	0.269989
H235	H	0.826942	-0.462896	-0.277939
H236	H	1.326942	0.037104	0.222061
H237	H	0.827615	-0.422767	-0.095152
H238	H	1.327615	0.077233	0.404848
H239	H	0.773520	-0.494553	-0.143196
H240	H	1.273520	0.005447	0.356804
H241	H	0.987417	0.008416	0.214307
H242	H	1.487417	0.508416	0.714307
H243	H	0.895936	-0.271022	-0.131109
H244	H	1.395936	0.228978	0.368891
