data_functionalizedCrystal
_audit_creation_method	'MofGen! by Chris Wilmer'
_symmetry_space_group_name_H-M	'P1'
_symmetry_Int_Tables_number	1
_symmetry_cell_setting	triclinic
loop_
_symmetry_equiv_pos_as_xyz
  x,y,z
_cell_length_a	10.654550
_cell_length_b	17.699083
_cell_length_c	16.776229
_cell_angle_alpha	89.992455
_cell_angle_beta	89.989355
_cell_angle_gamma	83.883958
loop_
_atom_site_label
_atom_site_type_symbol
_atom_site_fract_x
_atom_site_fract_y
_atom_site_fract_z
O1	O	1.665985	0.106304	-0.066355
O2	O	2.165985	0.606304	0.433645
O3	O	1.300329	0.116432	-0.066343
O4	O	1.800329	0.616432	0.433657
O5	O	1.493488	0.001245	-0.066343
O6	O	1.993488	0.501245	0.433657
O7	O	1.472826	0.221492	-0.066356
O8	O	1.972826	0.721492	0.433644
O9	O	1.493462	0.001237	0.066234
O10	O	1.993462	0.501237	0.566234
O11	O	1.300304	0.116425	0.066234
O12	O	1.800304	0.616425	0.566234
O13	O	1.665959	0.106297	0.066221
O14	O	2.165959	0.606297	0.566221
Zn15	Zn	1.483127	0.111360	0.087277
Zn16	Zn	1.983127	0.611360	0.587277
Zn17	Zn	1.483161	0.111369	-0.087399
Zn18	Zn	1.983161	0.611369	0.412601
O19	O	1.472801	0.221484	0.066221
O20	O	1.972801	0.721484	0.566221
C21	C	1.492735	-0.026961	-0.000054
C22	C	1.992735	0.473039	0.499946
C23	C	1.490514	-0.110993	-0.000054
C24	C	1.990514	0.389007	0.499946
C25	C	1.253531	0.115685	-0.000053
C26	C	1.753531	0.615685	0.499947
C27	C	1.114127	0.113460	-0.000048
C28	C	1.614127	0.613460	0.499952
C29	C	1.603894	-0.158893	-0.000057
C30	C	2.103894	0.341107	0.499943
C31	C	1.601799	-0.237850	-0.000063
C32	C	2.101799	0.262150	0.499937
C33	C	1.486324	-0.268905	-0.000062
C34	C	1.986324	0.231095	0.499938
C35	C	1.372935	-0.220998	-0.000062
C36	C	1.872935	0.279002	0.499938
C37	C	1.375031	-0.142043	-0.000060
C38	C	1.875031	0.357957	0.499940
C39	C	1.364481	-0.539415	-0.000068
C40	C	1.864481	-0.039415	0.499932
C41	C	1.362394	-0.618376	-0.000067
C42	C	1.862394	-0.118376	0.499933
C43	C	1.591249	-0.635222	-0.000071
C44	C	2.091249	-0.135222	0.499929
C45	C	1.593345	-0.556266	-0.000070
C46	C	2.093345	-0.056266	0.499930
C47	C	1.479957	-0.508367	-0.000073
C48	C	1.979957	-0.008367	0.499927
C49	C	1.482229	-0.422753	-0.000067
C50	C	1.982229	0.077247	0.499933
C51	C	1.484050	-0.354517	-0.000062
C52	C	1.984050	0.145483	0.499938
C53	C	1.033454	0.181281	-0.000064
C54	C	1.533454	0.681281	0.499936
C55	C	0.902470	0.179185	-0.000077
C56	C	1.402470	0.679185	0.499923
C57	C	0.932845	0.041443	-0.000063
C58	C	1.432845	0.541443	0.499937
C59	C	1.063826	0.043539	-0.000043
C60	C	1.563826	0.543539	0.499957
C61	C	1.083755	0.251201	-0.000068
C62	C	1.583755	0.751201	0.499932
C63	C	1.003081	0.319027	-0.000085
C64	C	1.503081	0.819027	0.499915
C65	C	0.872097	0.316932	-0.000098
C66	C	1.372097	0.816932	0.499902
C67	C	0.821787	0.247011	-0.000095
C68	C	1.321787	0.747011	0.499905
C69	C	1.712757	0.107044	-0.000071
C70	C	2.212757	0.607044	0.499929
C71	C	1.852161	0.109269	-0.000081
C72	C	2.352161	0.609269	0.499919
C73	C	1.473554	0.249690	-0.000069
C74	C	1.973554	0.749690	0.499931
C75	C	1.475775	0.333722	-0.000075
C76	C	1.975775	0.833722	0.499925
N77	N	1.483114	0.111353	0.206488
N78	N	1.983114	0.611353	0.706488
N79	N	1.483185	0.111370	-0.206610
N80	N	1.983185	0.611370	0.293390
C81	C	1.568670	0.060369	0.248205
C82	C	2.068670	0.560369	0.748205
C83	C	1.568677	0.060368	0.331657
C84	C	2.068677	0.560368	0.831657
C85	C	1.483133	0.111356	0.373391
C86	C	1.983133	0.611356	0.873391
C87	C	1.397567	0.162342	0.331668
C88	C	1.897567	0.662342	0.831668
C89	C	1.397555	0.162338	0.248217
C90	C	1.897555	0.662338	0.748217
C91	C	1.397612	0.162357	0.668215
C92	C	1.897612	0.662357	1.168215
C93	C	1.397633	0.162358	0.751671
C94	C	1.897633	0.662358	1.251671
C95	C	1.568735	0.060387	0.751655
C96	C	2.068735	0.560387	1.251655
C97	C	1.568723	0.060384	0.668205
C98	C	2.068723	0.560384	1.168205
C99	C	1.483153	0.111367	0.626489
C100	C	1.983153	0.611367	1.126489
C101	C	1.483145	0.111366	0.536000
C102	C	1.983145	0.611366	1.036000
C103	C	1.483146	0.111361	0.463878
C104	C	1.983146	0.611361	0.963878
H105	H	1.697927	-0.133615	-0.000053
H106	H	2.197927	0.366385	0.499947
Cl107	Cl	1.066326	0.406923	-0.000080
Cl108	Cl	1.566326	0.906923	0.499920
Cl109	Cl	1.221935	-0.479209	-0.000075
Cl110	Cl	1.721935	0.020791	0.499925
H111	H	1.327885	0.203853	0.214252
H112	H	1.827885	0.703853	0.714252
H113	H	1.638336	0.018852	0.214231
H114	H	2.138336	0.518852	0.714231
Cl115	Cl	1.227764	-0.260039	-0.000070
Cl116	Cl	1.727764	0.239961	0.499930
Cl117	Cl	1.232489	-0.081825	-0.000060
Cl118	Cl	1.732489	0.418175	0.499940
Cl119	Cl	0.869595	-0.046451	-0.000063
Cl120	Cl	1.369595	0.453549	0.499937
H121	H	1.694125	-0.276847	-0.000064
H122	H	2.194125	0.223153	0.499936
Cl123	Cl	1.738520	-0.517231	-0.000074
Cl124	Cl	2.238520	-0.017231	0.499926
Cl125	Cl	1.290082	0.226461	0.804136
Cl126	Cl	1.790082	0.726461	1.304136
Cl127	Cl	1.733797	-0.695443	-0.000069
Cl128	Cl	2.233797	-0.195443	0.499931
H129	H	1.268354	-0.643658	-0.000064
H130	H	1.768354	-0.143658	0.499936
H131	H	1.190407	0.252915	-0.000061
H132	H	1.690407	0.752915	0.499939
H133	H	1.327941	0.203871	0.634256
H134	H	1.827941	0.703871	1.134256
Cl135	Cl	1.676306	-0.003710	0.804102
Cl136	Cl	2.176306	0.496290	1.304102
H137	H	0.806415	0.372160	-0.000104
H138	H	1.306415	0.872160	0.499896
H139	H	1.638343	0.018853	0.365623
H140	H	2.138343	0.518853	0.865623
Cl141	Cl	0.657119	0.244380	-0.000101
Cl142	Cl	1.157119	0.744380	0.499899
Cl143	Cl	1.676271	-0.003714	0.615743
Cl144	Cl	2.176271	0.496286	1.115743
H145	H	1.129513	-0.011686	-0.000033
H146	H	1.629513	0.488314	0.499967
H147	H	1.327909	0.203854	0.365652
H148	H	1.827909	0.703854	0.865652
