data_functionalizedCrystal
_audit_creation_method	'MofGen! by Chris Wilmer'
_symmetry_space_group_name_H-M	'P1'
_symmetry_Int_Tables_number	1
_symmetry_cell_setting	triclinic
loop_
_symmetry_equiv_pos_as_xyz
  x,y,z
_cell_length_a	12.645323
_cell_length_b	19.077105
_cell_length_c	19.077068
_cell_angle_alpha	90.115316
_cell_angle_beta	87.733562
_cell_angle_gamma	92.319668
loop_
_atom_site_label
_atom_site_type_symbol
_atom_site_fract_x
_atom_site_fract_y
_atom_site_fract_z
Zn1	Zn	-0.683166	-1.063015	0.322970
Zn2	Zn	-0.183166	-0.563015	0.822970
Zn3	Zn	-0.512700	-1.058196	0.440482
Zn4	Zn	-0.012700	-0.558196	0.940482
Zn5	Zn	-0.498524	-0.945501	0.318268
Zn6	Zn	0.001476	-0.445501	0.818268
Zn7	Zn	-0.682529	-0.940750	0.435712
Zn8	Zn	-0.182529	-0.440750	0.935712
O9	O	-0.594230	-1.001866	0.379358
O10	O	-0.094230	-0.501866	0.879358
O11	O	-0.666752	-1.160708	0.342523
O12	O	-0.166752	-0.660708	0.842523
O13	O	-0.362472	-1.043218	0.424298
O14	O	0.137528	-0.543218	0.924298
O15	O	-0.517352	-0.965094	0.220562
O16	O	-0.017352	-0.465094	0.720562
O17	O	-0.541511	-1.157167	0.428858
O18	O	-0.041511	-0.657167	0.928858
O19	O	-0.653007	-1.051432	0.224017
O20	O	-0.153007	-0.551432	0.724017
O21	O	-0.352057	-0.960421	0.334508
O22	O	0.147943	-0.460421	0.834508
O23	O	-0.516734	-0.846539	0.329883
O24	O	-0.016734	-0.346539	0.829883
O25	O	-0.830961	-0.956998	0.420729
O26	O	-0.330961	-0.456998	0.920729
O27	O	-0.651922	-0.843049	0.416168
O28	O	-0.151922	-0.343049	0.916168
O29	O	-0.831429	-1.046826	0.337898
O30	O	-0.331429	-0.546826	0.837898
O31	O	-0.540894	-1.038612	0.538179
O32	O	-0.040894	-0.538612	1.038179
O33	O	-0.665667	-0.952325	0.534675
O34	O	-0.165667	-0.452325	1.034675
C35	C	-0.582721	-0.819298	0.371998
C36	C	-0.082721	-0.319298	0.871998
C37	C	-0.577824	-0.741194	0.368866
C38	C	-0.077824	-0.241194	0.868866
C39	C	-0.604774	-0.994449	0.561923
C40	C	-0.104774	-0.494449	1.061923
C41	C	-0.609324	-0.991340	0.640028
C42	C	-0.109324	-0.491340	1.140028
C43	C	-0.870735	-1.001920	0.379306
C44	C	-0.370735	-0.501920	0.879306
C45	C	-0.988566	-1.001943	0.379283
C46	C	-0.488566	-0.501943	0.879283
C47	C	-1.155810	-0.945275	0.431130
C48	C	-0.655810	-0.445275	0.931130
C49	C	-1.033274	-0.945407	0.431403
C50	C	-0.533274	-0.445407	0.931403
C51	C	-1.038903	-1.075172	0.402359
C52	C	-0.538903	-0.575172	0.902359
C53	C	-1.161502	-1.074859	0.402686
C54	C	-0.661502	-0.574859	0.902686
C55	C	-1.150272	-0.986093	0.304087
C56	C	-0.650272	-0.486093	0.804087
C57	C	-1.027587	-0.984423	0.304467
C58	C	-0.527587	-0.484423	0.804467
C59	C	-0.318800	-1.001854	0.379361
C60	C	0.181200	-0.501854	0.879361
C61	C	-0.200967	-1.001976	0.379191
C62	C	0.299033	-0.501976	0.879191
C63	C	-0.605784	-1.185147	0.386747
C64	C	-0.105784	-0.685147	0.886747
C65	C	-0.610708	-1.263250	0.389896
C66	C	-0.110708	-0.763250	0.889896
C67	C	-0.645805	-0.702699	0.412387
C68	C	-0.145805	-0.202699	0.912387
C69	C	-0.641208	-0.629312	0.409436
C70	C	-0.141208	-0.129312	0.909436
C71	C	-0.568624	-0.594421	0.362966
C72	C	-0.068624	-0.094421	0.862966
C73	C	-0.500640	-0.632922	0.319440
C74	C	-0.000640	-0.132922	0.819440
C75	C	-0.505242	-0.706307	0.322389
C76	C	-0.005242	-0.206307	0.822389
C77	C	-0.547326	-0.375136	0.349319
C78	C	-0.047326	0.124864	0.849319
C79	C	-0.542726	-0.301745	0.346375
C80	C	-0.042726	0.198255	0.846375
C81	C	-0.683297	-0.298140	0.436370
C82	C	-0.183297	0.201860	0.936370
C83	C	-0.687889	-0.371527	0.439317
C84	C	-0.187889	0.128473	0.939317
C85	C	-0.619909	-0.410021	0.395789
C86	C	-0.119909	0.089979	0.895789
N87	N	-0.563921	-0.519408	0.359949
N88	N	-0.063921	-0.019408	0.859949
N89	N	-0.624617	-0.485033	0.398803
N90	N	-0.124617	0.014967	0.898803
C91	C	-0.583669	-1.009331	0.196080
C92	C	-0.083669	-0.509331	0.696080
C93	C	-0.579169	-1.012512	0.117979
C94	C	-0.079169	-0.512512	0.617979
C95	C	-0.546557	-1.034839	0.678525
C96	C	-0.046557	-0.534839	1.178525
C97	C	-0.550844	-1.031920	0.751912
C98	C	-0.050844	-0.531920	1.251912
C99	C	-0.617891	-0.985497	0.786802
C100	C	-0.117891	-0.485497	1.286802
C101	C	-0.680665	-0.941996	0.748301
C102	C	-0.180665	-0.441996	1.248301
C103	C	-0.676384	-0.944919	0.674914
C104	C	-0.176384	-0.444919	1.174914
C105	C	-0.637661	-0.971934	1.006091
C106	C	-0.137661	-0.471934	1.506091
C107	C	-0.641935	-0.969013	1.079482
C108	C	-0.141935	-0.469013	1.579482
C109	C	-0.512115	-1.058938	1.083089
C110	C	-0.012115	-0.558938	1.583089
C111	C	-0.507835	-1.061855	1.009701
C112	C	-0.007835	-0.561855	1.509701
C113	C	-0.570612	-1.018356	0.971206
C114	C	-0.070612	-0.518356	1.471206
N115	N	-0.622272	-0.982510	0.861816
N116	N	-0.122272	-0.482510	1.361816
N117	N	-0.566237	-1.021347	0.896193
N118	N	-0.066237	-0.521347	1.396193
H119	H	-0.998993	-0.891011	0.416618
H120	H	-0.498993	-0.391011	0.916618
H121	H	-1.012348	-1.089281	0.456791
H122	H	-0.512348	-0.589281	0.956791
H123	H	-0.735262	-0.904200	0.776714
H124	H	-0.235262	-0.404200	1.276714
Br125	Br	-0.426927	-1.117972	1.135336
Br126	Br	0.073073	-0.617972	1.635336
H127	H	-1.176781	-0.933783	0.283634
H128	H	-0.676781	-0.433783	0.783634
Br129	Br	-1.211733	-1.147350	0.342594
Br130	Br	-0.711733	-0.647350	0.842594
H131	H	-0.696565	-0.597972	0.444876
H132	H	-0.196565	-0.097972	0.944876
Br133	Br	-0.991028	-0.962517	0.524092
Br134	Br	-0.491028	-0.462517	1.024092
H135	H	-1.194263	-1.088671	0.457677
H136	H	-0.694263	-0.588671	0.957677
Br137	Br	-0.455549	-1.097839	0.631181
Br138	Br	0.044451	-0.597839	1.131181
H139	H	-0.499732	-1.067341	0.783253
H140	H	0.000268	-0.567341	1.283253
H141	H	-0.441544	-0.604508	0.281601
H142	H	0.058456	-0.104508	0.781601
H143	H	-0.746993	-0.399930	0.477159
H144	H	-0.246993	0.100070	0.977159
H145	H	-1.010180	-1.118420	0.365857
H146	H	-0.510180	-0.618420	0.865857
H147	H	-0.688775	-0.936515	0.974754
H148	H	-0.188775	-0.436515	1.474754
H149	H	-1.179448	-1.027428	0.265354
H150	H	-0.679448	-0.527428	0.765354
Br151	Br	-0.971935	-0.894621	0.275554
Br152	Br	-0.471935	-0.394621	0.775554
H153	H	-0.449890	-0.737649	0.286946
H154	H	0.050110	-0.237649	0.786946
Br155	Br	-0.976330	-1.048633	0.236157
Br156	Br	-0.476330	-0.548633	0.736157
Br157	Br	-0.761577	-0.885887	0.622668
Br158	Br	-0.261577	-0.385887	1.122668
H159	H	-1.190573	-0.955408	0.486396
H160	H	-0.690573	-0.455408	0.986396
H161	H	-0.704908	-0.731101	0.450230
H162	H	-0.204908	-0.231101	0.950230
Br163	Br	-0.416852	-1.124869	0.962355
Br164	Br	0.083148	-0.624869	1.462355
H165	H	-0.738644	-0.266791	0.471807
H166	H	-0.238644	0.233209	0.971807
Br167	Br	-0.732916	-0.905994	1.126832
Br168	Br	-0.232916	-0.405994	1.626832
Br169	Br	-0.455072	-0.427368	0.290241
Br170	Br	0.044928	0.072632	0.790241
Br171	Br	-1.197949	-0.854326	0.406675
Br172	Br	-0.697949	-0.354326	0.906675
Br173	Br	-0.444201	-0.254393	0.283312
Br174	Br	0.055799	0.245607	0.783312
