data_functionalizedCrystal
_audit_creation_method	'MofGen! by Chris Wilmer'
_symmetry_space_group_name_H-M	'P1'
_symmetry_Int_Tables_number	1
_symmetry_cell_setting	triclinic
loop_
_symmetry_equiv_pos_as_xyz
  x,y,z
_cell_length_a	10.723024
_cell_length_b	10.723023
_cell_length_c	9.798715
_cell_angle_alpha	89.997946
_cell_angle_beta	90.003781
_cell_angle_gamma	95.532291
loop_
_atom_site_label
_atom_site_type_symbol
_atom_site_fract_x
_atom_site_fract_y
_atom_site_fract_z
O1	O	-1.657186	0.175025	-0.113498
O2	O	-1.294034	0.191778	-0.113498
O3	O	-1.483987	0.001825	-0.113493
O4	O	-1.467233	0.364978	-0.113502
O5	O	-1.483974	0.001824	0.113489
O6	O	-1.294021	0.191777	0.113485
O7	O	-1.657173	0.175024	0.113484
Zn8	Zn	-1.475595	0.183400	0.149523
Zn9	Zn	-1.475612	0.183402	-0.149536
O10	O	-1.467220	0.364976	0.113480
C11	C	-1.247528	0.190558	-0.000007
C12	C	-1.108973	0.186911	-0.000007
C13	C	-1.033991	0.293198	-0.000009
C14	C	-0.890787	0.289431	-0.000009
C15	C	-1.482762	-0.044675	-0.000004
C16	C	-1.479114	-0.183229	-0.000009
C17	C	-1.477481	-0.245008	0.117572
C18	C	-1.473712	-0.388211	0.117569
C19	C	-0.703679	0.176243	-0.000007
C20	C	-0.842234	0.179891	-0.000007
C21	C	-1.468445	0.411477	-0.000012
C22	C	-1.472093	0.550031	-0.000016
N23	N	-1.475592	0.183398	0.353623
N24	N	-1.475625	0.183394	-0.353636
C25	C	-1.555546	0.103469	0.578556
C26	C	-1.555529	0.103471	0.421393
H27	H	-0.826354	0.380421	-0.000017
H28	H	-1.623987	0.035045	0.636852
C29	C	-0.929269	0.056957	-0.000000
N30	N	-0.994833	-0.035637	0.000008
C31	C	-1.647961	0.011018	0.342619
N32	N	-1.717582	-0.058622	0.283282
C33	C	-1.479356	-0.173242	0.253575
N34	N	-1.480764	-0.119189	0.356016
C35	C	-1.471811	-0.459981	0.253570
N36	N	-1.470380	-0.514041	0.356009
C37	C	-1.383144	0.275842	0.432388
N38	N	-1.313512	0.345472	0.491725
H39	H	-1.407193	0.251827	0.588067
H40	H	-1.075812	0.386984	-0.000004
C41	C	-1.473993	-0.378207	-0.136021
N42	N	-1.475427	-0.324148	-0.238461
H43	H	-1.477728	-0.236356	-0.100676
H44	H	-1.067152	0.093125	-0.000039
