data_functionalizedCrystal
_audit_creation_method	'MofGen! by Chris Wilmer'
_symmetry_space_group_name_H-M	'P1'
_symmetry_Int_Tables_number	1
_symmetry_cell_setting	triclinic
loop_
_symmetry_equiv_pos_as_xyz
  x,y,z
_cell_length_a	17.038272
_cell_length_b	15.500227
_cell_length_c	16.109304
_cell_angle_alpha	87.169857
_cell_angle_beta	87.287097
_cell_angle_gamma	93.043705
loop_
_atom_site_label
_atom_site_type_symbol
_atom_site_fract_x
_atom_site_fract_y
_atom_site_fract_z
O1	O	1.040999	0.071827	0.176943
O2	O	1.540999	0.571827	0.676943
O3	O	0.813369	0.071852	0.174075
O4	O	1.313369	0.571852	0.674075
O5	O	0.933436	0.071839	0.054922
O6	O	1.433436	0.571839	0.554922
O7	O	0.920932	0.071840	0.296096
O8	O	1.420932	0.571840	0.796096
O9	O	0.926150	-0.072049	0.062122
O10	O	1.426150	0.427951	0.562122
O11	O	0.806084	-0.072036	0.181275
O12	O	1.306084	0.427964	0.681275
O13	O	1.033713	-0.072061	0.184143
O14	O	1.533713	0.427939	0.684143
Cu15	Cu	0.919233	-0.085186	0.183366
Cu16	Cu	1.419233	0.414814	0.683366
Cu17	Cu	0.927849	0.084978	0.174851
Cu18	Cu	1.427849	0.584978	0.674851
O19	O	0.913646	-0.072048	0.303296
O20	O	1.413646	0.427952	0.803296
C21	C	0.780598	-0.000088	0.175067
C22	C	1.280598	0.499912	0.675067
C23	C	0.693806	-0.000078	0.167288
C24	C	1.193806	0.499922	0.667288
C25	C	0.643692	-0.000079	0.238709
C26	C	1.143692	0.499921	0.738709
C27	C	0.562141	-0.000091	0.231395
C28	C	1.062141	0.499909	0.731395
C29	C	0.530706	-0.000096	0.152660
C30	C	1.030706	0.499904	0.652660
C31	C	0.580826	-0.000098	0.081234
C32	C	1.080826	0.499902	0.581234
C33	C	0.662375	-0.000092	0.088548
C34	C	1.162375	0.499908	0.588548
C35	C	0.284946	-0.000119	0.126818
C36	C	0.784946	0.499881	0.626818
C37	C	0.203391	-0.000122	0.119509
C38	C	0.703391	0.499878	0.619509
C39	C	0.184711	-0.000117	0.269671
C40	C	0.684711	0.499883	0.769671
C41	C	0.266263	-0.000106	0.276979
C42	C	0.766263	0.499894	0.776979
C43	C	0.316376	-0.000112	0.205553
C44	C	0.816376	0.499888	0.705553
C45	C	0.447348	-0.000106	0.145182
C46	C	0.947348	0.499894	0.645182
C47	C	0.399732	-0.000109	0.213032
C48	C	0.899732	0.499891	0.713032
N49	N	0.913178	-0.204871	0.189355
N50	N	1.413178	0.295129	0.689355
C51	C	0.964072	-0.250153	0.138887
C52	C	1.464072	0.249847	0.638887
C53	C	0.959501	-0.340725	0.143425
C54	C	1.459501	0.159275	0.643425
C55	C	0.904038	-0.386014	0.198435
C56	C	1.404038	0.113986	0.698435
C57	C	0.853138	-0.340725	0.248905
C58	C	1.353138	0.159275	0.748905
C59	C	0.857707	-0.250155	0.244363
C60	C	1.357707	0.249845	0.744363
C61	C	0.887579	-0.659479	0.214784
C62	C	1.387579	-0.159479	0.714784
C63	C	0.883016	-0.750056	0.219325
C64	C	1.383016	-0.250056	0.719325
C65	C	0.989378	-0.750050	0.113843
C66	C	1.489378	-0.250050	0.613843
C67	C	0.993945	-0.659477	0.109309
C68	C	1.493945	-0.159477	0.609309
C69	C	0.943043	-0.614197	0.159776
C70	C	1.443043	-0.114197	0.659776
C71	C	0.899365	-0.478593	0.203076
C72	C	1.399365	0.021407	0.703076
C73	C	0.947712	-0.521619	0.155130
C74	C	1.447712	-0.021619	0.655130
C75	C	1.066484	-0.000119	0.183150
C76	C	1.566484	0.499881	0.683150
C77	C	1.153277	-0.000123	0.190930
C78	C	1.653277	0.499877	0.690930
C79	C	0.929286	-0.000103	0.027511
C80	C	1.429286	0.499897	0.527511
C81	C	0.927767	-0.000097	-0.064892
C82	C	1.427767	0.499903	0.435108
N83	N	0.933910	0.204662	0.168856
N84	N	1.433910	0.704662	0.668856
C85	C	0.928228	0.078334	-0.281404
C86	C	1.428228	0.578334	0.218596
C87	C	0.926792	0.078333	-0.368226
C88	C	1.426792	0.578333	0.131774
C89	C	0.918853	-0.078541	-0.360372
C90	C	1.418853	0.421459	0.139628
C91	C	0.920282	-0.078540	-0.273552
C92	C	1.420282	0.421460	0.226448
C93	C	0.924974	-0.000100	-0.234070
C94	C	1.424974	0.499900	0.265930
C95	C	0.922109	-0.000102	-0.407713
C96	C	1.422109	0.499898	0.092287
C97	C	0.920553	-0.000103	-0.501849
C98	C	1.420553	0.499897	-0.001849
C99	C	0.926528	-0.000098	-0.139927
C100	C	1.426528	0.499902	0.360073
C101	C	0.917796	-0.000104	0.330707
C102	C	1.417796	0.499896	0.830707
C103	C	0.919316	-0.000105	0.423110
C104	C	1.419316	0.499895	0.923110
H105	H	0.521341	-0.000090	0.289554
H106	H	1.021341	0.499910	0.789554
C107	C	1.054954	-0.609667	0.048789
C108	C	1.554954	-0.109667	0.548789
N109	N	1.100908	-0.572149	0.003204
N110	N	1.600908	-0.072149	0.503204
C111	C	0.930402	0.164616	-0.420291
C112	C	1.430402	0.664616	0.079709
N113	N	0.933132	0.229609	-0.459507
N114	N	1.433132	0.729609	0.040493
H115	H	0.915035	-0.142404	-0.392529
H116	H	1.415035	0.357596	0.107471
C117	C	0.916702	-0.164827	-0.221481
C118	C	1.416702	0.335173	0.278519
N119	N	0.914003	-0.229816	-0.182262
N120	N	1.414003	0.270184	0.317738
H121	H	0.854207	-0.515475	0.247868
H122	H	1.354207	-0.015475	0.747868
C123	C	0.801725	-0.200345	0.299889
C124	C	1.301725	0.299655	0.799889
N125	N	0.759559	-0.162829	0.341714
N126	N	1.259559	0.337171	0.841714
C127	C	0.300834	-0.000114	0.363594
C128	C	0.800834	0.499886	0.863594
N129	N	0.326873	-0.000122	0.428834
N130	N	0.826873	0.499878	0.928834
C131	C	0.129580	-0.000120	0.348234
C132	C	0.629580	0.499880	0.848234
N133	N	0.088055	-0.000128	0.407412
N134	N	0.588055	0.499872	0.907412
C135	C	0.678262	-0.000074	0.325324
C136	C	1.178262	0.499926	0.825324
N137	N	0.704297	-0.000075	0.390566
N138	N	1.204297	0.499925	0.890566
H139	H	0.846134	-0.622619	0.255878
H140	H	1.346134	-0.122619	0.755878
C141	C	1.015470	-0.390531	0.087884
C142	C	1.515470	0.109469	0.587884
N143	N	1.057621	-0.428045	0.046040
N144	N	1.557621	0.071955	0.546040
C145	C	0.168815	-0.000127	0.032890
C146	C	0.668815	0.499873	0.532890
N147	N	0.142772	-0.000129	-0.032348
N148	N	0.642772	0.499871	0.467652
C149	C	0.340061	-0.000121	0.048247
C150	C	0.840061	0.499879	0.548247
N151	N	0.381576	-0.000121	-0.010938
N152	N	0.881576	0.499879	0.489062
C153	C	1.045360	-0.799866	0.058326
C154	C	1.545360	-0.299866	0.558326
N155	N	1.087526	-0.837387	0.016505
N156	N	1.587526	-0.337387	0.516505
H157	H	0.837849	-0.786926	0.264124
H158	H	1.337849	-0.286926	0.764124
C159	C	0.546244	-0.000105	-0.005376
C160	C	1.046244	0.499895	0.494624
N161	N	0.520199	-0.000108	-0.070613
N162	N	1.020199	0.499892	0.429387
H163	H	0.932045	0.142205	-0.249260
H164	H	1.432045	0.642205	0.250740
H165	H	0.425330	-0.000110	0.277138
H166	H	0.925330	0.499890	0.777138
C167	C	0.717501	-0.000089	0.009980
C168	C	1.217501	0.499911	0.509980
N169	N	0.759021	-0.000089	-0.049201
N170	N	1.259021	0.499911	0.450799
C171	C	0.792121	-0.390546	0.309409
C172	C	1.292121	0.109454	0.809409
N173	N	0.746161	-0.428070	0.354981
N174	N	1.246161	0.071930	0.854981
H175	H	0.421743	-0.000134	0.081076
H176	H	0.921743	0.499866	0.581076
H177	H	1.009239	-0.213285	0.094096
H178	H	1.509239	0.286715	0.594096
H179	H	0.992868	-0.484742	0.110337
H180	H	1.492868	0.015258	0.610337
