data_functionalizedCrystal
_audit_creation_method	'MofGen! by Chris Wilmer'
_symmetry_space_group_name_H-M	'P1'
_symmetry_Int_Tables_number	1
_symmetry_cell_setting	triclinic
loop_
_symmetry_equiv_pos_as_xyz
  x,y,z
_cell_length_a	15.995350
_cell_length_b	15.995350
_cell_length_c	8.965430
_cell_angle_alpha	89.994055
_cell_angle_beta	89.995946
_cell_angle_gamma	83.492375
loop_
_atom_site_label
_atom_site_type_symbol
_atom_site_fract_x
_atom_site_fract_y
_atom_site_fract_z
O1	O	-1.110989	-0.107930	0.123905
O2	O	-0.867214	-0.121258	0.123935
O3	O	-0.995765	0.007294	0.123918
O4	O	-0.982438	-0.236482	0.123923
O5	O	-0.995747	0.007305	-0.124161
O6	O	-0.867196	-0.121246	-0.124144
O7	O	-1.110971	-0.107919	-0.124173
Cu8	Cu	-0.989082	-0.114582	-0.146810
Cu9	Cu	-0.989103	-0.114595	0.146572
O10	O	-0.982420	-0.236470	-0.124156
C11	C	-0.836010	-0.120701	-0.000100
C12	C	-0.743060	-0.119049	-0.000089
C13	C	-0.995205	0.038494	-0.000118
C14	C	-0.993553	0.131444	-0.000110
C15	C	-1.142175	-0.108476	-0.000135
C16	C	-1.235125	-0.110127	-0.000136
C17	C	-0.405312	-0.113117	-0.000120
C18	C	-0.452746	-0.021565	-0.000675
C19	C	-0.549436	-0.023217	-0.000105
C20	C	-0.572873	-0.116060	-0.000105
C21	C	-0.531796	-0.161223	0.141555
C22	C	-0.435160	-0.158923	0.141663
C23	C	-0.434801	-0.160801	-0.140449
C24	C	-0.531746	-0.160779	-0.142311
C25	C	-0.667570	-0.117727	-0.000092
C26	C	-0.310614	-0.111452	-0.000123
N27	N	-0.989119	-0.114599	0.352921
C28	C	-0.982980	-0.267671	-0.000116
C29	C	-0.984631	-0.360621	-0.000115
C30	C	-0.987621	0.469192	-0.000114
C31	C	-0.896069	0.421758	0.000454
C32	C	-0.897721	0.325068	-0.000106
C33	C	-0.990564	0.301631	-0.000111
C34	C	-1.035710	0.342715	-0.141779
C35	C	-1.033410	0.439351	-0.141897
C36	C	-1.035322	0.439696	0.140214
C37	C	-1.035300	0.342751	0.142087
C38	C	-0.992231	0.206934	-0.000114
C39	C	-0.985956	0.563890	-0.000121
N40	N	-0.989073	-0.114571	-0.353159
C41	C	-1.048665	-0.055240	0.549587
C42	C	-0.973074	-0.038844	0.450093
C43	C	-1.064704	-0.130957	0.450207
C44	C	-0.913443	-0.098138	0.549536
C45	C	-1.005123	-0.190284	0.549658
C46	C	-0.929476	-0.173921	0.450210
H47	H	-0.434217	0.015035	-0.102265
C48	C	-0.827043	-0.079324	0.608221
C49	C	-0.747270	-0.138083	0.567742
C50	C	-0.660874	-0.119266	0.626431
C51	C	-0.654251	-0.041692	0.725599
C52	C	-0.734028	0.017072	0.766083
C53	C	-0.820424	-0.001745	0.707394
H54	H	-0.752170	-0.195513	0.494328
H55	H	-0.601819	-0.162767	0.596462
H56	H	-0.590296	-0.027763	0.769044
H57	H	-0.729128	0.074502	0.839498
H58	H	-0.879479	0.041756	0.737364
H59	H	-0.959512	0.025172	0.406360
C60	C	-0.861352	-0.241721	0.391615
C61	C	-0.805402	-0.296449	0.502136
C62	C	-0.737275	-0.364243	0.443536
C63	C	-0.725098	-0.377311	0.274416
C64	C	-0.781050	-0.322582	0.163885
C65	C	-0.849176	-0.254787	0.222485
H66	H	-0.814415	-0.286777	0.627338
H67	H	-0.695856	-0.404757	0.525360
H68	H	-0.674667	-0.427497	0.231037
H69	H	-0.772037	-0.332254	0.038683
H70	H	-0.890595	-0.214273	0.140661
H71	H	-0.547111	-0.228483	-0.150867
H72	H	-1.018708	-0.254281	0.593423
C73	C	-1.116642	0.012598	0.608552
C74	C	-1.188597	-0.012745	0.706861
C75	C	-1.256568	0.055093	0.765829
C76	C	-1.252583	0.148275	0.726487
C77	C	-1.180625	0.173622	0.628173
C78	C	-1.112654	0.105784	0.569205
H79	H	-1.191549	-0.081728	0.735989
H80	H	-1.309836	0.036329	0.838608
H81	H	-1.302900	0.198493	0.770139
H82	H	-1.177673	0.242605	0.599045
H83	H	-1.059386	0.124548	0.496426
C84	C	-0.993330	0.304392	-0.284204
C85	C	-0.953930	0.361175	-0.396842
C86	C	-0.911545	0.322853	-0.539263
C87	C	-0.908560	0.227748	-0.569046
C88	C	-0.947962	0.170959	-0.456406
C89	C	-0.990347	0.209281	-0.313985
H90	H	-0.956139	0.431583	-0.374797
H91	H	-0.882378	0.364893	-0.622647
H92	H	-0.877184	0.199380	-0.674475
H93	H	-0.945753	0.100551	-0.478450
H94	H	-1.019514	0.167241	-0.230601
C95	C	-1.151081	-0.149673	0.391261
C96	C	-1.230740	-0.090439	0.430510
C97	C	-1.317118	-0.109146	0.371570
C98	C	-1.323838	-0.187087	0.273379
C99	C	-1.244177	-0.246326	0.234124
C100	C	-1.157798	-0.227619	0.293065
H101	H	-1.225767	-0.032737	0.503202
H102	H	-1.376089	-0.065293	0.400629
H103	H	-1.387781	-0.200935	0.229747
H104	H	-1.249149	-0.304028	0.161433
H105	H	-1.098828	-0.271472	0.264005
H106	H	-1.005397	0.460231	0.247590
H107	H	-0.403039	-0.228302	-0.141407
H108	H	-0.859632	0.441357	-0.100565
C109	C	-1.127847	0.323611	-0.148945
C110	C	-1.184578	0.357747	-0.279122
C111	C	-1.276711	0.338631	-0.286297
C112	C	-1.312114	0.285378	-0.163294
C113	C	-1.255382	0.251238	-0.033107
C114	C	-1.163249	0.270354	-0.025933
H115	H	-1.158372	0.397172	-0.370184
H116	H	-1.318708	0.363904	-0.382670
H117	H	-1.380316	0.271226	-0.168605
H118	H	-1.281588	0.211814	0.057955
H119	H	-1.121252	0.245082	0.070441
C120	C	-0.426104	0.027538	0.135794
C121	C	-0.333150	0.041465	0.156954
C122	C	-0.306418	0.090512	0.293424
C123	C	-0.372639	0.125633	0.408733
C124	C	-0.465599	0.111707	0.387576
C125	C	-0.492331	0.062659	0.251107
H126	H	-0.284123	0.015465	0.071592
H127	H	-0.237603	0.100820	0.309085
H128	H	-0.352851	0.161940	0.509756
H129	H	-0.514625	0.137706	0.472938
H130	H	-0.561146	0.052351	0.235446
C131	C	-0.587085	0.025043	0.137326
C132	C	-0.575655	0.118658	0.157779
C133	C	-0.613301	0.166919	0.295221
C134	C	-0.662376	0.121565	0.412209
C135	C	-0.673808	0.027944	0.391760
C136	C	-0.636163	-0.020316	0.254318
H137	H	-0.539324	0.152237	0.071174
H138	H	-0.604838	0.236223	0.310358
H139	H	-0.690244	0.157290	0.513952
H140	H	-0.710139	-0.005634	0.478365
H141	H	-0.644626	-0.089621	0.239181
C142	C	-0.391582	-0.249720	0.150386
C143	C	-0.407856	-0.305723	0.284634
C144	C	-0.364280	-0.396516	0.293378
C145	C	-0.304431	-0.431307	0.167874
C146	C	-0.288155	-0.375303	0.033617
C147	C	-0.331731	-0.284510	0.024873
H148	H	-0.452162	-0.279969	0.377548
H149	H	-0.376329	-0.437974	0.392764
H150	H	-0.272174	-0.498518	0.174347
H151	H	-0.243849	-0.401057	-0.059297
H152	H	-0.319682	-0.243052	-0.074514
C153	C	-1.126766	0.321998	0.153642
C154	C	-1.189950	0.348972	0.028310
C155	C	-1.281420	0.328218	0.039850
C156	C	-1.309705	0.280489	0.176722
C157	C	-1.246521	0.253512	0.302065
C158	C	-1.155051	0.274266	0.290524
H159	H	-1.169012	0.384306	-0.073020
H160	H	-1.328193	0.348188	-0.052937
H161	H	-1.377417	0.265125	0.185265
H162	H	-1.267458	0.218178	0.403395
H163	H	-1.108278	0.254296	0.383312
C164	C	-0.988908	0.464087	-0.284943
C165	C	-1.035983	0.525423	-0.397008
C166	C	-0.991477	0.550152	-0.540055
C167	C	-0.899896	0.513547	-0.571037
C168	C	-0.852815	0.452208	-0.458970
C169	C	-0.897321	0.427478	-0.315923
H170	H	-1.103781	0.552523	-0.374075
H171	H	-1.026329	0.595560	-0.623014
H172	H	-0.866950	0.531853	-0.676929
H173	H	-0.785017	0.425107	-0.481902
H174	H	-0.862469	0.382070	-0.232963
H175	H	-0.577858	0.012283	-0.101654
H176	H	-1.102823	0.471457	0.141163
C177	C	-0.550879	-0.253368	0.148688
C178	C	-0.598952	-0.284281	0.282986
C179	C	-0.618037	-0.376425	0.290115
C180	C	-0.589051	-0.437658	0.162945
C181	C	-0.540976	-0.406746	0.028636
C182	C	-0.521890	-0.314602	0.021508
H183	H	-0.620412	-0.238952	0.377134
H184	H	-0.653626	-0.399308	0.389539
H185	H	-0.603179	-0.505869	0.168222
H186	H	-0.519515	-0.452075	-0.065511
H187	H	-0.486302	-0.291719	-0.077917
H188	H	-0.416859	-0.125998	0.247557
H189	H	-0.560178	-0.129864	0.246981
H190	H	-0.414257	-0.130866	-0.247824
H191	H	-0.559055	-0.127811	-0.247111
H192	H	-0.859484	0.440285	0.102047
H193	H	-0.861979	0.297208	-0.101824
H194	H	-1.100626	0.471600	-0.148329
H195	H	-0.862233	0.296641	0.101448
H196	H	-1.002292	0.315497	0.246889
