data_functionalizedCrystal
_audit_creation_method	'MofGen! by Chris Wilmer'
_symmetry_space_group_name_H-M	'P1'
_symmetry_Int_Tables_number	1
_symmetry_cell_setting	triclinic
loop_
_symmetry_equiv_pos_as_xyz
  x,y,z
_cell_length_a	12.837943
_cell_length_b	15.944493
_cell_length_c	11.892095
_cell_angle_alpha	93.894412
_cell_angle_beta	85.689438
_cell_angle_gamma	89.151992
loop_
_atom_site_label
_atom_site_type_symbol
_atom_site_fract_x
_atom_site_fract_y
_atom_site_fract_z
O1	O	1.382038	0.213527	-0.093954
O2	O	1.882038	0.713527	0.406046
O3	O	1.080235	0.202740	-0.093962
O4	O	1.580235	0.702740	0.406038
O5	O	1.239410	0.086517	-0.093967
O6	O	1.739410	0.586517	0.406033
O7	O	1.222863	0.329750	-0.093949
O8	O	1.722863	0.829750	0.406051
O9	O	1.226139	0.096191	0.094041
O10	O	1.726139	0.596191	0.594041
O11	O	1.066964	0.212414	0.094046
O12	O	1.566964	0.712414	0.594046
O13	O	1.368767	0.223201	0.094054
O14	O	1.868767	0.723201	0.594054
Zn15	Zn	1.215758	0.219343	0.123900
Zn16	Zn	1.715758	0.719343	0.623900
Zn17	Zn	1.233244	0.206597	-0.123808
Zn18	Zn	1.733244	0.706597	0.376192
O19	O	1.209592	0.339424	0.094059
O20	O	1.709592	0.839424	0.594059
C21	C	1.034980	0.203933	0.000041
C22	C	1.534980	0.703933	0.500041
C23	C	0.919905	0.193065	0.000037
C24	C	1.419905	0.693065	0.500037
C25	C	0.678920	0.323719	0.000063
C26	C	1.178920	0.823719	0.500063
C27	C	0.570796	0.313512	0.000060
C28	C	1.070796	0.813512	0.500060
C29	C	0.595531	0.162443	0.000037
C30	C	1.095531	0.662443	0.500037
C31	C	0.703655	0.172650	0.000039
C32	C	1.203655	0.672650	0.500039
C33	C	0.745345	0.253291	0.000051
C34	C	1.245345	0.753291	0.500051
C35	C	0.853472	0.263498	0.000045
C36	C	1.353472	0.763498	0.500045
C37	C	0.878203	0.112430	0.000030
C38	C	1.378203	0.612430	0.500030
C39	C	0.770080	0.102222	0.000027
C40	C	1.270080	0.602222	0.500027
C41	C	1.232099	0.060004	0.000032
C42	C	1.732099	0.560004	0.500032
C43	C	1.230072	-0.033407	0.000017
C44	C	1.730072	0.466593	0.500017
C45	C	1.323764	-0.261671	0.000041
C46	C	1.823764	0.238329	0.500041
C47	C	1.279782	-0.321050	-0.092657
C48	C	1.779782	0.178950	0.407343
C49	C	1.226314	-0.204428	0.000031
C50	C	1.726314	0.295572	0.500031
C51	C	1.266675	-0.311490	0.092704
C52	C	1.766675	0.188510	0.592704
C53	C	1.222692	-0.369626	0.000049
C54	C	1.722692	0.130374	0.500049
C55	C	1.182364	-0.262581	-0.092744
C56	C	1.682364	0.237419	0.407256
C57	C	1.169265	-0.253013	0.092701
C58	C	1.669265	0.246987	0.592701
C59	C	1.125213	-0.312366	-0.000021
C60	C	1.625213	0.187634	0.499979
C61	C	1.228404	-0.109262	0.000020
C62	C	1.728404	0.390738	0.500020
C63	C	1.220595	-0.464791	0.000053
C64	C	1.720595	0.035209	0.500053
C65	C	1.414022	0.222008	0.000049
C66	C	1.914022	0.722008	0.500049
C67	C	1.529098	0.232876	0.000045
C68	C	2.029098	0.732876	0.500045
C69	C	1.216904	0.365936	0.000057
C70	C	1.716904	0.865936	0.500057
C71	C	1.218931	0.459347	0.000064
C72	C	1.718931	0.959347	0.500064
N73	N	1.203832	0.228042	0.292955
N74	N	1.703832	0.728042	0.792955
N75	N	1.245178	0.197893	-0.292863
N76	N	1.745178	0.697893	0.207137
C77	C	1.328166	0.137315	0.529599
C78	C	1.828166	0.637315	1.029599
C79	C	1.319838	0.143402	0.647941
C80	C	1.819838	0.643402	1.147941
C81	C	1.178841	0.246298	0.647983
C82	C	1.678841	0.746298	1.147983
C83	C	1.187170	0.240211	0.529641
C84	C	1.687170	0.740211	1.029641
C85	C	1.261836	0.185719	0.470453
C86	C	1.761836	0.685719	0.970453
C87	C	1.270169	0.179636	0.352109
C88	C	1.770169	0.679636	0.852109
C89	C	1.129168	0.282528	0.352153
C90	C	1.629168	0.782528	0.852153
C91	C	1.120840	0.288615	0.470495
C92	C	1.620840	0.788615	0.970495
H93	H	0.736119	0.036567	0.000031
H94	H	1.236119	0.536567	0.500031
O95	O	1.013944	-0.341762	-0.000087
O96	O	1.513944	0.158238	0.499913
H97	H	0.994303	-0.375737	0.076901
H98	H	1.494303	0.124263	0.576901
O99	O	1.040318	0.347391	0.534344
O100	O	1.540318	0.847391	1.034344
H101	H	1.055120	0.412764	0.511626
H102	H	1.555120	0.912764	1.011626
O103	O	1.057612	0.334736	0.288364
O104	O	1.557612	0.834736	0.788364
H105	H	1.075940	0.321346	0.196129
H106	H	1.575940	0.821346	0.696129
H107	H	1.330968	0.135268	0.303919
H108	H	1.830968	0.635268	0.803919
O109	O	0.898445	0.350470	0.000072
O110	O	1.398445	0.850470	0.500072
H111	H	0.834085	0.397728	0.000097
H112	H	1.334085	0.897728	0.500097
O113	O	0.949845	0.036459	0.000023
O114	O	1.449845	0.536459	0.500023
H115	H	1.032036	0.057102	0.000034
H116	H	1.532036	0.557102	0.500034
H117	H	0.516716	0.370862	0.000073
H118	H	1.016716	0.870862	0.500073
O119	O	0.723899	0.410690	0.000077
O120	O	1.223899	0.910690	0.500077
H121	H	0.659542	0.457950	0.000090
H122	H	1.159542	0.957950	0.500090
H123	H	1.407712	-0.239332	-0.000050
H124	H	1.907712	0.260668	0.499950
O125	O	1.341618	-0.360393	-0.196456
O126	O	1.841618	0.139607	0.303544
H127	H	1.423965	-0.340166	-0.196262
H128	H	1.923965	0.159834	0.303738
H129	H	1.122614	-0.223309	0.171072
H130	H	1.622614	0.276691	0.671072
H131	H	1.388969	0.092951	0.481407
H132	H	1.888969	0.592951	0.981407
H133	H	1.373849	0.103985	0.696094
H134	H	1.873849	0.603985	1.196094
H135	H	1.302318	-0.333095	0.171068
H136	H	1.802318	0.166905	0.671068
H137	H	1.146771	-0.241089	-0.171197
H138	H	1.646771	0.258911	0.328803
O139	O	1.098313	0.305069	0.711829
O140	O	1.598313	0.805069	1.211829
H141	H	1.103672	0.301170	0.804056
H142	H	1.603672	0.801170	1.304056
H143	H	0.561561	0.096793	0.000120
H144	H	1.061561	0.596793	0.500120
