data_functionalizedCrystal
_audit_creation_method	'MofGen! by Chris Wilmer'
_symmetry_space_group_name_H-M	'P1'
_symmetry_Int_Tables_number	1
_symmetry_cell_setting	triclinic
loop_
_symmetry_equiv_pos_as_xyz
  x,y,z
_cell_length_a	15.538191
_cell_length_b	13.339070
_cell_length_c	14.184680
_cell_angle_alpha	106.816521
_cell_angle_beta	97.892928
_cell_angle_gamma	98.549306
loop_
_atom_site_label
_atom_site_type_symbol
_atom_site_fract_x
_atom_site_fract_y
_atom_site_fract_z
O1	O	1.185597	0.327897	0.083447
O2	O	0.939194	0.221316	0.083444
O3	O	1.034116	0.411485	0.083443
O4	O	1.090675	0.137728	0.083449
O5	O	1.006028	0.355284	-0.083416
O6	O	0.911106	0.165115	-0.083415
O7	O	1.157509	0.271696	-0.083412
Cu8	Cu	1.031743	0.213274	-0.098649
Cu9	Cu	1.064960	0.279738	0.098681
O10	O	1.062587	0.081527	-0.083410
C11	C	1.010518	0.417566	0.000014
C12	C	0.982041	0.519413	0.000018
C13	C	0.892969	0.182065	0.000015
C14	C	0.797076	0.148849	0.000014
N15	N	1.008386	0.166529	-0.237440
C16	C	0.423040	0.478835	0.000021
C17	C	0.332938	0.447602	0.000023
C18	C	0.356414	0.271920	0.000027
C19	C	0.446519	0.303137	0.000020
C20	C	0.479824	0.406596	0.000019
C21	C	0.503303	0.230898	0.000018
C22	C	0.593401	0.262114	0.000017
C23	C	0.626715	0.365570	0.000018
C24	C	0.569922	0.437813	0.000018
C25	C	0.469997	0.127441	0.000027
C26	C	0.526782	0.055202	0.000024
C27	C	0.616881	0.086416	0.000016
C28	C	0.650194	0.189872	0.000017
C29	C	0.673673	0.014173	0.000016
C30	C	0.763771	0.045390	0.000015
C31	C	0.740292	0.221088	0.000016
C32	C	1.203734	0.310948	0.000020
C33	C	1.299628	0.344166	0.000028
C34	C	1.086185	0.075447	0.000021
C35	C	1.114663	-0.026398	0.000024
C36	C	1.203468	0.965512	0.000020
C37	C	1.230225	0.869822	0.000011
C38	C	1.168181	0.782215	0.000013
C39	C	1.079376	0.790307	0.000024
C40	C	1.052615	0.886004	0.000025
C41	C	1.017328	0.702708	0.000018
C42	C	0.928523	0.710800	0.000028
C43	C	0.901766	0.806488	0.000030
C44	C	0.963810	0.894095	0.000028
C45	C	1.044090	0.607011	0.000017
C46	C	0.893237	0.527503	0.000021
C47	C	0.866479	0.623193	0.000031
C48	C	0.939844	0.029288	-0.395006
C49	C	0.957512	0.064668	-0.289969
C50	C	1.041617	0.233048	-0.289935
C51	C	1.023959	0.197680	-0.394974
C52	C	0.973071	0.095800	-0.447502
C53	C	1.057187	0.264191	-0.447470
C54	C	1.039526	0.228828	-0.552500
C55	C	0.988638	0.126953	-0.605034
C56	C	0.955411	0.060436	-0.552531
C57	C	1.108069	0.366074	-0.394940
C58	C	1.141297	0.432586	-0.447436
C59	C	1.123642	0.397220	-0.552468
C60	C	1.072754	0.295345	-0.605002
C61	C	1.156869	0.463736	-0.604970
C62	C	1.139209	0.428373	-0.710000
C63	C	1.055094	0.259981	-0.710032
N64	N	1.088321	0.326492	0.237473
H65	H	0.767410	0.305333	0.000009
H66	H	1.189973	0.704302	0.000005
H67	H	0.700081	0.390990	0.000031
H68	H	1.116395	0.600433	0.000008
O69	O	1.005577	0.161087	-0.761180
C70	C	0.929401	0.170634	-0.821928
H71	H	0.942120	0.250125	-0.837641
H72	H	0.913454	0.102262	-0.895796
H73	H	0.871031	0.167235	-0.781474
H74	H	0.829454	0.813068	0.000031
H75	H	1.182728	0.515540	-0.404656
H76	H	0.329284	0.187684	0.000032
H77	H	1.302530	0.863240	0.000001
H78	H	0.810005	-0.013438	0.000004
O79	O	0.905843	-0.038469	-0.603524
C80	C	0.821146	-0.046026	-0.577867
H81	H	0.806272	0.037446	-0.548983
H82	H	0.769163	-0.095704	-0.646955
H83	H	0.819511	-0.085931	-0.516919
O84	O	0.971366	0.092446	-0.707061
C85	C	0.919347	-0.011746	-0.742162
H86	H	0.882522	-0.026233	-0.681648
H87	H	0.869417	-0.020885	-0.812438
H88	H	0.964037	-0.072373	-0.760787
O89	O	0.937686	0.986949	-0.000093
C90	C	0.872840	0.968024	-0.086520
H91	H	0.839369	0.879962	-0.115342
H92	H	0.821130	1.019043	-0.067074
H93	H	0.905583	0.989765	-0.147028
O94	O	1.263621	1.050723	0.000057
C95	C	1.220950	1.136903	0.000028
H96	H	1.157796	1.126444	0.031625
H97	H	1.267104	1.214982	0.048464
H98	H	1.203448	1.138973	-0.080024
O99	O	0.780263	0.631233	0.000168
C100	C	0.774824	0.713295	0.086601
H101	H	0.841156	0.771844	0.115411
H102	H	0.720818	0.757222	0.067169
H103	H	0.758100	0.677179	0.147113
H104	H	0.499652	-0.029033	0.000029
O105	O	0.641397	-0.086394	-0.000108
C106	C	0.655978	-0.161322	-0.086539
H107	H	0.713203	-0.123388	-0.115361
H108	H	0.673074	-0.234070	-0.067098
H109	H	0.593450	-0.187097	-0.147045
O110	O	0.277668	0.517642	-0.000114
C111	C	0.210313	0.475753	-0.086544
H112	H	0.202154	0.385100	-0.115355
H113	H	0.145261	0.497532	-0.067107
H114	H	0.229059	0.510754	-0.147056
H115	H	0.930448	0.010498	-0.247233
O116	O	0.833082	0.442324	0.000072
C117	C	0.875740	0.356123	0.000048
H118	H	0.949534	0.387863	0.031636
H119	H	0.845898	0.310682	0.048494
H120	H	0.866282	0.300121	-0.080002
O121	O	0.890361	-0.069692	-0.445885
C122	C	0.864838	-0.120833	-0.377032
H123	H	0.866571	-0.058141	-0.302158
H124	H	0.794760	-0.170291	-0.407399
H125	H	0.912542	-0.175421	-0.365863
O126	O	1.090965	0.332023	-0.238777
C127	C	1.040289	0.392591	-0.178031
H128	H	0.985243	0.336489	-0.162332
H129	H	1.084790	0.445165	-0.104156
H130	H	1.009856	0.445092	-0.218479
H131	H	1.122443	0.394865	-0.309418
H132	H	1.198296	0.546693	-0.562189
H133	H	1.166266	0.482535	-0.752742
H134	H	0.597040	0.522058	0.000010
H135	H	0.396633	0.102029	0.000031
O136	O	0.455263	0.579392	0.000063
C137	C	0.385820	0.636456	0.000035
H138	H	0.330349	0.599093	0.031622
H139	H	0.411800	0.723230	0.048479
H140	H	0.359157	0.633188	-0.080017
