data_functionalizedCrystal
_audit_creation_method	'MofGen! by Chris Wilmer'
_symmetry_space_group_name_H-M	'P1'
_symmetry_Int_Tables_number	1
_symmetry_cell_setting	triclinic
loop_
_symmetry_equiv_pos_as_xyz
  x,y,z
_cell_length_a	19.121063
_cell_length_b	19.121102
_cell_length_c	19.120904
_cell_angle_alpha	89.911827
_cell_angle_beta	94.741613
_cell_angle_gamma	89.873098
loop_
_atom_site_label
_atom_site_type_symbol
_atom_site_fract_x
_atom_site_fract_y
_atom_site_fract_z
Zn1	Zn	-0.343506	-1.039579	-0.456040
Zn2	Zn	0.156494	-0.539579	0.043960
Zn3	Zn	-0.456149	-1.039493	-0.343386
Zn4	Zn	0.043851	-0.539493	0.156614
Zn5	Zn	-0.333518	-0.927792	-0.333417
Zn6	Zn	0.166482	-0.427792	0.166583
Zn7	Zn	-0.455677	-0.917325	-0.455570
Zn8	Zn	0.044323	-0.417325	0.044430
O9	O	-0.397212	-0.981047	-0.397103
O10	O	0.102788	-0.481047	0.102897
O11	O	-0.362826	-1.137479	-0.445465
O12	O	0.137174	-0.637479	0.054535
O13	O	-0.435899	-1.029020	-0.243797
O14	O	0.064101	-0.529020	0.256203
O15	O	-0.236577	-0.947038	-0.345708
O16	O	0.263423	-0.447038	0.154292
O17	O	-0.445584	-1.137415	-0.362699
O18	O	0.054416	-0.637415	0.137301
O19	O	-0.243915	-1.029167	-0.435798
O20	O	0.256085	-0.529167	0.064202
O21	O	-0.345802	-0.946954	-0.236473
O22	O	0.154198	-0.446954	0.263527
O23	O	-0.345345	-0.828493	-0.345252
O24	O	0.154655	-0.328493	0.154748
O25	O	-0.444780	-0.929198	-0.553899
O26	O	0.055220	-0.429198	-0.053899
O27	O	-0.435094	-0.820803	-0.434997
O28	O	0.064906	-0.320803	0.065003
O29	O	-0.362368	-1.019018	-0.554244
O30	O	0.137632	-0.519018	-0.054244
O31	O	-0.554352	-1.018870	-0.362243
O32	O	-0.054352	-0.518870	0.137757
O33	O	-0.554005	-0.929114	-0.444664
O34	O	-0.054005	-0.429114	0.055336
C35	C	-0.389085	-0.799261	-0.388992
C36	C	0.110915	-0.299261	0.111008
C37	C	-0.385626	-0.721490	-0.385539
C38	C	0.114374	-0.221490	0.114461
C39	C	-0.579659	-0.972865	-0.404501
C40	C	-0.079659	-0.472865	0.095499
C41	C	-0.657714	-0.969428	-0.407691
C42	C	-0.157714	-0.469428	0.092309
C43	C	-0.404635	-0.972950	-0.580263
C44	C	0.095365	-0.472950	-0.080263
C45	C	-0.407799	-0.969500	-0.658315
C46	C	0.092201	-0.469500	-0.158315
C47	C	-0.694545	-1.014577	-0.366317
C48	C	-0.194545	-0.514577	0.133683
C49	C	-0.767887	-1.011348	-0.369323
C50	C	-0.267887	-0.511348	0.130677
C51	C	-0.804396	-0.962966	-0.413699
C52	C	-0.304396	-0.462966	0.086301
C53	C	-0.767560	-0.917815	-0.455078
C54	C	-0.267560	-0.417815	0.044922
C55	C	-0.694220	-0.921048	-0.452076
C56	C	-0.194220	-0.421048	0.047924
C57	C	-1.025828	-0.950869	-0.424912
C58	C	-0.525828	-0.450869	0.075088
C59	C	-1.099173	-0.947638	-0.427909
C60	C	-0.599173	-0.447638	0.072091
C61	C	-1.099494	-1.041173	-0.342155
C62	C	-0.599494	-0.541173	0.157845
C63	C	-1.026153	-1.044399	-0.339154
C64	C	-0.526153	-0.544399	0.160846
C65	C	-0.989323	-0.999250	-0.380535
C66	C	-0.489323	-0.499250	0.119465
C67	C	-0.879363	-0.959663	-0.416770
C68	C	-0.379363	-0.459663	0.083230
C69	C	-0.914358	-1.002557	-0.377467
C70	C	-0.414358	-0.502557	0.122533
C71	C	-0.214054	-0.989280	-0.389693
C72	C	0.285946	-0.489280	0.110307
C73	C	-0.136003	-0.992788	-0.386535
C74	C	0.363997	-0.492788	0.113465
C75	C	-0.405372	-1.163544	-0.405246
C76	C	0.094628	-0.663544	0.094754
C77	C	-0.408849	-1.241313	-0.408717
C78	C	0.091151	-0.741313	0.091283
C79	C	-0.430793	-0.680968	-0.430575
C80	C	0.069207	-0.180968	0.069425
C81	C	-0.427534	-0.607894	-0.427334
C82	C	0.072466	-0.107894	0.072666
C83	C	-0.379110	-0.575344	-0.379053
C84	C	0.120890	-0.075344	0.120947
C85	C	-0.333937	-0.615872	-0.334016
C86	C	0.166063	-0.115872	0.165984
C87	C	-0.337194	-0.688944	-0.337261
C88	C	0.162806	-0.188944	0.162739
C89	C	-0.366933	-0.354913	-0.366924
C90	C	0.133067	0.145087	0.133076
C91	C	-0.363681	-0.281835	-0.363681
C92	C	0.136319	0.218165	0.136319
C93	C	-0.457277	-0.273863	-0.457000
C94	C	0.042723	0.226137	0.043000
C95	C	-0.460532	-0.346937	-0.460238
C96	C	0.039468	0.153063	0.039762
C97	C	-0.415357	-0.387458	-0.415203
C98	C	0.084643	0.112542	0.084797
C99	C	-0.375778	-0.500651	-0.375738
C100	C	0.124222	-0.000651	0.124262
C101	C	-0.418686	-0.462149	-0.418523
C102	C	0.081314	0.037851	0.081477
C103	C	-0.366379	-1.014640	-0.695165
C104	C	0.133621	-0.514640	-0.195165
C105	C	-0.369348	-1.011390	-0.768503
C106	C	0.130652	-0.511390	-0.268503
C107	C	-0.413741	-0.963001	-0.804990
C108	C	0.086259	-0.463001	-0.304990
C109	C	-0.455162	-0.917856	-0.768135
C110	C	0.044838	-0.417856	-0.268135
C111	C	-0.452188	-0.921103	-0.694798
C112	C	0.047812	-0.421103	-0.194798
C113	C	-0.424862	-0.950853	-1.026410
C114	C	0.075138	-0.450853	-0.526410
C115	C	-0.427833	-0.947610	-1.099752
C116	C	0.072167	-0.447610	-0.599752
C117	C	-0.342019	-1.041143	-1.100115
C118	C	0.157981	-0.541143	-0.600115
C119	C	-0.339052	-1.044390	-1.026777
C120	C	0.160948	-0.544390	-0.526777
C121	C	-0.380470	-0.999242	-0.989928
C122	C	0.119530	-0.499242	-0.489928
C123	C	-0.416779	-0.959679	-0.879953
C124	C	0.083221	-0.459679	-0.379953
C125	C	-0.377429	-1.002561	-0.914966
C126	C	0.122571	-0.502561	-0.414966
C127	C	-0.389769	-0.989156	-0.214655
C128	C	0.110231	-0.489156	0.285345
C129	C	-0.386414	-0.992751	-0.136602
C130	C	0.113586	-0.492751	0.363398
H131	H	-0.664824	-1.053972	-0.330178
H132	H	-0.164824	-0.553972	0.169822
Br133	Br	-0.306135	-1.080319	-0.645655
Br134	Br	0.193865	-0.580319	-0.145655
H135	H	-0.463985	-0.908204	-1.129457
H136	H	0.036015	-0.408204	-0.629457
Br137	Br	-0.484401	-0.506325	-0.484046
Br138	Br	0.015599	-0.006325	0.015954
H139	H	-0.470228	-0.707464	-0.469888
H140	H	0.029772	-0.207464	0.030112
H141	H	-0.302905	-1.083794	-0.997075
H142	H	0.197095	-0.583794	-0.497075
H143	H	-0.797871	-1.048113	-0.335631
H144	H	-0.297871	-0.548113	0.164369
Br145	Br	-0.481071	-0.889579	-0.976409
Br146	Br	0.018929	-0.389579	-0.476409
Br147	Br	-0.526257	-0.391107	-0.525761
Br148	Br	-0.026257	0.108893	-0.025761
Br149	Br	-0.518585	-0.218867	-0.518113
Br150	Br	-0.018585	0.281133	-0.018113
Br151	Br	-0.310059	-0.456470	-0.310218
Br152	Br	0.189941	0.043530	0.189782
H153	H	-0.909097	-0.920269	-0.452900
H154	H	-0.409097	-0.420269	0.047100
H155	H	-0.341281	-1.041956	-0.885255
H156	H	0.158719	-0.541956	-0.385255
H157	H	-0.464315	-0.574904	-0.464006
H158	H	0.035685	-0.074904	0.035994
H159	H	-0.995847	-0.914106	-0.458605
H160	H	-0.495847	-0.414106	0.041395
Br161	Br	-0.297965	-0.237660	-0.298146
Br162	Br	0.202035	0.262340	0.201854
H163	H	-0.330153	-0.387897	-0.330248
H164	H	0.169847	0.112103	0.169752
H165	H	-0.996429	-1.083795	-0.303019
H166	H	-0.496429	-0.583795	0.196981
H167	H	-0.884631	-1.041952	-0.341339
H168	H	-0.384631	-0.541952	0.158661
Br169	Br	-0.268211	-0.571698	-0.268498
Br170	Br	0.231789	-0.071698	0.231502
Br171	Br	-0.275889	-0.743940	-0.276142
Br172	Br	0.224111	-0.243940	0.223858
H173	H	-0.335622	-1.048150	-0.798503
H174	H	0.164378	-0.548150	-0.298503
H175	H	-0.308298	-1.077899	-1.130125
H176	H	0.191702	-0.577899	-0.630125
H177	H	-0.491305	-0.878454	-0.797848
H178	H	0.008695	-0.378454	-0.297848
Br179	Br	-0.508398	-0.859834	-0.644786
Br180	Br	-0.008398	-0.359834	-0.144786
H181	H	-1.129489	-1.077932	-0.308466
H182	H	-0.629489	-0.577932	0.191534
H183	H	-0.664233	-0.884283	-0.485768
H184	H	-0.164233	-0.384283	0.014232
H185	H	-0.452927	-0.920284	-0.909669
H186	H	0.047073	-0.420284	-0.409669
Br187	Br	-1.148720	-0.881961	-0.488126
Br188	Br	-0.648720	-0.381961	0.011874
H189	H	-0.797292	-0.878424	-0.491213
H190	H	-0.297292	-0.378424	0.008787
