data_functionalizedCrystal
_audit_creation_method	'MofGen! by Chris Wilmer'
_symmetry_space_group_name_H-M	'P1'
_symmetry_Int_Tables_number	1
_symmetry_cell_setting	triclinic
loop_
_symmetry_equiv_pos_as_xyz
  x,y,z
_cell_length_a	14.560438
_cell_length_b	17.917603
_cell_length_c	14.560438
_cell_angle_alpha	89.999707
_cell_angle_beta	60.003556
_cell_angle_gamma	57.010789
loop_
_atom_site_label
_atom_site_type_symbol
_atom_site_fract_x
_atom_site_fract_y
_atom_site_fract_z
Zr1	Zr	0.920676	0.754924	-0.078157
O2	O	1.126283	0.629804	-0.231793
O3	O	0.724788	0.793278	-0.031072
O4	O	0.916383	0.793281	-0.222657
O5	O	0.934687	0.629800	0.110933
O6	O	0.901939	0.922238	-0.215436
O7	O	0.934689	0.629800	-0.040207
O8	O	0.559212	0.922232	0.127276
O9	O	1.277414	0.629807	-0.231779
O10	O	0.790981	0.905877	-0.005586
O11	O	0.801758	0.809638	0.101820
O12	O	1.027335	0.809642	-0.123748
O13	O	1.038112	0.713403	-0.016342
Zr14	Zr	0.897637	0.960596	0.174412
Zr15	Zr	0.897641	0.960596	-0.066640
Zr16	Zr	0.920672	0.754924	0.162896
Zr17	Zr	1.161711	0.754929	-0.078133
Zr18	Zr	0.656601	0.960591	0.174389
O19	O	1.093524	0.922242	0.127327
O20	O	1.093530	0.922242	-0.215418
O21	O	1.126277	0.629804	0.110952
O22	O	0.692029	1.085716	0.328049
O23	O	0.692035	1.085716	-0.014696
O24	O	0.724782	0.793278	0.311674
O25	O	0.883626	1.085720	-0.014678
O26	O	0.901930	0.922239	0.318913
O27	O	0.916373	0.793282	0.311692
O28	O	0.883623	1.085720	0.136463
O29	O	1.259104	0.793288	-0.222624
O30	O	0.559209	0.922232	0.318880
O31	O	0.540899	1.085713	0.328034
O32	O	0.540902	1.085713	0.136430
O33	O	1.277410	0.629807	-0.040174
O34	O	1.259100	0.793288	-0.031020
O35	O	0.790977	0.905877	0.220004
O36	O	0.780200	1.002116	0.112598
O37	O	1.016555	0.905882	-0.005564
O38	O	1.027332	0.809643	0.101842
C39	C	0.607658	0.857754	0.048099
C40	C	0.505332	0.857752	0.048089
C41	C	0.452258	0.786722	-0.039091
C42	C	0.548436	0.786712	-0.039128
C43	C	0.366041	0.928802	0.135356
C44	C	0.269867	0.928807	0.135396
C45	C	0.557563	0.704690	-0.139831
C46	C	0.653741	0.704680	-0.139868
C47	C	0.937970	0.600496	0.033722
C48	C	0.947749	0.513183	0.028833
C49	C	0.965612	0.353340	0.019904
C50	C	0.852707	0.362173	0.076349
C51	C	0.862646	0.273231	0.071381
C52	C	0.955675	0.442289	0.024871
C53	C	1.210655	0.857766	0.048157
C54	C	1.312981	0.857768	0.048167
C55	C	0.909161	0.857760	-0.253392
C56	C	0.909163	0.857760	-0.355725
C57	C	0.880343	1.115023	0.062534
C58	C	0.870564	1.202336	0.067423
C59	C	1.032536	0.807522	-0.465480
C60	C	1.032529	0.807525	-0.561629
C61	C	0.785767	0.908004	-0.438252
C62	C	0.785774	0.908006	-0.342106
C63	C	1.175003	0.749508	-0.536712
C64	C	1.174997	0.749511	-0.632861
C65	C	0.909151	0.857760	0.349647
C66	C	0.909149	0.857760	0.451980
C67	C	0.578844	1.115018	0.062505
C68	C	0.466739	1.202329	0.067384
C69	C	0.607653	0.857754	0.349618
C70	C	0.505325	0.857752	0.451941
C71	C	0.578839	1.115018	0.364024
C72	C	0.466733	1.202329	0.471236
C73	C	1.239473	0.600502	-0.267768
C74	C	1.351580	0.513191	-0.374981
C75	C	1.239468	0.600502	0.033751
C76	C	1.351573	0.513191	0.028872
C77	C	1.210660	0.857766	-0.253362
C78	C	1.312987	0.857767	-0.355685
C79	C	0.419721	1.193095	0.007975
C80	C	0.314401	1.275125	0.012536
C81	C	0.256094	1.366388	0.076515
C82	C	0.303122	1.375619	0.135926
C83	C	0.408447	1.293590	0.131357
C84	C	0.408460	1.293575	0.465520
C85	C	0.303136	1.375621	0.566249
C86	C	0.256081	1.366418	0.672692
C87	C	0.314364	1.275162	0.678406
C88	C	0.419692	1.193118	0.577678
C89	C	1.409865	0.421944	-0.369264
C90	C	1.515218	0.339899	-0.469993
C91	C	1.562278	0.349101	-0.576437
C92	C	1.503989	0.440358	-0.582150
C93	C	1.398644	0.522401	-0.481423
C94	C	1.398601	0.522425	0.088271
C95	C	1.503948	0.440395	0.083683
C96	C	1.562258	0.349132	0.019701
C97	C	1.515226	0.339900	-0.039705
C98	C	1.409888	0.421929	-0.035123
C99	C	0.451619	0.907989	0.561704
C100	C	0.355477	0.907979	0.657843
C101	C	0.366753	0.807496	0.534443
C102	C	0.462900	0.807500	0.438306
C103	C	0.445104	0.966006	0.632949
C104	C	0.348962	0.965996	0.729088
H105	H	0.156462	0.986652	0.206458
C106	C	0.712037	0.462630	0.146666
N107	N	0.606089	0.538295	0.199622
H108	H	0.715937	0.711748	-0.221599
H109	H	1.235798	0.672696	-0.689352
H110	H	0.467126	1.118824	0.582348
H111	H	1.542224	0.447931	0.132064
H112	H	1.069729	0.278985	-0.032149
H113	H	0.446716	1.301122	0.179742
H114	H	0.330952	0.986638	0.206375
H115	H	1.648031	0.282347	0.015980
H116	H	1.223602	0.781774	-0.534923
H117	H	1.371555	0.414433	-0.282603
H118	H	0.685311	0.948925	-0.252740
C119	C	1.358154	0.411756	-0.100457
N120	N	1.319192	0.404086	-0.149669
C121	C	0.460207	1.303722	0.348442
N122	N	0.499183	1.311373	0.260262
H123	H	0.685308	0.948913	-0.427178
H124	H	1.562718	0.265583	-0.091798
H125	H	1.351133	0.596728	0.140380
C126	C	1.243245	0.649170	-0.530531
N127	N	1.294646	0.573594	-0.525876
H128	H	0.467193	1.118791	-0.044137
H129	H	1.351189	0.596696	-0.486090
H130	H	0.170315	1.433232	0.754702
H131	H	0.576237	0.634626	-0.135459
C132	C	0.215723	1.069763	0.805404
N133	N	0.115369	1.147917	0.862883
C134	C	0.521983	0.752229	0.317566
N135	N	0.566484	0.710597	0.226622
C136	C	0.320071	0.752225	0.519457
N137	N	0.284908	0.710596	0.508168
H138	H	0.555932	0.719029	-0.215484
H139	H	1.212899	0.787787	-0.681636
H140	H	1.562661	0.265602	-0.465319
H141	H	0.276125	1.267589	-0.035844
H142	H	0.255634	1.449937	0.188015
H143	H	0.389377	0.927726	0.777871
H144	H	0.170332	1.433173	0.080226
C145	C	0.262577	1.265055	0.795505
N146	N	0.223560	1.257445	0.883708
C147	C	0.239031	1.475994	0.559938
N148	N	0.190747	1.551592	0.555182
C149	C	1.678152	0.258841	-0.687230
N150	N	1.765423	0.190853	-0.770676
C151	C	1.555759	0.450465	-0.699250
N152	N	1.594748	0.458075	-0.787452
C153	C	0.744261	0.616514	-0.122155
N154	N	0.812447	0.550105	-0.108821
H155	H	0.538725	0.933742	0.631168
C156	C	0.385061	1.066345	0.626769
N157	N	0.339836	1.141920	0.622113
