data_functionalizedCrystal
_audit_creation_method	'MofGen! by Chris Wilmer'
_symmetry_space_group_name_H-M	'P1'
_symmetry_Int_Tables_number	1
_symmetry_cell_setting	triclinic
loop_
_symmetry_equiv_pos_as_xyz
  x,y,z
_cell_length_a	6.394989
_cell_length_b	11.026607
_cell_length_c	9.482900
_cell_angle_alpha	101.363848
_cell_angle_beta	80.390180
_cell_angle_gamma	97.541864
loop_
_atom_site_label
_atom_site_type_symbol
_atom_site_fract_x
_atom_site_fract_y
_atom_site_fract_z
O1	O	-0.853991	-1.642135	-0.120875
O2	O	-0.753816	-1.287297	-0.120879
O3	O	-0.501733	-1.469753	-0.120878
O4	O	-1.106074	-1.459679	-0.120876
O5	O	-0.553199	-1.432696	0.120914
O6	O	-0.805282	-1.250240	0.120913
O7	O	-0.905458	-1.605078	0.120917
Cu8	Cu	-0.860069	-1.424275	0.142993
Cu9	Cu	-0.799204	-1.468099	-0.142955
O10	O	-1.157541	-1.422622	0.120916
C11	C	-0.761068	-1.223275	0.000016
C12	C	-0.705977	-1.087719	0.000014
C13	C	-0.898204	-1.669100	0.000019
C14	C	-0.953293	-1.804658	0.000011
N15	N	-0.902881	-1.393461	0.344113
C16	C	-0.448894	-1.449233	0.000013
C17	C	-0.210371	-1.443147	0.000011
N18	N	-0.756380	-1.498923	-0.344074
C19	C	-0.858092	-1.016240	0.000014
C20	C	-0.801156	-0.876135	0.000012
C21	C	-0.811817	-1.459002	0.416312
C22	C	-0.847457	-1.433373	0.583730
H23	H	-1.030475	-1.058766	0.000023
C24	C	-0.568267	-0.818703	0.000003
H25	H	-0.560548	-0.732073	-0.000010
H26	H	-0.518226	-0.831373	0.084317
H27	H	-0.482354	-0.857221	-0.084331
H28	H	-0.533588	-1.045197	-0.000024
C29	C	-0.615399	-1.600364	0.572022
H30	H	-0.562878	-1.638153	0.639031
H31	H	-0.697322	-1.661504	0.512627
H32	H	-0.498989	-1.564005	0.512658
C33	C	-1.186187	-0.862081	0.000017
H34	H	-1.274238	-0.799064	0.000027
H35	H	-1.196064	-0.924223	-0.084297
H36	H	-1.231948	-0.898367	0.084351
H37	H	-0.707459	-1.534084	0.354185
H38	H	-0.951802	-1.358277	0.645854
H39	H	-1.007219	-1.318370	0.406242
