data_functionalizedCrystal
_audit_creation_method	'MofGen! by Chris Wilmer'
_symmetry_space_group_name_H-M	'P1'
_symmetry_Int_Tables_number	1
_symmetry_cell_setting	triclinic
loop_
_symmetry_equiv_pos_as_xyz
  x,y,z
_cell_length_a	11.792241
_cell_length_b	16.109311
_cell_length_c	15.186229
_cell_angle_alpha	89.994947
_cell_angle_beta	89.999155
_cell_angle_gamma	96.170438
loop_
_atom_site_label
_atom_site_type_symbol
_atom_site_fract_x
_atom_site_fract_y
_atom_site_fract_z
O1	O	-1.505913	0.113953	-0.073146
O2	O	-1.175470	0.125697	-0.073167
O3	O	-1.349763	-0.001163	-0.073147
O4	O	-1.331620	0.240812	-0.073166
O5	O	-1.349751	-0.001165	0.073310
O6	O	-1.175458	0.125695	0.073291
O7	O	-1.505902	0.113951	0.073311
Zn8	Zn	-1.340678	0.119823	0.096554
Zn9	Zn	-1.340693	0.119825	-0.096410
O10	O	-1.331609	0.240811	0.073292
C11	C	-1.133180	0.124958	0.000059
C12	C	-1.007185	0.122750	0.000052
C13	C	-1.548192	0.114689	0.000083
C14	C	-1.674187	0.116897	0.000085
C15	C	-1.349020	-0.032142	0.000082
C16	C	-1.346811	-0.124447	0.000083
C17	C	-0.776508	0.118690	0.000077
C18	C	-0.904874	0.120946	0.000063
N19	N	-1.340676	0.119820	0.228247
C20	C	-1.332351	0.271790	0.000061
C21	C	-1.334561	0.364095	0.000054
C22	C	-1.341739	0.663201	-0.079764
C23	C	-1.339659	0.576471	-0.079769
C24	C	-1.339630	0.576453	0.079907
C25	C	-1.341702	0.663182	0.079911
C26	C	-1.342762	0.706554	0.000074
C27	C	-1.338610	0.533094	0.000063
C28	C	-1.336354	0.439057	0.000058
C29	C	-1.345015	0.800597	0.000079
N30	N	-1.340705	0.119821	-0.228102
C31	C	-1.417879	0.063666	0.453978
C32	C	-1.417883	0.063664	0.546168
C33	C	-1.263493	0.175978	0.546160
C34	C	-1.263485	0.175975	0.453972
C35	C	-1.340684	0.119820	0.407884
C36	C	-1.340696	0.119821	0.592261
C37	C	-1.340699	0.119819	0.692217
C38	C	-1.340680	0.119821	0.307921
H39	H	-1.342599	0.698512	-0.144773
H40	H	-1.200618	0.221703	0.416439
H41	H	-1.200641	0.221699	0.583694
H42	H	-1.338823	0.541177	-0.144781
H43	H	-1.480740	0.017937	0.583696
H44	H	-1.338769	0.541129	0.144908
H45	H	-1.480738	0.017940	0.416456
H46	H	-1.342528	0.698481	0.144928
