data_functionalizedCrystal
_audit_creation_method	'MofGen! by Chris Wilmer'
_symmetry_space_group_name_H-M	'P1'
_symmetry_Int_Tables_number	1
_symmetry_cell_setting	triclinic
loop_
_symmetry_equiv_pos_as_xyz
  x,y,z
_cell_length_a	8.597314
_cell_length_b	17.666332
_cell_length_c	8.559649
_cell_angle_alpha	89.994648
_cell_angle_beta	77.625288
_cell_angle_gamma	97.691426
loop_
_atom_site_label
_atom_site_type_symbol
_atom_site_fract_x
_atom_site_fract_y
_atom_site_fract_z
O1	O	-2.053696	-0.070978	-0.238044
O2	O	-1.594574	-0.041037	-0.256305
O3	O	-1.864584	-0.058646	-0.015204
O4	O	-1.783686	-0.053369	-0.479144
O5	O	-1.864543	-0.184540	-0.015190
O6	O	-1.594534	-0.166931	-0.256291
O7	O	-2.053655	-0.196872	-0.238030
Cu8	Cu	-1.824091	-0.193397	-0.247159
Cu9	Cu	-1.824139	-0.044512	-0.247175
O10	O	-1.783645	-0.179263	-0.479131
C11	C	-1.536321	-0.100187	-0.254337
C12	C	-1.362806	-0.088871	-0.248474
N13	N	-1.824068	-0.298115	-0.247147
C14	C	-1.943657	-0.345524	-0.140441
C15	C	-1.943667	-0.424772	-0.140434
C16	C	-1.824100	-0.456609	-0.247160
C17	C	-1.704491	-0.409189	-0.353873
C18	C	-1.704475	-0.329942	-0.353867
N19	N	-1.787152	-0.578618	-0.387968
N20	N	-1.787177	-0.653900	-0.387969
C21	C	-1.824139	-0.695376	-0.247183
N22	N	-1.861106	-0.658727	-0.106391
N23	N	-1.861089	-0.583439	-0.106392
C24	C	-1.824103	-0.542538	-0.247178
C25	C	-1.943745	-0.828715	-0.140460
C26	C	-1.943744	-0.907964	-0.140450
C27	C	-1.704574	-0.892380	-0.353904
C28	C	-1.704569	-0.813132	-0.353900
C29	C	-1.824162	-0.781305	-0.247179
C30	C	-1.111909	-0.137724	-0.239996
C31	C	-1.285425	-0.149043	-0.245855
C32	C	-1.870694	-0.121992	0.044237
C33	C	-1.888943	-0.123177	0.221332
N34	N	-1.824175	0.060205	-0.247175
C35	C	-1.777535	-0.115916	-0.538571
C36	C	-1.759286	-0.114725	-0.715667
H37	H	-1.351923	-0.209219	-0.248088
H38	H	-1.634321	-0.106578	0.202789
H39	H	-1.607135	-0.435115	-0.440769
H40	H	-1.296303	-0.028692	-0.246230
H41	H	-2.041034	-0.319612	-0.053540
H42	H	-2.041053	-0.463379	-0.053538
H43	H	-1.607090	-0.291340	-0.440761
H44	H	-2.041121	-0.802800	-0.053557
H45	H	-2.041124	-0.946565	-0.053549
H46	H	-1.607215	-0.918301	-0.440796
H47	H	-1.607194	-0.774529	-0.440796
H48	H	-2.013917	-0.131333	0.302886
