data_functionalizedCrystal
_audit_creation_method	'MofGen! by Chris Wilmer'
_symmetry_space_group_name_H-M	'P1'
_symmetry_Int_Tables_number	1
_symmetry_cell_setting	triclinic
loop_
_symmetry_equiv_pos_as_xyz
  x,y,z
_cell_length_a	10.654562
_cell_length_b	15.995350
_cell_length_c	9.130313
_cell_angle_alpha	90.000982
_cell_angle_beta	89.996930
_cell_angle_gamma	83.991239
loop_
_atom_site_label
_atom_site_type_symbol
_atom_site_fract_x
_atom_site_fract_y
_atom_site_fract_z
O1	O	1.666288	0.117649	-0.121888
O2	O	1.300665	0.128843	-0.121869
O3	O	1.493471	0.001417	-0.121877
O4	O	1.473482	0.245075	-0.121879
O5	O	1.493469	0.001420	0.121721
O6	O	1.300663	0.128846	0.121730
O7	O	1.666285	0.117653	0.121711
Cu8	Cu	1.483474	0.123250	0.143963
Cu9	Cu	1.483477	0.123246	-0.144121
O10	O	1.473480	0.245079	0.121720
C11	C	1.253877	0.128020	-0.000067
C12	C	1.114467	0.125555	-0.000060
C13	C	1.048950	0.124407	0.132714
C14	C	0.917958	0.122097	0.132690
C15	C	0.918010	0.122086	-0.132895
C16	C	1.049001	0.124390	-0.132869
C17	C	1.114415	0.125571	0.265523
C18	C	1.048898	0.124424	0.398308
C19	C	0.917906	0.122114	0.398284
C20	C	0.852431	0.120951	0.265474
C21	C	1.492643	-0.029781	-0.000081
C22	C	1.490166	-0.122746	-0.000089
C23	C	1.481269	-0.460545	-0.000083
C24	C	1.343956	-0.413913	-0.000623
C25	C	1.346434	-0.317208	-0.000074
C26	C	1.485682	-0.292959	-0.000087
C27	C	1.553408	-0.333639	0.139014
C28	C	1.549959	-0.430295	0.139130
C29	C	1.552798	-0.430641	-0.137887
C30	C	1.552765	-0.333696	-0.139726
C31	C	1.488183	-0.198247	-0.000084
C32	C	1.478771	-0.555258	-0.000077
C33	C	1.713074	0.118475	-0.000094
C34	C	1.852484	0.120941	-0.000110
C35	C	1.474307	0.276277	-0.000080
C36	C	1.476785	0.369241	-0.000082
N37	N	1.483481	0.123252	0.346586
N38	N	1.483479	0.123237	-0.346743
C39	C	1.568877	0.066847	0.423234
C40	C	1.568874	0.066837	0.576571
C41	C	1.398074	0.179644	0.576598
C42	C	1.398073	0.179650	0.423264
C43	C	1.654286	0.010450	0.346556
C44	C	1.739690	-0.045959	0.423204
C45	C	1.739686	-0.045969	0.576541
C46	C	1.654279	0.010430	0.653230
H47	H	1.293197	-0.289098	-0.099786
H48	H	1.102217	0.125364	0.506437
N49	N	1.484524	-0.454929	0.276857
H50	H	1.544145	-0.494953	0.336023
H51	H	1.458190	-0.402981	0.336815
H52	H	1.809219	-0.091882	0.360757
N53	N	1.683488	-0.472237	0.147531
H54	H	1.682290	-0.535291	0.147680
H55	H	1.732908	-0.455090	0.060092
H56	H	1.102346	0.125329	-0.240986
N57	N	1.688922	-0.314150	0.145899
H58	H	1.746836	-0.368333	0.144530
H59	H	1.707668	-0.278651	0.058692
H60	H	1.654275	0.010411	0.778087
N61	N	1.831804	-0.106799	0.659216
H62	H	1.885912	-0.142518	0.587369
H63	H	1.887303	-0.074383	0.722826
N64	N	1.271244	-0.438884	-0.132746
H65	H	1.326601	-0.480670	-0.193537
H66	H	1.194040	-0.465272	-0.099422
N67	N	0.711148	0.118453	0.265443
H68	H	0.689785	0.066082	0.213304
H69	H	0.679672	0.117930	0.369747
H70	H	1.328540	0.225563	0.639048
N71	N	1.654280	0.010465	0.181174
H72	H	1.739595	0.023186	0.144237
H73	H	1.635972	-0.046548	0.144340
N74	N	1.491102	-0.296398	0.276136
H75	H	1.399526	-0.307513	0.277526
H76	H	1.535439	-0.322986	0.364981
N77	N	1.493344	-0.458196	-0.277548
H78	H	1.419432	-0.490350	-0.252899
H79	H	1.463094	-0.407118	-0.337909
H80	H	1.328534	0.225579	0.360856
H81	H	0.864566	0.121173	0.506404
N82	N	1.271567	-0.440275	0.130779
H83	H	1.266628	-0.502959	0.127356
H84	H	1.316156	-0.425445	0.223354
N85	N	1.255696	0.128067	0.265548
H86	H	1.287230	0.128631	0.369826
H87	H	1.297335	0.076804	0.213360
N88	N	1.487252	-0.297921	-0.276032
H89	H	1.490806	-0.235090	-0.278812
H90	H	1.530848	-0.324415	-0.365410
N91	N	0.847398	0.120831	-0.276131
H92	H	0.754474	0.119199	-0.255999
H93	H	0.860136	0.173046	-0.334119
H94	H	1.292837	-0.289655	0.099815
N95	N	1.687279	-0.312573	-0.150875
H96	H	1.688040	-0.249584	-0.157079
H97	H	1.735930	-0.334459	-0.061445
N98	N	1.686902	-0.471923	-0.139149
H99	H	1.701308	-0.509815	-0.050940
H100	H	1.701902	-0.506280	-0.231494
