data_functionalizedCrystal
_audit_creation_method	'MofGen! by Chris Wilmer'
_symmetry_space_group_name_H-M	'P1'
_symmetry_Int_Tables_number	1
_symmetry_cell_setting	triclinic
loop_
_symmetry_equiv_pos_as_xyz
  x,y,z
_cell_length_a	19.077105
_cell_length_b	13.032721
_cell_length_c	19.076919
_cell_angle_alpha	80.861841
_cell_angle_beta	89.923776
_cell_angle_gamma	95.201395
loop_
_atom_site_label
_atom_site_type_symbol
_atom_site_fract_x
_atom_site_fract_y
_atom_site_fract_z
Zn1	Zn	1.013397	-0.505360	0.481832
Zn2	Zn	1.003124	-0.673317	0.378090
Zn3	Zn	0.901858	-0.491366	0.358479
Zn4	Zn	0.881001	-0.672687	0.490791
O5	O	0.949845	-0.585683	0.427298
O6	O	1.109823	-0.533760	0.472529
O7	O	0.994119	-0.643588	0.276699
O8	O	0.929682	-0.347048	0.362886
O9	O	1.102275	-0.657157	0.396309
O10	O	1.011630	-0.357329	0.453513
O11	O	0.919720	-0.509909	0.262291
O12	O	0.801303	-0.509299	0.371572
O13	O	0.894135	-0.656084	0.588392
O14	O	0.785980	-0.642515	0.468781
O15	O	0.991406	-0.533149	0.581810
O16	O	0.973896	-0.819408	0.404996
O17	O	0.884173	-0.818945	0.487797
C18	C	0.768286	-0.574321	0.419021
C19	C	0.690611	-0.569486	0.415499
C20	C	0.646154	-0.636670	0.464393
C21	C	0.573171	-0.632114	0.461086
C22	C	0.544646	-0.560378	0.408881
C23	C	0.589109	-0.493187	0.359985
C24	C	0.662091	-0.497739	0.363296
C25	C	0.327230	-0.539312	0.393562
C26	C	0.254242	-0.534767	0.390254
C27	C	0.238309	-0.673693	0.491357
C28	C	0.311292	-0.678243	0.494660
C29	C	0.355749	-0.611048	0.445766
N30	N	0.470046	-0.555721	0.405499
N31	N	0.430348	-0.615700	0.449153
C32	C	0.925675	-0.857080	0.449513
C33	C	0.915397	-0.973191	0.459043
C34	C	0.955245	-1.025155	0.422357
C35	C	0.944623	-1.145161	0.432206
C36	C	1.132113	-0.597090	0.435607
C37	C	1.209785	-0.601951	0.439148
C38	C	0.941590	-0.596107	0.611432
C39	C	0.938072	-0.600549	0.689899
C40	C	0.974128	-0.313227	0.405012
C41	C	0.984476	-0.197123	0.395516
C42	C	0.958115	-0.575226	0.243875
C43	C	0.961794	-0.570498	0.165391
C44	C	0.987061	-0.538633	0.723338
C45	C	0.983747	-0.542803	0.797065
C46	C	0.931448	-0.608894	0.837354
C47	C	0.882454	-0.670812	0.803910
C48	C	0.885765	-0.666637	0.730183
C49	C	0.916112	-0.628240	1.058220
C50	C	0.912806	-0.632414	1.131952
C51	C	1.014098	-0.504402	1.125102
C52	C	1.017407	-0.500237	1.051375
C53	C	0.968412	-0.562151	1.017937
N54	N	0.928061	-0.613160	0.912715
N55	N	0.971796	-0.557879	0.942576
H56	H	0.363418	-0.484604	0.353745
H57	H	0.873422	-1.017547	0.497745
Cl58	Cl	1.052815	-0.455548	0.672698
Cl59	Cl	1.075686	-0.426568	1.167142
H60	H	0.202105	-0.728397	0.531164
H61	H	0.565879	-0.434774	0.317481
H62	H	0.845867	-0.717044	0.702958
H63	H	0.839869	-0.724621	0.836718
H64	H	0.902645	-1.189513	0.470911
H65	H	0.876225	-0.678671	1.031006
Cl66	Cl	1.049296	-1.128657	0.335765
H67	H	0.870215	-0.686236	1.164753
H68	H	1.023640	-0.492387	0.824288
H69	H	0.669372	-0.695088	0.506902
H70	H	1.059997	-0.446421	1.018577
H71	H	0.231022	-0.476339	0.347746
H72	H	0.536976	-0.686823	0.500901
H73	H	0.698288	-0.443025	0.323484
H74	H	0.334511	-0.736660	0.537169
Cl75	Cl	1.020062	-0.956683	0.362611
