data_functionalizedCrystal
_audit_creation_method	'MofGen! by Chris Wilmer'
_symmetry_space_group_name_H-M	'P1'
_symmetry_Int_Tables_number	1
_symmetry_cell_setting	triclinic
loop_
_symmetry_equiv_pos_as_xyz
  x,y,z
_cell_length_a	6.817900
_cell_length_b	15.300992
_cell_length_c	9.514088
_cell_angle_alpha	90.960074
_cell_angle_beta	118.843545
_cell_angle_gamma	104.175078
loop_
_atom_site_label
_atom_site_type_symbol
_atom_site_fract_x
_atom_site_fract_y
_atom_site_fract_z
V1	V	-4.221170	-0.126358	-0.501233
O2	O	-4.201233	0.004427	-0.491194
O3	O	-4.174963	-0.248965	-0.498283
O4	O	-4.255912	-0.125136	-0.719619
O5	O	-4.119724	-0.120259	-0.268326
V6	V	-4.693740	-0.110630	-0.473317
O7	O	-4.506454	-0.160860	-0.562468
O8	O	-4.858653	-0.076127	-0.412082
O9	O	-4.516740	0.011977	-0.476267
O10	O	-4.831074	-0.241415	-0.483356
O11	O	-4.912583	-0.116729	-0.706224
O12	O	-4.435791	-0.111851	-0.254931
C13	C	-4.017808	-0.278831	-0.490500
C14	C	-4.061870	-0.379069	-0.489544
C15	C	-3.985917	-0.412813	-0.341970
C16	C	-4.027339	-0.506998	-0.341077
C17	C	-4.144701	-0.567436	-0.487760
C18	C	-4.220664	-0.533686	-0.635346
C19	C	-4.179256	-0.439503	-0.636238
C20	C	-4.306961	-0.729991	-0.633477
C21	C	-4.348369	-0.824180	-0.632586
C22	C	-4.155045	-0.797486	-0.338317
C23	C	-4.113636	-0.703303	-0.339208
C24	C	-4.189599	-0.669560	-0.486795
C25	C	-4.121064	-0.120874	-0.772834
C26	C	-4.230767	-0.120687	-0.951369
C27	C	-4.337236	0.041839	-0.484046
C28	C	-4.272416	0.142075	-0.485012
C29	C	-4.233979	-0.116116	-0.201708
C30	C	-4.103513	-0.116299	-0.023171
H31	H	-3.965493	-0.534468	-0.220908
O32	O	-4.462773	-0.882868	-0.775126
C33	C	-4.687499	-0.872346	-0.872479
H34	H	-4.742579	-0.841702	-0.791956
H35	H	-4.683968	-0.825017	-0.963036
C36	C	-4.795696	-1.003818	-1.064166
C37	C	-4.863354	-0.966188	-0.965265
H38	H	-4.904172	-1.061703	-1.121407
H39	H	-4.644291	-1.010906	-0.998582
H40	H	-4.792753	-0.964369	-1.139616
H41	H	-4.866267	-1.005631	-0.889804
H42	H	-5.014765	-0.959109	-1.030839
H43	H	-4.241128	-0.412031	-0.756409
O44	O	-4.460991	-0.125160	-1.040953
C45	C	-4.597486	-0.206477	-1.027129
H46	H	-4.494793	-0.258762	-0.991557
H47	H	-4.642439	-0.191654	-0.929996
C48	C	-4.950714	-0.180481	-1.234981
C49	C	-4.824592	-0.244701	-1.191305
H50	H	-5.090809	-0.204058	-1.336249
H51	H	-4.858757	-0.125694	-1.244292
H52	H	-4.988151	-0.168133	-1.154024
H53	H	-4.787132	-0.257038	-1.272251
H54	H	-4.916549	-0.299491	-1.182012
H55	H	-3.910644	-0.112695	-0.948061
O56	O	-3.999677	-0.644721	-0.196581
C57	C	-3.941455	-0.694695	-0.066123
H58	H	-4.063664	-0.767347	-0.111397
H59	H	-3.753056	-0.696547	-0.013726
C60	C	-3.817170	-0.559411	0.122365
C61	C	-3.967283	-0.648641	0.066762
H62	H	-3.833090	-0.531001	0.204339
H63	H	-3.856386	-0.525741	0.034476
H64	H	-3.660185	-0.560966	0.166019
H65	H	-4.124265	-0.647084	0.023092
H66	H	-3.928094	-0.682310	0.154648
H67	H	-4.368855	-0.702522	-0.753659
H68	H	-4.316239	-0.582902	-0.754778
H69	H	-4.093186	-0.824964	-0.218146
H70	H	-3.890334	-0.363610	-0.222522
