data_functionalizedCrystal
_audit_creation_method	'MofGen! by Chris Wilmer'
_symmetry_space_group_name_H-M	'P1'
_symmetry_Int_Tables_number	1
_symmetry_cell_setting	triclinic
loop_
_symmetry_equiv_pos_as_xyz
  x,y,z
_cell_length_a	16.793024
_cell_length_b	16.793047
_cell_length_c	33.586455
_cell_angle_alpha	113.253857
_cell_angle_beta	66.219990
_cell_angle_gamma	112.758327
loop_
_atom_site_label
_atom_site_type_symbol
_atom_site_fract_x
_atom_site_fract_y
_atom_site_fract_z
O1	O	0.005016	-0.570216	-0.583573
O2	O	-0.034529	-0.474528	-0.453458
O3	O	0.114723	-0.474535	-0.528082
O4	O	-0.144235	-0.570209	-0.508949
O5	O	0.108729	-0.346329	-0.530229
O6	O	-0.040523	-0.346322	-0.455605
O7	O	-0.000977	-0.442010	-0.585721
Cu8	Cu	-0.021297	-0.382459	-0.520859
Cu9	Cu	-0.014209	-0.534079	-0.518320
O10	O	-0.150229	-0.442003	-0.511097
C11	C	0.005100	-0.790970	-0.238461
C12	C	0.009223	-0.693065	-0.217557
C13	C	0.003804	-0.645758	-0.241627
C14	C	-0.075059	-0.538459	-0.266316
C15	C	0.049838	-0.422849	-0.250165
C16	C	-0.040584	-0.395375	-0.435637
C17	C	-0.044693	-0.353446	-0.386631
C18	C	-0.039275	-0.401741	-0.363054
C19	C	-0.040566	-0.125547	-0.300731
C20	C	-0.044689	-0.223451	-0.321635
C21	C	-0.039266	-0.270752	-0.297563
C22	C	0.039597	-0.378051	-0.272874
C23	C	-0.085304	-0.493667	-0.289026
C24	C	0.005118	-0.521142	-0.103554
C25	C	0.009231	-0.563064	-0.152559
C26	C	0.003809	-0.514775	-0.176138
C27	C	0.010758	-0.652581	-0.172822
C28	C	0.001010	-0.556371	-0.220792
C29	C	-0.008251	-0.506059	-0.245823
C30	C	-0.046224	-0.263935	-0.366370
C31	C	-0.036476	-0.360146	-0.318399
C32	C	-0.027211	-0.410451	-0.293367
C33	C	0.815184	-0.521162	-0.508596
C34	C	0.717729	-0.563083	-0.506815
C35	C	0.669923	-0.514793	-0.509201
C36	C	0.564072	-0.463272	-0.548285
C37	C	0.445555	-0.498966	-0.486078
C38	C	0.415541	-0.125553	-0.528781
C39	C	0.375032	-0.223457	-0.531493
C40	C	0.423813	-0.270761	-0.529101
C41	C	0.149318	-0.395376	-0.530584
C42	C	0.246774	-0.353455	-0.532364
C43	C	0.294574	-0.401748	-0.529976
C44	C	0.400424	-0.453269	-0.490892
C45	C	0.518948	-0.417572	-0.553101
C46	C	0.548961	-0.790984	-0.510398
C47	C	0.589464	-0.693083	-0.507684
C48	C	0.540690	-0.645776	-0.510078
C49	C	0.678399	-0.652598	-0.506649
C50	C	0.581167	-0.556389	-0.510877
C51	C	0.530434	-0.506073	-0.515170
C52	C	0.286104	-0.263940	-0.532530
C53	C	0.383336	-0.360149	-0.528302
C54	C	0.434062	-0.410467	-0.524008
C55	C	-0.040530	-0.395407	-0.935652
C56	C	-0.044651	-0.353482	-0.886645
C57	C	-0.039242	-0.401770	-0.863061
C58	C	0.039602	-0.453292	-0.810474
C59	C	-0.085288	-0.417587	-0.750981
C60	C	0.005063	-0.791004	-0.738448
C61	C	0.009186	-0.693099	-0.717543
C62	C	0.003779	-0.645796	-0.741620
C63	C	0.005077	-0.521171	-0.603544
C64	C	0.009198	-0.563096	-0.652550
C65	C	0.003786	-0.514804	-0.676131
C66	C	-0.075058	-0.463283	-0.728717
C67	C	0.049835	-0.498991	-0.788214
C68	C	-0.040516	-0.125574	-0.800747
C69	C	-0.044642	-0.223476	-0.821649
C70	C	-0.039232	-0.270782	-0.797575
C71	C	-0.046172	-0.263965	-0.866386
C72	C	-0.036447	-0.360171	-0.818406
C73	C	-0.027197	-0.410486	-0.793373
C74	C	0.010719	-0.652613	-0.672809
C75	C	0.000994	-0.556406	-0.720789
C76	C	-0.008259	-0.506089	-0.745819
O77	O	-0.000965	0.173549	-0.277957
O78	O	-0.040516	-0.085616	-0.325254
O79	O	0.108737	0.059592	-0.327284
O80	O	-0.150219	0.028341	-0.275927
O81	O	0.114753	0.055151	-0.263265
O82	O	-0.034500	-0.090057	-0.261234
O83	O	0.005051	0.169108	-0.213937
Cu84	Cu	-0.014175	0.039120	-0.231740
Cu85	Cu	-0.021290	0.044372	-0.307451
O86	O	-0.144202	0.023900	-0.211907
O87	O	-0.034458	-0.474571	0.046517
O88	O	0.005076	-0.570190	-0.083599
O89	O	-0.144170	-0.570237	-0.008972
O90	O	0.114787	-0.474523	-0.028110
O91	O	-0.150200	-0.442024	-0.011093
O92	O	-0.000954	-0.441976	-0.085720
O93	O	-0.040488	-0.346357	0.044396
Cu94	Cu	-0.021272	-0.382460	-0.020856
Cu95	Cu	-0.014141	-0.534087	-0.018347
O96	O	0.108757	-0.346309	-0.030231
C97	C	-0.850734	0.086244	-0.289716
C98	C	-0.753280	0.087165	-0.312001
C99	C	-0.705462	0.081107	-0.288506
C100	C	-0.599592	0.000085	-0.264184
C101	C	-0.481080	0.121287	-0.283645
C102	C	-0.450996	0.035117	-0.097351
C103	C	-0.410501	0.028587	-0.146852
C104	C	-0.459292	0.034683	-0.169840
C105	C	-0.184802	0.024283	-0.235878
C106	C	-0.282257	0.023363	-0.213592
C107	C	-0.330068	0.029423	-0.237088
C108	C	-0.435938	0.110445	-0.261411
C109	C	-0.554456	-0.010759	-0.241948
C110	C	-0.584541	0.075410	-0.428242
C111	C	-0.625029	0.081943	-0.378743
C112	C	-0.576244	0.075844	-0.355753
C113	C	-0.713963	0.086424	-0.357292
C114	C	-0.616708	0.075351	-0.310510
C115	C	-0.565963	0.065400	-0.286043
C116	C	-0.321573	0.024104	-0.168302
C117	C	-0.418828	0.035176	-0.215083
C118	C	-0.469568	0.045131	-0.239552
O119	O	0.585213	0.169090	-0.504004
O120	O	0.494056	-0.090076	-0.525516
O121	O	0.488081	0.055124	-0.449918
O122	O	0.591189	0.023889	-0.579602
O123	O	0.359978	0.059584	-0.452885
O124	O	0.365953	-0.085616	-0.528483
O125	O	0.457110	0.173550	-0.506971
Cu126	Cu	0.399835	0.044374	-0.517998
Cu127	Cu	0.551332	0.039099	-0.514489
O128	O	0.463086	0.028349	-0.582569
C129	C	0.815354	-0.521094	-0.008709
C130	C	0.717898	-0.563028	-0.006927
C131	C	0.670072	-0.514739	-0.009298
C132	C	0.564182	-0.463204	-0.048354
C133	C	0.445681	-0.498945	0.013847
C134	C	0.415547	-0.125494	-0.028771
C135	C	0.375059	-0.223405	-0.031498
C136	C	0.423859	-0.270708	-0.029121
C137	C	0.149365	-0.395355	-0.030599
C138	C	0.246820	-0.353421	-0.032381
C139	C	0.294640	-0.401713	-0.030008
C140	C	0.400530	-0.453248	0.009048
C141	C	0.519038	-0.417504	-0.053155
C142	C	0.549171	-0.790955	-0.010537
C143	C	0.589653	-0.693047	-0.007809
C144	C	0.540859	-0.645741	-0.010187
C145	C	0.678588	-0.652551	-0.006775
C146	C	0.581317	-0.556344	-0.010973
C147	C	0.530562	-0.506029	-0.015250
C148	C	0.286131	-0.263897	-0.032533
C149	C	0.383402	-0.360104	-0.028335
C150	C	0.434150	-0.410423	-0.024057
O151	O	-0.620614	0.089309	0.052274
O152	O	-0.529507	0.043784	-0.078544
O153	O	-0.523494	0.194833	-0.006033
O154	O	-0.626628	-0.061740	-0.020236
O155	O	-0.395386	0.185419	-0.005549
O156	O	-0.401400	0.034370	-0.078059
O157	O	-0.492507	0.079895	0.052758
Cu158	Cu	-0.435256	0.056273	-0.012607
Cu159	Cu	-0.586758	0.067406	-0.013179
O160	O	-0.498521	-0.071154	-0.019752
C161	C	-0.437537	0.048335	0.402491
C162	C	-0.397043	0.041789	0.352989
C163	C	-0.445822	0.047883	0.329994
C164	C	-0.496646	0.126653	0.277022
C165	C	-0.465894	-0.000633	0.218811
C166	C	-0.837226	0.099430	0.210091
C167	C	-0.739773	0.100339	0.187806
C168	C	-0.691967	0.094287	0.211308
C169	C	-0.571027	0.088563	0.071568
C170	C	-0.611521	0.095108	0.121070
C171	C	-0.562739	0.089011	0.144061
C172	C	-0.511915	0.010241	0.197033
C173	C	-0.542670	0.137531	0.255247
C174	C	-0.171338	0.037467	0.263967
C175	C	-0.268788	0.036555	0.286249
C176	C	-0.316597	0.042611	0.262750
C177	C	-0.308112	0.037305	0.331542
C178	C	-0.405351	0.048369	0.284750
C179	C	-0.456092	0.058317	0.260279
C180	C	-0.700452	0.099593	0.142516
C181	C	-0.603213	0.088528	0.189308
C182	C	-0.552469	0.078578	0.213776
O183	O	-0.040608	-1.085661	-0.825229
O184	O	-0.001018	-0.826491	-0.777938
O185	O	-0.150287	-0.971682	-0.775894
O186	O	0.108661	-0.940470	-0.827272
O187	O	-0.144253	-0.976123	-0.711878
O188	O	0.005016	-0.830932	-0.713922
O189	O	-0.034575	-1.090102	-0.761213
Cu190	Cu	-0.014228	-0.960923	-0.731722
Cu191	Cu	-0.021364	-0.955670	-0.807428
O192	O	0.114695	-0.944911	-0.763256
O193	O	-0.036540	-0.230370	-0.253997
C194	C	0.044345	-0.230941	-0.250737
H195	H	0.097088	-0.237310	-0.285494
H196	H	0.070408	-0.165550	-0.225719
H197	H	0.030945	-0.290423	-0.238361
H198	H	0.550886	-0.383867	-0.081621
O199	O	0.097382	-0.448175	-0.852238
C200	C	0.092610	-0.535638	-0.882350
H201	H	0.024851	-0.583318	-0.869221
H202	H	0.099353	-0.534610	-0.917317
H203	H	0.149764	-0.559711	-0.884863
H204	H	-0.048809	-0.224052	-0.886301
H205	H	-0.267732	0.034117	0.350946
H206	H	-0.281187	0.020914	-0.148901
O207	O	-0.153674	-0.377358	-0.731662
C208	C	-0.144394	-0.313163	-0.690163
H209	H	-0.070929	-0.291068	-0.690420
H210	H	-0.165350	-0.252276	-0.685434
H211	H	-0.189399	-0.344233	-0.661077
H212	H	0.496488	-0.236853	-0.027824
H213	H	0.496441	-0.236915	-0.527803
H214	H	0.634089	-0.467700	-0.572564
H215	H	0.001632	-0.679646	-0.778160
O216	O	0.557076	-0.377529	-0.587097
C217	C	0.642769	-0.392854	-0.612492
H218	H	0.645721	-0.455466	-0.608072
H219	H	0.654618	-0.403243	-0.649885
H220	H	0.697259	-0.332247	-0.600055
O221	O	0.237853	-0.216284	-0.033688
C222	C	0.160920	-0.213656	0.004674
H223	H	0.173282	-0.225156	0.032713
H224	H	0.147264	-0.145096	0.017146
H225	H	0.100006	-0.268589	-0.004818
O226	O	0.407449	-0.539190	-0.452152
C227	C	0.325303	-0.603381	-0.457220
H228	H	0.326114	-0.625480	-0.494100
H229	H	0.316652	-0.664266	-0.447145
H230	H	0.266719	-0.572306	-0.434513
H231	H	-0.490116	0.084434	0.126151
O232	O	0.013689	-0.700230	-0.648998
C233	C	-0.062996	-0.702885	-0.610548
H234	H	-0.119244	-0.691395	-0.616645
H235	H	-0.087004	-0.771450	-0.604187
H236	H	-0.044748	-0.647958	-0.579723
O237	O	-0.519796	-0.048603	0.156209
C238	C	-0.474826	-0.114284	0.143785
H239	H	-0.469517	-0.119214	0.175476
H240	H	-0.514462	-0.182248	0.125908
H241	H	-0.404135	-0.094503	0.119924
H242	H	-0.738384	0.080845	-0.251490
H243	H	0.330510	-0.448858	0.033327
O244	O	-0.428260	-0.070699	0.200022
C245	C	-0.465615	-0.125272	0.229548
H246	H	-0.534485	-0.115021	0.252978
H247	H	-0.473807	-0.198961	0.208853
H248	H	-0.418761	-0.105963	0.250688
H249	H	0.107243	-0.392097	-0.234140
H250	H	0.413839	-0.532573	0.042316
O251	O	0.709059	-0.427522	-0.509885
C252	C	0.646958	-0.393586	-0.512391
H253	H	0.575177	-0.434811	-0.498876
H254	H	0.655350	-0.320232	-0.491122
H255	H	0.660130	-0.398271	-0.549201
H256	H	0.001639	-0.441666	-0.659178
O257	O	-0.277352	0.042750	0.218566
C258	C	-0.251860	-0.037766	0.192576
H259	H	-0.294428	-0.091897	0.210885
H260	H	-0.263201	-0.060949	0.158011
H261	H	-0.177340	-0.025560	0.187816
H262	H	-0.740818	0.102779	0.123104
O263	O	-0.683138	-0.055627	-0.265625
C264	C	-0.707868	-0.118506	-0.241797
H265	H	-0.668062	-0.090304	-0.216322
H266	H	-0.783297	-0.132033	-0.223053
H267	H	-0.692243	-0.184027	-0.266746
H268	H	-0.531920	0.039247	-0.151930
H269	H	0.468233	-0.679598	-0.011487
O270	O	0.726642	-0.700197	-0.005461
C271	C	0.682961	-0.730081	0.033818
H272	H	0.608313	-0.732687	0.045859
H273	H	0.689879	-0.800157	0.025705
H274	H	0.715367	-0.681567	0.061652
O275	O	-0.133034	-0.468655	-0.687024
C276	C	-0.221886	-0.510899	-0.690106
H277	H	-0.219573	-0.553897	-0.726436
H278	H	-0.260074	-0.555471	-0.666280
H279	H	-0.257861	-0.457489	-0.680093
O280	O	0.237846	-0.216325	-0.533700
C281	C	0.160910	-0.213669	-0.495340
H282	H	0.173258	-0.225153	-0.467292
H283	H	0.147270	-0.145104	-0.482880
H284	H	0.099992	-0.268598	-0.504829
O285	O	-0.532399	0.053523	0.351399
C286	C	-0.534069	0.130920	0.388987
H287	H	-0.464774	0.181784	0.383635
H288	H	-0.586984	0.162106	0.392665
H289	H	-0.551799	0.111456	0.421057
O290	O	-0.592295	-0.077703	-0.221411
C291	C	-0.536298	-0.136101	-0.240492
H292	H	-0.464195	-0.098885	-0.256448
H293	H	-0.537275	-0.159925	-0.212830
H294	H	-0.562142	-0.196714	-0.267626
O295	O	0.001421	-0.427474	-0.155928
C296	C	0.080557	-0.376168	-0.142837
H297	H	0.136327	-0.411615	-0.164359
H298	H	0.103101	-0.306728	-0.148039
H299	H	0.066236	-0.368673	-0.105528
H300	H	-0.574318	0.196197	0.271049
H301	H	0.013390	-0.692483	-0.152899
O302	O	-0.762008	0.090359	-0.380466
C303	C	-0.718322	0.167741	-0.395996
H304	H	-0.643678	0.189804	-0.398303
H305	H	-0.725228	0.151706	-0.430942
H306	H	-0.750734	0.224284	-0.371302
H307	H	-0.297145	0.029698	-0.274103
O308	O	0.255244	-0.488930	-0.029260
C309	C	0.178119	-0.493726	0.008885
H310	H	0.152540	-0.432125	0.020290
H311	H	0.122994	-0.557299	-0.000421
H312	H	0.196455	-0.495631	0.037630
H313	H	-0.037104	-0.474911	-0.880014
O314	O	0.709377	-0.427441	-0.009911
C315	C	0.734837	-0.376156	0.030011
H316	H	0.743205	-0.422269	0.044612
H317	H	0.801567	-0.323025	0.021780
H318	H	0.680328	-0.341704	0.055921
O319	O	0.118194	-0.539250	-0.807496
C320	C	0.081834	-0.632604	-0.812869
H321	H	0.009238	-0.653761	-0.813772
H322	H	0.124050	-0.670597	-0.845963
H323	H	0.082813	-0.648941	-0.783218
O324	O	-0.036492	-0.230383	-0.754012
C325	C	0.044403	-0.230952	-0.750761
H326	H	0.097127	-0.237347	-0.785524
H327	H	0.070487	-0.165548	-0.725756
H328	H	0.031009	-0.290417	-0.738374
H329	H	0.634201	-0.467612	-0.072637
H330	H	-0.503619	0.071273	-0.373665
O331	O	-0.352430	0.166210	-0.259940
C332	C	-0.327689	0.229055	-0.283790
H333	H	-0.391125	0.236349	-0.285235
H334	H	-0.288499	0.297037	-0.265680
H335	H	-0.283436	0.204598	-0.319738
H336	H	0.718758	-0.692512	-0.505593
O337	O	-0.488814	0.185455	0.317864
C338	C	-0.533736	0.251172	0.330280
H339	H	-0.587065	0.223518	0.311842
H340	H	-0.567719	0.269163	0.368475
H341	H	-0.482749	0.313976	0.320563
H342	H	-0.449229	0.177371	-0.300885
O343	O	-0.731326	0.093816	0.255445
C344	C	-0.808492	0.019653	0.258888
H345	H	-0.802039	-0.034327	0.224823
H346	H	-0.814507	-0.009104	0.285884
H347	H	-0.871329	0.042417	0.268743
H348	H	0.001650	-0.679613	-0.278166
O349	O	0.097545	-0.296181	-0.276264
C350	C	0.161696	-0.272536	-0.253620
H351	H	0.167349	-0.336059	-0.251394
H352	H	0.230236	-0.235693	-0.273190
H353	H	0.139381	-0.226738	-0.217968
H354	H	-0.123560	-0.607102	-0.263443
H355	H	-0.142704	-0.524425	-0.305055
H356	H	-0.037138	-0.474881	-0.380005
H357	H	-0.048864	-0.224020	-0.386283
H358	H	0.330406	-0.448859	-0.466617
O359	O	0.255285	-0.488954	-0.529195
C360	C	0.253788	-0.497657	-0.488811
H361	H	0.257819	-0.429567	-0.461986
H362	H	0.188371	-0.548400	-0.476116
H363	H	0.313962	-0.522041	-0.495673
O364	O	0.454090	-0.686276	-0.511684
C365	C	0.452376	-0.761411	-0.550357
H366	H	0.514897	-0.785562	-0.561503
H367	H	0.389077	-0.817865	-0.541849
H368	H	0.451766	-0.741563	-0.578990
