data_functionalizedCrystal
_audit_creation_method	'MofGen! by Chris Wilmer'
_symmetry_space_group_name_H-M	'P1'
_symmetry_Int_Tables_number	1
_symmetry_cell_setting	triclinic
loop_
_symmetry_equiv_pos_as_xyz
  x,y,z
_cell_length_a	18.101398
_cell_length_b	25.639240
_cell_length_c	18.101389
_cell_angle_alpha	90.027631
_cell_angle_beta	90.024802
_cell_angle_gamma	90.030487
loop_
_atom_site_label
_atom_site_type_symbol
_atom_site_fract_x
_atom_site_fract_y
_atom_site_fract_z
Zn1	Zn	1.132112	-0.208237	0.418801
Zn2	Zn	1.132005	-0.295659	0.294939
Zn3	Zn	1.008271	-0.208236	0.294961
Zn4	Zn	1.008219	-0.295640	0.418727
O5	O	1.070152	-0.251943	0.356857
O6	O	1.235731	-0.219842	0.402392
O7	O	1.115568	-0.284069	0.191309
O8	O	1.024766	-0.135071	0.311428
O9	O	1.235652	-0.284070	0.311392
O10	O	1.115752	-0.135072	0.402413
O11	O	1.024662	-0.219840	0.191325
O12	O	0.904632	-0.219821	0.311357
O13	O	1.024676	-0.284039	0.522370
O14	O	0.904593	-0.284037	0.402287
O15	O	1.115701	-0.219824	0.522424
O16	O	1.115517	-0.368821	0.311320
O17	O	1.024572	-0.368808	0.402266
C18	C	0.877741	-0.251927	0.356817
C19	C	0.795427	-0.251933	0.356817
C20	C	1.070047	-0.387785	0.356799
C21	C	1.070070	-0.445899	0.356799
C22	C	0.644719	-0.251944	0.356850
C23	C	0.613365	-0.211484	0.299735
C24	C	0.527747	-0.211331	0.299922
C25	C	0.496336	-0.251955	0.356882
C26	C	0.527477	-0.237256	0.435020
C27	C	0.613122	-0.236957	0.434672
C28	C	0.613113	-0.307208	0.336516
C29	C	0.527461	-0.306917	0.334814
C30	C	0.412477	-0.251962	0.356904
C31	C	0.728578	-0.251936	0.356833
C32	C	1.117551	-0.806225	0.404318
C33	C	1.117573	-0.860829	0.404333
O34	O	1.157819	-0.889034	0.444676
N35	N	1.070255	-0.888182	0.356928
C36	C	1.022906	-0.860928	0.309511
O37	O	0.982659	-0.889207	0.269192
C38	C	1.022881	-0.806324	0.309500
C39	C	1.070208	-0.778974	0.356903
C40	C	1.164874	-0.778875	0.451717
C41	C	1.164853	-0.724274	0.451701
C42	C	1.117509	-0.697024	0.404286
C43	C	1.070187	-0.724374	0.356886
C44	C	0.975528	-0.779071	0.262087
C45	C	0.975507	-0.724464	0.262081
C46	C	1.022834	-0.697114	0.309483
C47	C	1.022822	-0.642523	0.309455
N48	N	1.070141	-0.615170	0.356859
C49	C	1.117484	-0.642420	0.404275
C50	C	1.022961	-0.975598	0.309538
C51	C	1.022989	-1.030201	0.309545
C52	C	1.117656	-1.030098	0.404368
C53	C	1.117631	-0.975495	0.404357
C54	C	1.070280	-0.948245	0.356943
C55	C	1.117437	-0.527755	0.404237
C56	C	1.117414	-0.473150	0.404214
C57	C	1.022745	-0.473257	0.309394
C58	C	1.022770	-0.527858	0.309414
C59	C	1.070119	-0.555105	0.356841
O60	O	0.982594	-0.614284	0.269135
O61	O	1.157717	-0.614134	0.444594
C62	C	1.263314	-0.251959	0.356898
C63	C	1.345628	-0.251965	0.356915
C64	C	1.070195	-0.251930	0.550019
C65	C	1.070213	-0.251924	0.632333
C66	C	1.070277	-0.115570	0.356931
C67	C	1.070330	-0.057456	0.356963
C68	C	1.070152	-0.251918	0.164446
C69	C	1.070277	-0.251777	0.082133
C70	C	1.070256	-0.251826	0.931424
C71	C	1.012789	-0.292099	0.900065
C72	C	1.012944	-0.292286	0.814446
C73	C	1.070234	-0.251875	0.783042
C74	C	1.148259	-0.266833	0.814145
C75	C	1.147939	-0.267097	0.899789
C76	C	1.050377	-0.196505	0.899861
C77	C	1.048641	-0.196824	0.814210
C78	C	1.070226	-0.251901	0.699182
C79	C	1.070269	-0.251801	1.015284
H80	H	0.633905	-0.220548	0.241613
H81	H	0.954756	-0.282835	0.920652
H82	H	0.506058	-0.197314	0.452509
O83	O	0.499850	-0.223479	0.223190
H84	H	0.438532	-0.223385	0.223248
O85	O	1.215910	-0.694777	0.502817
H86	H	1.248831	-0.722907	0.535785
O87	O	1.206507	-0.229204	0.787206
H88	H	1.248949	-0.250829	0.755287
O89	O	0.924480	-0.808563	0.210962
H90	H	0.866349	-0.798109	0.223615
O91	O	1.215945	-0.808262	0.502859
H92	H	1.248845	-0.780062	0.535808
O93	O	0.971683	-0.443861	0.258253
H94	H	0.933976	-0.418994	0.291360
O95	O	0.500498	-0.321611	0.258642
H96	H	0.465072	-0.289907	0.236587
O97	O	0.641908	-0.157546	0.317377
H98	H	0.678325	-0.159429	0.366651
O99	O	0.936308	-0.279872	0.786590
H100	H	0.896922	-0.309716	0.807133
H101	H	0.633386	-0.337350	0.378116
H102	H	1.164791	-0.307538	0.919764
H103	H	1.156168	-0.953230	0.442957
O104	O	0.972586	-0.181881	0.787273
H105	H	0.935543	-0.175921	0.835388
H106	H	0.936945	-0.702280	0.223471
O107	O	1.168712	-1.059499	0.455518
H108	H	1.226842	-1.048999	0.442877
O109	O	0.499147	-0.348968	0.385867
H110	H	0.462287	-0.331271	0.427958
H111	H	0.633128	-0.196567	0.451858
H112	H	0.633867	-0.265158	0.478702
H113	H	0.984458	-1.052464	0.270937
H114	H	1.192207	-0.239037	0.920537
O115	O	0.500633	-0.157094	0.317808
H116	H	0.548694	-0.130873	0.326365
O117	O	1.029967	-0.346083	0.928593
H118	H	1.079262	-0.344355	0.965004
H119	H	0.507135	-0.265829	0.478755
H120	H	1.165403	-0.306844	0.792693
O121	O	0.976315	-0.178454	0.928438
H122	H	0.952846	-0.208714	0.965462
O123	O	1.100040	-0.154963	0.785907
H124	H	1.141969	-0.172821	0.749022
O125	O	1.030232	-0.346617	0.787292
H126	H	1.038538	-0.372856	0.835333
O127	O	1.105812	-0.156754	0.926728
H128	H	1.147324	-0.176269	0.962389
O129	O	0.641679	-0.324994	0.262306
H130	H	0.618606	-0.364043	0.249243
O131	O	1.168470	-0.443649	0.455334
H132	H	1.201391	-0.471775	0.488308
H133	H	0.984404	-0.953414	0.270922
O134	O	1.168509	-0.557141	0.455384
H135	H	1.201413	-0.528942	0.488331
O136	O	0.971728	-0.557362	0.258287
H137	H	0.938802	-0.529237	0.225316
