data_functionalizedCrystal
_audit_creation_method	'MofGen! by Chris Wilmer'
_symmetry_space_group_name_H-M	'P1'
_symmetry_Int_Tables_number	1
_symmetry_cell_setting	triclinic
loop_
_symmetry_equiv_pos_as_xyz
  x,y,z
_cell_length_a	11.169416
_cell_length_b	25.639242
_cell_length_c	11.169409
_cell_angle_alpha	90.033370
_cell_angle_beta	90.028030
_cell_angle_gamma	90.008116
loop_
_atom_site_label
_atom_site_type_symbol
_atom_site_fract_x
_atom_site_fract_y
_atom_site_fract_z
Zn1	Zn	0.477869	-0.799369	-0.679012
Zn2	Zn	0.678609	-0.799316	-0.478344
Zn3	Zn	0.477922	-0.711930	-0.478299
Zn4	Zn	0.678491	-0.711929	-0.678942
O5	O	0.578223	-0.755636	-0.578649
O6	O	0.504525	-0.872527	-0.652442
O7	O	0.652059	-0.787703	-0.310389
O8	O	0.309965	-0.723551	-0.504935
O9	O	0.652008	-0.872488	-0.505012
O10	O	0.309926	-0.787792	-0.652398
O11	O	0.504615	-0.723500	-0.310355
O12	O	0.504500	-0.638765	-0.504867
O13	O	0.651807	-0.723550	-0.846901
O14	O	0.651858	-0.638764	-0.652278
O15	O	0.504410	-0.787791	-0.846953
O16	O	0.846543	-0.787702	-0.504943
O17	O	0.846457	-0.723499	-0.652321
C18	C	0.578173	-0.619793	-0.578560
C19	C	0.578180	-0.561679	-0.578551
C20	C	0.655069	-0.201325	-0.655302
C21	C	0.655075	-0.146721	-0.655318
O22	O	0.720396	-0.118491	-0.720522
N23	N	0.578243	-0.119397	-0.578691
C24	C	0.501391	-0.146680	-0.502053
O25	O	0.436039	-0.118426	-0.436878
C26	C	0.501380	-0.201284	-0.502044
C27	C	0.578226	-0.228605	-0.578667
C28	C	0.731908	-0.228646	-0.731920
C29	C	0.731903	-0.283246	-0.731902
C30	C	0.655059	-0.310526	-0.655267
C31	C	0.578221	-0.283205	-0.578649
C32	C	0.424522	-0.228566	-0.425412
C33	C	0.424517	-0.283173	-0.425410
C34	C	0.501363	-0.310494	-0.502033
C35	C	0.501372	-0.365085	-0.501996
N36	N	0.578204	-0.392409	-0.578622
C37	C	0.655048	-0.365129	-0.655258
C38	C	0.501419	-0.032010	-0.502079
C39	C	0.501436	0.022593	-0.502080
C40	C	0.655119	0.022549	-0.655348
C41	C	0.655108	-0.032055	-0.655339
C42	C	0.578252	-0.059333	-0.578705
C43	C	0.655032	-0.479794	-0.655214
C44	C	0.655024	-0.534400	-0.655186
C45	C	0.501337	-0.534351	-0.501924
C46	C	0.501349	-0.479750	-0.501947
C47	C	0.578201	-0.452473	-0.578602
O48	O	0.436081	-0.393349	-0.436829
O49	O	0.720378	-0.393391	-0.720432
C50	C	0.890048	-0.755609	-0.578656
C51	C	1.023447	-0.755645	-0.578699
C52	C	1.265180	-0.755672	-0.578682
C53	C	1.131780	-0.755674	-0.578727
C54	C	0.578090	-0.755676	-0.891692
C55	C	0.578033	-0.755693	-1.025092
C56	C	0.578269	0.107991	-0.578725
C57	C	0.578276	0.049877	-0.578721
C58	C	0.578269	-0.755626	-0.266825
C59	C	0.577988	-0.755710	-0.133425
H60	H	0.794484	-0.206440	-0.794332
C61	C	0.416827	-0.449690	-0.417664
C62	C	0.322666	-0.412175	-0.469852
C63	C	0.238134	-0.382117	-0.385581
C64	C	0.247763	-0.389574	-0.249121
C65	C	0.341927	-0.427090	-0.196926
C66	C	0.426460	-0.457148	-0.281198
H67	H	0.315535	-0.406654	-0.570873
H68	H	0.168427	-0.354345	-0.424220
H69	H	0.185187	-0.367323	-0.186739
H70	H	0.349059	-0.432611	-0.095905
H71	H	0.496167	-0.484920	-0.242559
H72	H	0.361949	-0.206331	-0.363014
C73	C	0.739631	-0.062105	-0.739633
C74	C	0.687728	-0.099668	-0.833945
C75	C	0.772252	-0.129715	-0.918245
C76	C	0.908680	-0.122198	-0.908233
C77	C	0.960590	-0.084633	-0.813917
C78	C	0.876065	-0.054586	-0.729617
H79	H	0.586729	-0.105234	-0.841360
H80	H	0.733824	-0.157524	-0.988064
H81	H	0.971250	-0.144441	-0.970638
H82	H	1.061588	-0.079067	-0.806503
H83	H	0.914493	-0.026778	-0.659798
C84	C	0.416802	-0.564368	-0.417643
C85	C	0.280377	-0.556871	-0.427685
C86	C	0.195831	-0.586891	-0.343417
C87	C	0.247709	-0.624408	-0.249107
C88	C	0.384141	-0.631906	-0.239061
C89	C	0.468687	-0.601886	-0.323329
H90	H	0.241967	-0.529098	-0.497503
H91	H	0.094835	-0.581341	-0.350854
H92	H	0.185123	-0.646631	-0.186726
H93	H	0.422551	-0.659680	-0.169243
H94	H	0.569684	-0.607437	-0.315891
C95	C	0.739556	-0.564451	-0.739480
C96	C	0.875982	-0.556931	-0.729473
C97	C	0.960509	-0.586980	-0.813766
C98	C	0.908609	-0.624550	-0.908067
C99	C	0.772175	-0.632072	-0.918078
C100	C	0.687649	-0.602023	-0.833785
H101	H	0.914408	-0.529118	-0.659663
H102	H	1.061507	-0.581412	-0.806355
H103	H	0.971181	-0.646795	-0.970466
H104	H	0.733749	-0.659886	-0.987889
H105	H	0.586651	-0.607592	-0.841196
H106	H	0.717686	0.044770	-0.717752
H107	H	0.438872	0.044833	-0.439674
H108	H	0.717609	-0.457592	-0.717636
C109	C	0.816427	-0.313293	-0.816201
C110	C	0.910606	-0.350811	-0.764057
C111	C	0.995133	-0.380852	-0.848365
C112	C	0.985481	-0.373376	-0.984817
C113	C	0.891298	-0.335857	-1.036968
C114	C	0.806771	-0.305815	-0.952660
H115	H	0.917755	-0.356346	-0.663041
H116	H	1.064853	-0.408627	-0.809759
H117	H	1.048052	-0.395615	-1.047227
H118	H	0.884149	-0.330321	-1.137984
H119	H	0.737051	-0.278041	-0.991266
C120	C	0.416887	-0.062013	-0.417757
C121	C	0.280462	-0.054506	-0.427759
C122	C	0.195931	-0.084506	-0.343439
C123	C	0.247824	-0.122013	-0.249116
C124	C	0.384256	-0.129522	-0.239109
C125	C	0.468787	-0.099522	-0.323430
H126	H	0.242041	-0.026740	-0.497587
H127	H	0.094934	-0.078948	-0.350847
H128	H	0.185248	-0.144221	-0.186696
H129	H	0.422676	-0.157288	-0.169282
H130	H	0.569783	-0.105080	-0.316022
H131	H	0.361923	-0.305381	-0.363012
