data_functionalizedCrystal
_audit_creation_method	'MofGen! by Chris Wilmer'
_symmetry_space_group_name_H-M	'P1'
_symmetry_Int_Tables_number	1
_symmetry_cell_setting	triclinic
loop_
_symmetry_equiv_pos_as_xyz
  x,y,z
_cell_length_a	10.654562
_cell_length_b	10.654559
_cell_length_c	9.730223
_cell_angle_alpha	90.001244
_cell_angle_beta	89.996961
_cell_angle_gamma	95.510587
loop_
_atom_site_label
_atom_site_type_symbol
_atom_site_fract_x
_atom_site_fract_y
_atom_site_fract_z
O1	O	1.667831	-0.176469	-0.114380
O2	O	1.302355	-0.193258	-0.114363
O3	O	1.493490	-0.002125	-0.114363
O4	O	1.476696	-0.367601	-0.114380
O5	O	1.493487	-0.002130	0.114217
O6	O	1.302352	-0.193263	0.114217
O7	O	1.667828	-0.176473	0.114200
Zn8	Zn	1.485090	-0.184869	0.150500
Zn9	Zn	1.485093	-0.184862	-0.150664
O10	O	1.476694	-0.367606	0.114200
C11	C	1.255556	-0.192024	-0.000071
C12	C	1.116113	-0.188326	-0.000064
C13	C	1.050581	-0.186604	0.124524
C14	C	0.919559	-0.183139	0.124501
C15	C	0.919611	-0.183124	-0.124709
C16	C	1.050632	-0.186580	-0.124685
C17	C	1.116062	-0.188350	0.249145
C18	C	1.050530	-0.186629	0.373743
C19	C	0.919507	-0.183164	0.373720
C20	C	0.854017	-0.181420	0.249099
C21	C	1.492253	0.044670	-0.000074
C22	C	1.488556	0.184113	-0.000076
C23	C	1.714627	-0.177707	-0.000095
C24	C	1.854070	-0.181405	-0.000111
N25	N	1.485097	-0.184872	0.356037
C26	C	1.486816	0.249624	0.124522
C27	C	1.483353	0.380647	0.124519
C28	C	1.483367	0.380635	-0.124691
C29	C	1.486838	0.249616	-0.124687
C30	C	1.488534	0.184121	0.249133
C31	C	1.486792	0.249632	0.373741
C32	C	1.483329	0.380655	0.373738
C33	C	1.481609	0.446166	0.249127
C34	C	1.477929	0.585598	-0.000088
C35	C	1.481622	0.446155	-0.000084
N36	N	1.485096	-0.184849	-0.356200
C37	C	1.569754	-0.100268	0.427963
C38	C	1.569750	-0.100252	0.571846
C39	C	1.400430	-0.269458	0.571864
C40	C	1.400428	-0.269466	0.427984
C41	C	1.654423	-0.015674	0.356016
C42	C	1.739087	0.068936	0.427942
C43	C	1.739084	0.068952	0.571825
C44	C	1.654416	-0.015644	0.643782
H45	H	0.866279	-0.181707	-0.226170
H46	H	1.491348	0.077435	0.249150
O47	O	1.830406	0.160199	0.649398
H48	H	1.813577	0.258258	0.621767
O49	O	1.654418	-0.015674	0.200829
H50	H	1.748408	-0.036640	0.162885
H51	H	1.654412	-0.015616	0.760941
O52	O	1.488661	0.178987	0.508141
H53	H	1.404786	0.108863	0.514118
H54	H	1.481923	0.433991	0.475200
H55	H	1.103989	-0.187988	-0.226136
H56	H	1.103862	-0.188039	0.475205
O57	O	1.477874	0.587485	0.249114
H58	H	1.476948	0.622037	0.356691
H59	H	0.866156	-0.181753	0.475174
H60	H	1.481964	0.433985	-0.226144
O61	O	0.712699	-0.177683	0.249066
H62	H	0.678128	-0.176783	0.356638
H63	H	1.331498	-0.338333	0.630461
O64	O	1.257378	-0.192088	0.249182
H65	H	1.281492	-0.278452	0.195397
H66	H	1.808014	0.137818	0.369347
H67	H	1.331492	-0.338358	0.369421
O68	O	1.488704	0.178942	-0.259070
H69	H	1.486904	0.246496	-0.345721
