data_functionalizedCrystal
_audit_creation_method	'MofGen! by Chris Wilmer'
_symmetry_space_group_name_H-M	'P1'
_symmetry_Int_Tables_number	1
_symmetry_cell_setting	triclinic
loop_
_symmetry_equiv_pos_as_xyz
  x,y,z
_cell_length_a	16.120530
_cell_length_b	16.120444
_cell_length_c	13.032268
_cell_angle_alpha	80.356652
_cell_angle_beta	85.357344
_cell_angle_gamma	90.168401
loop_
_atom_site_label
_atom_site_type_symbol
_atom_site_fract_x
_atom_site_fract_y
_atom_site_fract_z
Zn1	Zn	1.180615	-0.462251	0.695154
Zn2	Zn	1.680615	0.037749	1.195154
Zn3	Zn	1.191119	-0.585372	0.528897
Zn4	Zn	1.691119	-0.085372	1.028897
Zn5	Zn	1.061090	-0.437590	0.511275
Zn6	Zn	1.561090	0.062410	1.011275
Zn7	Zn	1.034566	-0.594113	0.694200
Zn8	Zn	1.534566	-0.094113	1.194200
O9	O	1.116847	-0.519832	0.607381
O10	O	1.616847	-0.019832	1.107381
O11	O	1.297548	-0.485246	0.680873
O12	O	1.797548	0.014754	1.180873
O13	O	1.189366	-0.551790	0.380426
O14	O	1.689366	-0.051790	0.880426
O15	O	1.083649	-0.323829	0.528692
O16	O	1.583649	0.176171	1.028692
O17	O	1.305265	-0.575703	0.558725
O18	O	1.805265	-0.075703	1.058725
O19	O	1.171464	-0.341947	0.663786
O20	O	1.671464	0.158053	1.163786
O21	O	1.093834	-0.443215	0.367479
O22	O	1.593834	0.056785	0.867479
O23	O	0.942032	-0.451690	0.527767
O24	O	1.442032	0.048310	1.027767
O25	O	1.038444	-0.590600	0.840460
O26	O	1.538444	-0.090600	1.340460
O27	O	0.922545	-0.566687	0.662161
O28	O	1.422545	-0.066687	1.162161
O29	O	1.145746	-0.493721	0.841161
O30	O	1.645746	0.006279	1.341161
O31	O	1.163647	-0.703564	0.557800
O32	O	1.663647	-0.203564	1.057800
O33	O	1.048629	-0.709986	0.679248
O34	O	1.548629	-0.209986	1.179248
C35	C	0.902330	-0.507462	0.592949
C36	C	1.402330	-0.007462	1.092949
C37	C	0.810555	-0.502193	0.586801
C38	C	1.310555	-0.002193	1.086801
C39	C	0.642520	-0.492554	0.575584
C40	C	1.142520	0.007446	1.075584
C41	C	0.592004	-0.547179	0.639259
C42	C	1.092004	-0.047179	1.139259
C43	C	0.498503	-0.541815	0.633018
C44	C	0.998503	-0.041815	1.133018
C45	C	0.736029	-0.497916	0.581823
C46	C	1.236029	0.002084	1.081823
C47	C	1.104420	-0.737124	0.620357
C48	C	1.604420	-0.237124	1.120357
C49	C	1.099175	-0.830090	0.625948
C50	C	1.599175	-0.330090	1.125948
C51	C	1.144234	-1.038526	0.578616
C52	C	1.644234	-0.538526	1.078616
C53	C	1.089613	-1.000296	0.636168
C54	C	1.589613	-0.500296	1.136168
C55	C	1.094935	-0.905584	0.630480
C56	C	1.594935	-0.405584	1.130480
C57	C	1.138913	-1.133246	0.584303
C58	C	1.638913	-0.633246	1.084303
C59	C	1.332202	-0.532250	0.621871
C60	C	1.832202	-0.032250	1.121871
C61	C	1.423974	-0.537542	0.628045
C62	C	1.923974	-0.037542	1.128045
C63	C	1.087965	-0.545886	0.879761
C64	C	1.587965	-0.045886	1.379761
C65	C	1.075657	-0.556990	0.995833
C66	C	1.575657	-0.056990	1.495833
C67	C	1.129344	-0.301695	0.594380
C68	C	1.629344	0.198305	1.094380
C69	C	1.134669	-0.208738	0.588839
C70	C	1.634669	0.291262	1.088839
C71	C	1.145669	-0.493820	0.336061
C72	C	1.645669	0.006180	0.836061
C73	C	1.158150	-0.482491	0.219987
C74	C	1.658150	0.017509	0.719987
C75	C	1.123260	-0.514006	1.047928
C76	C	1.623260	-0.014006	1.547928
C77	C	1.110540	-0.525481	1.167894
C78	C	1.610540	-0.025481	1.667894
H79	H	1.038854	-1.038698	0.689711
H80	H	1.538854	-0.538698	1.189711
N81	N	1.047592	-0.582297	1.223361
N82	N	1.547592	-0.082297	1.723361
N83	N	1.037345	-0.591534	1.320735
N84	N	1.537345	-0.091534	1.820735
H85	H	0.992888	-0.631659	1.359910
H86	H	1.492888	-0.131659	1.859910
H87	H	0.618977	-0.597971	0.698463
H88	H	1.118977	-0.097971	1.198463
N89	N	1.221085	-0.425658	1.164520
N90	N	1.721085	0.074342	1.664520
N91	N	1.231327	-0.416412	1.067146
N92	N	1.731327	0.083588	1.567146
H93	H	1.275772	-0.376273	1.027970
H94	H	1.775772	0.123727	1.527970
H95	H	0.615548	-0.441764	0.516386
H96	H	1.115548	0.058236	1.016386
H97	H	1.194988	-1.000128	0.525076
H98	H	1.694988	-0.500128	1.025076
H99	H	1.173429	-0.468708	1.003713
H100	H	1.673429	0.031292	1.503713
N101	N	1.012712	-0.613803	1.051303
N102	N	1.512712	-0.113803	1.551303
N103	N	1.002465	-0.623040	1.148677
N104	N	1.502465	-0.123040	1.648677
H105	H	0.958008	-0.663165	1.187853
H106	H	1.458008	-0.163165	1.687853
