data_functionalizedCrystal
_audit_creation_method	'MofGen! by Chris Wilmer'
_symmetry_space_group_name_H-M	'P1'
_symmetry_Int_Tables_number	1
_symmetry_cell_setting	triclinic
loop_
_symmetry_equiv_pos_as_xyz
  x,y,z
_cell_length_a	19.805407
_cell_length_b	19.805405
_cell_length_c	19.805399
_cell_angle_alpha	89.970699
_cell_angle_beta	89.980803
_cell_angle_gamma	90.022560
loop_
_atom_site_label
_atom_site_type_symbol
_atom_site_fract_x
_atom_site_fract_y
_atom_site_fract_z
Zn1	Zn	-1.034736	0.269548	0.382705
Zn2	Zn	-1.034650	0.382737	0.269513
Zn3	Zn	-0.921550	0.269559	0.269530
Zn4	Zn	-0.921514	0.382693	0.382661
O5	O	-0.978113	0.326134	0.326102
O6	O	-1.129441	0.284577	0.367701
O7	O	-1.019627	0.367746	0.174799
O8	O	-0.936615	0.174841	0.284569
O9	O	-1.129378	0.367736	0.284540
O10	O	-1.019772	0.174833	0.367717
O11	O	-0.936533	0.284596	0.174811
O12	O	-0.826829	0.284553	0.284526
O13	O	-0.936553	0.367661	0.477383
O14	O	-0.826802	0.367672	0.367642
O15	O	-1.019737	0.284534	0.477415
O16	O	-1.019592	0.477448	0.284497
O17	O	-0.936471	0.477416	0.367626
C18	C	-0.802257	0.326110	0.326081
C19	C	-0.727025	0.326115	0.326089
C20	C	-0.691714	0.282890	0.369456
C21	C	-0.621025	0.282892	0.369457
C22	C	-0.585649	0.326124	0.326093
C23	C	-0.620965	0.369350	0.282721
C24	C	-0.691652	0.369344	0.282718
C25	C	-0.335892	0.369375	0.282735
C26	C	-0.265199	0.369379	0.282744
C27	C	-0.265265	0.282923	0.369474
C28	C	-0.335952	0.282917	0.369470
C29	C	-0.371262	0.326141	0.326096
C30	C	-0.447910	0.326137	0.326095
C31	C	-0.509002	0.326131	0.326098
C32	C	-0.978036	0.501991	0.326069
C33	C	-0.978066	0.577222	0.326078
C34	C	-0.978151	0.326092	0.502645
C35	C	-0.978167	0.326074	0.577877
C36	C	-0.154655	0.326155	0.326117
C37	C	-0.229887	0.326150	0.326108
C38	C	-0.978207	0.149592	0.326150
C39	C	-0.978248	0.074360	0.326170
C40	C	-1.021389	0.612561	0.282838
C41	C	-1.021418	0.683249	0.282853
C42	C	-0.978119	0.718598	0.326105
C43	C	-0.934794	0.683255	0.369350
C44	C	-0.934769	0.612568	0.369338
C45	C	-0.934894	0.968328	0.369400
C46	C	-0.934921	1.039020	0.369407
C47	C	-1.021542	1.039010	0.282915
C48	C	-1.021517	0.968322	0.282903
C49	C	-0.978195	0.932985	0.326150
C50	C	-0.978165	0.856337	0.326134
C51	C	-0.978145	0.795245	0.326118
C52	C	-0.978114	0.326128	0.150246
C53	C	-0.978229	0.325956	0.075015
C54	C	-1.021481	0.282787	0.613239
C55	C	-1.021488	0.282768	0.683928
C56	C	-0.978184	0.326038	0.719253
C57	C	-0.934864	0.369327	0.683886
C58	C	-0.934854	0.369342	0.613198
C59	C	-0.934902	0.369264	0.968959
C60	C	-0.934917	0.369246	1.039651
C61	C	-1.021536	0.282689	1.039688
C62	C	-1.021527	0.282705	0.969001
C63	C	-0.978205	0.325990	0.933640
C64	C	-0.978197	0.326010	0.856992
C65	C	-0.978194	0.326022	0.795900
H66	H	-0.364632	0.404571	0.247418
H67	H	-1.056773	0.939544	0.247681
F68	F	-0.227551	0.415393	0.236587
F69	F	-0.729357	0.236880	0.415613
F70	F	-0.583313	0.415357	0.236567
H71	H	-1.056820	1.067790	0.247704
H72	H	-0.899543	0.712041	0.404569
H73	H	-0.899576	0.404584	0.584407
H74	H	-1.056695	0.712019	0.247642
H75	H	-1.056747	0.247553	0.584482
H76	H	-0.899618	0.939562	0.404612
H77	H	-0.899663	1.067799	0.404633
F78	F	-0.373598	0.236908	0.415626
F79	F	-0.227680	0.236918	0.415636
H80	H	-1.056761	0.247521	0.712716
H81	H	-0.720401	0.404542	0.247403
H82	H	-1.056809	0.247441	1.068488
H83	H	-0.899492	0.583796	0.404549
F84	F	-1.067470	0.574946	0.236798
H85	H	-0.899650	0.404483	1.068411
H86	H	-0.899637	0.404519	0.940177
F87	F	-0.888773	0.415376	0.721483
F88	F	-1.067620	0.236653	0.931409
H89	H	-0.592278	0.247696	0.404772
