data_functionalizedCrystal
_audit_creation_method	'MofGen! by Chris Wilmer'
_symmetry_space_group_name_H-M	'P1'
_symmetry_Int_Tables_number	1
_symmetry_cell_setting	triclinic
loop_
_symmetry_equiv_pos_as_xyz
  x,y,z
_cell_length_a	15.944551
_cell_length_b	15.944493
_cell_length_c	11.804365
_cell_angle_alpha	101.834508
_cell_angle_beta	78.155318
_cell_angle_gamma	83.486891
loop_
_atom_site_label
_atom_site_type_symbol
_atom_site_fract_x
_atom_site_fract_y
_atom_site_fract_z
O1	O	1.131450	0.091400	-0.098887
O2	O	0.886902	0.104751	-0.098915
O3	O	1.015881	-0.024204	-0.098910
O4	O	1.002471	0.220355	-0.098892
O5	O	0.981926	0.009711	0.099144
O6	O	0.852947	0.138666	0.099140
O7	O	1.097494	0.125314	0.099167
Cu8	Cu	0.972120	0.135087	0.117237
Cu9	Cu	1.012276	0.094979	-0.116985
O10	O	0.968515	0.254270	0.099163
C11	C	0.838631	0.121154	0.000108
C12	C	0.745387	0.119489	0.000097
C13	C	0.998356	-0.038543	0.000112
C14	C	0.996716	-0.131794	0.000097
C15	C	1.072631	-0.367548	0.000128
C16	C	1.048432	-0.434839	-0.097528
C17	C	0.993670	-0.302512	0.000111
C18	C	1.014937	-0.401377	0.097739
C19	C	0.990732	-0.467419	0.000130
C20	C	0.969506	-0.368588	-0.097625
C21	C	0.936007	-0.335109	0.097729
C22	C	0.911754	-0.402370	0.000050
C23	C	0.995364	-0.207514	0.000099
C24	C	0.989032	-0.562415	0.000133
C25	C	0.530545	0.035586	0.000114
C26	C	0.486258	0.057828	-0.097535
C27	C	0.574660	0.116484	0.000111
C28	C	0.452803	0.091284	0.097732
C29	C	0.409745	0.113577	0.000130
C30	C	0.531615	0.138735	-0.097618
C31	C	0.498151	0.172195	0.097736
C32	C	0.453886	0.194492	0.000064
C33	C	0.669664	0.118157	0.000099
C34	C	0.314743	0.111909	0.000133
C35	C	1.145766	0.108912	0.000141
C36	C	1.239011	0.110575	0.000145
C37	C	0.986041	0.268608	0.000138
C38	C	0.987682	0.361858	0.000145
N39	N	0.943883	0.163297	0.281977
N40	N	1.040520	0.066763	-0.281725
C41	C	1.108329	-0.000995	0.655932
C42	C	1.129689	-0.022339	0.531271
C43	C	1.083239	0.024068	0.468941
C44	C	1.015425	0.091823	0.531285
C45	C	0.994067	0.113173	0.655958
C46	C	0.968978	0.138236	0.468967
C47	C	0.901164	0.205991	0.531311
C48	C	0.879809	0.227338	0.655972
C49	C	0.926259	0.180931	0.718301
C50	C	0.990336	0.116886	0.344294
C51	C	0.876074	0.231054	0.344321
C52	C	0.854714	0.252398	0.468981
H53	H	1.140664	-0.351935	0.000037
Br54	Br	0.762682	0.344348	0.553602
H55	H	0.565764	0.158774	-0.180262
Br56	Br	0.395747	0.057793	0.235323
H57	H	1.146147	-0.038769	0.706689
Br58	Br	0.476347	-0.022762	-0.235145
Br59	Br	0.856899	-0.263251	0.235331
H60	H	1.034148	-0.416172	0.180293
H61	H	0.563914	-0.031576	-0.000012
H62	H	0.908865	0.198306	0.819811
Br63	Br	0.508103	0.252746	0.235349
Br64	Br	1.127601	-0.506647	-0.235123
H65	H	1.045550	0.061720	0.293545
H66	H	0.843694	-0.417847	-0.000011
H67	H	0.420722	0.261693	0.000014
H68	H	0.950347	-0.353921	-0.180273
H69	H	1.100634	0.006687	0.367437
H70	H	1.184903	-0.077503	0.480515
H71	H	0.824597	0.282514	0.706732
Br72	Br	0.813037	0.294044	0.259740
