data_functionalizedCrystal
_audit_creation_method	'MofGen! by Chris Wilmer'
_symmetry_space_group_name_H-M	'P1'
_symmetry_Int_Tables_number	1
_symmetry_cell_setting	triclinic
loop_
_symmetry_equiv_pos_as_xyz
  x,y,z
_cell_length_a	16.625547
_cell_length_b	16.625546
_cell_length_c	16.625527
_cell_angle_alpha	89.912139
_cell_angle_beta	89.935872
_cell_angle_gamma	90.022405
loop_
_atom_site_label
_atom_site_type_symbol
_atom_site_fract_x
_atom_site_fract_y
_atom_site_fract_z
Zn1	Zn	1.232993	-0.320544	-0.455990
Zn2	Zn	1.566327	0.012789	-0.122657
Zn3	Zn	1.899660	0.346123	0.210676
Zn4	Zn	1.232804	-0.455522	-0.321152
Zn5	Zn	1.566137	-0.122189	0.012181
Zn6	Zn	1.899471	0.211144	0.345515
Zn7	Zn	1.098063	-0.320707	-0.321160
Zn8	Zn	1.431396	0.012626	0.012173
Zn9	Zn	1.764729	0.345959	0.345506
Zn10	Zn	1.098126	-0.455338	-0.455932
Zn11	Zn	1.431459	-0.122005	-0.122599
Zn12	Zn	1.764792	0.211328	0.210734
O13	O	1.165497	-0.388028	-0.388559
O14	O	1.498830	-0.054695	-0.055225
O15	O	1.832163	0.278639	0.278108
O16	O	1.345801	-0.338458	-0.438124
O17	O	1.679134	-0.005125	-0.104791
O18	O	2.012467	0.328209	0.228542
O19	O	1.214825	-0.437784	-0.208321
O20	O	1.548158	-0.104451	0.125013
O21	O	1.881492	0.228882	0.458346
O22	O	1.116015	-0.207853	-0.339074
O23	O	1.449348	0.125480	-0.005740
O24	O	1.782681	0.458813	0.327593
O25	O	1.345662	-0.437626	-0.339059
O26	O	1.678995	-0.104293	-0.005726
O27	O	2.012328	0.229041	0.327607
O28	O	1.215148	-0.207733	-0.438132
O29	O	1.548481	0.125600	-0.104799
O30	O	1.881814	0.458933	0.228534
O31	O	1.115831	-0.338736	-0.208327
O32	O	1.449164	-0.005403	0.125007
O33	O	1.782498	0.327930	0.458340
O34	O	0.985239	-0.338558	-0.339017
O35	O	1.318572	-0.005224	-0.005684
O36	O	1.651905	0.328109	0.327649
O37	O	1.116122	-0.437312	-0.568773
O38	O	1.449455	-0.103979	-0.235439
O39	O	1.782788	0.229355	0.097894
O40	O	0.985285	-0.437470	-0.438034
O41	O	1.318618	-0.104137	-0.104700
O42	O	1.651952	0.229196	0.228633
O43	O	1.215209	-0.338279	-0.568815
O44	O	1.548542	-0.004946	-0.235482
O45	O	1.881875	0.328387	0.097851
O46	O	1.214886	-0.568330	-0.339003
O47	O	1.548219	-0.234997	-0.005670
O48	O	1.881553	0.098336	0.327663
O49	O	1.115938	-0.568195	-0.438026
O50	O	1.449272	-0.234862	-0.104692
O51	O	1.782605	0.098472	0.228641
C52	C	0.956006	-0.388012	-0.388521
C53	C	1.289339	-0.054679	-0.055187
C54	C	1.622672	0.278654	0.278146
C55	C	0.866385	-0.388025	-0.388524
C56	C	1.199718	-0.054692	-0.055190
C57	C	1.533051	0.278642	0.278143
C58	C	0.793602	-0.388027	-0.388533
C59	C	1.126935	-0.054693	-0.055200
C60	C	1.460269	0.278640	0.278133
C61	C	0.702294	-0.388031	-0.388554
C62	C	1.035627	-0.054698	-0.055220
C63	C	1.368960	0.278636	0.278113
C64	C	0.629517	-0.388038	-0.388574
C65	C	0.962851	-0.054705	-0.055241
C66	C	1.296184	0.278628	0.278093
C67	C	0.538203	-0.388044	-0.388593
C68	C	0.871536	-0.054710	-0.055260
C69	C	1.204870	0.278623	0.278073
C70	C	1.165420	-0.597519	-0.388525
C71	C	1.498754	-0.264186	-0.055192
C72	C	1.832087	0.069148	0.278142
C73	C	1.165461	-0.687140	-0.388538
C74	C	1.498795	-0.353807	-0.055204
C75	C	1.832128	-0.020473	0.278129
C76	C	1.165602	-1.015315	-0.388622
C77	C	1.498935	-0.681982	-0.055288
C78	C	1.832269	-0.348649	0.278045
C79	C	1.165560	-0.924007	-0.388600
C80	C	1.498894	-0.590674	-0.055267
C81	C	1.832227	-0.257340	0.278066
C82	C	1.165531	-0.851231	-0.388579
C83	C	1.498864	-0.517897	-0.055246
C84	C	1.832198	-0.184564	0.278088
C85	C	1.165491	-0.759916	-0.388559
C86	C	1.498824	-0.426583	-0.055225
C87	C	1.832157	-0.093250	0.278108
C88	C	1.375805	-0.388044	-0.388597
C89	C	1.709139	-0.054711	-0.055264
C90	C	2.042472	0.278622	0.278069
C91	C	1.465427	-0.388051	-0.388614
C92	C	1.798760	-0.054718	-0.055281
C93	C	2.132093	0.278615	0.278053
C94	C	1.165693	-0.387757	-0.598868
C95	C	1.499027	-0.054424	-0.265535
C96	C	1.832360	0.278910	0.067798
C97	C	1.165777	-0.387641	-0.688490
C98	C	1.499110	-0.054308	-0.355156
C99	C	1.832444	0.279025	-0.021823
C100	C	1.165595	-0.177719	-0.388610
C101	C	1.498928	0.155614	-0.055277
C102	C	1.832262	0.488948	0.278056
C103	C	1.165637	-0.088098	-0.388632
C104	C	1.498970	0.245235	-0.055299
C105	C	1.832304	0.578569	0.278034
C106	C	1.165347	-0.388240	-0.179067
C107	C	1.498680	-0.054907	0.154266
C108	C	1.832014	0.278427	0.487599
C109	C	1.165419	-0.388128	-0.089447
C110	C	1.498753	-0.054795	0.243887
C111	C	1.832086	0.278538	0.577220
C112	C	1.165719	-0.387733	0.238728
C113	C	1.499052	-0.054400	0.572061
C114	C	1.832385	0.278934	0.905395
C115	C	1.165638	-0.387845	0.147420
C116	C	1.498971	-0.054512	0.480753
C117	C	1.832304	0.278821	0.814087
C118	C	1.165569	-0.387931	0.074644
C119	C	1.498902	-0.054598	0.407977
C120	C	1.832235	0.278735	0.741310
C121	C	1.165488	-0.388042	-0.016670
C122	C	1.498822	-0.054709	0.316663
C123	C	1.832155	0.278624	0.649996
