data_functionalizedCrystal
_audit_creation_method	'MofGen! by Chris Wilmer'
_symmetry_space_group_name_H-M	'P1'
_symmetry_Int_Tables_number	1
_symmetry_cell_setting	triclinic
loop_
_symmetry_equiv_pos_as_xyz
  x,y,z
_cell_length_a	6.817900
_cell_length_b	16.305550
_cell_length_c	16.306099
_cell_angle_alpha	95.377095
_cell_angle_beta	103.465342
_cell_angle_gamma	103.455250
loop_
_atom_site_label
_atom_site_type_symbol
_atom_site_fract_x
_atom_site_fract_y
_atom_site_fract_z
V1	V	-4.026242	-0.263339	-0.117433
O2	O	-4.013841	-0.258011	0.004911
O3	O	-3.977690	-0.261841	-0.232145
O4	O	-3.977649	-0.378053	-0.115948
O5	O	-4.013883	-0.140996	-0.112091
V6	V	-4.509915	-0.248669	-0.102761
O7	O	-4.287172	-0.295519	-0.149616
O8	O	-4.699183	-0.216489	-0.070578
O9	O	-4.335261	-0.250167	0.011951
O10	O	-4.639713	-0.253997	-0.225104
O11	O	-4.639671	-0.371013	-0.108103
O12	O	-4.335303	-0.133956	-0.104246
C13	C	-3.822660	-0.257765	-0.260099
C14	C	-3.864249	-0.257305	-0.353879
C15	C	-3.940317	-0.256434	-0.525576
C16	C	-4.176204	-0.261357	-0.566502
C17	C	-4.219361	-0.260545	-0.663995
C18	C	-4.015214	-0.255578	-0.694623
C19	C	-3.847661	-0.172400	-0.643781
C20	C	-3.805831	-0.172859	-0.546231
C21	C	-3.886227	-0.334028	-0.571637
C22	C	-3.934127	-0.334692	-0.669482
C23	C	-4.057530	-0.255091	-0.790160
C24	C	-3.897992	-0.256915	-0.430037
C25	C	-3.822606	-0.406003	-0.111877
C26	C	-3.864158	-0.499784	-0.111422
C27	C	-4.015245	-0.840524	-0.109659
C28	C	-3.779197	-0.799582	-0.104424
C29	C	-3.736003	-0.702089	-0.105247
C30	C	-3.940287	-0.671479	-0.110533
C31	C	-4.107318	-0.722324	-0.193849
C32	C	-4.149182	-0.819872	-0.193378
C33	C	-4.070002	-0.794478	-0.032243
C34	C	-4.022073	-0.696634	-0.031584
C35	C	-3.897938	-0.575942	-0.111030
C36	C	-4.057604	-0.936062	-0.109168
C37	C	-4.153633	-0.254241	0.039901
C38	C	-4.091283	-0.254707	0.133680
C39	C	-4.153687	-0.106001	-0.108319
C40	C	-4.091374	-0.012220	-0.108770
H41	H	-4.220813	-0.205603	-0.534831
Cl42	Cl	-4.021741	-0.696607	-0.284360
Cl43	Cl	-3.835186	-0.643313	0.063565
H44	H	-4.113035	-0.850407	-0.251984
H45	H	-4.323018	-0.847883	-0.200685
H46	H	-4.260474	-0.703429	-0.200731
Cl47	Cl	-3.860866	-0.082186	-0.499068
Cl48	Cl	-3.928893	-0.814862	0.065223
H49	H	-3.978047	-0.397064	-0.558432
H50	H	-3.714287	-0.331167	-0.544822
H51	H	-3.902580	-0.113662	-0.660432
Cl52	Cl	-3.537591	-0.161941	-0.503001
Cl53	Cl	-3.633463	-0.677156	-0.192117
Cl54	Cl	-4.121610	-0.429684	-0.722801
Cl55	Cl	-4.335651	-0.835895	-0.037015
Cl56	Cl	-4.249468	-0.663665	-0.029976
Cl57	Cl	-3.706952	-0.336664	-0.702475
H58	H	-4.285290	-0.204153	-0.680131
H59	H	-4.282728	-0.321427	-0.554292
Cl60	Cl	-3.611319	-0.162131	-0.672970
Cl61	Cl	-4.414882	-0.352961	-0.718319
Cl62	Cl	-3.540647	-0.647771	-0.012775
H63	H	-3.673060	-0.811788	-0.044237
H64	H	-3.734105	-0.831240	-0.160044
