data_functionalizedCrystal
_audit_creation_method	'MofGen! by Chris Wilmer'
_symmetry_space_group_name_H-M	'P1'
_symmetry_Int_Tables_number	1
_symmetry_cell_setting	triclinic
loop_
_symmetry_equiv_pos_as_xyz
  x,y,z
_cell_length_a	11.026607
_cell_length_b	10.868271
_cell_length_c	11.026607
_cell_angle_alpha	90.002960
_cell_angle_beta	108.586017
_cell_angle_gamma	90.003487
loop_
_atom_site_label
_atom_site_type_symbol
_atom_site_fract_x
_atom_site_fract_y
_atom_site_fract_z
O1	O	1.726733	0.102319	0.533624
O2	O	1.360153	0.102321	0.472861
O3	O	1.513061	0.102316	0.319952
O4	O	1.573825	0.102325	0.686532
O5	O	1.513044	-0.102329	0.319941
O6	O	1.360135	-0.102323	0.472850
O7	O	1.726715	-0.102325	0.533613
Zn8	Zn	1.543423	-0.134816	0.503230
Zn9	Zn	1.543446	0.134812	0.503244
O10	O	1.573807	-0.102320	0.686521
C11	C	1.312485	-0.000001	0.461645
C12	C	1.170471	-0.000000	0.428228
C13	C	1.116821	0.000003	0.520498
C14	C	0.970043	0.000004	0.485962
N15	N	1.543416	-0.318830	0.503221
C16	C	1.543439	-0.569836	0.503240
C17	C	1.543423	-0.430159	0.503232
C18	C	1.774384	-0.000001	0.544828
C19	C	1.916398	0.000007	0.578245
C20	C	1.501843	-0.000005	0.272287
C21	C	1.468426	-0.000000	0.130273
N22	N	1.543461	0.318826	0.503245
C23	C	1.560695	0.000001	0.076624
C24	C	1.526160	0.000006	-0.070155
C25	C	1.585026	0.000003	0.734187
C26	C	1.618443	0.000007	0.876200
H27	H	0.907314	0.000033	0.381393
O28	O	1.685460	0.000221	0.151401
C29	C	1.887873	0.106211	0.209825
C30	C	1.746596	0.106126	0.125089
H31	H	1.937350	0.191813	0.188562
H32	H	1.893573	0.106290	0.314890
H33	H	1.937311	0.020530	0.188689
H34	H	1.697071	0.191792	0.146112
H35	H	1.740988	0.105983	0.020049
O36	O	1.095776	0.000163	0.303436
C37	C	1.037264	0.106221	0.101074
C38	C	1.121947	0.106174	0.242370
H39	H	1.058374	0.191934	0.051667
H40	H	1.058418	0.020636	0.051498
H41	H	0.932229	0.106161	0.095478
H42	H	1.227010	0.106277	0.248082
H43	H	1.100684	0.191752	0.291883
H44	H	1.421590	0.000014	-0.132884
H45	H	0.979125	0.000001	0.682816
O46	O	1.343744	-0.000050	0.055258
C47	C	1.195643	0.000040	-0.159430
C48	C	1.336898	0.000066	-0.074631
H49	H	1.190061	0.000159	-0.264461
H50	H	1.146104	-0.085624	-0.138396
H51	H	1.146183	0.085663	-0.138197
H52	H	1.386468	-0.085499	-0.095815
H53	H	1.386341	0.085786	-0.095679
H54	H	1.179555	-0.000002	0.625061
H55	H	1.723013	0.000099	-0.061072
