data_functionalizedCrystal
_audit_creation_method	'MofGen! by Chris Wilmer'
_symmetry_space_group_name_H-M	'P1'
_symmetry_Int_Tables_number	1
_symmetry_cell_setting	triclinic
loop_
_symmetry_equiv_pos_as_xyz
  x,y,z
_cell_length_a	17.640280
_cell_length_b	13.032987
_cell_length_c	13.032268
_cell_angle_alpha	90.885097
_cell_angle_beta	92.705783
_cell_angle_gamma	109.623937
loop_
_atom_site_label
_atom_site_type_symbol
_atom_site_fract_x
_atom_site_fract_y
_atom_site_fract_z
Zn1	Zn	-0.537296	-1.657807	0.657633
Zn2	Zn	-0.655829	-1.714702	0.458463
Zn3	Zn	-0.504060	-1.497810	0.471493
Zn4	Zn	-0.651525	-1.519676	0.609569
O5	O	-0.587177	-1.597499	0.549290
O6	O	-0.568730	-1.813933	0.645875
O7	O	-0.623588	-1.700591	0.319053
O8	O	-0.397147	-1.486073	0.521754
O9	O	-0.655816	-1.855733	0.499545
O10	O	-0.421566	-1.603622	0.658510
O11	O	-0.512084	-1.541242	0.328626
O12	O	-0.507911	-1.352133	0.475147
O13	O	-0.648480	-1.523339	0.757083
O14	O	-0.616253	-1.368197	0.576591
O15	O	-0.564557	-1.624824	0.792396
O16	O	-0.766579	-1.721793	0.452939
O17	O	-0.763417	-1.578508	0.563956
C18	C	-0.558009	-1.321640	0.522068
C19	C	-0.545551	-1.203630	0.510442
C20	C	-0.580798	-1.037054	0.543335
C21	C	-0.593677	-1.159025	0.555348
C22	C	-0.793867	-1.658723	0.501843
C23	C	-0.882303	-1.685009	0.481588
C24	C	-1.165001	-1.398206	0.703572
C25	C	-1.248098	-1.422911	0.684507
C26	C	-1.251345	-1.572184	0.569045
C27	C	-1.168248	-1.547495	0.588103
C28	C	-1.125082	-1.460504	0.655367
C29	C	-1.128329	-1.609793	0.539898
C30	C	-1.045238	-1.585102	0.558951
C31	C	-1.002066	-1.498113	0.626209
C32	C	-1.041992	-1.435813	0.674420
C33	C	-1.171495	-1.696779	0.472629
C34	C	-1.131576	-1.759077	0.424424
C35	C	-1.048485	-1.734391	0.443482
C36	C	-1.005313	-1.647402	0.510740
C37	C	-1.008560	-1.796691	0.395271
C38	C	-0.925469	-1.772000	0.414324
C39	C	-0.922222	-1.622711	0.529793
C40	C	-0.379685	-1.536062	0.596947
C41	C	-0.291264	-1.509881	0.617255
C42	C	-0.609746	-1.570174	0.812358
C43	C	-0.619363	-1.558530	0.924463
C44	C	-0.616455	-0.874434	0.576611
C45	C	-0.628917	-0.992446	0.588235
C46	C	-0.564645	-1.624761	0.287263
C47	C	-0.554826	-1.636545	0.175231
C48	C	-0.582127	-1.603551	0.991914
C49	C	-0.592067	-1.591517	1.107780
H50	H	-0.887076	-1.551881	0.584574
C51	C	-0.645075	-1.527400	1.145639
N52	N	-0.685001	-1.479108	1.174155
C53	C	-0.910664	-1.470953	0.647168
N54	N	-0.841819	-1.450498	0.662956
C55	C	-0.662219	-1.229414	0.619298
N56	N	-0.713844	-1.282432	0.667462
H57	H	-0.679645	-1.044553	0.635575
C58	C	-0.512259	-0.966662	0.479390
N59	N	-0.460634	-0.913644	0.431225
H60	H	-0.494813	-1.151525	0.463109
H61	H	-0.892966	-1.822729	0.375069
C62	C	-0.501814	-1.700659	1.137376
N63	N	-0.461888	-1.748951	1.108862
H64	H	-0.658595	-1.511068	0.952494
H65	H	-1.239153	-1.716882	0.457121
H66	H	-0.542887	-1.651000	0.963883
C67	C	-0.994502	-1.340105	0.748399
N68	N	-0.958731	-1.268014	0.804108
C69	C	-1.298836	-1.667868	0.495052
N70	N	-1.334605	-1.739939	0.439320
H71	H	-1.280599	-1.372185	0.723780
C72	C	-1.117512	-1.302498	0.777551
N73	N	-1.081741	-1.230407	0.833260
H74	H	-1.166732	-1.829903	0.369654
H75	H	-1.043716	-1.867512	0.340498
