data_functionalizedCrystal
_audit_creation_method	'MofGen! by Chris Wilmer'
_symmetry_space_group_name_H-M	'P1'
_symmetry_Int_Tables_number	1
_symmetry_cell_setting	triclinic
loop_
_symmetry_equiv_pos_as_xyz
  x,y,z
_cell_length_a	29.839134
_cell_length_b	29.839131
_cell_length_c	12.759393
_cell_angle_alpha	89.962110
_cell_angle_beta	89.966250
_cell_angle_gamma	90.034165
loop_
_atom_site_label
_atom_site_type_symbol
_atom_site_fract_x
_atom_site_fract_y
_atom_site_fract_z
Zn1	Zn	0.686761	-0.178914	-0.594363
Zn2	Zn	0.686681	-0.254052	-0.418663
Zn3	Zn	0.611632	-0.178928	-0.418655
Zn4	Zn	0.611592	-0.254008	-0.594258
O5	O	0.649167	-0.216475	-0.506485
O6	O	0.749618	-0.188894	-0.571103
O7	O	0.676709	-0.244111	-0.271641
O8	O	0.621648	-0.116059	-0.442004
O9	O	0.749559	-0.244098	-0.442017
O10	O	0.676846	-0.116048	-0.571095
O11	O	0.621570	-0.188917	-0.271635
O12	O	0.548760	-0.188874	-0.441902
O13	O	0.621580	-0.244022	-0.741293
O14	O	0.548730	-0.244036	-0.570917
O15	O	0.676807	-0.188851	-0.741370
O16	O	0.676670	-0.316913	-0.441916
O17	O	0.621503	-0.316881	-0.570924
C18	C	0.532444	-0.216452	-0.506398
C19	C	0.482510	-0.216453	-0.506386
C20	C	0.649086	-0.333198	-0.506433
C21	C	0.649092	-0.383132	-0.506445
C22	C	0.125925	-0.187710	-0.439444
C23	C	0.313598	-0.187698	-0.439380
O24	O	0.337865	-0.163222	-0.382366
N25	N	0.337065	-0.216460	-0.506438
C26	C	0.313610	-0.245226	-0.573522
O27	O	0.337875	-0.269686	-0.630565
C28	C	0.125937	-0.245236	-0.573590
C29	C	0.102474	-0.216475	-0.506520
C30	C	0.102461	-0.158951	-0.372380
C31	C	0.055546	-0.158957	-0.372393
C32	C	0.032094	-0.187721	-0.439469
C33	C	0.055558	-0.216480	-0.506533
C34	C	0.102483	-0.273999	-0.640679
C35	C	0.055562	-0.273998	-0.640692
C36	C	0.032099	-0.245237	-0.573622
C37	C	-0.014809	-0.245249	-0.573622
N38	N	-0.038275	-0.216487	-0.506564
C39	C	-0.014823	-0.187723	-0.439487
C40	C	0.412140	-0.245219	-0.573480
C41	C	0.459058	-0.245217	-0.573462
C42	C	0.459044	-0.187688	-0.439321
C43	C	0.412125	-0.187693	-0.439335
C44	C	0.388674	-0.216457	-0.506422
C45	C	-0.113349	-0.187736	-0.439518
C46	C	-0.160269	-0.187745	-0.439534
C47	C	-0.160250	-0.245272	-0.573678
C48	C	-0.113335	-0.245265	-0.573659
C49	C	-0.089885	-0.216493	-0.506576
O50	O	-0.039105	-0.269709	-0.630614
O51	O	-0.039097	-0.163259	-0.382469
C52	C	0.172841	-0.187705	-0.439431
C53	C	0.196305	-0.216464	-0.506495
C54	C	0.172853	-0.245228	-0.573572
C55	C	0.243222	-0.216462	-0.506477
C56	C	0.266674	-0.187698	-0.439401
C57	C	0.243208	-0.158936	-0.372342
C58	C	0.196292	-0.158941	-0.372355
C59	C	0.196319	-0.273991	-0.640630
C60	C	0.243235	-0.273984	-0.640611
C61	C	0.266686	-0.245219	-0.573535
C62	C	0.677945	-0.692780	-0.439408
C63	C	0.678000	-0.880453	-0.439449
O64	O	0.702468	-0.904721	-0.382411
N65	N	0.649260	-0.903917	-0.506564
C66	C	0.620506	-0.880461	-0.573679
O67	O	0.596065	-0.904725	-0.630773
C68	C	0.620453	-0.692788	-0.573642
C69	C	0.649192	-0.669326	-0.506515
C70	C	0.706682	-0.669318	-0.372287
C71	C	0.706666	-0.622403	-0.372274
C72	C	0.677913	-0.598949	-0.439381
C73	C	0.649176	-0.622411	-0.506502
C74	C	0.591701	-0.669332	-0.640761
C75	C	0.591691	-0.622411	-0.640748
C76	C	0.620430	-0.598950	-0.573621
C77	C	0.620407	-0.552042	-0.573595
N78	N	0.649147	-0.528578	-0.506480
C79	C	0.677900	-0.552031	-0.439373
C80	C	0.620535	-0.978991	-0.573691
C81	C	0.620547	-1.025909	-0.573699
C82	C	0.678043	-1.025898	-0.439471
C83	C	0.678027	-0.978980	-0.439458
C84	C	0.649275	-0.955527	-0.506576
C85	C	0.677865	-0.453505	-0.439349
C86	C	0.677845	-0.406586	-0.439338
C87	C	0.620351	-0.406601	-0.573570
C88	C	0.620369	-0.453516	-0.573577
C89	C	0.649130	-0.476967	-0.506463
O90	O	0.595956	-0.527745	-0.630611
O91	O	0.702345	-0.527759	-0.382304
C92	C	0.677961	-0.739695	-0.439422
C93	C	0.649224	-0.763157	-0.506542
C94	C	0.620471	-0.739704	-0.573650
C95	C	0.649236	-0.810075	-0.506550
C96	C	0.677989	-0.833529	-0.439443
C97	C	0.706729	-0.810064	-0.372328
C98	C	0.706714	-0.763149	-0.372315
C99	C	0.591730	-0.763168	-0.640765
C100	C	0.591748	-0.810084	-0.640772
C101	C	0.620501	-0.833537	-0.573665
C102	C	0.766345	-0.216499	-0.506573
C103	C	0.816279	-0.216509	-0.506610
C104	C	0.649198	-0.216430	-0.780518
C105	C	0.649212	-0.216411	-0.897295
C106	C	0.649260	-0.099297	-0.506560
C107	C	0.649300	-0.049363	-0.506592
C108	C	0.677972	-0.187680	-0.952199
C109	C	0.677983	-0.187664	-1.061923
C110	C	0.620471	-0.245113	-1.061830
C111	C	0.620459	-0.245126	-0.952108
C112	C	0.711177	-0.154514	-0.952253
C113	C	0.711188	-0.154498	-1.061977
C114	C	0.649161	-0.216488	-0.233517
C115	C	0.649235	-0.216381	-0.116741
H116	H	-0.179371	-0.164324	-0.384914
H117	H	0.568317	-0.744076	-0.695413
H118	H	0.121551	-0.135526	-0.317758
O119	O	-0.183058	-0.273145	-0.638947
C120	C	-0.236018	-0.279242	-0.780730
C121	C	-0.210206	-0.247629	-0.706888
H122	H	-0.257980	-0.258625	-0.835664
H123	H	-0.211214	-0.299792	-0.828750
H124	H	-0.257993	-0.302719	-0.732384
H125	H	-0.188230	-0.224125	-0.755153
H126	H	-0.235033	-0.227110	-0.658864
O127	O	0.706050	-1.048622	-0.374340
C128	C	0.782501	-1.062913	-0.323660
C129	C	0.750825	-1.037149	-0.397455
H130	H	0.818708	-1.053654	-0.342337
H131	H	0.774677	-1.053712	-0.238899
H132	H	0.777564	-1.100477	-0.335159
H133	H	0.755743	-0.999579	-0.386049
H134	H	0.758656	-1.046388	-0.482189
O135	O	0.389385	-0.159774	-0.374040
C136	C	0.374976	-0.137900	-0.195416
C137	C	0.400759	-0.169540	-0.269247
H138	H	0.384155	-0.145790	-0.110675
H139	H	0.384240	-0.101677	-0.213927
H140	H	0.337415	-0.142828	-0.206994
H141	H	0.438326	-0.164652	-0.257710
H142	H	0.391458	-0.205752	-0.250718
O143	O	0.032852	-0.301980	-0.705900
C144	C	0.037823	-0.359011	-0.839014
C145	C	0.063596	-0.327353	-0.765203
H146	H	0.062668	-0.379527	-0.886995
H147	H	0.015841	-0.382515	-0.790750
H148	H	0.015874	-0.338404	-0.893993
H149	H	0.085569	-0.347925	-0.710208
H150	H	0.085549	-0.303848	-0.813531
H151	H	-0.094230	-0.268688	-0.628265
H152	H	0.597037	-0.268520	-0.907409
H153	H	0.568297	-0.688427	-0.695418
O154	O	0.389313	-0.273186	-0.638500
C155	C	0.336341	-0.333875	-0.652398
C156	C	0.362154	-0.302221	-0.578652
H157	H	0.314384	-0.357364	-0.604039
H158	H	0.314374	-0.313306	-0.707420
H159	H	0.361184	-0.354410	-0.700339
H160	H	0.337343	-0.281680	-0.530643
H161	H	0.384128	-0.322816	-0.523699
H162	H	0.701248	-0.387485	-0.384672
O163	O	-0.090644	-0.159777	-0.374248
C164	C	-0.095623	-0.102708	-0.241225
C165	C	-0.121392	-0.134351	-0.315080
H166	H	-0.120471	-0.082136	-0.193385
H167	H	-0.073699	-0.123285	-0.186125
H168	H	-0.073617	-0.079253	-0.289552
H169	H	-0.143422	-0.157813	-0.266838
H170	H	-0.143287	-0.113746	-0.370183
H171	H	0.036446	-0.135536	-0.317777
H172	H	0.177230	-0.297414	-0.695254
H173	H	0.730140	-0.829168	-0.317684
O174	O	0.592502	-0.273022	-1.114915
C175	C	0.535478	-0.330025	-1.103240
C176	C	0.567123	-0.298432	-1.042995
H177	H	0.514957	-0.350584	-1.045120
H178	H	0.511979	-0.309409	-1.154578
H179	H	0.556097	-0.353494	-1.154636
H180	H	0.546540	-0.274957	-0.991542
H181	H	0.590623	-0.319076	-0.991724
H182	H	0.478146	-0.164268	-0.384704
H183	H	0.121579	-0.297419	-0.695294
O184	O	0.705742	-0.476335	-0.374116
C185	C	0.711848	-0.529330	-0.232267
C186	C	0.680229	-0.503510	-0.306087
H187	H	0.691233	-0.551300	-0.177232
H188	H	0.735327	-0.551285	-0.280524
H189	H	0.732397	-0.504492	-0.184344
H190	H	0.659651	-0.528316	-0.354026
H191	H	0.656780	-0.481548	-0.257770
H192	H	0.701429	-0.959880	-0.384798
O193	O	0.173572	-0.130958	-0.307174
C194	C	0.178528	-0.073916	-0.174081
C195	C	0.204309	-0.105579	-0.247865
H196	H	0.203367	-0.053396	-0.126095
H197	H	0.156602	-0.050418	-0.222367
H198	H	0.156522	-0.094521	-0.119105
H199	H	0.226340	-0.085011	-0.302856
H200	H	0.226206	-0.129079	-0.199514
H201	H	0.478158	-0.268642	-0.628066
H202	H	0.730069	-0.603303	-0.317616
O203	O	0.700063	-0.112988	-0.916925
C204	C	0.679883	-0.037297	-0.962794
C205	C	0.692455	-0.084304	-1.002945
H206	H	0.673738	-0.014090	-1.032320
H207	H	0.648175	-0.039537	-0.913171
H208	H	0.708464	-0.023455	-0.913153
H209	H	0.663903	-0.098173	-1.052629
H210	H	0.724176	-0.082035	-1.052511
H211	H	0.744213	-0.166991	-0.918235
H212	H	0.597141	-1.045008	-0.628351
H213	H	0.596940	-0.387498	-0.628205
H214	H	0.698754	-0.121438	-1.096026
H215	H	0.262310	-0.135516	-0.317723
O216	O	0.265955	-0.301939	-0.705866
C217	C	0.261004	-0.359012	-0.838887
C218	C	0.235220	-0.327373	-0.765051
H219	H	0.236167	-0.379590	-0.886741
H220	H	0.282982	-0.338430	-0.893975
H221	H	0.282958	-0.382461	-0.790543
H222	H	0.213242	-0.303918	-0.813310
H223	H	0.213271	-0.347983	-0.709960
H224	H	0.745978	-0.163821	-1.091775
H225	H	0.730098	-0.688409	-0.317640
O226	O	0.592557	-0.956282	-0.638920
C227	C	0.535545	-0.961257	-0.772087
C228	C	0.567202	-0.987027	-0.698259
H229	H	0.515044	-0.986103	-0.820097
H230	H	0.512028	-0.939340	-0.723834
H231	H	0.556153	-0.939242	-0.827038
H232	H	0.546630	-1.009066	-0.643293
H233	H	0.590720	-1.008915	-0.746576
H234	H	0.568278	-0.603318	-0.695407
O235	O	0.592437	-0.476240	-0.638878
C236	C	0.535394	-0.471294	-0.771978
C237	C	0.567007	-0.445507	-0.698084
H238	H	0.514818	-0.446457	-0.819850
H239	H	0.555995	-0.493205	-0.827048
H240	H	0.511941	-0.493313	-0.723680
H241	H	0.590466	-0.423463	-0.746298
H242	H	0.546377	-0.423624	-0.643012
H243	H	0.730116	-0.744050	-0.317654
H244	H	0.568341	-0.829182	-0.695434
