data_functionalizedCrystal
_audit_creation_method	'MofGen! by Chris Wilmer'
_symmetry_space_group_name_H-M	'P1'
_symmetry_Int_Tables_number	1
_symmetry_cell_setting	triclinic
loop_
_symmetry_equiv_pos_as_xyz
  x,y,z
_cell_length_a	17.640112
_cell_length_b	12.594516
_cell_length_c	17.639309
_cell_angle_alpha	78.761500
_cell_angle_beta	114.276544
_cell_angle_gamma	101.240082
loop_
_atom_site_label
_atom_site_type_symbol
_atom_site_fract_x
_atom_site_fract_y
_atom_site_fract_z
Zn1	Zn	1.165549	-0.048455	-0.211680
Zn2	Zn	1.193322	-0.256409	-0.073904
Zn3	Zn	1.055610	-0.108403	-0.101706
Zn4	Zn	1.027745	-0.256379	-0.239468
O5	O	1.110557	-0.167412	-0.156689
O6	O	1.284538	-0.050965	-0.170139
O7	O	1.198339	-0.261877	0.037722
O8	O	1.070232	0.048507	-0.116300
O9	O	1.304943	-0.203748	-0.068916
O10	O	1.151004	0.092550	-0.197097
O11	O	1.097163	-0.153137	0.017296
O12	O	0.936609	-0.153108	-0.143245
O13	O	1.022740	-0.203697	-0.351096
O14	O	0.916136	-0.261826	-0.244458
O15	O	1.123984	-0.050936	-0.330680
O16	O	1.171320	-0.405363	-0.095861
O17	O	1.049671	-0.405341	-0.217500
C18	C	0.896475	-0.213970	-0.199884
C19	C	0.804886	-0.233909	-0.218382
C20	C	1.110504	-0.443966	-0.156692
C21	C	1.110552	-0.562255	-0.156706
C22	C	0.556760	-0.015917	-0.016166
C23	C	0.470696	-0.034671	-0.033560
C24	C	0.449470	-0.148106	-0.138771
C25	C	0.535533	-0.129356	-0.121390
C26	C	0.589172	-0.063261	-0.060086
C27	C	0.567945	-0.176701	-0.165309
C28	C	0.654001	-0.157957	-0.147926
C29	C	0.707646	-0.091868	-0.086623
C30	C	0.675228	-0.044518	-0.042702
C31	C	0.514305	-0.242801	-0.226609
C32	C	0.546717	-0.290146	-0.270528
C33	C	0.632774	-0.271397	-0.253149
C34	C	0.686418	-0.205308	-0.191846
C35	C	0.665191	-0.318747	-0.297070
C36	C	0.751247	-0.300003	-0.279686
C37	C	0.772475	-0.186564	-0.174463
C38	C	1.044389	-0.631545	-0.222828
C39	C	1.039515	-0.723108	-0.151684
C40	C	1.115498	-0.681471	-0.227847
C41	C	1.105646	-0.652278	-0.085531
C42	C	1.181653	-0.610616	-0.161737
C43	C	1.176819	-0.702153	-0.090536
C44	C	1.325474	-0.120673	-0.113327
C45	C	1.417059	-0.100755	-0.094848
C46	C	1.067156	-0.120626	-0.371623
C47	C	1.048661	-0.100689	-0.463215
C48	C	1.110628	0.110231	-0.156700
C49	C	1.110658	0.228546	-0.156705
C50	C	0.969920	-0.015980	-0.602945
C51	C	0.987305	-0.034720	-0.516879
C52	C	1.092653	-0.147949	-0.495603
C53	C	1.075274	-0.129222	-0.581670
C54	C	1.013907	-0.063236	-0.635334
C55	C	1.119261	-0.176478	-0.614059
C56	C	1.101886	-0.157748	-0.700117
C57	C	1.040524	-0.091762	-0.753786
C58	C	0.996532	-0.044506	-0.721392
C59	C	1.180632	-0.242458	-0.560392
C60	C	1.224619	-0.289714	-0.592781
C61	C	1.207240	-0.270990	-0.678842
C62	C	1.145878	-0.205005	-0.732511
C63	C	1.251232	-0.318247	-0.711236
C64	C	1.233857	-0.299517	-0.797294
C65	C	1.128503	-0.186275	-0.818569
C66	C	1.153836	-0.213928	0.057418
C67	C	1.172490	-0.233531	0.149041
H68	H	0.816149	-0.132725	-0.124555
C69	C	0.939684	0.016741	-0.481647
C70	C	0.996328	0.084383	-0.422846
C71	C	0.952492	0.131820	-0.390382
H72	H	0.910544	-0.038982	-0.455255
H73	H	0.900671	0.058780	-0.525909
H74	H	1.035327	0.042346	-0.378592
H75	H	1.025471	0.140125	-0.449218
H76	H	0.913478	0.173858	-0.434644
H77	H	0.923353	0.076089	-0.363995
H78	H	0.990917	0.177727	-0.350488
C79	C	1.099986	-0.634250	-0.005378
C80	C	1.099938	-0.522839	-0.006340
C81	C	1.094710	-0.506190	0.067473
H82	H	1.146764	-0.658954	0.041637
H83	H	1.049680	-0.673816	-0.001679
H84	H	1.150238	-0.483287	-0.010030
H85	H	1.053162	-0.498109	-0.053339
H86	H	1.044403	-0.545756	0.071172
H87	H	1.141489	-0.530900	0.114483
H88	H	1.094668	-0.430599	0.066827
C89	C	1.251416	-0.743245	-0.015800
C90	C	1.245880	-0.729012	0.058446
C91	C	1.314575	-0.766870	0.127310
H92	H	1.301873	-0.703300	-0.018835
H93	H	1.251303	-0.818540	-0.016409
H94	H	1.246001	-0.653730	0.059054
H95	H	1.195438	-0.768957	0.061508
H96	H	1.314462	-0.842165	0.126701
H97	H	1.365026	-0.726921	0.124267
H98	H	1.310824	-0.757227	0.177693
C99	C	0.786513	-0.351555	-0.327225
C100	C	0.845326	-0.419124	-0.270504
C101	C	0.877821	-0.466648	-0.314266
H102	H	0.812899	-0.295874	-0.356399
H103	H	0.742270	-0.393659	-0.366206
H104	H	0.889561	-0.377022	-0.231538
H105	H	0.818960	-0.474823	-0.241328
H106	H	0.833578	-0.508752	-0.353247
H107	H	0.904203	-0.410960	-0.343438
H108	H	0.917723	-0.512506	-0.275789
C109	C	0.733592	0.027086	0.023923
C110	C	0.793674	-0.033829	0.086779
C111	C	0.847461	0.032093	0.148159
H112	H	0.702080	0.052637	0.047691
H113	H	0.760848	0.087570	-0.000848
H114	H	0.766421	-0.094294	0.111548
H115	H	0.825206	-0.059380	0.063037
H116	H	0.874717	0.092578	0.123388
H117	H	0.815942	0.057641	0.171921
H118	H	0.888237	-0.009225	0.190811
H119	H	0.600434	0.037923	0.033741
H120	H	1.241712	-0.561865	-0.166027
C121	C	1.121201	-0.699399	-0.308004
C122	C	1.194991	-0.640229	-0.313721
C123	C	1.200272	-0.656726	-0.387546
H124	H	1.074181	-0.675244	-0.354993
H125	H	1.121764	-0.774889	-0.307207
H126	H	1.194422	-0.564754	-0.314525
H127	H	1.242024	-0.664372	-0.266750
H128	H	1.200834	-0.732216	-0.386750
H129	H	1.153248	-0.632571	-0.434529
H130	H	1.250341	-0.616590	-0.391431
C131	C	0.801082	-0.071745	-0.067735
C132	C	0.833814	-0.171444	-0.040851
C133	C	0.919882	-0.152952	-0.023452
H134	H	0.828488	-0.025661	-0.024917
H135	H	0.809856	-0.037668	-0.116999
H136	H	0.825047	-0.205505	0.008407
H137	H	0.806432	-0.217543	-0.083657
H138	H	0.928656	-0.118875	-0.072716
H139	H	0.947279	-0.106866	0.019365
H140	H	0.942100	-0.220595	-0.005216
C141	C	0.903403	0.055776	-0.661293
C142	C	0.940101	0.144886	-0.701301
C143	C	0.878855	0.211002	-0.755064
H144	H	0.879653	0.081354	-0.629777
H145	H	0.860717	0.014600	-0.702154
H146	H	0.982772	0.186056	-0.660447
H147	H	0.963846	0.119341	-0.732834
H148	H	0.836169	0.169826	-0.795924
H149	H	0.855109	0.236572	-0.723541
H150	H	0.903744	0.271465	-0.782221
H151	H	1.142620	-0.201671	-0.451898
C152	C	1.199343	-0.262944	-0.466987
C153	C	1.126644	-0.313388	-0.454342
C154	C	1.143850	-0.332291	-0.368309
H155	H	1.217506	-0.195462	-0.444552
H156	H	1.242160	-0.309052	-0.439641
H157	H	1.083840	-0.267281	-0.481677
H158	H	1.108469	-0.380879	-0.476758
H159	H	1.186668	-0.378399	-0.340963
H160	H	1.162015	-0.264804	-0.345880
H161	H	1.094530	-0.366528	-0.359717
H162	H	1.026382	-0.076509	-0.823859
C163	C	0.959315	-0.788007	-0.146167
C164	C	0.890195	-0.752172	-0.215548
C165	C	0.816299	-0.811936	-0.210506
H166	H	0.955266	-0.777536	-0.096133
H167	H	0.960118	-0.863334	-0.145732
H168	H	0.889391	-0.676864	-0.215975
H169	H	0.894215	-0.762646	-0.265593
H170	H	0.817102	-0.887262	-0.210071
H171	H	0.812259	-0.801460	-0.160469
H172	H	0.769393	-0.787637	-0.257583
H173	H	1.274586	-0.343436	-0.549076
H174	H	1.078530	-0.132546	-0.862267
C175	C	1.317800	-0.389892	-0.652836
C176	C	1.323591	-0.396195	-0.570539
C177	C	1.384897	-0.462195	-0.516721
H178	H	1.370372	-0.359289	-0.655666
H179	H	1.302876	-0.461004	-0.669317
H180	H	1.338520	-0.325096	-0.554062
H181	H	1.271035	-0.426808	-0.567682
H182	H	1.369973	-0.533308	-0.533203
H183	H	1.437464	-0.431586	-0.519559
H184	H	1.388829	-0.466489	-0.460878
H185	H	1.269677	-0.337995	-0.823665
H186	H	0.444311	0.003896	0.002204
C187	C	0.391087	-0.219783	-0.205328
C188	C	0.308781	-0.226047	-0.211167
C189	C	0.254977	-0.292052	-0.272480
H190	H	0.407528	-0.290902	-0.190406
H191	H	0.393969	-0.189174	-0.257890
H192	H	0.305903	-0.256659	-0.158617
H193	H	0.292314	-0.154946	-0.226100
H194	H	0.257859	-0.261443	-0.325042
H195	H	0.271426	-0.363166	-0.257552
H196	H	0.199126	-0.296302	-0.276455
C197	C	0.488543	-0.362083	-0.336982
C198	C	0.513102	-0.466744	-0.314680
C199	C	0.459528	-0.533039	-0.375878
H200	H	0.491441	-0.331612	-0.389549
H201	H	0.432640	-0.366543	-0.341045
H202	H	0.568991	-0.462280	-0.310627
H203	H	0.510200	-0.497246	-0.262124
H204	H	0.403625	-0.537500	-0.379941
H205	H	0.462430	-0.502559	-0.428441
H206	H	0.476180	-0.604061	-0.360751
H207	H	0.621507	-0.372570	-0.346977
C208	C	0.969733	-0.590336	-0.297426
C209	C	0.974318	-0.606197	-0.371741
C210	C	0.905554	-0.568263	-0.440472
H211	H	0.970419	-0.514766	-0.297306
H212	H	0.919285	-0.629435	-0.293765
H213	H	1.024753	-0.567096	-0.375401
H214	H	0.973621	-0.681758	-0.371888
H215	H	0.855106	-0.607362	-0.436811
H216	H	0.906246	-0.492694	-0.440344
H217	H	0.908652	-0.579028	-0.490902
H218	H	0.444233	-0.258061	-0.240760
H219	H	0.946559	0.009223	-0.765090
