data_functionalizedCrystal
_audit_creation_method	'MofGen! by Chris Wilmer'
_symmetry_space_group_name_H-M	'P1'
_symmetry_Int_Tables_number	1
_symmetry_cell_setting	triclinic
loop_
_symmetry_equiv_pos_as_xyz
  x,y,z
_cell_length_a	15.944545
_cell_length_b	15.944551
_cell_length_c	9.730217
_cell_angle_alpha	89.995798
_cell_angle_beta	90.001375
_cell_angle_gamma	83.497455
loop_
_atom_site_label
_atom_site_type_symbol
_atom_site_fract_x
_atom_site_fract_y
_atom_site_fract_z
O1	O	1.114524	0.108306	-0.114204
O2	O	0.869973	0.121667	-0.114227
O3	O	0.998927	-0.007289	-0.114202
O4	O	0.985571	0.237261	-0.114228
O5	O	0.998923	-0.007290	0.114378
O6	O	0.869970	0.121666	0.114353
O7	O	1.114520	0.108304	0.114376
Zn8	Zn	0.992244	0.114985	0.150657
Zn9	Zn	0.992249	0.114987	-0.150507
O10	O	0.985567	0.237260	0.114352
C11	C	0.838677	0.121113	0.000061
C12	C	0.745431	0.119453	0.000052
C13	C	0.998370	-0.038583	0.000088
C14	C	0.996708	-0.131829	0.000089
C15	C	0.474798	0.034559	0.000076
C16	C	0.525378	0.075487	0.112777
C17	C	0.409787	0.113532	0.000077
C18	C	0.525363	0.075510	-0.112585
C19	C	0.574701	0.116437	0.000062
C20	C	0.459139	0.154439	0.112871
C21	C	0.459120	0.154450	-0.112593
C22	C	0.509667	0.195436	0.000136
C23	C	0.314785	0.111856	0.000086
C24	C	0.669700	0.118119	0.000063
C25	C	0.912803	-0.346684	0.000062
C26	C	0.951764	-0.407703	0.112769
C27	C	0.993701	-0.302555	0.000078
C28	C	0.951787	-0.407685	-0.112593
C29	C	0.990790	-0.467468	0.000061
C30	C	1.032684	-0.362345	0.112878
C31	C	1.032695	-0.362321	-0.112585
C32	C	1.071715	-0.423322	0.000150
C33	C	0.995375	-0.207553	0.000088
C34	C	0.989122	-0.562469	0.000060
C35	C	1.145816	0.108859	0.000086
C36	C	1.239062	0.110519	0.000085
C37	C	0.986123	0.268555	0.000059
C38	C	0.987785	0.361801	0.000049
N39	N	0.992247	0.114983	0.356193
N40	N	0.992253	0.114981	-0.356044
C41	C	1.106481	0.000826	0.356206
C42	C	1.163604	-0.056250	0.428151
C43	C	1.163613	-0.056251	0.572031
C44	C	1.106490	0.000829	0.643968
C45	C	1.049368	0.057906	0.572022
C46	C	1.049367	0.057902	0.428139
C47	C	0.935130	0.172058	0.572010
C48	C	0.935125	0.172064	0.428130
C49	C	0.878008	0.229138	0.643947
C50	C	0.820888	0.286220	0.572001
C51	C	0.820883	0.286219	0.428113
C52	C	0.878002	0.229140	0.356184
H53	H	0.554307	0.042134	0.208064
H54	H	1.066869	-0.342356	0.208268
C55	C	0.332686	0.197421	0.240525
C56	C	0.420255	0.199415	0.241651
H57	H	0.308683	0.225178	0.320036
H58	H	0.309430	0.225283	0.160607
H59	H	0.320559	0.140448	0.240191
H60	H	0.432382	0.256389	0.241975
H61	H	0.443519	0.171555	0.321590
H62	H	1.138922	-0.456483	0.000220
H63	H	0.525159	0.263501	0.000194
C64	C	1.036364	-0.357755	-0.359126
C65	C	1.078847	-0.335135	-0.241211
H66	H	1.064850	-0.340963	-0.438539
H67	H	1.035203	-0.417177	-0.360507
H68	H	0.980230	-0.330453	-0.358306
H69	H	1.134980	-0.362442	-0.242025
H70	H	1.080018	-0.275702	-0.239829
C71	C	0.453628	0.157942	-0.359134
C72	C	0.420034	0.199434	-0.241227
H73	H	0.429493	0.185707	-0.438553
H74	H	0.513079	0.158877	-0.360514
H75	H	0.441082	0.101106	-0.358306
H76	H	0.432586	0.256269	-0.242050
H77	H	0.360569	0.198509	-0.239847
H78	H	0.917562	-0.427761	-0.207885
H79	H	0.459145	-0.033453	0.000193
H80	H	0.878005	0.229137	0.239030
H81	H	1.106487	0.000828	0.239051
H82	H	0.554282	0.042144	-0.207859
C83	C	0.707963	0.399058	0.442567
C84	C	0.758092	0.348962	0.349035
H85	H	0.669202	0.437797	0.393748
H86	H	0.677758	0.364069	0.498684
H87	H	0.742933	0.429294	0.498685
H88	H	0.723122	0.318721	0.292923
H89	H	0.788298	0.383956	0.292894
C90	C	0.779996	-0.324449	0.118368
C91	C	0.822160	-0.301709	0.000199
H92	H	0.724041	-0.296678	0.118459
H93	H	0.778320	-0.383804	0.119175
H94	H	0.809028	-0.308273	0.197613
H95	H	0.793131	-0.317891	-0.079046
H96	H	0.823832	-0.242341	-0.000620
H97	H	0.917546	-0.427811	0.208048
H98	H	0.774380	0.332687	0.630581
C99	C	1.214338	-0.106932	0.792602
C100	C	1.226400	-0.118990	0.651125
H101	H	1.253097	-0.145669	0.841428
H102	H	1.223458	-0.050871	0.816158
H103	H	1.158281	-0.116094	0.816169
H104	H	1.282456	-0.109822	0.627556
H105	H	1.217287	-0.175065	0.627559
C106	C	1.214395	-0.106872	0.207594
C107	C	1.226438	-0.118945	0.349076
H108	H	1.253202	-0.145562	0.158783
H109	H	1.158366	-0.116086	0.183986
H110	H	1.223464	-0.050783	0.184061
H111	H	1.217363	-0.175032	0.372611
H112	H	1.282480	-0.109738	0.372694
C113	C	1.044293	0.062973	0.850071
C114	C	1.106490	0.000822	0.802123
H115	H	1.044289	0.062963	0.947710
H116	H	1.055789	0.116660	0.817528
H117	H	0.990615	0.051434	0.817508
H118	H	1.160169	0.012364	0.834678
H119	H	1.094999	-0.052878	0.834680
H120	H	0.878014	0.229132	0.761102
