data_functionalizedCrystal
_audit_creation_method	'MofGen! by Chris Wilmer'
_symmetry_space_group_name_H-M	'P1'
_symmetry_Int_Tables_number	1
_symmetry_cell_setting	triclinic
loop_
_symmetry_equiv_pos_as_xyz
  x,y,z
_cell_length_a	14.446369
_cell_length_b	14.560438
_cell_length_c	14.560438
_cell_angle_alpha	59.996693
_cell_angle_beta	89.999483
_cell_angle_gamma	60.002385
loop_
_atom_site_label
_atom_site_type_symbol
_atom_site_fract_x
_atom_site_fract_y
_atom_site_fract_z
Zr1	Zr	0.891726	1.005364	-0.120638
O2	O	0.743923	1.196967	-0.267291
O3	O	0.937035	0.813758	-0.075672
O4	O	0.937032	1.005369	-0.267289
O5	O	0.743930	1.005353	0.075466
O6	O	1.089360	1.005378	-0.267297
O7	O	0.743926	1.005356	-0.075674
O8	O	1.089366	0.662620	0.075470
O9	O	0.743924	1.348111	-0.267301
O10	O	1.070041	0.892576	-0.056511
O11	O	0.956363	0.892568	0.056289
O12	O	0.956359	1.118166	-0.169315
O13	O	0.842680	1.118158	-0.056514
Zr14	Zr	1.134679	1.005374	0.120401
Zr15	Zr	1.134673	1.005378	-0.120651
Zr16	Zr	0.891732	1.005360	0.120414
Zr17	Zr	0.891728	1.246421	-0.120653
Zr18	Zr	1.134677	0.764317	0.120417
O19	O	1.089370	1.196980	0.075436
O20	O	1.089362	1.196986	-0.267309
O21	O	0.743931	1.196961	0.075454
O22	O	1.282483	0.813771	0.267054
O23	O	1.282474	0.813777	-0.075691
O24	O	0.937044	0.813752	0.267073
O25	O	1.282475	1.005385	-0.075703
O26	O	1.089374	1.005369	0.267052
O27	O	0.937045	1.005360	0.267060
O28	O	1.282479	1.005382	0.075438
O29	O	0.937034	1.348121	-0.267311
O30	O	1.089371	0.662617	0.267074
O31	O	1.282482	0.662627	0.267064
O32	O	1.282477	0.662630	0.075460
O33	O	0.743929	1.348108	-0.075697
O34	O	0.937039	1.348118	-0.075707
O35	O	1.070047	0.892572	0.169078
O36	O	1.183725	0.892580	0.056277
O37	O	1.070043	1.118170	-0.056526
O38	O	0.956364	1.118162	0.056275
C39	C	1.013200	0.703843	-0.000099
C40	C	1.013200	0.601508	-0.000092
C41	C	0.929276	0.636719	-0.083370
C42	C	0.929281	0.540579	-0.083399
C43	C	1.097138	0.374019	0.083138
C44	C	1.097136	0.470158	0.083161
C45	C	0.709313	1.005352	-0.000102
C46	C	0.606176	1.005347	-0.000097
C47	C	0.531194	0.863082	0.070679
C48	C	0.638523	0.862986	0.071085
C49	C	0.531618	1.076016	0.051790
C50	C	0.424759	1.075113	0.052301
C51	C	0.423181	1.078046	-0.122873
C52	C	0.531853	1.075365	-0.122672
C53	C	1.317092	1.005385	-0.000134
C54	C	1.420229	1.005391	-0.000140
C55	C	1.013195	1.005374	-0.301638
C56	C	1.013192	1.005376	-0.403971
C57	C	1.013205	1.306894	-0.000138
C58	C	1.013206	1.409229	-0.000144
C59	C	0.953853	1.123129	-0.510929
C60	C	0.953866	1.123123	-0.607078
C61	C	1.072560	0.887600	-0.489296
C62	C	1.072553	0.887607	-0.393150
C63	C	1.013210	1.005364	0.301401
C64	C	1.013213	1.005362	0.403734
C65	C	1.317090	0.703860	-0.000115
C66	C	1.420226	0.601531	-0.000114
C67	C	1.013208	0.703838	0.301420
C68	C	1.013210	0.601502	0.403760
C69	C	1.317098	0.703855	0.301404
C70	C	1.420237	0.601524	0.403738
C71	C	0.709308	1.306883	-0.301641
C72	C	0.606169	1.409214	-0.403975
C73	C	0.709316	1.306878	-0.000122
C74	C	0.606179	1.409207	-0.000123
C75	C	1.013197	1.306900	-0.301657
C76	C	1.013195	1.409236	-0.403997
C77	C	1.409341	0.553451	-0.058985
C78	C	1.506253	0.457310	-0.058988
C79	C	1.624932	0.457332	0.058761
C80	C	1.528021	0.553478	0.058756
C81	C	1.072552	0.553424	0.510714
C82	C	1.072541	0.457277	0.606869
C83	C	0.953844	0.457290	0.489102
C84	C	0.953850	0.553442	0.392950
C85	C	1.528031	0.553450	0.392937
C86	C	1.624937	0.457308	0.489095
C87	C	1.506242	0.457317	0.606851
C88	C	1.409338	0.553464	0.510695
H89	H	1.165483	0.441476	0.150979
H90	H	1.120882	0.592556	0.519522
O91	O	0.838767	0.578549	-0.173219
H92	H	0.754155	0.636901	-0.169107
H93	H	1.120861	0.418138	0.693952
O94	O	0.710425	0.789542	0.024992
H95	H	0.668676	0.753767	0.002215
H96	H	0.860924	0.743667	-0.151155
H97	H	1.165475	0.267065	0.150921
O98	O	0.889866	1.250133	-0.722439
H99	H	0.899854	1.230349	-0.787481
H100	H	1.120880	0.791713	-0.306053
O101	O	0.320668	1.213412	-0.011612
H102	H	0.243639	1.213804	-0.011735
H103	H	0.533527	0.807227	0.036056
H104	H	1.536893	0.592628	0.106697
O105	O	1.494486	0.405464	0.722209
H106	H	1.579978	0.330516	0.787260
O107	O	0.889858	0.405419	0.477442
H108	H	0.899842	0.330461	0.562271
O109	O	1.539788	0.605292	0.277581
H110	H	1.454297	0.680218	0.212528
H111	H	1.321561	0.592609	0.519498
H112	H	0.905521	0.592590	0.305857
H113	H	0.419060	1.032510	-0.166221
H114	H	1.712708	0.418194	0.106693
O115	O	0.532572	0.789441	0.189884
H116	H	0.454570	0.853758	0.198913
O117	O	0.599956	1.010996	0.170298
H118	H	0.687004	0.928362	0.192457
O119	O	1.741203	0.405445	0.477450
H120	H	1.732496	0.455013	0.386921
H121	H	0.425031	1.024889	0.142616
O122	O	0.709778	0.789074	0.191013
H123	H	0.667616	0.753272	0.248945
H124	H	0.504387	1.180689	0.002695
O125	O	0.599966	1.007150	-0.174045
H126	H	0.686396	0.923726	-0.112545
H127	H	0.905517	1.219024	-0.519746
H128	H	0.506332	1.179226	-0.179873
H129	H	0.344966	1.182881	-0.175886
H130	H	1.120888	0.791717	-0.480500
H131	H	1.321574	0.592585	-0.106933
O132	O	1.494517	0.405446	-0.122482
H133	H	1.403279	0.455011	-0.163410
