data_functionalizedCrystal
_audit_creation_method	'MofGen! by Chris Wilmer'
_symmetry_space_group_name_H-M	'P1'
_symmetry_Int_Tables_number	1
_symmetry_cell_setting	triclinic
loop_
_symmetry_equiv_pos_as_xyz
  x,y,z
_cell_length_a	10.723024
_cell_length_b	9.198806
_cell_length_c	27.732025
_cell_angle_alpha	89.988641
_cell_angle_beta	83.550670
_cell_angle_gamma	90.003648
loop_
_atom_site_label
_atom_site_type_symbol
_atom_site_fract_x
_atom_site_fract_y
_atom_site_fract_z
O1	O	-1.654368	-0.120831	-0.067790
O2	O	-1.290946	-0.120831	-0.074279
O3	O	-1.483959	-0.120875	-0.000707
O4	O	-1.461355	-0.120787	-0.141362
O5	O	-1.483944	0.120910	-0.000707
O6	O	-1.290931	0.120954	-0.074278
O7	O	-1.654353	0.120954	-0.067790
Cu8	Cu	-1.472641	0.143031	-0.071034
Cu9	Cu	-1.472658	-0.142908	-0.071034
O10	O	-1.461340	0.120998	-0.141361
C11	C	-1.244458	0.000060	-0.073806
C12	C	-1.105963	0.000058	-0.072393
C13	C	-1.483481	0.000003	0.017303
C14	C	-1.482066	-0.000040	0.070968
N15	N	-1.472637	0.344145	-0.071033
C16	C	-1.700841	0.000059	-0.068262
C17	C	-1.839336	0.000052	-0.069675
C18	C	-1.029268	0.000083	-0.113560
C19	C	-0.886125	0.000080	-0.112101
N20	N	-1.472672	-0.344022	-0.071031
C21	C	-1.553683	0.416323	-0.040007
C22	C	-1.553703	0.583735	-0.040005
C23	C	-1.461818	0.000117	-0.159371
C24	C	-1.463234	0.000150	-0.213036
C25	C	-1.472015	-0.131753	0.454195
C26	C	-1.477313	-0.131800	0.252503
O27	O	-1.478056	-0.243892	0.226431
N28	N	-1.477968	-0.000006	0.227278
C29	C	-1.477305	0.131808	0.252479
O30	O	-1.477996	0.243905	0.226396
C31	C	-1.472016	0.131853	0.454171
C32	C	-1.471350	0.000051	0.479393
C33	C	-1.471350	-0.263544	0.479418
C34	C	-1.470019	-0.263531	0.529837
C35	C	-1.469353	-0.131727	0.555035
C36	C	-1.470018	0.000064	0.529813
C37	C	-1.471363	0.263666	0.479372
C38	C	-1.470044	0.263665	0.529798
C39	C	-1.469377	0.131864	0.555020
C40	C	-1.468021	0.131881	0.605430
N41	N	-1.467367	0.000088	0.630655
C42	C	-1.468033	-0.131716	0.605458
C43	C	-1.480080	0.131775	0.146588
C44	C	-1.481400	0.131764	0.096165
C45	C	-1.481410	-0.131844	0.096193
C46	C	-1.480081	-0.131832	0.146616
C47	C	-1.479426	-0.000018	0.171813
C48	C	-1.465236	-0.131678	0.711343
C49	C	-1.463900	-0.131654	0.761767
C50	C	-1.463896	0.131953	0.761735
C51	C	-1.465226	0.131929	0.711315
C52	C	-1.465900	0.000102	0.686121
O53	O	-1.467292	0.243915	0.631534
O54	O	-1.467370	-0.243796	0.631551
C55	C	-1.473347	-0.131766	0.403776
C56	C	-1.474012	0.000025	0.378554
C57	C	-1.473346	0.131829	0.403751
C58	C	-1.475332	0.000014	0.328131
C59	C	-1.475998	-0.131790	0.302933
C60	C	-1.475344	-0.263583	0.328158
C61	C	-1.474013	-0.263570	0.378578
C62	C	-1.474000	0.263622	0.378526
C63	C	-1.475330	0.263599	0.328106
C64	C	-1.475996	0.131795	0.302909
H65	H	-1.069579	0.000114	-0.149885
Br66	Br	-1.038789	0.000036	-0.011846
H67	H	-0.905227	0.000022	-0.034431
H68	H	-1.623094	0.645806	-0.013443
Br69	Br	-1.357022	0.552541	-0.115313
H70	H	-1.403260	0.406289	-0.097594
H71	H	-1.465719	0.239253	0.690776
H72	H	-1.471919	0.370993	0.458845
H73	H	-1.481919	0.239090	0.075633
H74	H	-1.481944	-0.239164	0.075668
Br75	Br	-1.476216	0.442490	0.293882
Br76	Br	-1.469163	0.442565	0.563992
H77	H	-1.463352	-0.238987	0.782300
Br78	Br	-1.479184	0.310682	0.180777
H79	H	-1.623052	0.354181	-0.013442
H80	H	-1.479536	-0.239156	0.167148
Br81	Br	-1.466152	-0.310589	0.677158
H82	H	-1.475877	-0.370903	0.307633
H83	H	-1.463348	0.239265	0.782260
Br84	Br	-1.469127	-0.442414	0.564060
H85	H	-1.471897	-0.370880	0.458907
Br86	Br	-1.473108	-0.442454	0.412800
H87	H	-0.820227	0.000095	-0.147343
Br88	Br	-1.473095	0.442518	0.412715
