data_functionalizedCrystal
_audit_creation_method	'MofGen! by Chris Wilmer'
_symmetry_space_group_name_H-M	'P1'
_symmetry_Int_Tables_number	1
_symmetry_cell_setting	triclinic
loop_
_symmetry_equiv_pos_as_xyz
  x,y,z
_cell_length_a	16.109301
_cell_length_b	23.532407
_cell_length_c	15.186229
_cell_angle_alpha	89.991614
_cell_angle_beta	89.999362
_cell_angle_gamma	83.155079
loop_
_atom_site_label
_atom_site_type_symbol
_atom_site_fract_x
_atom_site_fract_y
_atom_site_fract_z
O1	O	1.102555	0.073202	-0.073182
O2	O	1.602555	0.573202	0.426818
O3	O	0.860421	0.082312	-0.073197
O4	O	1.360421	0.582312	0.426803
O5	O	0.988790	-0.005148	-0.073173
O6	O	1.488790	0.494852	0.426827
O7	O	0.974187	0.160662	-0.073206
O8	O	1.474187	0.660662	0.426794
O9	O	0.988781	-0.005149	0.073284
O10	O	1.488781	0.494851	0.573284
O11	O	0.860413	0.082311	0.073260
O12	O	1.360413	0.582311	0.573260
O13	O	1.102547	0.073201	0.073275
O14	O	1.602547	0.573201	0.573275
Zn15	Zn	0.981478	0.077755	0.096521
Zn16	Zn	1.481478	0.577755	0.596521
Zn17	Zn	0.981490	0.077757	-0.096443
Zn18	Zn	1.481490	0.577757	0.403557
O19	O	0.974178	0.160660	0.073251
O20	O	1.474178	0.660660	0.573251
C21	C	0.829445	0.081942	0.000030
C22	C	1.329445	0.581942	0.500030
C23	C	0.737159	0.080836	0.000025
C24	C	1.237159	0.580836	0.500025
C25	C	0.988414	-0.026366	0.000058
C26	C	1.488414	0.473634	0.500058
C27	C	0.987296	-0.089587	0.000064
C28	C	1.487296	0.410413	0.500064
C29	C	0.514498	0.130160	0.000025
C30	C	1.014498	0.630160	0.500025
C31	C	0.427786	0.129116	0.000031
C32	C	0.927786	0.629116	0.500031
C33	C	0.448476	0.025348	0.000048
C34	C	0.948476	0.525348	0.500048
C35	C	0.535187	0.026393	0.000048
C36	C	1.035187	0.526393	0.500048
C37	C	0.568195	0.078801	0.000032
C38	C	1.068195	0.578801	0.500032
C39	C	0.394773	0.076712	0.000038
C40	C	0.894773	0.576712	0.500038
C41	C	0.300755	0.075580	0.000044
C42	C	0.800755	0.575580	0.500044
C43	C	0.662218	0.079933	0.000028
C44	C	1.162218	0.579933	0.500028
C45	C	1.056249	-0.488436	0.000021
C46	C	1.556249	0.011564	0.500021
C47	C	1.055210	-0.547840	0.000014
C48	C	1.555210	-0.047840	0.500014
O49	O	1.119130	-0.584349	-0.000015
O50	O	1.619130	-0.084349	0.499985
N51	N	0.978895	-0.570748	0.000010
N52	N	1.478895	-0.070748	0.500010
C53	C	0.903614	-0.534248	0.000003
C54	C	1.403614	-0.034248	0.500003
O55	O	0.838607	-0.559187	-0.000002
O56	O	1.338607	-0.059187	0.499998
C57	C	0.904654	-0.474845	0.000004
C58	C	1.404654	0.025155	0.500004
C59	C	0.980973	-0.451941	0.000017
C60	C	1.480973	0.048059	0.500017
C61	C	1.132562	-0.465531	0.000033
C62	C	1.632562	0.034469	0.500033
C63	C	1.133601	-0.406131	0.000041
C64	C	1.633601	0.093869	0.500041
C65	C	1.058325	-0.369636	0.000037
C66	C	1.558325	0.130364	0.500037
C67	C	0.982012	-0.392541	0.000025
C68	C	1.482012	0.107459	0.500025
C69	C	0.829373	-0.438346	-0.000009
C70	C	1.329373	0.061654	0.499991
C71	C	0.830419	-0.378940	-0.000009
C72	C	1.330419	0.121060	0.499991
C73	C	0.906739	-0.356036	0.000004
C74	C	1.406739	0.143964	0.500004
C75	C	0.907774	-0.296645	0.000030
C76	C	1.407774	0.203355	0.500030
N77	N	0.984089	-0.273738	0.000034
N78	N	1.484089	0.226262	0.500034
C79	C	1.059365	-0.310233	0.000038
C80	C	1.559365	0.189767	0.500038
C81	C	0.901437	-0.658998	0.000001
C82	C	1.401437	-0.158998	0.500001
C83	C	0.900396	-0.718400	0.000007
C84	C	1.400396	-0.218400	0.500007
C85	C	1.051993	-0.731988	0.000016
C86	C	1.551993	-0.231988	0.500016
C87	C	1.053032	-0.672585	0.000016
C88	C	1.553032	-0.172585	0.500016
C89	C	0.977752	-0.636091	0.000005
C90	C	1.477752	-0.136091	0.500005
C91	C	1.061539	-0.185488	0.000056
C92	C	1.561539	0.314512	0.500056
C93	C	1.062571	-0.126082	0.000068
C94	C	1.562571	0.373918	0.500068
C95	C	0.910975	-0.112499	0.000055
C96	C	1.410975	0.387501	0.500055
C97	C	0.909943	-0.171900	0.000047
C98	C	1.409943	0.328100	0.500047
C99	C	0.985232	-0.208394	0.000045
C100	C	1.485232	0.291606	0.500045
O101	O	0.843888	-0.260102	0.000055
O102	O	1.343888	0.239898	0.500055
O103	O	1.124361	-0.285285	0.000031
O104	O	1.624361	0.214715	0.500031
C105	C	1.133523	0.073570	0.000046
C106	C	1.633523	0.573570	0.500046
C107	C	1.225809	0.074677	0.000046
C108	C	1.725809	0.574677	0.500046
C109	C	0.974554	0.181878	0.000018
C110	C	1.474554	0.681878	0.500018
C111	C	0.975672	0.245100	0.000006
C112	C	1.475672	0.745100	0.500006
N113	N	0.981477	0.077754	0.228214
N114	N	1.481477	0.577754	0.728214
N115	N	0.981498	0.077754	-0.228136
N116	N	1.481498	0.577754	0.271864
C117	C	1.038337	0.039040	0.453947
C118	C	1.538337	0.539040	0.953947
C119	C	1.038340	0.039039	0.546137
C120	C	1.538340	0.539039	1.046137
C121	C	0.924631	0.116470	0.546124
C122	C	1.424631	0.616470	1.046124
C123	C	0.924625	0.116468	0.453936
C124	C	1.424625	0.616468	0.953936
C125	C	0.981483	0.077754	0.407850
C126	C	1.481483	0.577754	0.907850
C127	C	0.981492	0.077754	0.592228
C128	C	1.481492	0.577754	1.092228
C129	C	0.981494	0.077753	0.692184
C130	C	1.481494	0.577753	1.192184
C131	C	0.981480	0.077754	0.307888
C132	C	1.481480	0.577754	0.807888
H133	H	0.384069	0.170939	0.000027
H134	H	0.884069	0.670939	0.500027
C135	C	0.680466	-0.371480	-0.000028
C136	C	1.180466	0.128520	0.499972
C137	C	0.747666	-0.338825	-0.000018
C138	C	1.247666	0.161175	0.499982
H139	H	0.629380	-0.346715	-0.000026
H140	H	1.129380	0.153285	0.499974
H141	H	0.683222	-0.394923	-0.051100
H142	H	1.183222	0.105077	0.448900
H143	H	0.683217	-0.394940	0.051046
H144	H	1.183217	0.105060	0.551046
H145	H	0.744918	-0.315368	-0.051095
H146	H	1.244918	0.184632	0.448905
H147	H	0.744908	-0.315372	0.051060
H148	H	1.244908	0.184628	0.551060
C149	C	1.148350	-0.260155	-0.075234
C150	C	1.648350	0.239845	0.424766
C151	C	1.144298	-0.225595	0.000057
C152	C	1.644298	0.274405	0.500057
H153	H	1.199444	-0.284913	-0.075230
H154	H	1.699444	0.215087	0.424770
H155	H	1.102764	-0.282304	-0.075236
H156	H	1.602764	0.217696	0.424764
H157	H	1.145604	-0.236687	-0.126299
H158	H	1.645604	0.263313	0.373701
H159	H	1.147038	-0.249064	0.051123
H160	H	1.647038	0.250936	0.551123
H161	H	1.189896	-0.203445	0.000068
H162	H	1.689896	0.296555	0.500068
H163	H	1.084635	0.007514	0.583666
H164	H	1.584635	0.507514	1.083666
H165	H	0.840130	-0.629287	-0.000001
H166	H	1.340130	-0.129287	0.499999
H167	H	0.878323	0.147994	0.416402
H168	H	1.378323	0.647994	0.916402
C169	C	0.760201	-0.152499	0.000030
C170	C	1.260201	0.347501	0.500030
C171	C	0.826052	-0.197080	0.000032
C172	C	1.326052	0.302920	0.500032
H173	H	0.708411	-0.168042	0.000007
H174	H	1.208411	0.331958	0.500007
H175	H	0.763751	-0.129626	0.051109
H176	H	1.263751	0.370374	0.551109
H177	H	0.763775	-0.129600	-0.051037
H178	H	1.263775	0.370400	0.448963
H179	H	0.822481	-0.219976	0.051103
H180	H	1.322481	0.280024	0.551103
H181	H	0.822500	-0.219963	-0.051052
H182	H	1.322500	0.280037	0.448948
C183	C	0.638232	0.177839	0.000006
C184	C	1.138232	0.677839	0.500006
C185	C	0.550783	0.187765	0.000011
C186	C	1.050783	0.687765	0.500011
H187	H	0.660629	0.213404	-0.000007
H188	H	1.160629	0.713404	0.499993
H189	H	0.656689	0.156696	0.051080
H190	H	1.156689	0.656696	0.551080
H191	H	0.656684	0.156693	-0.051067
H192	H	1.156684	0.656693	0.448933
H193	H	0.532331	0.208908	0.051088
H194	H	1.032331	0.708908	0.551088
H195	H	0.532319	0.208917	-0.051068
H196	H	1.032319	0.708917	0.448932
H197	H	0.578910	-0.015433	0.000057
H198	H	1.078910	0.484567	0.500057
C199	C	0.324742	-0.022329	0.000046
C200	C	0.824742	0.477671	0.500046
C201	C	0.412190	-0.032256	0.000054
C202	C	0.912190	0.467744	0.500054
H203	H	0.302343	-0.057893	0.000042
H204	H	0.802343	0.442107	0.500042
H205	H	0.306284	-0.001189	0.051113
H206	H	0.806284	0.498811	0.551113
H207	H	0.306291	-0.001179	-0.051034
H208	H	0.806291	0.498821	0.448966
H209	H	0.430641	-0.053403	0.051137
H210	H	0.930641	0.446597	0.551137
H211	H	0.430655	-0.053405	-0.051018
H212	H	0.930655	0.446595	0.448982
H213	H	0.767225	-0.456984	-0.000025
H214	H	1.267225	0.043016	0.499975
H215	H	1.124722	-0.107437	0.000081
H216	H	1.624722	0.392563	0.500081
C217	C	0.845273	-0.015401	0.000047
C218	C	1.345273	0.484599	0.500047
C219	C	0.828235	-0.072376	0.000045
C220	C	1.328235	0.427624	0.500045
H221	H	0.794191	0.009369	0.000031
H222	H	1.294191	0.509369	0.500031
H223	H	0.876573	-0.008469	0.051123
H224	H	1.376573	0.491531	0.551123
H225	H	0.876598	-0.008463	-0.051023
H226	H	1.376598	0.491537	0.448977
H227	H	0.796914	-0.079316	0.051119
H228	H	1.296914	0.420684	0.551119
H229	H	0.796921	-0.079311	-0.051037
H230	H	1.296921	0.420689	0.448963
H231	H	1.084633	0.007515	0.416426
H232	H	1.584633	0.507515	0.916426
H233	H	1.195748	-0.387488	0.000048
H234	H	1.695748	0.112512	0.500048
C235	C	1.198308	-0.562623	0.000032
C236	C	1.698308	-0.062623	0.500032
C237	C	1.215315	-0.505641	0.000036
C238	C	1.715315	-0.005641	0.500036
H239	H	1.249401	-0.587381	0.000032
H240	H	1.749401	-0.087381	0.500032
H241	H	1.166999	-0.569572	0.051098
H242	H	1.666999	-0.069572	0.551098
H243	H	1.167001	-0.569561	-0.051048
H244	H	1.667001	-0.069561	0.448952
H245	H	1.246616	-0.498702	0.051119
H246	H	1.746616	0.001298	0.551119
H247	H	1.246637	-0.498689	-0.051036
H248	H	1.746637	0.001311	0.448964
H249	H	0.878340	0.147991	0.583657
H250	H	1.378340	0.647991	1.083657
H251	H	1.113286	-0.761714	0.000015
H252	H	1.613286	-0.261714	0.500015
C253	C	1.202771	-0.691997	0.000019
C254	C	1.702771	-0.191997	0.500019
C255	C	1.136925	-0.647412	0.000017
C256	C	1.636925	-0.147412	0.500017
H257	H	1.254564	-0.676457	0.000011
H258	H	1.754564	-0.176457	0.500011
H259	H	1.199209	-0.714883	0.051091
H260	H	1.699209	-0.214883	0.551091
H261	H	1.199202	-0.714881	-0.051055
H262	H	1.699202	-0.214881	0.448945
H263	H	1.140490	-0.624530	0.051094
H264	H	1.640490	-0.124530	0.551094
H265	H	1.140488	-0.624516	-0.051061
H266	H	1.640488	-0.124516	0.448939
H267	H	0.838249	-0.737043	0.000011
H268	H	1.338249	-0.237043	0.500011
