data_functionalizedCrystal
_audit_creation_method	'MofGen! by Chris Wilmer'
_symmetry_space_group_name_H-M	'P1'
_symmetry_Int_Tables_number	1
_symmetry_cell_setting	triclinic
loop_
_symmetry_equiv_pos_as_xyz
  x,y,z
_cell_length_a	19.805407
_cell_length_b	19.805405
_cell_length_c	19.805399
_cell_angle_alpha	89.970699
_cell_angle_beta	89.980427
_cell_angle_gamma	90.026410
loop_
_atom_site_label
_atom_site_type_symbol
_atom_site_fract_x
_atom_site_fract_y
_atom_site_fract_z
Zn1	Zn	-1.034736	0.269479	0.382712
Zn2	Zn	-0.701402	0.602812	0.716045
Zn3	Zn	-0.368069	0.936146	1.049378
Zn4	Zn	-1.034651	0.382667	0.269520
Zn5	Zn	-0.701317	0.716001	0.602853
Zn6	Zn	-0.367984	1.049334	0.936187
Zn7	Zn	-0.921550	0.269498	0.269536
Zn8	Zn	-0.588217	0.602831	0.602869
Zn9	Zn	-0.254884	0.936164	0.936203
Zn10	Zn	-0.921514	0.382631	0.382667
Zn11	Zn	-0.588180	0.715965	0.716000
Zn12	Zn	-0.254847	1.049298	1.049333
O13	O	-0.978113	0.326069	0.326109
O14	O	-0.644779	0.659402	0.659442
O15	O	-0.311446	0.992735	0.992775
O16	O	-1.129441	0.284501	0.367708
O17	O	-0.796108	0.617834	0.701042
O18	O	-0.462774	0.951167	1.034375
O19	O	-1.019627	0.367678	0.174805
O20	O	-0.686294	0.701011	0.508139
O21	O	-0.352960	1.034345	0.841472
O22	O	-0.936616	0.174778	0.284575
O23	O	-0.603282	0.508112	0.617908
O24	O	-0.269949	0.841445	0.951241
O25	O	-1.129378	0.367660	0.284547
O26	O	-0.796045	0.700993	0.617880
O27	O	-0.462712	1.034326	0.951214
O28	O	-1.019772	0.174765	0.367724
O29	O	-0.686439	0.508098	0.701058
O30	O	-0.353106	0.841431	1.034391
O31	O	-0.936533	0.284533	0.174817
O32	O	-0.603200	0.617866	0.508151
O33	O	-0.269866	0.951199	0.841484
O34	O	-0.826829	0.284498	0.284531
O35	O	-0.493496	0.617831	0.617864
O36	O	-0.160162	0.951164	0.951198
O37	O	-0.936553	0.367598	0.477389
O38	O	-0.603220	0.700932	0.810723
O39	O	-0.269887	1.034265	1.144056
O40	O	-0.826802	0.367617	0.367648
O41	O	-0.493469	0.700950	0.700981
O42	O	-0.160135	1.034283	1.034314
O43	O	-1.019737	0.284466	0.477422
O44	O	-0.686404	0.617799	0.810756
O45	O	-0.353070	0.951133	1.144089
O46	O	-1.019592	0.477379	0.284503
O47	O	-0.686258	0.810712	0.617837
O48	O	-0.352925	1.144046	0.951170
O49	O	-0.936471	0.477353	0.367632
O50	O	-0.603137	0.810686	0.700965
O51	O	-0.269804	1.144019	1.034299
C52	C	-0.802257	0.326056	0.326087
C53	C	-0.468923	0.659389	0.659420
C54	C	-0.135590	0.992722	0.992753
C55	C	-0.727025	0.326067	0.326093
C56	C	-0.393691	0.659400	0.659427
C57	C	-0.060358	0.992733	0.992760
C58	C	-0.978036	0.501925	0.326076
C59	C	-0.644703	0.835258	0.659409
C60	C	-0.311370	1.168591	0.992742
C61	C	-0.978066	0.577157	0.326084
C62	C	-0.644732	0.910490	0.659418
C63	C	-0.311399	1.243823	0.992751
C64	C	-0.978151	0.326026	0.502651
C65	C	-0.644817	0.659359	0.835985
C66	C	-0.311484	0.992693	1.169318
C67	C	-0.978167	0.326008	0.577883
C68	C	-0.644833	0.659341	0.911217
C69	C	-0.311500	0.992675	1.244550
C70	C	-1.154655	0.326082	0.326131
C71	C	-0.821322	0.659416	0.659464
C72	C	-0.487989	0.992749	0.992798
C73	C	-1.229887	0.326088	0.326140
C74	C	-0.896554	0.659421	0.659474
C75	C	-0.563221	0.992755	0.992807
C76	C	-0.691684	0.369412	0.369302
C77	C	-0.358351	0.702745	0.702635
C78	C	-0.025018	1.036078	1.035969
C79	C	-0.620996	0.369413	0.369312
C80	C	-0.287662	0.702746	0.702645
C81	C	0.045671	1.036080	1.035978
C82	C	-0.585649	0.326072	0.326109
C83	C	-0.252316	0.659405	0.659442
C84	C	0.081018	0.992738	0.992775
C85	C	-0.620994	0.282722	0.282898
C86	C	-0.287661	0.616055	0.616231
C87	C	0.045672	0.949389	0.949565
C88	C	-0.691681	0.282718	0.282892
C89	C	-0.358348	0.616051	0.616226
C90	C	-0.025015	0.949384	0.949559
C91	C	-0.335921	0.282737	0.282920
C92	C	-0.002588	0.616070	0.616254
C93	C	0.330746	0.949404	0.949587
C94	C	-0.265229	0.282746	0.282928
C95	C	0.068104	0.616079	0.616261
C96	C	0.401438	0.949412	0.949594
C97	C	-0.265235	0.369432	0.369340
C98	C	0.068098	0.702765	0.702673
C99	C	0.401431	1.036099	1.036006
C100	C	-0.335922	0.369428	0.369334
C101	C	-0.002589	0.702761	0.702667
C102	C	0.330744	1.036094	1.036001
C103	C	-0.371262	0.326076	0.326126
C104	C	-0.037928	0.659409	0.659460
C105	C	0.295405	0.992742	0.992793
C106	C	-0.447910	0.326074	0.326117
C107	C	-0.114577	0.659407	0.659451
C108	C	0.218757	0.992741	0.992784
C109	C	-0.509002	0.326076	0.326114
C110	C	-0.175669	0.659410	0.659447
C111	C	0.157665	0.992743	0.992780
C112	C	-0.978207	0.149526	0.326156
C113	C	-0.644874	0.482859	0.659490
C114	C	-0.311541	0.816193	0.992823
C115	C	-0.978248	0.074294	0.326177
C116	C	-0.644915	0.407627	0.659510
C117	C	-0.311581	0.740961	0.992843
C118	C	-1.021389	0.612492	0.282845
C119	C	-0.688056	0.945826	0.616178
C120	C	-0.354722	1.279159	0.949511
C121	C	-1.021418	0.683181	0.282860
C122	C	-0.688084	1.016514	0.616193
C123	C	-0.354751	1.349847	0.949526
C124	C	-0.978119	0.718532	0.326111
C125	C	-0.644786	1.051866	0.659445
C126	C	-0.311453	1.385199	0.992778
C127	C	-0.934794	0.683192	0.369356
C128	C	-0.601461	1.016525	0.702689
C129	C	-0.268128	1.349859	1.036023
C130	C	-0.934769	0.612505	0.369344
C131	C	-0.601436	0.945838	0.702677
C132	C	-0.268103	1.279171	1.036010
C133	C	-0.934894	0.968265	0.369406
C134	C	-0.601561	1.301598	0.702739
C135	C	-0.268227	1.634932	1.036073
C136	C	-0.934921	1.038957	0.369413
C137	C	-0.601588	1.372291	0.702747
C138	C	-0.268254	1.705624	1.036080
C139	C	-1.021542	1.038941	0.282922
C140	C	-0.688209	1.372274	0.616255
C141	C	-0.354876	1.705608	0.949589
C142	C	-1.021517	0.968254	0.282910
C143	C	-0.688184	1.301587	0.616243
C144	C	-0.354851	1.634921	0.949577
C145	C	-0.978195	0.932920	0.326157
C146	C	-0.644862	1.266253	0.659490
C147	C	-0.311529	1.599586	0.992823
C148	C	-0.978166	0.856271	0.326141
C149	C	-0.644832	1.189605	0.659474
C150	C	-0.311499	1.522938	0.992807
C151	C	-0.978145	0.795179	0.326124
C152	C	-0.644812	1.128513	0.659458
C153	C	-0.311478	1.461846	0.992791
C154	C	-0.978114	0.326062	0.150253
C155	C	-0.644780	0.659396	0.483586
C156	C	-0.311447	0.992729	0.816919
C157	C	-0.978229	0.325890	0.075021
C158	C	-0.644895	0.659223	0.408354
C159	C	-0.311562	0.992557	0.741688
C160	C	-1.021481	0.282719	0.613246
C161	C	-0.688148	0.616052	0.946579
C162	C	-0.354815	0.949385	1.279912
C163	C	-1.021488	0.282699	0.683934
C164	C	-0.688155	0.616032	1.017268
C165	C	-0.354822	0.949366	1.350601
C166	C	-0.978184	0.325973	0.719259
C167	C	-0.644850	0.659306	1.052592
C168	C	-0.311517	0.992639	1.385926
C169	C	-0.934864	0.369264	0.683892
C170	C	-0.601531	0.702597	1.017225
C171	C	-0.268197	1.035930	1.350558
C172	C	-0.934854	0.369279	0.613204
C173	C	-0.601521	0.702613	0.946538
C174	C	-0.268188	1.035946	1.279871
C175	C	-0.934902	0.369201	0.968965
C176	C	-0.601569	0.702534	1.302298
C177	C	-0.268236	1.035867	1.635632
C178	C	-0.934917	0.369183	1.039657
C179	C	-0.601584	0.702516	1.372991
C180	C	-0.268250	1.035850	1.706324
C181	C	-1.021536	0.282620	1.039695
C182	C	-0.688203	0.615954	1.373028
C183	C	-0.354870	0.949287	1.706362
C184	C	-1.021527	0.282636	0.969008
C185	C	-0.688193	0.615969	1.302341
C186	C	-0.354860	0.949303	1.635674
C187	C	-0.978205	0.325924	0.933647
C188	C	-0.644872	0.659258	1.266980
C189	C	-0.311538	0.992591	1.600313
C190	C	-0.978197	0.325944	0.856998
C191	C	-0.644864	0.659277	1.190331
C192	C	-0.311530	0.992611	1.523665
C193	C	-0.978194	0.325957	0.795906
C194	C	-0.644861	0.659290	1.129240
C195	C	-0.311528	0.992623	1.462573
H196	H	-0.720458	0.404707	0.404481
H197	H	-0.387125	0.738041	0.737814
H198	H	-0.053792	1.071374	1.071148
C199	C	-0.887245	0.416817	0.930077
C200	C	-0.553912	0.750150	1.263410
C201	C	-0.220578	1.083484	1.596744
N202	N	-0.851346	0.452683	0.900784
N203	N	-0.518013	0.786016	1.234117
N204	N	-0.184679	1.119350	1.567451
C205	C	-1.069162	0.235029	0.930154
C206	C	-0.735829	0.568362	1.263488
C207	C	-0.402496	0.901696	1.596821
N208	N	-1.105040	0.199167	0.900891
N209	N	-0.771706	0.532501	1.234224
N210	N	-0.438373	0.865834	1.567558
C211	C	-0.582124	0.417109	0.416832
C212	C	-0.248791	0.750442	0.750165
C213	C	0.084542	1.083776	1.083498
N214	N	-0.552847	0.453040	0.452622
N215	N	-0.219514	0.786373	0.785955
N216	N	0.113820	1.119707	1.119288
C217	C	-0.730556	0.235036	0.235358
C218	C	-0.397222	0.568370	0.568691
C219	C	-0.063889	0.901703	0.902025
N220	N	-0.759835	0.199120	0.199555
N221	N	-0.426501	0.532453	0.532888
N222	N	-0.093168	0.865786	0.866221
C223	C	-0.887271	0.416785	1.078513
C224	C	-0.553938	0.750118	1.411846
C225	C	-0.220605	1.083452	1.745180
N226	N	-0.851386	0.452636	1.107779
N227	N	-0.518053	0.785970	1.441113
N228	N	-0.184719	1.119303	1.774446
H229	H	-1.056644	0.583713	0.247621
H230	H	-0.723311	0.917047	0.580955
H231	H	-0.389978	1.250380	0.914288
C232	C	-1.069072	0.722046	0.235288
C233	C	-0.735739	1.055380	0.568622
C234	C	-0.402406	1.388713	0.901955
N235	N	-1.104967	0.751320	0.199454
N236	N	-0.771634	1.084653	0.532788
N237	N	-0.438300	1.417986	0.866121
C238	C	-1.069183	0.234993	1.078599
C239	C	-0.735850	0.568327	1.411932
C240	C	-0.402517	0.901660	1.745265
N241	N	-1.105070	0.199121	1.107900
N242	N	-0.771736	0.532455	1.441233
N243	N	-0.438403	0.865788	1.774566
H244	H	-0.899602	0.404495	0.712659
H245	H	-0.566269	0.737829	1.045992
H246	H	-0.232935	1.071162	1.379325
C247	C	-1.069139	0.235078	0.722830
C248	C	-0.735806	0.568412	1.056163
C249	C	-0.402473	0.901745	1.389496
N250	N	-1.105032	0.199208	0.752125
N251	N	-0.771699	0.532542	1.085459
N252	N	-0.438365	0.865875	1.418792
H253	H	-1.056820	1.067719	0.247711
H254	H	-0.723487	1.401052	0.581044
H255	H	-0.390153	1.734385	0.914378
H256	H	-0.236454	0.404729	0.404524
H257	H	0.096880	0.738062	0.737857
H258	H	0.430213	1.071395	1.071191
H259	H	-0.236452	0.247448	0.247747
H260	H	0.096882	0.580781	0.581080
H261	H	0.430215	0.914115	0.914413
C262	C	-0.887291	1.077843	0.416999
C263	C	-0.553957	1.411176	0.750333
C264	C	-0.220624	1.744509	1.083666
N265	N	-0.851417	1.107131	0.452840
N266	N	-0.518084	1.440465	0.786173
N267	N	-0.184751	1.773798	1.119506
C268	C	-1.069143	0.929371	0.235324
C269	C	-0.735809	1.262704	0.568657
C270	C	-0.402476	1.596038	0.901990
N271	N	-1.105015	0.900085	0.199481
N272	N	-0.771682	1.233419	0.532814
N273	N	-0.438349	1.566752	0.866147
C274	C	-0.887273	0.929407	0.417013
C275	C	-0.553939	1.262740	0.750347
C276	C	-0.220606	1.596073	1.083680
N277	N	-0.851415	0.900136	0.452886
N278	N	-0.518082	1.233469	0.786220
N279	N	-0.184748	1.566803	1.119553
H280	H	-1.056747	0.247482	0.584489
H281	H	-0.723414	0.580816	0.917823
H282	H	-0.390081	0.914149	1.251156
H283	H	-0.899576	0.404523	0.584413
H284	H	-0.566243	0.737857	0.917747
H285	H	-0.232909	1.071190	1.251080
H286	H	-0.364698	0.404723	0.404512
H287	H	-0.031365	0.738056	0.737845
H288	H	0.301968	1.071390	1.071179
C289	C	-0.887163	0.722081	0.416931
C290	C	-0.553830	1.055415	0.750264
C291	C	-0.220497	1.388748	1.083598
N292	N	-0.851284	0.751372	0.452763
N293	N	-0.517950	1.084706	0.786096
N294	N	-0.184617	1.418039	1.119429
C295	C	-0.887111	0.573636	0.416911
C296	C	-0.553778	0.906970	0.750245
C297	C	-0.220444	1.240303	1.083578
N298	N	-0.851215	0.544361	0.452742
N299	N	-0.517881	0.877695	0.786076
N300	N	-0.184548	1.211028	1.119409
H301	H	-0.364686	0.247442	0.247733
H302	H	-0.031352	0.580775	0.581066
H303	H	0.301981	0.914109	0.914399
H304	H	-0.592209	0.247430	0.247724
H305	H	-0.258876	0.580763	0.581058
H306	H	0.074457	0.914097	0.914391
