data_functionalizedCrystal
_audit_creation_method	'MofGen! by Chris Wilmer'
_symmetry_space_group_name_H-M	'P1'
_symmetry_Int_Tables_number	1
_symmetry_cell_setting	triclinic
loop_
_symmetry_equiv_pos_as_xyz
  x,y,z
_cell_length_a	10.654562
_cell_length_b	10.654550
_cell_length_c	9.730223
_cell_angle_alpha	90.001139
_cell_angle_beta	89.994332
_cell_angle_gamma	84.487503
loop_
_atom_site_label
_atom_site_type_symbol
_atom_site_fract_x
_atom_site_fract_y
_atom_site_fract_z
O1	O	1.667830	0.176466	-0.114377
O2	O	1.302353	0.193256	-0.114359
O3	O	1.493495	0.002122	-0.114363
O4	O	1.476688	0.367600	-0.114373
O5	O	1.493482	0.002133	0.114217
O6	O	1.302341	0.193266	0.114221
O7	O	1.667817	0.176477	0.114203
Zn8	Zn	1.485077	0.184873	0.150504
Zn9	Zn	1.485093	0.184859	-0.150660
O10	O	1.476676	0.367611	0.114207
C11	C	1.255549	0.192025	-0.000067
C12	C	1.116107	0.188327	-0.000060
C13	C	1.050570	0.186608	0.124528
C14	C	0.919547	0.183143	0.124505
C15	C	0.919611	0.183122	-0.124705
C16	C	1.050632	0.186577	-0.124681
C17	C	1.116045	0.188357	0.249149
C18	C	1.050507	0.186639	0.373747
C19	C	0.919485	0.183174	0.373724
C20	C	0.854000	0.181427	0.249103
C21	C	1.492254	-0.044671	-0.000075
C22	C	1.488563	-0.184114	-0.000079
C23	C	1.601103	-0.263595	-0.000081
C24	C	1.597627	-0.394615	-0.000090
C25	C	1.369059	-0.366662	-0.000091
C26	C	1.372537	-0.235644	-0.000092
C27	C	1.717129	-0.212064	-0.000068
C28	C	1.829680	-0.291546	-0.000068
C29	C	1.826203	-0.422567	-0.000077
C30	C	1.710176	-0.474106	-0.000087
C31	C	1.714621	0.177708	-0.000092
C32	C	1.854064	0.181406	-0.000108
C33	C	1.477916	0.414403	-0.000084
C34	C	1.481608	0.553847	-0.000088
N35	N	1.485075	0.184882	0.356040
N36	N	1.485105	0.184841	-0.356196
C37	C	1.561904	0.261760	0.427974
C38	C	1.561923	0.261737	0.571857
C39	C	1.408273	0.107954	0.571860
C40	C	1.408262	0.107972	0.427980
C41	C	1.638718	0.338671	0.356034
C42	C	1.715552	0.415556	0.427968
C43	C	1.715571	0.415533	0.571851
C44	C	1.638756	0.338624	0.643800
H45	H	1.222729	0.191182	0.249181
H46	H	0.866129	0.181766	0.475178
F47	F	0.849914	0.181254	-0.257326
H48	H	1.280896	-0.170928	-0.000089
F49	F	1.797353	0.497349	0.648404
F50	F	1.245584	-0.421519	-0.000100
F51	F	0.714557	0.177709	0.249085
F52	F	1.120203	0.188486	0.506370
F53	F	1.120386	0.188405	-0.257282
H54	H	1.719973	-0.105382	-0.000056
F55	F	1.953156	-0.236693	-0.000074
H56	H	1.917847	-0.487279	-0.000091
F57	F	1.706482	-0.613553	-0.000052
F58	F	1.326512	0.026129	0.351419
H59	H	1.778100	0.478166	0.369377
H60	H	1.638789	0.338599	0.760959
H61	H	1.638708	0.338702	0.238878
H62	H	1.345731	0.045340	0.630453
