data_functionalizedCrystal
_audit_creation_method	'MofGen! by Chris Wilmer'
_symmetry_space_group_name_H-M	'P1'
_symmetry_Int_Tables_number	1
_symmetry_cell_setting	triclinic
loop_
_symmetry_equiv_pos_as_xyz
  x,y,z
_cell_length_a	11.792241
_cell_length_b	10.268362
_cell_length_c	14.971494
_cell_angle_alpha	89.999629
_cell_angle_beta	83.905487
_cell_angle_gamma	90.000426
loop_
_atom_site_label
_atom_site_type_symbol
_atom_site_fract_x
_atom_site_fract_y
_atom_site_fract_z
O1	O	1.506123	0.108168	0.122592
O2	O	2.006123	0.608168	0.622592
O3	O	1.175701	0.108198	0.135227
O4	O	1.675701	0.608198	0.635227
O5	O	1.349764	0.108180	-0.001255
O6	O	1.849764	0.608180	0.498745
O7	O	1.332061	0.108187	0.259074
O8	O	1.832061	0.608187	0.759074
O9	O	1.349747	-0.108421	-0.001250
O10	O	1.849747	0.391579	0.498750
O11	O	1.175685	-0.108402	0.135232
O12	O	1.675685	0.391598	0.635232
O13	O	1.506107	-0.108432	0.122597
O14	O	2.006107	0.391568	0.622597
Cu15	Cu	1.340894	-0.128195	0.128915
Cu16	Cu	1.840894	0.371805	0.628915
Cu17	Cu	1.340914	0.127961	0.128909
Cu18	Cu	1.840914	0.627961	0.628909
O19	O	1.332044	-0.108414	0.259078
O20	O	1.832044	0.391586	0.759078
C21	C	1.133407	-0.000098	0.134436
C22	C	1.633407	0.499902	0.634436
C23	C	1.007409	-0.000087	0.132060
C24	C	1.507409	0.499913	0.632060
C25	C	0.776724	-0.000124	0.127692
C26	C	1.276724	0.499876	0.627692
C27	C	0.905094	-0.000104	0.130119
C28	C	1.405094	0.499896	0.630119
N29	N	1.340888	-0.308360	0.128918
N30	N	1.840888	0.191640	0.628918
C31	C	1.340897	-0.426203	0.128918
C32	C	1.840897	0.073797	0.628918
C33	C	1.340911	-0.574041	0.128910
C34	C	1.840911	-0.074041	0.628910
C35	C	1.548401	-0.000133	0.123388
C36	C	2.048401	0.499867	0.623388
C37	C	1.674399	-0.000136	0.125764
C38	C	2.174399	0.499864	0.625764
C39	C	1.348962	-0.000119	-0.034580
C40	C	1.848962	0.499881	0.465420
C41	C	1.346584	-0.000112	-0.133886
C42	C	1.846584	0.499888	0.366114
N43	N	1.340928	0.308127	0.128899
N44	N	1.840928	0.808127	0.628899
C45	C	1.345479	0.117958	-0.180538
C46	C	1.845479	0.617958	0.319462
C47	C	1.343238	0.117960	-0.273846
C48	C	1.843238	0.617960	0.226154
C49	C	1.342110	-0.000110	-0.320501
C50	C	1.842110	0.499890	0.179499
C51	C	1.343212	-0.118190	-0.273843
C52	C	1.843212	0.381810	0.226157
C53	C	1.345445	-0.118190	-0.180536
C54	C	1.845445	0.381810	0.319464
C55	C	1.338560	-0.118181	-0.468325
C56	C	1.838560	0.381819	0.031675
C57	C	1.336329	-0.118181	-0.561638
C58	C	1.836329	0.381819	-0.061638
C59	C	1.336353	0.117970	-0.561635
C60	C	1.836353	0.617970	-0.061635
C61	C	1.338586	0.117969	-0.468328
C62	C	1.838586	0.617969	0.031672
C63	C	1.339690	-0.000111	-0.421676
C64	C	1.839690	0.499889	0.078324
C65	C	1.332846	-0.000112	0.292404
C66	C	1.832846	0.499888	0.792404
C67	C	1.335224	-0.000110	0.391710
C68	C	1.835224	0.499890	0.891710
H69	H	1.346403	0.214105	-0.142558
H70	H	1.846403	0.714105	0.357442
H71	H	1.342342	0.214105	-0.311826
H72	H	1.842342	0.714105	0.188174
H73	H	1.335401	-0.214324	-0.599622
H74	H	1.835401	0.285676	-0.099622
H75	H	1.342287	-0.214325	-0.311836
H76	H	1.842287	0.285675	0.188164
Cl77	Cl	1.340014	0.266403	-0.409677
Cl78	Cl	1.840014	0.766403	0.090323
H79	H	1.346329	-0.214336	-0.142551
H80	H	1.846329	0.285664	0.357449
Cl81	Cl	1.339953	-0.266627	-0.409678
Cl82	Cl	1.839953	0.233373	0.090322
H83	H	1.335452	0.214115	-0.599623
H84	H	1.835452	0.714115	-0.099623
