data_functionalizedCrystal
_audit_creation_method	'MofGen! by Chris Wilmer'
_symmetry_space_group_name_H-M	'P1'
_symmetry_Int_Tables_number	1
_symmetry_cell_setting	triclinic
loop_
_symmetry_equiv_pos_as_xyz
  x,y,z
_cell_length_a	14.044220
_cell_length_b	15.995350
_cell_length_c	12.503572
_cell_angle_alpha	93.525550
_cell_angle_beta	86.164750
_cell_angle_gamma	88.340626
loop_
_atom_site_label
_atom_site_type_symbol
_atom_site_fract_x
_atom_site_fract_y
_atom_site_fract_z
O1	O	1.263165	0.197434	-0.089196
O2	O	0.987198	0.190148	-0.089224
O3	O	1.132725	0.072467	-0.089208
O4	O	1.117638	0.315115	-0.089212
O5	O	1.121781	0.081333	0.089432
O6	O	0.976253	0.199014	0.089417
O7	O	1.252221	0.206300	0.089445
Cu8	Cu	1.113237	0.203467	0.105742
Cu9	Cu	1.126181	0.192981	-0.105521
O10	O	1.106693	0.323981	0.089429
C11	C	0.946411	0.191392	0.000093
C12	C	0.841186	0.181881	0.000082
C13	C	0.648523	0.164494	0.000104
C14	C	0.590890	0.231950	0.000107
C15	C	0.483686	0.222276	0.000119
C16	C	0.755737	0.174167	0.000092
C17	C	1.126629	0.045658	0.000110
C18	C	1.124760	-0.047432	0.000104
C19	C	1.118044	-0.385681	0.000107
C20	C	1.014426	-0.346008	-0.000304
C21	C	1.016272	-0.249158	0.000099
C22	C	1.121375	-0.217872	0.000105
C23	C	1.166245	-0.250068	0.102120
C24	C	1.163636	-0.346894	0.102206
C25	C	1.178223	-0.357175	-0.100942
C26	C	1.178281	-0.260298	-0.102290
C27	C	1.123263	-0.123033	0.000107
C28	C	1.116158	-0.480519	0.000111
C29	C	1.293007	0.205055	0.000125
C30	C	1.398233	0.214567	0.000129
C31	C	1.112789	0.350789	0.000108
C32	C	1.114659	0.443879	0.000108
N33	N	1.104141	0.210842	0.254333
N34	N	1.135285	0.185600	-0.254113
C35	C	1.090759	0.221698	0.473447
C36	C	1.148663	0.174747	0.526780
C37	C	1.141218	0.180787	0.648703
C38	C	1.098204	0.215658	0.351514
H39	H	0.622061	0.296967	0.000101
C40	C	0.606420	0.076667	0.000098
H41	H	0.538846	0.081605	0.000094
H42	H	0.623403	0.050192	0.062387
H43	H	0.631020	0.044024	-0.062212
H44	H	0.980568	-0.227367	-0.073031
H45	H	1.035599	0.266427	0.519349
H46	H	0.977483	-0.371265	-0.073462
H47	H	1.145529	-0.239586	-0.177759
H48	H	0.968729	-0.365072	0.072438
C49	C	1.223193	0.114321	0.464777
H50	H	1.258542	0.085655	0.514275
H51	H	1.265348	0.145211	0.420905
H52	H	1.191662	0.074809	0.420907
C53	C	0.955565	-0.210676	0.099045
H54	H	0.956478	-0.151284	0.099623
H55	H	0.981069	-0.228812	0.162505
H56	H	0.891683	-0.228181	0.096039
C57	C	1.106957	-0.370271	0.205207
H58	H	1.085736	-0.320619	0.246602
H59	H	1.146804	-0.403054	0.245998
H60	H	1.053346	-0.401548	0.186561
C61	C	1.266037	-0.382477	0.108493
H62	H	1.265138	-0.441839	0.108585
H63	H	1.291310	-0.360516	0.172592
H64	H	1.304835	-0.367037	0.048171
C65	C	1.270240	-0.222936	0.107264
H66	H	1.287256	-0.191654	0.047099
H67	H	1.311398	-0.271200	0.106322
H68	H	1.276217	-0.189199	0.171541
C69	C	1.111992	-0.210235	0.204674
H70	H	1.061991	-0.173983	0.185539
H71	H	1.154730	-0.179066	0.245954
H72	H	1.085761	-0.253090	0.245788
C73	C	1.138845	-0.393517	-0.205398
H74	H	1.085327	-0.426419	-0.188355
H75	H	1.187017	-0.427553	-0.245228
H76	H	1.119871	-0.348993	-0.247041
H77	H	1.255304	-0.239517	-0.108445
C78	C	1.281505	-0.392422	-0.101874
H79	H	1.287962	-0.424360	-0.041017
H80	H	1.324192	-0.347451	-0.099634
H81	H	1.296070	-0.427222	-0.165540
