data_functionalizedCrystal
_audit_creation_method	'MofGen! by Chris Wilmer'
_symmetry_space_group_name_H-M	'P1'
_symmetry_Int_Tables_number	1
_symmetry_cell_setting	triclinic
loop_
_symmetry_equiv_pos_as_xyz
  x,y,z
_cell_length_a	16.992694
_cell_length_b	11.026607
_cell_length_c	16.053802
_cell_angle_alpha	93.134017
_cell_angle_beta	87.249047
_cell_angle_gamma	99.627120
loop_
_atom_site_label
_atom_site_type_symbol
_atom_site_fract_x
_atom_site_fract_y
_atom_site_fract_z
O1	O	1.079834	0.256038	-0.069317
O2	O	0.851145	0.253175	-0.069342
O3	O	0.946536	0.076115	-0.069328
O4	O	0.984443	0.433098	-0.069330
O5	O	0.941279	0.085818	0.069530
O6	O	0.845889	0.262878	0.069516
O7	O	1.074577	0.265741	0.069541
Zn8	Zn	0.959398	0.265850	0.091575
Zn9	Zn	0.966324	0.253066	-0.091376
O10	O	0.979186	0.442801	0.069528
C11	C	0.818785	0.254344	0.000084
C12	C	0.730190	0.243357	0.000075
C13	C	0.694911	0.349355	0.000075
C14	C	0.611666	0.339026	0.000086
C15	C	0.563702	0.222698	0.000092
C16	C	0.598986	0.116693	0.000094
C17	C	0.682229	0.127024	0.000089
C18	C	0.314060	0.179883	0.000114
C19	C	0.230811	0.169561	0.000117
C20	C	0.243497	0.391895	0.000111
C21	C	0.326741	0.402215	0.000100
C22	C	0.362018	0.296210	0.000107
N23	N	0.478612	0.212138	0.000101
N24	N	0.447107	0.306772	0.000104
C25	C	0.936914	0.035078	0.000099
C26	C	0.916068	-0.101658	0.000094
C27	C	0.973629	-0.169881	0.000099
C28	C	0.952085	-0.311205	0.000093
C29	C	1.106937	0.264572	0.000113
C30	C	1.195532	0.275558	0.000117
C31	C	0.988808	0.483838	0.000099
C32	C	1.009655	0.620574	0.000098
N33	N	0.954677	0.274575	0.216435
N34	N	0.971050	0.244332	-0.216236
C35	C	0.995289	0.199266	0.260135
C36	C	0.991996	0.205382	0.347541
C37	C	0.948095	0.286813	0.391246
C38	C	0.907478	0.362124	0.347540
C39	C	0.910767	0.356002	0.260136
C40	C	0.933722	0.313521	0.652654
C41	C	0.930438	0.319641	0.740065
C42	C	1.014955	0.162896	0.740059
C43	C	1.018244	0.156786	0.652653
C44	C	0.977624	0.232093	0.608955
N45	N	0.944729	0.293068	0.480589
N46	N	0.980985	0.225830	0.519613
H47	H	0.342772	0.093566	0.000121
H48	H	0.582946	0.425341	0.000085
H49	H	0.886850	-0.357419	0.000081
O50	O	0.894178	0.386506	0.610171
C51	C	0.837744	0.312288	0.559605
H52	H	0.821706	0.216970	0.585952
H53	H	0.864212	0.303631	0.493361
C54	C	0.781708	0.488738	0.525904
C55	C	0.762005	0.371671	0.558268
H56	H	0.734989	0.525369	0.525075
H57	H	0.819730	0.538741	0.559969
H58	H	0.803765	0.481508	0.470704
H59	H	0.739957	0.378903	0.613470
H60	H	0.723977	0.321669	0.524212
H61	H	1.074893	-0.333220	0.000043
H62	H	0.733959	0.444081	0.000069
O63	O	1.031532	0.132194	0.389861
C64	C	1.070978	0.058999	0.332543
H65	H	1.081328	0.105165	0.270233
H66	H	1.032627	-0.035589	0.323262
C67	C	1.139180	-0.012246	0.443172
C68	C	1.151897	0.044461	0.366643
H69	H	1.189093	-0.021220	0.464207
H70	H	1.112602	0.037062	0.481789
H71	H	1.107219	-0.091064	0.435428
H72	H	1.183849	0.123283	0.374391
H73	H	1.178482	-0.004835	0.328028
O74	O	1.051477	-0.114892	0.000216
C75	C	1.086803	-0.145803	0.072145
H76	H	1.051739	-0.235284	0.096120
H77	H	1.086110	-0.068930	0.122502
C78	C	1.216760	-0.052634	0.020857
C79	C	1.173698	-0.162542	0.050300
H80	H	1.270362	-0.062954	0.007384
H81	H	1.192960	-0.031804	-0.027601
H82	H	1.216174	0.011416	0.062827
H83	H	1.174276	-0.226585	0.008327
H84	H	1.197500	-0.183383	0.098751
O85	O	0.373423	0.515146	0.000187
C86	C	0.419246	0.532834	0.072096
H87	H	0.425295	0.439549	0.096096
H88	H	0.388420	0.587278	0.122449
C89	C	0.495345	0.719200	0.020732
C90	C	0.502779	0.604625	0.050204
H91	H	0.546870	0.763488	0.007230
H92	H	0.464471	0.707287	-0.027714
H93	H	0.469653	0.764554	0.062697
H94	H	0.528461	0.559267	0.008235
H95	H	0.533660	0.616532	0.098642
O96	O	1.060895	0.077572	0.610330
C97	C	1.096051	0.012434	0.667644
H98	H	1.060915	0.012215	0.729954
H99	H	1.160400	0.058816	0.676928
C100	C	1.138147	-0.120811	0.557008
C101	C	1.094988	-0.121088	0.633537
H102	H	1.137495	-0.203172	0.535969
H103	H	1.114464	-0.076924	0.518394
H104	H	1.191767	-0.082153	0.564756
H105	H	1.041367	-0.159731	0.625787
H106	H	1.118662	-0.164985	0.672150
H107	H	0.214765	0.478198	0.000107
O108	O	0.716374	0.023930	0.000047
C109	C	0.656191	-0.080959	0.000072
H110	H	0.599702	-0.057572	-0.026214
H111	H	0.642877	-0.111582	0.066690
C112	C	0.754124	-0.214484	-0.022100
C113	C	0.684745	-0.185762	-0.054391
H114	H	0.771737	-0.279134	-0.055692
H115	H	0.794671	-0.143819	-0.022114
H116	H	0.743019	-0.239996	0.033414
H117	H	0.695852	-0.160236	-0.109900
H118	H	0.644200	-0.256425	-0.054388
O119	O	1.054330	0.089788	0.782637
C120	C	1.042032	0.112669	0.869155
H121	H	0.984864	0.153307	0.881099
H122	H	1.094809	0.180516	0.893948
C123	C	1.104744	-0.058794	0.899365
C124	C	1.034526	-0.008891	0.914036
H125	H	1.100117	-0.133776	0.927052
H126	H	1.113032	-0.074208	0.841077
H127	H	1.148718	-0.002243	0.920026
H128	H	0.990556	-0.065435	0.893366
H129	H	1.026230	0.006510	0.972322
H130	H	0.850837	-0.147877	0.000081
O131	O	0.887714	0.398764	0.782392
C132	C	0.852578	0.463935	0.725081
H133	H	0.846912	0.409046	0.662778
H134	H	0.891629	0.557221	0.715778
C135	C	0.776061	0.550674	0.835729
C136	C	0.769095	0.483253	0.759209
H137	H	0.724566	0.562596	0.856782
H138	H	0.799735	0.506771	0.874341
H139	H	0.808606	0.628405	0.827966
H140	H	0.736559	0.405518	0.766975
H141	H	0.745414	0.527144	0.720599
H142	H	0.191760	0.074828	0.000121
H143	H	0.871728	0.428423	0.383130
H144	H	0.559926	0.021977	0.000111
H145	H	1.031042	0.132962	0.224556
H146	H	0.877695	0.417324	0.224556
