data_functionalizedCrystal
_audit_creation_method	'MofGen! by Chris Wilmer'
_symmetry_space_group_name_H-M	'P1'
_symmetry_Int_Tables_number	1
_symmetry_cell_setting	triclinic
loop_
_symmetry_equiv_pos_as_xyz
  x,y,z
_cell_length_a	14.908742
_cell_length_b	14.908520
_cell_length_c	14.908308
_cell_angle_alpha	83.639235
_cell_angle_beta	83.239341
_cell_angle_gamma	89.837416
loop_
_atom_site_label
_atom_site_type_symbol
_atom_site_fract_x
_atom_site_fract_y
_atom_site_fract_z
Zn1	Zn	1.325909	-0.462157	0.460058
Zn2	Zn	1.825909	0.037843	0.960058
Zn3	Zn	1.325807	-0.604797	0.317434
Zn4	Zn	1.825807	-0.104797	0.817434
Zn5	Zn	1.184290	-0.445739	0.316460
Zn6	Zn	1.684290	0.054261	0.816460
Zn7	Zn	1.165782	-0.604746	0.477494
Zn8	Zn	1.665782	-0.104746	0.977494
O9	O	1.250447	-0.529359	0.392862
O10	O	1.750447	-0.029359	0.892862
O11	O	1.452134	-0.487971	0.434249
O12	O	1.952134	0.012029	0.934249
O13	O	1.314737	-0.576847	0.190223
O14	O	1.814737	-0.076847	0.690223
O15	O	1.210864	-0.321677	0.327804
O16	O	1.710864	0.178323	0.827804
O17	O	1.452059	-0.592767	0.329464
O18	O	1.952059	-0.092767	0.829464
O19	O	1.314911	-0.333739	0.433305
O20	O	1.814911	0.166261	0.933305
O21	O	1.210765	-0.459988	0.189508
O22	O	1.710765	0.040012	0.689508
O23	O	1.055596	-0.459939	0.344712
O24	O	1.555596	0.040061	0.844712
O25	O	1.179321	-0.592681	0.602263
O26	O	1.679321	-0.092681	1.102263
O27	O	1.041998	-0.576761	0.463022
O28	O	1.541998	-0.076761	0.963022
O29	O	1.296965	-0.487921	0.589453
O30	O	1.796965	0.012079	1.089453
O31	O	1.296791	-0.731030	0.346371
O32	O	1.796791	-0.231030	0.846371
O33	O	1.179221	-0.730993	0.463966
O34	O	1.679221	-0.230993	0.963966
C35	C	1.016065	-0.516564	0.405654
C36	C	1.516065	-0.016564	0.905654
C37	C	0.915792	-0.511112	0.411149
C38	C	1.415792	-0.011112	0.911149
C39	C	1.236010	-0.763746	0.407185
C40	C	1.736010	-0.263746	0.907185
C41	C	1.229914	-0.864024	0.413338
C42	C	1.729914	-0.364024	0.913338
C43	C	0.774487	-0.448974	0.473541
C44	C	1.274487	0.051026	0.973541
C45	C	0.868702	-0.454088	0.468381
C46	C	1.368702	0.045912	0.968381
C47	C	0.868661	-0.563028	0.359075
C48	C	1.368661	-0.063028	0.859075
C49	C	0.774445	-0.557914	0.364234
C50	C	1.274445	-0.057914	0.864234
C51	C	0.727362	-0.500883	0.421468
C52	C	1.227362	-0.000883	0.921468
C53	C	0.633146	-0.495765	0.426622
C54	C	1.133146	0.004235	0.926622
C55	C	0.633106	-0.604709	0.317321
C56	C	1.133106	-0.104709	0.817321
C57	C	0.727321	-0.609823	0.312161
C58	C	1.227321	-0.109823	0.812161
C59	C	1.340998	-1.052446	0.302536
C60	C	1.840998	-0.552446	0.802536
C61	C	1.335274	-1.146666	0.308314
C62	C	1.835274	-0.646666	0.808314
C63	C	1.212747	-1.146686	0.430677
C64	C	1.712747	-0.646686	0.930677
C65	C	1.218471	-1.052466	0.424898
C66	C	1.718471	-0.552466	0.924898
C67	C	1.282598	-1.005349	0.360825
C68	C	1.782598	-0.505349	0.860825
C69	C	1.288317	-0.911127	0.355043
C70	C	1.788317	-0.411127	0.855043
C71	C	1.165795	-0.911149	0.477409
C72	C	1.665795	-0.411149	0.977409
C73	C	1.160071	-1.005369	0.483188
C74	C	1.660071	-0.505369	0.983188
C75	C	1.485744	-0.542206	0.380020
C76	C	1.985744	-0.042206	0.880020
C77	C	1.586014	-0.547680	0.374547
C78	C	2.086014	-0.047680	0.874547
C79	C	1.236090	-0.542127	0.629730
C80	C	1.736090	-0.042127	1.129730
C81	C	1.229972	-0.547567	0.730669
C82	C	1.729972	-0.047567	1.230669
C83	C	1.264964	-0.294060	0.378501
C84	C	1.764964	0.205940	0.878501
C85	C	1.271150	-0.193789	0.372382
C86	C	1.771150	0.306211	0.872382
C87	C	1.264804	-0.516580	0.156908
C88	C	1.764804	-0.016580	0.656908
C89	C	1.271112	-0.510894	0.055944
C90	C	1.771112	-0.010894	0.555944
C91	C	1.340977	-0.448684	0.907006
C92	C	1.840977	0.051316	1.407006
C93	C	1.335232	-0.453793	1.001847
C94	C	1.835232	0.046207	1.501847
C95	C	1.212732	-0.562889	1.015194
C96	C	1.712732	-0.062889	1.515194
C97	C	1.218477	-0.557780	0.920353
C98	C	1.718477	-0.057780	1.420353
C99	C	1.282603	-0.500676	0.866262
C100	C	1.782603	-0.000676	1.366262
C101	C	1.288352	-0.495573	0.771419
C102	C	1.788352	0.004427	1.271419
C103	C	1.165849	-0.604664	0.784768
C104	C	1.665849	-0.104664	1.284768
C105	C	1.160103	-0.609773	0.879609
C106	C	1.660103	-0.109773	1.379609
H107	H	0.736151	-0.402528	0.520134
H108	H	1.236151	0.097472	1.020134
C109	C	1.101546	-0.859345	0.541528
C110	C	1.601546	-0.359345	1.041528
H111	H	1.062532	-0.900903	0.580507
H112	H	1.562532	-0.400903	1.080507
H113	H	1.135848	-0.826553	0.576989
H114	H	1.635848	-0.326553	1.076989
H115	H	1.066605	-0.818628	0.506635
H116	H	1.566605	-0.318628	1.006635
H117	H	0.765669	-0.656258	0.265565
H118	H	1.265669	-0.156258	0.765565
C119	C	0.920540	-0.396990	0.525660
C120	C	1.420540	0.103010	1.025660
H121	H	0.983395	-0.408207	0.514397
H122	H	1.483395	0.091793	1.014397
H123	H	0.909620	-0.334805	0.509614
H124	H	1.409620	0.165195	1.009614
H125	H	0.900595	-0.412746	0.588315
H126	H	1.400595	0.087254	1.088315
H127	H	1.340568	-0.449077	0.727380
H128	H	1.840568	0.050923	1.227380
H129	H	1.382831	-1.185009	0.260850
H130	H	1.882831	-0.685009	0.760850
H131	H	1.393207	-1.014082	0.250358
H132	H	1.893207	-0.514082	0.750358
C133	C	1.142197	-0.625694	1.074699
C134	C	1.642197	-0.125694	1.574699
H135	H	1.108248	-0.655925	1.036852
H136	H	1.608248	-0.155925	1.536852
H137	H	1.172040	-0.668871	1.112218
H138	H	1.672040	-0.168871	1.612218
H139	H	1.102775	-0.591022	1.111730
H140	H	1.602775	-0.091022	1.611730
H141	H	0.594727	-0.646980	0.274921
H142	H	1.094727	-0.146980	0.774921
C143	C	1.358855	-0.859300	0.284569
C144	C	1.858855	-0.359300	0.784569
H145	H	1.392822	-0.900848	0.250689
H146	H	1.892822	-0.400848	0.750689
H147	H	1.329017	-0.818574	0.244597
H148	H	1.829017	-0.318574	0.744597
H149	H	1.398261	-0.826517	0.314950
H150	H	1.898261	-0.326517	0.814950
C151	C	1.089534	-1.057202	0.553659
C152	C	1.589534	-0.557202	1.053659
H153	H	1.094484	-1.120061	0.548749
H154	H	1.594484	-0.620061	1.048749
H155	H	1.099916	-1.045734	0.613022
H156	H	1.599916	-0.545734	1.113022
H157	H	1.030675	-1.037795	0.542666
H158	H	1.530675	-0.537795	1.042666
H159	H	1.393195	-0.402193	0.862964
H160	H	1.893195	0.097807	1.362964
C161	C	1.142214	-1.198524	0.501148
C162	C	1.642214	-0.698524	1.001148
H163	H	1.147169	-1.261383	0.496235
H164	H	1.647169	-0.761383	0.996235
H165	H	1.152597	-1.187058	0.560512
H166	H	1.652597	-0.687058	1.060512
H167	H	1.083353	-1.179122	0.490159
H168	H	1.583353	-0.679122	0.990159
H169	H	0.907012	-0.609462	0.312481
H170	H	1.407012	-0.109462	0.812481
H171	H	0.594812	-0.449324	0.473221
H172	H	1.094812	0.050676	0.973221
C173	C	1.089571	-0.672584	0.939109
C174	C	1.589571	-0.172584	1.439109
H175	H	1.055626	-0.702815	0.901257
H176	H	1.555626	-0.202815	1.401257
H177	H	1.119417	-0.715763	0.976624
H178	H	1.619417	-0.215763	1.476624
H179	H	1.050145	-0.637920	0.976143
H180	H	1.550145	-0.137920	1.476143
H181	H	1.382764	-0.411452	1.035017
H182	H	1.882764	0.088548	1.535017
C183	C	1.101633	-0.661857	0.739948
C184	C	1.601633	-0.161857	1.239948
H185	H	1.114235	-0.650634	0.675717
H186	H	1.614235	-0.150634	1.175717
H187	H	1.110157	-0.724027	0.758474
H188	H	1.610157	-0.224027	1.258474
H189	H	1.040890	-0.646180	0.757993
H190	H	1.540890	-0.146180	1.257993
