data_functionalizedCrystal
_audit_creation_method	'MofGen! by Chris Wilmer'
_symmetry_space_group_name_H-M	'P1'
_symmetry_Int_Tables_number	1
_symmetry_cell_setting	triclinic
loop_
_symmetry_equiv_pos_as_xyz
  x,y,z
_cell_length_a	13.339070
_cell_length_b	10.654550
_cell_length_c	9.730223
_cell_angle_alpha	90.001139
_cell_angle_beta	89.995645
_cell_angle_gamma	100.057099
loop_
_atom_site_label
_atom_site_type_symbol
_atom_site_fract_x
_atom_site_fract_y
_atom_site_fract_z
O1	O	-1.346709	-0.631113	0.114326
O2	O	-1.051601	-0.548274	0.114320
O3	O	-1.205940	-0.409245	0.114318
O4	O	-1.192370	-0.770142	0.114328
O5	O	-1.205930	-0.409253	-0.114262
O6	O	-1.051591	-0.548282	-0.114260
O7	O	-1.346699	-0.631120	-0.114254
Zn8	Zn	-1.199143	-0.589702	-0.150549
Zn9	Zn	-1.199156	-0.589692	0.150615
O10	O	-1.192360	-0.770149	-0.114252
C11	C	-1.013808	-0.534285	0.000029
C12	C	-0.901214	-0.492575	0.000027
C13	C	-1.204938	-0.362115	0.000030
C14	C	-1.201957	-0.221665	0.000035
C15	C	-1.384491	-0.645109	0.000040
C16	C	-1.497086	-0.686819	0.000052
C17	C	-0.538696	-0.816889	0.000057
C18	C	-0.644484	-0.856082	0.000064
C19	C	-0.708671	-0.765208	0.000054
C20	C	-0.667061	-0.635136	0.000039
C21	C	-0.561263	-0.595939	0.000043
C22	C	-0.731238	-0.544258	0.000040
C23	C	-0.689628	-0.414186	0.000024
C24	C	-0.583840	-0.374996	0.000027
C25	C	-0.519653	-0.465870	0.000037
C26	C	-0.837036	-0.583455	0.000035
C27	C	-0.859603	-0.362505	0.000021
C28	C	-0.753815	-0.323313	0.000014
C29	C	-1.193361	-0.817280	0.000040
C30	C	-1.196342	-0.957730	0.000044
N31	N	-1.199142	-0.589710	-0.356085
C32	C	-1.292830	-0.172863	0.000032
C33	C	-1.290023	-0.040894	0.000042
C34	C	-1.105463	-0.006540	0.000050
C35	C	-1.108271	-0.138506	0.000050
C36	C	-1.399384	-0.192696	0.000022
C37	C	-1.396577	-0.060727	0.000031
C38	C	-1.261178	-0.687532	-0.428021
C39	C	-1.261193	-0.687513	-0.571904
C40	C	-1.137127	-0.491846	-0.571903
C41	C	-1.137118	-0.491861	-0.428022
C42	C	-1.332804	-0.800502	-0.428023
C43	C	-1.332819	-0.800484	-0.571906
N44	N	-1.199166	-0.589677	0.356151
H45	H	-0.870905	-0.689360	0.000043
H46	H	-1.029186	0.061183	0.000064
H47	H	-1.034273	-0.178234	0.000071
H48	H	-1.428784	-0.025954	0.098726
H49	H	-1.412784	-0.796651	-0.388956
H50	H	-0.549965	-0.269083	0.000030
H51	H	-0.794808	-0.797127	0.000063
H52	H	-1.086629	-0.412180	-0.630492
H53	H	-1.433311	-0.239782	-0.098674
H54	H	-1.300885	-0.884293	-0.383417
H55	H	-1.409197	-0.786796	-0.616507
H56	H	-1.307843	-0.891084	-0.610977
H57	H	-0.719921	-0.217405	0.000013
H58	H	-1.441066	-0.236123	0.095676
H59	H	-0.486426	-0.890864	0.000077
H60	H	-0.678355	-0.961986	0.000087
H61	H	-1.436721	-0.032526	-0.095626
H62	H	-0.911865	-0.288508	0.000019
H63	H	-1.086612	-0.412195	-0.369458
H64	H	-0.433510	-0.433965	0.000031
