data_functionalizedCrystal
_audit_creation_method	'MofGen! by Chris Wilmer'
_symmetry_space_group_name_H-M	'P1'
_symmetry_Int_Tables_number	1
_symmetry_cell_setting	triclinic
loop_
_symmetry_equiv_pos_as_xyz
  x,y,z
_cell_length_a	17.699083
_cell_length_b	19.288865
_cell_length_c	17.766277
_cell_angle_alpha	90.011603
_cell_angle_beta	90.003333
_cell_angle_gamma	83.209632
loop_
_atom_site_label
_atom_site_type_symbol
_atom_site_fract_x
_atom_site_fract_y
_atom_site_fract_z
O1	O	-1.003958	-0.087837	-0.062497
O2	O	-0.503958	0.412163	0.437503
O3	O	-0.783563	-0.099265	-0.062523
O4	O	-0.283563	0.400735	0.437477
O5	O	-0.900129	0.007572	-0.062495
O6	O	-0.400129	0.507572	0.437505
O7	O	-0.887392	-0.194674	-0.062526
O8	O	-0.387392	0.305326	0.437474
O9	O	-0.900108	0.007577	0.062694
O10	O	-0.400108	0.507577	0.562694
O11	O	-0.783543	-0.099260	0.062665
O12	O	-0.283543	0.400740	0.562665
O13	O	-1.003937	-0.087832	0.062691
O14	O	-0.503937	0.412168	0.562691
Cu15	Cu	-0.893738	-0.093545	0.074109
Cu16	Cu	-0.393738	0.406455	0.574109
Cu17	Cu	-0.893762	-0.093552	-0.073941
Cu18	Cu	-0.393762	0.406448	0.426059
O19	O	-0.887372	-0.194668	0.062663
O20	O	-0.387372	0.305332	0.562663
C21	C	-0.899709	0.033451	0.000102
C22	C	-0.399709	0.533451	0.500102
C23	C	-0.898478	0.110556	0.000108
C24	C	-0.398478	0.610556	0.500108
C25	C	-0.755356	-0.098853	0.000068
C26	C	-0.255356	0.401147	0.500068
C27	C	-0.671340	-0.097624	0.000059
C28	C	-0.171340	0.402376	0.500059
C29	C	-1.032144	-0.088244	0.000098
C30	C	-0.532144	0.411756	0.500098
C31	C	-1.116160	-0.089472	0.000103
C32	C	-0.616160	0.410528	0.500103
C33	C	-0.622631	-0.160335	0.000049
C34	C	-0.122631	0.339665	0.500049
C35	C	-0.543689	-0.159177	0.000059
C36	C	-0.043689	0.340823	0.500059
C37	C	-0.513458	-0.095307	0.000073
C38	C	-0.013458	0.404693	0.500073
C39	C	-0.562174	-0.032591	0.000085
C40	C	-0.062174	0.467409	0.500085
C41	C	-0.641114	-0.033750	0.000080
C42	C	-0.141114	0.466250	0.500080
C43	C	-0.243817	-0.027915	0.000104
C44	C	0.256183	0.472085	0.500104
C45	C	-0.164871	-0.026761	0.000107
C46	C	0.335129	0.473239	0.500107
C47	C	-0.146393	-0.153342	0.000083
C48	C	0.353607	0.346658	0.500083
C49	C	-0.225333	-0.154501	0.000079
C50	C	0.274667	0.345499	0.500079
C51	C	-0.274041	-0.091785	0.000094
C52	C	0.225959	0.408215	0.500094
C53	C	-0.359639	-0.093042	0.000085
C54	C	0.140361	0.406958	0.500085
C55	C	-0.427862	-0.094049	0.000077
C56	C	0.072138	0.405951	0.500077
C57	C	-0.887792	-0.220548	0.000064
C58	C	-0.387792	0.279452	0.500064
C59	C	-0.889022	-0.297653	0.000053
C60	C	-0.389022	0.202347	0.500053
N61	N	-0.893727	-0.093540	0.178239
N62	N	-0.393727	0.406460	0.678239
C63	C	-0.966874	0.155172	0.000120
C64	C	-0.466874	0.655172	0.500120
C65	C	-0.965718	0.227620	0.000108
C66	C	-0.465718	0.727620	0.500108
C67	C	-0.896163	0.255450	0.000099
C68	C	-0.396163	0.755450	0.500099
C69	C	-0.827759	0.210825	0.000083
C70	C	-0.327759	0.710825	0.500083
C71	C	-0.828916	0.138378	0.000088
C72	C	-0.328916	0.638378	0.500088
C73	C	-0.841477	0.363804	0.043944
C74	C	-0.341477	0.863804	0.543944
C75	C	-0.840323	0.436250	0.043944
C76	C	-0.340323	0.936250	0.543944
C77	C	-0.892589	0.478900	0.000082
C78	C	-0.392589	0.978900	0.500082
C79	C	-0.946024	0.449097	-0.043770
C80	C	-0.446024	0.949097	0.456230
C81	C	-0.947182	0.376650	-0.043766
C82	C	-0.447182	0.876650	0.456234
C83	C	-0.894900	0.334006	0.000094
C84	C	-0.394900	0.834006	0.500094
C85	C	-0.959736	0.602073	0.000080
C86	C	-0.459736	1.102073	0.500080
C87	C	-0.958578	0.674522	0.000063
C88	C	-0.458578	1.174522	0.500063
C89	C	-0.820616	0.657725	0.000046
C90	C	-0.320616	1.157725	0.500046
C91	C	-0.821777	0.585277	0.000055
C92	C	-0.321777	1.085277	0.500055
C93	C	-0.891339	0.557456	0.000075
C94	C	-0.391339	1.057456	0.500075
N95	N	-0.893780	-0.093551	-0.178071
N96	N	-0.393780	0.406449	0.321929
C97	C	-0.945358	-0.046256	0.217639
C98	C	-0.445358	0.453744	0.717639
C99	C	-0.945363	-0.046253	0.296441
C100	C	-0.445363	0.453747	0.796441
C101	C	-0.893743	-0.093546	0.335840
C102	C	-0.393743	0.406454	0.835840
C103	C	-0.842101	-0.140833	0.296431
C104	C	-0.342101	0.359167	0.796431
C105	C	-0.842093	-0.140831	0.217630
C106	C	-0.342093	0.359169	0.717630
C107	C	-0.883610	-0.156821	0.460667
C108	C	-0.383610	0.343179	0.960667
C109	C	-0.883623	-0.156825	0.539466
C110	C	-0.383623	0.343175	1.039466
C111	C	-0.893763	-0.093554	0.578886
C112	C	-0.393763	0.406446	1.078886
C113	C	-0.903905	-0.030277	0.539498
C114	C	-0.403905	0.469723	1.039498
C115	C	-0.903897	-0.030274	0.460697
C116	C	-0.403897	0.469726	0.960697
C117	C	-0.893745	-0.093554	0.421286
C118	C	-0.393745	0.406446	0.921286
C119	C	-0.945402	-0.046263	0.703732
C120	C	-0.445402	0.453737	1.203732
C121	C	-0.945401	-0.046258	0.782535
C122	C	-0.445401	0.453742	1.282535
C123	C	-0.842143	-0.140845	0.782524
C124	C	-0.342143	0.359155	1.282524
C125	C	-0.842140	-0.140843	0.703722
C126	C	-0.342140	0.359157	1.203722
C127	C	-0.893774	-0.093553	0.664331
C128	C	-0.393774	0.406447	1.164331
H129	H	-0.647238	-0.212346	0.000037
H130	H	-0.147238	0.287654	0.500037
F131	F	-1.033769	0.572460	0.000105
F132	F	-0.533769	1.072460	0.500105
H133	H	-0.796810	0.460509	0.079647
H134	H	-0.296810	0.960509	0.579647
H135	H	-1.014276	0.710848	0.000068
H136	H	-0.514276	1.210848	0.500068
H137	H	-0.800110	-0.179349	0.814602
H138	H	-0.300110	0.320651	1.314602
F139	F	-1.038517	0.275112	0.000119
F140	F	-0.538517	0.775112	0.500119
F141	F	-1.000353	0.004074	0.824468
F142	F	-0.500353	0.504074	1.324468
F143	F	-1.004045	0.344933	-0.090439
F144	F	-0.504045	0.844933	0.409561
H145	H	-0.504033	-0.210242	0.000051
H146	H	-0.004033	0.289758	0.500051
H147	H	-0.283467	0.023152	0.000118
H148	H	0.216533	0.523152	0.500118
F149	F	-0.753733	0.240444	0.000069
F150	F	-0.253733	0.740444	0.500069
F151	F	-0.914685	0.037068	0.418780
F152	F	-0.414685	0.537068	0.918780
H153	H	-0.800100	-0.179349	0.671640
H154	H	-0.300100	0.320651	1.171640
H155	H	-0.798914	0.329084	0.079665
H156	H	-0.298914	0.829084	0.579665
H157	H	-0.106724	-0.204407	0.000074
H158	H	0.393276	0.295593	0.500074
F159	F	-0.756117	0.090893	0.000075
F160	F	-0.256117	0.590893	0.500075
F161	F	-0.132699	0.041222	0.000122
F162	F	0.367301	0.541222	0.500122
F163	F	-1.001654	0.494482	-0.090456
F164	F	-0.501654	0.994482	0.409544
F165	F	-0.257502	-0.222480	0.000059
F166	F	0.242498	0.277520	0.500059
H167	H	-0.912161	0.021245	0.571592
H168	H	-0.412161	0.521245	1.071592
F169	F	-1.000308	0.004076	0.175717
F170	F	-0.500308	0.504076	0.675717
H171	H	-0.537553	0.019413	0.000107
H172	H	-0.037553	0.519413	0.500107
F173	F	-1.000352	0.004071	0.661808
F174	F	-0.500352	0.504071	1.161808
F175	F	-0.746590	0.687339	0.000033
F176	F	-0.246590	1.187339	0.500033
F177	F	-0.692954	0.032995	0.000093
F178	F	-0.192954	0.532995	0.500093
H179	H	-1.023517	0.132524	0.000134
H180	H	-0.523517	0.632524	0.500134
H181	H	-0.766082	0.548950	0.000050
H182	H	-0.266082	1.048950	0.500050
F183	F	-1.000320	0.004076	0.338379
F184	F	-0.500320	0.504076	0.838379
H185	H	-0.875370	-0.208349	0.571530
H186	H	-0.375370	0.291651	1.071530
H187	H	-0.875340	-0.208348	0.428578
H188	H	-0.375340	0.291652	0.928578
H189	H	-0.800070	-0.179339	0.328514
H190	H	-0.300070	0.320661	0.828514
F191	F	-0.787137	-0.191159	0.175697
F192	F	-0.287137	0.308841	0.675697
