data_functionalizedCrystal
_audit_creation_method	'MofGen! by Chris Wilmer'
_symmetry_space_group_name_H-M	'P1'
_symmetry_Int_Tables_number	1
_symmetry_cell_setting	triclinic
loop_
_symmetry_equiv_pos_as_xyz
  x,y,z
_cell_length_a	13.033293
_cell_length_b	25.639240
_cell_length_c	13.032268
_cell_angle_alpha	97.139101
_cell_angle_beta	90.920818
_cell_angle_gamma	82.788091
loop_
_atom_site_label
_atom_site_type_symbol
_atom_site_fract_x
_atom_site_fract_y
_atom_site_fract_z
Zn1	Zn	1.498324	0.162670	0.781430
Zn2	Zn	1.520003	0.237808	0.609433
Zn3	Zn	1.348187	0.159909	0.587606
Zn4	Zn	1.326235	0.259605	0.759466
O5	O	1.423187	0.204998	0.684484
O6	O	1.645125	0.164671	0.776940
O7	O	1.515471	0.217197	0.462632
O8	O	1.368217	0.087106	0.613375
O9	O	1.661053	0.219875	0.650575
O10	O	1.478522	0.089135	0.755777
O11	O	1.389238	0.159965	0.446597
O12	O	1.201349	0.181100	0.592077
O13	O	1.330804	0.257024	0.906284
O14	O	1.185221	0.254346	0.718342
O15	O	1.457236	0.185806	0.922421
O16	O	1.494185	0.313868	0.629277
O17	O	1.351825	0.329882	0.739505
C18	C	1.155967	0.219789	0.650458
C19	C	1.041646	0.226131	0.635926
C20	C	0.982785	0.201701	0.692068
C21	C	0.864628	0.208255	0.677050
C22	C	1.423000	0.340847	0.684402
C23	C	1.423010	0.398961	0.684414
C24	C	1.497391	0.750967	0.627171
C25	C	1.497421	0.805570	0.627185
O26	O	1.560530	0.826707	0.578466
N27	N	1.423267	0.841234	0.684517
C28	C	1.349084	0.822292	0.741847
O29	O	1.286013	0.857641	0.790615
C30	C	1.349059	0.767690	0.741839
C31	C	1.423212	0.732029	0.684494
C32	C	1.571539	0.715306	0.569833
C33	C	1.571507	0.660707	0.569818
C34	C	1.497328	0.641768	0.627141
C35	C	1.423180	0.677429	0.684479
C36	C	1.274882	0.748749	0.799174
C37	C	1.274864	0.694143	0.799161
C38	C	1.349017	0.658481	0.741817
C39	C	1.348970	0.603891	0.741787
N40	N	1.423124	0.568227	0.684455
C41	C	1.497303	0.587166	0.627132
C42	C	1.349143	0.936960	0.741863
C43	C	1.349162	0.991561	0.741866
C44	C	1.497501	0.974836	0.627205
C45	C	1.497476	0.920233	0.627197
C46	C	1.423297	0.901296	0.684531
C47	C	1.497230	0.472504	0.627104
C48	C	1.497189	0.417900	0.627090
C49	C	1.348855	0.434630	0.741755
C50	C	1.348892	0.489229	0.741765
C51	C	1.423088	0.508164	0.684437
O52	O	1.285896	0.582716	0.790485
O53	O	1.560371	0.551812	0.578384
C54	C	1.691451	0.190149	0.718642
C55	C	1.805769	0.183822	0.733199
C56	C	1.389153	0.224154	0.952709
C57	C	1.374650	0.232317	1.067011
C58	C	1.423363	1.068619	0.684569
C59	C	1.423346	1.010505	0.684547
C60	C	1.457148	0.185875	0.417309
C61	C	1.471850	0.177554	0.303033
C62	C	1.430740	0.200720	1.125954
C63	C	1.415752	0.209156	1.244091
H64	H	0.827551	0.234024	0.617861
H65	H	1.557905	0.990265	0.580533
N66	N	1.337440	0.253264	1.293094
H67	H	1.355700	0.288419	1.276463
H68	H	1.266344	0.247842	1.265087
N69	N	0.854868	0.149682	0.811594
H70	H	0.932315	0.149837	0.811211
H71	H	0.826834	0.164151	0.882647
N72	N	0.992542	0.260260	0.557520
H73	H	0.915095	0.260103	0.557903
H74	H	1.009209	0.297719	0.575744
N75	N	1.194856	0.673714	0.860996
H76	H	1.201452	0.687561	0.936513
H77	H	1.123461	0.686188	0.835530
N78	N	1.509075	0.156622	1.076966
H79	H	1.508690	0.156852	0.999518
H80	H	1.580146	0.162038	1.105048
N81	N	1.268861	0.414196	0.803590
H82	H	1.221887	0.445070	0.839923
H83	H	1.226601	0.391215	0.755635
H84	H	1.557574	0.388865	0.580390
N85	N	1.269113	0.916542	0.803690
H86	H	1.226780	0.893572	0.755790
H87	H	1.304870	0.894977	0.856697
H88	H	1.019867	0.175931	0.751247
N89	N	1.550165	0.133446	1.254038
H90	H	1.621291	0.138821	1.282028
H91	H	1.531814	0.098313	1.270684
N92	N	1.269167	1.030018	0.803701
H93	H	1.275750	1.024857	0.879212
H94	H	1.280471	1.067467	0.794937
H95	H	1.557650	0.487913	0.580425
H96	H	1.631891	0.631674	0.523127
H97	H	1.315526	0.265612	1.104006
N98	N	1.651554	0.735727	0.508002
H99	H	1.698514	0.704844	0.471683
H100	H	1.615782	0.757324	0.455051
H101	H	1.557858	0.891200	0.580503
H102	H	1.214494	0.777776	0.845864
N103	N	1.268906	0.527696	0.803599
H104	H	1.221907	0.507411	0.839907
H105	H	1.304705	0.551401	0.856559
