data_functionalizedCrystal
_audit_creation_method	'MofGen! by Chris Wilmer'
_symmetry_space_group_name_H-M	'P1'
_symmetry_Int_Tables_number	1
_symmetry_cell_setting	triclinic
loop_
_symmetry_equiv_pos_as_xyz
  x,y,z
_cell_length_a	16.625546
_cell_length_b	12.759395
_cell_length_c	12.759387
_cell_angle_alpha	90.018815
_cell_angle_beta	89.963284
_cell_angle_gamma	89.975995
loop_
_atom_site_label
_atom_site_type_symbol
_atom_site_fract_x
_atom_site_fract_y
_atom_site_fract_z
Zn1	Zn	-0.320917	-1.606194	-0.593970
Zn2	Zn	-0.455775	-1.606066	-0.418276
Zn3	Zn	-0.320964	-1.430498	-0.418307
Zn4	Zn	-0.455715	-1.430461	-0.593915
O5	O	-0.388343	-1.518305	-0.506117
O6	O	-0.338812	-1.753199	-0.570674
O7	O	-0.437937	-1.582739	-0.271259
O8	O	-0.208125	-1.453873	-0.441645
O9	O	-0.437891	-1.753104	-0.441592
O10	O	-0.208091	-1.582957	-0.570704
O11	O	-0.338891	-1.453749	-0.271282
O12	O	-0.338833	-1.283472	-0.441592
O13	O	-0.437789	-1.453811	-0.740944
O14	O	-0.437834	-1.283445	-0.570610
O15	O	-0.338753	-1.582921	-0.740984
O16	O	-0.568599	-1.582703	-0.441539
O17	O	-0.568555	-1.453687	-0.570580
C18	C	-0.388333	-1.245337	-0.506099
C19	C	-0.388348	-1.128561	-0.506116
C20	C	-0.597833	-1.518206	-0.506073
C21	C	-0.687454	-1.518259	-0.506090
C22	C	-0.388259	-1.518376	-0.780151
C23	C	-0.388224	-1.518407	-0.896928
C24	C	-1.015630	-1.518442	-0.506199
C25	C	-0.924322	-1.518388	-0.506171
C26	C	-0.851545	-1.518350	-0.506144
C27	C	-0.760231	-1.518297	-0.506117
C28	C	-0.178034	-1.518433	-0.506184
C29	C	-0.088412	-1.518488	-0.506213
C30	C	-0.388353	-1.792338	-0.506136
C31	C	-0.388357	-1.909115	-0.506144
C32	C	-0.491605	-1.128571	-0.640246
C33	C	-0.543239	-1.073716	-0.707314
C34	C	-0.543249	-0.963994	-0.707327
C35	C	-0.491617	-0.909126	-0.640267
C36	C	-0.439982	-0.963981	-0.573199
C37	C	-0.439980	-1.073705	-0.573191
C38	C	-0.336723	-0.963971	-0.439076
C39	C	-0.336716	-1.073692	-0.439056
C40	C	-0.285091	-0.909102	-0.372016
C41	C	-0.233459	-0.963958	-0.304942
C42	C	-0.233452	-1.073686	-0.304931
C43	C	-0.285081	-1.128548	-0.371989
C44	C	-0.285081	-1.384099	-0.896970
C45	C	-0.233493	-1.316964	-0.951852
C46	C	-0.233464	-1.316995	-1.061574
C47	C	-0.285030	-1.384167	-1.116416
C48	C	-0.336617	-1.451301	-1.061534
C49	C	-0.336639	-1.451265	-0.951810
C50	C	-0.439763	-1.585602	-1.061491
C51	C	-0.439789	-1.585578	-0.951770
C52	C	-0.491329	-1.652774	-1.116334
C53	C	-0.542913	-1.719915	-1.061451
C54	C	-0.542940	-1.719882	-0.951723
C55	C	-0.491377	-1.652713	-0.896888
C56	C	-0.388367	-1.518294	-0.233150
C57	C	-0.388176	-1.518468	-0.116374
H58	H	-0.491608	-1.217912	-0.640234
O59	O	-0.183194	-0.910707	-0.239920
C60	C	-0.102852	-0.937587	-0.263051
H61	H	-0.098858	-0.967796	-0.346986
H62	H	-0.063013	-0.865442	-0.254113
H63	H	-0.081720	-1.001255	-0.206761
H64	H	-0.191458	-1.262327	-1.106259
H65	H	-0.585290	-0.919331	-0.761944
H66	H	-0.585276	-1.118402	-0.761914
H67	H	-0.285099	-0.819761	-0.372036
O68	O	-0.183381	-1.126924	-0.239627
C69	C	-0.200889	-1.100033	-0.134878
H70	H	-0.265300	-1.069838	-0.129419
H71	H	-0.193891	-1.172168	-0.082978
H72	H	-0.157637	-1.036351	-0.107532
H73	H	-0.491623	-0.819784	-0.640292
H74	H	-0.285083	-1.217889	-0.371983
H75	H	-0.285093	-1.384075	-0.807629
H76	H	-0.285009	-1.384177	-1.205757
H77	H	-0.191512	-1.262272	-0.907188
H78	H	-0.491305	-1.652789	-1.205675
H79	H	-0.584946	-1.774555	-0.907044
O80	O	-0.592923	-1.785124	-1.114885
C81	C	-0.581856	-1.770729	-1.223496
H82	H	-0.519624	-1.736366	-1.238506
H83	H	-0.587322	-1.849429	-1.265204
H84	H	-0.629670	-1.714753	-1.254604
O85	O	-0.491551	-1.652674	-0.790305
C86	C	-0.568828	-1.625592	-0.753616
H87	H	-0.615259	-1.643529	-0.816826
H88	H	-0.583185	-1.672941	-0.680202
H89	H	-0.570529	-1.538409	-0.734152
