data_functionalizedCrystal
_audit_creation_method	'MofGen! by Chris Wilmer'
_symmetry_space_group_name_H-M	'P1'
_symmetry_Int_Tables_number	1
_symmetry_cell_setting	triclinic
loop_
_symmetry_equiv_pos_as_xyz
  x,y,z
_cell_length_a	16.959454
_cell_length_b	16.959455
_cell_length_c	16.959447
_cell_angle_alpha	90.014322
_cell_angle_beta	89.978370
_cell_angle_gamma	89.999112
loop_
_atom_site_label
_atom_site_type_symbol
_atom_site_fract_x
_atom_site_fract_y
_atom_site_fract_z
Zn1	Zn	0.314730	1.208472	0.446956
Zn2	Zn	0.446923	1.208432	0.314798
Zn3	Zn	0.314755	1.076301	0.314794
Zn4	Zn	0.446864	1.076303	0.446937
O5	O	0.380818	1.142377	0.380871
O6	O	0.332280	1.319078	0.429435
O7	O	0.429425	1.190887	0.204186
O8	O	0.204141	1.093850	0.332332
O9	O	0.429401	1.319048	0.332339
O10	O	0.204123	1.190956	0.429431
O11	O	0.332323	1.093811	0.204184
O12	O	0.332265	0.965690	0.332313
O13	O	0.429301	1.093853	0.557550
O14	O	0.429325	0.965692	0.429398
O15	O	0.332223	1.190957	0.557565
O16	O	0.557526	1.190889	0.332320
O17	O	0.557482	1.093814	0.429401
C18	C	0.380792	0.937011	0.380853
C19	C	0.380800	0.849154	0.380864
C20	C	0.174650	1.142407	0.380884
C21	C	0.086793	1.142420	0.380889
C22	C	0.330238	0.477653	0.330425
C23	C	0.431463	0.477704	0.431363
C24	C	0.431452	0.560250	0.431358
C25	C	0.380834	0.601501	0.380885
C26	C	0.330226	0.560207	0.330417
C27	C	0.482064	0.601550	0.481820
C28	C	0.482055	0.684101	0.481816
C29	C	0.431432	0.725354	0.431347
C30	C	0.380822	0.684055	0.380877
C31	C	0.330204	0.725306	0.330404
C32	C	0.279589	0.684009	0.279938
C33	C	0.279603	0.601460	0.279947
C34	C	0.431418	0.807903	0.431337
C35	C	0.330193	0.807860	0.330396
C36	C	-0.284666	1.192978	0.330356
C37	C	-0.284699	1.091893	0.431448
C38	C	-0.202153	1.091890	0.431447
C39	C	-0.160860	1.142430	0.380899
C40	C	-0.202113	1.192975	0.330352
C41	C	-0.160894	1.041341	0.481987
C42	C	-0.078343	1.041335	0.481988
C43	C	-0.037048	1.091880	0.431443
C44	C	-0.078306	1.142427	0.380895
C45	C	-0.037013	1.192967	0.330346
C46	C	-0.078270	1.243519	0.279801
C47	C	-0.160818	1.243520	0.279807
C48	C	0.045500	1.091879	0.431437
C49	C	0.045540	1.192964	0.330342
C50	C	0.586184	1.142369	0.380876
C51	C	0.674041	1.142437	0.380905
C52	C	0.380753	1.142410	0.587040
C53	C	0.380725	1.142424	0.674896
C54	C	0.380845	1.348545	0.380890
C55	C	0.380856	1.436402	0.380898
C56	C	0.380826	1.142390	0.175505
C57	C	0.380631	1.142529	0.087649
C58	C	0.431185	1.091960	1.046367
C59	C	0.330097	1.193076	1.046377
C60	C	0.330114	1.193055	0.963831
C61	C	0.380668	1.142487	0.922549
C62	C	0.431205	1.091940	0.963813
C63	C	0.279584	1.243607	0.922561
C64	C	0.279599	1.243589	0.840010
C65	C	0.330149	1.193016	0.798727
C66	C	0.380688	1.142466	0.839996
C67	C	0.431242	1.091898	0.798714
C68	C	0.481777	1.041343	0.839981
C69	C	0.481756	1.041367	0.922530
C70	C	0.330171	1.192992	0.716178
C71	C	0.431262	1.091877	0.716160
H72	H	0.288968	0.841441	0.289299
O73	O	0.085750	1.241964	0.281224
C74	C	0.133515	1.196974	0.230146
H75	H	0.145858	1.137062	0.257992
H76	H	0.191574	1.229168	0.219589
H77	H	0.101740	1.188312	0.171555
H78	H	0.238397	0.567828	0.238859
H79	H	-0.044759	1.000172	0.523144
H80	H	-0.194517	1.000188	0.523138
H81	H	-0.318322	1.050740	0.472599
H82	H	0.288943	1.234251	1.079994
H83	H	0.472630	0.841524	0.472423
O84	O	-0.038123	1.292704	0.230817
C85	C	0.009629	1.343740	0.275829
H86	H	-0.015269	1.348624	0.338086
H87	H	0.010579	1.404570	0.247257
H88	H	0.072189	1.319296	0.278544
H89	H	0.472422	1.050690	0.682554
H90	H	0.238450	1.284753	0.806417
O91	O	0.480248	1.042929	1.086571
C92	C	0.469377	1.053769	1.168284
H93	H	0.443496	1.114775	1.179567
H94	H	0.528575	1.048403	1.199649
H95	H	0.427271	1.006895	1.191711
H96	H	0.238430	1.284782	0.956179
O97	O	0.280976	1.242011	0.676126
C98	C	0.202189	1.224774	0.696324
H99	H	0.198178	1.161635	0.719020
H100	H	0.163152	1.231576	0.642042
H101	H	0.181526	1.267171	0.744242
O102	O	0.530924	0.992336	0.799785
C103	C	0.582002	1.037333	0.752050
H104	H	0.554132	1.097237	0.739704
H105	H	0.592600	1.005135	0.693991
H106	H	0.640574	1.046010	0.783853
H107	H	0.522901	1.000210	0.956137
H108	H	0.238379	0.717606	0.238839
H109	H	-0.194414	1.284676	0.238655
O110	O	-0.324652	1.242039	0.281147
C111	C	-0.304471	1.224735	0.202364
H112	H	-0.244536	1.194344	0.200721
H113	H	-0.301632	1.281774	0.166924
H114	H	-0.350925	1.184095	0.175742
O115	O	0.085664	1.042890	0.480568
C116	C	0.133381	1.087897	0.531639
H117	H	0.145756	1.147796	0.503771
H118	H	0.191427	1.055702	0.542224
H119	H	0.101547	1.096586	0.590218
O120	O	0.281186	0.437506	0.281320
C121	C	0.326125	0.389725	0.230213
H122	H	0.388372	0.414602	0.225225
H123	H	0.297460	0.388764	0.169430
H124	H	0.328883	0.327171	0.254655
O125	O	0.480515	0.437595	0.480473
C126	C	0.435577	0.389841	0.531580
H127	H	0.373327	0.414716	0.536559
H128	H	0.464236	0.388919	0.592366
H129	H	0.432829	0.327273	0.507144
O130	O	0.531114	0.561438	0.530929
C131	C	0.486170	0.513691	0.582039
H132	H	0.423924	0.538576	0.587021
H133	H	0.514831	0.512767	0.642824
H134	H	0.483412	0.451123	0.557605
H135	H	0.523268	0.717719	0.522909
