data_functionalizedCrystal
_audit_creation_method	'MofGen! by Chris Wilmer'
_symmetry_space_group_name_H-M	'P1'
_symmetry_Int_Tables_number	1
_symmetry_cell_setting	triclinic
loop_
_symmetry_equiv_pos_as_xyz
  x,y,z
_cell_length_a	27.732048
_cell_length_b	15.944551
_cell_length_c	26.809956
_cell_angle_alpha	90.003135
_cell_angle_beta	90.024436
_cell_angle_gamma	96.929303
loop_
_atom_site_label
_atom_site_type_symbol
_atom_site_fract_x
_atom_site_fract_y
_atom_site_fract_z
O1	O	0.062351	-1.113703	0.041433
O2	O	0.070037	-0.869053	0.041446
O3	O	-0.004170	-0.998976	0.041430
O4	O	0.136558	-0.983779	0.041450
O5	O	-0.004194	-0.998977	-0.041529
O6	O	0.070013	-0.869054	-0.041513
O7	O	0.062327	-1.113704	-0.041526
Zn8	Zn	0.066167	-0.991379	-0.054691
Zn9	Zn	0.066198	-0.991378	0.054611
O10	O	0.136534	-0.983780	-0.041510
C11	C	-0.022190	-0.998658	-0.000051
C12	C	-0.075849	-0.997697	-0.000055
C13	C	0.069706	-0.837763	-0.000032
C14	C	0.068749	-0.744530	-0.000027
C15	C	0.062658	-1.144993	-0.000047
C16	C	0.063615	-1.238227	-0.000048
C17	C	-0.414358	-1.068426	-0.000033
C18	C	-0.616033	-1.064862	-0.000026
O19	O	-0.647008	-1.129539	-0.000008
N20	N	-0.635490	-0.987823	-0.000023
C21	C	-0.604525	-0.911669	-0.000017
O22	O	-0.625703	-0.846061	-0.000009
C23	C	-0.402851	-0.915234	-0.000021
C24	C	-0.383397	-0.992278	-0.000030
C25	C	-0.394903	-1.145464	-0.000042
C26	C	-0.344487	-1.146354	-0.000046
C27	C	-0.313526	-1.070206	-0.000042
C28	C	-0.332981	-0.993168	-0.000034
C29	C	-0.371887	-0.839081	-0.000012
C30	C	-0.321466	-0.839979	-0.000012
C31	C	-0.302012	-0.917024	-0.000021
C32	C	-0.251604	-0.917911	-0.000035
N33	N	-0.232147	-0.994950	-0.000039
C34	C	-0.263108	-1.071098	-0.000042
C35	C	-0.710408	-0.909803	-0.000017
C36	C	-0.760826	-0.908912	-0.000017
C37	C	-0.772330	-1.062105	-0.000024
C38	C	-0.721911	-1.062995	-0.000028
C39	C	-0.690950	-0.986842	-0.000020
C40	C	-0.157231	-1.072961	-0.000052
C41	C	-0.106810	-1.073845	-0.000059
C42	C	-0.095310	-0.920652	-0.000048
C43	C	-0.145727	-0.919768	-0.000044
C44	C	-0.176686	-0.995930	-0.000045
O45	O	-0.220600	-0.853269	-0.000048
O46	O	-0.241921	-1.136697	-0.000040
C47	C	-0.464774	-1.067536	-0.000029
C48	C	-0.484228	-0.990498	-0.000021
C49	C	-0.453268	-0.914350	-0.000017
C50	C	-0.534647	-0.989607	-0.000021
C51	C	-0.565608	-1.065754	-0.000024
C52	C	-0.546150	-1.142794	-0.000028
C53	C	-0.495734	-1.143684	-0.000033
C54	C	-0.472725	-0.837311	-0.000013
C55	C	-0.523141	-0.836427	-0.000010
C56	C	-0.554102	-0.912575	-0.000013
C57	C	0.154554	-0.984099	-0.000028
C58	C	0.208213	-0.985059	-0.000020
N59	N	0.066216	-0.991377	0.129207
C60	C	0.020466	-0.530305	-0.000044
C61	C	0.042899	-0.468991	0.040863
C62	C	0.067019	-0.573827	-0.000033
C63	C	0.042887	-0.469014	-0.040929
C64	C	0.065344	-0.408936	-0.000042
C65	C	0.089465	-0.513741	0.040907
C66	C	0.089446	-0.513770	-0.040921
C67	C	0.111912	-0.452474	-0.000005
C68	C	0.067983	-0.668816	-0.000028
C69	C	0.064384	-0.313947	-0.000043
N70	N	0.066145	-0.991386	-0.129287
C71	C	0.036775	-0.940939	0.473832
C72	C	0.036758	-0.940941	0.682709
O73	O	0.011740	-0.898065	0.709712
N74	N	0.066155	-0.991388	0.708834
C75	C	0.095555	-1.041842	0.682737
O76	O	0.120554	-1.084757	0.709750
C77	C	0.095569	-1.041845	0.473860
C78	C	0.066174	-0.991388	0.447738
C79	C	0.007382	-0.890487	0.447709
C80	C	0.007388	-0.890484	0.395493
C81	C	0.036788	-0.940932	0.369399
C82	C	0.066180	-0.991384	0.395521
C83	C	0.124966	-1.092303	0.447763
C84	C	0.124966	-1.092301	0.395541
C85	C	0.095571	-1.041844	0.369419
C86	C	0.095586	-1.041830	0.317211
N87	N	0.066189	-0.991383	0.291086
C88	C	0.036790	-0.940934	0.317180
C89	C	0.095547	-1.041836	0.792400
C90	C	0.095544	-1.041835	0.844619
C91	C	0.036746	-0.940934	0.844588
C92	C	0.036752	-0.940932	0.792368
C93	C	0.066150	-0.991389	0.766275
C94	C	0.036806	-0.940930	0.207522
C95	C	0.036817	-0.940928	0.155301
C96	C	0.095612	-1.041832	0.155337
C97	C	0.095604	-1.041831	0.207553
C98	C	0.066197	-0.991377	0.233644
O99	O	0.120586	-1.084691	0.290176
O100	O	0.011787	-0.898039	0.290157
C101	C	0.036768	-0.940942	0.526048
C102	C	0.066161	-0.991394	0.552170
C103	C	0.095560	-1.041843	0.526076
C104	C	0.066158	-0.991393	0.604389
C105	C	0.036759	-0.940944	0.630483
C106	C	0.007363	-0.890497	0.604358
C107	C	0.007369	-0.890494	0.552142
C108	C	0.124957	-1.092290	0.552201
C109	C	0.124948	-1.092289	0.604418
C110	C	0.095549	-1.041840	0.630512
H111	H	-0.090973	-1.136586	-0.000067
H112	H	0.150587	-0.418809	0.000023
C113	C	0.116054	-0.540393	0.087681
N114	N	0.136079	-0.560470	0.122912
C115	C	0.157286	-1.147801	0.633146
N116	N	0.181639	-1.189618	0.654783
C117	C	0.116008	-0.540629	-0.087637
N118	N	0.136011	-0.560862	-0.122828
C119	C	-0.438674	-0.753537	-0.000009
N120	N	-0.413029	-0.690433	-0.000007
C121	C	0.016262	-0.442229	-0.087648
N122	N	-0.003794	-0.422058	-0.122836
C123	C	0.004479	-0.885420	0.126570
N124	N	-0.019878	-0.843613	0.104931
C125	C	0.004460	-0.885423	0.236215
N126	N	-0.019900	-0.843611	0.257826
H127	H	0.119488	-1.082927	0.771160
C128	C	-0.024950	-0.834980	0.366765
N129	N	-0.049311	-0.793173	0.345131
H130	H	0.148901	-1.133392	0.469023
C131	C	0.016312	-0.442163	0.087574
N132	N	-0.003717	-0.421958	0.122755
C133	C	-0.024960	-0.834980	0.476404
N134	N	-0.049319	-0.793163	0.498014
H135	H	0.012810	-0.899854	0.865843
H136	H	0.012816	-0.899845	0.771103
C137	C	-0.782220	-0.824157	-0.000013
N138	N	-0.798331	-0.760317	-0.000007
H139	H	-0.016567	-0.849406	0.530878
C140	C	0.127884	-1.097335	0.873348
N141	N	0.152241	-1.139144	0.894984
H142	H	0.148905	-1.133392	0.374299
C143	C	0.127942	-1.097330	0.236288
N144	N	0.152297	-1.139139	0.257928
H145	H	0.119549	-1.082904	0.134082
C146	C	-0.676357	-0.826023	-0.000008
N147	N	-0.650711	-0.762918	-0.000004
H148	H	-0.706075	-1.125732	-0.000035
C149	C	-0.025010	-0.835062	0.633072
N150	N	-0.049405	-0.793336	0.654701
H151	H	0.148897	-1.133374	0.530961
H152	H	-0.182432	-1.134979	-0.000051
H153	H	-0.479900	-1.206421	-0.000040
C154	C	-0.323094	-1.231110	-0.000050
N155	N	-0.306985	-1.294952	-0.000052
H156	H	-0.387718	-0.776344	-0.000002
H157	H	-0.797547	-1.124107	-0.000028
C158	C	-0.428953	-1.229240	-0.000051
N159	N	-0.454596	-1.292346	-0.000063
C160	C	-0.031735	-0.575987	0.000003
N161	N	-0.071052	-0.610396	0.000041
H162	H	-0.296260	-0.777965	-0.000005
H163	H	-0.161567	-0.857033	-0.000051
H164	H	-0.070093	-0.858655	-0.000047
H165	H	-0.571368	-1.204796	-0.000033
H166	H	-0.538976	-0.773684	-0.000007
