data_functionalizedCrystal
_audit_creation_method	'MofGen! by Chris Wilmer'
_symmetry_space_group_name_H-M	'P1'
_symmetry_Int_Tables_number	1
_symmetry_cell_setting	triclinic
loop_
_symmetry_equiv_pos_as_xyz
  x,y,z
_cell_length_a	27.732048
_cell_length_b	27.732048
_cell_length_c	26.809956
_cell_angle_alpha	90.000636
_cell_angle_beta	89.996742
_cell_angle_gamma	97.357345
loop_
_atom_site_label
_atom_site_type_symbol
_atom_site_fract_x
_atom_site_fract_y
_atom_site_fract_z
O1	O	0.640931	-0.057510	-0.041421
O2	O	0.500138	-0.066256	-0.041436
O3	O	0.574907	0.008514	-0.041419
O4	O	0.566162	-0.132280	-0.041439
O5	O	0.574893	0.008502	0.041541
O6	O	0.500123	-0.066267	0.041523
O7	O	0.640917	-0.057522	0.041539
Zn8	Zn	0.570518	-0.061896	0.054702
Zn9	Zn	0.570536	-0.061881	-0.054600
O10	O	0.566147	-0.132291	0.041521
C11	C	0.482124	-0.066078	0.000041
C12	C	0.428469	-0.065525	0.000036
C13	C	0.089654	-0.106229	0.000051
C14	C	-0.112006	-0.104178	0.000056
O15	O	-0.143262	-0.141398	0.000073
N16	N	-0.131130	-0.059843	0.000062
C17	C	-0.099835	-0.016017	0.000069
O18	O	-0.120728	0.021740	0.000079
C19	C	0.101824	-0.018068	0.000068
C20	C	0.120944	-0.062407	0.000057
C21	C	0.108775	-0.150563	0.000042
C22	C	0.159187	-0.151076	0.000038
C23	C	0.190477	-0.107253	0.000044
C24	C	0.171356	-0.062919	0.000054
C25	C	0.133117	0.025757	0.000079
C26	C	0.183535	0.025240	0.000080
C27	C	0.202655	-0.019098	0.000069
C28	C	0.253059	-0.019609	0.000056
N29	N	0.272183	-0.063944	0.000050
C30	C	0.240892	-0.107766	0.000044
C31	C	-0.205709	-0.014943	0.000069
C32	C	-0.256124	-0.014430	0.000068
C33	C	-0.268291	-0.102591	0.000056
C34	C	-0.217876	-0.103104	0.000053
C35	C	-0.186585	-0.059278	0.000063
C36	C	0.346761	-0.108839	0.000036
C37	C	0.397178	-0.109347	0.000030
C38	C	0.409341	-0.021186	0.000044
C39	C	0.358929	-0.020678	0.000048
C40	C	0.327639	-0.064508	0.000045
O41	O	0.284343	0.017592	0.000045
O42	O	0.261794	-0.145518	0.000045
C43	C	0.039242	-0.105716	0.000055
C44	C	0.020120	-0.061382	0.000065
C45	C	0.051411	-0.017560	0.000071
C46	C	-0.030294	-0.060869	0.000065
C47	C	-0.061585	-0.104691	0.000059
C48	C	-0.042461	-0.149026	0.000053
C49	C	0.007951	-0.149539	0.000049
C50	C	0.032287	0.026775	0.000077
C51	C	-0.018125	0.027284	0.000080
C52	C	-0.049416	-0.016538	0.000074
C53	C	0.574716	0.026515	0.000062
C54	C	0.574164	0.080170	0.000066
C55	C	0.658931	-0.057699	0.000060
C56	C	0.712586	-0.058252	0.000062
C57	C	0.566338	-0.150292	0.000039
C58	C	0.566891	-0.203947	0.000031
N59	N	0.570509	-0.061906	0.129298
C60	C	0.614867	0.418985	0.000045
C61	C	0.612816	0.620645	0.000038
O62	O	0.650037	0.651900	0.000021
N63	N	0.568481	0.639768	0.000034
C64	C	0.524656	0.608474	0.000028
O65	O	0.486899	0.629367	0.000019
C66	C	0.526707	0.406815	0.000031
C67	C	0.571045	0.387694	0.000041
C68	C	0.659202	0.399864	0.000054
C69	C	0.659714	0.349452	0.000059
C70	C	0.615892	0.318161	0.000054
C71	C	0.571557	0.337282	0.000045
C72	C	0.482882	0.375521	0.000022
C73	C	0.483399	0.325104	0.000021
C74	C	0.527737	0.305983	0.000031
C75	C	0.528247	0.255580	0.000045
N76	N	0.572583	0.236456	0.000050
C77	C	0.616405	0.267747	0.000054
C78	C	0.523582	0.714348	0.000027
C79	C	0.523069	0.764762	0.000027
C80	C	0.611230	0.776930	0.000036
C81	C	0.611742	0.726514	0.000040
C82	C	0.567917	0.695224	0.000031
C83	C	0.617477	0.161878	0.000064
C84	C	0.617986	0.111461	0.000071
C85	C	0.529825	0.099298	0.000059
C86	C	0.529316	0.149710	0.000055
C87	C	0.573147	0.180999	0.000056
O88	O	0.491047	0.224296	0.000057
O89	O	0.654156	0.246844	0.000053
C90	C	0.614355	0.469397	0.000041
C91	C	0.570021	0.488518	0.000032
C92	C	0.526198	0.457228	0.000027
C93	C	0.569508	0.538933	0.000032
C94	C	0.613330	0.570223	0.000036
C95	C	0.657665	0.551100	0.000041
C96	C	0.658177	0.500688	0.000045
C97	C	0.481863	0.476351	0.000023
C98	C	0.481355	0.526764	0.000019
C99	C	0.525177	0.558054	0.000023
N100	N	0.570549	-0.061867	-0.129196
C101	C	0.603640	-0.028781	0.473932
C102	C	0.603652	-0.028774	0.682810
O103	O	0.631801	-0.000613	0.709820
N104	N	0.570539	-0.061870	0.708925
C105	C	0.537419	-0.094969	0.682818
O106	O	0.509252	-0.123116	0.709824
C107	C	0.537406	-0.094974	0.473941
C108	C	0.570524	-0.061878	0.447829
C109	C	0.636755	0.004312	0.447819
C110	C	0.636754	0.004308	0.395603
C111	C	0.603637	-0.028789	0.369500
C112	C	0.570522	-0.061882	0.395612
C113	C	0.504284	-0.128070	0.447835
C114	C	0.504283	-0.128067	0.395613
C115	C	0.537401	-0.094972	0.369500
C116	C	0.537405	-0.094983	0.317293
N117	N	0.570517	-0.061887	0.291177
C118	C	0.603633	-0.028790	0.317281
C119	C	0.537429	-0.094965	0.792481
C120	C	0.537433	-0.094964	0.844700
C121	C	0.603665	-0.028768	0.844689
C122	C	0.603663	-0.028772	0.792469
C123	C	0.570542	-0.061868	0.766366
C124	C	0.603628	-0.028801	0.207623
C125	C	0.603625	-0.028809	0.155402
C126	C	0.537392	-0.095003	0.155418
C127	C	0.537396	-0.094997	0.207635
C128	C	0.570516	-0.061892	0.233735
O129	O	0.509266	-0.123126	0.290250
O130	O	0.631789	-0.000640	0.290266
C131	C	0.603642	-0.028777	0.526149
C132	C	0.570527	-0.061870	0.552261
C133	C	0.537410	-0.094968	0.526158
C134	C	0.570531	-0.061870	0.604480
C135	C	0.603647	-0.028773	0.630584
C136	C	0.636759	0.004324	0.604468
C137	C	0.636758	0.004320	0.552252
C138	C	0.504298	-0.128064	0.552273
C139	C	0.504303	-0.128058	0.604489
C140	C	0.537419	-0.094961	0.630593
H141	H	-0.293777	-0.138273	0.000051
O142	O	-0.199362	-0.146204	-0.000020
C143	C	-0.215372	-0.172881	-0.042997
H144	H	-0.250241	-0.159967	-0.057321
H145	H	-0.222671	-0.213190	-0.033340
H146	H	-0.186150	-0.167059	-0.073080
O147	O	0.668861	0.036523	0.629854
C148	C	0.643193	0.066154	0.660069
H149	H	0.605081	0.066706	0.644330
H150	H	0.663200	0.104714	0.660666
H151	H	0.640542	0.051005	0.699643
H152	H	0.510433	-0.121951	0.228896
O153	O	0.505241	-0.127104	0.129979
C154	C	0.512351	-0.120012	0.078291
H155	H	0.530712	-0.081457	0.071162
H156	H	0.475706	-0.125635	0.058446
H157	H	0.536384	-0.147209	0.063468
H158	H	0.083302	-0.186251	0.000038
O159	O	0.487302	0.068828	0.000032
C160	C	0.497268	0.020233	0.000047
H161	H	0.535226	0.018582	-0.015650
H162	H	0.469321	-0.002817	-0.024044
H163	H	0.495315	0.005638	0.039847
H164	H	0.412743	-0.145454	0.000021
H165	H	0.663725	0.031269	0.530995
O166	O	-0.274614	0.028683	0.000094
C167	C	-0.236179	0.067248	0.000088
H168	H	-0.202029	0.053953	0.015792
H169	H	-0.246487	0.098223	0.024179
H170	H	-0.228943	0.080752	-0.039709
O171	O	0.472083	-0.160228	0.629775
C172	C	0.442863	-0.189446	0.595531
H173	H	0.442473	-0.169631	0.558307
H174	H	0.404204	-0.197082	0.610617
H175	H	0.458284	-0.225250	0.589979
H176	H	0.321291	-0.144530	0.000035
O177	O	0.472084	-0.160153	0.526897
C178	C	0.442460	-0.134482	0.496679
H179	H	0.441925	-0.096363	0.512408
H180	H	0.403895	-0.154475	0.496094
H181	H	0.457605	-0.131850	0.457101
O182	O	0.177676	-0.194189	0.000056
C183	C	0.139240	-0.232752	0.000040
H184	H	0.105088	-0.219458	0.015746
H185	H	0.149542	-0.263732	0.024125
H186	H	0.132009	-0.246248	-0.039760
H187	H	0.646911	0.802415	0.000040
H188	H	0.477310	-0.155018	0.374362
H189	H	-0.180236	0.020747	0.000077
O190	O	0.635724	0.003350	0.129959
C191	C	0.628587	-0.003710	0.078271
H192	H	0.610310	-0.042291	0.071119
H193	H	0.665214	0.002019	0.058392
H194	H	0.604468	0.023433	0.063505
O195	O	0.340432	0.022434	0.000073
C196	C	0.378864	0.061002	0.000060
H197	H	0.413017	0.047711	0.015760
H198	H	0.368556	0.091977	0.024151
H199	H	0.386094	0.074504	-0.039739
O200	O	0.654854	0.708023	0.000022
C201	C	0.693419	0.746458	0.000040
H202	H	0.680129	0.780610	-0.015665
H203	H	0.724402	0.736153	-0.024043
H204	H	0.706912	0.753689	0.039841
H205	H	0.654093	0.095896	0.000080
O206	O	0.440794	0.294758	-0.000053
C207	C	0.413869	0.303367	-0.043030
H208	H	0.426036	0.341700	-0.057355
H209	H	0.373524	0.299528	-0.033375
H210	H	0.420273	0.275834	-0.073113
O211	O	0.635767	0.003432	0.870073
C212	C	0.610098	0.033062	0.900290
H213	H	0.571984	0.033610	0.884553
H214	H	0.630102	0.071622	0.900885
H215	H	0.607450	0.017913	0.939864
O216	O	0.480029	0.783390	-0.000044
C217	C	0.477095	0.812176	-0.043017
H218	H	0.515291	0.825017	-0.057335
H219	H	0.458071	0.845050	-0.033359
H220	H	0.455549	0.789741	-0.073106
O221	O	0.114632	0.068870	0.000116
C222	C	0.153070	0.107432	0.000113
H223	H	0.187219	0.094131	0.015811
H224	H	0.142766	0.138404	0.024210
H225	H	0.160305	0.120942	-0.039682
O226	O	0.472065	-0.160237	0.473115
C227	C	0.442846	-0.189450	0.438868
H228	H	0.442456	-0.169631	0.401646
H229	H	0.404187	-0.197089	0.453953
H230	H	0.458268	-0.225254	0.433311
O231	O	0.481039	0.683906	0.000088
C232	C	0.478682	0.654388	0.043059
H233	H	0.517027	0.652113	0.057387
H234	H	0.460382	0.616363	0.033395
H235	H	0.456730	0.670818	0.073143
O236	O	0.439841	0.394143	-0.000059
C237	C	0.436909	0.422926	-0.043035
H238	H	0.475107	0.435771	-0.057348
H239	H	0.417880	0.455797	-0.033382
H240	H	0.415370	0.400487	-0.073126
H241	H	0.209009	0.060929	0.000089
H242	H	0.694282	0.485125	0.000053
O243	O	0.439248	0.446028	0.000044
C244	C	0.400012	0.473724	0.000026
H245	H	0.412573	0.511446	0.015727
H246	H	0.369326	0.454909	0.024112
H247	H	0.386407	0.477212	-0.039775
H248	H	0.023514	-0.185643	0.000042
O249	O	-0.072911	-0.191564	-0.000019
C250	C	-0.102428	-0.193902	-0.042989
H251	H	-0.104690	-0.155552	-0.057309
H252	H	-0.140457	-0.212193	-0.033325
H253	H	-0.086005	-0.215853	-0.073078
H254	H	0.434827	0.014492	0.000047
O255	O	0.505200	-0.127069	0.870041
C256	C	0.457411	-0.119546	0.857273
H257	H	0.457468	-0.080844	0.842921
H258	H	0.433110	-0.125274	0.891615
H259	H	0.443012	-0.146435	0.826961
O260	O	-0.036615	0.070400	0.000111
C261	C	0.001820	0.108965	0.000105
H262	H	0.035971	0.095669	0.015802
H263	H	-0.008486	0.139938	0.024200
H264	H	0.009052	0.122473	-0.039692
H265	H	0.057760	0.062462	0.000083
O266	O	0.660097	0.192199	0.000089
C267	C	0.699333	0.164502	0.000086
H268	H	0.686766	0.126783	0.015792
H269	H	0.730011	0.183320	0.024176
H270	H	0.712949	0.161007	-0.039711
O271	O	0.702827	0.330962	0.000042
C272	C	0.741390	0.369399	0.000057
H273	H	0.728098	0.403549	-0.015651
H274	H	0.772373	0.359094	-0.024026
H275	H	0.754883	0.376634	0.039858
O276	O	0.701743	0.430305	0.000126
C277	C	0.704085	0.459820	0.043099
H278	H	0.665735	0.462097	0.057416
H279	H	0.722390	0.497845	0.033440
H280	H	0.726025	0.443388	0.073188
O281	O	0.486205	0.168206	0.000025
C282	C	0.447637	0.129775	0.000037
H283	H	0.460930	0.095619	-0.015658
H284	H	0.416665	0.140080	-0.024058
H285	H	0.434128	0.122549	0.039835
O286	O	0.700222	0.581520	-0.000044
C287	C	0.702557	0.611050	-0.043006
H288	H	0.677703	0.592398	-0.073036
H289	H	0.741539	0.617009	-0.057426
H290	H	0.690319	0.647622	-0.033296
H291	H	0.510457	-0.121917	0.771232
O292	O	0.438311	0.545391	-0.000057
C293	C	0.435380	0.574172	-0.043034
H294	H	0.473578	0.587012	-0.057350
H295	H	0.416356	0.607047	-0.033382
H296	H	0.413837	0.551734	-0.073123
H297	H	0.630597	-0.001843	0.228868
O298	O	0.668939	0.036508	0.370318
C299	C	0.698172	0.065710	0.404564
H300	H	0.678356	0.066113	0.441789
H301	H	0.705833	0.104367	0.389482
H302	H	0.733962	0.050263	0.410115
O303	O	0.668948	0.036398	0.473227
C304	C	0.698586	0.010716	0.503416
H305	H	0.679049	-0.027240	0.511249
H306	H	0.706396	0.030950	0.540132
H307	H	0.734279	0.007672	0.483280
H308	H	0.630630	-0.001822	0.771211
