data_functionalizedCrystal
_audit_creation_method	'MofGen! by Chris Wilmer'
_symmetry_space_group_name_H-M	'P1'
_symmetry_Int_Tables_number	1
_symmetry_cell_setting	triclinic
loop_
_symmetry_equiv_pos_as_xyz
  x,y,z
_cell_length_a	10.685940
_cell_length_b	10.685741
_cell_length_c	10.686551
_cell_angle_alpha	89.636396
_cell_angle_beta	81.599029
_cell_angle_gamma	90.339759
loop_
_atom_site_label
_atom_site_type_symbol
_atom_site_fract_x
_atom_site_fract_y
_atom_site_fract_z
Zn1	Zn	2.019013	-0.279032	-0.889673
Zn2	Zn	2.519013	0.220968	-0.389673
Zn3	Zn	2.021386	-0.504739	-0.696183
Zn4	Zn	2.521386	-0.004739	-0.196183
Zn5	Zn	1.793331	-0.313733	-0.664051
Zn6	Zn	2.293331	0.186267	-0.164051
Zn7	Zn	1.825502	-0.504639	-0.892108
Zn8	Zn	2.325502	-0.004639	-0.392108
O9	O	1.914808	-0.400536	-0.785504
O10	O	2.414808	0.099464	-0.285504
O11	O	2.195755	-0.294491	-0.876435
O12	O	2.695755	0.205509	-0.376435
O13	O	1.978663	-0.493966	-0.515501
O14	O	2.478663	0.006034	-0.015501
O15	O	1.808812	-0.134776	-0.679514
O16	O	2.308812	0.365224	-0.179514
O17	O	2.197498	-0.460317	-0.734278
O18	O	2.697498	0.039683	-0.234278
O19	O	1.974620	-0.109281	-0.845277
O20	O	2.474620	0.390719	-0.345277
O21	O	1.811112	-0.353635	-0.491894
O22	O	2.311112	0.146365	0.008106
O23	O	1.621172	-0.353538	-0.681875
O24	O	2.121172	0.146462	-0.181875
O25	O	1.863642	-0.460148	-1.068204
O26	O	2.363642	0.039852	-0.568204
O27	O	1.644808	-0.493796	-0.849427
O28	O	2.144808	0.006204	-0.349427
O29	O	2.005814	-0.294395	-1.066415
O30	O	2.505814	0.205605	-0.566415
O31	O	2.009858	-0.679079	-0.736639
O32	O	2.509858	-0.179079	-0.236639
O33	O	1.865943	-0.679006	-0.880585
O34	O	2.365943	-0.179006	-0.380585
C35	C	1.587244	-0.427423	-0.762429
C36	C	2.087244	0.072577	-0.262429
C37	C	1.447116	-0.438953	-0.752590
C38	C	1.947116	0.061047	-0.252590
C39	C	1.941685	-0.724246	-0.812393
C40	C	2.441685	-0.224246	-0.312393
C41	C	1.953301	-0.862718	-0.823946
C42	C	2.453301	-0.362718	-0.323946
C43	C	1.938052	-0.373389	-1.114332
C44	C	2.438052	0.126611	-0.614332
C45	C	1.947958	-0.361821	-1.254460
C46	C	2.447958	0.138179	-0.754460
C47	C	2.243651	-0.373544	-0.808669
C48	C	2.743651	0.126456	-0.308669
C49	C	2.383784	-0.362042	-0.818541
C50	C	2.883784	0.137958	-0.318541
C51	C	1.887863	-0.075557	-0.758540
C52	C	2.387863	0.424443	-0.258540
C53	C	1.876380	0.062930	-0.747049
C54	C	2.376380	0.562930	-0.247049
C55	C	1.891719	-0.427481	-0.457952
C56	C	2.391719	0.072519	0.042048
C57	C	1.882029	-0.438678	-0.317813
C58	C	2.382029	0.061322	0.182187
H59	H	2.436765	-0.287372	-0.882527
H60	H	2.936765	0.212628	-0.382527
C61	C	2.054141	0.080152	-0.924763
C62	C	2.554141	0.580152	-0.424763
N63	N	2.130094	0.037113	-1.000701
N64	N	2.630094	0.537113	-0.500701
C65	C	2.034455	-0.260962	-1.326012
C66	C	2.534455	0.239038	-0.826012
N67	N	2.099600	-0.184994	-1.379905
N68	N	2.599600	0.315006	-0.879905
C69	C	1.795532	-0.539528	-1.246266
C70	C	2.295532	-0.039528	-0.746266
N71	N	1.730379	-0.615488	-1.192368
N72	N	2.230379	-0.115488	-0.692368
C73	C	2.375536	-0.539830	-0.666132
C74	C	2.875536	-0.039830	-0.166132
N75	N	2.321621	-0.615810	-0.601013
N76	N	2.821621	-0.115810	-0.101013
C77	C	1.775535	0.120065	-0.646228
C78	C	2.275535	0.620065	-0.146228
N79	N	1.699578	0.163101	-0.570292
N80	N	2.199578	0.663101	-0.070292
