data_functionalizedCrystal
_audit_creation_method	'MofGen! by Chris Wilmer'
_symmetry_space_group_name_H-M	'P1'
_symmetry_Int_Tables_number	1
_symmetry_cell_setting	triclinic
loop_
_symmetry_equiv_pos_as_xyz
  x,y,z
_cell_length_a	23.532407
_cell_length_b	15.944499
_cell_length_c	15.021413
_cell_angle_alpha	89.990095
_cell_angle_beta	89.999348
_cell_angle_gamma	83.163143
loop_
_atom_site_label
_atom_site_type_symbol
_atom_site_fract_x
_atom_site_fract_y
_atom_site_fract_z
O1	O	0.073302	1.113938	-0.074095
O2	O	0.082388	0.869306	-0.074086
O3	O	-0.005059	0.998999	-0.074074
O4	O	0.160749	0.984245	-0.074106
O5	O	-0.005046	0.998978	0.073990
O6	O	0.082401	0.869285	0.073978
O7	O	0.073315	1.113918	0.073970
Zn8	Zn	0.077860	0.991598	0.097482
Zn9	Zn	0.077843	0.991625	-0.097599
O10	O	0.160762	0.984225	0.073958
C11	C	0.082023	0.838004	-0.000052
C12	C	0.080907	0.744765	-0.000048
C13	C	-0.026270	0.998613	-0.000040
C14	C	-0.089491	0.997483	-0.000033
C15	C	0.131712	0.452801	-0.000071
C16	C	0.105296	0.514063	-0.073071
C17	C	0.076856	0.409163	-0.000068
C18	C	0.105294	0.514029	0.072908
C19	C	0.078849	0.574055	-0.000057
C20	C	0.050425	0.469197	-0.073128
C21	C	0.050430	0.469156	0.072917
C22	C	0.023974	0.530401	-0.000101
C23	C	0.075709	0.314172	-0.000075
C24	C	0.079992	0.669044	-0.000056
C25	C	-0.488333	1.067148	-0.000084
C26	C	-0.547737	1.066099	-0.000091
O27	O	-0.584240	1.130679	-0.000126
N28	N	-0.570653	0.988996	-0.000088
C29	C	-0.534160	0.912938	-0.000086
O30	O	-0.559106	0.847260	-0.000085
C31	C	-0.474757	0.913989	-0.000086
C32	C	-0.451845	0.991096	-0.000080
C33	C	-0.465421	1.144249	-0.000080
C34	C	-0.406021	1.145298	-0.000071
C35	C	-0.369533	1.069246	-0.000067
C36	C	-0.392445	0.992145	-0.000072
C37	C	-0.438266	0.837931	-0.000091
C38	C	-0.378859	0.838988	-0.000092
C39	C	-0.355948	0.916096	-0.000086
C40	C	-0.296557	0.917142	-0.000060
N41	N	-0.273642	0.994244	-0.000063
C42	C	-0.310130	1.070296	-0.000067
C43	C	-0.658911	0.910739	-0.000089
C44	C	-0.718313	0.909688	-0.000083
C45	C	-0.731886	1.062848	-0.000089
C46	C	-0.672483	1.063899	-0.000089
C47	C	-0.635996	0.987841	-0.000092
C48	C	-0.185385	1.072493	-0.000049
C49	C	-0.125979	1.073536	-0.000037
C50	C	-0.112411	0.920375	-0.000035
C51	C	-0.171812	0.919333	-0.000043
C52	C	-0.208298	0.995398	-0.000052
O53	O	-0.260020	0.852596	-0.000028
O54	O	-0.285176	1.135963	-0.000080
C55	C	0.181973	0.984611	-0.000078
C56	C	0.245194	0.985740	-0.000091
C57	C	0.073680	1.145219	-0.000066
C58	C	0.074796	1.238458	-0.000076
N59	N	0.077871	0.991586	0.230620
N60	N	0.077828	0.991645	-0.230736
C61	C	0.118287	0.931607	0.470298
C62	C	0.129334	1.007416	0.529627
C63	C	0.077856	0.991607	0.412227
C64	C	0.066822	0.915819	0.529639
C65	C	0.077844	0.991621	0.587651
C66	C	0.088929	1.067455	0.470249
C67	C	0.026395	0.975808	0.470257
C68	C	0.037420	1.051672	0.529559
C69	C	0.077865	0.991598	0.311170
C70	C	0.077835	0.991640	0.688706
H71	H	0.177237	0.419087	-0.000151
H72	H	-0.021592	0.563962	-0.000131
H73	H	-0.082692	0.858456	-0.000029
N74	N	-0.102577	1.152303	-0.000015
N75	N	-0.113761	1.203448	0.062398
H76	H	-0.097235	1.259076	0.062415
N77	N	0.100686	1.147890	0.437671
N78	N	0.064940	1.190870	0.389544
H79	H	0.073244	1.247677	0.366535
N80	N	0.161217	0.868019	0.437663
N81	N	0.212644	0.870993	0.456716
H82	H	0.242964	0.826086	0.433668
N83	N	0.134401	0.539028	-0.150502
N84	N	0.185584	0.510804	-0.163521
H85	H	0.206142	0.528431	-0.218204
H86	H	-0.495124	1.206184	-0.000086
H87	H	-0.653833	1.126686	-0.000085
N88	N	-0.005489	1.115383	0.562012
N89	N	-0.056820	1.113143	0.541848
H90	H	-0.087123	1.158139	0.564771
N91	N	0.021332	0.444385	-0.150628
N92	N	0.015782	0.368288	-0.163154
H93	H	-0.004764	0.350761	-0.217887
H94	H	-0.387372	1.208087	-0.000070
H95	H	-0.736962	0.846899	-0.000072
H96	H	-0.017106	0.962408	0.444158
N97	N	0.134403	0.538959	0.150340
N98	N	0.108668	0.588974	0.205013
H99	H	0.129229	0.606579	0.259697
H100	H	0.172848	1.020792	0.555705
H101	H	0.057495	0.851720	0.555729
N102	N	-0.461669	0.759174	-0.000113
N103	N	-0.514706	0.758229	-0.000122
H104	H	-0.531234	0.702603	-0.000140
N105	N	-0.769156	1.140544	-0.000111
N106	N	-0.748697	1.209386	-0.000118
H107	H	-0.775019	1.264256	-0.000135
H108	H	-0.629205	0.848799	-0.000084
N109	N	0.021364	0.444144	0.150358
N110	N	0.046884	0.393112	0.204287
H111	H	0.026361	0.375444	0.258988
N112	N	-0.222641	1.150199	-0.000043
N113	N	-0.220543	1.201574	0.062375
H114	H	-0.246855	1.256455	0.062386
N115	N	-0.341597	0.761287	-0.000106
N116	N	-0.362067	0.692454	-0.000116
H117	H	-0.335752	0.637576	-0.000127
N118	N	-0.195210	0.840564	-0.000021
N119	N	-0.162622	0.772667	-0.000004
H120	H	-0.179142	0.717034	0.000009
