data_functionalizedCrystal
_audit_creation_method	'MofGen! by Chris Wilmer'
_symmetry_space_group_name_H-M	'P1'
_symmetry_Int_Tables_number	1
_symmetry_cell_setting	triclinic
loop_
_symmetry_equiv_pos_as_xyz
  x,y,z
_cell_length_a	6.817900
_cell_length_b	7.190334
_cell_length_c	12.850265
_cell_angle_alpha	94.837455
_cell_angle_beta	88.223186
_cell_angle_gamma	60.611776
loop_
_atom_site_label
_atom_site_type_symbol
_atom_site_fract_x
_atom_site_fract_y
_atom_site_fract_z
V1	V	-4.161857	0.655561	0.141789
O2	O	-4.210399	0.652909	-0.008515
O3	O	-4.051282	0.641626	0.282781
O4	O	-4.200283	0.945786	0.138862
O5	O	-4.060366	0.346644	0.136400
V6	V	-4.642291	0.619760	0.123899
O7	O	-4.429892	0.734093	0.181032
O8	O	-4.824453	0.541228	0.084656
O9	O	-4.529660	0.633695	-0.017092
O10	O	-4.711146	0.622412	0.274204
O11	O	-4.861178	0.928677	0.129288
O12	O	-4.380658	0.329535	0.126827
C13	C	-4.068426	1.016829	0.133587
C14	C	-4.182826	1.258485	0.132097
C15	C	-3.878366	0.628855	0.317176
C16	C	-3.869665	0.619224	0.434601
C17	C	-4.353515	0.656148	-0.168899
C18	C	-4.365938	0.646487	-0.051477
V19	V	-4.129453	0.623013	0.625557
O20	O	-4.172307	0.630778	0.778481
O21	O	-4.036780	0.625546	0.478740
O22	O	-3.887067	0.321321	0.622626
O23	O	-4.323057	0.937110	0.633599
V24	V	-4.668768	0.716131	0.672684
O25	O	-4.337958	0.571273	0.599973
O26	O	-4.934175	0.819815	0.724761
O27	O	-4.526477	0.687844	0.806365
O28	O	-4.749495	0.721911	0.526668
O29	O	-4.598745	0.415579	0.671550
O30	O	-4.676191	0.992070	0.662480
C31	C	-4.530169	1.043408	0.647161
C32	C	-4.622914	1.282668	0.644484
