data_functionalizedCrystal
_audit_creation_method	'MofGen! by Chris Wilmer'
_symmetry_space_group_name_H-M	'P1'
_symmetry_Int_Tables_number	1
_symmetry_cell_setting	triclinic
loop_
_symmetry_equiv_pos_as_xyz
  x,y,z
_cell_length_a	15.944551
_cell_length_b	17.699083
_cell_length_c	16.776229
_cell_angle_alpha	89.994534
_cell_angle_beta	89.992397
_cell_angle_gamma	83.390876
loop_
_atom_site_label
_atom_site_type_symbol
_atom_site_fract_x
_atom_site_fract_y
_atom_site_fract_z
O1	O	0.106222	1.004260	-0.066259
O2	O	0.120042	0.783905	-0.066267
O3	O	-0.009156	0.900100	-0.066256
O4	O	0.235419	0.888065	-0.066270
O5	O	-0.009164	0.900084	0.066321
O6	O	0.120034	0.783890	0.066309
O7	O	0.106214	1.004244	0.066318
Zn8	Zn	0.113123	0.894065	0.087363
Zn9	Zn	0.113133	0.894085	-0.087312
O10	O	0.235411	0.888050	0.066306
C11	C	0.119542	0.755700	0.000020
C12	C	0.118057	0.671679	0.000017
C13	C	-0.040453	0.899593	0.000033
C14	C	-0.133696	0.898095	0.000033
N15	N	0.113115	0.894056	0.206574
C16	C	-0.348393	0.822492	0.000019
C17	C	-0.409488	0.857592	0.065389
C18	C	-0.304416	0.895385	0.000027
C19	C	-0.409464	0.857624	-0.065321
C20	C	-0.469323	0.892762	0.000018
C21	C	-0.364283	0.930505	0.065451
C22	C	-0.364252	0.930527	-0.065318
C23	C	-0.425329	0.965680	0.000067
C24	C	-0.209417	0.896894	0.000033
C25	C	-0.564321	0.891259	0.000017
C26	C	0.266708	0.888557	0.000016
C27	C	0.359951	0.890055	0.000010
C28	C	0.106713	1.032450	0.000029
C29	C	0.108199	1.116471	0.000027
C30	C	0.032363	1.164962	0.000029
C31	C	0.033763	1.243908	0.000031
C32	C	0.111001	1.274361	0.000026
C33	C	0.186843	1.225863	0.000027
C34	C	0.185441	1.146919	0.000030
C35	C	0.192498	1.544236	0.000015
C36	C	0.193894	1.623186	0.000009
C37	C	0.040820	1.641225	0.000016
C38	C	0.039418	1.562281	0.000019
C39	C	0.115260	1.513790	0.000024
C40	C	0.113740	1.428188	0.000023
C41	C	0.112522	1.359961	0.000022
N42	N	0.113134	0.894099	-0.206524
C43	C	0.055930	0.945523	0.248296
C44	C	0.055929	0.945527	0.331749
C45	C	0.113118	0.894068	0.373477
C46	C	0.170306	0.842595	0.331749
C47	C	0.170302	0.842588	0.248298
C48	C	0.170323	0.842623	0.668296
C49	C	0.170324	0.842636	0.751753
C50	C	0.055949	0.945562	0.751747
C51	C	0.055946	0.945555	0.668296
C52	C	0.113130	0.894080	0.626575
C53	C	0.113129	0.894075	0.536087
C54	C	0.113124	0.894076	0.463964
H55	H	-0.429535	0.826754	0.120651
C56	C	-0.492115	0.865720	-0.185295
C57	C	-0.436492	0.816001	-0.139926
H58	H	-0.508801	0.840016	-0.231347
H59	H	-0.464741	0.908250	-0.201006
H60	H	-0.540533	0.882601	-0.154304
H61	H	-0.388071	0.799124	-0.170915
H62	H	-0.463865	0.773456	-0.124216
H63	H	0.009363	0.987430	0.214327
H64	H	-0.314958	0.761987	0.000082
C65	C	-0.118808	1.190731	0.000041
C66	C	-0.052541	1.131493	0.000035
H67	H	-0.171225	1.170068	0.000051
H68	H	-0.115075	1.221147	-0.046190
H69	H	-0.115072	1.221145	0.046275
H70	H	-0.056274	1.101082	-0.046203
H71	H	-0.056276	1.101064	0.046270
H72	H	0.254253	1.504763	0.000015
H73	H	-0.344183	0.961338	-0.120583
H74	H	0.249732	1.250664	0.000028
H75	H	-0.027990	1.283387	0.000036
H76	H	-0.344360	0.961304	0.120776
H77	H	0.247195	1.107437	0.000031
C78	C	-0.030698	1.449275	0.000020
C79	C	-0.045483	1.528807	0.000021
H80	H	-0.083115	1.428612	0.000017
H81	H	0.000511	1.432633	0.046248
H82	H	0.000526	1.432641	-0.046217
H83	H	-0.076702	1.545440	0.046261
H84	H	-0.076706	1.545455	-0.046212
C85	C	-0.447487	1.085395	0.068618
C86	C	-0.470275	1.047427	0.000118
H87	H	-0.475241	1.135859	0.068653
H88	H	-0.388115	1.086782	0.069051
H89	H	-0.463664	1.059299	0.114607
H90	H	-0.454093	1.073520	-0.045870
H91	H	-0.529660	1.046044	-0.000322
C92	C	-0.025015	1.770252	0.000025
C93	C	-0.042549	1.694529	0.000022
H94	H	-0.076483	1.803157	0.000032
H95	H	0.006661	1.779485	-0.046206
H96	H	0.006658	1.779473	0.046260
H97	H	-0.074217	1.685307	-0.046216
H98	H	-0.074238	1.685293	0.046257
C99	C	0.345074	1.597428	0.000023
C100	C	0.278800	1.656661	0.000013
H101	H	0.397487	1.618097	0.000030
H102	H	0.341356	1.567014	-0.046204
H103	H	0.341331	1.567011	0.046261
H104	H	0.282540	1.687075	-0.046228
H105	H	0.282520	1.687087	0.046245
H106	H	0.216896	0.800728	0.785727
C107	C	-0.057105	1.047288	0.323360
C108	C	-0.006918	1.002113	0.377610
H109	H	-0.095899	1.082228	0.351675
H110	H	-0.087287	1.015788	0.290829
H111	H	-0.022161	1.074495	0.290795
H112	H	-0.041861	0.974901	0.410171
H113	H	0.023267	1.033617	0.410155
H114	H	0.009380	0.987460	0.634323
H115	H	0.009384	0.987473	0.785725
H116	H	0.216886	0.800712	0.634334
C117	C	0.221105	0.796908	0.459674
C118	C	0.233172	0.786031	0.377615
H119	H	0.259923	0.761991	0.487987
H120	H	0.165065	0.788687	0.473359
H121	H	0.230159	0.847423	0.473328
H122	H	0.224112	0.735518	0.363960
H123	H	0.289226	0.794246	0.363924
C124	C	0.283367	0.740854	0.256681
C125	C	0.233166	0.786018	0.202434
H126	H	0.322179	0.705931	0.228365
H127	H	0.248442	0.713635	0.289240
H128	H	0.313538	0.772368	0.289219
H129	H	0.202990	0.754504	0.169899
H130	H	0.268095	0.813239	0.169861
