data_functionalizedCrystal
_audit_creation_method	'MofGen! by Chris Wilmer'
_symmetry_space_group_name_H-M	'P1'
_symmetry_Int_Tables_number	1
_symmetry_cell_setting	triclinic
loop_
_symmetry_equiv_pos_as_xyz
  x,y,z
_cell_length_a	10.723024
_cell_length_b	13.596369
_cell_length_c	14.519731
_cell_angle_alpha	90.005054
_cell_angle_beta	95.921639
_cell_angle_gamma	90.005655
loop_
_atom_site_label
_atom_site_type_symbol
_atom_site_fract_x
_atom_site_fract_y
_atom_site_fract_z
O1	O	1.655996	0.081772	-0.129342
O2	O	1.292729	0.081774	-0.141723
O3	O	1.483980	0.081780	-0.001345
O4	O	1.464745	0.081766	-0.269721
O5	O	1.483956	-0.081803	-0.001352
O6	O	1.292705	-0.081809	-0.141731
O7	O	1.655972	-0.081811	-0.129350
Zn8	Zn	1.474335	-0.107782	-0.135542
Zn9	Zn	1.474366	0.107745	-0.135531
O10	O	1.464721	-0.081817	-0.269728
C11	C	1.246226	-0.000017	-0.140826
C12	C	1.107697	-0.000015	-0.138130
N13	N	1.474323	-0.254874	-0.135548
C14	C	1.031987	-0.000019	-0.216679
C15	C	0.888810	-0.000018	-0.213894
C16	C	1.474329	-0.343872	-0.135550
C17	C	1.474341	-0.455523	-0.135544
C18	C	1.474358	-0.544514	-0.135533
C19	C	1.474372	-0.656172	-0.135528
C20	C	1.702475	-0.000018	-0.130247
C21	C	1.841005	-0.000013	-0.132943
N22	N	1.474388	0.254837	-0.135518
C23	C	1.465634	-0.000027	-0.304089
C24	C	1.468335	-0.000032	-0.406483
C25	C	1.470530	-0.000029	-0.489638
C26	C	1.473272	-0.000019	-0.593961
C27	C	1.475448	-0.000011	-0.677111
C28	C	1.478190	-0.000004	-0.781440
C29	C	1.483067	-0.000007	0.033016
C30	C	1.480366	0.000004	0.135410
H31	H	0.823755	-0.000017	-0.281138
O32	O	0.918419	0.000035	-0.052626
C33	C	0.846160	0.000014	0.023182
H34	H	0.749050	0.030981	0.000475
H35	H	0.836868	-0.078464	0.049264
C36	C	1.030230	0.026136	0.129322
C37	C	0.910962	0.064178	0.101435
H38	H	1.070204	0.065712	0.177594
H39	H	1.078914	0.026147	0.078250
H40	H	1.022470	-0.039261	0.151051
H41	H	0.918724	0.129569	0.079696
H42	H	0.862281	0.064180	0.152506
O43	O	1.080896	-0.000066	-0.299448
C44	C	0.982703	-0.000042	-0.371942
H45	H	0.894159	-0.031009	-0.345626
H46	H	0.964403	0.078437	-0.397485
C47	C	1.128522	-0.026161	-0.484498
C48	C	1.019774	-0.064203	-0.452177
H49	H	1.151390	-0.065735	-0.533993
H50	H	1.194678	-0.026174	-0.435658
H51	H	1.113258	0.039237	-0.505776
H52	H	1.035044	-0.129595	-0.430888
H53	H	0.953621	-0.064203	-0.501015
H54	H	1.066515	0.000013	-0.068821
