data_functionalizedCrystal
_audit_creation_method	'MofGen! by Chris Wilmer'
_symmetry_space_group_name_H-M	'P1'
_symmetry_Int_Tables_number	1
_symmetry_cell_setting	triclinic
loop_
_symmetry_equiv_pos_as_xyz
  x,y,z
_cell_length_a	23.532407
_cell_length_b	23.532407
_cell_length_c	17.766277
_cell_angle_alpha	89.996096
_cell_angle_beta	89.993822
_cell_angle_gamma	82.848712
loop_
_atom_site_label
_atom_site_type_symbol
_atom_site_fract_x
_atom_site_fract_y
_atom_site_fract_z
O1	O	0.069132	0.755262	-0.062554
O2	O	0.402466	1.088595	0.270779
O3	O	0.735799	1.421928	0.604112
O4	O	0.079135	0.589398	-0.062567
O5	O	0.412469	0.922731	0.270766
O6	O	0.745802	1.256065	0.604099
O7	O	-0.008798	0.677331	-0.062547
O8	O	0.324536	1.010665	0.270787
O9	O	0.657869	1.343998	0.604120
O10	O	0.157066	0.667328	-0.062575
O11	O	0.490399	1.000662	0.270758
O12	O	0.823732	1.333995	0.604092
O13	O	-0.008795	0.677320	0.062642
O14	O	0.324539	1.010653	0.395975
O15	O	0.657872	1.343986	0.729309
O16	O	0.079139	0.589386	0.062621
O17	O	0.412472	0.922720	0.395955
O18	O	0.745805	1.256053	0.729288
O19	O	0.069135	0.755250	0.062634
O20	O	0.402469	1.088583	0.395968
O21	O	0.735802	1.421916	0.729301
Cu22	Cu	0.074137	0.672317	0.074058
Cu23	Cu	0.407471	1.005650	0.407392
Cu24	Cu	0.740804	1.338984	0.740725
Cu25	Cu	0.074134	0.672331	-0.073991
Cu26	Cu	0.407467	1.005664	0.259342
Cu27	Cu	0.740800	1.338998	0.592675
O28	O	0.157069	0.667317	0.062614
O29	O	0.490402	1.000650	0.395947
O30	O	0.823735	1.333983	0.729280
C31	C	0.078882	0.568176	0.000026
C32	C	0.412216	0.901510	0.333359
C33	C	0.745549	1.234843	0.666692
C34	C	0.078116	0.504959	0.000021
C35	C	0.411450	0.838293	0.333355
C36	C	0.744783	1.171626	0.666688
C37	C	0.022921	0.238792	0.000051
C38	C	0.356254	0.572125	0.333384
C39	C	0.689588	0.905458	0.666718
C40	C	0.023632	0.298192	0.000051
C41	C	0.356966	0.631525	0.333384
C42	C	0.690299	0.964859	0.666717
O43	O	-0.020153	0.334937	0.000084
O44	O	0.313180	0.668270	0.333418
O45	O	0.646513	1.001603	0.666751
N46	N	0.075909	0.320818	0.000037
N47	N	0.409242	0.654152	0.333370
N48	N	0.742575	0.987485	0.666703
C49	C	0.127477	0.284041	0.000031
C50	C	0.460810	0.617374	0.333364
C51	C	0.794144	0.950707	0.666697
O52	O	0.172007	0.308740	0.000019
O53	O	0.505341	0.642074	0.333353
O54	O	0.838674	0.975407	0.666686
C55	C	0.126765	0.224642	0.000036
C56	C	0.460098	0.557975	0.333370
C57	C	0.793432	0.891308	0.666703
C58	C	0.074485	0.202019	0.000043
C59	C	0.407819	0.535352	0.333376
C60	C	0.741152	0.868686	0.666709
C61	C	-0.029354	0.216168	0.000058
C62	C	0.303979	0.549502	0.333392
C63	C	0.637312	0.882835	0.666725
C64	C	-0.030066	0.156772	0.000057
C65	C	0.303268	0.490106	0.333391
C66	C	0.636601	0.823439	0.666724
C67	C	0.021499	0.119999	0.000049
C68	C	0.354832	0.453333	0.333382
C69	C	0.688165	0.786666	0.666716
C70	C	0.073774	0.142623	0.000042
C71	C	0.407107	0.475956	0.333375
C72	C	0.740441	0.809289	0.666708
C73	C	0.178333	0.187865	0.000036
C74	C	0.511666	0.521199	0.333369
C75	C	0.844999	0.854532	0.666702
C76	C	0.177616	0.128463	0.000042
C77	C	0.510949	0.461796	0.333375
C78	C	0.844283	0.795129	0.666709
C79	C	0.125336	0.105840	0.000048
C80	C	0.458670	0.439173	0.333382
C81	C	0.792003	0.772507	0.666715
C82	C	0.124627	0.046454	0.000032
C83	C	0.457960	0.379787	0.333366
C84	C	0.791294	0.713120	0.666699
N85	N	0.072351	0.023828	0.000046
N86	N	0.405684	0.357161	0.333380
N87	N	0.739017	0.690494	0.666713
C88	C	0.020787	0.060600	0.000055
C89	C	0.354120	0.393934	0.333388
C90	C	0.687453	0.727267	0.666721
C91	C	0.128968	0.408783	0.000020
C92	C	0.462302	0.742117	0.333353
C93	C	0.795635	1.075450	0.666687
C94	C	0.129681	0.468181	0.000009
C95	C	0.463014	0.801514	0.333342
C96	C	0.796348	1.134848	0.666676
C97	C	0.025836	0.482328	0.000030
C98	C	0.359170	0.815662	0.333364
C99	C	0.692503	1.148995	0.666697
C100	C	0.025124	0.422929	0.000036
C101	C	0.358457	0.756263	0.333369
C102	C	0.691791	1.089596	0.666703
C103	C	0.076692	0.386157	0.000034
C104	C	0.410025	0.719490	0.333367
C105	C	0.743359	1.052824	0.666701
C106	C	0.019297	-0.064136	0.000052
C107	C	0.352630	0.269197	0.333385
C108	C	0.685964	0.602530	0.666718
C109	C	0.018590	-0.123538	0.000048
C110	C	0.351924	0.209795	0.333381
C111	C	0.685257	0.543128	0.666714
C112	C	0.122435	-0.137680	0.000030
C113	C	0.455768	0.195653	0.333363
C114	C	0.789101	0.528986	0.666697
C115	C	0.123142	-0.078284	0.000030
C116	C	0.456475	0.255050	0.333364
C117	C	0.789808	0.588383	0.666697
C118	C	0.071568	-0.041512	0.000044
C119	C	0.404901	0.291821	0.333377
C120	C	0.738235	0.625154	0.666710
O121	O	0.168390	0.009675	0.000002
O122	O	0.501723	0.343008	0.333335
O123	O	0.835057	0.676341	0.666668
O124	O	-0.023737	0.035892	0.000076
O125	O	0.309597	0.369226	0.333409
O126	O	0.642930	0.702559	0.666742
C127	C	-0.030012	0.677071	0.000050
C128	C	0.303321	1.010404	0.333383
C129	C	0.636654	1.343738	0.666716
C130	C	-0.093229	0.676305	0.000055
C131	C	0.240104	1.009638	0.333389
C132	C	0.573437	1.342972	0.666722
C133	C	-0.492332	0.723538	0.000018
C134	C	-0.158999	1.056872	0.333351
C135	C	0.174334	1.390205	0.666684
C136	C	-0.551733	0.722827	0.000012
C137	C	-0.218399	1.056160	0.333345
C138	C	0.114934	1.389494	0.666679
O139	O	-0.588477	0.766613	-0.000012
O140	O	-0.255144	1.099946	0.333321
O141	O	0.078190	1.433280	0.666654
N142	N	-0.574359	0.670551	0.000008
N143	N	-0.241025	1.003884	0.333342
N144	N	0.092308	1.337217	0.666675
C145	C	-0.537581	0.618982	0.000003
C146	C	-0.204248	0.952316	0.333336
C147	C	0.129085	1.285649	0.666670
O148	O	-0.562281	0.574452	-0.000001
O149	O	-0.228948	0.907785	0.333332
O150	O	0.104386	1.241119	0.666665
C151	C	-0.478182	0.619695	0.000003
C152	C	-0.144849	0.953028	0.333337
C153	C	0.188485	1.286361	0.666670
C154	C	-0.455559	0.671974	0.000015
C155	C	-0.122226	1.005308	0.333348
C156	C	0.211107	1.338641	0.666681
C157	C	-0.469709	0.775814	0.000028
C158	C	-0.136376	1.109147	0.333361
C159	C	0.196958	1.442481	0.666695
C160	C	-0.410313	0.776525	0.000035
C161	C	-0.076980	1.109858	0.333369
C162	C	0.256354	1.443192	0.666702
C163	C	-0.373540	0.724961	0.000032
C164	C	-0.040207	1.058294	0.333365
C165	C	0.293127	1.391628	0.666699
C166	C	-0.396163	0.672685	0.000022
C167	C	-0.062830	1.006019	0.333355
C168	C	0.270503	1.339352	0.666688
C169	C	-0.441406	0.568127	-0.000007
C170	C	-0.108072	0.901460	0.333326
C171	C	0.225261	1.234794	0.666659
C172	C	-0.382003	0.568843	-0.000008
C173	C	-0.048670	0.902177	0.333326
C174	C	0.284663	1.235510	0.666659
C175	C	-0.359381	0.621123	0.000004
C176	C	-0.026047	0.954457	0.333337
C177	C	0.307286	1.287790	0.666670
C178	C	-0.299994	0.621832	0.000026
C179	C	0.033339	0.955166	0.333359
C180	C	0.366672	1.288499	0.666692
N181	N	-0.277368	0.674109	0.000029
N182	N	0.055965	1.007442	0.333363
N183	N	0.389299	1.340775	0.666696
C184	C	-0.314141	0.725673	0.000032
C185	C	0.019192	1.059006	0.333366
C186	C	0.352526	1.392340	0.666699
C187	C	-0.662324	0.617491	0.000001
C188	C	-0.328990	0.950824	0.333334
C189	C	0.004343	1.284158	0.666668
C190	C	-0.721722	0.616778	0.000006
C191	C	-0.388388	0.950112	0.333339
C192	C	-0.055055	1.283445	0.666673
C193	C	-0.735869	0.720623	0.000013
C194	C	-0.402536	1.053957	0.333347
C195	C	-0.069202	1.387290	0.666680
C196	C	-0.676470	0.721335	0.000014
C197	C	-0.343137	1.054669	0.333347
C198	C	-0.009803	1.388002	0.666680
C199	C	-0.639698	0.669767	0.000004
C200	C	-0.306364	1.003101	0.333338
C201	C	0.026969	1.336434	0.666671
C202	C	-0.189404	0.727163	0.000048
C203	C	0.143929	1.060496	0.333381
C204	C	0.477262	1.393829	0.666715
C205	C	-0.130002	0.727869	0.000058
C206	C	0.203331	1.061203	0.333392
C207	C	0.536664	1.394536	0.666725
C208	C	-0.115860	0.624025	0.000047
C209	C	0.217473	0.957358	0.333380
C210	C	0.550807	1.290691	0.666714
C211	C	-0.175257	0.623318	0.000041
C212	C	0.158076	0.956651	0.333374
C213	C	0.491410	1.289984	0.666707
C214	C	-0.212028	0.674891	0.000039
C215	C	0.121305	1.008225	0.333372
C216	C	0.454639	1.341558	0.666705
O217	O	-0.263215	0.578069	0.000047
O218	O	0.070118	0.911403	0.333380
O219	O	0.403452	1.244736	0.666714
O220	O	-0.289433	0.770196	0.000027
O221	O	0.043900	1.103529	0.333360
O222	O	0.377234	1.436863	0.666693
C223	C	0.178283	0.667577	0.000016
C224	C	0.511617	1.000910	0.333349
C225	C	0.844950	1.334244	0.666682
C226	C	0.241500	0.668343	0.000005
C227	C	0.574834	1.001676	0.333338
C228	C	0.908167	1.335010	0.666672
C229	C	0.069389	0.776472	0.000040
C230	C	0.402722	1.109805	0.333373
C231	C	0.736055	1.443138	0.666706
C232	C	0.070155	0.839689	0.000039
C233	C	0.403488	1.173022	0.333373
C234	C	0.736821	1.506355	0.666706
N235	N	0.074140	0.672311	0.178189
N236	N	0.407473	1.005645	0.511522
N237	N	0.740806	1.338978	0.844855
N238	N	0.074127	0.672341	-0.178122
N239	N	0.407460	1.005674	0.155212
N240	N	0.740793	1.339008	0.488545
C241	C	0.108488	0.706685	0.782473
C242	C	0.441821	1.040018	1.115807
C243	C	0.775155	1.373352	1.449140
C244	C	0.108494	0.706679	0.703672
C245	C	0.441827	1.040013	1.037005
C246	C	0.775160	1.373346	1.370338
C247	C	0.074127	0.672336	0.664278
C248	C	0.407461	1.005670	0.997611
C249	C	0.740794	1.339003	1.330944
C250	C	0.039764	0.637985	0.703692
C251	C	0.373097	0.971319	1.037025
C252	C	0.706430	1.304652	1.370359
C253	C	0.039764	0.637988	0.782492
C254	C	0.373097	0.971321	1.115826
C255	C	0.706430	1.304654	1.449159
C256	C	0.022783	0.671051	0.539442
C257	C	0.356117	1.004384	0.872775
C258	C	0.689450	1.337717	1.206109
C259	C	0.022782	0.671052	0.460643
C260	C	0.356116	1.004386	0.793976
C261	C	0.689449	1.337719	1.127310
C262	C	0.074129	0.672326	0.421231
C263	C	0.407462	1.005659	0.754565
C264	C	0.740795	1.338992	1.087898
C265	C	0.125477	0.673609	0.460628
C266	C	0.458810	1.006943	0.793961
C267	C	0.792143	1.340276	1.127295
C268	C	0.125476	0.673612	0.539428
C269	C	0.458810	1.006945	0.872762
C270	C	0.792143	1.340278	1.206095
C271	C	0.074124	0.672330	0.578832
C272	C	0.407457	1.005663	0.912165
C273	C	0.740791	1.338996	1.245499
C274	C	0.108499	0.706665	0.296381
C275	C	0.441832	1.039999	0.629714
C276	C	0.775166	1.373332	0.963047
C277	C	0.108506	0.706656	0.217577
C278	C	0.441839	1.039989	0.550911
C279	C	0.775172	1.373322	0.884244
C280	C	0.039770	0.637965	0.217599
C281	C	0.373104	0.971298	0.550933
C282	C	0.706437	1.304632	0.884266
C283	C	0.039769	0.637971	0.296401
C284	C	0.373102	0.971305	0.629734
C285	C	0.706436	1.304638	0.963068
C286	C	0.074132	0.672325	0.335787
C287	C	0.407466	1.005658	0.669120
C288	C	0.740799	1.338991	1.002454
H289	H	-0.017447	0.404515	0.000042
H290	H	0.315887	0.737848	0.333375
H291	H	0.649220	1.071181	0.666709
H292	H	-0.019029	0.670011	0.428572
H293	H	0.314305	1.003345	0.761906
H294	H	0.647638	1.336678	1.095239
H295	H	-0.111587	0.770443	0.000070
H296	H	0.221747	1.103777	0.333403
H297	H	0.555080	1.437110	0.666736
F298	F	0.003190	0.601433	0.824431
F299	F	0.336523	0.934766	1.157764
F300	F	0.669857	1.268099	1.491098
F301	F	0.145064	0.743244	0.824386
F302	F	0.478398	1.076577	1.157720
F303	F	0.811731	1.409910	1.491053
F304	F	0.183858	0.369651	0.000010
F305	F	0.517191	0.702985	0.333343
F306	F	0.850524	1.036318	0.666676
H307	H	0.136477	0.734646	0.671582
H308	H	0.469811	1.067979	1.004915
H309	H	0.803144	1.401312	1.338249
H310	H	0.172252	0.486595	-0.000007
H311	H	0.505586	0.819928	0.333326
H312	H	0.838919	1.153261	0.666660
F313	F	-0.508838	0.830701	0.000031
F314	F	-0.175504	1.164034	0.333364
F315	F	0.157829	1.497367	0.666698
F316	F	-0.199334	0.567676	0.000042
F317	F	0.133999	0.901010	0.333376
F318	F	0.467332	1.234343	0.666709
F319	F	-0.465469	0.512483	-0.000023
F320	F	-0.132136	0.845816	0.333311
F321	F	0.201198	1.179150	0.666644
F322	F	0.180123	0.674975	0.581354
F323	F	0.513457	1.008308	0.914687
F324	F	0.846790	1.341641	1.248021
F325	F	0.178783	-0.054206	0.000013
F326	F	0.512116	0.279127	0.333347
F327	F	0.845450	0.612461	0.666680
H328	H	-0.740135	0.574207	0.000010
H329	H	-0.406802	0.907540	0.333343
H330	H	-0.073469	1.240874	0.666676
F331	F	0.003191	0.601433	0.661765
F332	F	0.336524	0.934766	0.995099
F333	F	0.669857	1.268100	1.328432
H334	H	-0.019031	0.670008	0.571525
H335	H	0.314302	1.003342	0.904858
H336	H	0.647635	1.336675	1.238191
F337	F	-0.652399	0.776978	0.000026
F338	F	-0.319066	1.110311	0.333359
F339	F	0.014268	1.443644	0.666692
F340	F	-0.084241	0.255297	0.000069
F341	F	0.249092	0.588631	0.333403
F342	F	0.582425	0.921964	0.666736
F343	F	0.232503	0.089330	0.000043
F344	F	0.565837	0.422663	0.333376
F345	F	0.899170	0.755996	0.666710
H346	H	0.136482	0.734635	0.328450
H347	H	0.469816	1.067968	0.661784
H348	H	0.803149	1.401302	0.995117
H349	H	-0.391900	0.819097	0.000041
H350	H	-0.058566	1.152430	0.333375
H351	H	0.274767	1.485763	0.666708
H352	H	0.167288	0.674646	0.428541
H353	H	0.500621	1.007980	0.761874
H354	H	0.833954	1.341313	1.095207
F355	F	0.003199	0.601410	0.175678
F356	F	0.336532	0.934744	0.509012
F357	F	0.669865	1.268077	0.842345
F358	F	-0.623192	0.562602	-0.000002
F359	F	-0.289859	0.895935	0.333331
F360	F	0.043475	1.229268	0.666664
F361	F	-0.342870	0.513956	-0.000019
F362	F	-0.009537	0.847289	0.333314
F363	F	0.323796	1.180623	0.666647
H364	H	-0.765821	0.762610	0.000013
H365	H	-0.432487	1.095943	0.333346
H366	H	-0.099154	1.429276	0.666680
F367	F	0.233977	0.211929	0.000029
F368	F	0.567310	0.545262	0.333362
F369	F	0.900643	0.878595	0.666695
H370	H	-0.219337	0.769159	0.000044
H371	H	0.113996	1.102492	0.333377
H372	H	0.447330	1.435825	0.666710
H373	H	0.011786	0.610007	0.328485
H374	H	0.345119	0.943341	0.661818
H375	H	0.678452	1.276674	0.995151
H376	H	-0.085909	0.582043	0.000047
H377	H	0.247424	0.915376	0.333380
H378	H	0.580758	1.248709	0.666714
F379	F	0.145090	0.743200	0.175640
F380	F	0.478424	1.076534	0.508973
F381	F	0.811757	1.409867	0.842307
H382	H	-0.023984	-0.141954	0.000051
H383	H	0.309349	0.191379	0.333384
H384	H	0.642683	0.524713	0.666717
H385	H	-0.072637	0.138359	0.000066
H386	H	0.260696	0.471692	0.333399
H387	H	0.594030	0.805026	0.666732
F388	F	-0.035594	-0.025010	0.000066
F389	F	0.297740	0.308324	0.333399
F390	F	0.631073	0.641657	0.666732
H391	H	-0.016150	0.512280	0.000037
H392	H	0.317183	0.845613	0.333371
H393	H	0.650516	1.178947	0.666704
H394	H	0.164417	-0.167631	0.000019
H395	H	0.497750	0.165702	0.333353
H396	H	0.831084	0.499035	0.666686
