data_functionalizedCrystal
_audit_creation_method	'MofGen! by Chris Wilmer'
_symmetry_space_group_name_H-M	'P1'
_symmetry_Int_Tables_number	1
_symmetry_cell_setting	triclinic
loop_
_symmetry_equiv_pos_as_xyz
  x,y,z
_cell_length_a	10.654558
_cell_length_b	12.837942
_cell_length_c	11.295483
_cell_angle_alpha	85.469583
_cell_angle_beta	85.855403
_cell_angle_gamma	90.341372
loop_
_atom_site_label
_atom_site_type_symbol
_atom_site_fract_x
_atom_site_fract_y
_atom_site_fract_z
O1	O	1.691370	-0.138840	-0.099008
O2	O	1.327408	-0.152714	-0.099014
O3	O	1.501318	0.005184	-0.099003
O4	O	1.517460	-0.296737	-0.099018
O5	O	1.486041	-0.008663	0.099047
O6	O	1.312130	-0.166561	0.099036
O7	O	1.676093	-0.152687	0.099042
Cu8	Cu	1.492717	-0.160888	0.117123
Cu9	Cu	1.510784	-0.144512	-0.117094
O10	O	1.502183	-0.310584	0.099032
C11	C	1.272860	-0.158617	0.000011
C12	C	1.133084	-0.155563	0.000009
C13	C	0.944405	-0.143723	-0.107948
C14	C	1.075740	-0.146583	-0.107950
C15	C	1.059087	-0.161674	0.107975
C16	C	0.927755	-0.158807	0.107975
C17	C	0.887068	-0.134753	-0.215914
C18	C	0.961056	-0.128640	-0.323881
C19	C	1.092391	-0.131500	-0.323882
C20	C	1.149737	-0.140472	-0.215916
C21	C	1.488227	0.036920	0.000021
C22	C	1.471964	0.152115	0.000019
C23	C	1.730641	-0.146784	0.000015
C24	C	1.870417	-0.149837	0.000010
C25	C	1.515274	-0.342321	0.000005
C26	C	1.531537	-0.457515	-0.000000
N27	N	1.480018	-0.172405	0.281858
C28	C	1.667470	0.391664	-0.000003
C29	C	1.652196	0.499900	-0.000005
C30	C	1.426144	0.476826	0.000003
C31	C	1.441418	0.368590	0.000006
C32	C	1.562085	0.326013	0.000004
C33	C	1.577357	0.217774	0.000015
C34	C	1.351307	0.194702	0.000015
C35	C	1.336033	0.302939	0.000013
N36	N	1.523491	-0.132987	-0.281830
C37	C	1.614896	-0.050022	0.531156
C38	C	1.605309	-0.058733	0.655819
C39	C	1.451252	-0.198533	0.655850
C40	C	1.460839	-0.189822	0.531187
C41	C	1.542665	-0.115565	0.468844
C42	C	1.552257	-0.106860	0.344179
C43	C	1.398194	-0.246653	0.344212
C44	C	1.388608	-0.255364	0.468875
H45	H	0.867511	-0.163804	0.195884
C46	C	1.800202	0.344827	0.000002
N47	N	1.900179	0.309551	0.000004
H48	H	1.105789	-0.168981	0.195876
C49	C	1.768128	0.572113	-0.000005
N50	N	1.855454	0.626504	-0.000003
H51	H	1.618887	-0.046399	0.293420
C52	C	1.704909	0.031655	0.462576
N53	N	1.772708	0.093177	0.410924
H54	H	1.339383	-0.300026	0.293464
H55	H	0.780129	-0.132427	-0.215925
H56	H	1.237789	0.337620	0.000009
C57	C	0.897972	-0.118765	-0.442636
N58	N	0.850459	-0.111326	-0.532086
C59	C	1.361218	-0.280183	0.724448
N60	N	1.293394	-0.341677	0.776118
C61	C	1.173775	-0.124764	-0.442646
N62	N	1.235071	-0.119693	-0.532104
H63	H	1.256680	-0.142794	-0.215926
H64	H	1.675610	0.183110	0.000018
C65	C	1.298594	-0.337035	0.537466
N66	N	1.230794	-0.398551	0.589128
C67	C	1.293420	0.523680	0.000016
N68	N	1.193450	0.558970	0.000034
H69	H	1.664125	-0.005361	0.706550
C70	C	1.235375	0.122476	0.000024
N71	N	1.148058	0.068075	0.000034
