data_functionalizedCrystal
_audit_creation_method	'MofGen! by Chris Wilmer'
_symmetry_space_group_name_H-M	'P1'
_symmetry_Int_Tables_number	1
_symmetry_cell_setting	triclinic
loop_
_symmetry_equiv_pos_as_xyz
  x,y,z
_cell_length_a	15.297475
_cell_length_b	18.101395
_cell_length_c	15.297908
_cell_angle_alpha	80.344931
_cell_angle_beta	107.359593
_cell_angle_gamma	80.333681
loop_
_atom_site_label
_atom_site_type_symbol
_atom_site_fract_x
_atom_site_fract_y
_atom_site_fract_z
Zn1	Zn	1.512561	-0.619616	0.771392
Zn2	Zn	1.485533	-0.717526	0.615870
Zn3	Zn	1.330158	-0.567785	0.589041
Zn4	Zn	1.356983	-0.717460	0.744469
O5	O	1.421309	-0.655597	0.680193
O6	O	1.639111	-0.654323	0.773257
O7	O	1.442385	-0.675999	0.482177
O8	O	1.354440	-0.471046	0.613270
O9	O	1.619254	-0.726257	0.658995
O10	O	1.488450	-0.509125	0.747243
O11	O	1.328231	-0.565985	0.462466
O12	O	1.203582	-0.565921	0.587164
O13	O	1.400159	-0.726145	0.878175
O14	O	1.223290	-0.675887	0.701356
O15	O	1.514461	-0.654259	0.897955
O16	O	1.468396	-0.821133	0.632889
O17	O	1.373951	-0.821084	0.727371
C18	C	1.179693	-0.615273	0.638428
C19	C	1.076333	-0.598044	0.620582
C20	C	1.421180	-0.847982	0.680144
C21	C	1.421215	-0.930305	0.680169
C22	C	0.826059	-0.778743	0.807739
C23	C	0.923171	-0.794935	0.824503
C24	C	0.961467	-0.745714	0.773525
C25	C	0.902640	-0.680297	0.705779
C26	C	0.805518	-0.664106	0.689008
C27	C	0.940925	-0.631077	0.654793
C28	C	0.882099	-0.565660	0.587047
C29	C	0.784987	-0.549472	0.570280
C30	C	0.746691	-0.598693	0.621258
C31	C	1.038047	-0.647268	0.671564
C32	C	1.017506	-0.532631	0.552833
C33	C	0.920394	-0.516438	0.536069
C34	C	1.421428	-1.229438	0.680254
C35	C	1.362203	-1.198171	0.739907
C36	C	1.361823	-1.112459	0.739623
C37	C	1.421322	-1.081035	0.680213
C38	C	1.377838	-1.091426	0.577625
C39	C	1.377451	-1.177066	0.577976
C40	C	1.524145	-1.218377	0.722355
C41	C	1.523938	-1.132987	0.724404
C42	C	1.421263	-0.997163	0.680184
C43	C	1.421483	-1.313309	0.680277
C44	C	1.663868	-0.696079	0.722122
C45	C	1.767233	-0.713330	0.739990
C46	C	1.463317	-0.695976	0.922751
C47	C	1.481218	-0.713184	1.026114
C48	C	1.421468	-0.462468	0.680267
C49	C	1.421535	-0.380168	0.680298
C50	C	1.379518	-0.615330	0.438588
C51	C	1.361797	-0.597944	0.335257
C52	C	1.293954	-0.532579	1.276439
C53	C	1.277136	-0.516405	1.179324
C54	C	1.328155	-0.565598	1.141016
C55	C	1.395995	-0.630968	1.199834
C56	C	1.412819	-0.647141	1.296959
C57	C	1.447021	-0.680160	1.161537
C58	C	1.514861	-0.745530	1.220354
C59	C	1.531681	-0.761700	1.317470
C60	C	1.480663	-0.712506	1.355777
C61	C	1.430196	-0.663987	1.064412
C62	C	1.549062	-0.778549	1.084932
C63	C	1.565879	-0.794724	1.182047
H64	H	1.085935	-0.700531	0.726724
C65	C	1.639544	-0.865750	1.245751
C66	C	1.680613	-0.905385	1.191424
C67	C	1.748468	-0.970823	1.250073
H68	H	1.686731	-0.850593	1.290671
H69	H	1.610520	-0.898421	1.277457
H70	H	1.709638	-0.872721	1.159733
H71	H	1.633451	-0.920561	1.146506
H72	H	1.719443	-1.003494	1.281780
H73	H	1.795647	-0.955659	1.294991
H74	H	1.776335	-0.997727	1.213220
H75	H	1.040540	-0.758902	0.787179
C76	C	1.276595	-1.182923	0.533075
C77	C	1.216582	-1.109470	0.505880
C78	C	1.123664	-1.114833	0.464528
H79	H	1.271795	-1.203840	0.479337
H80	H	1.259066	-1.215463	0.577222
H81	H	1.234105	-1.076942	0.461737
H82	H	1.221352	-1.088540	0.559602
H83	H	1.106136	-1.147373	0.508675
H84	H	1.118874	-1.135752	0.410793
H85	H	1.082933	-1.064998	0.446079
H86	H	1.568477	-1.238792	0.679114
H87	H	1.590608	-0.818606	1.053744
H88	H	0.971061	-0.848199	0.879660
H89	H	0.794869	-0.818815	0.849233
H90	H	1.252426	-0.492529	1.307639
H91	H	1.374961	-0.610762	1.016532
H92	H	1.314458	-0.552425	1.061940
H93	H	0.667616	-0.585511	0.607615
H94	H	0.872484	-0.463175	0.480909
C95	C	1.432659	-1.063439	0.515780
C96	C	1.468923	-1.124503	0.481736
C97	C	1.519458	-1.098763	0.424786
H98	H	1.392038	-1.023074	0.464328
H99	H	1.482976	-1.044933	0.551704
H100	H	1.418614	-1.142997	0.445813
H101	H	1.509558	-1.164874	0.533166
H102	H	1.569774	-1.080257	0.460710
H103	H	1.478831	-1.058397	0.373340
H104	H	1.544076	-1.140192	0.401687
C105	C	1.203413	-0.445419	1.115618
C106	C	1.162316	-0.405810	1.169946
C107	C	1.094387	-0.340416	1.111290
H108	H	1.232352	-0.412705	1.083876
H109	H	1.156260	-0.460647	1.070725
H110	H	1.209462	-0.390580	1.214822
H111	H	1.133360	-0.438501	1.201688
H112	H	1.047233	-0.355644	1.066397
H113	H	1.123333	-0.307709	1.079551
H114	H	1.066489	-0.313537	1.148142
C115	C	0.721277	-0.478393	0.496717
C116	C	0.775599	-0.438740	0.455677
C117	C	0.716945	-0.373253	0.387917
H118	H	0.676323	-0.493498	0.449506
H119	H	0.689606	-0.445753	0.525809
H120	H	0.807255	-0.471373	0.426585
H121	H	0.820550	-0.423615	0.502864
H122	H	0.685274	-0.340614	0.417009
H123	H	0.671994	-0.388366	0.340713
H124	H	0.753795	-0.346337	0.360069
H125	H	1.048685	-0.492552	0.511320
C126	C	1.400681	-1.104357	0.840410
C127	C	1.424723	-1.176771	0.902112
C128	C	1.460501	-1.169340	0.994969
H129	H	1.455044	-1.083897	0.848083
H130	H	1.354266	-1.070661	0.853876
H131	H	1.471135	-1.210455	0.888651
H132	H	1.370375	-1.197243	0.894469
H133	H	1.414086	-1.135644	1.008435
H134	H	1.514862	-1.148878	1.002632
H135	H	1.476810	-1.218469	1.036845
C136	C	1.261847	-1.207333	0.701308
C137	C	1.262761	-1.285375	0.705885
C138	C	1.170332	-1.293844	0.670321
H139	H	1.226454	-1.188366	0.737691
H140	H	1.233925	-1.179113	0.637684
H141	H	1.290669	-1.313584	0.769499
H142	H	1.298134	-1.304358	0.669499
H143	H	1.142411	-1.265624	0.606696
H144	H	1.134947	-1.274874	0.706708
H145	H	1.170941	-1.346795	0.673413
C146	C	1.260824	-1.065176	0.700716
C147	C	1.260221	-0.987696	0.700384
C148	C	1.167193	-0.944118	0.664558
H149	H	1.232294	-1.069963	0.638268
H150	H	1.226660	-1.083380	0.739102
H151	H	1.294371	-0.969497	0.661998
H152	H	1.288732	-0.982885	0.762821
H153	H	1.133029	-0.962321	0.702945
H154	H	1.138671	-0.948911	0.602113
H155	H	1.166770	-0.891544	0.664337
C156	C	1.572426	-1.268121	0.821603
C157	C	1.510794	-1.309656	0.846792
C158	C	1.555222	-1.355479	0.938218
H159	H	1.627379	-1.302950	0.823906
H160	H	1.589404	-1.236193	0.864238
H161	H	1.493828	-1.341581	0.804169
H162	H	1.455840	-1.274846	0.844511
H163	H	1.572200	-1.323552	0.980853
H164	H	1.610174	-1.390303	0.940513
H165	H	1.513409	-1.383661	0.955324
C166	C	1.605477	-0.832568	1.381395
C167	C	1.674787	-0.809866	1.447446
C168	C	1.742794	-0.875125	1.506336
H169	H	1.576574	-0.865254	1.413222
H170	H	1.633510	-0.859545	1.344706
H171	H	1.646756	-0.782901	1.484130
H172	H	1.703714	-0.777189	1.415645
H173	H	1.770827	-0.902102	1.469648
H174	H	1.713882	-0.907806	1.538157
H175	H	1.789833	-0.859730	1.551153
H176	H	1.417798	-1.196865	0.531102
C177	C	1.567389	-1.126483	0.825235
C178	C	1.658820	-1.173082	0.863859
C179	C	1.698858	-1.167131	0.956754
H180	H	1.569587	-1.074451	0.825964
H181	H	1.530334	-1.142884	0.861326
H182	H	1.695866	-1.156677	0.827777
H183	H	1.656648	-1.225119	0.863154
H184	H	1.661803	-1.183532	0.992846
H185	H	1.701050	-1.115096	0.957474
H186	H	1.760895	-1.198752	0.982975
H187	H	1.391248	-1.233611	0.815651
H188	H	1.302944	-1.054564	0.543685
C189	C	1.587773	-1.106297	0.672490
C190	C	1.622925	-1.165897	0.635661
C191	C	1.681737	-1.141341	0.587832
H192	H	1.552953	-1.062733	0.622617
H193	H	1.638659	-1.092786	0.714911
H194	H	1.572048	-1.179398	0.593243
H195	H	1.657761	-1.209467	0.685514
H196	H	1.732622	-1.127830	0.630253
H197	H	1.646910	-1.097776	0.537963
H198	H	1.705601	-1.181778	0.562845
H199	H	1.494346	-0.725675	1.434854
