data_functionalizedCrystal
_audit_creation_method	'MofGen! by Chris Wilmer'
_symmetry_space_group_name_H-M	'P1'
_symmetry_Int_Tables_number	1
_symmetry_cell_setting	triclinic
loop_
_symmetry_equiv_pos_as_xyz
  x,y,z
_cell_length_a	11.169417
_cell_length_b	13.033855
_cell_length_c	11.169409
_cell_angle_alpha	97.211207
_cell_angle_beta	90.019513
_cell_angle_gamma	82.828133
loop_
_atom_site_label
_atom_site_type_symbol
_atom_site_fract_x
_atom_site_fract_y
_atom_site_fract_z
Zn1	Zn	1.895630	-0.415909	0.617900
Zn2	Zn	2.228964	-0.082576	0.951234
Zn3	Zn	2.562297	0.250758	1.284567
Zn4	Zn	1.921015	-0.590694	0.391737
Zn5	Zn	2.254349	-0.257361	0.725070
Zn6	Zn	2.587682	0.075972	1.058403
Zn7	Zn	1.694926	-0.415974	0.417226
Zn8	Zn	2.028259	-0.082640	0.750560
Zn9	Zn	2.361592	0.250693	1.083893
Zn10	Zn	1.720407	-0.590610	0.592395
Zn11	Zn	2.053740	-0.257277	0.925728
Zn12	Zn	2.387074	0.076056	1.259061
O13	O	1.807995	-0.503297	0.504814
O14	O	2.141328	-0.169963	0.838148
O15	O	2.474661	0.163370	1.171481
O16	O	2.066949	-0.439103	0.587906
O17	O	2.400282	-0.105769	0.921239
O18	O	2.733615	0.227564	1.254573
O19	O	1.890984	-0.567579	0.227159
O20	O	2.224317	-0.234246	0.560492
O21	O	2.557650	0.099087	0.893826
O22	O	1.700262	-0.269731	0.465188
O23	O	2.033595	0.063603	0.798521
O24	O	2.366928	0.396936	1.131855
O25	O	2.085599	-0.567517	0.421744
O26	O	2.418932	-0.234183	0.755078
O27	O	2.752265	0.099150	1.088411
O28	O	1.847719	-0.269683	0.612622
O29	O	2.181052	0.063650	0.945956
O30	O	2.514385	0.396984	1.279289
O31	O	1.724877	-0.439213	0.245886
O32	O	2.058210	-0.105880	0.579220
O33	O	2.391543	0.227454	0.912553
O34	O	1.530355	-0.439132	0.440456
O35	O	1.863688	-0.105798	0.773790
O36	O	2.197022	0.227535	1.107123
O37	O	1.743691	-0.567374	0.763737
O38	O	2.077025	-0.234040	1.097070
O39	O	2.410358	0.099293	1.430404
O40	O	1.549076	-0.567436	0.569152
O41	O	1.882409	-0.234103	0.902485
O42	O	2.215743	0.099230	1.235818
O43	O	1.872427	-0.439021	0.782476
O44	O	2.205760	-0.105688	1.115809
O45	O	2.539094	0.227646	1.449143
O46	O	1.915692	-0.736918	0.397012
O47	O	2.249025	-0.403584	0.730346
O48	O	2.582359	-0.070251	1.063679
O49	O	1.768306	-0.736856	0.544435
O50	O	2.101639	-0.403523	0.877769
O51	O	2.434973	-0.070189	1.211102
C52	C	1.496168	-0.503283	0.504803
C53	C	1.829501	-0.169949	0.838136
C54	C	2.162835	0.163384	1.171469
C55	C	1.362771	-0.503302	0.504823
C56	C	1.696104	-0.169969	0.838156
C57	C	2.029437	0.163365	1.171489
C58	C	1.847551	-0.774804	0.465216
C59	C	2.180885	-0.441470	0.798550
C60	C	2.514218	-0.108137	1.131883
C61	C	1.864584	-0.890955	0.448316
C62	C	2.197917	-0.557622	0.781650
C63	C	2.531250	-0.224289	1.114983
C64	C	1.799199	-0.942744	0.513659
C65	C	2.132532	-0.609410	0.846992
C66	C	2.465866	-0.276077	1.180325
C67	C	1.816801	-1.062792	0.496193
C68	C	2.150135	-0.729459	0.829527
C69	C	2.483468	-0.396126	1.162860
C70	C	2.121039	-0.503312	0.504827
C71	C	2.454372	-0.169978	0.838160
C72	C	2.787706	0.163355	1.171493
C73	C	2.254440	-0.503318	0.504832
C74	C	2.587773	-0.169985	0.838165
C75	C	2.921107	0.163349	1.171499
C76	C	1.808070	-0.503181	0.817874
C77	C	2.141403	-0.169847	1.151207
C78	C	2.474736	0.163486	1.484541
C79	C	1.808102	-0.503131	0.951281
C80	C	2.141435	-0.169798	1.284615
C81	C	2.474769	0.163535	1.617948
C82	C	1.768316	-0.230730	0.544594
C83	C	2.101649	0.102604	0.877927
C84	C	2.434983	0.435937	1.211260
C85	C	1.751408	-0.114578	0.561545
C86	C	2.084741	0.218755	0.894878
C87	C	2.418074	0.552089	1.228212
C88	C	1.807978	-0.503337	0.192984
C89	C	2.141311	-0.170004	0.526317
C90	C	2.474644	0.163330	0.859651
C91	C	1.808135	-0.503092	0.059620
C92	C	2.141469	-0.169759	0.392954
C93	C	2.474802	0.163575	0.726287
H94	H	1.730184	-0.898208	0.582527
H95	H	2.063518	-0.564875	0.915861
H96	H	2.396851	-0.231541	1.249194
H97	H	1.885812	-1.107326	0.427313
H98	H	2.219145	-0.773993	0.760646
H99	H	2.552479	-0.440660	1.093979
C100	C	1.957811	-0.951107	0.355270
C101	C	2.291144	-0.617774	0.688603
C102	C	2.624477	-0.284441	1.021936
H103	H	1.996544	-0.903048	0.316533
H104	H	2.329877	-0.569715	0.649866
H105	H	2.663210	-0.236382	0.983200
H106	H	2.016267	-0.993617	0.395081
H107	H	2.349601	-0.660284	0.728415
H108	H	2.682934	-0.326951	1.061748
H109	H	1.918125	-0.993753	0.296771
H110	H	2.251459	-0.660420	0.630105
H111	H	2.584792	-0.327087	0.963438
H112	H	1.682388	-1.070045	0.630418
H113	H	2.015722	-0.736712	0.963751
H114	H	2.349055	-0.403378	1.297085
