data_functionalizedCrystal
_audit_creation_method	'MofGen! by Chris Wilmer'
_symmetry_space_group_name_H-M	'P1'
_symmetry_Int_Tables_number	1
_symmetry_cell_setting	triclinic
loop_
_symmetry_equiv_pos_as_xyz
  x,y,z
_cell_length_a	8.597213
_cell_length_b	22.010155
_cell_length_c	23.532409
_cell_angle_alpha	89.995165
_cell_angle_beta	84.099699
_cell_angle_gamma	97.716181
loop_
_atom_site_label
_atom_site_type_symbol
_atom_site_fract_x
_atom_site_fract_y
_atom_site_fract_z
O1	O	2.081227	0.159466	0.084976
O2	O	1.624172	0.135541	0.091499
O3	O	1.866480	0.148226	0.005411
O4	O	1.838919	0.146781	0.171064
O5	O	1.866410	0.047172	0.005420
O6	O	1.624102	0.034487	0.091509
O7	O	2.081156	0.058412	0.084986
Cu8	Cu	1.852623	0.037222	0.088248
Cu9	Cu	1.852706	0.156731	0.088236
O10	O	1.838849	0.045727	0.171074
C11	C	1.565674	0.081954	0.090804
C12	C	1.391472	0.072836	0.088711
N13	N	1.852576	-0.046832	0.088256
C14	C	1.758032	-0.344386	0.053144
C15	C	1.758018	-0.280779	0.053147
O16	O	1.677574	-0.252092	0.023295
N17	N	1.852638	-0.244013	0.088238
C18	C	1.947290	-0.270857	0.123326
O19	O	2.027771	-0.233744	0.153174
C20	C	1.947311	-0.334462	0.123320
C21	C	1.852673	-0.371226	0.088230
C22	C	1.663403	-0.381149	0.018057
C23	C	1.663415	-0.444751	0.018056
C24	C	1.758056	-0.471591	0.053141
C25	C	1.852685	-0.434828	0.088228
C26	C	2.041970	-0.361304	0.158403
C27	C	2.041984	-0.424914	0.158394
C28	C	1.947346	-0.461678	0.123305
C29	C	1.947338	-0.525270	0.123313
N30	N	1.852718	-0.562036	0.088221
C31	C	1.758077	-0.535196	0.053135
C32	C	1.947240	-0.137282	0.123335
C33	C	1.947211	-0.073678	0.123344
C34	C	1.757942	-0.083604	0.053164
C35	C	1.757963	-0.147210	0.053158
C36	C	1.852620	-0.174047	0.088243
C37	C	1.758109	-0.668766	0.053135
C38	C	1.758124	-0.732374	0.053138
C39	C	1.947400	-0.722442	0.123316
C40	C	1.947378	-0.658840	0.123315
C41	C	1.852729	-0.632004	0.088220
O42	O	2.027746	-0.554000	0.153148
O43	O	1.677625	-0.572315	0.023287
C44	C	2.139655	0.112000	0.085681
C45	C	2.313856	0.121123	0.087773
C46	C	1.865743	0.097663	-0.015806
C47	C	1.863631	0.097557	-0.079039
N48	N	1.852765	0.240786	0.088224
C49	C	1.854689	0.152174	-0.352358
C50	C	1.856650	0.152277	-0.292943
O51	O	1.857751	0.199179	-0.262214
N52	N	1.857582	0.097242	-0.263228
C53	C	1.856569	0.042102	-0.292932
O54	O	1.857544	-0.004699	-0.262201
C55	C	1.854620	0.042001	-0.352346
C56	C	1.853671	0.097038	-0.382057
C57	C	1.853742	0.207207	-0.382069
C58	C	1.851778	0.207104	-0.441480
C59	C	1.850761	0.151968	-0.471180
C60	C	1.851707	0.096935	-0.441468
C61	C	1.853618	-0.013138	-0.382050
C62	C	1.851670	-0.013235	-0.441468
C63	C	1.850721	0.041802	-0.471179
C64	C	1.848726	0.041696	-0.530579
N65	N	1.847794	0.096730	-0.560294
C66	C	1.848811	0.151867	-0.530594
C67	C	1.860667	0.042320	-0.168157
C68	C	1.862605	0.042420	-0.108743
C69	C	1.862688	0.152595	-0.108759
C70	C	1.860739	0.152494	-0.168173
C71	C	1.859734	0.097355	-0.197872
C72	C	1.844686	0.151646	-0.655361
C73	C	1.842715	0.151537	-0.714777
C74	C	1.842640	0.041363	-0.714757
C75	C	1.844602	0.041470	-0.655346
C76	C	1.845630	0.096617	-0.625650
O77	O	1.847630	-0.005182	-0.561345
O78	O	1.847857	0.198661	-0.561333
C79	C	1.839586	0.096291	0.192290
C80	C	1.841698	0.096401	0.255523
H81	H	1.380673	0.169437	0.088575
N82	N	1.307627	0.012224	0.087718
N83	N	1.161487	0.004654	0.085965
H84	H	1.102268	-0.038152	0.085265
N85	N	1.566689	-0.353742	-0.017775
N86	N	1.462559	-0.323726	0.003868
H87	H	1.394238	-0.304374	-0.021436
N88	N	1.661430	-0.769918	0.017293
N89	N	1.576939	-0.745941	-0.014030
H90	H	1.508650	-0.772454	-0.039346
N91	N	1.661444	-0.641368	0.017275
N92	N	1.576982	-0.674209	-0.014053
H93	H	1.508715	-0.654860	-0.039381
H94	H	1.586357	-0.474679	-0.010520
N95	N	2.043849	-0.036122	0.159192
N96	N	1.981975	-0.003880	0.196491
H97	H	2.050233	0.022644	0.221808
N98	N	1.661279	-0.184751	0.017314
N99	N	1.576781	-0.160772	-0.014005
H100	H	1.508494	-0.187282	-0.039323
N101	N	1.661272	-0.056172	0.017328
N102	N	1.661282	0.000619	0.017341
H103	H	1.593012	0.019996	-0.007966
H104	H	2.024316	-0.159129	0.151910
H105	H	2.119038	-0.331382	0.186976
H106	H	1.863347	-0.002398	-0.084556
N107	N	2.138696	-0.452317	0.194234
N108	N	2.223181	-0.419480	0.225557
H109	H	2.291483	-0.438831	0.250870
N110	N	2.044036	-0.621284	0.159160
N111	N	1.982196	-0.589036	0.196461
H112	H	2.050478	-0.562517	0.221774
H113	H	2.024450	-0.744307	0.151883
N114	N	1.841735	0.207764	-0.745116
N115	N	1.842645	0.256988	-0.718587
H116	H	1.841953	0.296698	-0.740012
H117	H	1.854407	-0.057955	-0.357870
N118	N	1.845745	0.207981	-0.625042
N119	N	1.844902	0.257110	-0.651587
H120	H	1.845644	0.296897	-0.630174
H121	H	1.851017	0.251922	-0.465666
H122	H	1.845312	-0.003349	-0.631152
H123	H	1.854576	0.252109	-0.357894
N124	N	1.859766	0.208718	-0.198511
N125	N	1.860665	0.257939	-0.171978
H126	H	1.859979	0.297651	-0.193401
H127	H	1.863511	0.197490	-0.084566
H128	H	1.859835	-0.002585	-0.192334
H129	H	1.850853	-0.058137	-0.465646
N130	N	1.841589	-0.014950	-0.745109
N131	N	1.839843	-0.015027	-0.798157
H132	H	1.839109	-0.054798	-0.819596
