data_functionalizedCrystal
_audit_creation_method	'MofGen! by Chris Wilmer'
_symmetry_space_group_name_H-M	'P1'
_symmetry_Int_Tables_number	1
_symmetry_cell_setting	triclinic
loop_
_symmetry_equiv_pos_as_xyz
  x,y,z
_cell_length_a	14.971482
_cell_length_b	10.967829
_cell_length_c	14.048226
_cell_angle_alpha	77.865708
_cell_angle_beta	89.994098
_cell_angle_gamma	84.173805
loop_
_atom_site_label
_atom_site_type_symbol
_atom_site_fract_x
_atom_site_fract_y
_atom_site_fract_z
O1	O	1.187825	0.162598	-0.105819
O2	O	0.927529	0.182076	-0.109018
O3	O	1.063678	-0.009306	-0.077618
O4	O	1.051675	0.353980	-0.137219
O5	O	1.063661	-0.009317	0.080705
O6	O	0.927512	0.182065	0.049305
O7	O	1.187808	0.162586	0.052505
Zn8	Zn	1.057658	0.172324	0.076042
Zn9	Zn	1.057679	0.172339	-0.132556
O10	O	1.051659	0.353968	0.021104
C11	C	0.894191	0.181201	-0.029715
C12	C	0.794880	0.178593	-0.029288
C13	C	0.748220	0.177358	0.057216
C14	C	0.654908	0.174888	0.057623
C15	C	0.608257	0.173661	-0.028478
C16	C	0.654924	0.174891	-0.114989
C17	C	0.748235	0.177353	-0.115393
C18	C	0.460435	0.169764	-0.114141
C19	C	0.367117	0.167305	-0.113738
C20	C	0.367107	0.167299	0.058874
C21	C	0.460418	0.169760	0.058470
C22	C	0.507079	0.170993	-0.028041
C23	C	1.062795	-0.055803	0.009169
C24	C	1.060179	-0.194332	0.031890
C25	C	1.059021	-0.256081	-0.039997
C26	C	1.056316	-0.399259	-0.016515
C27	C	1.221146	0.163462	-0.026801
C28	C	1.320457	0.166070	-0.027234
C29	C	1.052542	0.400466	-0.065685
C30	C	1.055158	0.538995	-0.088413
N31	N	1.057649	0.172313	0.218404
N32	N	1.057695	0.172340	-0.274917
C33	C	1.117955	0.087604	0.282121
C34	C	1.117961	0.087603	0.381779
C35	C	1.057665	0.172319	0.417717
C36	C	0.997352	0.257032	0.353993
C37	C	0.997343	0.257025	0.254338
C38	C	0.997378	0.257041	0.561706
C39	C	0.997389	0.257049	0.661367
C40	C	1.117997	0.087619	0.689146
C41	C	1.117987	0.087612	0.589491
C42	C	1.057675	0.172327	0.525774
H43	H	0.616935	0.173884	-0.185092
N44	N	1.183038	-0.003732	0.450484
H45	H	1.172224	-0.092335	0.447688
H46	H	1.246560	0.010944	0.430672
N47	N	1.060274	-0.185636	-0.144536
H48	H	1.116619	-0.141603	-0.155582
H49	H	1.059068	-0.246529	-0.189261
H50	H	0.329112	0.166295	0.129314
N51	N	0.316797	0.165988	-0.206602
H52	H	0.360514	0.167135	-0.261467
H53	H	0.284857	0.087673	-0.197507
N54	N	0.798536	0.178677	0.150082
H55	H	0.830469	0.256995	0.141081
H56	H	0.754764	0.177468	0.204899
N57	N	1.058840	-0.264697	0.136445
H58	H	1.057100	-0.357005	0.138400
H59	H	1.114620	-0.252047	0.172077
N60	N	1.183025	-0.003748	0.550724
H61	H	1.221233	-0.057415	0.606208
H62	H	1.148441	-0.058994	0.518452
H63	H	1.055300	-0.452386	0.062420
H64	H	0.616923	0.173862	0.128067
H65	H	1.056159	-0.407876	-0.167348
H66	H	1.167104	0.018641	0.741031
H67	H	0.498398	0.170767	0.128579
N68	N	1.182995	-0.003761	0.243361
H69	H	1.221198	-0.057425	0.298851
H70	H	1.148414	-0.059010	0.211089
N71	N	0.932303	0.348399	0.185612
H72	H	0.941443	0.335539	0.117029
H73	H	0.868766	0.333836	0.205439
H74	H	0.498423	0.170768	-0.184588
H75	H	0.786225	0.178361	-0.185834
N76	N	0.932365	0.348429	0.700132
H77	H	0.894154	0.402092	0.644647
H78	H	0.892540	0.300571	0.749353
N79	N	0.932325	0.348404	0.492980
H80	H	0.894130	0.402075	0.530866
H81	H	0.966901	0.403646	0.442556
N82	N	0.932322	0.348402	0.392759
H83	H	0.943161	0.436991	0.360869
H84	H	0.868779	0.333775	0.377815
