data_functionalizedCrystal
_audit_creation_method	'MofGen! by Chris Wilmer'
_symmetry_space_group_name_H-M	'P1'
_symmetry_Int_Tables_number	1
_symmetry_cell_setting	triclinic
loop_
_symmetry_equiv_pos_as_xyz
  x,y,z
_cell_length_a	16.992694
_cell_length_b	10.723024
_cell_length_c	15.455313
_cell_angle_alpha	92.691723
_cell_angle_beta	87.142206
_cell_angle_gamma	87.568046
loop_
_atom_site_label
_atom_site_type_symbol
_atom_site_fract_x
_atom_site_fract_y
_atom_site_fract_z
O1	O	1.045219	0.259622	-0.072018
O2	O	0.816920	0.256716	-0.072044
O3	O	0.936335	0.077046	-0.072027
O4	O	0.925803	0.439291	-0.072035
O5	O	0.929506	0.087275	0.072234
O6	O	0.810091	0.266945	0.072217
O7	O	1.038390	0.269851	0.072243
Cu8	Cu	0.923617	0.269332	0.085402
Cu9	Cu	0.931693	0.257235	-0.085203
O10	O	0.918974	0.449520	0.072226
C11	C	0.784273	0.258094	0.000083
C12	C	0.697169	0.246945	0.000074
C13	C	0.647507	0.354505	0.000072
C14	C	0.565663	0.344024	0.000084
C15	C	0.533484	0.225982	0.000092
C16	C	0.583152	0.118414	0.000096
C17	C	0.664993	0.128896	0.000090
C18	C	0.289651	0.182535	0.000116
C19	C	0.207803	0.172061	0.000119
C20	C	0.190320	0.397673	0.000109
C21	C	0.272165	0.408144	0.000098
C22	C	0.321825	0.300577	0.000107
N23	N	0.449827	0.215266	0.000102
N24	N	0.405480	0.311295	0.000103
C25	C	0.932154	0.035595	0.000102
C26	C	0.929861	-0.103157	0.000099
C27	C	0.996680	-0.172386	0.000105
C28	C	0.994312	-0.315793	0.000102
C29	C	1.071037	0.268473	0.000114
C30	C	1.158141	0.279621	0.000118
C31	C	0.923155	0.490971	0.000095
C32	C	0.925449	0.629723	0.000093
N33	N	0.917942	0.277840	0.205397
N34	N	0.937374	0.248717	-0.205198
C35	C	0.968692	0.201542	0.250798
C36	C	0.964408	0.207989	0.341605
C37	C	0.909377	0.290741	0.387010
C38	C	0.858622	0.367042	0.341602
C39	C	0.862903	0.360588	0.250797
C40	C	0.890899	0.318564	0.658589
C41	C	0.886624	0.325015	0.749401
C42	C	0.992409	0.165960	0.749398
C43	C	0.996689	0.159518	0.658590
C44	C	0.945931	0.235815	0.613191
N45	N	0.904999	0.297335	0.479830
N46	N	0.950306	0.229213	0.520373
H47	H	0.525232	0.431612	0.000082
O48	O	0.851760	-0.165273	0.000094
H49	H	0.820702	-0.140775	-0.058710
H50	H	1.013507	0.134162	0.213836
O51	O	1.019159	0.125721	0.390577
H52	H	1.058156	0.067114	0.343749
H53	H	0.556944	0.022302	0.000115
H54	H	0.841809	0.392407	0.786365
O55	O	1.074783	-0.110271	0.000109
H56	H	1.123369	-0.182798	0.000106
O57	O	0.173090	0.044739	0.000136
H58	H	0.221370	-0.028300	0.000150
O59	O	0.808170	0.442886	0.201821
H60	H	0.769190	0.501523	0.248647
O61	O	1.056056	0.070279	0.609625
H62	H	1.050516	0.078626	0.538854
H63	H	0.868243	-0.310778	0.000093
O64	O	1.047148	0.083659	0.798362
H65	H	1.034924	0.102037	0.869133
O66	O	1.070090	-0.394601	0.000111
H67	H	1.056339	-0.494871	0.000102
O68	O	0.836160	0.400861	0.609628
H69	H	0.845864	0.500431	0.627042
O70	O	0.682214	0.481824	0.000072
H71	H	0.633928	0.554856	0.000085
O72	O	0.306873	0.535463	0.000112
H73	H	0.258588	0.608499	0.000126
O74	O	0.799268	0.456305	0.390568
H75	H	0.804823	0.447988	0.461339
H76	H	0.149878	0.485248	0.000104
H77	H	0.705428	0.041309	0.000091
O78	O	0.343210	0.066522	0.000125
H79	H	0.307081	-0.017318	0.000124
