data_functionalizedCrystal
_audit_creation_method	'MofGen! by Chris Wilmer'
_symmetry_space_group_name_H-M	'P1'
_symmetry_Int_Tables_number	1
_symmetry_cell_setting	triclinic
loop_
_symmetry_equiv_pos_as_xyz
  x,y,z
_cell_length_a	29.839134
_cell_length_b	29.839131
_cell_length_c	14.908308
_cell_angle_alpha	93.253999
_cell_angle_beta	93.279186
_cell_angle_gamma	90.015800
loop_
_atom_site_label
_atom_site_type_symbol
_atom_site_fract_x
_atom_site_fract_y
_atom_site_fract_z
Zn1	Zn	0.672105	-0.193729	-0.510010
Zn2	Zn	0.676375	-0.264528	-0.359125
Zn3	Zn	0.601316	-0.189389	-0.359171
Zn4	Zn	0.596946	-0.268805	-0.509932
O5	O	0.636685	-0.229113	-0.434560
O6	O	0.735538	-0.203148	-0.490009
O7	O	0.670034	-0.250954	-0.232892
O8	O	0.610748	-0.127099	-0.379231
O9	O	0.738675	-0.255163	-0.379154
O10	O	0.662757	-0.130288	-0.490052
O11	O	0.614888	-0.195749	-0.232925
O12	O	0.537870	-0.199897	-0.379156
O13	O	0.603300	-0.262453	-0.636182
O14	O	0.534659	-0.258244	-0.489919
O15	O	0.658519	-0.207295	-0.636239
O16	O	0.665796	-0.327961	-0.379079
O17	O	0.607440	-0.331104	-0.489876
C18	C	0.519964	-0.229064	-0.434535
C19	C	0.470029	-0.229054	-0.434545
C20	C	0.111801	-0.202092	-0.492395
C21	C	0.299474	-0.202055	-0.492374
O22	O	0.322344	-0.179073	-0.541556
N23	N	0.324583	-0.229085	-0.434566
C24	C	0.302771	-0.256128	-0.376764
O25	O	0.328434	-0.279121	-0.327601
C26	C	0.115098	-0.256166	-0.376790
C27	C	0.089991	-0.229131	-0.434595
C28	C	0.086694	-0.175059	-0.550196
C29	C	0.039779	-0.175067	-0.550197
C30	C	0.017970	-0.202107	-0.492397
C31	C	0.043076	-0.229139	-0.434596
C32	C	0.093286	-0.283211	-0.318993
C33	C	0.046365	-0.283220	-0.319006
C34	C	0.021258	-0.256185	-0.376811
C35	C	-0.025649	-0.256187	-0.376798
N36	N	-0.050758	-0.229157	-0.434605
C37	C	-0.028948	-0.202117	-0.492405
C38	C	0.401302	-0.256105	-0.376753
C39	C	0.448220	-0.256094	-0.376745
C40	C	0.444920	-0.202022	-0.492357
C41	C	0.398001	-0.202030	-0.492359
C42	C	0.376193	-0.229075	-0.434561
C43	C	-0.127474	-0.202135	-0.492402
C44	C	-0.174394	-0.202143	-0.492396
C45	C	-0.171090	-0.256217	-0.376788
C46	C	-0.124174	-0.256207	-0.376791
C47	C	-0.102368	-0.229165	-0.434606
O48	O	-0.048548	-0.279161	-0.327649
O49	O	-0.054619	-0.179135	-0.541575
C50	C	0.158716	-0.202084	-0.492394
C51	C	0.183822	-0.229116	-0.434593
C52	C	0.162013	-0.256156	-0.376793
C53	C	0.230740	-0.229106	-0.434585
C54	C	0.252550	-0.202066	-0.492385
C55	C	0.227441	-0.175036	-0.550192
C56	C	0.180525	-0.175044	-0.550193
C57	C	0.187122	-0.283186	-0.318985
C58	C	0.234038	-0.283176	-0.318988
C59	C	0.255847	-0.256136	-0.376788
C60	C	0.636619	-0.345833	-0.434483
C61	C	0.636631	-0.395768	-0.434481
C62	C	0.663758	-0.707041	-0.492346
C63	C	0.663805	-0.894716	-0.492400
O64	O	0.686803	-0.920365	-0.541543
N65	N	0.636759	-0.916558	-0.434660
C66	C	0.609697	-0.891478	-0.376905
O67	O	0.586690	-0.914362	-0.327801
C68	C	0.609648	-0.703805	-0.376856
C69	C	0.636699	-0.681965	-0.434595
C70	C	0.690806	-0.685202	-0.550080
C71	C	0.690796	-0.638286	-0.550063
C72	C	0.663737	-0.613209	-0.492311
C73	C	0.636689	-0.635049	-0.434577
C74	C	0.582584	-0.678726	-0.319107
C75	C	0.582573	-0.631805	-0.319102
C76	C	0.609624	-0.609965	-0.376840
C77	C	0.609620	-0.563057	-0.376808
N78	N	0.636666	-0.541215	-0.434548
C79	C	0.663724	-0.566291	-0.492300
C80	C	0.609725	-0.990010	-0.376934
C81	C	0.609738	-1.036928	-0.376945
C82	C	0.663846	-1.040162	-0.492441
C83	C	0.663835	-0.993243	-0.492425
C84	C	0.636771	-0.968168	-0.434675
C85	C	0.663701	-0.467764	-0.492258
C86	C	0.663690	-0.420844	-0.492233
C87	C	0.609581	-0.417614	-0.376740
C88	C	0.609594	-0.464530	-0.376762
C89	C	0.636655	-0.489604	-0.434528
O90	O	0.586629	-0.537379	-0.327698
O91	O	0.686720	-0.543399	-0.541411
C92	C	0.663768	-0.753957	-0.492364
C93	C	0.636719	-0.775797	-0.434630
C94	C	0.609661	-0.750721	-0.376878
C95	C	0.636732	-0.822715	-0.434641
C96	C	0.663791	-0.847791	-0.492392
C97	C	0.690837	-0.825950	-0.550133
C98	C	0.690827	-0.779034	-0.550116
C99	C	0.582615	-0.772563	-0.319137
C100	C	0.582627	-0.819479	-0.319159
C101	C	0.609686	-0.844555	-0.376910
C102	C	0.753863	-0.229162	-0.434585
C103	C	0.803797	-0.229183	-0.434596
C104	C	0.629946	-0.235836	-0.669859
C105	C	0.627074	-0.238700	-0.770129
C106	C	0.636764	-0.111937	-0.434656
C107	C	0.636797	-0.062004	-0.434697
C108	C	0.679176	-0.186637	-0.958609
C109	C	0.676479	-0.189327	-1.052822
C110	C	0.618981	-0.246768	-1.052770
C111	C	0.621678	-0.244078	-0.958557
C112	C	0.651777	-0.214012	-0.911480
C113	C	0.654476	-0.211324	-0.817265
C114	C	0.596977	-0.268763	-0.817214
C115	C	0.594280	-0.271453	-0.911427
C116	C	0.643424	-0.222384	-0.200176
C117	C	0.646383	-0.219393	-0.099906
H118	H	0.254476	-0.305190	-0.271908
F119	F	0.553811	-0.745881	-0.257670
H120	H	0.685862	-0.975464	-0.539441
H121	H	0.462685	-0.180004	-0.539418
H122	H	0.574667	-0.291055	-0.778832
F123	F	0.562247	-0.303449	-0.961540
H124	H	0.560533	-0.611390	-0.272075
H125	H	0.169370	-0.305206	-0.271918
H126	H	0.587570	-0.482312	-0.329739
H127	H	0.685720	-0.403064	-0.539250
H128	H	0.703686	-0.162158	-0.920279
H129	H	0.245206	-0.153018	-0.597251
H130	H	0.160088	-0.153029	-0.597264
F131	F	0.692644	-1.066858	-0.553905
H132	H	0.712854	-0.761255	-0.597132
H133	H	0.560600	-0.837256	-0.272133
F134	F	0.371285	-0.173257	-0.553884
H135	H	0.712841	-0.705614	-0.597114
F136	F	0.719585	-0.615049	-0.611522
H137	H	-0.103731	-0.278217	-0.329714
F138	F	0.580785	-0.390917	-0.315279
H139	H	0.587716	-1.054705	-0.329919
H140	H	-0.194833	-0.180126	-0.539467
F141	F	0.705640	-0.160191	-1.102978
H142	H	0.685734	-0.488175	-0.539303
F143	F	-0.194309	-0.284992	-0.315274
F144	F	0.586948	-0.278761	-1.102888
H145	H	-0.109725	-0.180114	-0.539480
H146	H	0.587687	-0.969596	-0.329904
H147	H	0.560556	-0.696499	-0.272090
H148	H	0.712871	-0.846375	-0.597154
H149	H	0.019341	-0.153054	-0.597272
H150	H	0.678985	-0.186844	-0.778936
H151	H	0.468658	-0.278104	-0.329665
F152	F	0.109898	-0.146278	-0.611722
H153	H	0.383550	-0.278128	-0.329683
H154	H	0.113720	-0.305226	-0.271922
H155	H	0.028611	-0.305244	-0.271941
