data_functionalizedCrystal
_audit_creation_method	'MofGen! by Chris Wilmer'
_symmetry_space_group_name_H-M	'P1'
_symmetry_Int_Tables_number	1
_symmetry_cell_setting	triclinic
loop_
_symmetry_equiv_pos_as_xyz
  x,y,z
_cell_length_a	12.827893
_cell_length_b	12.827892
_cell_length_c	21.395356
_cell_angle_alpha	90.022309
_cell_angle_beta	90.021602
_cell_angle_gamma	90.015553
loop_
_atom_site_label
_atom_site_type_symbol
_atom_site_fract_x
_atom_site_fract_y
_atom_site_fract_z
Zn1	Zn	1.597694	-0.416055	0.354252
Zn2	Zn	2.097694	0.083945	0.854252
Zn3	Zn	1.597581	-0.590810	0.249484
Zn4	Zn	2.097581	-0.090810	0.749484
Zn5	Zn	1.422928	-0.416084	0.249492
Zn6	Zn	1.922928	0.083916	0.749492
Zn7	Zn	1.422920	-0.590755	0.354228
Zn8	Zn	1.922920	-0.090755	0.854228
O9	O	1.510281	-0.503426	0.301864
O10	O	2.010281	-0.003426	0.801864
O11	O	1.743915	-0.439247	0.340361
O12	O	2.243915	0.060753	0.840361
O13	O	1.574368	-0.567667	0.161807
O14	O	2.074368	-0.067667	0.661807
O15	O	1.446161	-0.269844	0.263402
O16	O	1.946161	0.230156	0.763402
O17	O	1.743832	-0.567639	0.263388
O18	O	2.243832	-0.067639	0.763388
O19	O	1.574561	-0.269823	0.340368
O20	O	2.074561	0.230177	0.840368
O21	O	1.446052	-0.439296	0.161813
O22	O	1.946052	0.060704	0.661813
O23	O	1.276691	-0.439243	0.263379
O24	O	1.776691	0.060757	0.763379
O25	O	1.446148	-0.567546	0.441909
O26	O	1.946148	-0.067546	0.941909
O27	O	1.276685	-0.567574	0.340328
O28	O	1.776685	-0.067574	0.840328
O29	O	1.574554	-0.439195	0.441926
O30	O	2.074554	0.060805	0.941926
O31	O	1.574361	-0.737038	0.263365
O32	O	2.074361	-0.237038	0.763365
O33	O	1.446039	-0.736998	0.340320
O34	O	1.946039	-0.236998	0.840320
C35	C	1.238771	-0.503407	0.301852
C36	C	1.738771	-0.003407	0.801852
C37	C	1.122618	-0.503424	0.301862
C38	C	1.622618	-0.003424	0.801862
C39	C	1.070874	-0.440004	0.340009
C40	C	1.570874	0.059996	0.840009
C41	C	0.950823	-0.440020	0.340020
C42	C	1.450823	0.059980	0.840020
C43	C	1.510215	-0.774936	0.301853
C44	C	2.010215	-0.274936	0.801853
C45	C	1.510283	-0.891089	0.301869
C46	C	2.010283	-0.391089	0.801869
C47	C	1.573856	-0.942859	0.263832
C48	C	2.073856	-0.442859	0.763832
C49	C	1.573928	-1.062909	0.263847
C50	C	2.073928	-0.562909	0.763847
C51	C	1.782851	-0.503446	0.301876
C52	C	2.282851	-0.003446	0.801876
C53	C	1.899004	-0.503455	0.301881
C54	C	2.399004	-0.003455	0.801881
C55	C	1.510363	-0.503361	0.465287
C56	C	2.010363	-0.003361	0.965287
C57	C	1.510398	-0.503334	0.534928
C58	C	2.010398	-0.003334	1.034928
C59	C	1.510375	-0.230856	0.301889
C60	C	2.010375	0.269144	0.801889
C61	C	1.510415	-0.114703	0.301899
C62	C	2.010415	0.385297	0.801899
C63	C	1.510259	-0.503415	0.139076
C64	C	2.010259	-0.003415	0.639076
C65	C	1.510426	-0.503148	0.069435
C66	C	2.010426	-0.003148	0.569435
C67	C	1.443601	-0.436484	0.567635
C68	C	1.943601	0.063516	1.067635
C69	C	1.443598	-0.436464	0.633070
C70	C	1.943598	0.063536	1.133070
C71	C	1.510409	-0.503284	0.665797
C72	C	2.010409	-0.003284	1.165797
C73	C	1.577211	-0.570147	0.633083
C74	C	2.077211	-0.070147	1.133083
C75	C	1.577205	-0.570172	0.567648
C76	C	2.077205	-0.070172	1.067648
C77	C	1.604567	-0.511499	0.769482
C78	C	2.104567	-0.011499	1.269482
C79	C	1.604574	-0.511467	0.834915
C80	C	2.104574	-0.011467	1.334915
C81	C	1.510427	-0.503213	0.867618
C82	C	2.010427	-0.003213	1.367618
C83	C	1.416269	-0.494970	0.834880
C84	C	1.916269	0.005030	1.334880
C85	C	1.416263	-0.494994	0.769445
C86	C	1.916263	0.005006	1.269445
C87	C	1.510423	-0.503265	0.736749
C88	C	2.010423	-0.003265	1.236749
C89	C	1.443620	-0.436339	0.971277
C90	C	1.943620	0.063661	1.471277
C91	C	1.443615	-0.436327	1.036713
C92	C	1.943615	0.063673	1.536713
C93	C	1.577237	-0.570004	1.036724
C94	C	2.077237	-0.070004	1.536724
C95	C	1.577233	-0.570021	0.971289
C96	C	2.077233	-0.070021	1.471289
C97	C	1.510426	-0.503183	0.938569
C98	C	2.010426	-0.003183	1.438569
H99	H	0.943496	-0.557759	0.269224
H100	H	1.443496	-0.057759	0.769224
F101	F	1.645066	-1.121097	0.221278
F102	F	2.145066	-0.621097	0.721278
H103	H	1.339605	-0.488241	0.861505
H104	H	1.839605	0.011759	1.361505
H105	H	1.389221	-0.381916	0.944635
H106	H	1.889221	0.118084	1.444635
H107	H	1.078041	-0.557729	0.269209
H108	H	1.578041	-0.057729	0.769209
H109	H	1.389214	-0.381893	1.063342
H110	H	1.889214	0.118107	1.563342
H111	H	1.631639	-0.624408	1.063370
H112	H	2.131639	-0.124408	1.563370
F113	F	1.648312	-0.641265	0.667913
F114	F	2.148312	-0.141265	1.167913
F115	F	0.892664	-0.369054	0.382714
F116	F	1.392664	0.130946	0.882714
F117	F	1.644936	-0.884628	0.221253
F118	F	2.144936	-0.384628	0.721253
H119	H	1.455980	-1.070189	0.334464
H120	H	1.955980	-0.570189	0.834464
H121	H	1.631629	-0.624455	0.944659
H122	H	2.131629	-0.124455	1.444659
H123	H	1.455913	-0.935643	0.334448
H124	H	1.955913	-0.435643	0.834448
H125	H	1.631603	-0.624608	0.541019
H126	H	2.131603	-0.124608	1.041019
F127	F	1.372495	-0.365352	0.532815
F128	F	1.872495	0.134648	1.032815
F129	F	1.372518	-0.365293	0.667886
F130	F	1.872518	0.134707	1.167886
F131	F	1.316056	-0.486226	0.734606
F132	F	1.816056	0.013774	1.234606
H133	H	1.681243	-0.518175	0.861565
H134	H	2.181243	-0.018175	1.361565
F135	F	1.704778	-0.520292	0.734683
F136	F	2.204778	-0.020292	1.234683
H137	H	1.115451	-0.385693	0.372659
H138	H	1.615451	0.114307	0.872659
