data_functionalizedCrystal
_audit_creation_method	'MofGen! by Chris Wilmer'
_symmetry_space_group_name_H-M	'P1'
_symmetry_Int_Tables_number	1
_symmetry_cell_setting	triclinic
loop_
_symmetry_equiv_pos_as_xyz
  x,y,z
_cell_length_a	16.120484
_cell_length_b	12.759401
_cell_length_c	12.759393
_cell_angle_alpha	89.982620
_cell_angle_beta	92.862621
_cell_angle_gamma	92.925560
loop_
_atom_site_label
_atom_site_type_symbol
_atom_site_fract_x
_atom_site_fract_y
_atom_site_fract_z
Zn1	Zn	-0.331851	1.584960	-0.615146
Zn2	Zn	0.168149	2.084960	-0.115146
Zn3	Zn	-0.471289	1.575915	-0.448359
Zn4	Zn	0.028711	2.075915	0.051641
Zn5	Zn	-0.331895	1.409262	-0.439488
Zn6	Zn	0.168105	1.909262	0.060512
Zn7	Zn	-0.471225	1.400312	-0.623996
Zn8	Zn	0.028775	1.900312	-0.123996
O9	O	-0.401565	1.492612	-0.531747
O10	O	0.098435	1.992612	-0.031747
O11	O	-0.350357	1.730780	-0.593029
O12	O	0.149643	2.230780	-0.093029
O13	O	-0.452844	1.553768	-0.300164
O14	O	0.047156	2.053768	0.199836
O15	O	-0.215224	1.440101	-0.455373
O16	O	0.284776	1.940101	0.044627
O17	O	-0.452801	1.724135	-0.470492
O18	O	0.047199	2.224135	0.029508
O19	O	-0.215192	1.569185	-0.584428
O20	O	0.284808	2.069185	-0.084428
O21	O	-0.350432	1.431330	-0.293646
O22	O	0.149568	1.931330	0.206354
O23	O	-0.350369	1.261055	-0.463955
O24	O	0.149631	1.761055	0.036045
O25	O	-0.452691	1.424845	-0.769840
O26	O	0.047309	1.924845	-0.269840
O27	O	-0.452734	1.254478	-0.599512
O28	O	0.047266	1.754478	-0.099512
O29	O	-0.350294	1.560505	-0.763338
O30	O	0.149706	2.060505	-0.263338
O31	O	-0.587946	1.545089	-0.479074
O32	O	-0.087946	2.045089	0.020926
O33	O	-0.587899	1.416074	-0.608114
O34	O	-0.087899	1.916074	-0.108114
C35	C	-0.401550	1.219646	-0.531732
C36	C	0.098450	1.719646	-0.031732
C37	C	-0.401563	1.102868	-0.531751
C38	C	0.098437	1.602868	-0.031751
C39	C	-0.618172	1.478657	-0.545539
C40	C	-0.118172	1.978657	-0.045539
C41	C	-0.710838	1.472783	-0.551475
C42	C	-0.210838	1.972783	-0.051475
C43	C	-0.454950	1.044604	-0.602230
C44	C	0.045050	1.544604	-0.102230
C45	C	-0.454961	0.934879	-0.602242
C46	C	0.045039	1.434879	-0.102242
C47	C	-0.348196	0.941693	-0.461287
C48	C	0.151804	1.441693	0.038713
C49	C	-0.348181	1.051416	-0.461281
C50	C	0.151819	1.551416	0.038719
C51	C	-0.508332	1.096056	-0.672701
C52	C	-0.008332	1.596056	-0.172701
C53	C	-0.561724	1.037792	-0.743185
C54	C	-0.061724	1.537792	-0.243185
C55	C	-0.561734	0.928067	-0.743197
C56	C	-0.061734	1.428067	-0.243197
C57	C	-0.508353	0.876607	-0.672725
C58	C	-0.008353	1.376607	-0.172725
C59	C	-0.880498	1.462065	-0.562333
C60	C	-0.380498	1.962065	-0.062333
C61	C	-0.921791	1.523347	-0.501178
C62	C	-0.421791	2.023347	-0.001178
C63	C	-1.016197	1.517384	-0.507219
C64	C	-0.516197	2.017384	-0.007219
C65	C	-0.786085	1.468028	-0.556293
C66	C	-0.286085	1.968028	-0.056293
C67	C	-0.184112	1.506650	-0.517924
C68	C	0.315888	2.006650	-0.017924
C69	C	-0.091447	1.512632	-0.512033
C70	C	0.408553	2.012632	-0.012033
C71	C	-0.401480	1.492686	-0.805775
C72	C	0.098520	1.992686	-0.305775
C73	C	-0.401444	1.492717	-0.922549
C74	C	0.098556	1.992717	-0.422549
C75	C	-0.401581	1.766644	-0.531763
C76	C	0.098419	2.266644	-0.031763
C77	C	-0.401588	1.883421	-0.531770
C78	C	0.098412	2.383421	-0.031770
C79	C	-0.348108	1.428993	-0.974023
C80	C	0.151892	1.928993	-0.474023
C81	C	-0.348083	1.429026	-1.083746
C82	C	0.151917	1.929026	-0.583746
C83	C	-0.454733	1.556517	-1.090511
C84	C	0.045267	2.056517	-0.590511
C85	C	-0.454761	1.556478	-0.980791
C86	C	0.045239	2.056478	-0.480791
C87	C	-0.294791	1.365232	-0.915782
C88	C	0.205209	1.865232	-0.415782
C89	C	-0.241450	1.301503	-0.967256
C90	C	0.258550	1.801503	-0.467256
C91	C	-0.241426	1.301536	-1.076978
C92	C	0.258574	1.801536	-0.576978
C93	C	-0.294742	1.365299	-1.135227
C94	C	0.205258	1.865299	-0.635227
C95	C	-0.401590	1.492603	-0.258781
C96	C	0.098410	1.992603	0.241219
C97	C	-0.401391	1.492790	-0.141992
C98	C	0.098609	1.992790	0.358008
H99	H	-0.508331	1.185399	-0.672697
H100	H	-0.008331	1.685399	-0.172697
H101	H	-0.886243	1.580290	-0.444282
H102	H	-0.386243	2.080290	0.055718
H103	H	-0.294719	1.365318	-1.224570
H104	H	0.205281	1.865318	-0.724570
H105	H	-0.294804	1.365200	-0.826440
H106	H	0.205196	1.865200	-0.326440
H107	H	-0.605179	1.079698	-0.800566
H108	H	-0.105179	1.579698	-0.300566
H109	H	-0.605202	0.880631	-0.800595
H110	H	-0.105202	1.380631	-0.300595
H111	H	-0.508359	0.787262	-0.672749
H112	H	-0.008359	1.287262	-0.172749
H113	H	-0.916045	1.405125	-0.619223
H114	H	-0.416045	1.905125	-0.119223
H115	H	-0.198047	1.249584	-0.919823
H116	H	0.301953	1.749584	-0.419823
H117	H	-0.304736	0.899785	-0.403912
H118	H	0.195264	1.399785	0.096088
H119	H	-0.304703	1.098856	-0.403898
H120	H	0.195297	1.598856	0.096102
H121	H	-0.197998	1.249638	-1.118885
H122	H	0.302002	1.749638	-0.618885
H123	H	-0.498138	1.608432	-1.137946
H124	H	0.001862	2.108432	-0.637946
H125	H	-0.498181	1.608383	-0.938879
H126	H	0.001819	2.108383	-0.438879
