data_functionalizedCrystal
_audit_creation_method	'MofGen! by Chris Wilmer'
_symmetry_space_group_name_H-M	'P1'
_symmetry_Int_Tables_number	1
_symmetry_cell_setting	triclinic
loop_
_symmetry_equiv_pos_as_xyz
  x,y,z
_cell_length_a	17.640112
_cell_length_b	29.839131
_cell_length_c	17.640968
_cell_angle_alpha	101.240120
_cell_angle_beta	87.860920
_cell_angle_gamma	101.262129
loop_
_atom_site_label
_atom_site_type_symbol
_atom_site_fract_x
_atom_site_fract_y
_atom_site_fract_z
Zn1	Zn	1.247773	-0.012909	0.195077
Zn2	Zn	1.747773	0.487091	0.695077
Zn3	Zn	1.221962	-0.105604	0.068070
Zn4	Zn	1.721962	0.394396	0.568070
Zn5	Zn	1.095092	-0.042135	0.093715
Zn6	Zn	1.595092	0.457865	0.593715
Zn7	Zn	1.120706	-0.099690	0.220653
Zn8	Zn	1.620706	0.400310	0.720653
O9	O	1.171383	-0.065084	0.144379
O10	O	1.671383	0.434916	0.644379
O11	O	1.350622	-0.015449	0.156792
O12	O	1.850622	0.484551	0.656792
O13	O	1.183611	-0.111891	-0.034805
O14	O	1.683611	0.388109	0.465195
O15	O	1.115428	0.024622	0.107189
O16	O	1.615428	0.524622	0.607189
O17	O	1.331660	-0.083552	0.063481
O18	O	1.831660	0.416448	0.563481
O19	O	1.227601	0.046094	0.181659
O20	O	1.727601	0.546094	0.681659
O21	O	1.090400	-0.065260	-0.015964
O22	O	1.590400	0.434740	0.484036
O23	O	0.992216	-0.059526	0.131990
O24	O	1.492216	0.440474	0.631990
O25	O	1.159083	-0.073472	0.323538
O26	O	1.659083	0.426528	0.823538
O27	O	1.011034	-0.101811	0.225251
O28	O	1.511034	0.398189	0.725251
O29	O	1.252438	-0.009715	0.304746
O30	O	1.752438	0.490285	0.804746
O31	O	1.208448	-0.167699	0.088282
O32	O	1.708448	0.332301	0.588282
O33	O	1.134055	-0.163354	0.200384
O34	O	1.634055	0.336646	0.700384
C35	C	0.974070	-0.083198	0.184179
C36	C	1.474070	0.416802	0.684179
C37	C	0.889662	-0.090956	0.201224
C38	C	1.389662	0.409044	0.701224
C39	C	0.563036	-0.006143	0.014896
C40	C	1.063036	0.493857	0.514896
C41	C	0.483724	-0.013440	0.030923
C42	C	0.983724	0.486560	0.530923
C43	C	0.503340	-0.057573	0.127868
C44	C	1.003340	0.442427	0.627868
C45	C	0.582656	-0.050278	0.111852
C46	C	1.082656	0.449722	0.611852
C47	C	0.612497	-0.024563	0.055365
C48	C	1.112497	0.475437	0.555365
C49	C	0.632117	-0.068698	0.152321
C50	C	1.132117	0.431302	0.652321
C51	C	0.711425	-0.061406	0.136304
C52	C	1.211425	0.438594	0.636304
C53	C	0.741273	-0.035693	0.079817
C54	C	1.241273	0.464307	0.579817
C55	C	0.691806	-0.017270	0.039348
C56	C	1.191806	0.482730	0.539348
C57	C	0.602274	-0.094416	0.208804
C58	C	1.102274	0.405584	0.708804
C59	C	0.651735	-0.112837	0.249273
C60	C	1.151735	0.387163	0.749273
C61	C	0.731045	-0.105541	0.233260
C62	C	1.231045	0.394459	0.733260
C63	C	0.760893	-0.079828	0.176773
C64	C	1.260893	0.420172	0.676773
C65	C	0.780512	-0.123964	0.273729
C66	C	1.280512	0.376036	0.773729
C67	C	0.859821	-0.116671	0.257712
C68	C	1.359821	0.383329	0.757712
C69	C	0.840201	-0.072536	0.160756
C70	C	1.340201	0.427464	0.660756
C71	C	1.171254	-0.181827	0.144338
C72	C	1.671254	0.318173	0.644338
C73	C	1.171274	-0.231759	0.144332
C74	C	1.671274	0.268241	0.644332
C75	C	1.229795	-0.530161	0.183227
C76	C	1.729795	-0.030161	0.683227
C77	C	1.229887	-0.717820	0.183256
C78	C	1.729887	-0.217820	0.683256
O79	O	1.279521	-0.732543	0.216300
O80	O	1.779521	-0.232543	0.716300
N81	N	1.171529	-0.752503	0.144437
N82	N	1.671529	-0.252503	0.644437
C83	C	1.113141	-0.740269	0.105613
C84	C	1.613141	-0.240269	0.605613
O85	O	1.063502	-0.774075	0.072602
O86	O	1.563502	-0.274075	0.572602
C87	C	1.113047	-0.552610	0.105589
C88	C	1.613047	-0.052610	0.605589
C89	C	1.171413	-0.517929	0.144403
C90	C	1.671413	-0.017929	0.644403
C91	C	1.288156	-0.495481	0.222039
C92	C	1.788156	0.004519	0.722039
C93	C	1.288135	-0.448569	0.222028
C94	C	1.788135	0.051431	0.722028
C95	C	1.229753	-0.436337	0.183204
C96	C	1.729753	0.063663	0.683204
C97	C	1.171392	-0.471018	0.144392
C98	C	1.671392	0.028982	0.644392
C99	C	1.054657	-0.540377	0.066769
C100	C	1.554657	-0.040377	0.566769
C101	C	1.054638	-0.493458	0.066768
C102	C	1.554638	0.006542	0.566768
C103	C	1.113004	-0.458777	0.105583
C104	C	1.613004	0.041223	0.605583
C105	C	1.112989	-0.411874	0.105558
C106	C	1.612989	0.088126	0.605558
N107	N	1.171347	-0.377191	0.144376
N108	N	1.671347	0.122809	0.644376
C109	C	1.229729	-0.389423	0.183200
C110	C	1.729729	0.110577	0.683200
C111	C	1.113196	-0.838792	0.105627
C112	C	1.613196	-0.338792	0.605627
C113	C	1.113220	-0.885706	0.105631
C114	C	1.613220	-0.385706	0.605631
C115	C	1.229965	-0.863254	0.183276
C116	C	1.729965	-0.363254	0.683276
C117	C	1.229943	-0.816339	0.183266
C118	C	1.729943	-0.316339	0.683266
C119	C	1.171554	-0.804109	0.144445
C120	C	1.671554	-0.304109	0.644445
C121	C	1.229680	-0.290906	0.183173
C122	C	1.729680	0.209094	0.683173
C123	C	1.229656	-0.243991	0.183155
C124	C	1.729656	0.256009	0.683155
C125	C	1.112909	-0.266447	0.105515
C126	C	1.612909	0.233553	0.605515
C127	C	1.112935	-0.313358	0.105528
C128	C	1.612935	0.186642	0.605528
C129	C	1.171325	-0.325585	0.144363
C130	C	1.671325	0.174415	0.644363
O131	O	1.063376	-0.397117	0.072537
O132	O	1.563376	0.102883	0.572537
O133	O	1.279351	-0.355610	0.216219
O134	O	1.779351	0.144390	0.716219
C135	C	1.229817	-0.577073	0.183238
C136	C	1.729817	-0.077073	0.683238
C137	C	1.171456	-0.611753	0.144426
C138	C	1.671456	-0.111753	0.644426
C139	C	1.113074	-0.599521	0.105602
C140	C	1.613074	-0.099521	0.605602
C141	C	1.171480	-0.658667	0.144430
C142	C	1.671480	-0.158667	0.644430
C143	C	1.229862	-0.670899	0.183254
C144	C	1.729862	-0.170899	0.683254
C145	C	1.288220	-0.636216	0.222072
C146	C	1.788220	-0.136216	0.722072
C147	C	1.288199	-0.589304	0.222061
C148	C	1.788199	-0.089304	0.722061
C149	C	1.054716	-0.634204	0.066784
C150	C	1.554716	-0.134204	0.566784
C151	C	1.054742	-0.681115	0.066797
C152	C	1.554742	-0.181115	0.566797
C153	C	1.113124	-0.693347	0.105621
C154	C	1.613124	-0.193347	0.605621
C155	C	1.369467	-0.046900	0.104423
C156	C	1.869467	0.453100	0.604423
C157	C	1.453879	-0.039151	0.087396
C158	C	1.953879	0.460849	0.587396
C159	C	1.211497	-0.037673	0.342469
C160	C	1.711497	0.462327	0.842469
C161	C	1.228591	-0.025993	0.426883
C162	C	1.728591	0.474007	0.926883
C163	C	1.171536	0.052118	0.144432
C164	C	1.671536	0.552118	0.644432
C165	C	1.171602	0.102062	0.144455
C166	C	1.671602	0.602062	0.644455
C167	C	1.131469	-0.092352	-0.052950
C168	C	1.631469	0.407648	0.447050
C169	C	1.114523	-0.103893	-0.137393
C170	C	1.614523	0.396107	0.362607
C171	C	1.041813	-0.153552	0.753423
C172	C	1.541813	0.346448	1.253423
C173	C	1.057892	-0.142569	0.832739
C174	C	1.557892	0.357431	1.332739
C175	C	1.155095	-0.076184	0.813163
C176	C	1.655095	0.423816	1.313163
C177	C	1.139022	-0.087160	0.733844
C178	C	1.639022	0.412840	1.233844
C179	C	1.082381	-0.125845	0.703980
C180	C	1.582381	0.374155	1.203980
C181	C	1.179589	-0.059453	0.684401
C182	C	1.679589	0.440547	1.184401
C183	C	1.163520	-0.070430	0.605088
C184	C	1.663520	0.429570	1.105088
C185	C	1.106884	-0.109114	0.575218
C186	C	1.606884	0.390886	1.075218
C187	C	1.066312	-0.136822	0.624667
C188	C	1.566312	0.363178	1.124667
C189	C	1.236234	-0.020771	0.714266
C190	C	1.736234	0.479229	1.214266
C191	C	1.276801	0.006936	0.664823
C192	C	1.776801	0.506936	1.164823
C193	C	1.260729	-0.004039	0.585509
C194	C	1.760729	0.495961	1.085509
C195	C	1.204092	-0.042722	0.555639
C196	C	1.704092	0.457278	1.055639
C197	C	1.301300	0.023669	0.536060
C198	C	1.801300	0.523669	1.036060
C199	C	1.285231	0.012692	0.456747
C200	C	1.785231	0.512692	0.956747
C201	C	1.188023	-0.053699	0.476326
C202	C	1.688023	0.446301	0.976326
H203	H	0.805851	-0.029757	0.066775
H204	H	1.305851	0.470243	0.566775
F205	F	1.253337	-0.009090	0.798679
F206	F	1.753337	0.490910	1.298679
F207	F	1.350320	-0.552399	0.263374
F208	F	1.850320	-0.052399	0.763374
H209	H	0.587337	0.014806	-0.031090
H210	H	1.087337	0.514806	0.468910
H211	H	1.024853	-0.165134	0.872994
H212	H	1.524853	0.334866	1.372994
H213	H	1.065414	-0.341598	0.073915
H214	H	1.565414	0.158402	0.573915
F215	F	0.723570	0.010103	-0.020768
F216	F	1.223570	0.510103	0.479232
H217	H	1.277503	-0.873220	0.214886
H218	H	1.777503	-0.373220	0.714886
H219	H	1.335660	-0.420333	0.253636
H220	H	1.835660	0.079667	0.753636
F221	F	1.350356	-0.649242	0.263388
F222	F	1.850356	-0.149242	0.763388
H223	H	1.201214	-0.044688	0.837489
H224	H	1.701214	0.455312	1.337489
H225	H	0.443455	0.001566	-0.002030
H226	H	0.943455	0.501566	0.497970
F227	F	0.471571	-0.084946	0.187976
F228	F	0.971571	0.415054	0.687976
F229	F	1.006022	-0.177992	0.592881
F230	F	1.506022	0.322008	1.092881
F231	F	1.051106	-0.922613	0.064308
F232	F	1.551106	-0.422613	0.564308
F233	F	1.127733	-0.094869	0.444540
F234	F	1.627733	0.405131	0.944540
F235	F	0.517864	-0.102183	0.225843
F236	F	1.017864	0.397817	0.725843
H237	H	0.627426	-0.133776	0.295263
H238	H	1.127426	0.366224	0.795263
H239	H	1.322920	0.038432	0.689149
H240	H	1.822920	0.538432	1.189149
H241	H	1.347422	0.055164	0.560387
H242	H	1.847422	0.555164	1.060387
F243	F	1.051043	-0.825783	0.064308
F244	F	1.551043	-0.325783	0.564308
F245	F	0.981523	-0.194722	0.721637
F246	F	1.481523	0.305278	1.221637
F247	F	0.992489	-0.480446	0.025449
F248	F	1.492489	0.019554	0.525449
H249	H	1.318264	0.035255	0.416489
H250	H	1.818264	0.535255	0.916489
F251	F	0.748740	-0.151340	0.333833
F252	F	1.248740	0.348660	0.833833
F253	F	1.089785	-0.120799	0.490804
F254	F	1.589785	0.379201	0.990804
F255	F	1.291781	-0.207082	0.224467
F256	F	1.791781	0.292918	0.724467
F257	F	0.871965	-0.045163	0.100640
F258	F	1.371965	0.454837	0.600640
H259	H	1.277223	-0.300854	0.214802
H260	H	1.777223	0.199146	0.714802
F261	F	0.912463	-0.136277	0.300781
F262	F	1.412463	0.363723	0.800781
H263	H	1.065376	-0.256481	0.073902
H264	H	1.565376	0.243519	0.573902
H265	H	1.335699	-0.505433	0.253658
H266	H	1.835699	-0.005433	0.753658
H267	H	1.007173	-0.624250	0.035170
H268	H	1.507173	-0.124250	0.535170
H269	H	1.007129	-0.568607	0.035162
H270	H	1.507129	-0.068607	0.535162
F271	F	0.992619	-0.718022	0.025478
F272	F	1.492619	-0.218022	0.525478
F273	F	1.292063	-0.779432	0.224578
F274	F	1.792063	-0.279432	0.724578
