data_functionalizedCrystal
_audit_creation_method	'MofGen! by Chris Wilmer'
_symmetry_space_group_name_H-M	'P1'
_symmetry_Int_Tables_number	1
_symmetry_cell_setting	triclinic
loop_
_symmetry_equiv_pos_as_xyz
  x,y,z
_cell_length_a	18.215407
_cell_length_b	18.050589
_cell_length_c	18.215399
_cell_angle_alpha	90.029116
_cell_angle_beta	90.019833
_cell_angle_gamma	90.020982
loop_
_atom_site_label
_atom_site_type_symbol
_atom_site_fract_x
_atom_site_fract_y
_atom_site_fract_z
Zn1	Zn	1.125094	-0.295658	0.416110
Zn2	Zn	1.625094	0.204342	0.916110
Zn3	Zn	1.125012	-0.419853	0.293041
Zn4	Zn	1.625012	0.080147	0.793041
Zn5	Zn	1.002027	-0.295682	0.293057
Zn6	Zn	1.502027	0.204318	0.793057
Zn7	Zn	1.002002	-0.419812	0.416066
Zn8	Zn	1.502002	0.080188	0.916066
O9	O	1.063534	-0.357751	0.354569
O10	O	1.563534	0.142249	0.854569
O11	O	1.228068	-0.312140	0.399796
O12	O	1.728068	0.187860	0.899796
O13	O	1.108674	-0.403409	0.190059
O14	O	1.608674	0.096591	0.690059
O15	O	1.018397	-0.191755	0.309406
O16	O	1.518397	0.308245	0.809406
O17	O	1.228007	-0.403386	0.309378
O18	O	1.728007	0.096614	0.809378
O19	O	1.108814	-0.191737	0.399812
O20	O	1.608814	0.308263	0.899812
O21	O	1.018317	-0.312181	0.190071
O22	O	1.518317	0.187819	0.690071
O23	O	0.899039	-0.312141	0.309363
O24	O	1.399039	0.187859	0.809363
O25	O	1.018354	-0.403315	0.519056
O26	O	1.518354	0.096685	1.019056
O27	O	0.899021	-0.403339	0.399737
O28	O	1.399021	0.096661	0.899737
O29	O	1.108790	-0.312100	0.519088
O30	O	1.608790	0.187900	1.019088
O31	O	1.108650	-0.523772	0.309336
O32	O	1.608650	-0.023772	0.809336
O33	O	1.018275	-0.523742	0.399721
O34	O	1.518275	-0.023742	0.899721
C35	C	0.872327	-0.357739	0.354547
C36	C	1.372327	0.142261	0.854547
C37	C	0.790529	-0.357751	0.354556
C38	C	1.290529	0.142249	0.854556
C39	C	1.063471	-0.550704	0.354538
C40	C	1.563471	-0.050704	0.854538
C41	C	1.063511	-0.633249	0.354549
C42	C	1.563511	-0.133249	0.854549
C43	C	0.602344	-0.405312	0.401555
C44	C	1.102344	0.094688	0.901555
C45	C	0.525486	-0.405315	0.401564
C46	C	1.025486	0.094685	0.901564
C47	C	0.525475	-0.310204	0.307599
C48	C	1.025475	0.189796	0.807599
C49	C	0.602332	-0.310199	0.307594
C50	C	1.102332	0.189801	0.807594
C51	C	0.640765	-0.357757	0.354571
C52	C	1.140765	0.142243	0.854571
C53	C	0.487049	-0.357765	0.354585
C54	C	0.987049	0.142235	0.854585
C55	C	0.403715	-0.357767	0.354594
C56	C	0.903715	0.142233	0.854594
C57	C	0.724104	-0.357754	0.354562
C58	C	1.224104	0.142246	0.854562
C59	C	1.112785	-0.882064	0.305479
C60	C	1.612785	-0.382064	0.805479
C61	C	1.045639	-0.832734	0.287403
C62	C	1.545639	-0.332734	0.787403
C63	C	1.063603	-0.930370	0.354606
C64	C	1.563603	-0.430370	0.854606
C65	C	1.130699	-0.832618	0.372619
C66	C	1.630699	-0.332618	0.872619
C67	C	1.063561	-0.784385	0.354576
C68	C	1.563561	-0.284385	0.854576
C69	C	0.996422	-0.882127	0.336496
C70	C	1.496422	-0.382127	0.836496
C71	C	1.081528	-0.882015	0.421743
C72	C	1.581528	-0.382015	0.921743
C73	C	1.014336	-0.832707	0.403693
C74	C	1.514336	-0.332707	0.903693
C75	C	1.063628	-1.014468	0.354621
C76	C	1.563628	-0.514468	0.854621
C77	C	1.063529	-0.700288	0.354561
C78	C	1.563529	-0.200288	0.854561
C79	C	1.255487	-0.357765	0.354590
C80	C	1.755487	0.142235	0.854590
C81	C	1.337286	-0.357770	0.354599
C82	C	1.837286	0.142230	0.854599
C83	C	1.063579	-0.357700	0.546522
C84	C	1.563579	0.142300	1.046522
C85	C	1.063598	-0.357678	0.628321
C86	C	1.563598	0.142322	1.128321
C87	C	1.063617	-0.164046	0.354615
C88	C	1.563617	0.335954	0.854615
C89	C	1.063653	-0.081500	0.354635
C90	C	1.563653	0.418500	0.854635
C91	C	1.063531	-0.357749	0.163362
C92	C	1.563531	0.142251	0.663362
C93	C	1.063655	-0.357561	0.081564
C94	C	1.563655	0.142439	0.581564
C95	C	1.110704	-0.310138	0.816533
C96	C	1.610704	0.189862	1.316533
C97	C	1.110713	-0.310117	0.893391
C98	C	1.610713	0.189883	1.393391
C99	C	1.016543	-0.405104	0.893346
C100	C	1.516543	0.094896	1.393346
C101	C	1.016531	-0.405121	0.816489
C102	C	1.516531	0.094879	1.316489
C103	C	1.063616	-0.357639	0.778084
C104	C	1.563616	0.142361	1.278084
C105	C	1.063637	-0.357600	0.931800
C106	C	1.563637	0.142400	1.431800
C107	C	1.063646	-0.357577	1.015134
C108	C	1.563646	0.142423	1.515134
C109	C	1.063606	-0.357661	0.694745
C110	C	1.563606	0.142339	1.194745
H111	H	0.633634	-0.444035	0.439808
H112	H	1.133634	0.055965	0.939808
O113	O	0.970867	-0.451374	0.779168
O114	O	1.470867	0.048626	1.279168
C115	C	0.986911	-0.525388	0.797941
C116	C	1.486911	-0.025388	1.297941
H117	H	1.045704	-0.529137	0.819081
H118	H	1.545704	-0.029137	1.319081
H119	H	0.980551	-0.562087	0.747382
H120	H	1.480551	-0.062087	1.247382
H121	H	0.947452	-0.544792	0.842537
H122	H	1.447452	-0.044792	1.342537
H123	H	1.149056	-0.271435	0.924693
H124	H	1.649056	0.228565	1.424693
O125	O	0.488278	-0.451582	0.447226
O126	O	0.988278	0.048418	0.947226
C127	C	0.538684	-0.493539	0.488699
C128	C	1.038684	0.006461	0.988699
H129	H	0.593456	-0.496068	0.458544
H130	H	1.093456	0.003932	0.958544
H131	H	0.516463	-0.552063	0.496448
H132	H	1.016463	-0.052063	0.996448
H133	H	0.546892	-0.466415	0.544639
H134	H	1.046892	0.033585	1.044639
H135	H	1.154342	-0.903736	0.263915
H136	H	1.654342	-0.403736	0.763915
H137	H	1.030455	-0.811085	0.230614
H138	H	1.530455	-0.311085	0.730614
H139	H	0.494174	-0.271485	0.269351
H140	H	0.994174	0.228515	0.769351
O141	O	0.639545	-0.263977	0.261880
O142	O	1.139545	0.236023	0.761880
C143	C	0.589145	-0.221994	0.220427
C144	C	1.089145	0.278006	0.720427
H145	H	0.534347	-0.252411	0.217826
H146	H	1.034347	0.247589	0.717826
H147	H	0.611333	-0.213997	0.162457
H148	H	1.111333	0.286003	0.662457
H149	H	0.580999	-0.165626	0.247476
H150	H	1.080999	0.334374	0.747476
O151	O	0.970880	-0.451205	0.930768
O152	O	1.470880	0.048795	1.430768
C153	C	0.980975	-0.440993	1.006850
C154	C	1.480975	0.059007	1.506850
H155	H	1.037780	-0.416670	1.017365
H156	H	1.537780	0.083330	1.517365
H157	H	0.975965	-0.496614	1.036043
H158	H	1.475965	0.003386	1.536043
H159	H	0.937342	-0.401438	1.028664
H160	H	1.437342	0.098562	1.528664
O161	O	1.156511	-0.264116	0.779191
O162	O	1.656511	0.235884	1.279191
C163	C	1.204011	-0.306403	0.734715
C164	C	1.704011	0.193597	1.234715
H165	H	1.208544	-0.364888	0.757860
H166	H	1.708544	0.135112	1.257860
H167	H	1.260654	-0.279538	0.733860
H168	H	1.760654	0.220462	1.233860
H169	H	1.181245	-0.308974	0.676462
H170	H	1.681245	0.191026	1.176462
O171	O	0.928739	-0.908077	0.318207
O172	O	1.428739	-0.408077	0.818207
C173	C	0.929582	-0.986182	0.318434
C174	C	1.429582	-0.486182	0.818434
H175	H	0.988237	-1.006594	0.310305
H176	H	1.488237	-0.506594	0.810305
H177	H	0.893488	-1.007808	0.271984
H178	H	1.393488	-0.507808	0.771984
H179	H	0.907701	-1.007301	0.373194
H180	H	1.407701	-0.507301	0.873194
O181	O	0.964544	-0.807044	0.453157
O182	O	1.464544	-0.307044	0.953157
C183	C	0.893903	-0.832424	0.433887
C184	C	1.393903	-0.332424	0.933887
H185	H	0.892544	-0.846258	0.372831
H186	H	1.392544	-0.346258	0.872831
H187	H	0.851812	-0.787377	0.446189
H188	H	1.351812	-0.287377	0.946189
H189	H	0.880229	-0.884159	0.467059
H190	H	1.380229	-0.384159	0.967059
H191	H	1.187459	-0.810872	0.387866
H192	H	1.687459	-0.310872	0.887866
O193	O	1.099791	-0.907832	0.489450
O194	O	1.599791	-0.407832	0.989450
C195	C	1.170620	-0.882632	0.508255
C196	C	1.670620	-0.382632	1.008255
H197	H	1.202400	-0.868779	0.456133
H198	H	1.702400	-0.368779	0.956133
H199	H	1.200798	-0.927796	0.539899
H200	H	1.700798	-0.427796	1.039899
H201	H	1.165938	-0.830946	0.543940
H202	H	1.665938	-0.330946	1.043940
