data_functionalizedCrystal
_audit_creation_method	'MofGen! by Chris Wilmer'
_symmetry_space_group_name_H-M	'P1'
_symmetry_Int_Tables_number	1
_symmetry_cell_setting	triclinic
loop_
_symmetry_equiv_pos_as_xyz
  x,y,z
_cell_length_a	17.640112
_cell_length_b	18.101397
_cell_length_c	17.640968
_cell_angle_alpha	78.764690
_cell_angle_beta	92.139080
_cell_angle_gamma	101.246095
loop_
_atom_site_label
_atom_site_type_symbol
_atom_site_fract_x
_atom_site_fract_y
_atom_site_fract_z
Zn1	Zn	1.247779	-0.021278	-0.195078
Zn2	Zn	1.747779	0.478722	0.304922
Zn3	Zn	1.222013	-0.174069	-0.068085
Zn4	Zn	1.722013	0.325931	0.431915
Zn5	Zn	1.095112	-0.069452	-0.093721
Zn6	Zn	1.595112	0.430548	0.406279
Zn7	Zn	1.120754	-0.164321	-0.220668
Zn8	Zn	1.620754	0.335679	0.279332
O9	O	1.171414	-0.107280	-0.144388
O10	O	1.671414	0.392720	0.355612
O11	O	1.350630	-0.025465	-0.156795
O12	O	1.850630	0.474535	0.343205
O13	O	1.183665	-0.184432	0.034789
O14	O	1.683665	0.315568	0.534789
O15	O	1.115416	0.040585	-0.107186
O16	O	1.615416	0.540585	0.392814
O17	O	1.331700	-0.137720	-0.063493
O18	O	1.831700	0.362280	0.436507
O19	O	1.227579	0.075978	-0.181653
O20	O	1.727579	0.575978	0.318347
O21	O	1.090432	-0.107570	0.015954
O22	O	1.590432	0.392430	0.515954
O23	O	0.992245	-0.098118	-0.131999
O24	O	1.492245	0.401882	0.368001
O25	O	1.159118	-0.121106	-0.323548
O26	O	1.659118	0.378894	0.176452
O27	O	1.011084	-0.167818	-0.225266
O28	O	1.511084	0.332182	0.274734
O29	O	1.252443	-0.016013	-0.304748
O30	O	1.752443	0.483987	0.195252
O31	O	1.208529	-0.276423	-0.088306
O32	O	1.708529	0.223577	0.411694
O33	O	1.134134	-0.269261	-0.200408
O34	O	1.634134	0.230739	0.299592
C35	C	0.974110	-0.137138	-0.184192
C36	C	1.474110	0.362862	0.315808
C37	C	0.889706	-0.149925	-0.201238
C38	C	1.389706	0.350075	0.298762
C39	C	1.171342	-0.299709	-0.144364
C40	C	1.671342	0.200291	0.355636
C41	C	1.171386	-0.382015	-0.144366
C42	C	1.671386	0.117985	0.355634
C43	C	0.563039	-0.010125	-0.014897
C44	C	1.063039	0.489875	0.485103
C45	C	0.483731	-0.022153	-0.030925
C46	C	0.983731	0.477847	0.469075
C47	C	0.503368	-0.094900	-0.127877
C48	C	1.003368	0.405100	0.372123
C49	C	0.582680	-0.082875	-0.111860
C50	C	1.082680	0.417125	0.388140
C51	C	0.612509	-0.040488	-0.055369
C52	C	1.112509	0.459512	0.444631
C53	C	0.632150	-0.113237	-0.152331
C54	C	1.132150	0.386763	0.347669
C55	C	0.711455	-0.101217	-0.136313
C56	C	1.211455	0.398783	0.363687
C57	C	0.741290	-0.058833	-0.079822
C58	C	1.241290	0.441167	0.420178
C59	C	0.691814	-0.028467	-0.039350
C60	C	1.191814	0.471533	0.460650
C61	C	0.602319	-0.155629	-0.208818
C62	C	1.102319	0.344371	0.291182
C63	C	0.651789	-0.185992	-0.249290
C64	C	1.151789	0.314008	0.250710
C65	C	0.731096	-0.173966	-0.233275
C66	C	1.231096	0.326034	0.266725
C67	C	0.760931	-0.131583	-0.176785
C68	C	1.260931	0.368417	0.323215
C69	C	0.780572	-0.204333	-0.273747
C70	C	1.280572	0.295667	0.226253
C71	C	0.859877	-0.192312	-0.257729
C72	C	1.359877	0.307688	0.242271
C73	C	0.840236	-0.119562	-0.160766
C74	C	1.340236	0.380438	0.339234
C75	C	1.171497	-0.681075	-0.144415
C76	C	1.671497	-0.181075	0.355585
C77	C	1.218108	-0.654286	-0.073760
C78	C	1.718108	-0.154286	0.426240
C79	C	1.218342	-0.568602	-0.073871
C80	C	1.718342	-0.068602	0.426129
C81	C	1.171442	-0.532708	-0.144390
C82	C	1.671442	-0.032708	0.355610
C83	C	1.209323	-0.542195	-0.220066
C84	C	1.709323	-0.042195	0.279934
C85	C	1.209711	-0.627845	-0.219654
C86	C	1.709711	-0.127845	0.280346
C87	C	1.086988	-0.666422	-0.140120
C88	C	1.586988	-0.166422	0.359880
C89	C	1.087023	-0.581120	-0.138253
C90	C	1.587023	-0.081120	0.361747
C91	C	1.171410	-0.448856	-0.144381
C92	C	1.671410	0.051144	0.355619
C93	C	1.171531	-0.764925	-0.144430
C94	C	1.671531	-0.264925	0.355570
C95	C	1.369490	-0.077307	-0.104430
C96	C	1.869490	0.422693	0.395570
C97	C	1.453897	-0.064534	-0.087402
C98	C	1.953897	0.435466	0.412598
C99	C	1.211515	-0.062098	-0.342474
C100	C	1.711515	0.437902	0.157526
C101	C	1.228603	-0.042844	-0.426887
C102	C	1.728603	0.457156	0.073113
C103	C	1.171511	0.085907	-0.144424
C104	C	1.671511	0.585907	0.355576
C105	C	1.171552	0.168232	-0.144440
C106	C	1.671552	0.668232	0.355560
C107	C	1.041888	-0.253103	-0.753445
C108	C	1.541888	0.246897	-0.253445
C109	C	1.057961	-0.234999	-0.832760
C110	C	1.557961	0.265001	-0.332760
C111	C	1.155131	-0.125576	-0.813174
C112	C	1.655131	0.374424	-0.313174
C113	C	1.139064	-0.143668	-0.733856
C114	C	1.639064	0.356332	-0.233856
C115	C	1.082442	-0.207433	-0.703998
C116	C	1.582442	0.292567	-0.203998
C117	C	1.179618	-0.097998	-0.684410
C118	C	1.679618	0.402002	-0.184410
C119	C	1.163554	-0.116092	-0.605098
C120	C	1.663554	0.383908	-0.105098
C121	C	1.106936	-0.179855	-0.575233
C122	C	1.606936	0.320145	-0.075233
C123	C	1.066378	-0.225527	-0.624687
C124	C	1.566378	0.274473	-0.124687
C125	C	1.236244	-0.034237	-0.714269
C126	C	1.736244	0.465763	-0.214269
C127	C	1.276798	0.011433	-0.664822
C128	C	1.776798	0.511433	-0.164822
C129	C	1.260731	-0.006657	-0.585510
C130	C	1.760731	0.493343	-0.085510
C131	C	1.204113	-0.070420	-0.555645
C132	C	1.704113	0.429580	-0.055645
C133	C	1.301289	0.039015	-0.536057
C134	C	1.801289	0.539015	-0.036057
C135	C	1.285225	0.020921	-0.456745
C136	C	1.785225	0.520921	0.043255
C137	C	1.188049	-0.088514	-0.476333
C138	C	1.688049	0.411486	0.023667
C139	C	1.131514	-0.152227	0.052936
C140	C	1.631514	0.347773	0.552936
C141	C	1.114573	-0.171250	0.137378
C142	C	1.614573	0.328750	0.637378
H143	H	0.864526	-0.085033	-0.114777
H144	H	1.364526	0.414967	0.385223
H145	H	0.995762	-0.305012	-0.729137
H146	H	1.495762	0.194988	-0.229137
H147	H	1.052059	-0.683524	-0.191779
H148	H	1.552059	-0.183524	0.308221
H149	H	0.479070	-0.129414	-0.173869
H150	H	0.979070	0.370586	0.326131
Cl151	Cl	0.840988	-0.043725	-0.059679
Cl152	Cl	1.340988	0.456275	0.440321
H153	H	0.537744	-0.165415	-0.221858
H154	H	1.037744	0.334585	0.278142
Cl155	Cl	1.256440	-0.011493	-0.813976
Cl156	Cl	1.756440	0.488507	-0.313976
Cl157	Cl	1.086744	-0.202607	-0.475526
Cl158	Cl	1.586744	0.297393	0.024474
Cl159	Cl	1.304516	-0.489203	-0.229252
Cl160	Cl	1.804516	0.010797	0.270748
Cl161	Cl	1.313702	-0.668870	-0.076025
Cl162	Cl	1.813702	-0.168870	0.423975
H163	H	1.020252	-0.277436	-0.600379
H164	H	1.520252	0.222564	-0.100379
Cl165	Cl	1.028493	-0.544873	-0.213897
Cl166	Cl	1.528493	-0.044873	0.286103
H167	H	1.322902	0.063349	-0.689144
H168	H	1.822902	0.563349	-0.189144
H169	H	0.587330	0.024404	0.031092
H170	H	1.087330	0.524404	0.531092
Cl171	Cl	1.006969	-0.292419	-0.894921
Cl172	Cl	1.506969	0.207581	-0.394921
H173	H	1.280613	-0.535955	-0.075430
H174	H	1.780613	-0.035955	0.424570
H175	H	0.443455	0.002582	0.002031
H176	H	0.943455	0.502582	0.502031
H177	H	0.716104	0.006063	0.006639
H178	H	1.216104	0.506063	0.506639
H179	H	0.627491	-0.220506	-0.295282
H180	H	1.127491	0.279494	0.204718
H181	H	1.201235	-0.073660	-0.837496
H182	H	1.701235	0.426340	-0.337496
Cl183	Cl	1.038608	-0.724651	-0.057706
Cl184	Cl	1.538608	-0.224651	0.442294
H185	H	1.347396	0.090928	-0.560379
H186	H	1.847396	0.590928	-0.060379
Cl187	Cl	1.336211	0.078333	-0.394579
Cl188	Cl	1.836211	0.578333	0.105421
H189	H	0.756272	-0.238851	-0.319737
H190	H	1.256272	0.261149	0.180263
Cl191	Cl	0.922071	-0.230485	-0.308606
Cl192	Cl	1.422071	0.269515	0.191394
Cl193	Cl	1.178810	-0.560288	0.013524
Cl194	Cl	1.678810	-0.060288	0.513524
H195	H	1.192662	-0.690521	-0.016929
H196	H	1.692662	-0.190521	0.483071
Cl197	Cl	1.305825	-0.638762	-0.228177
Cl198	Cl	1.805825	-0.138762	0.271823
H199	H	1.178132	-0.644408	-0.273234
H200	H	1.678132	-0.144408	0.226766
Cl201	Cl	1.159590	-0.504594	-0.302456
Cl202	Cl	1.659590	-0.004594	0.197544
H203	H	1.058753	-0.576757	-0.082641
H204	H	1.558753	-0.076757	0.417359
Cl205	Cl	1.116859	-0.168672	-0.438793
Cl206	Cl	1.616859	0.331328	0.061207
