data_functionalizedCrystal
_audit_creation_method	'MofGen! by Chris Wilmer'
_symmetry_space_group_name_H-M	'P1'
_symmetry_Int_Tables_number	1
_symmetry_cell_setting	triclinic
loop_
_symmetry_equiv_pos_as_xyz
  x,y,z
_cell_length_a	19.188930
_cell_length_b	19.188930
_cell_length_c	17.666332
_cell_angle_alpha	90.023234
_cell_angle_beta	89.988397
_cell_angle_gamma	96.855221
loop_
_atom_site_label
_atom_site_type_symbol
_atom_site_fract_x
_atom_site_fract_y
_atom_site_fract_z
O1	O	0.087169	-0.926150	-0.063200
O2	O	0.587169	-0.426150	0.436800
O3	O	0.098903	-0.722838	-0.063149
O4	O	0.598903	-0.222838	0.436851
O5	O	-0.008620	-0.830361	-0.063161
O6	O	0.491380	-0.330361	0.436839
O7	O	0.194692	-0.818627	-0.063188
O8	O	0.694692	-0.318627	0.436812
O9	O	-0.008625	-0.830342	0.062735
O10	O	0.491375	-0.330342	0.562735
O11	O	0.098897	-0.722820	0.062747
O12	O	0.598897	-0.222820	0.562747
O13	O	0.087163	-0.926131	0.062697
O14	O	0.587163	-0.426131	0.562697
Cu15	Cu	0.093030	-0.824473	0.074217
Cu16	Cu	0.593030	-0.324473	0.574217
Cu17	Cu	0.093036	-0.824496	-0.074670
Cu18	Cu	0.593036	-0.324496	0.425330
O19	O	0.194686	-0.818608	0.062709
O20	O	0.694686	-0.318608	0.562709
C21	C	0.098520	-0.696818	-0.000194
C22	C	0.598520	-0.196818	0.499806
C23	C	0.097380	-0.619313	-0.000174
C24	C	0.597380	-0.119313	0.499826
C25	C	-0.034634	-0.829972	-0.000211
C26	C	0.465366	-0.329972	0.499789
C27	C	-0.112138	-0.828831	-0.000204
C28	C	0.387862	-0.328831	0.499796
C29	C	0.087546	-0.952151	-0.000260
C30	C	0.587546	-0.452151	0.499740
C31	C	0.088687	-1.029656	-0.000285
C32	C	0.588687	-0.529656	0.499715
C33	C	-0.157062	-0.891922	-0.000216
C34	C	0.342938	-0.391922	0.499784
C35	C	-0.229886	-0.890850	-0.000228
C36	C	0.270114	-0.390850	0.499772
C37	C	-0.257782	-0.826684	-0.000212
C38	C	0.242218	-0.326684	0.499788
C39	C	-0.212849	-0.763585	-0.000205
C40	C	0.287151	-0.263585	0.499795
C41	C	-0.140026	-0.764658	-0.000200
C42	C	0.359974	-0.264658	0.499800
N43	N	-0.365789	-0.777630	0.042645
N44	N	0.134211	-0.277630	0.542645
N45	N	-0.434968	-0.776615	0.042642
N46	N	0.065032	-0.276615	0.542642
C47	C	-0.477191	-0.823446	-0.000227
C48	C	0.022809	-0.323446	0.499773
N49	N	-0.447624	-0.871341	-0.043084
N50	N	0.052376	-0.371341	0.456916
N51	N	-0.378439	-0.872359	-0.043079
N52	N	0.121561	-0.372359	0.456921
C53	C	-0.336745	-0.825513	-0.000218
C54	C	0.163255	-0.325513	0.499782
C55	C	-0.601079	-0.885379	-0.000253
C56	C	-0.101079	-0.385379	0.499747
C57	C	-0.673904	-0.884305	-0.000270
C58	C	-0.173904	-0.384305	0.499730
C59	C	-0.656865	-0.757038	-0.000239
C60	C	-0.156865	-0.257038	0.499761
C61	C	-0.584042	-0.758114	-0.000230
C62	C	-0.084042	-0.258114	0.499770
C63	C	-0.556154	-0.822287	-0.000233
C64	C	-0.056154	-0.322287	0.499767
C65	C	0.220700	-0.818997	-0.000244
C66	C	0.720700	-0.318997	0.499756
C67	C	0.298204	-0.820138	-0.000255
C68	C	0.798204	-0.320138	0.499745
N69	N	0.093025	-0.824463	0.178937
N70	N	0.593025	-0.324463	0.678937
C71	C	0.160470	-0.574389	-0.000194
C72	C	0.660470	-0.074389	0.499806
C73	C	0.159399	-0.501566	-0.000203
C74	C	0.659399	-0.001566	0.499797
C75	C	0.095233	-0.473669	-0.000206
C76	C	0.595233	0.026331	0.499794
C77	C	0.032133	-0.518603	-0.000181
C78	C	0.532133	-0.018603	0.499819
C79	C	0.033207	-0.591425	-0.000166
C80	C	0.533207	-0.091425	0.499834
N81	N	0.046188	-0.365695	-0.043078
N82	N	0.546188	0.134305	0.456922
N83	N	0.045172	-0.296517	-0.043095
N84	N	0.545172	0.203483	0.456905
C85	C	0.091994	-0.254260	-0.000252
C86	C	0.591994	0.245740	0.499748
N87	N	0.139881	-0.283795	0.042599
N88	N	0.639881	0.216205	0.542599
N89	N	0.140899	-0.352979	0.042612
N90	N	0.640899	0.147021	0.542612
C91	C	0.094062	-0.394707	-0.000222
C92	C	0.594062	0.105293	0.499778
C93	C	0.153928	-0.130372	-0.000280
C94	C	0.653928	0.369628	0.499720
C95	C	0.152853	-0.057547	-0.000283
C96	C	0.652853	0.442453	0.499717
C97	C	0.025586	-0.074586	-0.000270
C98	C	0.525586	0.425414	0.499730
C99	C	0.026662	-0.147409	-0.000258
C100	C	0.526662	0.352591	0.499742
C101	C	0.090835	-0.175298	-0.000267
C102	C	0.590835	0.324702	0.499733
N103	N	0.093036	-0.824512	-0.179390
N104	N	0.593036	-0.324512	0.320610
C105	C	0.045437	-0.872089	0.218541
C106	C	0.545437	-0.372089	0.718541
C107	C	0.045433	-0.872093	0.297789
C108	C	0.545433	-0.372093	0.797789
C109	C	0.093030	-0.824478	0.337429
C110	C	0.593030	-0.324478	0.837429
C111	C	0.140621	-0.776842	0.297815
C112	C	0.640621	-0.276842	0.797815
C113	C	0.140619	-0.776835	0.218569
C114	C	0.640619	-0.276835	0.718569
N115	N	0.154837	-0.815401	0.461841
N116	N	0.654837	-0.315401	0.961841
N117	N	0.154837	-0.815413	0.537121
N118	N	0.654837	-0.315413	1.037121
C119	C	0.093040	-0.824496	0.576193
C120	C	0.593040	-0.324496	1.076193
N121	N	0.031239	-0.833582	0.537140
N122	N	0.531239	-0.333582	1.037140
N123	N	0.031240	-0.833574	0.461853
N124	N	0.531240	-0.333574	0.961853
C125	C	0.093038	-0.824480	0.423358
C126	C	0.593038	-0.324480	0.923358
C127	C	0.045444	-0.872130	0.701727
C128	C	0.545444	-0.372130	1.201727
C129	C	0.045440	-0.872129	0.780976
C130	C	0.545440	-0.372129	1.280976
C131	C	0.140634	-0.776881	0.781000
C132	C	0.640634	-0.276881	1.281000
C133	C	0.140632	-0.776878	0.701753
C134	C	0.640632	-0.276878	1.201753
C135	C	0.093038	-0.824506	0.662121
C136	C	0.593038	-0.324506	1.162121
H137	H	-0.134360	-0.944176	-0.000222
H138	H	0.365640	-0.444176	0.499778
H139	H	-0.235567	-0.711340	-0.000194
H140	H	0.264433	-0.211340	0.499806
H141	H	-0.578372	-0.937632	-0.000259
H142	H	-0.078372	-0.437632	0.499741
C143	C	-0.464847	-0.703254	-0.000213
C144	C	0.035153	-0.203254	0.499787
C145	C	-0.534656	-0.688762	-0.000211
C146	C	-0.034656	-0.188762	0.499789
H147	H	-0.434359	-0.660436	-0.000209
H148	H	0.065641	-0.160436	0.499791
H149	H	-0.456425	-0.729561	0.043683
H150	H	0.043575	-0.229561	0.543683
H151	H	-0.456411	-0.729584	-0.044124
H152	H	0.043589	-0.229584	0.455876
H153	H	-0.543093	-0.662436	0.043703
H154	H	-0.043093	-0.162436	0.543703
H155	H	-0.543081	-0.662443	-0.044111
H156	H	-0.043081	-0.162443	0.455889
H157	H	-0.679578	-0.704792	-0.000230
H158	H	-0.179578	-0.204792	0.499770
H159	H	0.179371	-0.738051	0.186322
H160	H	0.679371	-0.238051	0.686322
C161	C	-0.683427	-1.010209	-0.000279
C162	C	-0.183427	-0.510209	0.499721
C163	C	-0.723288	-0.953660	-0.000281
C164	C	-0.223288	-0.453660	0.499719
H165	H	-0.713917	-1.053025	-0.000280
H166	H	-0.213917	-0.553025	0.499720
H167	H	-0.654661	-1.007993	-0.044176
H168	H	-0.154661	-0.507993	0.455824
H169	H	-0.654678	-1.007963	0.043631
H170	H	-0.154678	-0.507963	0.543631
H171	H	-0.752034	-0.955903	-0.044193
H172	H	-0.252034	-0.455903	0.455807
H173	H	-0.752067	-0.955877	0.043621
H174	H	-0.252067	-0.455877	0.543621
C175	C	0.286159	-0.550227	-0.000207
C176	C	0.786159	-0.050227	0.499793
C177	C	0.231008	-0.605043	-0.000191
C178	C	0.731008	-0.105043	0.499809
H179	H	0.329705	-0.569154	-0.000199
H180	H	0.829705	-0.069154	0.499801
H181	H	0.283096	-0.522207	-0.044115
H182	H	0.783096	-0.022207	0.455885
H183	H	0.283084	-0.522151	0.043692
H184	H	0.783084	-0.022151	0.543692
H185	H	0.234080	-0.633116	-0.044093
H186	H	0.734080	-0.133116	0.455907
H187	H	0.234072	-0.633076	0.043721
H188	H	0.734072	-0.133076	0.543721
C189	C	0.212083	-0.234440	-0.000264
C190	C	0.712083	0.265560	0.499736
C191	C	0.224463	-0.161034	-0.000276
C192	C	0.724463	0.338966	0.499724
H193	H	0.255630	-0.253366	-0.000264
H194	H	0.755630	0.246634	0.499736
H195	H	0.186113	-0.249847	0.043638
H196	H	0.686113	0.250153	0.543638
H197	H	0.186120	-0.249890	-0.044168
H198	H	0.686120	0.250110	0.455832
H199	H	0.250422	-0.145584	0.043631
H200	H	0.750422	0.354416	0.543631
H201	H	0.250445	-0.145621	-0.044183
H202	H	0.750445	0.354379	0.455817
H203	H	0.006684	-0.910910	0.813222
H204	H	0.506684	-0.410910	1.313222
C205	C	-0.100100	-0.098747	-0.000250
C206	C	0.399900	0.401253	0.499750
C207	C	-0.044948	-0.043932	-0.000269
C208	C	0.455052	0.456068	0.499731
H209	H	-0.143646	-0.079819	-0.000242
H210	H	0.356354	0.420181	0.499758
H211	H	-0.097034	-0.126816	-0.044146
H212	H	0.402966	0.373184	0.455854
H213	H	-0.097030	-0.126774	0.043660
H214	H	0.402970	0.373226	0.543660
H215	H	-0.048016	-0.015907	-0.044182
H216	H	0.451984	0.484093	0.455818
H217	H	-0.048016	-0.015851	0.043632
H218	H	0.451984	0.484149	0.543632
C219	C	-0.075522	-0.913524	0.677262
C220	C	0.424478	-0.413524	1.177262
C221	C	-0.006852	-0.924473	0.658125
C222	C	0.493148	-0.424473	1.158125
H223	H	-0.107799	-0.945836	0.650332
H224	H	0.392201	-0.445836	1.150332
H225	H	-0.082355	-0.920363	0.730114
H226	H	0.417645	-0.420363	1.230114
H227	H	-0.082986	-0.866948	0.664306
H228	H	0.417014	-0.366948	1.164306
H229	H	0.000614	-0.971047	0.671086
H230	H	0.500614	-0.471047	1.171086
H231	H	-0.000015	-0.917639	0.605261
H232	H	0.499985	-0.417639	1.105261
C233	C	0.232009	-0.409817	-0.064959
C234	C	0.732009	0.090183	0.435041
C235	C	0.228751	-0.452170	-0.000230
C236	C	0.728751	0.047830	0.499770
H237	H	0.274822	-0.379321	-0.064973
H238	H	0.774822	0.120679	0.435027
H239	H	0.229786	-0.438606	-0.108846
H240	H	0.729786	0.061394	0.391154
H241	H	0.193633	-0.382791	-0.064949
H242	H	0.693633	0.117209	0.435051
H243	H	0.267124	-0.479200	-0.000242
H244	H	0.767124	0.020800	0.499758
H245	H	0.230981	-0.423377	0.043668
H246	H	0.730981	0.076623	0.543668
C247	C	0.235691	-0.761434	0.612619
C248	C	0.735691	-0.261434	1.112619
C249	C	0.192952	-0.724534	0.658215
C250	C	0.692952	-0.224534	1.158215
H251	H	0.267989	-0.729115	0.585739
H252	H	0.767989	-0.229115	1.085739
H253	H	0.260731	-0.790415	0.643514
H254	H	0.760731	-0.290415	1.143514
H255	H	0.207336	-0.789788	0.577674
H256	H	0.707336	-0.289788	1.077674
H257	H	0.221307	-0.696184	0.693164
H258	H	0.721307	-0.196184	1.193164
H259	H	0.167911	-0.695541	0.627317
H260	H	0.667911	-0.195541	1.127317
H261	H	0.179374	-0.738072	0.330094
H262	H	0.679374	-0.238072	0.830094
C263	C	-0.028198	-0.266605	-0.000232
C264	C	0.471802	0.233395	0.499768
C265	C	-0.042689	-0.196796	-0.000247
C266	C	0.457311	0.303204	0.499753
H267	H	-0.071016	-0.297092	-0.000220
H268	H	0.428984	0.202908	0.499780
H269	H	-0.001878	-0.275058	-0.044132
H270	H	0.498122	0.224942	0.455868
H271	H	-0.001880	-0.275008	0.043674
H272	H	0.498120	0.224992	0.543674
H273	H	-0.069003	-0.188390	-0.044157
H274	H	0.430997	0.311610	0.455843
H275	H	-0.069020	-0.188339	0.043657
H276	H	0.430980	0.311661	0.543657
H277	H	0.204232	-0.020970	-0.000295
H278	H	0.704232	0.479030	0.499705
C279	C	-0.026019	-0.414536	-0.000213
C280	C	0.473981	0.085464	0.499787
C281	C	-0.038399	-0.487942	-0.000189
C282	C	0.461601	0.012058	0.499811
H283	H	-0.069566	-0.395609	-0.000221
H284	H	0.430434	0.104391	0.499779
H285	H	-0.000058	-0.399080	0.043681
H286	H	0.499942	0.100920	0.543681
H287	H	-0.000047	-0.399135	-0.044125
H288	H	0.499953	0.100865	0.455875
H289	H	-0.064368	-0.503343	0.043726
H290	H	0.435632	-0.003343	0.543726
H291	H	-0.064372	-0.503404	-0.044088
H292	H	0.435628	-0.003404	0.455912
H293	H	0.006680	-0.910878	0.330041
H294	H	0.506680	-0.410878	0.830041
C295	C	-0.321658	-0.963489	-0.064957
C296	C	0.178342	-0.463489	0.435043
C297	C	-0.279279	-0.960204	-0.000237
C298	C	0.220721	-0.460204	0.499763
H299	H	-0.352146	-1.006307	-0.064962
H300	H	0.147854	-0.506307	0.435038
H301	H	-0.348686	-0.925122	-0.064948
H302	H	0.151314	-0.425122	0.435052
H303	H	-0.292880	-0.961277	-0.108854
H304	H	0.207120	-0.461277	0.391146
H305	H	-0.308056	-0.962411	0.043661
H306	H	0.191944	-0.462411	0.543661
H307	H	-0.252248	-0.998581	-0.000239
H308	H	0.247752	-0.498581	0.499761
H309	H	-0.103448	-0.713281	-0.000190
H310	H	0.396552	-0.213281	0.499810
H311	H	-0.018171	-0.628003	-0.000150
H312	H	0.481829	-0.128003	0.499850
C313	C	0.181932	-0.655894	0.805449
C314	C	0.681932	-0.155894	1.305449
C315	C	0.192952	-0.724538	0.824564
C316	C	0.692952	-0.224538	1.324564
H317	H	0.214228	-0.623579	0.832350
H318	H	0.714228	-0.123579	1.332350
H319	H	0.188745	-0.649080	0.752591
H320	H	0.688745	-0.149080	1.252591
H321	H	0.135350	-0.648468	0.818456
H322	H	0.635350	-0.148468	1.318456
H323	H	0.239533	-0.731966	0.811551
H324	H	0.739533	-0.231966	1.311551
H325	H	0.186145	-0.731355	0.877434
H326	H	0.686145	-0.231355	1.377434
H327	H	0.006681	-0.910869	0.186275
H328	H	0.506681	-0.410869	0.686275
