data_functionalizedCrystal
_audit_creation_method	'MofGen! by Chris Wilmer'
_symmetry_space_group_name_H-M	'P1'
_symmetry_Int_Tables_number	1
_symmetry_cell_setting	triclinic
loop_
_symmetry_equiv_pos_as_xyz
  x,y,z
_cell_length_a	11.792241
_cell_length_b	15.625950
_cell_length_c	14.185569
_cell_angle_alpha	120.545593
_cell_angle_beta	103.241863
_cell_angle_gamma	95.781309
loop_
_atom_site_label
_atom_site_type_symbol
_atom_site_fract_x
_atom_site_fract_y
_atom_site_fract_z
O1	O	-0.029368	1.290821	0.385975
O2	O	0.470632	1.790821	0.885975
O3	O	-0.079247	1.002963	0.281301
O4	O	0.420753	1.502963	0.781301
O5	O	0.111683	1.153876	0.336171
O6	O	0.611683	1.653876	0.836171
O7	O	-0.220297	1.139908	0.331104
O8	O	0.279703	1.639908	0.831104
O9	O	0.168079	1.198457	0.519215
O10	O	0.668079	1.698457	1.019215
O11	O	-0.022850	1.047544	0.464344
O12	O	0.477150	1.547544	0.964344
O13	O	0.027029	1.335402	0.569019
O14	O	0.527029	1.835402	1.069019
Cu15	Cu	0.007239	1.195544	0.533395
Cu16	Cu	0.507239	1.695544	1.033395
Cu17	Cu	-0.059457	1.142822	0.316924
Cu18	Cu	0.440543	1.642822	0.816924
O19	O	-0.163901	1.184489	0.514148
O20	O	0.336099	1.684489	1.014148
C21	C	-0.054374	0.988401	0.359422
C22	C	0.445626	1.488401	0.859422
C23	C	-0.064271	0.878593	0.319492
C24	C	0.435729	1.378593	0.819492
C25	C	0.056785	0.638828	0.686917
C26	C	0.556785	1.138828	1.186917
C27	C	0.047447	0.535631	0.649345
C28	C	0.547447	1.035631	1.149345
C29	C	-0.014030	0.487082	0.449816
C30	C	0.485970	0.987082	0.949816
C31	C	-0.004703	0.590276	0.487372
C32	C	0.495297	1.090276	0.987372
C33	C	0.030707	0.666141	0.605923
C34	C	0.530707	1.166141	1.105923
C35	C	-0.030781	0.617589	0.406378
C36	C	0.469219	1.117589	0.906378
C37	C	-0.021448	0.720775	0.443931
C38	C	0.478552	1.220775	0.943931
C39	C	0.013962	0.796646	0.562478
C40	C	0.513962	1.296646	1.062478
C41	C	0.040039	0.769327	0.643476
C42	C	0.540039	1.269327	1.143476
C43	C	-0.066182	0.541723	0.287827
C44	C	0.433818	1.041723	0.787827
C45	C	-0.092260	0.569037	0.206834
C46	C	0.407740	1.069037	0.706834
C47	C	-0.082936	0.672223	0.244386
C48	C	0.417064	1.172223	0.744386
C49	C	-0.047525	0.748094	0.362932
C50	C	0.452475	1.248094	0.862932
C51	C	-0.109013	0.699542	0.163387
C52	C	0.390987	1.199542	0.663387
C53	C	-0.099680	0.802727	0.200940
C54	C	0.400320	1.302727	0.700940
C55	C	-0.038193	0.851279	0.400485
C56	C	0.461807	1.351279	0.900485
C57	C	-0.234286	1.163077	0.422947
C58	C	0.265714	1.663077	0.922947
C59	C	-0.359989	1.165705	0.423907
C60	C	0.140011	1.665705	0.923907
C61	C	-0.590142	1.170528	0.425636
C62	C	-0.090142	1.670528	0.925636
C63	C	-0.462068	1.167848	0.424675
C64	C	0.037932	1.667848	0.924675
C65	C	0.182067	1.175288	0.427370
C66	C	0.682067	1.675288	0.927370
C67	C	0.307769	1.172658	0.426403
C68	C	0.807769	1.672658	0.926403
C69	C	0.002156	1.349964	0.490895
C70	C	0.502156	1.849964	0.990895
C71	C	0.012050	1.459770	0.530818
C72	C	0.512050	1.959770	1.030818
N73	N	0.054150	1.232633	0.685651
N74	N	0.554150	1.732633	1.185651
N75	N	-0.106358	1.105740	0.164671
N76	N	0.393642	1.605740	0.664671
C77	C	-0.244135	0.996772	0.967544
C78	C	0.255865	1.496772	1.467544
C79	C	-0.208607	1.024873	1.082783
C80	C	0.291393	1.524873	1.582783
C81	C	-0.039594	1.158534	1.131342
C82	C	0.460406	1.658534	1.631342
C83	C	-0.075104	1.130441	1.016104
C84	C	0.424896	1.630441	1.516104
C85	C	-0.177377	1.049560	0.934213
C86	C	0.322623	1.549560	1.434213
C87	C	-0.008346	1.183229	0.982773
C88	C	0.491654	1.683229	1.482773
C89	C	-0.043857	1.155140	0.867546
C90	C	0.456143	1.655140	1.367546
C91	C	-0.146128	1.074264	0.785650
C92	C	0.353872	1.574264	1.285650
C93	C	-0.212888	1.021471	0.818986
C94	C	0.287112	1.521471	1.318986
C95	C	0.093921	1.264114	1.064667
C96	C	0.593921	1.764114	1.564667
C97	C	0.160680	1.316902	1.031336
C98	C	0.660680	1.816902	1.531336
C99	C	0.125174	1.288809	0.916106
C100	C	0.625174	1.788809	1.416106
C101	C	0.022903	1.207933	0.834209
C102	C	0.522903	1.707933	1.334209
C103	C	0.191934	1.341602	0.882769
C104	C	0.691934	1.841602	1.382769
C105	C	0.156423	1.313514	0.767542
C106	C	0.656423	1.813514	1.267542
C107	C	-0.012608	1.179845	0.718982
C108	C	0.487392	1.679845	1.218982
H109	H	0.021561	0.880665	0.593051
H110	H	0.521561	1.380665	1.093051
H111	H	0.275199	1.407463	0.949461
H112	H	0.775199	1.907463	1.449461
O113	O	-0.122904	1.092600	0.630626
O114	O	0.377096	1.592600	1.130626
H115	H	-0.203147	1.111049	0.657472
H116	H	0.296853	1.611049	1.157472
O117	O	-0.354418	0.909512	0.879187
O118	O	0.145582	1.409512	1.379187
H119	H	-0.421159	0.938620	0.841904
H120	H	0.078841	1.438620	1.341904
H121	H	0.122828	1.286983	1.158492
H122	H	0.622828	1.786983	1.658492
H123	H	0.210784	1.356501	0.740406
H124	H	0.710784	1.856501	1.240406
H125	H	-0.175043	1.051399	0.691826
H126	H	0.324957	1.551399	1.191826
H127	H	0.043675	1.224391	1.198031
H128	H	0.543675	1.724391	1.698031
H129	H	0.068855	0.831100	0.740012
H130	H	0.568855	1.331100	1.240012
H131	H	-0.073785	0.457704	0.257255
H132	H	0.426215	0.957704	0.757255
H133	H	-0.121085	0.507254	0.110308
H134	H	0.378915	1.007254	0.610308
H135	H	0.085601	0.700601	0.783453
H136	H	0.585601	1.200601	1.283453
O137	O	-0.000014	0.933119	0.528352
O138	O	0.499986	1.433119	1.028352
H139	H	0.091174	0.933355	0.572041
H140	H	0.591174	1.433355	1.072041
O141	O	-0.323196	0.934233	0.730646
O142	O	0.176804	1.434233	1.230646
H143	H	-0.363660	0.902243	0.773178
H144	H	0.136340	1.402243	1.273178
H145	H	0.243949	1.382759	1.098025
H146	H	0.743949	1.882759	1.598025
H147	H	0.068659	0.513398	0.715308
H148	H	0.568659	1.013398	1.215308
O149	O	-0.147190	0.617720	0.035524
O150	O	0.352810	1.117720	0.535524
H151	H	-0.231149	0.561157	0.010583
H152	H	0.268851	1.061157	0.510583
H153	H	-0.042854	0.425300	0.353291
H154	H	0.457146	0.925300	0.853291
H155	H	-0.120921	0.824965	0.134986
H156	H	0.379079	1.324965	0.634986
H157	H	-0.262981	0.981881	1.109911
H158	H	0.237019	1.481881	1.609911
