data_functionalizedCrystal
_audit_creation_method	'MofGen! by Chris Wilmer'
_symmetry_space_group_name_H-M	'P1'
_symmetry_Int_Tables_number	1
_symmetry_cell_setting	triclinic
loop_
_symmetry_equiv_pos_as_xyz
  x,y,z
_cell_length_a	12.837932
_cell_length_b	15.944493
_cell_length_c	11.892095
_cell_angle_alpha	93.894412
_cell_angle_beta	85.688545
_cell_angle_gamma	89.152373
loop_
_atom_site_label
_atom_site_type_symbol
_atom_site_fract_x
_atom_site_fract_y
_atom_site_fract_z
O1	O	1.382041	0.213533	-0.093977
O2	O	1.080237	0.202745	-0.093980
O3	O	1.239413	0.086522	-0.093988
O4	O	1.222866	0.329756	-0.093969
O5	O	1.226141	0.096196	0.094021
O6	O	1.066966	0.212419	0.094028
O7	O	1.368769	0.223207	0.094031
Zn8	Zn	1.215760	0.219349	0.123880
Zn9	Zn	1.233246	0.206603	-0.123829
O10	O	1.209594	0.339430	0.094039
C11	C	1.034982	0.203937	0.000024
C12	C	0.919907	0.193069	0.000022
C13	C	0.770081	0.102227	0.000017
C14	C	0.878205	0.112434	0.000017
C15	C	0.853475	0.263502	0.000029
C16	C	0.745351	0.253296	0.000029
C17	C	0.703658	0.172655	0.000021
C18	C	0.595532	0.162449	0.000012
C19	C	0.570803	0.313517	0.000033
C20	C	0.678928	0.323724	0.000033
C21	C	1.232101	0.060010	0.000012
C22	C	1.230074	-0.033402	-0.000003
C23	C	1.323767	-0.261665	0.000020
C24	C	1.279785	-0.321044	-0.092678
C25	C	1.226317	-0.204422	0.000011
C26	C	1.266677	-0.311485	0.092683
C27	C	1.222694	-0.369621	0.000029
C28	C	1.182367	-0.262576	-0.092763
C29	C	1.169267	-0.253007	0.092681
C30	C	1.125215	-0.312361	-0.000039
C31	C	1.228407	-0.109256	-0.000000
C32	C	1.220597	-0.464786	0.000033
C33	C	1.414025	0.222014	0.000026
C34	C	1.529101	0.232883	0.000020
C35	C	1.216906	0.365942	0.000037
C36	C	1.218933	0.459353	0.000044
N37	N	1.203834	0.228047	0.292935
N38	N	1.245181	0.197898	-0.292883
C39	C	1.328169	0.137321	0.529577
C40	C	1.319840	0.143408	0.647919
C41	C	1.178843	0.246304	0.647964
C42	C	1.187172	0.240217	0.529622
C43	C	1.261838	0.185724	0.470432
C44	C	1.270172	0.179642	0.352088
C45	C	1.129170	0.282533	0.352135
C46	C	1.120842	0.288620	0.470477
H47	H	0.932284	0.055083	0.000014
C48	C	0.724214	0.013526	0.000001
C49	C	0.660174	-0.019282	-0.097632
C50	C	0.614309	-0.107985	-0.097649
C51	C	0.632485	-0.163879	-0.000033
C52	C	0.696529	-0.131071	0.097608
C53	C	0.742393	-0.042368	0.097625
H54	H	0.646716	0.022094	-0.169900
H55	H	0.566900	-0.132271	-0.169930
H56	H	0.598534	-0.229542	-0.000046
H57	H	0.709986	-0.172447	0.169876
H58	H	0.789802	-0.018082	0.169905
H59	H	1.146773	-0.241084	-0.171216
H60	H	1.041213	-0.334551	-0.000091
H61	H	1.122616	-0.223304	0.171053
H62	H	1.373852	0.103992	0.696071
H63	H	1.118045	0.290664	0.696171
H64	H	0.516709	0.370865	0.000036
H65	H	1.302321	-0.333090	0.171047
C66	C	1.342849	-0.361152	-0.198551
C67	C	1.460031	-0.343174	-0.218919
C68	C	1.523101	-0.383277	-0.324788
C69	C	1.468988	-0.441358	-0.410289
C70	C	1.351800	-0.459339	-0.389923
C71	C	1.288730	-0.419236	-0.284054
H72	H	1.500094	-0.300177	-0.155624
H73	H	1.609852	-0.369966	-0.339863
H74	H	1.515676	-0.471044	-0.488660
H75	H	1.311737	-0.502337	-0.453219
H76	H	1.201979	-0.432547	-0.268979
H77	H	1.060047	0.332985	0.518683
C78	C	0.899361	0.352196	0.000025
C79	C	0.963414	0.385008	0.097646
C80	C	1.009306	0.473700	0.097633
C81	C	0.991145	0.529580	-0.000002
C82	C	0.927089	0.496769	-0.097630
C83	C	0.881197	0.408077	-0.097617
H84	H	0.976860	0.343641	0.169927
H85	H	1.056724	0.497988	0.169904
H86	H	1.025117	0.595235	-0.000011
H87	H	0.913643	0.538136	-0.169912
H88	H	0.833779	0.383789	-0.169889
H89	H	0.712889	0.389379	0.000044
H90	H	0.561589	0.096788	0.000002
C91	C	1.352299	0.119700	0.286976
C92	C	1.349425	0.024744	0.303238
C93	C	1.431553	-0.035201	0.238131
C94	C	1.516554	-0.000191	0.156762
C95	C	1.519431	0.094770	0.140496
C96	C	1.437303	0.154716	0.205603
H97	H	1.286500	-0.001177	0.363476
H98	H	1.429422	-0.105498	0.250173
H99	H	1.577349	-0.044566	0.108565
H100	H	1.582356	0.120691	0.080258
H101	H	1.439434	0.225012	0.193562
C102	C	1.410302	0.077386	0.464462
C103	C	1.407447	-0.017571	0.480721
C104	C	1.489583	-0.077507	0.415610
C105	C	1.574574	-0.042485	0.334239
C106	C	1.577433	0.052476	0.317976
C107	C	1.495297	0.112412	0.383088
H108	H	1.344528	-0.043501	0.540960
H109	H	1.487466	-0.147804	0.427649
H110	H	1.635376	-0.086853	0.286039
H111	H	1.640352	0.078406	0.257738
H112	H	1.497414	0.182709	0.371049
H113	H	1.407715	-0.239325	-0.000073
H114	H	1.075163	0.321949	0.303966
