data_functionalizedCrystal
_audit_creation_method	'MofGen! by Chris Wilmer'
_symmetry_space_group_name_H-M	'P1'
_symmetry_Int_Tables_number	1
_symmetry_cell_setting	triclinic
loop_
_symmetry_equiv_pos_as_xyz
  x,y,z
_cell_length_a	16.974800
_cell_length_b	14.519731
_cell_length_c	15.455313
_cell_angle_alpha	92.669259
_cell_angle_beta	90.973911
_cell_angle_gamma	83.539176
loop_
_atom_site_label
_atom_site_type_symbol
_atom_site_fract_x
_atom_site_fract_y
_atom_site_fract_z
O1	O	1.049248	0.117561	0.001549
O2	O	0.819836	0.131644	-0.014563
O3	O	0.940615	-0.009630	-0.006073
O4	O	0.928469	0.258835	-0.006941
O5	O	0.933709	-0.001585	0.137704
O6	O	0.812929	0.139690	0.129214
O7	O	1.042341	0.125606	0.145326
Cu8	Cu	0.927005	0.133383	0.150397
Cu9	Cu	0.935173	0.123868	-0.019635
O10	O	0.921562	0.266881	0.136835
C11	C	0.787022	0.134984	0.055263
C12	C	0.699538	0.132938	0.049119
C13	C	0.654677	0.136360	0.124607
C14	C	0.572477	0.134422	0.118837
C15	C	0.535139	0.129070	0.037578
C16	C	0.580006	0.125645	-0.037916
C17	C	0.662205	0.127575	-0.032145
C18	C	0.289706	0.122818	0.011913
C19	C	0.207501	0.120891	0.006147
C20	C	0.199978	0.129667	0.162901
C21	C	0.282178	0.131603	0.168665
C22	C	0.327038	0.128173	0.093172
N23	N	0.451118	0.127092	0.031677
N24	N	0.411059	0.130144	0.099073
C25	C	0.936593	-0.039967	0.065776
C26	C	0.934887	-0.142348	0.065657
C27	C	0.933501	-0.225494	0.065557
C28	C	0.931770	-0.329804	0.065429
C29	C	0.930396	-0.412944	0.065327
C30	C	0.928665	-0.517261	0.065200
C31	C	1.075155	0.122266	0.075497
C32	C	1.162640	0.124313	0.081636
C33	C	0.925585	0.297218	0.064985
C34	C	0.927290	0.399599	0.065098
N35	N	0.921265	0.140074	0.269990
N36	N	0.940918	0.117169	-0.139227
C37	C	0.972595	0.080078	0.318992
C38	C	0.968262	0.085147	0.409495
C39	C	0.912603	0.150217	0.450995
C40	C	0.861268	0.210216	0.401986
C41	C	0.865598	0.205142	0.311484
C42	C	0.893913	0.172094	0.721262
C43	C	0.889589	0.177165	0.811771
C44	C	0.996582	0.052095	0.819274
C45	C	1.000910	0.047030	0.728771
C46	C	0.949573	0.107026	0.679769
N47	N	0.908174	0.155402	0.543504
N48	N	0.953998	0.101836	0.587262
H49	H	0.698730	0.124791	-0.093616
H50	H	0.685071	0.140726	0.190778
O51	O	1.018104	0.026741	0.456994
C52	C	1.006222	-0.065837	0.434004
H53	H	0.978984	-0.069509	0.366171
H54	H	0.964531	-0.091642	0.482201
C55	C	1.119807	-0.122635	0.518727
C56	C	1.086360	-0.127146	0.435411
H57	H	1.169239	-0.160455	0.519599
H58	H	1.127811	-0.060264	0.534220
H59	H	1.085057	-0.144137	0.558882
H60	H	1.121106	-0.105633	0.395259
H61	H	1.078364	-0.189515	0.419911
H62	H	0.815945	0.263195	0.435779
H63	H	0.549600	0.121280	-0.104079
O64	O	0.844014	0.230473	0.673802
C65	C	0.793951	0.288978	0.729841
H66	H	0.823179	0.293739	0.796612
H67	H	0.734910	0.259381	0.735376
C68	C	0.743641	0.380585	0.611369
C69	C	0.779542	0.386440	0.693377
H70	H	0.734749	0.440703	0.588876
H71	H	0.777367	0.341167	0.573614
H72	H	0.694444	0.355918	0.615993
H73	H	0.828743	0.411096	0.688751
H74	H	0.745824	0.425864	0.731131
O75	O	0.318424	0.136635	0.247625
C76	C	0.304843	0.059048	0.294527
H77	H	0.290611	0.000176	0.247519
H78	H	0.252788	0.078703	0.339902
C79	C	0.397029	0.099580	0.405704
C80	C	0.379556	0.027269	0.347967
H81	H	0.443113	0.079978	0.438672
H82	H	0.406177	0.151854	0.374107
H83	H	0.353644	0.115952	0.443508
H84	H	0.422936	0.010906	0.310157
H85	H	0.370416	-0.025009	0.379559
O86	O	0.529013	0.137800	0.192252
C87	C	0.579597	0.142923	0.265210
H88	H	0.636072	0.172182	0.246115
H89	H	0.595346	0.070562	0.290507
C90	C	0.467923	0.170805	0.359982
C91	C	0.537285	0.206749	0.336530
H92	H	0.441823	0.210172	0.403977
H93	H	0.433844	0.167350	0.310829
H94	H	0.481058	0.110505	0.381057
H95	H	0.524149	0.267042	0.315446
H96	H	0.571361	0.210215	0.385682
H97	H	0.177102	0.116534	-0.060027
H98	H	0.326222	0.120023	-0.049559
O99	O	0.156385	0.132823	0.236208
C100	C	0.117411	0.052182	0.238172
H101	H	0.150476	-0.005496	0.195868
H102	H	0.054131	0.067581	0.212604
C103	C	0.075039	0.092046	0.383960
C104	C	0.115655	0.021203	0.332007
H105	H	0.073953	0.072938	0.441841
H106	H	0.101295	0.146378	0.382636
H107	H	0.022311	0.104872	0.362643
H108	H	0.168385	0.008386	0.353317
H109	H	0.089409	-0.033132	0.333336
H110	H	1.017921	0.027095	0.285210
H111	H	1.046232	-0.005955	0.694984
H112	H	1.038378	0.003248	0.859179
O113	O	0.835479	0.240252	0.852182
C114	C	0.784289	0.193627	0.901122
H115	H	0.814929	0.122325	0.916872
H116	H	0.727704	0.185213	0.862177
C117	C	0.725784	0.337951	0.966570
C118	C	0.763420	0.250381	0.985920
H119	H	0.712907	0.372961	1.018876
H120	H	0.760269	0.369365	0.933596
H121	H	0.678634	0.330927	0.934114
H122	H	0.810572	0.257405	1.018366
H123	H	0.728941	0.218969	1.018902
H124	H	0.823799	0.253996	0.271586
