data_functionalizedCrystal
_audit_creation_method	'MofGen! by Chris Wilmer'
_symmetry_space_group_name_H-M	'P1'
_symmetry_Int_Tables_number	1
_symmetry_cell_setting	triclinic
loop_
_symmetry_equiv_pos_as_xyz
  x,y,z
_cell_length_a	12.759401
_cell_length_b	25.639239
_cell_length_c	12.759393
_cell_angle_alpha	89.962948
_cell_angle_beta	89.981504
_cell_angle_gamma	90.038847
loop_
_atom_site_label
_atom_site_type_symbol
_atom_site_fract_x
_atom_site_fract_y
_atom_site_fract_z
Zn1	Zn	1.606080	-0.208118	-0.593941
Zn2	Zn	1.605901	-0.295564	-0.418245
Zn3	Zn	1.430382	-0.208145	-0.418281
Zn4	Zn	1.430297	-0.295524	-0.593886
O5	O	1.518165	-0.251838	-0.506088
O6	O	1.753078	-0.219723	-0.570643
O7	O	1.582579	-0.283996	-0.271228
O8	O	1.453799	-0.134976	-0.441621
O9	O	1.752946	-0.283970	-0.441559
O10	O	1.582884	-0.134956	-0.570678
O11	O	1.453626	-0.219770	-0.271255
O12	O	1.283350	-0.219731	-0.441567
O13	O	1.453655	-0.283901	-0.740914
O14	O	1.283288	-0.283928	-0.570584
O15	O	1.582802	-0.219684	-0.740955
O16	O	1.582496	-0.368724	-0.441505
O17	O	1.453481	-0.368695	-0.570549
C18	C	1.245198	-0.251828	-0.506074
C19	C	1.128421	-0.251837	-0.506093
C20	C	1.073554	-0.285318	-0.573160
C21	C	0.963830	-0.285324	-0.573172
C22	C	0.963850	-0.218368	-0.439039
C23	C	1.073572	-0.218359	-0.439033
C24	C	1.128404	-0.318796	-0.640220
C25	C	1.073536	-0.352280	-0.707292
C26	C	0.963812	-0.352286	-0.707303
C27	C	0.908955	-0.318809	-0.640242
C28	C	1.517989	-0.387680	-0.506040
C29	C	1.518009	-0.445795	-0.506055
C30	C	1.585519	-0.806160	-0.439010
C31	C	1.585560	-0.860765	-0.439024
O32	O	1.642775	-0.889004	-0.381967
N33	N	1.518350	-0.888077	-0.506158
C34	C	1.451103	-0.860782	-0.573289
O35	O	1.393940	-0.889027	-0.630394
C36	C	1.451068	-0.806179	-0.573280
C37	C	1.518275	-0.778869	-0.506134
C38	C	1.652721	-0.778851	-0.371870
C39	C	1.652678	-0.724250	-0.371855
C40	C	1.585434	-0.696959	-0.438980
C41	C	1.518232	-0.724269	-0.506119
C42	C	1.383827	-0.778885	-0.640416
C43	C	1.383799	-0.724278	-0.640401
C44	C	1.451005	-0.696968	-0.573256
C45	C	1.450946	-0.642377	-0.573228
N46	N	1.518155	-0.615065	-0.506094
C47	C	1.585399	-0.642356	-0.438970
C48	C	1.451182	-0.975453	-0.573306
C49	C	1.451210	-1.030055	-0.573311
C50	C	1.585669	-1.030034	-0.439046
C51	C	1.585634	-0.975430	-0.439037
C52	C	1.518391	-0.948140	-0.506172
C53	C	1.585305	-0.527691	-0.438943
C54	C	1.585253	-0.473086	-0.438930
C55	C	1.450799	-0.473111	-0.573198
C56	C	1.450846	-0.527712	-0.573207
C57	C	1.518108	-0.555000	-0.506076
O58	O	1.393762	-0.614103	-0.630258
O59	O	1.642562	-0.614104	-0.381885
C60	C	1.792198	-0.251848	-0.506103
C61	C	1.908975	-0.251852	-0.506109
C62	C	1.518239	-0.251785	-0.780122
C63	C	1.518270	-0.251763	-0.896898
C64	C	1.518371	-0.115465	-0.506159
C65	C	1.518459	-0.057351	-0.506190
C66	C	1.585526	-0.218322	-0.951783
C67	C	1.585551	-0.218303	-1.061507
C68	C	1.451061	-0.285170	-1.061452
C69	C	1.451032	-0.285186	-0.951730
C70	C	1.652765	-0.184898	-0.896952
C71	C	1.720027	-0.151455	-0.951837
C72	C	1.720052	-0.151436	-1.061561
C73	C	1.652815	-0.184860	-1.116400
C74	C	1.518152	-0.251853	-0.233121
C75	C	1.518325	-0.251728	-0.116345
H76	H	1.118246	-0.191092	-0.384429
O77	O	1.386030	-1.056556	-0.638679
C78	C	1.334900	-1.073185	-0.817352
C79	C	1.408795	-1.043152	-0.743435
H80	H	1.353265	-1.062350	-0.902061
H81	H	1.346475	-1.116907	-0.805934
H82	H	1.250195	-1.062504	-0.798770
H83	H	1.493529	-1.053790	-0.761972
H84	H	1.397130	-0.999438	-0.754866
H85	H	1.639981	-0.450852	-0.384249
H86	H	1.329043	-0.702061	-0.695074
H87	H	1.640360	-0.953198	-0.384362
H88	H	1.217746	-0.318795	-0.640216
H89	H	1.118208	-0.379532	-0.761897
H90	H	1.640078	-0.549903	-0.384280
H91	H	1.707407	-0.702018	-0.317183
O92	O	1.385609	-0.317584	-1.114673
C93	C	1.206874	-0.342977	-1.148180
C94	C	1.280874	-0.306225	-1.087862
H95	H	1.122181	-0.333813	-1.126508
H96	H	1.218360	-0.337220	-1.236041
H97	H	1.225310	-0.385136	-1.126588
H98	H	1.262484	-0.264052	-1.109365
H99	H	1.269374	-0.312027	-1.000015
H100	H	1.652754	-0.184911	-0.807609
O101	O	1.385795	-0.948888	-0.638369
C102	C	1.243841	-0.887339	-0.652370
C103	C	1.317839	-0.917377	-0.578568
H104	H	1.188866	-0.861864	-0.604050
H105	H	1.291962	-0.861695	-0.707334
H106	H	1.195864	-0.916254	-0.700370
H107	H	1.365832	-0.888500	-0.530500
H108	H	1.269657	-0.943029	-0.523674
H109	H	1.707485	-0.801065	-0.317210
H110	H	1.774763	-0.124238	-0.907179
O111	O	1.785482	-0.118933	-1.114715
C112	C	1.918834	-0.052590	-1.103183
C113	C	1.844799	-0.089381	-1.042859
H114	H	1.966795	-0.028681	-1.045114
H115	H	1.973813	-0.076565	-1.154513
H116	H	1.870639	-0.025262	-1.154595
H117	H	1.892908	-0.116717	-0.991391
H118	H	1.789817	-0.065374	-0.991596
O119	O	0.910466	-0.384734	-0.772569
C120	C	0.786592	-0.391866	-0.914359
C121	C	0.846956	-0.355056	-0.840530
H122	H	0.735212	-0.367887	-0.969309
H123	H	0.844598	-0.415781	-0.962361
H124	H	0.735220	-0.419189	-0.866003
H125	H	0.898329	-0.327702	-0.888805
H126	H	0.788893	-0.331178	-0.792524
O127	O	1.651035	-1.056630	-0.374014
C128	C	1.710793	-1.140747	-0.314670
C129	C	1.636691	-1.110691	-0.388337
H130	H	1.699206	-1.184460	-0.326208
H131	H	1.795480	-1.129976	-0.333292
H132	H	1.692497	-1.130052	-0.229909
H133	H	1.654892	-1.121370	-0.473123
H134	H	1.552026	-1.121465	-0.369624
H135	H	0.819611	-0.318813	-0.640266
O136	O	1.318512	-0.805324	-0.705745
C137	C	1.185120	-0.799558	-0.838888
C138	C	1.259056	-0.769553	-0.764967
H139	H	1.137015	-0.770650	-0.886772
H140	H	1.233293	-0.825060	-0.893944
H141	H	1.130261	-0.825183	-0.790609
H142	H	1.313929	-0.743899	-0.813160
H143	H	1.210817	-0.744083	-0.709907
O144	O	1.385834	-0.317752	-0.898444
C145	C	1.334698	-0.406694	-0.864827
C146	C	1.408609	-0.369872	-0.925227
H147	H	1.353070	-0.448841	-0.886475
H148	H	1.346248	-0.401005	-0.776978
H149	H	1.249999	-0.397490	-0.886369
H150	H	1.493337	-0.379054	-0.903773
H151	H	1.396968	-0.375568	-1.013061
O152	O	0.910683	-0.185879	-0.373746
C153	C	0.877028	-0.160422	-0.195121
C154	C	0.937319	-0.197239	-0.268953
H155	H	0.898524	-0.169601	-0.110381
H156	H	0.898670	-0.118263	-0.213635
H157	H	0.789186	-0.166171	-0.206696
H158	H	1.025174	-0.191536	-0.257420
H159	H	0.915590	-0.239384	-0.250422
O160	O	1.385527	-0.554163	-0.638526
C161	C	1.252125	-0.548414	-0.771661
C162	C	1.326052	-0.518399	-0.697747
H163	H	1.204004	-0.519513	-0.819545
H164	H	1.300306	-0.573912	-0.826719
H165	H	1.197280	-0.574045	-0.723378
H166	H	1.380911	-0.492741	-0.745945
H167	H	1.277805	-0.492934	-0.642686
H168	H	1.396046	-0.450883	-0.627847
H169	H	1.652828	-0.184836	-1.205745
