data_functionalizedCrystal
_audit_creation_method	'MofGen! by Chris Wilmer'
_symmetry_space_group_name_H-M	'P1'
_symmetry_Int_Tables_number	1
_symmetry_cell_setting	triclinic
loop_
_symmetry_equiv_pos_as_xyz
  x,y,z
_cell_length_a	12.777686
_cell_length_b	15.624803
_cell_length_c	15.625186
_cell_angle_alpha	140.974261
_cell_angle_beta	97.076928
_cell_angle_gamma	97.078956
loop_
_atom_site_label
_atom_site_type_symbol
_atom_site_fract_x
_atom_site_fract_y
_atom_site_fract_z
O1	O	-0.351495	0.482514	-0.711669
O2	O	-0.328269	0.351133	-0.580310
O3	O	-0.188415	0.421577	-0.650741
O4	O	-0.491349	0.412070	-0.641239
O5	O	-0.119331	0.650826	-0.421495
O6	O	-0.259185	0.580383	-0.351064
O7	O	-0.282411	0.711763	-0.482423
Zn8	Zn	-0.259830	0.682471	-0.380346
Zn9	Zn	-0.350851	0.380425	-0.682388
O10	O	-0.422265	0.641320	-0.411992
C11	C	-0.287931	0.448968	-0.448899
C12	C	-0.270647	0.398937	-0.398877
C13	C	-0.114740	0.536202	-0.536127
C14	C	0.004061	0.536200	-0.536126
C15	C	-0.495944	0.526684	-0.526618
C16	C	-0.614747	0.526679	-0.526625
C17	C	-0.402076	-0.390471	-0.859309
C18	C	-0.385814	-0.437478	-0.812305
C19	C	-0.310498	-0.187571	-0.562378
C20	C	-0.326748	-0.140540	-0.609362
C21	C	-0.372539	-0.241999	-0.757829
C22	C	-0.297211	0.007931	-0.507882
C23	C	-0.313466	0.054956	-0.554863
C24	C	-0.359258	-0.046490	-0.703323
C25	C	-0.388794	-0.194974	-0.804810
C26	C	-0.251428	0.109387	-0.359415
C27	C	-0.221890	0.257859	-0.257935
C28	C	-0.238138	0.304887	-0.304916
C29	C	-0.283930	0.203440	-0.453376
C30	C	-0.208602	0.453371	-0.203429
C31	C	-0.224857	0.500396	-0.250410
C32	C	-0.300184	0.250466	-0.500357
O33	O	0.311578	0.412060	-0.641239
O34	O	0.008651	0.421583	-0.650738
O35	O	0.148489	0.351140	-0.580301
O36	O	0.171740	0.482502	-0.711677
O37	O	0.217579	0.580393	-0.351058
O38	O	0.077741	0.650836	-0.421495
O39	O	0.380669	0.641313	-0.411996
Zn40	Zn	0.240174	0.682473	-0.380348
Zn41	Zn	0.149145	0.380422	-0.682386
O42	O	0.240831	0.711755	-0.482434
C43	C	-0.322750	0.613926	-0.613837
C44	C	-0.340037	0.663947	-0.663868
C45	C	0.177238	0.448990	-0.448878
C46	C	0.159954	0.399000	-0.398815
C47	C	0.212085	0.613915	-0.613847
C48	C	0.229377	0.663934	-0.663881
C49	C	0.291411	0.859393	0.390553
C50	C	0.275154	0.812376	0.437550
C51	C	0.199833	0.562449	0.187644
C52	C	0.216079	0.609445	0.140623
C53	C	0.261869	0.757919	0.242087
C54	C	0.186537	0.507970	-0.007842
C55	C	0.202787	0.554963	-0.054857
C56	C	0.248579	0.703430	0.046594
C57	C	0.278119	0.804911	0.195072
C58	C	0.140753	0.359497	-0.109303
C59	C	0.111212	0.258022	-0.257769
C60	C	0.127454	0.305015	-0.304786
C61	C	0.173246	0.453482	-0.203335
C62	C	0.097913	0.203534	-0.453264
C63	C	0.114163	0.250526	-0.500279
C64	C	0.189496	0.500475	-0.250350
N65	N	-0.197710	0.888613	-0.174213
N66	N	-0.412963	0.174287	-0.888523
N67	N	0.302310	0.888614	-0.174215
N68	N	0.087019	0.174277	-0.888514
C69	C	-0.114072	0.991930	-0.133301
C70	C	-0.070566	1.136245	0.010992
C71	C	-0.110707	1.177242	0.114367
C72	C	-0.194351	1.073911	0.073447
C73	C	-0.237849	0.929598	-0.070841
C74	C	-0.372918	0.133428	-0.991883
C75	C	-0.416385	-0.010866	-1.136195
C76	C	-0.499890	-0.114302	-1.177143
C77	C	-0.539939	-0.073434	-1.073772
C78	C	-0.496478	0.070860	-0.929465
C79	C	0.396097	0.987508	-0.128906
C80	C	0.439638	1.131812	0.015396
C81	C	0.389385	1.177223	0.114384
C82	C	0.295591	1.078316	0.069068
C83	C	0.252057	0.934012	-0.075229
C84	C	-0.006474	0.075233	-0.933678
C85	C	-0.049966	-0.069094	-1.077957
C86	C	0.000031	-0.114374	-1.177072
C87	C	0.093535	-0.015319	-1.131900
C88	C	0.137031	0.129003	-0.987621
H89	H	-0.337468	0.167846	-0.621254
H90	H	0.328685	0.980296	0.473175
H91	H	0.261808	0.741689	0.008306
H92	H	-0.304923	0.217630	-0.958566
H93	H	-0.238201	0.071088	-0.321168
O94	O	0.066905	0.113773	-0.356367
C95	C	0.137087	0.043404	-0.438121
H96	H	0.225907	0.125376	-0.373886
H97	H	0.139231	-0.046144	-0.461951
H98	H	0.102874	-0.005921	-0.544634
H99	H	-0.002462	1.220363	0.044285
O100	O	-0.074905	0.952355	-0.233506
C101	C	0.008230	1.074517	-0.166432
H102	H	0.046051	1.158921	-0.045096
H103	H	0.077263	1.040335	-0.215635
H104	H	-0.031397	1.123078	-0.184327
O105	O	-0.621082	-0.173725	-1.113327
C106	C	-0.647097	-0.106748	-0.991156
H107	H	-0.623041	0.014585	-0.906739
H108	H	-0.741222	-0.156075	-1.025313
H109	H	-0.598067	-0.124592	-0.942627
H110	H	0.226769	0.621377	-0.167727
O111	O	-0.054943	0.119452	-0.837239
C112	C	0.003500	0.268063	-0.700189
H113	H	0.049534	0.321705	-0.714466
H114	H	-0.058866	0.322286	-0.644729
H115	H	0.067087	0.280370	-0.630549
H116	H	0.127513	0.321241	-0.071013
H117	H	-0.075279	1.294756	0.231851
H118	H	-0.383762	-0.044119	-1.220345
O119	O	-0.542116	-0.254385	-1.317409
C120	C	-0.591207	-0.259984	-1.408199
H121	H	-0.552916	-0.150072	-1.351740
H122	H	-0.574504	-0.346847	-1.514349
H123	H	-0.685893	-0.287563	-1.431924
O124	O	-0.233254	1.114007	0.174040
C125	C	-0.176901	1.263533	0.310162
H126	H	-0.142740	1.319328	0.293681
H127	H	-0.238196	1.312790	0.370637
H128	H	-0.104203	1.279393	0.376239
H129	H	0.254675	1.115317	0.149681
H130	H	-0.529089	0.104113	-0.845312
O131	O	-0.319219	0.829158	-0.110790
C132	C	-0.416418	0.769363	-0.217865
H133	H	-0.391973	0.783286	-0.275115
H134	H	-0.457854	0.648960	-0.300364
H135	H	-0.478026	0.827487	-0.164704
O136	O	0.322784	0.949144	0.293693
C137	C	0.430865	1.007903	0.387029
H138	H	0.466675	0.917811	0.330901
H139	H	0.488558	1.093538	0.414727
H140	H	0.424761	1.059875	0.490932
H141	H	-0.184611	0.340454	-0.137053
H142	H	0.437028	0.950558	-0.209488
H143	H	-0.273218	-0.104975	-0.441495
O144	O	0.160905	0.838159	-0.119013
C145	C	0.125913	0.909193	-0.000683
H146	H	0.156631	1.030763	0.083465
H147	H	0.030076	0.865474	-0.040216
H148	H	0.162734	0.888781	0.050386
O149	O	-0.163950	0.551871	-0.059243
C150	C	-0.063163	0.537923	-0.030395
H151	H	-0.027115	0.485242	-0.119522
H152	H	0.000255	0.649859	0.078725
H153	H	-0.081128	0.467394	-0.027058
O154	O	0.530645	1.228055	0.059518
C155	C	0.501461	1.342830	0.111692
H156	H	0.425903	1.351146	0.146743
H157	H	0.575756	1.448938	0.208461
H158	H	0.479126	1.321219	0.022066
H159	H	0.424837	1.294732	0.231873
H160	H	-0.200810	0.621293	-0.167774
H161	H	0.299176	0.895023	0.558448
H162	H	-0.126097	-0.149730	-1.114710
O163	O	0.227867	0.225384	-0.943508
C164	C	0.255531	0.362495	-0.794922
H165	H	0.221388	0.348317	-0.741194
H166	H	0.350951	0.417953	-0.740732
H167	H	0.216627	0.432086	-0.782690
O168	O	-0.433210	-0.293329	-0.948983
C169	C	-0.441249	-0.219979	-0.968676
H170	H	-0.378517	-0.104038	-0.869804
H171	H	-0.421498	-0.278648	-1.069592
H172	H	-0.530231	-0.217940	-0.982559
H173	H	-0.035390	-0.231898	-1.294546
H174	H	0.090098	0.167896	-0.621172
H175	H	0.134229	-0.052206	-1.212624
H176	H	-0.372498	-0.008194	-0.741572
H177	H	0.060641	0.082646	-0.535861
O178	O	-0.446619	-0.489218	-1.003583
C179	C	-0.469177	-0.630353	-1.083090
H180	H	-0.479132	-0.629371	-1.010848
H181	H	-0.550193	-0.707411	-1.180809
H182	H	-0.396450	-0.668403	-1.121907
H183	H	-0.409874	-0.558384	-0.894953
H184	H	0.162555	0.441560	0.105044
