data_functionalizedCrystal
_audit_creation_method	'MofGen! by Chris Wilmer'
_symmetry_space_group_name_H-M	'P1'
_symmetry_Int_Tables_number	1
_symmetry_cell_setting	triclinic
loop_
_symmetry_equiv_pos_as_xyz
  x,y,z
_cell_length_a	17.699097
_cell_length_b	26.210047
_cell_length_c	17.699083
_cell_angle_alpha	89.996398
_cell_angle_beta	83.285722
_cell_angle_gamma	90.012614
loop_
_atom_site_label
_atom_site_type_symbol
_atom_site_fract_x
_atom_site_fract_y
_atom_site_fract_z
O1	O	1.004076	0.042472	0.095748
O2	O	1.504076	0.542472	0.595748
O3	O	0.783699	0.042464	0.108190
O4	O	1.283699	0.542464	0.608190
O5	O	0.900113	0.042464	-0.008220
O6	O	1.400113	0.542464	0.491780
O7	O	0.887661	0.042473	0.212158
O8	O	1.387661	0.542473	0.712158
O9	O	0.900091	-0.042394	-0.008202
O10	O	1.400091	0.457606	0.491798
O11	O	0.783676	-0.042394	0.108208
O12	O	1.283676	0.457606	0.608208
O13	O	1.004053	-0.042386	0.095766
O14	O	1.504053	0.457614	0.595766
Cu15	Cu	0.893863	-0.050138	0.101989
Cu16	Cu	1.393863	0.449862	0.601989
Cu17	Cu	0.893889	0.050217	0.101967
Cu18	Cu	1.393889	0.550217	0.601967
O19	O	0.887639	-0.042385	0.212176
O20	O	1.387639	0.457615	0.712176
C21	C	0.755491	0.000034	0.107752
C22	C	1.255491	0.500034	0.607752
C23	C	0.671473	0.000031	0.106409
C24	C	1.171473	0.500031	0.606409
C25	C	0.155767	0.046307	0.098170
C26	C	0.655767	0.546307	0.598170
C27	C	0.234711	0.046305	0.099426
C28	C	0.734711	0.546305	0.599426
C29	C	0.274165	0.000047	0.100065
C30	C	0.774165	0.500047	0.600065
C31	C	0.234671	-0.046212	0.099441
C32	C	0.734671	0.453788	0.599441
C33	C	0.155729	-0.046209	0.098179
C34	C	0.655729	0.453791	0.598179
C35	C	0.553036	-0.046225	0.104528
C36	C	1.053036	0.453775	0.604528
C37	C	0.631983	-0.046225	0.105792
C38	C	1.131983	0.453775	0.605792
C39	C	0.632017	0.046289	0.105775
C40	C	1.132017	0.546289	0.605775
C41	C	0.553075	0.046292	0.104513
C42	C	1.053075	0.546292	0.604513
C43	C	0.513589	0.000033	0.103885
C44	C	1.013589	0.500033	0.603885
C45	C	0.427989	0.000036	0.102521
C46	C	0.927989	0.500036	0.602521
C47	C	0.359763	0.000043	0.101434
C48	C	0.859763	0.500043	0.601434
N49	N	0.893849	-0.120722	0.102004
N50	N	1.393849	0.379278	0.602004
C51	C	0.945432	-0.473236	0.050433
C52	C	1.445432	0.026764	0.550433
C53	C	0.945449	-0.686895	0.050422
C54	C	1.445449	-0.186895	0.550422
O55	O	0.989278	-0.714517	0.006578
O56	O	1.489278	-0.214517	0.506578
N57	N	0.893893	-0.713616	0.101951
N58	N	1.393893	-0.213616	0.601951
C59	C	0.842326	-0.686919	0.153482
C60	C	1.342326	-0.186919	0.653482
O61	O	0.798470	-0.714550	0.197305
O62	O	1.298470	-0.214550	0.697305
C63	C	0.842307	-0.473261	0.153489
C64	C	1.342307	0.026739	0.653489
C65	C	0.893871	-0.446543	0.101962
C66	C	1.393871	0.053457	0.601962
C67	C	0.996992	-0.446518	-0.001090
C68	C	1.496992	0.053482	0.498910
C69	C	0.996990	-0.393106	-0.001084
C70	C	1.496990	0.106894	0.498916
C71	C	0.945429	-0.366413	0.050445
C72	C	1.445429	0.133587	0.550445
C73	C	0.893869	-0.393132	0.101968
C74	C	1.393869	0.106868	0.601968
C75	C	0.790737	-0.446566	0.205016
C76	C	1.290737	0.053434	0.705016
C77	C	0.790735	-0.393148	0.205012
C78	C	1.290735	0.106852	0.705012
C79	C	0.842299	-0.366430	0.153485
C80	C	1.342299	0.133570	0.653485
C81	C	0.842306	-0.313027	0.153503
C82	C	1.342306	0.186973	0.653503
N83	N	0.893861	-0.286306	0.101974
N84	N	1.393861	0.213694	0.601974
C85	C	0.945423	-0.312999	0.050445
C86	C	1.445423	0.187001	0.550445
C87	C	0.842341	-0.799092	0.153476
C88	C	1.342341	-0.299092	0.653476
C89	C	0.842347	-0.852507	0.153476
C90	C	1.342347	-0.352507	0.653476
C91	C	0.945469	-0.852478	0.050415
C92	C	1.445469	-0.352478	0.550415
C93	C	0.945466	-0.799063	0.050419
C94	C	1.445466	-0.299063	0.550419
C95	C	0.893897	-0.772371	0.101948
C96	C	1.393897	-0.272371	0.601948
C97	C	0.945415	-0.200831	0.050462
C98	C	1.445415	0.299169	0.550462
C99	C	0.945411	-0.147415	0.050474
C100	C	1.445411	0.352585	0.550474
C101	C	0.842287	-0.147448	0.153533
C102	C	1.342287	0.352552	0.653533
C103	C	0.842293	-0.200859	0.153523
C104	C	1.342293	0.299141	0.653523
C105	C	0.893861	-0.227550	0.101981
C106	C	1.393861	0.272450	0.601981
O107	O	0.798494	-0.285372	0.197318
O108	O	1.298494	0.214628	0.697318
O109	O	0.989261	-0.285359	0.006618
O110	O	1.489261	0.214641	0.506618
C111	C	0.945434	-0.526647	0.050427
C112	C	1.445434	-0.026647	0.550427
C113	C	0.893875	-0.553366	0.101950
C114	C	1.393875	-0.053366	0.601950
C115	C	0.842313	-0.526673	0.153479
C116	C	1.342313	-0.026673	0.653479
C117	C	0.893880	-0.606780	0.101950
C118	C	1.393880	-0.106780	0.601950
C119	C	0.945442	-0.633473	0.050420
C120	C	1.445442	-0.133473	0.550420
C121	C	0.996998	-0.606752	-0.001108
C122	C	1.496998	-0.106752	0.498892
C123	C	0.996996	-0.553340	-0.001102
C124	C	1.496996	-0.053340	0.498898
C125	C	0.790758	-0.553394	0.205008
C126	C	1.290758	-0.053394	0.705008
C127	C	0.790764	-0.606806	0.204998
C128	C	1.290764	-0.106806	0.704998
C129	C	0.842326	-0.633499	0.153469
C130	C	1.342326	-0.133499	0.653469
C131	C	1.032261	0.000046	0.096205
C132	C	1.532261	0.500046	0.596205
C133	C	1.116279	0.000052	0.097547
C134	C	1.616279	0.500052	0.597547
C135	C	0.899656	0.000035	-0.036408
C136	C	1.399656	0.500035	0.463592
C137	C	0.898317	0.000035	-0.120426
C138	C	1.398317	0.500035	0.379574
N139	N	0.893908	0.120800	0.101947
N140	N	1.393908	0.620800	0.601947
C141	C	0.966650	0.000036	-0.169044
C142	C	1.466650	0.500036	0.330956
C143	C	0.965388	0.000041	-0.247987
C144	C	1.465388	0.500041	0.252013
C145	C	0.895792	0.000040	-0.278311
C146	C	1.395792	0.500040	0.221689
C147	C	0.827454	0.000040	-0.229687
C148	C	1.327454	0.500040	0.270313
C149	C	0.828717	0.000039	-0.150745
C150	C	1.328717	0.500039	0.349255
C151	C	0.822359	0.000044	-0.548050
C152	C	1.322359	0.500044	-0.048050
C153	C	0.821101	0.000043	-0.626998
C154	C	1.321101	0.500043	-0.126998
C155	C	0.959030	0.000046	-0.645292
C156	C	1.459030	0.500046	-0.145292
C157	C	0.960293	0.000045	-0.566350
C158	C	1.460293	0.500045	-0.066350
C159	C	0.891955	0.000047	-0.517733
C160	C	1.391955	0.500047	-0.017733
C161	C	0.893325	0.000043	-0.432134
C162	C	1.393325	0.500043	0.067866
C163	C	0.894422	0.000040	-0.363909
C164	C	1.394422	0.500040	0.136091
C165	C	0.888096	0.000045	0.240364
C166	C	1.388096	0.500045	0.740364
C167	C	0.889435	0.000048	0.324382
C168	C	1.389435	0.500048	0.824382
H169	H	0.520955	0.083960	0.103997
H170	H	1.020955	0.583960	0.603997
H171	H	0.800346	-0.777363	0.195439
H172	H	1.300346	-0.277363	0.695439
C173	C	0.785546	-0.230251	0.210172
C174	C	1.285546	0.269749	0.710172
H175	H	0.754827	-0.206701	0.240850
H176	H	1.254827	0.293299	0.740850
H177	H	0.812674	-0.251102	0.241657
H178	H	1.312674	0.248898	0.741657
H179	H	0.754103	-0.251074	0.182940
H180	H	1.254103	0.248926	0.682940
H181	H	0.123649	0.083976	0.097655
H182	H	0.623649	0.583976	0.597655
H183	H	1.038984	-0.628494	-0.043063
H184	H	1.538984	-0.128494	0.456937
C185	C	0.278145	0.097185	0.100115
C186	C	0.778145	0.597185	0.600115
H187	H	0.243340	0.124735	0.099564
H188	H	0.743340	0.624735	0.599564
H189	H	0.314793	0.099109	0.056488
H190	H	0.814793	0.599109	0.556488
H191	H	0.303087	0.099106	0.144731
H192	H	0.803087	0.599106	0.644731
H193	H	0.664177	0.083954	0.106284
H194	H	1.164177	0.583954	0.606284
C195	C	0.785635	-0.881894	0.210160
C196	C	1.285635	-0.381894	0.710160
H197	H	0.793021	-0.917529	0.202789
H198	H	1.293021	-0.417529	0.702789
H199	H	0.735141	-0.873147	0.202001
H200	H	1.235141	-0.373147	0.702001
H201	H	0.793764	-0.873138	0.260666
H202	H	1.293764	-0.373138	0.760666
C203	C	0.675385	-0.097110	0.106490
C204	C	1.175385	0.402890	0.606490
H205	H	0.728054	-0.090484	0.107340
H206	H	1.228054	0.409516	0.607340
H207	H	0.668297	-0.116116	0.062166
H208	H	1.168297	0.383884	0.562166
H209	H	0.656587	-0.116116	0.150409
H210	H	1.156587	0.383884	0.650409
C211	C	1.036848	0.000048	-0.532998
C212	C	1.536848	0.500048	-0.032998
H213	H	1.077365	0.000055	-0.573260
H214	H	1.577365	0.500055	-0.073260
H215	H	1.040202	-0.029543	-0.502578
H216	H	1.540202	0.470457	-0.002578
H217	H	1.040211	0.029645	-0.502588
H218	H	1.540211	0.529645	-0.002588
C219	C	1.040552	0.000048	-0.301467
C220	C	1.540552	0.500048	0.198533
H221	H	1.029835	0.000057	-0.352825
H222	H	1.529835	0.500057	0.147175
H223	H	1.069093	-0.029542	-0.292292
H224	H	1.569093	0.470458	0.207708
H225	H	1.069098	0.029646	-0.292284
H226	H	1.569098	0.529646	0.207716
H227	H	0.987454	-0.874221	0.008459
H228	H	1.487454	-0.374221	0.508459
C229	C	0.509609	-0.097107	0.103847
C230	C	1.009609	0.402893	0.603847
H231	H	0.544414	-0.124656	0.104418
H232	H	1.044414	0.375344	0.604418
H233	H	0.484665	-0.099035	0.059237
H234	H	0.984665	0.400965	0.559237
H235	H	0.472961	-0.099027	0.147480
H236	H	0.972961	0.400973	0.647480
C237	C	0.744542	0.000049	-0.660353
C238	C	1.244542	0.500049	-0.160353
H239	H	0.704023	0.000056	-0.620093
H240	H	1.204023	0.500056	-0.120093
H241	H	0.741169	-0.029542	-0.690766
H242	H	1.241169	0.470458	-0.190766
H243	H	0.741201	0.029645	-0.690772
H244	H	1.241201	0.529645	-0.190772
C245	C	0.278068	-0.097095	0.100146
C246	C	0.778068	0.402905	0.600146
H247	H	0.330738	-0.090473	0.100995
H248	H	0.830738	0.409527	0.600995
H249	H	0.270977	-0.116104	0.055825
H250	H	0.770977	0.383896	0.555825
H251	H	0.259267	-0.116097	0.144068
H252	H	0.759267	0.383903	0.644068
C253	C	1.034201	0.000051	-0.698773
C254	C	1.534201	0.500051	-0.198773
H255	H	1.023485	0.000058	-0.750131
H256	H	1.523485	0.500058	-0.250131
H257	H	1.062738	-0.029540	-0.689593
H258	H	1.562738	0.470460	-0.189593
H259	H	1.062751	0.029648	-0.689593
H260	H	1.562751	0.529648	-0.189593
C261	C	0.785568	-0.118079	0.210205
C262	C	1.285568	0.381921	0.710205
H263	H	0.792950	-0.082441	0.202817
H264	H	1.292950	0.417559	0.702817
H265	H	0.793680	-0.126830	0.260713
H266	H	1.293680	0.373170	0.760713
H267	H	0.735074	-0.126840	0.202032
H268	H	1.235074	0.373160	0.702032
H269	H	0.987454	-0.777312	0.008462
H270	H	1.487454	-0.277312	0.508462
C271	C	0.112292	-0.097090	0.097498
C272	C	0.612292	0.402910	0.597498
H273	H	0.147093	-0.124640	0.098067
H274	H	0.647093	0.375360	0.598067
H275	H	0.087348	-0.099013	0.052888
H276	H	0.587348	0.400987	0.552888
H277	H	0.075644	-0.099009	0.141131
H278	H	0.575644	0.400991	0.641131
C279	C	1.053712	-0.523957	-0.057788
C280	C	1.553712	-0.023957	0.442212
H281	H	1.084411	-0.547511	-0.088477
H282	H	1.584411	-0.047511	0.411523
H283	H	1.085168	-0.503115	-0.030605
H284	H	1.585168	-0.003115	0.469395
H285	H	1.026542	-0.503125	-0.089267
H286	H	1.526542	-0.003125	0.410733
C287	C	1.002130	-0.118027	-0.006211
C288	C	1.502130	0.381973	0.493789
H289	H	1.032832	-0.141578	-0.036904
H290	H	1.532832	0.358422	0.463096
H291	H	1.033585	-0.097187	0.020976
H292	H	1.533585	0.402813	0.520976
H293	H	0.974960	-0.097194	-0.037686
H294	H	1.474960	0.402806	0.462314
C295	C	1.002141	-0.230183	-0.006230
C296	C	1.502141	0.269817	0.493770
H297	H	1.032848	-0.206614	-0.036906
H298	H	1.532848	0.293386	0.463094
H299	H	0.974985	-0.251023	-0.037711
H300	H	1.474985	0.248977	0.462289
H301	H	1.033600	-0.251015	0.020961
H302	H	1.533600	0.248985	0.520961
H303	H	0.748748	-0.468312	0.246973
H304	H	1.248748	0.031688	0.746973
H305	H	0.770787	0.000042	-0.254383
H306	H	1.270787	0.500042	0.245617
H307	H	0.748776	-0.628556	0.246964
H308	H	1.248776	-0.128556	0.746964
C309	C	1.053702	-0.363722	-0.057773
C310	C	1.553702	0.136278	0.442227
H311	H	1.084401	-0.387276	-0.088464
H312	H	1.584401	0.112724	0.411536
H313	H	1.085160	-0.342879	-0.030594
H314	H	1.585160	0.157121	0.469406
H315	H	1.026529	-0.342892	-0.089251
H316	H	1.526529	0.157108	0.410749
C317	C	0.734011	-0.363790	0.261698
C318	C	1.234011	0.136210	0.761698
H319	H	0.703310	-0.387356	0.292386
H320	H	1.203310	0.112644	0.792386
H321	H	0.702557	-0.342954	0.234514
H322	H	1.202557	0.157046	0.734514
H323	H	0.761179	-0.342953	0.293180
H324	H	1.261179	0.157047	0.793180
H325	H	1.038979	-0.468246	-0.043055
H326	H	1.538979	0.031754	0.456945
H327	H	0.748769	-0.531665	0.246968
H328	H	1.248769	-0.031665	0.746968
C329	C	1.043207	0.000038	-0.135694
C330	C	1.543207	0.500038	0.364306
H331	H	1.083722	0.000044	-0.175958
H332	H	1.583722	0.500044	0.324042
H333	H	1.046561	-0.029554	-0.105276
H334	H	1.546561	0.470446	0.394724
H335	H	1.046574	0.029633	-0.105284
H336	H	1.546574	0.529633	0.394716
C337	C	0.747190	0.000037	-0.494582
C338	C	1.247190	0.500037	0.005418
H339	H	0.705563	0.000030	-0.523951
H340	H	1.205563	0.500030	-0.023951
H341	H	0.744816	0.029628	-0.463407
H342	H	1.244816	0.529628	0.036593
H343	H	0.744811	-0.029560	-0.463407
H344	H	1.244811	0.470440	0.036593
H345	H	0.773073	0.000037	-0.111161
H346	H	1.273073	0.500037	0.388839
