data_functionalizedCrystal
_audit_creation_method	'MofGen! by Chris Wilmer'
_symmetry_space_group_name_H-M	'P1'
_symmetry_Int_Tables_number	1
_symmetry_cell_setting	triclinic
loop_
_symmetry_equiv_pos_as_xyz
  x,y,z
_cell_length_a	13.635800
_cell_length_b	19.453103
_cell_length_c	9.541937
_cell_angle_alpha	93.961940
_cell_angle_beta	69.435909
_cell_angle_gamma	78.290822
loop_
_atom_site_label
_atom_site_type_symbol
_atom_site_fract_x
_atom_site_fract_y
_atom_site_fract_z
V1	V	2.050059	-0.096884	-0.467295
O2	O	2.047559	0.004961	-0.457683
O3	O	2.021295	-0.192399	-0.464787
O4	O	2.043805	-0.095260	-0.670784
O5	O	2.024894	-0.092850	-0.250261
V6	V	2.290139	-0.084718	-0.441252
O7	O	2.184377	-0.123571	-0.524421
O8	O	2.380920	-0.058031	-0.384125
O9	O	2.207300	0.010796	-0.443760
O10	O	2.351338	-0.186563	-0.450863
O11	O	2.374003	-0.088752	-0.658286
O12	O	2.184791	-0.086342	-0.237763
V13	V	2.550059	-0.096884	-0.467295
O14	O	2.547559	0.004961	-0.457683
O15	O	2.521295	-0.192399	-0.464787
O16	O	2.543805	-0.095260	-0.670784
O17	O	2.524894	-0.092850	-0.250261
V18	V	2.790139	-0.084718	-0.441252
O19	O	2.684377	-0.123571	-0.524421
O20	O	2.880920	-0.058031	-0.384125
O21	O	2.707300	0.010796	-0.443760
O22	O	2.851338	-0.186563	-0.450863
O23	O	2.874003	-0.088752	-0.658286
O24	O	2.684791	-0.086342	-0.237763
C25	C	1.942104	-0.215687	-0.457593
C26	C	1.959349	-0.293771	-0.456899
C27	C	2.058998	-0.334022	-0.464056
C28	C	2.075205	-0.407390	-0.463420
C29	C	1.991751	-0.440503	-0.455595
C30	C	1.892090	-0.400244	-0.448445
C31	C	1.875889	-0.326877	-0.449097
N32	N	1.929234	-0.546826	-0.363372
N33	N	1.944629	-0.616521	-0.362750
C34	C	2.040558	-0.661552	-0.453633
N35	N	2.120520	-0.634253	-0.545145
N36	N	2.105124	-0.564552	-0.545761
C37	C	2.009308	-0.520056	-0.454888
C38	C	2.157786	-0.781358	-0.460103
C39	C	2.173992	-0.854728	-0.459475
C40	C	1.990871	-0.847579	-0.444486
C41	C	1.974672	-0.774211	-0.445129
C42	C	2.058131	-0.741104	-0.452930
C43	C	1.970817	-0.091776	-0.720360
C44	C	2.006315	-0.091080	-0.886718
C45	C	2.118161	0.034081	-0.450950
C46	C	2.090536	0.112164	-0.451653
C47	C	2.089449	-0.089828	-0.188178
C48	C	2.043570	-0.090521	-0.021819
C49	C	2.442104	-0.215687	-0.457593
C50	C	2.459349	-0.293771	-0.456899
C51	C	2.470817	-0.091776	-0.720360
C52	C	2.506315	-0.091080	-0.886718
C53	C	2.618161	0.034081	-0.450950
C54	C	2.590536	0.112164	-0.451653
C55	C	2.589449	-0.089828	-0.188178
C56	C	2.543570	-0.090521	-0.021819
C57	C	2.559012	-0.334016	-0.464076
C58	C	2.575234	-0.407386	-0.463447
C59	C	2.491791	-0.440508	-0.455630
C60	C	2.392121	-0.400258	-0.448457
C61	C	2.375902	-0.326890	-0.449097
C62	C	2.663368	0.152409	-0.444480
C63	C	2.637418	0.225778	-0.445117
C64	C	2.538639	0.258900	-0.452937
C65	C	2.465801	0.218650	-0.460106
C66	C	2.491748	0.145283	-0.459458
H67	H	2.156353	-0.440169	-0.469248
H68	H	2.324187	-0.427237	-0.442093
H69	H	2.432438	0.112520	-0.465313
H70	H	2.517524	0.318641	-0.453462
C71	C	2.267590	-0.283212	-0.440966
C72	C	2.186385	-0.289525	-0.306848
C73	C	2.086591	-0.249296	-0.299295
H74	H	2.252763	-0.300088	-0.525383
H75	H	2.269803	-0.234756	-0.442376
H76	H	2.184170	-0.337970	-0.305452
H77	H	2.201176	-0.272644	-0.222408
H78	H	2.088804	-0.200840	-0.300705
H79	H	2.071775	-0.266176	-0.383718
H80	H	2.031483	-0.253568	-0.208291
C81	C	2.770694	0.116399	-0.436292
C82	C	2.829754	0.065116	-0.564910
C83	C	2.928634	0.031942	-0.557419
H84	H	2.758010	0.094227	-0.348099
H85	H	2.810401	0.150857	-0.432184
H86	H	2.790056	0.030663	-0.569003
H87	H	2.842467	0.087269	-0.653122
H88	H	2.968340	0.066401	-0.553311
H89	H	2.915939	0.009775	-0.469221
H90	H	2.968722	-0.002852	-0.644689
H91	H	2.696739	0.258540	-0.439281
H92	H	2.385373	0.245629	-0.466471
H93	H	1.824143	-0.427209	-0.442078
C94	C	1.767594	-0.283185	-0.440998
C95	C	1.686367	-0.289480	-0.306886
C96	C	1.586592	-0.249232	-0.299359
H97	H	1.752769	-0.300056	-0.525420
H98	H	1.769833	-0.234734	-0.442415
H99	H	1.684126	-0.337921	-0.305483
H100	H	1.701156	-0.272605	-0.222440
H101	H	1.588831	-0.200781	-0.300776
H102	H	1.571778	-0.266106	-0.383788
H103	H	1.531469	-0.253492	-0.208359
C104	C	2.248283	-0.745344	-0.468276
C105	C	2.214402	-0.694065	-0.339647
C106	C	2.297742	-0.660883	-0.347113
H107	H	2.266117	-0.723169	-0.556462
H108	H	2.309966	-0.779799	-0.472380
H109	H	2.152739	-0.659616	-0.335558
H110	H	2.196577	-0.716223	-0.251441
H111	H	2.359424	-0.695338	-0.351217
H112	H	2.315570	-0.638712	-0.435305
H113	H	2.274769	-0.626091	-0.259835
H114	H	2.255142	-0.887501	-0.465314
H115	H	1.922923	-0.874539	-0.438124
H116	H	2.126961	-0.307072	-0.470420
C117	C	1.866565	-0.730385	-0.437411
C118	C	1.870246	-0.659050	-0.439689
C119	C	1.770679	-0.618659	-0.432602
H120	H	1.811227	-0.734496	-0.346520
H121	H	1.851876	-0.747260	-0.521976
H122	H	1.884922	-0.642180	-0.355132
H123	H	1.925564	-0.654918	-0.530572
H124	H	1.755990	-0.635534	-0.517166
H125	H	1.715348	-0.622776	-0.341710
H126	H	1.773166	-0.570255	-0.434160
C127	C	2.509613	-0.520188	-0.455174
C128	C	2.594824	-0.555784	-0.588440
C129	C	2.611289	-0.629184	-0.588059
H130	H	2.445744	-0.534256	-0.449570
H131	H	2.526871	-0.531766	-0.370124
H132	H	2.577561	-0.544212	-0.673467
H133	H	2.658710	-0.541738	-0.594072
H134	H	2.628546	-0.640762	-0.503009
H135	H	2.547414	-0.643245	-0.582451
H136	H	2.669112	-0.653345	-0.678471
H137	H	2.626966	-0.307058	-0.470432
H138	H	2.656396	-0.440148	-0.469284
