data_functionalizedCrystal
_audit_creation_method	'MofGen! by Chris Wilmer'
_symmetry_space_group_name_H-M	'P1'
_symmetry_Int_Tables_number	1
_symmetry_cell_setting	triclinic
loop_
_symmetry_equiv_pos_as_xyz
  x,y,z
_cell_length_a	18.050589
_cell_length_b	16.625548
_cell_length_c	16.625539
_cell_angle_alpha	90.022345
_cell_angle_beta	89.975176
_cell_angle_gamma	89.971920
loop_
_atom_site_label
_atom_site_type_symbol
_atom_site_fract_x
_atom_site_fract_y
_atom_site_fract_z
Zn1	Zn	-0.295661	-1.232648	-0.455967
Zn2	Zn	0.037672	-0.899315	-0.122634
Zn3	Zn	0.371006	-0.565982	0.210700
Zn4	Zn	-0.419859	-1.232538	-0.321142
Zn5	Zn	-0.086525	-0.899205	0.012191
Zn6	Zn	0.246808	-0.565871	0.345524
Zn7	Zn	-0.295687	-1.097810	-0.321143
Zn8	Zn	0.037647	-0.764477	0.012190
Zn9	Zn	0.370980	-0.431143	0.345523
Zn10	Zn	-0.419813	-1.097767	-0.455928
Zn11	Zn	-0.086480	-0.764434	-0.122595
Zn12	Zn	0.246853	-0.431100	0.210739
O13	O	-0.357755	-1.165191	-0.388545
O14	O	-0.024421	-0.831857	-0.055212
O15	O	0.308912	-0.498524	0.278121
O16	O	-0.312144	-1.345466	-0.438098
O17	O	0.021189	-1.012133	-0.104765
O18	O	0.354522	-0.678799	0.228568
O19	O	-0.403417	-1.214638	-0.208310
O20	O	-0.070083	-0.881305	0.125023
O21	O	0.263250	-0.547971	0.458357
O22	O	-0.191759	-1.115761	-0.339045
O23	O	0.141575	-0.782428	-0.005711
O24	O	0.474908	-0.449094	0.327622
O25	O	-0.403392	-1.345385	-0.339043
O26	O	-0.070058	-1.012052	-0.005710
O27	O	0.263275	-0.678718	0.327624
O28	O	-0.191740	-1.214826	-0.438099
O29	O	0.141594	-0.881493	-0.104766
O30	O	0.474927	-0.548159	0.228568
O31	O	-0.312188	-1.115654	-0.208311
O32	O	0.021145	-0.782321	0.125023
O33	O	0.354479	-0.448987	0.458356
O34	O	-0.312144	-0.984972	-0.339007
O35	O	0.021189	-0.651639	-0.005674
O36	O	0.354523	-0.318305	0.327660
O37	O	-0.403315	-1.115687	-0.568766
O38	O	-0.069981	-0.782354	-0.235432
O39	O	0.263352	-0.449021	0.097901
O40	O	-0.403339	-0.984940	-0.438033
O41	O	-0.070006	-0.651607	-0.104699
O42	O	0.263327	-0.318274	0.228634
O43	O	-0.312100	-1.214784	-0.568794
O44	O	0.021233	-0.881451	-0.235461
O45	O	0.354566	-0.548117	0.097872
O46	O	-0.523777	-1.214596	-0.339005
O47	O	-0.190444	-0.881263	-0.005672
O48	O	0.142890	-0.547929	0.327661
O49	O	-0.523744	-1.115580	-0.438032
O50	O	-0.190411	-0.782247	-0.104699
O51	O	0.142923	-0.448914	0.228635
C52	C	-0.550707	-1.165093	-0.388532
C53	C	-0.217374	-0.831760	-0.055199
C54	C	0.115960	-0.498427	0.278135
C55	C	-0.633253	-1.165126	-0.388553
C56	C	-0.299919	-0.831792	-0.055220
C57	C	0.033414	-0.498459	0.278114
C58	C	-0.357740	-0.955700	-0.388516
C59	C	-0.024407	-0.622367	-0.055183
C60	C	0.308927	-0.289033	0.278150
C61	C	-0.357752	-0.866079	-0.388523
C62	C	-0.024418	-0.532746	-0.055190
C63	C	0.308915	-0.199412	0.278144
C64	C	-0.357699	-1.165243	-0.598854
C65	C	-0.024366	-0.831910	-0.265521
C66	C	0.308967	-0.498577	0.067812
C67	C	-0.357676	-1.165266	-0.688475
C68	C	-0.024343	-0.831932	-0.355142
C69	C	0.308991	-0.498599	-0.021809
C70	C	-0.832712	-1.111334	-0.442385
C71	C	-0.499379	-0.778000	-0.109052
C72	C	-0.166046	-0.444667	0.224282
C73	C	-0.882154	-1.091677	-0.368808
C74	C	-0.548821	-0.758344	-0.035475
C75	C	-0.215487	-0.425011	0.297858
C76	C	-0.784383	-1.165205	-0.388564
C77	C	-0.451050	-0.831871	-0.055230
C78	C	-0.117716	-0.498538	0.278103
C79	C	-0.882023	-1.184901	-0.462149
C80	C	-0.548690	-0.851567	-0.128815
C81	C	-0.215356	-0.518234	0.204518
C82	C	-0.930368	-1.165280	-0.388580
C83	C	-0.597035	-0.831946	-0.055247
C84	C	-0.263701	-0.498613	0.278086
C85	C	-0.832738	-1.145510	-0.314948
C86	C	-0.499404	-0.812176	0.018385
C87	C	-0.166071	-0.478843	0.351719
C88	C	-0.832602	-1.238767	-0.408338
C89	C	-0.499269	-0.905434	-0.075005
C90	C	-0.165936	-0.572101	0.258329
C91	C	-0.882022	-1.219139	-0.334711
C92	C	-0.548688	-0.885806	-0.001377
C93	C	-0.215355	-0.552472	0.331956
C94	C	-0.700285	-1.165160	-0.388555
C95	C	-0.366951	-0.831826	-0.055222
C96	C	-0.033618	-0.498493	0.278112
C97	C	-1.014465	-1.165325	-0.388580
C98	C	-0.681131	-0.831992	-0.055247
C99	C	-0.347798	-0.498659	0.278086
C100	C	-0.164049	-1.165310	-0.388576
C101	C	0.169284	-0.831977	-0.055243
C102	C	0.502617	-0.498644	0.278090
C103	C	-0.081503	-1.165361	-0.388590
C104	C	0.251830	-0.832028	-0.055256
C105	C	0.585163	-0.498695	0.278077
C106	C	-0.357750	-0.537903	-0.388547
C107	C	-0.024417	-0.204570	-0.055214
C108	C	0.308916	0.128763	0.278119
C109	C	-0.357749	-0.629212	-0.388538
C110	C	-0.024415	-0.295878	-0.055205
C111	C	0.308918	0.037455	0.278129
C112	C	-0.357751	-0.701988	-0.388534
C113	C	-0.024418	-0.368655	-0.055201
C114	C	0.308915	-0.035321	0.278132
C115	C	-0.357749	-0.793302	-0.388526
C116	C	-0.024416	-0.459969	-0.055193
C117	C	0.308918	-0.126636	0.278140
C118	C	-0.357765	-0.375500	-0.388567
C119	C	-0.024432	-0.042166	-0.055234
C120	C	0.308901	0.291167	0.278100
C121	C	-0.357757	-0.465121	-0.388557
C122	C	-0.024424	-0.131787	-0.055223
C123	C	0.308909	0.201546	0.278110
C124	C	-0.357593	-1.165303	-1.016651
C125	C	-0.024259	-0.831969	-0.683318
C126	C	0.309074	-0.498636	-0.349985
C127	C	-0.357618	-1.165290	-0.925343
C128	C	-0.024285	-0.831957	-0.592009
C129	C	0.309048	-0.498624	-0.258676
C130	C	-0.357635	-1.165285	-0.852566
C131	C	-0.024302	-0.831951	-0.519233
C132	C	0.309032	-0.498618	-0.185900
C133	C	-0.357659	-1.165271	-0.761252
C134	C	-0.024326	-0.831938	-0.427919
C135	C	0.309007	-0.498604	-0.094585
C136	C	-0.357756	-1.165185	-0.179054
C137	C	-0.024423	-0.831852	0.154279
C138	C	0.308910	-0.498518	0.487612
C139	C	-0.357571	-1.165319	-0.089434
C140	C	-0.024237	-0.831986	0.243900
C141	C	0.309096	-0.498652	0.577233
H142	H	-0.811060	-1.065710	-0.487835
H143	H	-0.477727	-0.732377	-0.154502
H144	H	-0.144394	-0.399043	0.178831
O145	O	-0.804189	-1.123392	-0.232499
O146	O	-0.470856	-0.790059	0.100834
O147	O	-0.137522	-0.456725	0.434168
H148	H	-0.824527	-1.062557	-0.216037
H149	H	-0.491194	-0.729224	0.117297
H150	H	-0.157861	-0.395890	0.450630
O151	O	-0.910698	-1.206936	-0.544568
O152	O	-0.577365	-0.873602	-0.211235
O153	O	-0.244032	-0.540269	0.122098
H154	H	-0.890949	-1.162089	-0.589116
H155	H	-0.557615	-0.828756	-0.255782
H156	H	-0.224282	-0.495423	0.077551
O157	O	-0.803746	-1.321133	-0.430411
O158	O	-0.470413	-0.987800	-0.097078
O159	O	-0.137080	-0.654467	0.236256
H160	H	-0.824396	-1.365912	-0.386279
H161	H	-0.491062	-1.032579	-0.052945
H162	H	-0.157729	-0.699245	0.280388
H163	H	-0.903936	-1.029503	-0.352098
H164	H	-0.570602	-0.696170	-0.018765
H165	H	-0.237269	-0.362836	0.314569
O166	O	-0.910528	-1.279531	-0.274370
O167	O	-0.577194	-0.946198	0.058964
O168	O	-0.243861	-0.612864	0.392297
H169	H	-0.890682	-1.263024	-0.213381
H170	H	-0.557348	-0.929691	0.119952
H171	H	-0.224015	-0.596357	0.453286
