data_functionalizedCrystal
_audit_creation_method	'MofGen! by Chris Wilmer'
_symmetry_space_group_name_H-M	'P1'
_symmetry_Int_Tables_number	1
_symmetry_cell_setting	triclinic
loop_
_symmetry_equiv_pos_as_xyz
  x,y,z
_cell_length_a	10.723023
_cell_length_b	15.944493
_cell_length_c	9.798715
_cell_angle_alpha	90.002726
_cell_angle_beta	89.996770
_cell_angle_gamma	83.971296
loop_
_atom_site_label
_atom_site_type_symbol
_atom_site_fract_x
_atom_site_fract_y
_atom_site_fract_z
O1	O	1.655663	0.117808	-0.113457
O2	O	1.292365	0.129086	-0.113461
O3	O	1.483972	0.001226	-0.113471
O4	O	1.464055	0.245668	-0.113448
O5	O	1.483958	0.001225	0.113511
O6	O	1.292350	0.129085	0.113521
O7	O	1.655649	0.117808	0.113525
Zn8	Zn	1.473997	0.123446	0.149561
Zn9	Zn	1.474016	0.123447	-0.149498
O10	O	1.464041	0.245668	0.113534
C11	C	1.245869	0.128265	0.000029
C12	C	1.107346	0.125810	0.000026
C13	C	1.045581	0.124715	0.117609
C14	C	0.902410	0.122178	0.117609
C15	C	1.483151	-0.030074	0.000015
C16	C	1.480711	-0.123337	-0.000003
C17	C	1.593495	-0.358451	0.000024
C18	C	1.532682	-0.409367	-0.111890
C19	C	1.476189	-0.294084	0.000014
C20	C	1.532641	-0.409344	0.111897
C21	C	1.471829	-0.459018	0.000036
C22	C	1.415407	-0.343771	-0.111993
C23	C	1.415382	-0.343744	0.111895
C24	C	1.354483	-0.394628	-0.000047
C25	C	1.478703	-0.199069	-0.000000
C26	C	1.469305	-0.554030	0.000040
C27	C	1.702145	0.118628	0.000031
C28	C	1.840668	0.121083	0.000025
C29	C	1.464862	0.276967	0.000046
C30	C	1.467303	0.370230	0.000054
N31	N	1.473994	0.123446	0.353661
N32	N	1.474030	0.123441	-0.353597
C33	C	1.554448	0.069524	0.421434
C34	C	1.554468	0.069521	0.578596
H35	H	0.849293	0.121241	0.218276
O36	O	1.233900	-0.413882	-0.000295
C37	C	1.076265	-0.483616	-0.117464
C38	C	1.212857	-0.461886	-0.117327
H39	H	1.059200	-0.522416	-0.212089
H40	H	1.058561	-0.521572	-0.022098
H41	H	1.009879	-0.422886	-0.118347
H42	H	1.279330	-0.522573	-0.116493
H43	H	1.230457	-0.423896	-0.212686
H44	H	0.893775	0.122030	-0.100647
O45	O	1.591671	-0.443453	-0.224907
C46	C	1.597835	-0.447509	-0.470663
C47	C	1.530921	-0.408831	-0.342793
H48	H	1.548731	-0.419546	-0.566006
H49	H	1.699665	-0.432926	-0.470631
H50	H	1.594600	-0.518746	-0.470005
H51	H	1.534060	-0.337588	-0.343367
H52	H	1.429124	-0.423481	-0.342874
H53	H	1.582200	-0.437991	0.206505
O54	O	1.356143	-0.309472	0.224628
C55	C	1.186435	-0.213538	0.312429
C56	C	1.253374	-0.252299	0.184632
H57	H	1.103349	-0.167293	0.280137
H58	H	1.151661	-0.265738	0.377190
H59	H	1.254808	-0.178843	0.374579
H60	H	1.185074	-0.286988	0.122375
H61	H	1.288170	-0.200063	0.119972
H62	H	1.054233	0.124866	-0.100640
O63	O	1.391711	0.178550	0.423022
C64	C	1.223814	0.291150	0.408304
C65	C	1.316915	0.228776	0.329588
H66	H	1.163335	0.331787	0.332797
H67	H	1.161302	0.254629	0.475171
H68	H	1.277953	0.333252	0.475236
H69	H	1.262879	0.186659	0.262582
H70	H	1.379427	0.265350	0.262808
O71	O	1.636762	0.014410	0.647905
C72	C	1.804641	-0.098199	0.633091
C73	C	1.711530	-0.035815	0.554428
H74	H	1.865097	-0.138835	0.557550
H75	H	1.867174	-0.061687	0.699944
H76	H	1.750510	-0.140301	0.700032
H77	H	1.765559	0.006302	0.487413
H78	H	1.648997	-0.072379	0.487661
O79	O	1.714040	-0.339118	-0.000373
C80	C	1.912053	-0.350752	-0.118807
C81	C	1.775574	-0.372710	-0.118517
H82	H	1.961850	-0.377916	-0.214303
H83	H	1.912833	-0.279311	-0.117935
H84	H	1.962540	-0.378825	-0.024331
H85	H	1.725006	-0.344693	-0.212978
H86	H	1.774884	-0.444158	-0.119319
H87	H	1.623309	0.023358	0.363108
O88	O	1.109093	0.125728	0.237622
C89	C	1.270303	0.055663	0.381062
C90	C	1.198497	0.054423	0.245081
H91	H	1.342584	-0.001989	0.387149
H92	H	1.319907	0.115386	0.387185
H93	H	1.201502	0.054486	0.469572
H94	H	1.267213	0.055569	0.156494
H95	H	1.148874	-0.005295	0.239077
H96	H	1.365901	-0.315234	-0.206708
H97	H	1.405151	0.169611	0.588129
