data_functionalizedCrystal
_audit_creation_method	'MofGen! by Chris Wilmer'
_symmetry_space_group_name_H-M	'P1'
_symmetry_Int_Tables_number	1
_symmetry_cell_setting	triclinic
loop_
_symmetry_equiv_pos_as_xyz
  x,y,z
_cell_length_a	19.077068
_cell_length_b	12.759401
_cell_length_c	12.759393
_cell_angle_alpha	89.977503
_cell_angle_beta	87.737652
_cell_angle_gamma	87.672141
loop_
_atom_site_label
_atom_site_type_symbol
_atom_site_fract_x
_atom_site_fract_y
_atom_site_fract_z
Zn1	Zn	-0.280151	-1.589373	0.610815
Zn2	Zn	0.219849	-1.089373	1.110815
Zn3	Zn	-0.397864	-1.582166	0.442173
Zn4	Zn	0.102136	-1.082166	0.942173
Zn5	Zn	-0.280187	-1.413670	0.435147
Zn6	Zn	0.219813	-0.913670	0.935147
Zn7	Zn	-0.397814	-1.406568	0.617802
Zn8	Zn	0.102186	-0.906568	1.117802
O9	O	-0.339004	-1.497944	0.526484
O10	O	0.160996	-0.997944	1.026484
O11	O	-0.295772	-1.735438	0.588460
O12	O	0.204228	-1.235438	1.088460
O13	O	-0.382291	-1.559770	0.294222
O14	O	0.117709	-1.059770	0.794222
O15	O	-0.181691	-1.442965	0.452585
O16	O	0.318309	-0.942965	0.952585
O17	O	-0.382256	-1.730142	0.464560
O18	O	0.117744	-1.230142	0.964560
O19	O	-0.181665	-1.572054	0.581647
O20	O	0.318335	-1.072054	1.081647
O21	O	-0.295833	-1.435977	0.289060
O22	O	0.204167	-0.935977	0.789060
O23	O	-0.295784	-1.265707	0.459361
O24	O	0.204216	-0.765707	0.959361
O25	O	-0.382169	-1.430862	0.763894
O26	O	0.117831	-0.930862	1.263894
O27	O	-0.382204	-1.260490	0.593557
O28	O	0.117796	-0.760490	1.093557
O29	O	-0.295723	-1.565168	0.758760
O30	O	0.204277	-1.065168	1.258760
O31	O	-0.496349	-1.552884	0.471335
O32	O	0.003651	-1.052884	0.971335
O33	O	-0.496311	-1.423874	0.600369
O34	O	0.003689	-0.923874	1.100369
C35	C	-0.338993	-1.224977	0.526455
C36	C	0.161007	-0.724977	1.026455
C37	C	-0.339006	-1.108200	0.526469
C38	C	0.160994	-0.608200	1.026469
C39	C	-0.384072	-1.050645	0.596242
C40	C	0.115928	-0.550645	1.096242
C41	C	-0.384074	-0.940921	0.596260
C42	C	0.115926	-0.440921	1.096260
C43	C	-0.293940	-0.946317	0.456723
C44	C	0.206060	-0.446317	0.956723
C45	C	-0.293935	-1.056039	0.456711
C46	C	0.206065	-0.556039	0.956711
C47	C	-0.521867	-1.486855	0.537396
C48	C	-0.021867	-0.986855	1.037396
C49	C	-0.600097	-1.482207	0.542099
C50	C	-0.100097	-0.982207	1.042099
C51	C	-0.636846	-1.547244	0.477183
C52	C	-0.136846	-1.047244	0.977183
C53	C	-0.710351	-1.542879	0.481613
C54	C	-0.210351	-1.042879	0.981613
C55	C	-0.747106	-1.473470	0.550954
C56	C	-0.247106	-0.973470	1.050954
C57	C	-0.710352	-1.408430	0.615877
C58	C	-0.210352	-0.908430	1.115877
C59	C	-0.636849	-1.412801	0.611452
C60	C	-0.136849	-0.912801	1.111452
C61	C	-0.966939	-1.453193	0.571392
C62	C	-0.466939	-0.953193	1.071392
C63	C	-1.040448	-1.448824	0.575810
C64	C	-0.540448	-0.948824	1.075810
C65	C	-1.040442	-1.583275	0.441547
C66	C	-0.540442	-1.083275	0.941547
C67	C	-0.966936	-1.587636	0.437124
C68	C	-0.466936	-1.087636	0.937124
C69	C	-0.930189	-1.522600	0.502050
C70	C	-0.430189	-1.022600	1.002050
N71	N	-0.822240	-1.469004	0.555482
N72	N	-0.322240	-0.969004	1.055482
N73	N	-0.855056	-1.527072	0.497528
N74	N	-0.355056	-1.027072	0.997528
C75	C	-0.155427	-1.509105	0.515553
C76	C	0.344573	-1.009105	1.015553
C77	C	-0.077197	-1.513862	0.510895
C78	C	0.422803	-1.013862	1.010895
C79	C	-0.338936	-1.498027	0.800514
C80	C	0.161064	-0.998027	1.300514
C81	C	-0.338908	-1.498062	0.917289
C82	C	0.161092	-0.998062	1.417289
C83	C	-0.339013	-0.771977	0.526507
C84	C	0.160987	-0.271977	1.026507
C85	C	-0.339012	-0.888754	0.526499
C86	C	0.160988	-0.388754	1.026499
C87	C	-0.339021	-1.497925	0.253518
C88	C	0.160979	-0.997925	0.753518
C89	C	-0.338851	-1.498106	0.136732
C90	C	0.161149	-0.998106	0.636732
C91	C	-0.293888	-1.568001	0.969479
C92	C	0.206112	-1.068001	1.469479
C93	C	-0.293858	-1.568020	1.079201
C94	C	0.206142	-1.068020	1.579201
C95	C	-0.383873	-1.428160	1.084534
C96	C	0.116127	-0.928160	1.584534
C97	C	-0.383899	-1.428136	0.974813
C98	C	0.116101	-0.928136	1.474813
H99	H	-0.420770	-1.093111	0.653046
H100	H	0.079230	-0.593111	1.153046
O101	O	-0.601113	-1.614520	0.409710
O102	O	-0.101113	-1.114520	0.909710
C103	C	-0.558652	-1.557268	0.339257
C104	C	-0.058652	-1.057268	0.839257
H105	H	-0.580853	-1.473204	0.334027
H106	H	-0.080853	-0.973204	0.834027
H107	H	-0.557842	-1.595358	0.258390
H108	H	-0.057842	-1.095358	0.758390
H109	H	-0.502929	-1.556945	0.368382
H110	H	-0.002929	-1.056945	0.868382
O111	O	-0.250078	-1.635811	0.913641
O112	O	0.249922	-1.135811	1.413641
C113	C	-0.179926	-1.617133	0.936296
C114	C	0.320074	-1.117133	1.436296
H115	H	-0.176364	-1.533423	0.966227
H116	H	0.323636	-1.033423	1.466227
H117	H	-0.145169	-1.628283	0.862074
H118	H	0.354831	-1.128283	1.362074
H119	H	-0.161516	-1.674590	0.998903
H120	H	0.338484	-1.174590	1.498903
O121	O	-0.250253	-1.112065	0.388882
O122	O	0.249747	-0.612065	0.888882
C123	C	-0.290268	-1.173055	0.323291
C124	C	0.209732	-0.673055	0.823291
H125	H	-0.343636	-1.186272	0.363396
H126	H	0.156364	-0.686272	0.863396
H127	H	-0.261587	-1.251945	0.307567
H128	H	0.238413	-0.751945	0.807567
H129	H	-0.297939	-1.130269	0.245874
H130	H	0.202061	-0.630269	0.745874
O131	O	-0.250049	-1.635813	1.129937
O132	O	0.249951	-1.135813	1.629937
C133	C	-0.204579	-1.578776	1.190699
C134	C	0.295421	-1.078776	1.690699
H135	H	-0.200239	-1.496287	1.157358
H136	H	0.299761	-0.996287	1.657358
H137	H	-0.150416	-1.620068	1.188718
H138	H	0.349584	-1.120068	1.688718
H139	H	-0.226314	-1.573852	1.275152
H140	H	0.273686	-1.073852	1.775152
H141	H	-0.420505	-1.371230	1.131384
H142	H	0.079495	-0.871230	1.631384
H143	H	-0.606929	-1.359842	0.664315
H144	H	-0.106929	-0.859842	1.164315
H145	H	-0.740268	-1.595839	0.428751
H146	H	-0.240268	-1.095839	0.928751
O147	O	-0.427920	-0.885171	0.664072
O148	O	0.072080	-0.385171	1.164072
C149	C	-0.467682	-0.954743	0.725654
C150	C	0.032318	-0.454743	1.225654
H151	H	-0.470081	-1.032788	0.682746
H152	H	0.029919	-0.532788	1.182746
H153	H	-0.523146	-0.919684	0.740037
H154	H	-0.023146	-0.419684	1.240037
H155	H	-0.441974	-0.968015	0.803976
H156	H	0.058026	-0.468015	1.303976
H157	H	-0.420559	-1.371176	0.932319
H158	H	0.079441	-0.871176	1.432319
H159	H	-0.937012	-1.644154	0.380661
H160	H	-0.437012	-1.144154	0.880661
O161	O	-0.250229	-0.895479	0.388999
O162	O	0.249771	-0.395479	0.888999
C163	C	-0.259883	-0.786293	0.403988
C164	C	0.240117	-0.286293	0.903988
H165	H	-0.314229	-0.768029	0.441501
H166	H	0.185771	-0.268029	0.941501
H167	H	-0.255043	-0.744846	0.325020
H168	H	0.244957	-0.244846	0.825020
H169	H	-0.218185	-0.757713	0.457560
H170	H	0.281815	-0.257713	0.957560
H171	H	-1.070369	-1.636225	0.388689
H172	H	-0.570369	-1.136225	0.888689
H173	H	-0.740284	-1.351920	0.672341
H174	H	-0.240284	-0.851920	1.172341
H175	H	-1.070372	-1.392316	0.632295
H176	H	-0.570372	-0.892316	1.132295
O177	O	-0.931358	-1.389898	0.634484
O178	O	-0.431358	-0.889898	1.134484
C179	C	-0.979564	-1.327712	0.696642
C180	C	-0.479564	-0.827712	1.196642
H181	H	-1.031985	-1.320995	0.656760
H182	H	-0.531985	-0.820995	1.156760
H183	H	-0.958372	-1.246184	0.706483
H184	H	-0.458372	-0.746184	1.206483
H185	H	-0.987315	-1.365669	0.776943
H186	H	-0.487315	-0.865669	1.276943
