data_functionalizedCrystal
_audit_creation_method	'MofGen! by Chris Wilmer'
_symmetry_space_group_name_H-M	'P1'
_symmetry_Int_Tables_number	1
_symmetry_cell_setting	triclinic
loop_
_symmetry_equiv_pos_as_xyz
  x,y,z
_cell_length_a	12.759401
_cell_length_b	16.625545
_cell_length_c	12.759393
_cell_angle_alpha	90.034031
_cell_angle_beta	89.980563
_cell_angle_gamma	89.975951
loop_
_atom_site_label
_atom_site_type_symbol
_atom_site_fract_x
_atom_site_fract_y
_atom_site_fract_z
Zn1	Zn	1.606187	0.320954	-0.593990
Zn2	Zn	1.606053	0.455811	-0.418302
Zn3	Zn	1.430489	0.320996	-0.418326
Zn4	Zn	1.430449	0.455748	-0.593941
O5	O	1.518295	0.388377	-0.506140
O6	O	1.753190	0.338851	-0.570695
O7	O	1.582725	0.437971	-0.271284
O8	O	1.453869	0.208158	-0.441659
O9	O	1.753092	0.437930	-0.441618
O10	O	1.582953	0.208127	-0.570718
O11	O	1.453739	0.338923	-0.271302
O12	O	1.283463	0.338862	-0.441611
O13	O	1.453801	0.437824	-0.740968
O14	O	1.283434	0.437864	-0.570635
O15	O	1.582915	0.338791	-0.741004
O16	O	1.582686	0.568635	-0.441571
O17	O	1.453670	0.568589	-0.570612
C18	C	1.245327	0.388362	-0.506121
C19	C	1.128551	0.388375	-0.506138
C20	C	1.518188	0.597868	-0.506106
C21	C	1.518238	0.687489	-0.506127
C22	C	0.963976	0.440016	-0.573233
C23	C	1.073700	0.440006	-0.573216
C24	C	1.073672	0.336756	-0.439065
C25	C	0.963949	0.336771	-0.439078
C26	C	0.909131	0.491645	-0.640323
C27	C	0.964003	0.543265	-0.707394
C28	C	1.073727	0.543255	-0.707377
C29	C	1.128579	0.491624	-0.640288
C30	C	1.518410	1.015665	-0.506252
C31	C	1.518359	0.924356	-0.506220
C32	C	1.518323	0.851580	-0.506189
C33	C	1.518274	0.760265	-0.506158
C34	C	1.792328	0.388393	-0.506159
C35	C	1.909105	0.388400	-0.506167
C36	C	1.518368	0.388296	-0.780173
C37	C	1.518400	0.388261	-0.896950
C38	C	1.518422	1.178068	-0.506209
C39	C	1.518453	1.088447	-0.506270
C40	C	1.585638	0.336690	-0.951832
C41	C	1.585663	0.336661	-1.061557
C42	C	1.451208	0.439781	-1.061506
C43	C	1.451178	0.439805	-0.951784
C44	C	1.652860	0.285145	-0.896998
C45	C	1.720105	0.233570	-0.951881
C46	C	1.720130	0.233541	-1.061605
C47	C	1.652910	0.285087	-1.116447
C48	C	1.518282	0.388400	-0.233172
C49	C	1.518454	0.388207	-0.116396
H50	H	0.819788	0.491658	-0.640346
C51	C	1.134007	0.279961	-0.365285
H52	H	1.207212	0.287339	-0.374891
H53	H	1.115993	0.291696	-0.294668
H54	H	1.116047	0.225800	-0.380798
H55	H	1.652849	0.285165	-0.807655
C56	C	1.377220	0.496532	-0.891404
H57	H	1.386824	0.489156	-0.818205
H58	H	1.392559	0.550706	-0.909361
H59	H	1.306639	0.484715	-0.909385
H60	H	1.217924	0.491625	-0.640274
H61	H	0.919272	0.294736	-0.384473
H62	H	0.919334	0.585305	-0.762009
H63	H	1.774827	0.191599	-0.907222
H64	H	1.774877	0.191541	-1.106287
C65	C	1.377284	0.496484	-1.121829
H66	H	1.386940	0.489089	-1.195036
H67	H	1.306694	0.484688	-1.103852
H68	H	1.392631	0.550666	-1.103825
C69	C	1.652940	0.285055	-1.237141
H70	H	1.702616	0.246961	-1.261975
H71	H	1.585158	0.271104	-1.261966
H72	H	1.671088	0.337087	-1.261940
H73	H	1.118400	0.585291	-0.761983
