data_functionalizedCrystal
_audit_creation_method	'MofGen! by Chris Wilmer'
_symmetry_space_group_name_H-M	'P1'
_symmetry_Int_Tables_number	1
_symmetry_cell_setting	triclinic
loop_
_symmetry_equiv_pos_as_xyz
  x,y,z
_cell_length_a	16.992694
_cell_length_b	15.995350
_cell_length_c	16.053802
_cell_angle_alpha	92.567808
_cell_angle_beta	87.249047
_cell_angle_gamma	87.080299
loop_
_atom_site_label
_atom_site_type_symbol
_atom_site_fract_x
_atom_site_fract_y
_atom_site_fract_z
O1	O	1.043694	0.174244	-0.069318
O2	O	0.815410	0.172295	-0.069342
O3	O	0.935792	0.051799	-0.069329
O4	O	0.923312	0.294739	-0.069332
O5	O	0.929166	0.058403	0.069530
O6	O	0.808784	0.178898	0.069516
O7	O	1.037068	0.180847	0.069540
Zn8	Zn	0.921874	0.180921	0.091575
Zn9	Zn	0.930604	0.172221	-0.091377
O10	O	0.916685	0.301343	0.069527
C11	C	0.782884	0.173091	0.000083
C12	C	0.695841	0.165614	0.000074
C13	C	0.645600	0.237749	0.000074
C14	C	0.563813	0.230720	0.000085
C15	C	0.532268	0.151555	0.000091
C16	C	0.582515	0.079414	0.000094
C17	C	0.664300	0.086444	0.000088
C18	C	0.288669	0.122417	0.000114
C19	C	0.206878	0.115392	0.000117
C20	C	0.188181	0.266699	0.000110
C21	C	0.269969	0.273722	0.000099
C22	C	0.320209	0.201582	0.000106
N23	N	0.448669	0.144368	0.000100
N24	N	0.403806	0.208770	0.000103
C25	C	0.931963	0.023872	0.000099
C26	C	0.930417	-0.069182	0.000094
C27	C	0.924861	-0.407302	0.000096
C28	C	0.839142	-0.365620	-0.000225
C29	C	0.840674	-0.268811	0.000089
C30	C	0.927617	-0.239557	0.000095
C31	C	0.966120	-0.274034	0.079392
C32	C	0.963963	-0.370810	0.079459
C33	C	0.973269	-0.378559	-0.078449
C34	C	0.973299	-0.281665	-0.079497
C35	C	0.929179	-0.144755	0.000096
C36	C	0.923302	-0.502103	0.000100
C37	C	1.069593	0.180051	0.000113
C38	C	1.156637	0.187528	0.000117
C39	C	0.920515	0.329270	0.000097
C40	C	0.922061	0.422324	0.000097
N41	N	0.915921	0.186859	0.216434
N42	N	0.936563	0.166277	-0.216236
C43	C	0.967163	0.135608	0.260134
C44	C	0.963006	0.139770	0.347541
C45	C	0.907611	0.195187	0.391245
C46	C	0.856364	0.246439	0.347539
C47	C	0.860518	0.242273	0.260135
C48	C	0.889469	0.213363	0.652653
C49	C	0.885321	0.217528	0.740064
C50	C	0.991962	0.110857	0.740059
C51	C	0.996114	0.106699	0.652652
C52	C	0.944864	0.157948	0.608954
N53	N	0.903363	0.199444	0.480589
N54	N	0.949109	0.153686	0.519612
H55	H	0.807588	-0.389148	-0.057091
C56	C	1.028099	0.074648	0.212063
C57	C	1.032674	0.070060	0.115922
C58	C	1.093610	0.009096	0.067854
C59	C	1.149971	-0.047282	0.115928
C60	C	1.145398	-0.042697	0.212075
C61	C	1.084462	0.018268	0.260143
H62	H	0.990951	0.111796	0.080330
H63	H	1.096996	0.005702	-0.003321
H64	H	1.195080	-0.092412	0.080345
H65	H	1.187121	-0.084433	0.247667
H66	H	1.081076	0.021662	0.331317
C67	C	0.132916	0.346050	0.000111
C68	C	0.077546	0.358597	-0.071988
C69	C	0.022281	0.437952	-0.071982
C70	C	0.022386	0.504759	0.000122
C71	C	0.077758	0.492213	0.072227
C72	C	0.133023	0.412859	0.072221
H73	H	0.077467	0.309141	-0.125369
H74	H	-0.018709	0.447238	-0.125359
H75	H	-0.018525	0.563501	0.000126
H76	H	0.077837	0.541669	0.125608
H77	H	0.174013	0.403572	0.125598
C78	C	0.795428	0.307400	0.395610
C79	C	0.790893	0.312032	0.491752
C80	C	0.729957	0.372997	0.539820
C81	C	0.673556	0.429329	0.491746
C82	C	0.678090	0.424699	0.395599
C83	C	0.739026	0.363734	0.347531
H84	H	0.832645	0.270330	0.527344
H85	H	0.726601	0.376424	0.610995
H86	H	0.628448	0.474459	0.527329
H87	H	0.636337	0.466401	0.360007
H88	H	0.742381	0.360307	0.276356
H89	H	0.295647	0.338187	0.000085
C90	C	0.508552	0.310073	0.000086
C91	C	0.515512	0.370019	-0.072025
C92	C	0.460252	0.449377	-0.072021
C93	C	0.398032	0.468790	0.000092
C94	C	0.391069	0.408843	0.072208
C95	C	0.446329	0.329485	0.072205
H96	H	0.561573	0.355650	-0.125412
H97	H	0.465407	0.493754	-0.125406
H98	H	0.357126	0.527536	0.000095
H99	H	0.345008	0.423213	0.125596
H100	H	0.441175	0.285108	0.125590
C101	C	0.799419	-0.237068	-0.076695
C102	C	0.831314	-0.266365	-0.165171
C103	C	0.790049	-0.234629	-0.241953
C104	C	0.716888	-0.173595	-0.230261
C105	C	0.684988	-0.144295	-0.141781
C106	C	0.726254	-0.176031	-0.064999
H107	H	0.885476	-0.311548	-0.173829
H108	H	0.813664	-0.256319	-0.307451
H109	H	0.686341	-0.150102	-0.287100
H110	H	0.630827	-0.099111	-0.133123
H111	H	0.702639	-0.154341	0.000499
H112	H	1.041221	0.061574	0.617070
H113	H	0.948107	-0.403833	-0.138552
H114	H	0.847741	0.255094	0.617081
H115	H	0.671277	0.302214	0.000068
H116	H	1.036506	-0.406115	-0.078977
C117	C	1.048329	0.054478	0.788127
C118	C	1.014840	-0.008765	0.848225
C119	C	1.071208	-0.065149	0.896292
C120	C	1.161063	-0.058290	0.884261
C121	C	1.194556	0.004956	0.824161
C122	C	1.138189	0.061340	0.776094
H123	H	0.948320	-0.013845	0.857133
H124	H	1.046413	-0.111968	0.940782
H125	H	1.202790	-0.100029	0.919843
H126	H	1.261077	0.010036	0.815252
H127	H	1.162983	0.108159	0.731603
H128	H	0.556824	0.014956	0.000111
C129	C	0.789404	-0.391534	0.076160
C130	C	0.826285	-0.450325	0.138737
C131	C	0.776549	-0.476242	0.215122
C132	C	0.689933	-0.443368	0.228929
C133	C	0.653047	-0.384573	0.166349
C134	C	0.702783	-0.358656	0.089965
H135	H	0.890408	-0.474664	0.128518
H136	H	0.803855	-0.519767	0.261447
H137	H	0.653115	-0.462553	0.285473
H138	H	0.588924	-0.360234	0.176568
H139	H	0.675477	-0.315132	0.043639
H140	H	0.705206	0.027704	0.000088
C141	C	0.824379	0.278489	0.788138
C142	C	0.768007	0.334858	0.740068
C143	C	0.707069	0.395817	0.788140
C144	C	0.702503	0.400407	0.884282
C145	C	0.758877	0.344036	0.932357
C146	C	0.819815	0.283077	0.884285
H147	H	0.771385	0.331462	0.668893
H148	H	0.665338	0.437547	0.752552
H149	H	0.657394	0.445533	0.919868
H150	H	0.755499	0.347433	1.003532
H151	H	0.861546	0.241347	0.919873
H152	H	1.004731	0.098037	0.383120
C153	C	1.059264	-0.255498	-0.085961
C154	C	1.114875	-0.289663	-0.159599
C155	C	1.200844	-0.263499	-0.166055
C156	C	1.231203	-0.203170	-0.098873
C157	C	1.175591	-0.169001	-0.025231
C158	C	1.089622	-0.195165	-0.018775
H159	H	1.092402	-0.334326	-0.209335
H160	H	1.242011	-0.288794	-0.220570
H161	H	1.294842	-0.183802	-0.103652
H162	H	1.198064	-0.124339	0.024506
H163	H	1.048455	-0.169871	0.035740
C164	C	0.343923	0.043061	0.000110
C165	C	0.336953	-0.016893	0.072212
C166	C	0.392209	-0.096254	0.072205
C167	C	0.454435	-0.115662	0.000096
C168	C	0.461407	-0.055706	-0.072012
C169	C	0.406151	0.023655	-0.072005
H170	H	0.290887	-0.002528	0.125596
H171	H	0.387048	-0.140637	0.125584
H172	H	0.495339	-0.174410	0.000090
H173	H	0.507473	-0.070071	-0.125396
H174	H	0.411313	0.068038	-0.125384
H175	H	0.818790	0.284005	0.224555
C176	C	0.791805	-0.230526	0.077006
C177	C	0.751265	-0.288052	0.138341
C178	C	0.702396	-0.249768	0.215264
C179	C	0.694066	-0.153958	0.230853
C180	C	0.734607	-0.096427	0.169517
C181	C	0.783476	-0.134711	0.092594
H182	H	0.757430	-0.358981	0.126802
H183	H	0.672385	-0.292357	0.260669
H184	H	0.657890	-0.125618	0.287796
H185	H	0.728442	-0.025498	0.181056
H186	H	0.813487	-0.092122	0.047189
H187	H	0.930299	-0.388357	0.138731
H188	H	0.181198	0.050923	0.000121
H189	H	0.933934	-0.244811	0.138399
H190	H	1.029854	-0.255493	0.082346
C191	C	0.935319	-0.251421	-0.158751
C192	C	0.969459	-0.283847	-0.245483
C193	C	0.931450	-0.253633	-0.324734
C194	C	0.859301	-0.190992	-0.317253
C195	C	0.825157	-0.158562	-0.230518
C196	C	0.863166	-0.188776	-0.151267
H197	H	1.022871	-0.330221	-0.251023
H198	H	0.956726	-0.277641	-0.388941
H199	H	0.831164	-0.168626	-0.375920
H200	H	0.771744	-0.112188	-0.224977
H201	H	0.837890	-0.164769	-0.087059
H202	H	1.026736	-0.398675	0.083061
