data_functionalizedCrystal
_audit_creation_method	'MofGen! by Chris Wilmer'
_symmetry_space_group_name_H-M	'P1'
_symmetry_Int_Tables_number	1
_symmetry_cell_setting	triclinic
loop_
_symmetry_equiv_pos_as_xyz
  x,y,z
_cell_length_a	21.295418
_cell_length_b	21.295417
_cell_length_c	21.295411
_cell_angle_alpha	89.978356
_cell_angle_beta	90.043738
_cell_angle_gamma	89.953681
loop_
_atom_site_label
_atom_site_type_symbol
_atom_site_fract_x
_atom_site_fract_y
_atom_site_fract_z
Zn1	Zn	0.962356	0.250415	0.356234
Zn2	Zn	1.462356	0.750415	0.856234
Zn3	Zn	0.962258	0.355667	0.250959
Zn4	Zn	1.462258	0.855667	0.750959
Zn5	Zn	0.857079	0.250445	0.250943
Zn6	Zn	1.357079	0.750445	0.750943
Zn7	Zn	0.857048	0.355680	0.356155
Zn8	Zn	1.357048	0.855680	0.856155
O9	O	0.909685	0.303052	0.303573
O10	O	1.409685	0.803052	0.803573
O11	O	1.050432	0.264360	0.342308
O12	O	1.550432	0.764360	0.842308
O13	O	0.948278	0.341716	0.162867
O14	O	1.448278	0.841716	0.662867
O15	O	0.871098	0.162351	0.264937
O16	O	1.371098	0.662351	0.764937
O17	O	1.050361	0.341688	0.264963
O18	O	1.550361	0.841688	0.764963
O19	O	0.948444	0.162330	0.342293
O20	O	1.448444	0.662330	0.842293
O21	O	0.871003	0.264410	0.162856
O22	O	1.371003	0.764410	0.662856
O23	O	0.768985	0.264422	0.264861
O24	O	1.268985	0.764422	0.764861
O25	O	0.871046	0.341709	0.444255
O26	O	1.371046	0.841709	0.944255
O27	O	0.768963	0.341738	0.342160
O28	O	1.268963	0.841738	0.842160
O29	O	0.948415	0.264372	0.444313
O30	O	1.448415	0.764372	0.944313
O31	O	0.948248	0.443758	0.264887
O32	O	1.448248	0.943758	0.764887
O33	O	0.870951	0.443767	0.342175
O34	O	1.370951	0.943767	0.842175
C35	C	0.746134	0.303085	0.303500
C36	C	1.246134	0.803085	0.803500
C37	C	0.676166	0.303114	0.303484
C38	C	1.176166	0.803114	0.803484
C39	C	0.909603	0.466603	0.303538
C40	C	1.409603	0.966603	0.803538
C41	C	0.909625	0.536571	0.303544
C42	C	1.409625	1.036571	0.803544
C43	C	0.643304	0.343426	0.343674
C44	C	1.143304	0.843426	0.843674
C45	C	0.577561	0.343410	0.343702
C46	C	1.077561	0.843410	0.843702
C47	C	0.544683	0.303090	0.303530
C48	C	1.044683	0.803090	0.803530
C49	C	0.577553	0.262770	0.263337
C50	C	1.077553	0.762770	0.763337
C51	C	0.643294	0.262783	0.263315
C52	C	1.143294	0.762783	0.763315
N53	N	0.441407	0.298163	0.248472
N54	N	0.941407	0.798163	0.748472
N55	N	0.378956	0.298155	0.248495
N56	N	0.878956	0.798155	0.748495
C57	C	0.346608	0.303050	0.303596
C58	C	0.846608	0.803050	0.803596
N59	N	0.379072	0.307965	0.358675
N60	N	0.879072	0.807965	0.858675
N61	N	0.441529	0.307976	0.358650
N62	N	0.941529	0.807976	0.858650
C63	C	0.473398	0.303072	0.303550
C64	C	0.973398	0.803072	0.803550
C65	C	0.242461	0.343346	0.343820
C66	C	0.742461	0.843346	0.843820
C67	C	0.176717	0.343326	0.343849
C68	C	0.676717	0.843326	0.843849
C69	C	0.176710	0.262690	0.263479
C70	C	0.676710	0.762690	0.763479
C71	C	0.242453	0.262707	0.263455
C72	C	0.742453	0.762707	0.763455
C73	C	0.275324	0.303038	0.303625
C74	C	0.775324	0.803038	0.803625
C75	C	0.909738	0.303038	0.467763
C76	C	1.409738	0.803038	0.967763
C77	C	0.909760	0.303033	0.537731
C78	C	1.409760	0.803033	1.037731
C79	C	1.073876	0.303019	0.303646
C80	C	1.573876	0.803019	0.803646
C81	C	1.143844	0.303005	0.303677
C82	C	1.643844	0.803005	0.803677
C83	C	0.909785	0.138861	0.303622
C84	C	1.409785	0.638861	0.803622
C85	C	0.909828	0.068893	0.303642
C86	C	1.409828	0.568893	0.803642
C87	C	0.949910	0.569412	0.263342
C88	C	1.449910	1.069412	0.763342
C89	C	0.949939	0.635155	0.263356
C90	C	1.449939	1.135155	0.763356
C91	C	0.909673	0.668054	0.303566
C92	C	1.409673	1.168054	0.803566
C93	C	0.869386	0.635205	0.343776
C94	C	1.369386	1.135205	0.843776
C95	C	0.869362	0.569464	0.343765
C96	C	1.369362	1.069464	0.843765
N97	N	0.854606	0.771336	0.308340
N98	N	1.354606	1.271336	0.808340
N99	N	0.854630	0.833787	0.308347
N100	N	1.354630	1.333787	0.808347
C101	C	0.909743	0.866129	0.303602
C102	C	1.409743	1.366129	0.803602
N103	N	0.964832	0.833659	0.298838
N104	N	1.464832	1.333659	0.798838
N105	N	0.964807	0.771202	0.298828
N106	N	1.464807	1.271202	0.798828
C107	C	0.909695	0.739339	0.303582
C108	C	1.409695	1.239339	0.803582
C109	C	0.950063	0.970255	0.263413
C110	C	1.450063	1.470255	0.763413
C111	C	0.950094	1.035999	0.263431
C112	C	1.450094	1.535999	0.763431
C113	C	0.869535	1.036048	0.343848
C114	C	1.369535	1.536048	0.843848
C115	C	0.869510	0.970305	0.343833
C116	C	1.369510	1.470305	0.843833
C117	C	0.909773	0.937413	0.303612
C118	C	1.409773	1.437413	0.803612
C119	C	0.909670	0.303019	0.140021
C120	C	1.409670	0.803019	0.640021
C121	C	0.909769	0.302848	0.070054
C122	C	1.409769	0.802848	0.570054
C123	C	0.950044	0.262761	0.570629
C124	C	1.450044	0.762761	1.070629
C125	C	0.950043	0.262734	0.636371
C126	C	1.450043	0.762734	1.136371
C127	C	0.909765	0.302989	0.669214
C128	C	1.409765	0.802989	1.169214
C129	C	0.869473	0.343263	0.636308
C130	C	1.369473	0.843263	1.136308
C131	C	0.869470	0.343285	0.570567
C132	C	1.369470	0.843285	1.070567
N133	N	0.904908	0.358058	0.772428
N134	N	1.404908	0.858058	1.272428
N135	N	0.904914	0.358036	0.834879
N136	N	1.404914	0.858036	1.334879
C137	C	0.909769	0.302926	0.867289
C138	C	1.409769	0.802926	1.367289
N139	N	0.914629	0.247837	0.834888
N140	N	1.414629	0.747837	1.334888
N141	N	0.914627	0.247860	0.772430
N142	N	1.414627	0.747860	1.272430
C143	C	0.909763	0.302970	0.740499
C144	C	1.409763	0.802970	1.240499
C145	C	0.950054	0.262621	0.971472
C146	C	1.450054	0.762621	1.471472
C147	C	0.950049	0.262593	1.037216
C148	C	1.450049	0.762593	1.537216
C149	C	0.869482	0.343128	1.037151
C150	C	1.369482	0.843128	1.537151
C151	C	0.869484	0.343151	0.971409
C152	C	1.369484	0.843151	1.471409
C153	C	0.909773	0.302898	0.938573
C154	C	1.409773	0.802898	1.438573
H155	H	0.550800	0.376236	0.376431
H156	H	1.050800	0.876236	0.876431
H157	H	0.550779	0.229940	0.230630
H158	H	1.050779	0.729940	0.730630
H159	H	0.836676	0.376038	0.663053
H160	H	1.336676	0.876038	1.163053
H161	H	0.982846	0.229937	0.663162
H162	H	1.482846	0.729937	1.163162
H163	H	0.269209	0.229884	0.230726
H164	H	0.769209	0.729884	0.730726
N165	N	0.828330	0.384434	0.536959
N166	N	1.328330	0.884434	1.036959
N167	N	0.850454	0.424556	0.500292
N168	N	1.350454	0.924556	1.000292
H169	H	0.821399	0.453619	0.476554
H170	H	1.321399	0.953619	0.976554
H171	H	0.836683	0.375948	0.944623
H172	H	1.336683	0.875948	1.444623
H173	H	0.982857	0.229842	0.944736
H174	H	1.482857	0.729842	1.444736
H175	H	0.982902	1.062737	0.230695
H176	H	1.482902	1.562737	0.730695
H177	H	0.982852	0.229795	1.064000
H178	H	1.482852	0.729795	1.564000
N179	N	0.991023	0.535814	0.222246
N180	N	1.491023	1.035814	0.722246
N181	N	0.968868	0.499188	0.182097
N182	N	1.468868	0.999188	0.682097
H183	H	0.997902	0.475461	0.153068
H184	H	1.497902	0.975461	0.653068
N185	N	0.828335	0.384238	1.070701
N186	N	1.328335	0.884238	1.570701
N187	N	0.828339	0.384211	1.129398
N188	N	1.328339	0.884211	1.629398
H189	H	0.799276	0.413245	1.153095
H190	H	1.299276	0.913245	1.653095
H191	H	0.836752	1.062833	0.376591
H192	H	1.336752	1.562833	0.876591
H193	H	0.670063	0.376266	0.376384
H194	H	1.170063	0.876266	0.876384
N195	N	0.676855	0.221597	0.222259
N196	N	1.176855	0.721597	0.722259
N197	N	0.647496	0.185594	0.186397
N198	N	1.147496	0.685594	0.686397
H199	H	0.671199	0.156505	0.157400
H200	H	1.171199	0.656505	0.657400
H201	H	0.269226	0.376183	0.376531
H202	H	0.769226	0.876183	0.876531
H203	H	0.982746	0.661899	0.230619
H204	H	1.482746	1.161899	0.730619
N205	N	0.143160	0.384516	0.384905
N206	N	0.643160	0.884516	0.884905
N207	N	0.150441	0.442596	0.380612
N208	N	0.650441	0.942596	0.880612
H209	H	0.126742	0.471688	0.409608
H210	H	0.626742	0.971688	0.909608
N211	N	0.143125	0.221500	0.222455
N212	N	0.643125	0.721500	0.722455
N213	N	0.084428	0.221489	0.222483
N214	N	0.584428	0.721489	0.722483
H215	H	0.060704	0.192395	0.193511
H216	H	0.560704	0.692395	0.693511
H217	H	0.836704	0.943564	0.376567
H218	H	1.336704	1.443564	0.876567
H219	H	0.836557	0.542724	0.376503
H220	H	1.336557	1.042724	0.876503
N221	N	0.828262	0.668817	0.384849
N222	N	1.328262	1.168817	0.884849
N223	N	0.828288	0.727514	0.384853
N224	N	1.328288	1.227514	0.884853
H225	H	0.799246	0.751253	0.413865
H226	H	1.299246	1.251253	0.913865
H227	H	0.982850	0.943473	0.230664
H228	H	1.482850	1.443473	0.730664
H229	H	0.982850	0.229984	0.543898
H230	H	1.482850	0.729984	1.043898
