data_functionalizedCrystal
_audit_creation_method	'MofGen! by Chris Wilmer'
_symmetry_space_group_name_H-M	'P1'
_symmetry_Int_Tables_number	1
_symmetry_cell_setting	triclinic
loop_
_symmetry_equiv_pos_as_xyz
  x,y,z
_cell_length_a	15.944557
_cell_length_b	15.021413
_cell_length_c	10.654551
_cell_angle_alpha	90.005822
_cell_angle_beta	83.993399
_cell_angle_gamma	89.994532
loop_
_atom_site_label
_atom_site_type_symbol
_atom_site_fract_x
_atom_site_fract_y
_atom_site_fract_z
O1	O	-1.115464	0.073990	-0.161988
O2	O	-0.871030	0.074000	-0.181948
O3	O	-0.998866	0.073993	0.010844
O4	O	-0.987627	0.073997	-0.354780
O5	O	-0.998846	-0.074071	0.010816
O6	O	-0.871010	-0.074064	-0.181976
O7	O	-1.115443	-0.074074	-0.162015
Zn8	Zn	-0.993223	-0.097577	-0.172000
Zn9	Zn	-0.993250	0.097504	-0.171964
O10	O	-0.987607	-0.074067	-0.354807
C11	C	-0.839721	-0.000031	-0.181132
C12	C	-0.746461	-0.000027	-0.178643
C13	C	-0.475095	-0.000043	-0.051701
C14	C	-0.526021	-0.073047	-0.112911
C15	C	-0.410768	-0.000048	-0.169769
C16	C	-0.526022	0.072933	-0.112915
C17	C	-0.575706	-0.000036	-0.174123
C18	C	-0.460465	-0.073112	-0.230946
C19	C	-0.460463	0.072933	-0.230934
C20	C	-0.511356	-0.000089	-0.292230
C21	C	-0.315752	-0.000056	-0.167257
C22	C	-0.670719	-0.000035	-0.176644
N23	N	-0.993211	-0.230715	-0.172024
C24	C	-0.934090	-0.470395	-0.261129
C25	C	-1.010132	-0.529732	-0.285512
C26	C	-0.993232	-0.412322	-0.171993
C27	C	-0.917212	-0.529726	-0.147638
C28	C	-0.993246	-0.587746	-0.171965
C29	C	-1.069312	-0.470353	-0.196432
C30	C	-0.976342	-0.470342	-0.058508
C31	C	-1.052438	-0.529652	-0.082843
C32	C	-0.993223	-0.311265	-0.172012
C33	C	-0.993264	-0.688801	-0.171945
C34	C	-0.146753	-0.000046	-0.162815
C35	C	-0.240018	-0.000056	-0.165252
C36	C	-0.998031	-0.000038	0.057617
C37	C	-0.995561	-0.000033	0.197028
N38	N	-0.993269	0.230641	-0.171930
C39	C	-0.988443	-0.000034	-0.401581
C40	C	-0.990912	-0.000033	-0.540992
C41	C	-0.994413	0.080677	0.262532
C42	C	-0.992086	0.080678	0.393523
C43	C	-0.992058	-0.080750	0.393494
C44	C	-0.994379	-0.080750	0.262505
H45	H	-0.884127	-0.444377	-0.336570
H46	H	-1.102514	-0.555507	-0.007447
H47	H	-0.431936	-0.134899	-0.280783
C48	C	-0.453143	-0.000139	0.085658
H49	H	-0.475700	-0.052076	0.127412
H50	H	-0.476568	0.051195	0.128013
H51	H	-0.393609	0.000384	0.086284
H52	H	-0.431813	0.134656	-0.280741
H53	H	-0.995373	0.146402	0.209224
H54	H	-0.554658	0.134650	-0.063021
C55	C	-1.156190	-0.435280	-0.224403
H56	H	-1.192460	-0.484099	-0.236024
H57	H	-1.149892	-0.400088	-0.298865
H58	H	-1.179823	-0.400026	-0.155559
H59	H	-0.991097	-0.146466	0.446822
H60	H	-0.852917	-0.555809	-0.127051
H61	H	-0.991149	0.146401	0.446850
C62	C	-0.995638	-0.169533	0.190439
H63	H	-0.997179	-0.157971	0.103048
H64	H	-1.044145	-0.202707	0.221464
H65	H	-0.946348	-0.202688	0.202330
C66	C	-0.564714	-0.156418	-0.045568
H67	H	-0.552554	-0.156330	0.039839
H68	H	-0.541392	-0.208262	-0.086674
H69	H	-0.624076	-0.156082	-0.048299
C70	C	-0.533090	-0.000143	-0.429696
H71	H	-0.510430	-0.052048	-0.471446
H72	H	-0.509649	0.051224	-0.471917
H73	H	-0.592609	0.000342	-0.430528
H74	H	-1.024430	-0.555819	-0.381471
C75	C	-0.956995	-0.435063	0.071077
H76	H	-0.902926	-0.455355	0.088245
H77	H	-0.998459	-0.456233	0.134573
H78	H	-0.957642	-0.371826	0.070346
