data_functionalizedCrystal
_audit_creation_method	'MofGen! by Chris Wilmer'
_symmetry_space_group_name_H-M	'P1'
_symmetry_Int_Tables_number	1
_symmetry_cell_setting	triclinic
loop_
_symmetry_equiv_pos_as_xyz
  x,y,z
_cell_length_a	19.188930
_cell_length_b	19.188930
_cell_length_c	17.666332
_cell_angle_alpha	90.011603
_cell_angle_beta	89.976766
_cell_angle_gamma	96.855221
loop_
_atom_site_label
_atom_site_type_symbol
_atom_site_fract_x
_atom_site_fract_y
_atom_site_fract_z
O1	O	0.926150	-0.087169	-0.063200
O2	O	1.426150	0.412831	0.436800
O3	O	0.722838	-0.098903	-0.063149
O4	O	1.222838	0.401097	0.436851
O5	O	0.830361	0.008620	-0.063161
O6	O	1.330361	0.508620	0.436839
O7	O	0.818627	-0.194692	-0.063188
O8	O	1.318627	0.305308	0.436812
O9	O	0.830342	0.008625	0.062735
O10	O	1.330342	0.508625	0.562735
O11	O	0.722820	-0.098897	0.062747
O12	O	1.222820	0.401103	0.562747
O13	O	0.926131	-0.087163	0.062697
O14	O	1.426131	0.412837	0.562697
Cu15	Cu	0.824473	-0.093030	0.074217
Cu16	Cu	1.324473	0.406970	0.574217
Cu17	Cu	0.824496	-0.093036	-0.074670
Cu18	Cu	1.324496	0.406964	0.425330
O19	O	0.818608	-0.194686	0.062709
O20	O	1.318608	0.305314	0.562709
C21	C	0.696818	-0.098520	-0.000194
C22	C	1.196818	0.401480	0.499806
C23	C	0.619313	-0.097380	-0.000174
C24	C	1.119313	0.402620	0.499826
C25	C	0.574389	-0.160470	-0.000194
C26	C	1.074389	0.339530	0.499806
C27	C	0.501566	-0.159399	-0.000203
C28	C	1.001566	0.340601	0.499797
C29	C	0.473669	-0.095233	-0.000206
C30	C	0.973669	0.404767	0.499794
C31	C	0.518603	-0.032133	-0.000181
C32	C	1.018603	0.467867	0.499819
C33	C	0.591425	-0.033207	-0.000166
C34	C	1.091425	0.466793	0.499834
N35	N	0.365695	-0.046188	-0.043078
N36	N	0.865695	0.453812	0.456922
N37	N	0.296517	-0.045172	-0.043095
N38	N	0.796517	0.454828	0.456905
C39	C	0.254260	-0.091994	-0.000252
C40	C	0.754260	0.408006	0.499748
N41	N	0.283795	-0.139881	0.042599
N42	N	0.783795	0.360119	0.542599
N43	N	0.352979	-0.140899	0.042612
N44	N	0.852979	0.359101	0.542612
C45	C	0.394707	-0.094062	-0.000222
C46	C	0.894707	0.405938	0.499778
C47	C	0.130372	-0.153928	-0.000280
C48	C	0.630372	0.346072	0.499720
C49	C	0.057547	-0.152853	-0.000283
C50	C	0.557547	0.347147	0.499717
C51	C	0.074586	-0.025586	-0.000270
C52	C	0.574586	0.474414	0.499730
C53	C	0.147409	-0.026662	-0.000258
C54	C	0.647409	0.473338	0.499742
C55	C	0.175298	-0.090835	-0.000267
C56	C	0.675298	0.409165	0.499733
C57	C	0.829972	0.034634	-0.000211
C58	C	1.329972	0.534634	0.499789
C59	C	0.828831	0.112138	-0.000204
C60	C	1.328831	0.612138	0.499796
C61	C	0.952151	-0.087546	-0.000260
C62	C	1.452151	0.412454	0.499740
C63	C	1.029656	-0.088687	-0.000285
C64	C	1.529656	0.411313	0.499715
C65	C	0.818997	-0.220700	-0.000244
C66	C	1.318997	0.279300	0.499756
C67	C	0.820138	-0.298204	-0.000255
C68	C	1.320138	0.201796	0.499745
N69	N	0.824463	-0.093025	0.178937
N70	N	1.324463	0.406975	0.678937
C71	C	0.891922	0.157062	-0.000216
C72	C	1.391922	0.657062	0.499784
C73	C	0.890850	0.229886	-0.000228
C74	C	1.390850	0.729886	0.499772
C75	C	0.826684	0.257782	-0.000212
C76	C	1.326684	0.757782	0.499788
C77	C	0.763585	0.212849	-0.000205
C78	C	1.263585	0.712849	0.499795
C79	C	0.764658	0.140026	-0.000200
C80	C	1.264658	0.640026	0.499800
N81	N	0.777630	0.365789	0.042645
N82	N	1.277630	0.865789	0.542645
N83	N	0.776615	0.434968	0.042642
N84	N	1.276615	0.934968	0.542642
C85	C	0.823446	0.477191	-0.000227
C86	C	1.323446	0.977191	0.499773
N87	N	0.871341	0.447624	-0.043084
N88	N	1.371341	0.947624	0.456916
N89	N	0.872359	0.378439	-0.043079
N90	N	1.372359	0.878439	0.456921
C91	C	0.825513	0.336745	-0.000218
C92	C	1.325513	0.836745	0.499782
C93	C	0.885379	0.601079	-0.000253
C94	C	1.385379	1.101079	0.499747
C95	C	0.884305	0.673904	-0.000270
C96	C	1.384305	1.173904	0.499730
C97	C	0.757038	0.656865	-0.000239
C98	C	1.257038	1.156865	0.499761
C99	C	0.758114	0.584042	-0.000230
C100	C	1.258114	1.084042	0.499770
C101	C	0.822287	0.556154	-0.000233
C102	C	1.322287	1.056154	0.499767
N103	N	0.824512	-0.093036	-0.179390
N104	N	1.324512	0.406964	0.320610
C105	C	0.872089	-0.045437	0.218541
C106	C	1.372089	0.454563	0.718541
C107	C	0.872093	-0.045433	0.297789
C108	C	1.372093	0.454567	0.797789
C109	C	0.824478	-0.093030	0.337429
C110	C	1.324478	0.406970	0.837429
C111	C	0.776842	-0.140621	0.297815
C112	C	1.276842	0.359379	0.797815
C113	C	0.776835	-0.140619	0.218569
C114	C	1.276835	0.359381	0.718569
N115	N	0.815401	-0.154837	0.461841
N116	N	1.315401	0.345163	0.961841
N117	N	0.815413	-0.154837	0.537121
N118	N	1.315413	0.345163	1.037121
C119	C	0.824496	-0.093040	0.576193
C120	C	1.324496	0.406960	1.076193
N121	N	0.833582	-0.031239	0.537140
N122	N	1.333582	0.468761	1.037140
N123	N	0.833574	-0.031240	0.461853
N124	N	1.333574	0.468760	0.961853
C125	C	0.824480	-0.093038	0.423358
C126	C	1.324480	0.406962	0.923358
C127	C	0.872130	-0.045444	0.701727
C128	C	1.372130	0.454556	1.201727
C129	C	0.872129	-0.045440	0.780976
C130	C	1.372129	0.454560	1.280976
C131	C	0.776881	-0.140634	0.781000
C132	C	1.276881	0.359366	1.281000
C133	C	0.776878	-0.140632	0.701753
C134	C	1.276878	0.359368	1.201753
C135	C	0.824506	-0.093038	0.662121
C136	C	1.324506	0.406962	1.162121
H137	H	0.183988	0.024713	-0.000246
H138	H	0.683988	0.524713	0.499754
H139	H	0.937632	0.578372	-0.000259
H140	H	1.437632	1.078372	0.499741
H141	H	0.944176	0.134360	-0.000222
H142	H	1.444176	0.634360	0.499778
O143	O	0.701298	0.240027	-0.000289
O144	O	1.201298	0.740027	0.499711
C145	C	0.696874	0.281614	-0.065502
C146	C	1.196874	0.781614	0.434498
H147	H	0.751964	0.299915	-0.087252
H148	H	1.251964	0.799915	0.412748
H149	H	0.669186	0.329221	-0.050833
H150	H	1.169186	0.829221	0.449167
H151	H	0.665894	0.249338	-0.111152
H152	H	1.165894	0.749338	0.388848
O153	O	0.952204	0.273436	-0.000204
O154	O	1.452204	0.773436	0.499796
C155	C	1.009073	0.233205	-0.000228
C156	C	1.509073	0.733205	0.499772
H157	H	0.991182	0.178801	0.023610
H158	H	1.491182	0.678801	0.523610
H159	H	1.053256	0.260213	0.036316
H160	H	1.553256	0.760213	0.536316
H161	H	1.028768	0.228070	-0.060630
H162	H	1.528768	0.728070	0.439370
H163	H	0.020970	-0.204232	-0.000295
H164	H	0.520970	0.295768	0.499705
O165	O	0.918278	0.000988	0.180193
O166	O	1.418278	0.500988	0.680193
C167	C	0.907034	0.070003	0.199765
C168	C	1.407034	0.570003	0.699765
H169	H	0.851101	0.070078	0.221508
H170	H	1.351101	0.570078	0.721508
H171	H	0.915195	0.105197	0.147759
H172	H	1.415195	0.605197	0.647759
H173	H	0.945714	0.090543	0.245854
H174	H	1.445714	0.590543	0.745854
O175	O	0.694645	0.683839	-0.000257
O176	O	1.194645	1.183839	0.499743
C177	C	0.639187	0.628567	-0.000221
C178	C	1.139187	1.128567	0.499779
H179	H	0.658611	0.579148	-0.024055
H180	H	1.158611	1.079148	0.475945
H181	H	0.594379	0.643640	-0.036763
H182	H	1.094379	1.143640	0.463237
H183	H	0.619727	0.618218	0.060184
H184	H	1.119727	1.118218	0.560184
O185	O	0.703305	0.096483	-0.000151
O186	O	1.203305	0.596483	0.499849
C187	C	0.646437	0.136716	-0.000163
C188	C	1.146437	0.636716	0.499837
H189	H	0.664321	0.191131	0.023661
H190	H	1.164321	0.691131	0.523661
H191	H	0.602238	0.109727	0.036400
H192	H	1.102238	0.609727	0.536400
H193	H	0.626768	0.141825	-0.060559
H194	H	1.126768	0.641825	0.439441
H195	H	0.051874	0.026659	-0.000319
H196	H	0.551874	0.526659	0.499681
H197	H	0.738051	-0.179371	0.186322
H198	H	1.238051	0.320629	0.686322
O199	O	0.945659	0.717447	-0.000249
O200	O	1.445659	1.217447	0.499751
C201	C	1.002525	0.677212	-0.000269
C202	C	1.502525	1.177212	0.499731
H203	H	0.984630	0.622810	0.023575
H204	H	1.484630	1.122810	0.523575
H205	H	1.046709	0.704219	0.036275
H206	H	1.546709	1.204219	0.536275
H207	H	1.022220	0.672070	-0.060669
H208	H	1.522220	1.172070	0.439331
H209	H	0.738072	-0.179374	0.330094
H210	H	1.238072	0.320626	0.830094
H211	H	0.706738	0.547464	-0.000216
H212	H	1.206738	1.047464	0.499784
H213	H	0.910878	-0.006680	0.330041
H214	H	1.410878	0.493320	0.830041
O215	O	0.918414	0.000859	0.663340
O216	O	1.418414	0.500859	1.163340
C217	C	0.960459	0.042857	0.715294
C218	C	1.460459	0.542857	1.215294
H219	H	0.931841	0.043575	0.771798
H220	H	1.431841	0.543575	1.271798
H221	H	0.971281	0.098644	0.692404
H222	H	1.471281	0.598644	1.192404
H223	H	1.012254	0.020316	0.723690
H224	H	1.512254	0.520316	1.223690
H225	H	0.910910	-0.006684	0.813222
H226	H	1.410910	0.493316	1.313222
H227	H	0.738109	-0.179385	0.813275
H228	H	1.238109	0.320615	1.313275
O229	O	0.491474	0.030180	-0.000321
O230	O	0.991474	0.530180	0.499679
C231	C	0.449885	0.034598	-0.065525
C232	C	0.949885	0.534598	0.434475
H233	H	0.467024	-0.001836	-0.111097
H234	H	0.967024	0.498164	0.388903
H235	H	0.456605	0.090888	-0.087404
H236	H	0.956605	0.590888	0.412596
H237	H	0.392397	0.018317	-0.050800
H238	H	0.892397	0.518317	0.449200
O239	O	0.730688	-0.186963	0.663313
O240	O	1.230688	0.313037	1.163313
C241	C	0.741815	-0.256052	0.682670
C242	C	1.241815	0.243948	1.182670
H243	H	0.797714	-0.256253	0.704423
H244	H	1.297714	0.243747	1.204423
H245	H	0.733671	-0.291113	0.630551
H246	H	1.233671	0.208887	1.130551
H247	H	0.703059	-0.276655	0.728686
H248	H	1.203059	0.223345	1.228686
O249	O	0.601363	-0.222867	-0.000161
O250	O	1.101363	0.277133	0.499839
C251	C	0.546090	-0.278323	-0.000199
C252	C	1.046090	0.221677	0.499801
H253	H	0.496663	-0.258901	0.023625
H254	H	0.996663	0.241099	0.523625
H255	H	0.561149	-0.323135	0.036353
H256	H	1.061149	0.176865	0.536353
H257	H	0.535761	-0.297777	-0.060602
H258	H	1.035761	0.202223	0.439398
H259	H	0.464982	-0.210776	-0.000217
H260	H	0.964982	0.289224	0.499783
H261	H	0.628003	0.018171	-0.000150
H262	H	1.128003	0.518171	0.499850
H263	H	0.153080	-0.206181	-0.000276
H264	H	0.653080	0.293819	0.499724
