data_functionalizedCrystal
_audit_creation_method	'MofGen! by Chris Wilmer'
_symmetry_space_group_name_H-M	'P1'
_symmetry_Int_Tables_number	1
_symmetry_cell_setting	triclinic
loop_
_symmetry_equiv_pos_as_xyz
  x,y,z
_cell_length_a	12.645331
_cell_length_b	12.645330
_cell_length_c	12.645323
_cell_angle_alpha	89.975130
_cell_angle_beta	90.022676
_cell_angle_gamma	89.983329
loop_
_atom_site_label
_atom_site_type_symbol
_atom_site_fract_x
_atom_site_fract_y
_atom_site_fract_z
Zn1	Zn	1.620731	0.422060	0.599446
Zn2	Zn	1.620613	0.599348	0.422186
Zn3	Zn	1.443446	0.422096	0.422191
Zn4	Zn	1.443428	0.599279	0.599402
O5	O	1.532054	0.510695	0.510806
O6	O	1.769063	0.445591	0.575949
O7	O	1.597069	0.575879	0.273840
O8	O	1.467020	0.273744	0.445724
O9	O	1.768976	0.575844	0.445717
O10	O	1.597271	0.273717	0.575953
O11	O	1.466906	0.445653	0.273843
O12	O	1.295096	0.445585	0.445681
O13	O	1.466989	0.575726	0.747755
O14	O	1.295083	0.575761	0.575877
O15	O	1.597253	0.445524	0.747788
O16	O	1.597052	0.747686	0.445674
O17	O	1.466874	0.747635	0.575873
C18	C	1.256625	0.510670	0.510776
C19	C	1.138795	0.510685	0.510788
C20	C	1.531977	0.786125	0.510791
C21	C	1.532041	0.903955	0.510821
C22	C	0.971204	0.428415	0.429333
C23	C	1.093763	0.428628	0.428974
C24	C	1.094274	0.622359	0.480273
C25	C	0.971676	0.621910	0.479717
C26	C	0.971645	0.482344	0.623072
C27	C	1.094251	0.479849	0.622448
C28	C	1.532132	0.510614	0.787312
C29	C	1.532166	0.510579	0.905142
C30	C	1.808560	0.510722	0.510838
C31	C	1.926390	0.510733	0.510851
C32	C	1.532161	0.234190	0.510844
C33	C	1.532206	0.116360	0.510861
C34	C	1.450484	1.071531	0.592982
C35	C	1.450067	0.948972	0.592717
C36	C	1.501796	0.948549	0.399099
C37	C	1.501298	1.071147	0.399597
C38	C	1.644342	1.071047	0.539475
C39	C	1.643654	0.948440	0.541918
C40	C	1.532038	0.510701	0.235377
C41	C	1.532210	0.510437	0.117547
C42	C	1.449964	0.592103	1.072685
C43	C	1.450179	0.592506	0.950125
C44	C	1.643865	0.540899	0.949662
C45	C	1.643414	0.541410	1.072260
C46	C	1.503724	0.398278	1.072340
C47	C	1.501232	0.398951	0.949733
H48	H	1.123864	0.345817	0.448100
H49	H	1.366935	0.919736	0.573760
H50	H	1.667560	0.623400	1.100871
N51	N	1.473787	0.911128	0.696639
N52	N	1.408584	0.854484	0.744689
H53	H	1.425335	0.827758	0.818088
H54	H	1.706772	0.484511	1.101938
H55	H	0.941740	0.345355	0.448254
H56	H	1.558238	1.100805	0.336324
N57	N	1.722794	0.468635	0.913111
N58	N	1.697541	0.393803	0.853698
H59	H	1.753283	0.342763	0.827882
H60	H	1.668424	0.622030	0.918973
H61	H	0.943030	0.645984	0.397678
N62	N	0.934492	0.701475	0.550932
N63	N	0.958703	0.796177	0.536233
H64	H	0.932446	0.852375	0.586521
N65	N	1.403325	0.363615	1.111116
N66	N	1.351542	0.421162	1.172550
H67	H	1.280631	0.396692	1.199939
N68	N	1.130868	0.701350	0.552425
N69	N	1.190311	0.676161	0.627319
H70	H	1.216157	0.731946	0.678280
N71	N	1.678945	1.109714	0.639951
N72	N	1.698478	1.046331	0.713286
H73	H	1.722905	1.073639	0.784252
N74	N	1.130505	0.452194	0.324660
N75	N	1.186949	0.531792	0.308943
H76	H	1.212899	0.548440	0.235268
H77	H	1.420678	0.917936	0.374420
H78	H	1.559431	0.919391	0.336240
N79	N	1.724052	0.909990	0.472340
N80	N	1.700291	0.848908	0.398366
H81	H	1.757069	0.821756	0.349215
N82	N	1.474067	1.108359	0.697257
N83	N	1.551373	1.168083	0.712271
H84	H	1.568051	1.194073	0.785923
H85	H	1.556760	0.334889	0.919112
H86	H	1.705227	1.100036	0.479663
H87	H	1.419031	0.376085	0.920634
H88	H	1.367871	1.102431	0.574266
H89	H	1.563628	0.337434	1.101353
N90	N	1.398465	1.107130	0.369180
N91	N	1.327563	1.041697	0.347733
H92	H	1.254933	1.067104	0.326250
N93	N	1.130734	0.376749	0.651323
N94	N	1.065694	0.304412	0.668808
H95	H	1.091463	0.231595	0.689196
N96	N	1.132715	0.653104	0.378463
N97	N	1.186553	0.735419	0.368738
H98	H	1.213700	0.757129	0.296832
N99	N	0.932873	0.381975	0.657881
N100	N	0.871406	0.330143	0.600394
H101	H	0.844020	0.259254	0.624967
N102	N	1.132641	0.549584	0.702744
N103	N	1.069025	0.602950	0.756345
H104	H	1.096119	0.652208	0.813062
H105	H	0.940356	0.446970	0.346662
N106	N	0.935311	0.557580	0.699253
N107	N	0.876343	0.631814	0.671165
H108	H	0.850685	0.684960	0.724959
N109	N	1.672259	0.911867	0.645065
N110	N	1.610732	0.853255	0.695544
H111	H	1.630930	0.827421	0.768394
H112	H	1.366889	0.573311	1.102159
N113	N	1.346269	0.568699	0.912372
N114	N	1.273081	0.551670	0.976568
H115	H	1.199688	0.534861	0.949911
N116	N	1.473343	0.695756	1.111344
N117	N	1.560752	0.737370	1.091441
H118	H	1.577271	0.810574	1.118745
N119	N	1.473806	0.696810	0.913359
N120	N	1.490196	0.769531	0.978244
H121	H	1.506886	0.843201	0.952279
