data_functionalizedCrystal
_audit_creation_method	'MofGen! by Chris Wilmer'
_symmetry_space_group_name_H-M	'P1'
_symmetry_Int_Tables_number	1
_symmetry_cell_setting	triclinic
loop_
_symmetry_equiv_pos_as_xyz
  x,y,z
_cell_length_a	17.699097
_cell_length_b	17.699092
_cell_length_c	14.586319
_cell_angle_alpha	89.997896
_cell_angle_beta	89.992901
_cell_angle_gamma	83.287399
loop_
_atom_site_label
_atom_site_type_symbol
_atom_site_fract_x
_atom_site_fract_y
_atom_site_fract_z
O1	O	1.004071	0.095758	-0.076313
O2	O	1.504071	0.595758	0.423687
O3	O	0.783695	0.108200	-0.076298
O4	O	1.283695	0.608200	0.423702
O5	O	0.900106	-0.008210	-0.076304
O6	O	1.400106	0.491790	0.423696
O7	O	0.887660	0.212167	-0.076307
O8	O	1.387660	0.712167	0.423693
O9	O	0.900098	-0.008212	0.076177
O10	O	1.400098	0.491788	0.576177
O11	O	0.783687	0.108198	0.076183
O12	O	1.283687	0.608198	0.576183
O13	O	1.004063	0.095756	0.076168
O14	O	1.504063	0.595756	0.576168
Cu15	Cu	0.893874	0.101977	0.090098
Cu16	Cu	1.393874	0.601977	0.590098
Cu17	Cu	0.893884	0.101979	-0.090228
Cu18	Cu	1.393884	0.601979	0.409772
O19	O	0.887652	0.212165	0.076174
O20	O	1.387652	0.712165	0.576174
C21	C	0.755494	0.107751	-0.000055
C22	C	1.255494	0.607751	0.499945
C23	C	0.671476	0.106409	-0.000050
C24	C	1.171476	0.606409	0.499950
C25	C	0.155762	0.098180	-0.083204
C26	C	0.655762	0.598180	0.416796
C27	C	0.234706	0.099437	-0.083199
C28	C	0.734706	0.599437	0.416801
C29	C	0.274168	0.100065	-0.000078
C30	C	0.774168	0.600065	0.499922
C31	C	0.234682	0.099429	0.083044
C32	C	0.734682	0.599429	0.583044
C33	C	0.155740	0.098168	0.083038
C34	C	0.655740	0.598168	0.583038
C35	C	0.553046	0.104517	0.083068
C36	C	1.053046	0.604517	0.583068
C37	C	0.631994	0.105781	0.083067
C38	C	1.131994	0.605781	0.583067
C39	C	0.632012	0.105786	-0.083170
C40	C	1.132012	0.605786	0.416830
C41	C	0.553070	0.104524	-0.083175
C42	C	1.053070	0.604524	0.416825
C43	C	0.513592	0.103884	-0.000054
C44	C	1.013592	0.603884	0.499946
C45	C	0.427992	0.102521	-0.000060
C46	C	0.927992	0.602521	0.499940
C47	C	0.359766	0.101434	-0.000071
C48	C	0.859766	0.601434	0.499929
C49	C	0.899655	-0.036408	-0.000065
C50	C	1.399655	0.463592	0.499935
C51	C	0.898314	-0.120425	-0.000069
C52	C	1.398314	0.379575	0.499931
C53	C	0.897690	-0.159892	-0.083187
C54	C	1.397690	0.340108	0.416813
C55	C	0.896425	-0.238835	-0.083188
C56	C	1.396425	0.261165	0.416812
C57	C	0.895789	-0.278311	-0.000070
C58	C	1.395789	0.221689	0.499930
C59	C	0.896411	-0.238838	0.083055
C60	C	1.396411	0.261162	0.583055
C61	C	0.897671	-0.159896	0.083055
C62	C	1.397671	0.340104	0.583055
C63	C	0.891331	-0.557204	0.083057
C64	C	1.391331	-0.057204	0.583057
C65	C	0.890073	-0.636152	0.083050
C66	C	1.390073	-0.136152	0.583050
C67	C	0.890085	-0.636143	-0.083186
C68	C	1.390085	-0.136143	0.416814
C69	C	0.891345	-0.557200	-0.083186
C70	C	1.391345	-0.057200	0.416814
C71	C	0.891962	-0.517734	-0.000062
C72	C	1.391962	-0.017734	0.499938
C73	C	0.893332	-0.432135	-0.000062
C74	C	1.393332	0.067865	0.499938
C75	C	0.894425	-0.363909	-0.000069
C76	C	1.394425	0.136091	0.499931
C77	C	1.032264	0.096204	-0.000077
C78	C	1.532264	0.596204	0.499923
C79	C	1.116282	0.097547	-0.000088
C80	C	1.616282	0.597547	0.499912
C81	C	0.888103	0.240363	-0.000067
C82	C	1.388103	0.740363	0.499933
C83	C	0.889444	0.324381	-0.000069
C84	C	1.389444	0.824381	0.499931
N85	N	0.893873	0.101975	0.216930
N86	N	1.393873	0.601975	0.716930
N87	N	0.893891	0.101975	-0.217060
N88	N	1.393891	0.601975	0.282940
C89	C	0.945437	0.050446	0.451934
C90	C	1.445437	0.550446	0.951934
C91	C	0.945439	0.050444	0.547915
C92	C	1.445439	0.550444	1.047915
C93	C	0.842322	0.153506	0.547930
C94	C	1.342322	0.653506	1.047930
C95	C	0.842316	0.153504	0.451950
C96	C	1.342316	0.653504	0.951950
C97	C	0.893878	0.101975	0.403955
C98	C	1.393878	0.601975	0.903955
C99	C	0.893886	0.101975	0.595915
C100	C	1.393886	0.601975	1.095915
C101	C	0.893888	0.101973	0.699983
C102	C	1.393888	0.601973	1.199983
C103	C	0.893876	0.101975	0.299881
C104	C	1.393876	0.601975	0.799881
H105	H	0.123637	0.097674	-0.150891
H106	H	0.623637	0.597674	0.349109
H107	H	0.520914	0.103985	0.150750
H108	H	1.020914	0.603985	0.650750
H109	H	0.266848	0.099948	-0.150880
H110	H	0.766848	0.599948	0.349120
H111	H	0.891866	-0.525063	-0.150870
H112	H	1.391866	-0.025063	0.349130
Br113	Br	0.685549	0.106635	0.195882
Br114	Br	1.185549	0.606635	0.695882
Br115	Br	0.898513	-0.106333	0.195863
Br116	Br	1.398513	0.393667	0.695863
H117	H	0.889554	-0.668290	0.150739
H118	H	1.389554	-0.168290	0.650739
Br119	Br	1.015412	-0.019488	0.386800
Br120	Br	1.515412	0.480512	0.886800
H121	H	0.889578	-0.668285	-0.150870
H122	H	1.389578	-0.168285	0.349130
Br123	Br	0.772349	0.223437	0.613069
Br124	Br	1.272349	0.723437	1.113069
Br125	Br	0.892153	-0.503650	0.195868
Br126	Br	1.392153	-0.003650	0.695868
Br127	Br	0.895577	-0.292394	-0.195997
Br128	Br	1.395577	0.207606	0.304003
Br129	Br	0.772333	0.223434	0.386828
Br130	Br	1.272333	0.723434	0.886828
Br131	Br	0.895536	-0.292410	0.195860
Br132	Br	1.395536	0.207590	0.695860
H133	H	0.520944	0.104016	-0.150861
H134	H	1.020944	0.604016	0.349139
Br135	Br	0.288237	0.100278	0.195853
Br136	Br	0.788237	0.600278	0.695853
H137	H	0.123595	0.097660	0.150719
H138	H	0.623595	0.597660	0.650719
Br139	Br	0.685594	0.106650	-0.195980
Br140	Br	1.185594	0.606650	0.304020
H141	H	0.898212	-0.127757	-0.150872
H142	H	1.398212	0.372243	0.349128
H143	H	0.987422	0.008484	0.586977
H144	H	1.487422	0.508484	1.086977
