data_functionalizedCrystal
_audit_creation_method	'MofGen! by Chris Wilmer'
_symmetry_space_group_name_H-M	'P1'
_symmetry_Int_Tables_number	1
_symmetry_cell_setting	triclinic
loop_
_symmetry_equiv_pos_as_xyz
  x,y,z
_cell_length_a	10.654542
_cell_length_b	19.188905
_cell_length_c	9.130313
_cell_angle_alpha	89.989353
_cell_angle_beta	90.008138
_cell_angle_gamma	96.191712
loop_
_atom_site_label
_atom_site_type_symbol
_atom_site_fract_x
_atom_site_fract_y
_atom_site_fract_z
O1	O	-0.156630	0.927177	-0.122053
O2	O	-0.177768	0.724001	-0.122004
O3	O	0.015640	0.830263	-0.122006
O4	O	-0.350039	0.820915	-0.122050
O5	O	0.015646	0.830256	0.121593
O6	O	-0.177763	0.723994	0.121595
O7	O	-0.156625	0.927170	0.121546
Cu8	Cu	-0.167193	0.825581	0.143813
Cu9	Cu	-0.167200	0.825590	-0.144271
O10	O	-0.350033	0.820908	0.121548
C11	C	-0.177086	0.697982	-0.000198
C12	C	-0.175047	0.620463	-0.000179
C13	C	0.062426	0.829574	-0.000204
C14	C	0.201826	0.827524	-0.000195
C15	C	-0.174071	0.584069	-0.132968
C16	C	-0.172141	0.511233	-0.132986
C17	C	-0.171162	0.474795	-0.000207
C18	C	-0.172146	0.511198	0.132600
C19	C	-0.174089	0.584032	0.132614
N20	N	-0.096646	0.365286	0.098616
N21	N	-0.094798	0.296097	0.098594
C22	C	-0.165312	0.255350	-0.000242
N23	N	-0.237728	0.286408	-0.099077
N24	N	-0.239571	0.355604	-0.099058
C25	C	-0.169057	0.395819	-0.000208
C26	C	-0.162245	0.139979	-0.133060
C27	C	-0.160322	0.067141	-0.133072
C28	C	-0.160315	0.067108	0.132518
C29	C	-0.162250	0.139944	0.132526
C30	C	-0.163209	0.176375	-0.000267
C31	C	0.413634	0.888157	-0.000200
C32	C	0.282655	0.890089	-0.000201
C33	C	0.251983	0.763023	-0.000172
C34	C	0.382961	0.761092	-0.000161
C35	C	0.603181	0.821600	-0.000234
C36	C	0.463784	0.823661	-0.000182
C37	C	-0.157307	0.953189	-0.000263
C38	C	-0.159346	1.030708	-0.000292
N39	N	-0.167188	0.825580	0.346436
N40	N	-0.167195	0.825596	-0.346894
C41	C	-0.081582	0.872649	0.423087
C42	C	-0.081582	0.872656	0.576423
C43	C	-0.252805	0.778523	0.576445
C44	C	-0.252798	0.778513	0.423111
H45	H	-0.174852	0.613727	-0.241099
H46	H	-0.163039	0.169642	-0.241188
H47	H	-0.163037	0.169577	0.240658
O48	O	0.173417	0.702266	-0.000425
C49	C	0.096713	0.699596	-0.126578
H50	H	0.144886	0.735070	-0.214759
H51	H	0.081660	0.643429	-0.168917
H52	H	0.001569	0.718128	-0.098070
H53	H	-0.171348	0.481595	-0.241123
O54	O	-0.174803	0.619373	0.261650
C55	C	-0.065609	0.608941	0.342459
H56	H	0.010922	0.594093	0.264768
H57	H	-0.030380	0.659313	0.402704
H58	H	-0.089068	0.564983	0.425248
O59	O	-0.159206	0.031719	-0.261977
C60	C	-0.049336	-0.003007	-0.269923
H61	H	-0.012800	-0.011469	-0.154624
H62	H	-0.072429	-0.055879	-0.326137
H63	H	0.026063	0.030246	-0.335434
H64	H	-0.322509	0.740181	0.360697
H65	H	-0.011873	0.910982	0.638828
H66	H	-0.159526	0.037441	0.240629
H67	H	0.423791	0.708568	-0.000140
H68	H	-0.171352	0.481525	0.240709
O69	O	0.491967	0.948999	-0.000145
C70	C	0.419610	1.006339	-0.000196
H71	H	0.321752	0.989087	0.045918
H72	H	0.468182	1.050212	0.070522
H73	H	0.410387	1.026084	-0.117067
O74	O	0.001704	0.918389	0.348830
C75	C	0.077242	0.959945	0.449373
H76	H	0.078521	0.931320	0.558694
H77	H	0.177584	0.970112	0.405090
H78	H	0.036704	1.012005	0.465637
O79	O	0.233792	0.952698	-0.000421
C80	C	0.158962	0.957627	-0.126606
H81	H	0.126018	0.902756	-0.168651
H82	H	0.073353	0.985875	-0.098245
H83	H	0.217002	0.988234	-0.214958
O84	O	-0.335796	0.732779	0.651095
C85	C	-0.268741	0.689382	0.739812
H86	H	-0.170346	0.716719	0.762785
H87	H	-0.321213	0.678598	0.847633
H88	H	-0.260443	0.637738	0.680760
