data_functionalizedCrystal
_audit_creation_method	'MofGen! by Chris Wilmer'
_symmetry_space_group_name_H-M	'P1'
_symmetry_Int_Tables_number	1
_symmetry_cell_setting	triclinic
loop_
_symmetry_equiv_pos_as_xyz
  x,y,z
_cell_length_a	29.839131
_cell_length_b	19.121141
_cell_length_c	19.120904
_cell_angle_alpha	89.913687
_cell_angle_beta	92.409150
_cell_angle_gamma	92.405260
loop_
_atom_site_label
_atom_site_type_symbol
_atom_site_fract_x
_atom_site_fract_y
_atom_site_fract_z
Zn1	Zn	-0.219764	-1.054747	-0.442071
Zn2	Zn	0.113569	-0.721414	-0.108738
Zn3	Zn	0.446902	-0.388080	0.224595
Zn4	Zn	-0.291826	-1.059635	-0.324826
Zn5	Zn	0.041507	-0.726302	0.008507
Zn6	Zn	0.374840	-0.392968	0.341840
Zn7	Zn	-0.213373	-0.942519	-0.319852
Zn8	Zn	0.119960	-0.609186	0.013481
Zn9	Zn	0.453293	-0.275852	0.346814
Zn10	Zn	-0.291523	-0.937447	-0.437025
Zn11	Zn	0.041810	-0.604113	-0.103691
Zn12	Zn	0.375144	-0.270780	0.229642
O13	O	-0.254122	-0.998587	-0.380944
O14	O	0.079212	-0.665254	-0.047610
O15	O	0.412545	-0.331920	0.285723
O16	O	-0.232125	-1.153500	-0.430712
O17	O	0.101208	-0.820166	-0.097379
O18	O	0.434542	-0.486833	0.235954
O19	O	-0.278872	-1.048268	-0.226062
O20	O	0.054462	-0.714934	0.107271
O21	O	0.387795	-0.381601	0.440605
O22	O	-0.151357	-0.957484	-0.336095
O23	O	0.181976	-0.624150	-0.002762
O24	O	0.515310	-0.290817	0.330571
O25	O	-0.285069	-1.157091	-0.344573
O26	O	0.048265	-0.823757	-0.011240
O27	O	0.381598	-0.490424	0.322094
O28	O	-0.156052	-1.039937	-0.425889
O29	O	0.177281	-0.706604	-0.092556
O30	O	0.510614	-0.373270	0.240778
O31	O	-0.221233	-0.962223	-0.222408
O32	O	0.112101	-0.628890	0.110926
O33	O	0.445434	-0.295556	0.444259
O34	O	-0.220939	-0.843742	-0.331202
O35	O	0.112395	-0.510409	0.002132
O36	O	0.445728	-0.177076	0.335465
O37	O	-0.284552	-0.948838	-0.535799
O38	O	0.048781	-0.615505	-0.202465
O39	O	0.382115	-0.282172	0.130868
O40	O	-0.278355	-0.840015	-0.417288
O41	O	0.054978	-0.506682	-0.083955
O42	O	0.388312	-0.173349	0.249379
O43	O	-0.231831	-1.035019	-0.539506
O44	O	0.101502	-0.701685	-0.206173
O45	O	0.434836	-0.368352	0.127160
O46	O	-0.354650	-1.043349	-0.339680
O47	O	-0.021317	-0.710016	-0.006346
O48	O	0.312016	-0.376682	0.326987
O49	O	-0.354428	-0.953578	-0.422111
O50	O	-0.021094	-0.620245	-0.088778
O51	O	0.312239	-0.286911	0.244556
C52	C	-0.248921	-0.816442	-0.373158
C53	C	0.084413	-0.483108	-0.039824
C54	C	0.417746	-0.149775	0.293509
C55	C	-0.246707	-0.738518	-0.369844
C56	C	0.086626	-0.405185	-0.036510
C57	C	0.419960	-0.071852	0.296823
C58	C	-0.275602	-0.699991	-0.413037
C59	C	0.057731	-0.366657	-0.079703
C60	C	0.391065	-0.033324	0.253630
C61	C	-0.273516	-0.626773	-0.409926
C62	C	0.059817	-0.293440	-0.076593
C63	C	0.393151	0.039893	0.256741
C64	C	-0.242537	-0.592085	-0.363618
C65	C	0.090797	-0.258752	-0.030285
C66	C	0.424130	0.074582	0.303048
C67	C	-0.213639	-0.630618	-0.320423
C68	C	0.119695	-0.297284	0.012910
C69	C	0.453028	0.036049	0.346243
C70	C	-0.215723	-0.703834	-0.323538
C71	C	0.117611	-0.370500	0.009795
C72	C	0.450944	-0.037167	0.343128
C73	C	-0.234745	-0.371116	-0.351978
C74	C	0.098589	-0.037783	-0.018645
C75	C	0.431922	0.295550	0.314688
C76	C	-0.232663	-0.297895	-0.348865
C77	C	0.100670	0.035438	-0.015532
C78	C	0.434003	0.368772	0.317801
C79	C	-0.292540	-0.294056	-0.438369
C80	C	0.040793	0.039278	-0.105036
C81	C	0.374126	0.372611	0.228298
C82	C	-0.294624	-0.367273	-0.441477
C83	C	0.038710	-0.033940	-0.108143
C84	C	0.372043	0.299393	0.225190
C85	C	-0.265724	-0.405800	-0.398285
C86	C	0.067609	-0.072466	-0.064951
C87	C	0.400943	0.260867	0.268382
C88	C	-0.240405	-0.517245	-0.360436
C89	C	0.092928	-0.183912	-0.027103
C90	C	0.426262	0.149422	0.306231
C91	C	-0.267854	-0.480638	-0.401471
C92	C	0.065479	-0.147305	-0.068138
C93	C	0.398813	0.186029	0.265196
C94	C	-0.370840	-0.998462	-0.380904
C95	C	-0.037507	-0.665129	-0.047570
C96	C	0.295827	-0.331795	0.285763
C97	C	-0.420775	-0.998471	-0.380913
C98	C	-0.087441	-0.665138	-0.047579
C99	C	0.245892	-0.331805	0.285754
C100	C	-0.730530	-1.045410	-0.338091
C101	C	-0.397196	-0.712076	-0.004757
C102	C	-0.063863	-0.378743	0.328576
C103	C	-0.918206	-1.045495	-0.338121
C104	C	-0.584872	-0.712162	-0.004788
C105	C	-0.251539	-0.378828	0.328545
O106	O	-0.942562	-1.085304	-0.301682
O107	O	-0.609228	-0.751971	0.031652
O108	O	-0.275895	-0.418637	0.364985
N109	N	-0.941569	-0.998730	-0.381003
N110	N	-0.608236	-0.665397	-0.047669
N111	N	-0.274903	-0.332063	0.285664
C112	C	-0.918011	-0.951944	-0.423883
C113	C	-0.584678	-0.618610	-0.090549
C114	C	-0.251345	-0.285277	0.242784
O115	O	-0.942190	-0.912174	-0.460362
O116	O	-0.608857	-0.578841	-0.127029
O117	O	-0.275523	-0.245507	0.206305
C118	C	-0.730336	-0.951862	-0.423855
C119	C	-0.397003	-0.618529	-0.090522
C120	C	-0.063669	-0.285196	0.242812
C121	C	-0.706975	-0.998625	-0.380966
C122	C	-0.373641	-0.665292	-0.047632
C123	C	-0.040308	-0.331959	0.285701
C124	C	-0.707168	-1.092169	-0.295205
C125	C	-0.373835	-0.758836	0.038128
C126	C	-0.040501	-0.425503	0.371461
C127	C	-0.660252	-1.092145	-0.295195
C128	C	-0.326918	-0.758812	0.038138
C129	C	0.006415	-0.425478	0.371471
C130	C	-0.636697	-1.045361	-0.338070
C131	C	-0.303363	-0.712027	-0.004737
C132	C	0.029970	-0.378694	0.328596
C133	C	-0.660058	-0.998601	-0.380956
C134	C	-0.326725	-0.665268	-0.047622
C135	C	0.006608	-0.331934	0.285711
C136	C	-0.706779	-0.905080	-0.466738
C137	C	-0.373446	-0.571746	-0.133405
C138	C	-0.040112	-0.238413	0.199928
C139	C	-0.659857	-0.905065	-0.466729
C140	C	-0.326524	-0.571731	-0.133396
C141	C	0.006809	-0.238398	0.199938
C142	C	-0.636496	-0.951828	-0.423840
C143	C	-0.303162	-0.618495	-0.090506
C144	C	0.030171	-0.285161	0.242827
C145	C	-0.589587	-0.951792	-0.423821
C146	C	-0.256254	-0.618459	-0.090487
C147	C	0.077080	-0.285126	0.242846
N148	N	-0.566223	-0.998557	-0.380939
N149	N	-0.232890	-0.665224	-0.047606
N150	N	0.100443	-0.331890	0.285727
C151	C	-0.589778	-1.045341	-0.338064
C152	C	-0.256445	-0.712008	-0.004731
C153	C	0.076888	-0.378675	0.328602
C154	C	-1.016543	-0.951989	-0.423893
C155	C	-0.683210	-0.618655	-0.090560
C156	C	-0.349877	-0.285322	0.242773
C157	C	-1.063462	-0.952008	-0.423899
C158	C	-0.730128	-0.618675	-0.090566
C159	C	-0.396795	-0.285342	0.242767
C160	C	-1.063653	-1.045560	-0.338139
C161	C	-0.730320	-0.712227	-0.004806
C162	C	-0.396987	-0.378894	0.328528
C163	C	-1.016734	-1.045537	-0.338130
C164	C	-0.683400	-0.712204	-0.004796
C165	C	-0.350067	-0.378871	0.328537
C166	C	-0.993180	-0.998754	-0.381012
C167	C	-0.659846	-0.665420	-0.047679
C168	C	-0.326513	-0.332087	0.285655
C169	C	-0.491250	-1.045286	-0.338046
C170	C	-0.157917	-0.711953	-0.004712
C171	C	0.175416	-0.378620	0.328621
C172	C	-0.444330	-1.045256	-0.338037
C173	C	-0.110996	-0.711922	-0.004704
C174	C	0.222337	-0.378589	0.328629
C175	C	-0.444143	-0.951706	-0.423800
C176	C	-0.110809	-0.618373	-0.090467
C177	C	0.222524	-0.285040	0.242866
C178	C	-0.491059	-0.951734	-0.423806
C179	C	-0.157726	-0.618401	-0.090473
C180	C	0.175608	-0.285067	0.242860
C181	C	-0.514612	-0.998530	-0.380927
C182	C	-0.181279	-0.665196	-0.047594
C183	C	0.152055	-0.331863	0.285740
O184	O	-0.565202	-0.912009	-0.460247
O185	O	-0.231869	-0.578676	-0.126914
O186	O	0.101464	-0.245343	0.206419
O187	O	-0.565592	-1.085115	-0.301602
O188	O	-0.232259	-0.751782	0.031731
O189	O	0.101075	-0.418449	0.365065
C190	C	-0.777446	-1.045434	-0.338101
C191	C	-0.444113	-0.712101	-0.004767
C192	C	-0.110779	-0.378767	0.328566
C193	C	-0.800807	-0.998674	-0.380986
C194	C	-0.467474	-0.665341	-0.047653
C195	C	-0.134141	-0.332007	0.285681
C196	C	-0.777252	-0.951890	-0.423861
C197	C	-0.443919	-0.618557	-0.090528
C198	C	-0.110586	-0.285223	0.242806
C199	C	-0.847726	-0.998693	-0.380992
C200	C	-0.514393	-0.665360	-0.047659
C201	C	-0.181059	-0.332027	0.285675
C202	C	-0.871281	-1.045478	-0.338117
C203	C	-0.537948	-0.712144	-0.004784
C204	C	-0.204614	-0.378811	0.328550
C205	C	-0.847917	-1.092242	-0.295236
C206	C	-0.514584	-0.758909	0.038098
C207	C	-0.181251	-0.425576	0.371431
C208	C	-0.801001	-1.092218	-0.295225
C209	C	-0.467668	-0.758885	0.038108
C210	C	-0.134334	-0.425551	0.371441
C211	C	-0.800616	-0.905125	-0.466742
C212	C	-0.467283	-0.571792	-0.133409
C213	C	-0.133949	-0.238458	0.199924
C214	C	-0.847532	-0.905153	-0.466748
C215	C	-0.514199	-0.571819	-0.133415
C216	C	-0.180866	-0.238486	0.199918
C217	C	-0.871087	-0.951937	-0.423873
C218	C	-0.537754	-0.618604	-0.090540
C219	C	-0.204421	-0.285270	0.242793
C220	C	-0.136949	-0.998731	-0.381000
C221	C	0.196384	-0.665398	-0.047667
C222	C	0.529718	-0.332064	0.285666
C223	C	-0.087017	-0.998792	-0.381024
C224	C	0.246317	-0.665459	-0.047691
C225	C	0.579650	-0.332126	0.285642
C226	C	-0.258871	-0.990818	-0.563801
C227	C	0.074463	-0.657484	-0.230468
C228	C	0.407796	-0.324151	0.102866
C229	C	-0.260894	-0.987507	-0.641724
C230	C	0.072439	-0.654173	-0.308391
C231	C	0.405773	-0.320840	0.024943
C232	C	-0.259341	-0.181444	-0.388752
C233	C	0.073992	0.151889	-0.055419
C234	C	0.407326	0.485223	0.277915
C235	C	-0.261559	-0.259368	-0.392058
C236	C	0.071775	0.073966	-0.058725
C237	C	0.405108	0.407299	0.274608
C238	C	-0.234397	-1.030818	-0.680264
C239	C	0.098936	-0.697485	-0.346931
C240	C	0.432270	-0.364152	-0.013597
C241	C	-0.236297	-1.027699	-0.753480
C242	C	0.097037	-0.694365	-0.420147
C243	C	0.430370	-0.361032	-0.086814
C244	C	-0.264696	-0.981271	-0.788156
C245	C	0.068638	-0.647937	-0.454823
C246	C	0.401971	-0.314604	-0.121489
C247	C	-0.291194	-0.937954	-0.749611
C248	C	0.042140	-0.604621	-0.416277
C249	C	0.375473	-0.271288	-0.082944
C250	C	-0.289292	-0.941071	-0.676396
C251	C	0.044042	-0.607737	-0.343062
C252	C	0.377375	-0.274404	-0.009729
C253	C	-0.271810	-0.969613	-1.009122
C254	C	0.061523	-0.636280	-0.675789
C255	C	0.394857	-0.302947	-0.342455
C256	C	-0.273711	-0.966502	-1.082343
C257	C	0.059622	-0.633168	-0.749009
C258	C	0.392956	-0.299835	-0.415676
C259	C	-0.218813	-1.056246	-1.086207
C260	C	0.114520	-0.722912	-0.752874
C261	C	0.447854	-0.389579	-0.419541
C262	C	-0.216915	-1.059361	-1.012991
C263	C	0.116418	-0.726027	-0.679657
C264	C	0.449751	-0.392694	-0.346324
C265	C	-0.243412	-1.016042	-0.974452
C266	C	0.089922	-0.682709	-0.641118
C267	C	0.423255	-0.349375	-0.307785
C268	C	-0.266639	-0.978083	-0.862995
C269	C	0.066694	-0.644749	-0.529662
C270	C	0.400028	-0.311416	-0.196328
C271	C	-0.241466	-1.019227	-0.899614
C272	C	0.091868	-0.685894	-0.566281
C273	C	0.425201	-0.352560	-0.232947
C274	C	-0.249360	-1.006367	-0.198799
C275	C	0.083973	-0.673033	0.134534
C276	C	0.417306	-0.339700	0.467867
C277	C	-0.247214	-1.009813	-0.120883
C278	C	0.086119	-0.676480	0.212451
C279	C	0.419453	-0.343147	0.545784
H280	H	-0.293075	-0.508884	-0.439177
H281	H	0.040258	-0.175551	-0.105844
H282	H	0.373591	0.157782	0.227489
H283	H	-0.316068	-0.262680	-0.473534
H284	H	0.017265	0.070653	-0.140201
H285	H	0.350598	0.403987	0.193132
O286	O	-0.199246	-0.260476	-0.298922
O287	O	0.134088	0.072857	0.034411
O288	O	0.467421	0.406190	0.367744
H289	H	-0.179496	-0.299565	-0.269416
H290	H	0.153837	0.033768	0.063917
H291	H	0.487170	0.367101	0.397250
H292	H	-0.211273	-1.068627	-0.652037
H293	H	0.122060	-0.735294	-0.318703
H294	H	0.455394	-0.401961	0.014630
H295	H	-0.211216	-0.402476	-0.316803
H296	H	0.122118	-0.069142	0.016530
H297	H	0.455451	0.264191	0.349864
O298	O	-0.635058	-1.142587	-0.248940
O299	O	-0.301725	-0.809254	0.084393
O300	O	0.031608	-0.475921	0.417726
H301	H	-0.615482	-1.176883	-0.281868
H302	H	-0.282149	-0.843550	0.051465
H303	H	0.051185	-0.510217	0.384799
O304	O	-0.180235	-0.593210	-0.270458
O305	O	0.153098	-0.259877	0.062876
O306	O	0.486432	0.073457	0.396209
H307	H	-0.183647	-0.535826	-0.275535
H308	H	0.149687	-0.202492	0.057798
H309	H	0.483020	0.130841	0.391131
O310	O	-0.297270	-0.928011	-0.900400
O311	O	0.036063	-0.594677	-0.567067
O312	O	0.369397	-0.261344	-0.233734
H313	H	-0.315377	-0.898412	-0.861304
H314	H	0.017957	-0.565078	-0.527970
H315	H	0.351290	-0.231745	-0.194637
O316	O	-0.304763	-0.585222	-0.456377
O317	O	0.028570	-0.251888	-0.123044
O318	O	0.361903	0.081445	0.210289
H319	H	-0.326689	-0.621645	-0.489045
H320	H	0.006645	-0.288312	-0.155712
H321	H	0.339978	0.045021	0.177621
H322	H	-0.640682	-0.866969	-0.501651
H323	H	-0.307349	-0.533635	-0.168318
H324	H	0.025985	-0.200302	0.165015
H325	H	-0.296838	-0.928692	-1.110573
H326	H	0.036495	-0.595359	-0.777240
H327	H	0.369829	-0.262026	-0.443907
O328	O	-0.207008	-0.479819	-0.310472
O329	O	0.126325	-0.146486	0.022861
O330	O	0.459658	0.186848	0.356194
H331	H	-0.184052	-0.445143	-0.340486
H332	H	0.149281	-0.111809	-0.007153
H333	H	0.482614	0.221524	0.326180
O334	O	-0.207718	-1.074416	-0.795047
O335	O	0.125615	-0.741083	-0.461714
O336	O	0.458949	-0.407750	-0.128381
H337	H	-0.229711	-1.108633	-0.829926
H338	H	0.103622	-0.775299	-0.496593
H339	H	0.436956	-0.441966	-0.163260
O340	O	-0.300362	-0.922858	-0.967557
O341	O	0.032971	-0.589524	-0.634224
O342	O	0.366304	-0.256191	-0.300890
H343	H	-0.320423	-0.890043	-1.003972
H344	H	0.012911	-0.556709	-0.670638
H345	H	0.346244	-0.223376	-0.337305
O346	O	-0.328033	-0.404688	-0.491429
O347	O	0.005301	-0.071355	-0.158096
O348	O	0.338634	0.261979	0.175238
H349	H	-0.347772	-0.365596	-0.520948
H350	H	-0.014439	-0.032262	-0.187614
H351	H	0.318894	0.301071	0.145719
H352	H	-0.997369	-0.913890	-0.458814
H353	H	-0.664035	-0.580557	-0.125481
H354	H	-0.330702	-0.247224	0.207852
O355	O	-0.419134	-1.095705	-0.291786
O356	O	-0.085801	-0.762372	0.041548
O357	O	0.247533	-0.429038	0.374881
H358	H	-0.395968	-1.065870	-0.254740
H359	H	-0.062635	-0.732537	0.078593
H360	H	0.270699	-0.399204	0.411927
O361	O	-0.516643	-1.095766	-0.291798
O362	O	-0.183310	-0.762433	0.041535
O363	O	0.150024	-0.429100	0.374868
H364	H	-0.539813	-1.130096	-0.324732
H365	H	-0.206480	-0.796762	0.008601
H366	H	0.126854	-0.463429	0.341935
H367	H	-0.314315	-0.900149	-0.777849
H368	H	0.019018	-0.566816	-0.444516
H369	H	0.352351	-0.233482	-0.111183
O370	O	-0.317869	-0.894356	-0.634822
O371	O	0.015464	-0.561022	-0.301489
O372	O	0.348797	-0.227689	0.031845
H373	H	-0.295872	-0.860132	-0.599956
H374	H	0.037462	-0.526799	-0.266623
H375	H	0.370795	-0.193466	0.066710
O376	O	-0.732570	-1.142629	-0.248953
O377	O	-0.399237	-0.809296	0.084381
O378	O	-0.065904	-0.475962	0.417714
H379	H	-0.708436	-1.175131	-0.219132
H380	H	-0.375102	-0.841798	0.114202
H381	H	-0.041769	-0.508465	0.447535
O382	O	-0.309013	-0.737394	-0.462994
O383	O	0.024321	-0.404061	-0.129661
O384	O	0.357654	-0.070728	0.203672
H385	H	-0.290814	-0.769260	-0.500135
H386	H	0.042520	-0.435926	-0.166801
H387	H	0.375853	-0.102593	0.166532
O388	O	-0.186287	-1.109442	-0.975594
O389	O	0.147046	-0.776109	-0.642260
O390	O	0.480380	-0.442775	-0.308927
H391	H	-0.151050	-1.096866	-0.989142
H392	H	0.182284	-0.763532	-0.655809
H393	H	0.515617	-0.430199	-0.322475
O394	O	-0.210840	-1.069308	-0.862216
O395	O	0.122493	-0.735974	-0.528883
O396	O	0.455827	-0.402641	-0.195550
H397	H	-0.186224	-1.039382	-0.827521
H398	H	0.147110	-0.706048	-0.494188
H399	H	0.480443	-0.372715	-0.160854
H400	H	-0.997716	-1.083616	-0.303206
H401	H	-0.664382	-0.750283	0.030127
H402	H	-0.331049	-0.416949	0.363461
H403	H	-0.192191	-0.735202	-0.288370
H404	H	0.141142	-0.401868	0.044964
H405	H	0.474476	-0.068535	0.378297
H406	H	-1.082840	-1.083654	-0.303228
H407	H	-0.749506	-0.750321	0.030105
H408	H	-0.416173	-0.416988	0.363438
O409	O	-1.088657	-0.901567	-0.470153
O410	O	-0.755324	-0.568234	-0.136820
O411	O	-0.421991	-0.234900	0.196514
H412	H	-1.064391	-0.869040	-0.499969
H413	H	-0.731058	-0.535706	-0.166635
H414	H	-0.397725	-0.202373	0.166698
H415	H	-0.197241	-1.091512	-1.117593
H416	H	0.136093	-0.758179	-0.784260
H417	H	0.469426	-0.424846	-0.450927
O418	O	-0.731970	-0.854646	-0.513003
O419	O	-0.398636	-0.521313	-0.179669
O420	O	-0.065303	-0.187980	0.153664
H421	H	-0.707701	-0.822123	-0.542818
H422	H	-0.374368	-0.488790	-0.209484
H423	H	-0.041035	-0.155457	0.123849
O424	O	-0.516261	-0.901297	-0.470062
O425	O	-0.182927	-0.567964	-0.136728
O426	O	0.150406	-0.234631	0.196605
H427	H	-0.491997	-0.868764	-0.499876
H428	H	-0.158664	-0.535430	-0.166542
H429	H	0.174670	-0.202097	0.166791
H430	H	-0.424957	-0.913613	-0.458707
H431	H	-0.091623	-0.580280	-0.125373
H432	H	0.241710	-0.246946	0.207960
O433	O	-0.775806	-1.142662	-0.248974
O434	O	-0.442473	-0.809329	0.084359
O435	O	-0.109140	-0.475995	0.417693
H436	H	-0.800075	-1.175199	-0.219172
H437	H	-0.466741	-0.841865	0.114162
H438	H	-0.133408	-0.508532	0.447495
H439	H	-0.867104	-1.130334	-0.260323
H440	H	-0.533771	-0.797001	0.073010
H441	H	-0.200437	-0.463667	0.406344
H442	H	-0.781441	-0.867028	-0.501658
H443	H	-0.448108	-0.533695	-0.168324
H444	H	-0.114775	-0.200362	0.165009
O445	O	-0.872728	-0.854713	-0.513011
O446	O	-0.539395	-0.521380	-0.179678
O447	O	-0.206061	-0.188046	0.153655
H448	H	-0.848462	-0.822185	-0.542826
H449	H	-0.515129	-0.488852	-0.209493
H450	H	-0.181795	-0.155518	0.123840
