data_functionalizedCrystal
_audit_creation_method	'MofGen! by Chris Wilmer'
_symmetry_space_group_name_H-M	'P1'
_symmetry_Int_Tables_number	1
_symmetry_cell_setting	triclinic
loop_
_symmetry_equiv_pos_as_xyz
  x,y,z
_cell_length_a	14.971486
_cell_length_b	16.974813
_cell_length_c	14.048226
_cell_angle_alpha	86.339005
_cell_angle_beta	89.998499
_cell_angle_gamma	83.504783
loop_
_atom_site_label
_atom_site_type_symbol
_atom_site_fract_x
_atom_site_fract_y
_atom_site_fract_z
O1	O	1.186696	0.103043	-0.086987
O2	O	1.520029	0.436376	0.246346
O3	O	1.853363	0.769710	0.579679
O4	O	0.926266	0.115383	-0.087964
O5	O	1.259599	0.448716	0.245370
O6	O	1.592932	0.782049	0.578703
O7	O	1.063741	-0.005884	-0.078604
O8	O	1.397074	0.327449	0.254729
O9	O	1.730407	0.660783	0.588063
O10	O	1.049221	0.224310	-0.096347
O11	O	1.382554	0.557643	0.236986
O12	O	1.715888	0.890976	0.570319
O13	O	1.063724	-0.005891	0.079718
O14	O	1.397057	0.327442	0.413051
O15	O	1.730391	0.660776	0.746385
O16	O	0.926249	0.115375	0.070358
O17	O	1.259583	0.448709	0.403691
O18	O	1.592916	0.782042	0.737025
O19	O	1.186679	0.103036	0.071334
O20	O	1.520013	0.436369	0.404668
O21	O	1.853346	0.769703	0.738001
Zn22	Zn	1.056462	0.109205	0.095983
Zn23	Zn	1.389795	0.442538	0.429317
Zn24	Zn	1.723128	0.775871	0.762650
Zn25	Zn	1.056484	0.109214	-0.112613
Zn26	Zn	1.389817	0.442547	0.220721
Zn27	Zn	1.723150	0.775881	0.554054
O28	O	1.049205	0.224303	0.061975
O29	O	1.382538	0.557636	0.395308
O30	O	1.715871	0.890969	0.728641
C31	C	0.892934	0.114827	-0.008764
C32	C	1.226268	0.448161	0.324570
C33	C	1.559601	0.781494	0.657903
C34	C	0.793641	0.113173	-0.008646
C35	C	1.126974	0.446507	0.324687
C36	C	1.460308	0.779840	0.658021
C37	C	0.736242	0.184414	-0.014136
C38	C	1.069576	0.517748	0.319197
C39	C	1.402909	0.851081	0.652531
C40	C	0.642947	0.182856	-0.014002
C41	C	0.976280	0.516189	0.319332
C42	C	1.309613	0.849522	0.652665
C43	C	0.607052	0.110056	-0.008384
C44	C	0.940385	0.443389	0.324949
C45	C	1.273718	0.776722	0.658283
C46	C	0.664458	0.038809	-0.002891
C47	C	0.997791	0.372143	0.330442
C48	C	1.331125	0.705476	0.663776
C49	C	0.757752	0.040369	-0.003019
C50	C	1.091085	0.373702	0.330315
C51	C	1.424418	0.707035	0.663648
C52	C	0.470003	0.035564	-0.002628
C53	C	0.803337	0.368897	0.330706
C54	C	1.136670	0.702231	0.664039
C55	C	0.376703	0.034004	-0.002502
C56	C	0.710036	0.367338	0.330832
C57	C	1.043370	0.700671	0.664165
C58	C	0.355198	0.178051	-0.013611
C59	C	0.688532	0.511384	0.319723
C60	C	1.021865	0.844718	0.653056
C61	C	0.448492	0.179611	-0.013738
C62	C	0.781825	0.512944	0.319595
C63	C	1.115159	0.846277	0.652928
C64	C	0.505892	0.108364	-0.008247
C65	C	0.839225	0.441697	0.325086
C66	C	1.172558	0.775031	0.658420
C67	C	1.063180	-0.035347	0.002825
C68	C	1.396513	0.297987	0.336159
C69	C	1.729847	0.631320	0.669492
C70	C	1.061523	-0.123125	0.009585
C71	C	1.394856	0.210208	0.342918
C72	C	1.728190	0.543542	0.676251
C73	C	1.060756	-0.164355	-0.073540
C74	C	1.394089	0.168978	0.259793
C75	C	1.727422	0.502311	0.593126
C76	C	1.059193	-0.246832	-0.067186
C77	C	1.392526	0.086501	0.266147
C78	C	1.725860	0.419835	0.599480
C79	C	1.058404	-0.288078	0.022294
C80	C	1.391738	0.045256	0.355627
C81	C	1.725071	0.378589	0.688960
C82	C	1.059169	-0.246841	0.105425
C83	C	1.392502	0.086492	0.438758
C84	C	1.725836	0.419825	0.772092
C85	C	1.060725	-0.164366	0.099070
C86	C	1.394059	0.168968	0.432403
C87	C	1.727392	0.502301	0.765737
C88	C	1.053743	-0.534744	0.050554
C89	C	1.387076	-0.201411	0.383887
C90	C	1.720410	0.131922	0.717221
C91	C	1.052190	-0.617226	0.056903
C92	C	1.385523	-0.283893	0.390236
C93	C	1.718856	0.049441	0.723569
C94	C	1.052212	-0.617211	-0.115710
C95	C	1.385545	-0.283877	0.217624
C96	C	1.718879	0.049456	0.550957
C97	C	1.053774	-0.534734	-0.122056
C98	C	1.387107	-0.201401	0.211277
C99	C	1.720440	0.131933	0.544610
C100	C	1.054534	-0.493504	-0.038925
C101	C	1.387867	-0.160171	0.294408
C102	C	1.721200	0.173162	0.627741
N103	N	1.056810	-0.372382	0.028791
N104	N	1.390143	-0.039049	0.362124
N105	N	1.723477	0.294284	0.695457
N106	N	1.056121	-0.409200	-0.045423
N107	N	1.389455	-0.075867	0.287910
N108	N	1.722788	0.257466	0.621243
C109	C	1.220011	0.103591	-0.007868
C110	C	1.553344	0.436925	0.325465
C111	C	1.886678	0.770258	0.658799
C112	C	1.319304	0.105245	-0.007992
C113	C	1.652637	0.438578	0.325342
C114	C	1.985971	0.771912	0.658675
C115	C	1.049765	0.253765	-0.019457
C116	C	1.383099	0.587098	0.313876
C117	C	1.716432	0.920432	0.647210
C118	C	1.051422	0.341544	-0.026222
C119	C	1.384756	0.674877	0.307111
C120	C	1.718089	1.008210	0.640444
N121	N	1.056453	0.109198	0.238344
N122	N	1.389787	0.442531	0.571678
N123	N	1.723120	0.775864	0.905011
N124	N	1.056499	0.109215	-0.254973
N125	N	1.389832	0.442548	0.078360
N126	N	1.723166	0.775881	0.411693
C127	C	1.117346	0.055523	0.292305
C128	C	1.450680	0.388856	0.625639
C129	C	1.784013	0.722190	0.958972
C130	C	1.117352	0.055523	0.391963
C131	C	1.450686	0.388856	0.725296
C132	C	1.784019	0.722189	1.058630
C133	C	1.056469	0.109201	0.437658
C134	C	1.389802	0.442534	0.770991
C135	C	1.723136	0.775868	1.104324
C136	C	0.995570	0.162878	0.383690
C137	C	1.328903	0.496212	0.717023
C138	C	1.662236	0.829545	1.050356
C139	C	0.995560	0.162874	0.284034
C140	C	1.328893	0.496208	0.617367
C141	C	1.662227	0.829541	0.950701
C142	C	0.995596	0.162884	0.591403
C143	C	1.328929	0.496217	0.924737
C144	C	1.662262	0.829551	1.258070
C145	C	0.995606	0.162889	0.691066
C146	C	1.328939	0.496223	1.024399
C147	C	1.662273	0.829556	1.357732
C148	C	1.117388	0.055532	0.699332
C149	C	1.450721	0.388866	1.032666
C150	C	1.784055	0.722199	1.365999
C151	C	1.117378	0.055528	0.599677
C152	C	1.450712	0.388862	0.933010
C153	C	1.784045	0.722195	1.266343
C154	C	1.056480	0.109207	0.545716
C155	C	1.389813	0.442540	0.879049
C156	C	1.723146	0.775873	1.212382
H157	H	0.477714	0.238891	-0.018322
H158	H	0.811048	0.572224	0.315012
H159	H	1.144381	0.905557	0.648345
H160	H	0.946028	0.206599	0.728265
H161	H	1.279361	0.539933	1.061598
H162	H	1.612694	0.873266	1.394932
H163	H	0.946002	0.206592	0.547471
H164	H	1.279336	0.539926	0.880805
H165	H	1.612669	0.873259	1.214138
H166	H	1.051543	-0.650806	0.129772
H167	H	1.384876	-0.317472	0.463105
H168	H	1.718209	0.015861	0.796438
H169	H	0.635225	-0.020466	0.001697
H170	H	0.968558	0.312867	0.335030
H171	H	1.301892	0.646201	0.668363
H172	H	1.061403	-0.130780	-0.146405
H173	H	1.394736	0.202554	0.186929
H174	H	1.728069	0.535887	0.520262
H175	H	0.945993	0.206582	0.420900
H176	H	1.279326	0.539915	0.754233
H177	H	1.612660	0.873249	1.087567
N178	N	0.581079	0.259718	-0.019907
N179	N	0.914412	0.593051	0.313427
N180	N	1.247745	0.926384	0.646760
H181	H	0.541874	0.262317	-0.078784
H182	H	0.875207	0.595651	0.254549
H183	H	1.208540	0.928984	0.587883
H184	H	0.541965	0.262247	0.038640
H185	H	0.875299	0.595581	0.371973
H186	H	1.208632	0.928914	0.705307
N187	N	1.054574	-0.490282	0.140213
N188	N	1.387907	-0.156949	0.473546
N189	N	1.721240	0.176384	0.806879
H190	H	1.053845	-0.528929	0.197859
H191	H	1.387178	-0.195596	0.531193
H192	H	1.720512	0.137737	0.864526
H193	H	1.110642	-0.462421	0.141827
H194	H	1.443976	-0.129088	0.475161
H195	H	1.777309	0.204245	0.808494
H196	H	0.804486	-0.017643	0.001451
H197	H	1.137819	0.315690	0.334785
H198	H	1.471152	0.649024	0.668118
N199	N	1.058494	-0.291317	-0.156841
N200	N	1.391827	0.042016	0.176492
N201	N	1.725161	0.375349	0.509826
H202	H	1.059279	-0.252679	-0.214489
H203	H	1.392612	0.080654	0.118844
H204	H	1.725946	0.413988	0.452177
H205	H	1.113313	-0.331854	-0.157371
H206	H	1.446647	0.001479	0.175963
H207	H	1.779980	0.334813	0.509296
H208	H	0.308458	0.236063	-0.018078
H209	H	0.641792	0.569396	0.315255
H210	H	0.975125	0.902729	0.648589
N211	N	1.058327	-0.291324	0.201938
N212	N	1.391661	0.042009	0.535271
N213	N	1.724994	0.375342	0.868604
H214	H	1.057233	-0.349830	0.193352
H215	H	1.390567	-0.016497	0.526685
H216	H	1.723900	0.316837	0.860018
H217	H	1.114022	-0.283260	0.238998
H218	H	1.447355	0.050073	0.572332
H219	H	1.780688	0.383407	0.905665
H220	H	1.054417	-0.501157	-0.194921
H221	H	1.387750	-0.167824	0.138413
H222	H	1.721084	0.165509	0.471746
H223	H	1.166958	0.011823	0.562472
H224	H	1.500291	0.345156	0.895806
H225	H	1.833625	0.678490	1.229139
H226	H	0.347481	-0.025276	0.002074
H227	H	0.680814	0.308057	0.335407
H228	H	1.014147	0.641391	0.668740
H229	H	1.061337	-0.130796	0.166759
H230	H	1.394671	0.202538	0.500093
H231	H	1.728004	0.535871	0.833426
N232	N	1.183080	-0.002351	0.757536
N233	N	1.516413	0.330982	1.090870
N234	N	1.849747	0.664316	1.424203
H235	H	1.246539	0.006868	0.739471
H236	H	1.579872	0.340202	1.072804
H237	H	1.913206	0.673535	1.406138
H238	H	1.173765	0.005834	0.827578
H239	H	1.507098	0.339168	1.160912
H240	H	1.840431	0.672501	1.494245
N241	N	0.929879	0.220762	0.225829
N242	N	1.263212	0.554095	0.559162
N243	N	1.596545	0.887428	0.892495
H244	H	0.891310	0.254768	0.269896
H245	H	1.224644	0.588102	0.603229
H246	H	1.557977	0.921435	0.936563
H247	H	0.964066	0.255768	0.181769
H248	H	1.297400	0.589101	0.515102
H249	H	1.630733	0.922435	0.848436
H250	H	0.516736	-0.022453	0.001845
H251	H	0.850070	0.310881	0.335179
H252	H	1.183403	0.644214	0.668512
H253	H	1.166935	0.011816	0.435898
H254	H	1.500269	0.345149	0.769231
H255	H	1.833602	0.678483	1.102565
N256	N	0.774954	0.262935	-0.020206
N257	N	1.108288	0.596269	0.313127
N258	N	1.441621	0.929602	0.646461
H259	H	0.724432	0.307829	-0.023663
H260	H	1.057765	0.641162	0.309671
H261	H	1.391099	0.974496	0.643004
H262	H	0.813199	0.266720	0.038189
H263	H	1.146532	0.600054	0.371522
H264	H	1.479865	0.933387	0.704856
H265	H	1.051592	-0.650789	-0.183390
H266	H	1.384925	-0.317455	0.149943
H267	H	1.718258	0.015878	0.483277
H268	H	1.166928	0.011815	0.255108
H269	H	1.500262	0.345148	0.588441
H270	H	1.833595	0.678482	0.921774
