data_functionalizedCrystal
_audit_creation_method	'MofGen! by Chris Wilmer'
_symmetry_space_group_name_H-M	'P1'
_symmetry_Int_Tables_number	1
_symmetry_cell_setting	triclinic
loop_
_symmetry_equiv_pos_as_xyz
  x,y,z
_cell_length_a	27.732048
_cell_length_b	27.732048
_cell_length_c	26.210047
_cell_angle_alpha	90.000479
_cell_angle_beta	89.996535
_cell_angle_gamma	97.357345
loop_
_atom_site_label
_atom_site_type_symbol
_atom_site_fract_x
_atom_site_fract_y
_atom_site_fract_z
O1	O	0.640931	-0.057510	-0.042369
O2	O	0.974264	0.275823	0.290965
O3	O	1.307598	0.609157	0.624298
O4	O	0.500138	-0.066256	-0.042385
O5	O	0.833471	0.267078	0.290948
O6	O	1.166804	0.600411	0.624282
O7	O	0.574907	0.008514	-0.042367
O8	O	0.908240	0.341847	0.290967
O9	O	1.241574	0.675181	0.624300
O10	O	0.566162	-0.132279	-0.042387
O11	O	0.899495	0.201054	0.290946
O12	O	1.232828	0.534387	0.624280
O13	O	0.574893	0.008502	0.042491
O14	O	0.908226	0.341836	0.375825
O15	O	1.241559	0.675169	0.709158
O16	O	0.500123	-0.066267	0.042473
O17	O	0.833457	0.267066	0.375806
O18	O	1.166790	0.600399	0.709140
O19	O	0.640917	-0.057522	0.042489
O20	O	0.974250	0.275812	0.375823
O21	O	1.307583	0.609145	0.709156
Cu22	Cu	0.570519	-0.061896	0.050229
Cu23	Cu	0.903852	0.271438	0.383563
Cu24	Cu	1.237185	0.604771	0.716896
Cu25	Cu	0.570536	-0.061882	-0.050125
Cu26	Cu	0.903869	0.271452	0.283208
Cu27	Cu	1.237202	0.604785	0.616542
O28	O	0.566147	-0.132291	0.042471
O29	O	0.899481	0.201042	0.375804
O30	O	1.232814	0.534375	0.709138
C31	C	0.482124	-0.066078	0.000042
C32	C	0.815457	0.267256	0.333376
C33	C	1.148790	0.600589	0.666709
C34	C	0.428469	-0.065525	0.000036
C35	C	0.761802	0.267808	0.333370
C36	C	1.095135	0.601142	0.666703
C37	C	0.089654	-0.106229	0.000053
C38	C	0.422987	0.227105	0.333386
C39	C	0.756320	0.560438	0.666719
C40	C	-0.112006	-0.104178	0.000057
C41	C	0.221327	0.229156	0.333391
C42	C	0.554661	0.562489	0.666724
O43	O	-0.143262	-0.141398	0.000074
O44	O	0.190072	0.191935	0.333408
O45	O	0.523405	0.525268	0.666741
N46	N	-0.131130	-0.059843	0.000063
N47	N	0.202204	0.273491	0.333396
N48	N	0.535537	0.606824	0.666730
C49	C	-0.099835	-0.016017	0.000071
C50	C	0.233498	0.317316	0.333404
C51	C	0.566832	0.650650	0.666737
O52	O	-0.120728	0.021740	0.000081
O53	O	0.212605	0.355073	0.333414
O54	O	0.545938	0.688407	0.666747
C55	C	0.101824	-0.018068	0.000069
C56	C	0.435157	0.315265	0.333403
C57	C	0.768490	0.648598	0.666736
C58	C	0.120944	-0.062407	0.000059
C59	C	0.454278	0.270927	0.333392
C60	C	0.787611	0.604260	0.666725
C61	C	0.108775	-0.150563	0.000043
C62	C	0.442108	0.182770	0.333376
C63	C	0.775442	0.516103	0.666709
C64	C	0.159187	-0.151076	0.000039
C65	C	0.492520	0.182258	0.333372
C66	C	0.825853	0.515591	0.666705
C67	C	0.190477	-0.107253	0.000045
C68	C	0.523811	0.226080	0.333378
C69	C	0.857144	0.559413	0.666711
C70	C	0.171356	-0.062919	0.000055
C71	C	0.504690	0.270415	0.333388
C72	C	0.838023	0.603748	0.666721
C73	C	0.133117	0.025757	0.000081
C74	C	0.466451	0.359090	0.333414
C75	C	0.799784	0.692423	0.666747
C76	C	0.183535	0.025240	0.000082
C77	C	0.516868	0.358573	0.333415
C78	C	0.850201	0.691906	0.666748
C79	C	0.202655	-0.019098	0.000071
C80	C	0.535989	0.314235	0.333404
C81	C	0.869322	0.647568	0.666738
C82	C	0.253059	-0.019609	0.000057
C83	C	0.586392	0.313724	0.333390
C84	C	0.919725	0.647058	0.666724
N85	N	0.272183	-0.063944	0.000051
N86	N	0.605516	0.269389	0.333385
N87	N	0.938849	0.602723	0.666718
C88	C	0.240892	-0.107766	0.000045
C89	C	0.574225	0.225567	0.333379
C90	C	0.907559	0.558900	0.666712
C91	C	-0.205709	-0.014943	0.000070
C92	C	0.127624	0.318390	0.333404
C93	C	0.460957	0.651724	0.666737
C94	C	-0.256124	-0.014430	0.000070
C95	C	0.077210	0.318903	0.333403
C96	C	0.410543	0.652237	0.666736
C97	C	-0.268291	-0.102591	0.000057
C98	C	0.065042	0.230742	0.333391
C99	C	0.398376	0.564076	0.666724
C100	C	-0.217876	-0.103104	0.000054
C101	C	0.115458	0.230230	0.333388
C102	C	0.448791	0.563563	0.666721
C103	C	-0.186585	-0.059278	0.000065
C104	C	0.146748	0.274055	0.333398
C105	C	0.480081	0.607388	0.666731
C106	C	0.346761	-0.108839	0.000036
C107	C	0.680094	0.224495	0.333370
C108	C	1.013428	0.557828	0.666703
C109	C	0.397178	-0.109347	0.000030
C110	C	0.730511	0.223986	0.333364
C111	C	1.063845	0.557319	0.666697
C112	C	0.409341	-0.021186	0.000045
C113	C	0.742674	0.312147	0.333379
C114	C	1.076008	0.645480	0.666712
C115	C	0.358929	-0.020678	0.000049
C116	C	0.692262	0.312656	0.333382
C117	C	1.025595	0.645989	0.666715
C118	C	0.327639	-0.064508	0.000046
C119	C	0.660973	0.268825	0.333379
C120	C	0.994306	0.602159	0.666713
O121	O	0.284343	0.017592	0.000046
O122	O	0.617676	0.350925	0.333379
O123	O	0.951009	0.684259	0.666713
O124	O	0.261794	-0.145518	0.000047
O125	O	0.595128	0.187816	0.333380
O126	O	0.928461	0.521149	0.666713
C127	C	0.039242	-0.105716	0.000057
C128	C	0.372575	0.227617	0.333390
C129	C	0.705908	0.560950	0.666723
C130	C	0.020120	-0.061382	0.000067
C131	C	0.353454	0.271951	0.333400
C132	C	0.686787	0.605285	0.666733
C133	C	0.051411	-0.017560	0.000073
C134	C	0.384744	0.315774	0.333406
C135	C	0.718078	0.649107	0.666740
C136	C	-0.030294	-0.060869	0.000066
C137	C	0.303039	0.272464	0.333399
C138	C	0.636373	0.605798	0.666733
C139	C	-0.061585	-0.104691	0.000060
C140	C	0.271749	0.228642	0.333393
C141	C	0.605082	0.561975	0.666727
C142	C	-0.042461	-0.149026	0.000054
C143	C	0.290872	0.184307	0.333388
C144	C	0.624206	0.517640	0.666721
C145	C	0.007951	-0.149539	0.000050
C146	C	0.341284	0.183795	0.333384
C147	C	0.674618	0.517128	0.666717
C148	C	0.032287	0.026775	0.000078
C149	C	0.365621	0.360109	0.333412
C150	C	0.698954	0.693442	0.666745
C151	C	-0.018125	0.027284	0.000082
C152	C	0.315208	0.360617	0.333415
C153	C	0.648541	0.693951	0.666749
C154	C	-0.049416	-0.016538	0.000076
C155	C	0.283917	0.316795	0.333409
C156	C	0.617251	0.650129	0.666742
C157	C	0.574716	0.026515	0.000064
C158	C	0.908050	0.359848	0.333397
C159	C	1.241383	0.693182	0.666731
C160	C	0.574164	0.080170	0.000068
C161	C	0.907497	0.413503	0.333401
C162	C	1.240830	0.746837	0.666735
C163	C	0.658931	-0.057699	0.000061
C164	C	0.992264	0.275634	0.333394
C165	C	1.325598	0.608967	0.666728
C166	C	0.712586	-0.058252	0.000064
C167	C	1.045919	0.275081	0.333397
C168	C	1.379252	0.608414	0.666730
C169	C	0.566338	-0.150292	0.000040
C170	C	0.899671	0.183041	0.333373
C171	C	1.233005	0.516374	0.666706
C172	C	0.566891	-0.203947	0.000032
C173	C	0.900224	0.129386	0.333365
C174	C	1.233557	0.462720	0.666699
N175	N	0.570510	-0.061905	0.120813
N176	N	0.903844	0.271428	0.454147
N177	N	1.237177	0.604762	0.787480
C178	C	0.614867	0.418985	0.000046
C179	C	0.948201	0.752318	0.333380
C180	C	1.281534	1.085652	0.666713
C181	C	0.612816	0.620645	0.000039
C182	C	0.946150	0.953978	0.333372
C183	C	1.279483	1.287311	0.666706
O184	O	0.650037	0.651900	0.000021
O185	O	0.983370	0.985234	0.333354
O186	O	1.316704	1.318567	0.666688
N187	N	0.568481	0.639768	0.000034
N188	N	0.901814	0.973102	0.333368
N189	N	1.235148	1.306435	0.666701
C190	C	0.524656	0.608474	0.000028
C191	C	0.857989	0.941807	0.333362
C192	C	1.191322	1.275140	0.666695
O193	O	0.486899	0.629367	0.000019
O194	O	0.820232	0.962700	0.333352
O195	O	1.153565	1.296033	0.666686
C196	C	0.526707	0.406815	0.000032
C197	C	0.860040	0.740148	0.333365
C198	C	1.193374	1.073482	0.666699
C199	C	0.571045	0.387694	0.000042
C200	C	0.904378	0.721028	0.333375
C201	C	1.237712	1.054361	0.666709
C202	C	0.659202	0.399864	0.000056
C203	C	0.992535	0.733197	0.333389
C204	C	1.325868	1.066530	0.666722
C205	C	0.659714	0.349452	0.000060
C206	C	0.993047	0.682785	0.333394
C207	C	1.326381	1.016118	0.666727
C208	C	0.615892	0.318161	0.000056
C209	C	0.949225	0.651494	0.333389
C210	C	1.282559	0.984828	0.666722
C211	C	0.571557	0.337282	0.000046
C212	C	0.904891	0.670616	0.333380
C213	C	1.238224	1.003949	0.666713
C214	C	0.482882	0.375521	0.000022
C215	C	0.816215	0.708855	0.333356
C216	C	1.149549	1.042188	0.666689
C217	C	0.483399	0.325104	0.000022
C218	C	0.816732	0.658437	0.333355
C219	C	1.150066	0.991771	0.666689
C220	C	0.527737	0.305983	0.000032
C221	C	0.861070	0.639317	0.333365
C222	C	1.194404	0.972650	0.666698
C223	C	0.528247	0.255580	0.000046
C224	C	0.861581	0.588913	0.333380
C225	C	1.194914	0.922246	0.666713
N226	N	0.572583	0.236456	0.000051
N227	N	0.905916	0.569789	0.333384
N228	N	1.239249	0.903123	0.666718
C229	C	0.616405	0.267747	0.000056
C230	C	0.949738	0.601080	0.333389
C231	C	1.283072	0.934413	0.666722
C232	C	0.523582	0.714348	0.000027
C233	C	0.856915	1.047681	0.333361
C234	C	1.190248	1.381014	0.666694
C235	C	0.523069	0.764762	0.000027
C236	C	0.856402	1.098096	0.333361
C237	C	1.189735	1.431429	0.666694
C238	C	0.611230	0.776930	0.000037
C239	C	0.944563	1.110263	0.333371
C240	C	1.277896	1.443596	0.666704
C241	C	0.611742	0.726514	0.000041
C242	C	0.945075	1.059848	0.333374
C243	C	1.278409	1.393181	0.666708
C244	C	0.567917	0.695224	0.000032
C245	C	0.901250	1.028557	0.333365
C246	C	1.234583	1.361891	0.666699
C247	C	0.617477	0.161878	0.000066
C248	C	0.950811	0.495211	0.333399
C249	C	1.284144	0.828544	0.666733
C250	C	0.617986	0.111461	0.000073
C251	C	0.951319	0.444794	0.333406
C252	C	1.284652	0.778127	0.666739
C253	C	0.529825	0.099298	0.000060
C254	C	0.863158	0.432631	0.333393
C255	C	1.196492	0.765964	0.666727
C256	C	0.529316	0.149710	0.000056
C257	C	0.862650	0.483043	0.333389
C258	C	1.195983	0.816377	0.666723
C259	C	0.573147	0.180999	0.000057
C260	C	0.906480	0.514333	0.333391
C261	C	1.239813	0.847666	0.666724
O262	O	0.491047	0.224296	0.000059
O263	O	0.824380	0.557629	0.333392
O264	O	1.157713	0.890962	0.666725
O265	O	0.654156	0.246844	0.000054
O266	O	0.987490	0.580177	0.333387
O267	O	1.320823	0.913511	0.666720
C268	C	0.614355	0.469397	0.000042
C269	C	0.947688	0.802730	0.333375
C270	C	1.281022	1.136064	0.666709
C271	C	0.570021	0.488518	0.000033
C272	C	0.903354	0.821852	0.333366
C273	C	1.236687	1.155185	0.666699
C274	C	0.526198	0.457228	0.000028
C275	C	0.859532	0.790561	0.333361
C276	C	1.192865	1.123894	0.666695
C277	C	0.569508	0.538933	0.000033
C278	C	0.902841	0.872266	0.333366
C279	C	1.236174	1.205599	0.666699
C280	C	0.613330	0.570223	0.000037
C281	C	0.946663	0.903557	0.333371
C282	C	1.279996	1.236890	0.666704
C283	C	0.657665	0.551100	0.000042
C284	C	0.990998	0.884433	0.333375
C285	C	1.324332	1.217766	0.666709
C286	C	0.658177	0.500688	0.000046
C287	C	0.991511	0.834021	0.333380
C288	C	1.324844	1.167354	0.666713
C289	C	0.481863	0.476351	0.000023
C290	C	0.815197	0.809685	0.333357
C291	C	1.148530	1.143018	0.666690
C292	C	0.481355	0.526764	0.000019
C293	C	0.814688	0.860097	0.333353
C294	C	1.148021	1.193430	0.666686
C295	C	0.525177	0.558054	0.000024
C296	C	0.858510	0.891388	0.333357
C297	C	1.191843	1.224721	0.666691
N298	N	0.570548	-0.061868	-0.120709
N299	N	0.903881	0.271465	0.212624
N300	N	1.237215	0.604798	0.545958
C301	C	0.603640	-0.028781	0.473336
C302	C	0.936974	0.304552	0.806669
C303	C	1.270307	0.637885	1.140002
C304	C	0.603651	-0.028774	0.686994
C305	C	0.936984	0.304559	1.020327
C306	C	1.270318	0.637892	1.353661
O307	O	0.631801	-0.000614	0.714623
O308	O	0.965134	0.332720	1.047956
O309	O	1.298467	0.666053	1.381290
N310	N	0.570538	-0.061871	0.713707
N311	N	0.903872	0.271462	1.047041
N312	N	1.237205	0.604796	1.380374
C313	C	0.537419	-0.094970	0.687003
C314	C	0.870752	0.238364	1.020336
C315	C	1.204085	0.571697	1.353669
O316	O	0.509251	-0.123117	0.714626
O317	O	0.842585	0.210216	1.047960
O318	O	1.175918	0.543550	1.381293
C319	C	0.537406	-0.094974	0.473345
C320	C	0.870739	0.238360	0.806678
C321	C	1.204073	0.571693	1.140012
C322	C	0.570524	-0.061878	0.446635
C323	C	0.903857	0.271455	0.779968
C324	C	1.237191	0.604788	1.113301
C325	C	0.636755	0.004312	0.446625
C326	C	0.970088	0.337645	0.779958
C327	C	1.303422	0.670979	1.113292
C328	C	0.636754	0.004308	0.393214
C329	C	0.970087	0.337642	0.726547
C330	C	1.303421	0.670975	1.059880
C331	C	0.603638	-0.028789	0.366513
C332	C	0.936971	0.304545	0.699846
C333	C	1.270304	0.637878	1.033179
C334	C	0.570523	-0.061882	0.393223
C335	C	0.903856	0.271451	0.726556
C336	C	1.237189	0.604785	1.059890
C337	C	0.504284	-0.128070	0.446641
C338	C	0.837618	0.205264	0.779975
C339	C	1.170951	0.538597	1.113308
C340	C	0.504283	-0.128067	0.393223
C341	C	0.837617	0.205266	0.726557
C342	C	1.170950	0.538600	1.059890
C343	C	0.537401	-0.094971	0.366513
C344	C	0.870735	0.238362	0.699846
C345	C	1.204068	0.571695	1.033180
C346	C	0.537405	-0.094983	0.313111
C347	C	0.870739	0.238351	0.646444
C348	C	1.204072	0.571684	0.979777
N349	N	0.570518	-0.061886	0.286397
N350	N	0.903851	0.271447	0.619731
N351	N	1.237185	0.604781	0.953064
C352	C	0.603634	-0.028789	0.313098
C353	C	0.936967	0.304544	0.646432
C354	C	1.270301	0.637878	0.979765
C355	C	0.537428	-0.094966	0.799176
C356	C	0.870762	0.238368	1.132509
C357	C	1.204095	0.571701	1.465843
C358	C	0.537432	-0.094965	0.852590
C359	C	0.870765	0.238368	1.185923
C360	C	1.204099	0.571701	1.519257
C361	C	0.603664	-0.028769	0.852578
C362	C	0.936997	0.304564	1.185911
C363	C	1.270330	0.637897	1.519245
C364	C	0.603662	-0.028773	0.799163
C365	C	0.936995	0.304561	1.132496
C366	C	1.270329	0.637894	1.465829
C367	C	0.570541	-0.061869	0.772463
C368	C	0.903874	0.271464	1.105796
C369	C	1.237207	0.604798	1.439129
C370	C	0.603629	-0.028800	0.200931
C371	C	0.936963	0.304533	0.534264
C372	C	1.270296	0.637867	0.867597
C373	C	0.603626	-0.028808	0.147514
C374	C	0.936960	0.304525	0.480848
C375	C	1.270293	0.637859	0.814181
C376	C	0.537393	-0.095002	0.147531
C377	C	0.870726	0.238331	0.480865
C378	C	1.204060	0.571665	0.814198
C379	C	0.537397	-0.094996	0.200943
C380	C	0.870731	0.238338	0.534276
C381	C	1.204064	0.571671	0.867609
C382	C	0.570517	-0.061891	0.227641
C383	C	0.903851	0.271443	0.560974
C384	C	1.237184	0.604776	0.894308
O385	O	0.509267	-0.123125	0.285449
O386	O	0.842600	0.210208	0.618782
O387	O	1.175933	0.543542	0.952116
O388	O	0.631790	-0.000639	0.285466
O389	O	0.965123	0.332694	0.618799
O390	O	1.298457	0.666028	0.952132
C391	C	0.603641	-0.028777	0.526747
C392	C	0.936975	0.304556	0.860080
C393	C	1.270308	0.637889	1.193414
C394	C	0.570527	-0.061871	0.553457
C395	C	0.903860	0.271463	0.886791
C396	C	1.237193	0.604796	1.220124
C397	C	0.537410	-0.094968	0.526756
C398	C	0.870744	0.238366	0.860090
C399	C	1.204077	0.571699	1.193423
C400	C	0.570530	-0.061870	0.606872
C401	C	0.903864	0.271463	0.940205
C402	C	1.237197	0.604796	1.273538
C403	C	0.603646	-0.028773	0.633573
C404	C	0.936980	0.304560	0.966906
C405	C	1.270313	0.637893	1.300239
C406	C	0.636759	0.004323	0.606859
C407	C	0.970092	0.337657	0.940193
C408	C	1.303426	0.670990	1.273526
C409	C	0.636758	0.004320	0.553448
C410	C	0.970091	0.337653	0.886781
C411	C	1.303424	0.670986	1.220115
C412	C	0.504298	-0.128064	0.553470
C413	C	0.837631	0.205269	0.886803
C414	C	1.170965	0.538602	1.220136
C415	C	0.504302	-0.128058	0.606881
C416	C	0.837635	0.205275	0.940214
C417	C	1.170969	0.538609	1.273548
C418	C	0.537418	-0.094961	0.633582
C419	C	0.870752	0.238372	0.966915
C420	C	1.204085	0.571706	1.300249
H421	H	-0.202311	-0.139207	0.000049
H422	H	0.131022	0.194126	0.333382
H423	H	0.464355	0.527459	0.666715
O424	O	0.635848	0.003425	0.773298
O425	O	0.969182	0.336759	1.106631
O426	O	1.302515	0.670092	1.439964
C427	C	0.665085	0.032625	0.808325
C428	C	0.998419	0.365959	1.141659
C429	C	1.331752	0.699292	1.474992
H430	H	0.645273	0.033031	0.846403
H431	H	0.978606	0.366365	1.179736
H432	H	1.311939	0.699698	1.513069
H433	H	0.672750	0.071282	0.792896
H434	H	1.006083	0.404616	1.126230
H435	H	1.339417	0.737949	1.459563
H436	H	0.700874	0.017176	0.814001
H437	H	1.034208	0.350509	1.147334
H438	H	1.367541	0.683842	1.480667
H439	H	0.477334	-0.155013	0.628625
H440	H	0.810668	0.178321	0.961958
H441	H	1.144001	0.511654	1.295292
O442	O	0.668973	0.036495	0.632723
O443	O	1.002306	0.369829	0.966056
O444	O	1.335640	0.703162	1.299390
C445	C	0.698194	0.065720	0.597699
C446	C	1.031527	0.399053	0.931033
C447	C	1.364861	0.732386	1.264366
H448	H	0.698599	0.045906	0.559623
H449	H	1.031932	0.379239	0.892957
H450	H	1.365266	0.712573	1.226290
H451	H	0.736849	0.073365	0.613136
H452	H	1.070182	0.406699	0.946469
H453	H	1.403515	0.740032	1.279802
H454	H	0.682765	0.101519	0.592018
H455	H	1.016098	0.434852	0.925351
H456	H	1.349431	0.768186	1.258685
O457	O	0.439248	0.446028	0.000045
O458	O	0.772581	0.779361	0.333378
O459	O	1.105914	1.112695	0.666711
C460	C	0.400012	0.473724	0.000026
C461	C	0.733345	0.807057	0.333360
C462	C	1.066678	1.140391	0.666693
H463	H	0.412573	0.511446	0.016087
H464	H	0.745907	0.844779	0.349421
H465	H	1.079240	1.178112	0.682754
H466	H	0.369326	0.454909	0.024664
H467	H	0.702660	0.788243	0.357998
H468	H	1.035993	1.121576	0.691331
H469	H	0.386408	0.477212	-0.040685
H470	H	0.719741	0.810545	0.292648
H471	H	1.053074	1.143879	0.625981
H472	H	0.343360	0.015426	0.000050
H473	H	0.676693	0.348759	0.333383
H474	H	1.010027	0.682093	0.666717
O475	O	0.439810	0.021336	0.000075
O476	O	0.773143	0.354669	0.333409
O477	O	1.106477	0.688003	0.666742
C478	C	0.488406	0.011371	0.000060
C479	C	0.821739	0.344704	0.333393
C480	C	1.155072	0.678037	0.666727
H481	H	0.490055	-0.026587	0.016115
H482	H	0.823388	0.306746	0.349448
H483	H	1.156721	0.640080	0.682781
H484	H	0.511453	0.039318	0.024705
H485	H	0.844786	0.372652	0.358038
H486	H	1.178120	0.705985	0.691371
H487	H	0.503004	0.013323	-0.040650
H488	H	0.836338	0.346657	0.292683
H489	H	1.169671	0.679990	0.626017
O490	O	0.177819	-0.194113	0.000093
O491	O	0.511153	0.139220	0.333426
O492	O	0.844486	0.472554	0.666760
C493	C	0.206608	-0.197065	0.044044
C494	C	0.539941	0.136268	0.377377
C495	C	0.873274	0.469601	0.710710
H496	H	0.219444	-0.158875	0.058707
H497	H	0.552777	0.174458	0.392040
H498	H	0.886111	0.507792	0.725374
H499	H	0.239483	-0.216080	0.034149
H500	H	0.572817	0.117254	0.367483
H501	H	0.906150	0.450587	0.700816
H502	H	0.184175	-0.218629	0.074814
H503	H	0.517509	0.114704	0.408147
H504	H	0.850842	0.448038	0.741481
O505	O	0.472065	-0.160237	0.472500
O506	O	0.805399	0.173097	0.805833
O507	O	1.138732	0.506430	1.139167
C508	C	0.442847	-0.189450	0.437469
C509	C	0.776180	0.143883	0.770802
C510	C	1.109513	0.477216	1.104135
H511	H	0.442456	-0.169631	0.399395
H512	H	0.775790	0.163703	0.732729
H513	H	1.109123	0.497036	1.066062
H514	H	0.404187	-0.197088	0.452899
H515	H	0.737521	0.136245	0.786232
H516	H	1.070854	0.469578	1.119565
H517	H	0.458268	-0.225254	0.431785
H518	H	0.791601	0.108080	0.765118
H519	H	1.124935	0.441413	1.098452
O520	O	0.415810	-0.152388	0.000085
O521	O	0.749144	0.180945	0.333419
O522	O	1.082477	0.514279	0.666752
C523	C	0.444600	-0.155338	0.044036
C524	C	0.777933	0.177996	0.377369
C525	C	1.111267	0.511329	0.710702
H526	H	0.457436	-0.117146	0.058697
H527	H	0.790770	0.216187	0.392030
H528	H	1.124103	0.549520	0.725363
H529	H	0.477476	-0.174352	0.034142
H530	H	0.810809	0.158982	0.367475
H531	H	1.144143	0.492315	0.700808
H532	H	0.422169	-0.176900	0.074808
H533	H	0.755502	0.156433	0.408141
H534	H	1.088836	0.489767	0.741474
H535	H	0.445246	0.542327	0.000016
H536	H	0.778580	0.875660	0.333349
H537	H	1.111913	1.208993	0.666682
O538	O	0.213861	0.067857	0.000066
O539	O	0.547194	0.401191	0.333400
O540	O	0.880527	0.734524	0.666733
C541	C	0.186168	0.107096	0.000088
C542	C	0.519502	0.440430	0.333422
C543	C	0.852835	0.773763	0.666755
H544	H	0.148448	0.094539	-0.015976
H545	H	0.481781	0.427872	0.317358
H546	H	0.815114	0.761206	0.650691
H547	H	0.204988	0.137782	-0.024544
H548	H	0.538322	0.471116	0.308789
H549	H	0.871655	0.804449	0.642122
H550	H	0.182677	0.120698	0.040802
H551	H	0.516010	0.454031	0.374135
H552	H	0.849343	0.787365	0.707469
O553	O	0.026441	-0.192652	0.000066
O554	O	0.359774	0.140682	0.333399
O555	O	0.693107	0.474015	0.666733
C556	C	-0.011996	-0.231215	0.000049
C557	C	0.321338	0.102119	0.333382
C558	C	0.654671	0.435452	0.666716
H559	H	-0.046147	-0.217922	0.016117
H560	H	0.287186	0.115411	0.349450
H561	H	0.620520	0.448744	0.682783
H562	H	-0.001693	-0.262198	0.024681
H563	H	0.331641	0.071136	0.358014
H564	H	0.664974	0.404469	0.691348
H565	H	-0.019228	-0.244708	-0.040664
H566	H	0.314105	0.088625	0.292670
H567	H	0.647438	0.421959	0.626003
H568	H	0.487892	0.688875	0.000020
H569	H	0.821225	1.022208	0.333354
H570	H	1.154558	1.355542	0.666687
H571	H	0.510434	-0.121950	0.222691
H572	H	0.843768	0.211384	0.556024
H573	H	1.177101	0.544717	0.889357
H574	H	0.083302	-0.186251	0.000039
H575	H	0.416636	0.147083	0.333373
H576	H	0.749969	0.480416	0.666706
O577	O	-0.072911	-0.191564	-0.000019
O578	O	0.260423	0.141769	0.333314
O579	O	0.593756	0.475102	0.666647
C580	C	-0.102428	-0.193902	-0.043973
C581	C	0.230906	0.139431	0.289361
C582	C	0.564239	0.472764	0.622694
H583	H	-0.104690	-0.155551	-0.058620
H584	H	0.228643	0.177782	0.274713
H585	H	0.561976	0.511115	0.608046
H586	H	-0.140457	-0.212192	-0.034088
H587	H	0.192876	0.121141	0.299246
H588	H	0.526210	0.454474	0.632579
H589	H	-0.086005	-0.215853	-0.074751
H590	H	0.247328	0.117480	0.258583
H591	H	0.580662	0.450814	0.591916
H592	H	0.477330	-0.155015	0.531734
H593	H	0.810663	0.178318	0.865067
H594	H	1.143997	0.511651	1.198400
H595	H	0.321291	-0.144530	0.000036
H596	H	0.654624	0.188804	0.333369
H597	H	0.987957	0.522137	0.666703
O598	O	0.653755	0.807399	0.000015
O599	O	0.987088	1.140732	0.333348
O600	O	1.320422	1.474065	0.666681
C601	C	0.643789	0.855994	0.000025
C602	C	0.977122	1.189327	0.333358
C603	C	1.310456	1.522661	0.666691
H604	H	0.605835	0.857643	-0.016038
H605	H	0.939168	1.190976	0.317295
H606	H	1.272501	1.524309	0.650628
H607	H	0.671742	0.879042	-0.024616
H608	H	1.005075	1.212376	0.308718
H609	H	1.338409	1.545709	0.642051
H610	H	0.645731	0.870592	0.040734
H611	H	0.979065	1.203925	0.374067
H612	H	1.312398	1.537259	0.707401
H613	H	0.693347	0.576585	0.000048
H614	H	1.026680	0.909919	0.333381
H615	H	1.360013	1.243252	0.666715
O616	O	-0.298671	-0.145174	-0.000036
O617	O	0.034662	0.188160	0.333297
O618	O	0.367995	0.521493	0.666630
C619	C	-0.290048	-0.172123	-0.043979
C620	C	0.043285	0.161211	0.289355
C621	C	0.376618	0.494544	0.622688
H622	H	-0.272625	-0.146474	-0.074697
H623	H	0.060708	0.186859	0.258636
H624	H	0.394042	0.520192	0.591969
H625	H	-0.325965	-0.191776	-0.058729
H626	H	0.007368	0.141558	0.274604
H627	H	0.340702	0.474891	0.607937
H628	H	-0.264584	-0.199909	-0.034043
H629	H	0.068750	0.133424	0.299290
H630	H	0.402083	0.466758	0.632623
O631	O	0.635704	0.003417	0.121545
O632	O	0.969038	0.336750	0.454878
O633	O	1.302371	0.670084	0.788211
C634	C	0.609993	0.033062	0.090704
C635	C	0.943326	0.366395	0.424037
C636	C	1.276660	0.699729	0.757371
H637	H	0.572052	0.013499	0.082672
H638	H	0.905385	0.346833	0.416005
H639	H	1.238718	0.680166	0.749339
H640	H	0.630225	0.040934	0.053155
H641	H	0.963558	0.374268	0.386488
H642	H	1.296892	0.707601	0.719821
H643	H	0.606911	0.068724	0.111345
H644	H	0.940245	0.402057	0.444678
H645	H	1.273578	0.735391	0.778012
H646	H	-0.033688	0.063392	0.000086
H647	H	0.299645	0.396725	0.333420
H648	H	0.632979	0.730059	0.666753
H649	H	-0.180236	0.020747	0.000079
H650	H	0.153097	0.354080	0.333412
H651	H	0.486430	0.687414	0.666745
O652	O	-0.274614	0.028683	0.000097
O653	O	0.058719	0.362016	0.333430
O654	O	0.392053	0.695349	0.666763
C655	C	-0.236179	0.067248	0.000090
C656	C	0.097154	0.400581	0.333424
C657	C	0.430487	0.733914	0.666757
H658	H	-0.202029	0.053953	0.016153
H659	H	0.131304	0.387286	0.349486
H660	H	0.464637	0.720620	0.682820
H661	H	-0.246488	0.098223	0.024732
H662	H	0.086846	0.431556	0.358065
H663	H	0.420179	0.764890	0.691399
H664	H	-0.228942	0.080752	-0.040618
H665	H	0.104391	0.414086	0.292715
H666	H	0.437724	0.747419	0.626048
O667	O	0.062611	0.069391	0.000060
O668	O	0.395944	0.402724	0.333393
O669	O	0.729277	0.736058	0.666727
C670	C	0.034915	0.108627	0.000079
C671	C	0.368248	0.441960	0.333413
C672	C	0.701581	0.775294	0.666746
H673	H	-0.002806	0.096065	-0.015983
H674	H	0.330528	0.429399	0.317350
H675	H	0.663861	0.762732	0.650683
H676	H	0.053731	0.139312	-0.024556
H677	H	0.387065	0.472646	0.308777
H678	H	0.720398	0.805979	0.642110
H679	H	0.031423	0.122231	0.040792
H680	H	0.364756	0.455565	0.374125
H681	H	0.698090	0.788898	0.707458
H682	H	0.654093	0.095896	0.000082
H683	H	0.987426	0.429229	0.333415
H684	H	1.320759	0.762562	0.666749
O685	O	0.472176	-0.160239	0.367232
O686	O	0.805509	0.173094	0.700565
O687	O	1.138842	0.506428	1.033898
C688	C	0.497834	-0.189896	0.336344
C689	C	0.831167	0.143437	0.669678
C690	C	1.164501	0.476770	1.003011
H691	H	0.535802	-0.170385	0.328335
H692	H	0.869135	0.162948	0.661668
H693	H	1.202469	0.496281	0.995002
H694	H	0.477598	-0.197686	0.298787
H695	H	0.810931	0.135647	0.632120
H696	H	1.144265	0.468981	0.965453
H697	H	0.500849	-0.225598	0.356933
H698	H	0.834182	0.107735	0.690267
H699	H	1.167516	0.441069	1.023600
O700	O	0.505218	-0.127136	0.878454
O701	O	0.838551	0.206197	1.211788
O702	O	1.171884	0.539530	1.545121
C703	C	0.475998	-0.156353	0.843427
C704	C	0.809331	0.176980	1.176760
C705	C	1.142664	0.510313	1.510093
H706	H	0.475603	-0.136536	0.805352
H707	H	0.808936	0.196798	1.138686
H708	H	1.142269	0.530131	1.472019
H709	H	0.437340	-0.163993	0.858860
H710	H	0.770673	0.169340	1.192194
H711	H	1.104006	0.502674	1.525527
H712	H	0.491421	-0.192156	0.837743
H713	H	0.824754	0.141178	1.171076
H714	H	1.158088	0.474511	1.504410
H715	H	0.510432	-0.121951	0.125783
H716	H	0.843765	0.211383	0.459116
H717	H	1.177098	0.544716	0.792450
H718	H	0.510456	-0.121918	0.777440
H719	H	0.843790	0.211415	1.110774
H720	H	1.177123	0.544748	1.444107
H721	H	0.653168	0.187348	0.000065
H722	H	0.986501	0.520681	0.333398
H723	H	1.319835	0.854015	0.666731
O724	O	0.701235	0.482094	0.000142
O725	O	1.034568	0.815427	0.333475
O726	O	1.367902	1.148761	0.666809
C727	C	0.704164	0.453288	0.044085
C728	C	1.037498	0.786621	0.377418
C729	C	1.370831	1.119954	0.710751
H730	H	0.678989	0.465023	0.074801
H731	H	1.012323	0.798356	0.408134
H732	H	1.345656	1.131689	0.741467
H733	H	0.743154	0.458104	0.058839
H734	H	1.076488	0.791438	0.392173
H735	H	1.409821	1.124771	0.725506
H736	H	0.692718	0.413444	0.034148
H737	H	1.026052	0.746777	0.367481
H738	H	1.359385	1.080110	0.700815
O739	O	0.702797	0.330906	-0.000026
O740	O	1.036131	0.664239	0.333308
O741	O	1.369464	0.997573	0.666641
C742	C	0.729495	0.346943	-0.043967
C743	C	1.062829	0.680276	0.289367
C744	C	1.396162	1.013609	0.622700
H745	H	0.703563	0.357235	-0.074686
H746	H	1.036896	0.690569	0.258648
H747	H	1.370230	1.023902	0.591981
H748	H	0.749836	0.316554	-0.058717
H749	H	1.083169	0.649887	0.274616
H750	H	1.416503	0.983220	0.607949
H751	H	0.756675	0.380005	-0.034029
H752	H	1.090008	0.713339	0.299304
H753	H	1.423342	1.046672	0.632638
O754	O	0.114530	0.068816	0.000003
O755	O	0.447863	0.402149	0.333336
O756	O	0.781196	0.735482	0.666670
C757	C	0.085726	0.071764	-0.043937
C758	C	0.419059	0.405097	0.289397
C759	C	0.752392	0.738431	0.622730
H760	H	0.097459	0.046599	-0.074662
H761	H	0.430793	0.379933	0.258671
H762	H	0.764126	0.713266	0.592004
H763	H	0.090546	0.110760	-0.058678
H764	H	0.423880	0.444093	0.274655
H765	H	0.757213	0.777426	0.607989
H766	H	0.045881	0.060318	-0.034001
H767	H	0.379214	0.393651	0.299332
H768	H	0.712547	0.726985	0.632665
H769	H	0.630598	-0.001842	0.222662
H770	H	0.963931	0.331491	0.555996
H771	H	1.297265	0.664825	0.889329
H772	H	0.647846	0.710950	0.000048
H773	H	0.981179	1.044283	0.333382
H774	H	1.314513	1.377617	0.666715
O775	O	0.668873	0.036587	0.367365
O776	O	1.002206	0.369920	0.700698
O777	O	1.335540	0.703253	1.034032
C778	C	0.661300	0.084335	0.380536
C779	C	0.994633	0.417669	0.713870
C780	C	1.327966	0.751002	1.047203
H781	H	0.622575	0.084218	0.395175
H782	H	0.955908	0.417552	0.728509
H783	H	1.289242	0.750885	1.061842
H784	H	0.667059	0.108721	0.345476
H785	H	1.000392	0.442054	0.678809
H786	H	1.333725	0.775387	1.012142
H787	H	0.688140	0.098678	0.411607
H788	H	1.021474	0.432011	0.744940
H789	H	1.354807	0.765345	1.078274
O790	O	0.701762	0.430274	-0.000029
O791	O	1.035095	0.763608	0.333304
O792	O	1.368429	1.096941	0.666637
C793	C	0.704116	0.459812	-0.043970
C794	C	1.037449	0.793145	0.289363
C795	C	1.370783	1.126478	0.622697
H796	H	0.679260	0.441173	-0.074693
H797	H	1.012594	0.774507	0.258640
H798	H	1.345927	1.107840	0.591973
H799	H	0.743100	0.465757	-0.058714
H800	H	1.076433	0.799090	0.274619
H801	H	1.409767	1.132424	0.607953
H802	H	0.691892	0.496389	-0.034035
H803	H	1.025226	0.829722	0.299299
H804	H	1.358559	1.163055	0.632632
O805	O	0.479956	0.783252	0.000001
O806	O	0.813289	1.116586	0.333334
O807	O	1.146623	1.449919	0.666668
C808	C	0.441391	0.744818	0.000009
C809	C	0.774724	1.078151	0.333342
C810	C	1.108058	1.411485	0.666675
H811	H	0.454686	0.710667	-0.016054
H812	H	0.788020	1.044000	0.317280
H813	H	1.121353	1.377333	0.650613
H814	H	0.410417	0.755124	-0.024633
H815	H	0.743750	1.088458	0.308700
H816	H	1.077083	1.421791	0.642033
H817	H	0.427885	0.737584	0.040717
H818	H	0.761218	1.070917	0.374051
H819	H	1.094551	1.404251	0.707384
H820	H	0.446777	0.391080	0.000011
H821	H	0.780111	0.724414	0.333345
H822	H	1.113444	1.057747	0.666678
H823	H	0.447710	0.299629	0.000014
H824	H	0.781043	0.632963	0.333347
H825	H	1.114377	0.966296	0.666681
O826	O	0.668829	0.036553	0.527487
O827	O	1.002162	0.369887	0.860820
O828	O	1.335495	0.703220	1.194153
C829	C	0.643110	0.066201	0.496657
C830	C	0.976443	0.399534	0.829990
C831	C	1.309776	0.732867	1.163323
H832	H	0.605173	0.046630	0.488616
H833	H	0.938507	0.379963	0.821949
H834	H	1.271840	0.713297	1.155283
H835	H	0.663343	0.074092	0.459111
H836	H	0.996676	0.407425	0.792445
H837	H	1.330010	0.740758	1.125778
H838	H	0.640016	0.101853	0.517311
H839	H	0.973349	0.435186	0.850645
H840	H	1.306682	0.768519	1.183978
H841	H	0.663722	0.031266	0.468360
H842	H	0.997056	0.364599	0.801694
H843	H	1.330389	0.697932	1.135027
O844	O	0.486205	0.168206	0.000026
O845	O	0.819538	0.501540	0.333359
O846	O	1.152872	0.834873	0.666692
C847	C	0.447637	0.129775	0.000038
C848	C	0.780970	0.463108	0.333371
C849	C	1.114303	0.796442	0.666704
H850	H	0.460930	0.095619	-0.016017
H851	H	0.794263	0.428953	0.317317
H852	H	1.127597	0.762286	0.650650
H853	H	0.416665	0.140080	-0.024609
H854	H	0.749999	0.473413	0.308724
H855	H	1.083332	0.806747	0.642058
H856	H	0.434128	0.122549	0.040747
H857	H	0.767461	0.455883	0.374080
H858	H	1.100794	0.789216	0.707413
H859	H	0.630629	-0.001821	0.874327
H860	H	0.963962	0.331512	1.207660
H861	H	1.297296	0.664845	1.540994
H862	H	0.494146	0.073812	0.000058
H863	H	0.827480	0.407145	0.333391
H864	H	1.160813	0.740478	0.666725
