data_functionalizedCrystal
_audit_creation_method	'MofGen! by Chris Wilmer'
_symmetry_space_group_name_H-M	'P1'
_symmetry_Int_Tables_number	1
_symmetry_cell_setting	triclinic
loop_
_symmetry_equiv_pos_as_xyz
  x,y,z
_cell_length_a	10.489741
_cell_length_b	10.489741
_cell_length_c	22.610064
_cell_angle_alpha	89.986620
_cell_angle_beta	89.998827
_cell_angle_gamma	95.460826
loop_
_atom_site_label
_atom_site_type_symbol
_atom_site_fract_x
_atom_site_fract_y
_atom_site_fract_z
O1	O	1.694047	-0.179985	0.049148
O2	O	2.194047	0.320015	0.549148
O3	O	1.322851	-0.196878	0.049157
O4	O	1.822851	0.303122	0.549157
O5	O	1.516895	-0.002834	0.049148
O6	O	2.016895	0.497166	0.549148
O7	O	1.500002	-0.374029	0.049156
O8	O	2.000002	0.125971	0.549156
O9	O	1.516892	-0.002793	-0.049221
O10	O	2.016892	0.497207	0.450779
O11	O	1.322848	-0.196837	-0.049212
O12	O	1.822848	0.303163	0.450788
O13	O	1.694044	-0.179945	-0.049222
O14	O	2.194044	0.320055	0.450778
Zn15	Zn	1.508446	-0.188385	-0.064835
Zn16	Zn	2.008446	0.311615	0.435165
Zn17	Zn	1.508449	-0.188438	0.064770
Zn18	Zn	2.008449	0.311562	0.564770
O19	O	1.500000	-0.373989	-0.049213
O20	O	2.000000	0.126011	0.450787
C21	C	1.275318	-0.195582	-0.000027
C22	C	1.775318	0.304418	0.499973
C23	C	1.133688	-0.191765	-0.000023
C24	C	1.633688	0.308235	0.499977
C25	C	1.065548	-0.068300	-0.000031
C26	C	1.565548	0.431700	0.499969
C27	C	0.973423	-0.126643	0.048470
C28	C	1.473423	0.373357	0.548470
C29	C	0.973454	-0.126633	-0.048514
C30	C	1.473454	0.373367	0.451486
C31	C	1.043428	-0.250159	0.048518
C32	C	1.543428	0.249841	0.548518
C33	C	1.043469	-0.250131	-0.048510
C34	C	1.543469	0.249869	0.451490
C35	C	0.951371	-0.308564	0.000003
C36	C	1.451371	0.191436	0.500003
C37	C	1.515618	0.044718	-0.000036
C38	C	2.015618	0.544718	0.499964
C39	C	1.511801	0.186348	-0.000035
C40	C	2.011801	0.686348	0.499965
C41	C	1.741577	-0.181241	-0.000037
C42	C	2.241577	0.318759	0.499963
C43	C	1.883206	-0.185058	-0.000036
C44	C	2.383206	0.314942	0.499964
N45	N	1.508452	-0.188347	-0.153288
N46	N	2.008452	0.311653	0.346712
C47	C	1.501277	-0.421541	-0.000028
C48	C	2.001277	0.078459	0.499972
C49	C	1.505094	-0.563170	-0.000025
C50	C	2.005094	-0.063170	0.499975
C51	C	1.388336	0.254488	-0.000027
C52	C	1.888336	0.754488	0.499973
C53	C	1.446658	0.346630	-0.048530
C54	C	1.946658	0.846630	0.451470
C55	C	1.446690	0.346565	0.048455
C56	C	1.946690	0.846565	0.548455
C57	C	1.570174	0.276625	-0.048577
C58	C	2.070174	0.776625	0.451423
C59	C	1.570189	0.276550	0.048451
C60	C	2.070189	0.776550	0.548451
C61	C	1.628600	0.368665	-0.000064
C62	C	2.128600	0.868665	0.499936
N63	N	1.508452	-0.188465	0.153223
N64	N	2.008452	0.311535	0.653223
C65	C	1.586382	-0.266691	0.438066
C66	C	2.086382	0.233309	0.938066
C67	C	1.586383	-0.266699	0.376147
C68	C	2.086383	0.233301	0.876147
O69	O	1.652669	-0.333245	0.344124
O70	O	2.152669	0.166755	0.844124
N71	N	1.508471	-0.188425	0.345175
N72	N	2.008471	0.311575	0.845175
C73	C	1.430564	-0.110128	0.376127
C74	C	1.930564	0.389872	0.876127
O75	O	1.364295	-0.043550	0.344098
O76	O	1.864295	0.456450	0.844098
C77	C	1.430571	-0.110114	0.438046
C78	C	1.930571	0.389886	0.938046
C79	C	1.508478	-0.188403	0.469014
C80	C	2.008478	0.311597	0.969014
C81	C	1.664284	-0.344973	0.469035
C82	C	2.164284	0.155027	0.969035
C83	C	1.664281	-0.344966	0.530950
C84	C	2.164281	0.155034	1.030950
C85	C	1.586377	-0.266678	0.561898
C86	C	2.086377	0.233322	1.061898
C87	C	1.508475	-0.188397	0.530930
C88	C	2.008475	0.311603	1.030930
C89	C	1.352670	-0.031811	0.468996
C90	C	1.852670	0.468189	0.968996
C91	C	1.352685	-0.031803	0.530919
C92	C	1.852685	0.468197	1.030919
C93	C	1.430592	-0.110092	0.561888
C94	C	1.930592	0.389908	1.061888
C95	C	1.430567	-0.110102	0.623793
C96	C	1.930567	0.389898	1.123793
N97	N	1.508479	-0.188376	0.654764
N98	N	2.008479	0.311624	1.154764
C99	C	1.586384	-0.266664	0.623817
C100	C	2.086384	0.233336	1.123817
C101	C	1.430557	-0.110162	0.246093
C102	C	1.930557	0.389838	0.746093
C103	C	1.430542	-0.110181	0.184176
C104	C	1.930542	0.389819	0.684176
C105	C	1.586364	-0.266751	0.184200
C106	C	2.086364	0.233249	0.684200
C107	C	1.586371	-0.266737	0.246118
C108	C	2.086371	0.233263	0.746118
C109	C	1.508468	-0.188436	0.277065
C110	C	2.008468	0.311564	0.777065
C111	C	1.586371	-0.266645	0.753844
C112	C	2.086371	0.233355	1.253844
C113	C	1.586357	-0.266635	0.815765
C114	C	2.086357	0.233365	1.315765
C115	C	1.430541	-0.110061	0.815736
C116	C	1.930541	0.389939	1.315736
C117	C	1.430549	-0.110075	0.753820
C118	C	1.930549	0.389925	1.253820
C119	C	1.508474	-0.188371	0.722876
C120	C	2.008474	0.311629	1.222876
O121	O	1.364319	-0.043586	0.655854
O122	O	1.864319	0.456414	1.155854
O123	O	1.652654	-0.333219	0.655853
O124	O	2.152654	0.166781	1.155853
H125	H	1.115238	0.033196	0.000027
H126	H	1.615238	0.533196	0.500027
H127	H	1.074257	-0.302376	0.089568
H128	H	1.574257	0.197624	0.589568
H129	H	1.394435	0.377512	0.089464
H130	H	1.894435	0.877512	0.589464
Cl131	Cl	1.762234	-0.443408	0.430140
Cl132	Cl	2.262234	0.056592	0.930140
H133	H	1.649809	-0.330488	0.271329
H134	H	2.149809	0.169512	0.771329
H135	H	0.901947	-0.410168	0.000031
H136	H	1.401947	0.089832	0.500031
H137	H	1.649796	-0.330499	0.158991
H138	H	2.149796	0.169501	0.658991
H139	H	1.286824	0.204837	-0.000074
H140	H	1.786824	0.704837	0.499926
H141	H	1.649826	-0.330400	0.728656
H142	H	2.149826	0.169600	1.228656
H143	H	1.367087	-0.046446	0.158967
H144	H	1.867087	0.453554	0.658967
H145	H	1.074514	-0.302312	-0.089515
H146	H	1.574514	0.197688	0.410485
H147	H	1.394416	0.377659	-0.089533
H148	H	1.894416	0.877659	0.410467
H149	H	1.367107	-0.046404	0.271286
H150	H	1.867107	0.453596	0.771286
Cl151	Cl	1.650761	0.229057	-0.111957
Cl152	Cl	2.150761	0.729057	0.388043
H153	H	1.730204	0.418089	-0.000093
H154	H	2.230204	0.918089	0.499907
H155	H	0.942475	-0.074353	-0.089519
H156	H	1.442475	0.425647	0.410481
H157	H	1.622386	0.245488	0.089456
H158	H	2.122386	0.745488	0.589456
Cl159	Cl	1.684296	-0.365072	0.854692
Cl160	Cl	2.184296	0.134928	1.354692
Cl161	Cl	1.762208	-0.443412	0.569872
Cl162	Cl	2.262208	0.056588	1.069872
Cl163	Cl	1.254723	0.066616	0.430080
Cl164	Cl	1.754723	0.566616	0.930080
H165	H	1.289247	0.031962	0.556113
H166	H	1.789247	0.531962	1.056113
H167	H	1.367095	-0.046342	0.728604
H168	H	1.867095	0.453658	1.228604
H169	H	1.367109	-0.046325	0.840944
H170	H	1.867109	0.453675	1.340944
H171	H	0.942410	-0.074420	0.089473
H172	H	1.442410	0.425580	0.589473
