data_functionalizedCrystal
_audit_creation_method	'MofGen! by Chris Wilmer'
_symmetry_space_group_name_H-M	'P1'
_symmetry_Int_Tables_number	1
_symmetry_cell_setting	triclinic
loop_
_symmetry_equiv_pos_as_xyz
  x,y,z
_cell_length_a	9.065218
_cell_length_b	15.944564
_cell_length_c	7.540329
_cell_angle_alpha	90.006721
_cell_angle_beta	89.998391
_cell_angle_gamma	95.740090
loop_
_atom_site_label
_atom_site_type_symbol
_atom_site_fract_x
_atom_site_fract_y
_atom_site_fract_z
O1	O	1.957524	-0.123163	-0.147538
O2	O	2.457524	0.376837	0.352462
O3	O	1.528003	-0.133265	-0.147531
O4	O	2.028003	0.366735	0.352469
O5	O	1.754483	-0.006029	-0.147517
O6	O	2.254483	0.493971	0.352483
O7	O	1.731044	-0.250399	-0.147551
O8	O	2.231044	0.249601	0.352449
O9	O	1.754481	-0.006021	0.147448
O10	O	2.254481	0.493979	0.647448
O11	O	1.528002	-0.133258	0.147434
O12	O	2.028002	0.366742	0.647434
O13	O	1.957522	-0.123156	0.147427
O14	O	2.457522	0.376844	0.647427
Cu15	Cu	1.742762	-0.128206	0.174364
Cu16	Cu	2.242762	0.371794	0.674364
Cu17	Cu	1.742764	-0.128214	-0.174467
Cu18	Cu	2.242764	0.371786	0.325533
O19	O	1.731042	-0.250392	0.147414
O20	O	2.231042	0.249608	0.647414
C21	C	1.753506	0.025276	-0.000034
C22	C	2.253506	0.525276	0.499966
C23	C	1.750579	0.118544	-0.000032
C24	C	2.250579	0.618544	0.499968
C25	C	1.473039	-0.132290	-0.000047
C26	C	1.973039	0.367710	0.499953
C27	C	1.309263	-0.129387	-0.000044
C28	C	1.809263	0.370613	0.499956
C29	C	2.012487	-0.124130	-0.000060
C30	C	2.512487	0.375870	0.499940
C31	C	2.176262	-0.127033	-0.000075
C32	C	2.676262	0.372967	0.499925
C33	C	1.603194	0.334516	-0.000053
C34	C	2.103194	0.834516	0.499947
C35	C	1.671621	0.395018	0.145382
C36	C	2.171621	0.895018	0.645382
C37	C	1.745283	0.289309	-0.000045
C38	C	2.245283	0.789309	0.499955
C39	C	1.671656	0.394994	-0.145430
C40	C	2.171656	0.894994	0.354570
C41	C	1.740157	0.454259	-0.000064
C42	C	2.240157	0.954259	0.499936
C43	C	1.813749	0.348582	0.145511
C44	C	2.313749	0.848582	0.645511
C45	C	1.813764	0.348552	-0.145433
C46	C	2.313764	0.848552	0.354567
C47	C	1.882295	0.409036	0.000038
C48	C	2.382295	0.909036	0.500038
C49	C	1.748232	0.194285	-0.000032
C50	C	2.248232	0.694285	0.499968
C51	C	1.737220	0.549282	-0.000064
C52	C	2.237220	1.049282	0.499936
C53	C	1.731999	0.718302	-0.000071
C54	C	2.231999	1.218302	0.499929
C55	C	1.734867	0.625030	-0.000078
C56	C	2.234867	1.125030	0.499922
N57	N	1.742766	-0.128214	-0.419815
N58	N	2.242766	0.371786	0.080185
N59	N	1.742771	-0.128200	0.419712
N60	N	2.242771	0.371800	0.919712
H61	H	1.611522	0.415584	0.268338
H62	H	2.111522	0.915584	0.768338
N63	N	2.030355	0.449535	0.000114
N64	N	2.530355	0.949535	0.500114
N65	N	2.073960	0.497274	-0.124777
N66	N	2.573960	0.997274	0.375223
H67	H	2.178525	0.525879	-0.124718
H68	H	2.678525	1.025879	0.375282
N69	N	1.596272	0.420763	-0.299691
N70	N	2.096272	0.920763	0.200309
N71	N	1.662958	0.470047	-0.408600
N72	N	2.162958	0.970047	0.091400
H73	H	1.609712	0.488244	-0.517543
H74	H	2.109712	0.988244	-0.017543
H75	H	1.873812	0.327964	-0.268394
H76	H	2.373812	0.827964	0.231606
N77	N	1.455243	0.293860	0.000135
N78	N	1.955243	0.793860	0.500135
N79	N	1.369250	0.306371	0.124822
N80	N	1.869250	0.806371	0.624822
H81	H	1.264761	0.277658	0.124963
H82	H	1.764761	0.777658	0.624963
N83	N	1.889081	0.322932	0.299913
N84	N	2.389081	0.822932	0.799913
N85	N	1.903435	0.246675	0.324870
N86	N	2.403435	0.746675	0.824870
H87	H	1.956633	0.228556	0.433917
H88	H	2.456633	0.728556	0.933917
