data_functionalizedCrystal
_audit_creation_method	'MofGen! by Chris Wilmer'
_symmetry_space_group_name_H-M	'P1'
_symmetry_Int_Tables_number	1
_symmetry_cell_setting	triclinic
loop_
_symmetry_equiv_pos_as_xyz
  x,y,z
_cell_length_a	13.897441
_cell_length_b	12.827893
_cell_length_c	12.827892
_cell_angle_alpha	89.984638
_cell_angle_beta	89.971891
_cell_angle_gamma	90.019906
loop_
_atom_site_label
_atom_site_type_symbol
_atom_site_fract_x
_atom_site_fract_y
_atom_site_fract_z
Zn1	Zn	-0.545377	-1.597676	-0.416001
Zn2	Zn	-0.295377	-1.347676	-0.166001
Zn3	Zn	-0.045377	-1.097676	0.083999
Zn4	Zn	0.204623	-0.847676	0.333999
Zn5	Zn	-0.384085	-1.597568	-0.590773
Zn6	Zn	-0.134085	-1.347568	-0.340773
Zn7	Zn	0.115915	-1.097568	-0.090773
Zn8	Zn	0.365915	-0.847568	0.159227
Zn9	Zn	-0.384097	-1.422916	-0.416046
Zn10	Zn	-0.134097	-1.172916	-0.166046
Zn11	Zn	0.115903	-0.922916	0.083954
Zn12	Zn	0.365903	-0.672916	0.333954
Zn13	Zn	-0.545340	-1.422903	-0.590700
Zn14	Zn	-0.295340	-1.172903	-0.340700
Zn15	Zn	-0.045340	-0.922903	-0.090700
Zn16	Zn	0.204660	-0.672903	0.159300
O17	O	-0.464725	-1.510266	-0.503380
O18	O	-0.214725	-1.260266	-0.253380
O19	O	0.035275	-1.010266	-0.003380
O20	O	0.285275	-0.760266	0.246620
O21	O	-0.523991	-1.743898	-0.439196
O22	O	-0.273991	-1.493898	-0.189196
O23	O	-0.023991	-1.243898	0.060804
O24	O	0.226009	-0.993898	0.310804
O25	O	-0.249105	-1.574360	-0.567645
O26	O	0.000895	-1.324360	-0.317645
O27	O	0.250895	-1.074360	-0.067645
O28	O	0.500895	-0.824360	0.182355
O29	O	-0.405512	-1.446148	-0.269804
O30	O	-0.155512	-1.196148	-0.019804
O31	O	0.094488	-0.946148	0.230196
O32	O	0.344488	-0.696148	0.480196
O33	O	-0.405491	-1.743819	-0.567600
O34	O	-0.155491	-1.493819	-0.317600
O35	O	0.094509	-1.243819	-0.067600
O36	O	0.344509	-0.993819	0.182400
O37	O	-0.524003	-1.574544	-0.269771
O38	O	-0.274003	-1.324544	-0.019771
O39	O	-0.024003	-1.074544	0.230229
O40	O	0.225997	-0.824544	0.480229
O41	O	-0.249114	-1.446044	-0.439274
O42	O	0.000886	-1.196044	-0.189274
O43	O	0.250886	-0.946044	0.060726
O44	O	0.500886	-0.696044	0.310726
O45	O	-0.405476	-1.276678	-0.439203
O46	O	-0.155476	-1.026678	-0.189203
O47	O	0.094524	-0.776678	0.060797
O48	O	0.344524	-0.526678	0.310797
O49	O	-0.680326	-1.446127	-0.567476
O50	O	-0.430326	-1.196127	-0.317476
O51	O	-0.180326	-0.946127	-0.067476
O52	O	0.069674	-0.696127	0.182524
O53	O	-0.523941	-1.276668	-0.567521
O54	O	-0.273941	-1.026668	-0.317521
O55	O	-0.023941	-0.776668	-0.067521
O56	O	0.226059	-0.526668	0.182479
O57	O	-0.680353	-1.574532	-0.439125
O58	O	-0.430353	-1.324532	-0.189125
O59	O	-0.180353	-1.074532	0.060875
O60	O	0.069647	-0.824532	0.310875
O61	O	-0.405455	-1.574348	-0.736999
O62	O	-0.155455	-1.324348	-0.486999
O63	O	0.094545	-1.074348	-0.236999
O64	O	0.344545	-0.824348	0.013001
O65	O	-0.523929	-1.446022	-0.736946
O66	O	-0.273929	-1.196022	-0.486946
O67	O	-0.023929	-0.946022	-0.236946
O68	O	0.226071	-0.696022	0.013054
C69	C	-0.464706	-1.238756	-0.503360
C70	C	-0.214706	-0.988756	-0.253360
C71	C	0.035294	-0.738756	-0.003360
C72	C	0.285294	-0.488756	0.246640
C73	C	-0.464721	-1.122603	-0.503376
C74	C	-0.214721	-0.872603	-0.253376
C75	C	0.035279	-0.622603	-0.003376
C76	C	0.285279	-0.372603	0.246624
C77	C	-0.716318	-1.510340	-0.503288
C78	C	-0.466318	-1.260340	-0.253288
C79	C	-0.216318	-1.010340	-0.003288
C80	C	0.033682	-0.760340	0.246712
C81	C	-0.823532	-1.510371	-0.503248
C82	C	-0.573532	-1.260371	-0.253248
C83	C	-0.323532	-1.010371	-0.003248
C84	C	-0.073532	-0.760371	0.246752
C85	C	-0.464708	-1.510200	-0.774890
C86	C	-0.214708	-1.260200	-0.524890
C87	C	0.035292	-1.010200	-0.274890
C88	C	0.285292	-0.760200	-0.024890
C89	C	-0.464733	-1.510268	-0.891043
C90	C	-0.214733	-1.260268	-0.641043
C91	C	0.035267	-1.010268	-0.391043
C92	C	0.285267	-0.760268	-0.141043
C93	C	-1.019827	-1.510400	-0.503178
C94	C	-0.769827	-1.260400	-0.253178
C95	C	-0.519827	-1.010400	-0.003178
C96	C	-0.269827	-0.760400	0.246822
C97	C	-0.910594	-1.510381	-0.503220
C98	C	-0.660594	-1.260381	-0.253220
C99	C	-0.410594	-1.010381	-0.003220
C100	C	-0.160594	-0.760381	0.246780
C101	C	-0.214110	-1.510252	-0.503397
C102	C	0.035890	-1.260252	-0.253397
C103	C	0.285890	-1.010252	-0.003397
C104	C	0.535890	-0.760252	0.246603
C105	C	-0.106897	-1.510423	-0.503142
C106	C	0.143103	-1.260423	-0.253142
C107	C	0.393103	-1.010423	-0.003142
C108	C	0.643103	-0.760423	0.246858
C109	C	-0.464744	-1.782836	-0.503401
C110	C	-0.214744	-1.532836	-0.253401
C111	C	0.035256	-1.282836	-0.003401
C112	C	0.285256	-1.032836	0.246599
C113	C	-0.464752	-1.898989	-0.503410
C114	C	-0.214752	-1.648989	-0.253410
C115	C	0.035248	-1.398989	-0.003410
C116	C	0.285248	-1.148989	0.246590
C117	C	-0.523251	-1.070841	-0.566971
C118	C	-0.273251	-0.820841	-0.316971
C119	C	-0.023251	-0.570841	-0.066971
C120	C	0.226749	-0.320841	0.183029
C121	C	-0.523268	-0.950791	-0.566990
C122	C	-0.273268	-0.700791	-0.316990
C123	C	-0.023268	-0.450791	-0.066990
C124	C	0.226732	-0.200791	0.183010
C125	C	-0.406173	-1.573843	-0.942820
C126	C	-0.156173	-1.323843	-0.692820
C127	C	0.093827	-1.073843	-0.442820
C128	C	0.343827	-0.823843	-0.192820
C129	C	-0.406198	-1.573915	-1.062870
C130	C	-0.156198	-1.323915	-0.812870
C131	C	0.093802	-1.073915	-0.562870
C132	C	0.343802	-0.823915	-0.312870
C133	C	-0.464763	-1.510360	-0.230810
C134	C	-0.214763	-1.260360	0.019190
C135	C	0.035237	-1.010360	0.269190
C136	C	0.285237	-0.760360	0.519190
C137	C	-0.464779	-1.510400	-0.114657
C138	C	-0.214779	-1.260400	0.135343
C139	C	0.035221	-1.010400	0.385343
C140	C	0.285221	-0.760400	0.635343
H141	H	-0.573351	-1.115402	-0.621399
H142	H	-0.323351	-0.865402	-0.371399
H143	H	-0.073351	-0.615402	-0.121399
H144	H	0.176649	-0.365402	0.128601
H145	H	-0.573374	-0.906277	-0.621438
H146	H	-0.323374	-0.656277	-0.371438
H147	H	-0.073374	-0.406277	-0.121438
H148	H	0.176626	-0.156277	0.128562
H149	H	-0.414637	-0.943496	-0.448965
H150	H	-0.164637	-0.693496	-0.198965
H151	H	0.085363	-0.443496	0.051035
H152	H	0.335363	-0.193496	0.301035
H153	H	-0.356060	-1.628341	-1.107396
H154	H	-0.106060	-1.378341	-0.857396
H155	H	0.143940	-1.128341	-0.607396
H156	H	0.393940	-0.878341	-0.357396
H157	H	-0.414629	-1.078041	-0.448940
H158	H	-0.164629	-0.828041	-0.198940
H159	H	0.085371	-0.578041	0.051060
H160	H	0.335371	-0.328041	0.301060
H161	H	-0.514889	-1.455896	-0.935592
H162	H	-0.264889	-1.205896	-0.685592
H163	H	-0.014889	-0.955896	-0.435592
H164	H	0.235111	-0.705896	-0.185592
H165	H	-0.356023	-1.628224	-0.898273
H166	H	-0.106023	-1.378224	-0.648273
H167	H	0.143977	-1.128224	-0.398273
H168	H	0.393977	-0.878224	-0.148273
H169	H	-0.514913	-1.455964	-1.070138
H170	H	-0.264913	-1.205964	-0.820138
H171	H	-0.014913	-0.955964	-0.570138
H172	H	0.235087	-0.705964	-0.320138
