data_functionalizedCrystal
_audit_creation_method	'MofGen! by Chris Wilmer'
_symmetry_space_group_name_H-M	'P1'
_symmetry_Int_Tables_number	1
_symmetry_cell_setting	triclinic
loop_
_symmetry_equiv_pos_as_xyz
  x,y,z
_cell_length_a	14.044220
_cell_length_b	12.503572
_cell_length_c	14.044220
_cell_angle_alpha	93.843168
_cell_angle_beta	86.811122
_cell_angle_gamma	93.835250
loop_
_atom_site_label
_atom_site_type_symbol
_atom_site_fract_x
_atom_site_fract_y
_atom_site_fract_z
O1	O	1.282200	0.089210	-0.225116
O2	O	1.782200	0.589210	0.274884
O3	O	1.005530	0.089237	-0.216809
O4	O	1.505530	0.589237	0.283191
O5	O	1.139712	0.089213	-0.082627
O6	O	1.639712	0.589213	0.417373
O7	O	1.148019	0.089234	-0.359298
O8	O	1.648019	0.589234	0.140702
O9	O	1.129622	-0.089427	-0.092737
O10	O	1.629622	0.410573	0.407263
O11	O	0.995440	-0.089403	-0.226918
O12	O	1.495440	0.410597	0.273082
O13	O	1.272110	-0.089430	-0.235226
O14	O	1.772110	0.410570	0.264774
Cu15	Cu	1.132854	-0.105728	-0.231995
Cu16	Cu	1.632854	0.394272	0.268005
Cu17	Cu	1.144786	0.105535	-0.220040
Cu18	Cu	1.644786	0.605535	0.279960
O19	O	1.137929	-0.089406	-0.369407
O20	O	1.637929	0.410594	0.130593
C21	C	0.964864	-0.000080	-0.218228
C22	C	1.464864	0.499920	0.281772
C23	C	0.858721	-0.000070	-0.207383
C24	C	1.358721	0.499930	0.292617
N25	N	1.124469	-0.254319	-0.240404
N26	N	1.624469	0.245681	0.259596
C27	C	0.664382	-0.000092	-0.187558
C28	C	1.164382	0.499908	0.312442
C29	C	0.613253	-0.000091	-0.264472
C30	C	1.113253	0.499909	0.235528
C31	C	0.505116	-0.000104	-0.253441
C32	C	1.005116	0.499896	0.246559
C33	C	0.772529	-0.000080	-0.198587
C34	C	1.272529	0.499920	0.301413
C35	C	1.112134	-0.473432	-0.252782
C36	C	1.612134	0.026568	0.247218
C37	C	1.165511	-0.526768	-0.199249
C38	C	1.665511	-0.026768	0.300751
C39	C	1.158648	-0.648690	-0.206136
C40	C	1.658648	-0.148690	0.293864
C41	C	1.118996	-0.351499	-0.245896
C42	C	1.618996	0.148501	0.254104
C43	C	1.312777	-0.000111	-0.233807
C44	C	1.812777	0.499889	0.266193
C45	C	1.418920	-0.000114	-0.244651
C46	C	1.918920	0.499886	0.255349
C47	C	1.131031	-0.000107	-0.052060
C48	C	1.631031	0.499893	0.447940
C49	C	1.120187	-0.000107	0.054082
C50	C	1.620187	0.499893	0.554082
N51	N	1.153179	0.254126	-0.211624
N52	N	1.653179	0.754126	0.288376
C53	C	1.146609	-0.000084	-0.399974
C54	C	1.646609	0.499916	0.100026
C55	C	1.157454	-0.000077	-0.506117
C56	C	1.657454	0.499923	-0.006117
C57	C	1.100361	-0.000090	0.248421
C58	C	1.600361	0.499910	0.748421
C59	C	1.177275	-0.000094	0.299551
C60	C	1.677275	0.499906	0.799551
C61	C	1.166244	-0.000084	0.407687
C62	C	1.666244	0.499916	0.907687
C63	C	1.111391	-0.000099	0.140274
C64	C	1.611391	0.499901	0.640274
H65	H	0.650692	-0.000081	-0.338605
H66	H	1.150692	0.499919	0.161395
H67	H	1.216364	-0.480864	-0.148245
H68	H	1.716364	0.019136	0.351755
O69	O	1.051555	-0.528350	-0.313614
O70	O	1.551555	-0.028350	0.186386
C71	C	0.989338	-0.701719	-0.375960
C72	C	1.489338	-0.201719	0.124040
C73	C	1.057993	-0.639642	-0.307043
C74	C	1.557993	-0.139642	0.192957
H75	H	0.994505	-0.791709	-0.370656
H76	H	1.494505	-0.291709	0.129344
H77	H	1.009598	-0.679762	-0.452260
H78	H	1.509598	-0.179762	0.047740
H79	H	0.913027	-0.679631	-0.355933
H80	H	1.413027	-0.179631	0.144067
H81	H	1.134326	-0.661696	-0.326982
H82	H	1.634326	-0.161696	0.173018
H83	H	1.037651	-0.661604	-0.230760
H84	H	1.537651	-0.161604	0.269240
H85	H	1.251413	-0.000029	0.262115
H86	H	1.751413	0.499971	0.762115
H87	H	1.026234	-0.000080	0.285859
H88	H	1.526234	0.499920	0.785859
O89	O	0.619578	-0.000049	-0.099189
O90	O	1.119578	0.499951	0.400811
C91	C	0.469364	-0.000121	-0.007496
C92	C	0.969364	0.499879	0.492504
C93	C	0.519999	-0.000151	-0.107626
C94	C	1.019999	0.499849	0.392374
H95	H	0.388845	-0.000226	-0.014285
H96	H	0.888845	0.499774	0.485715
H97	H	0.495032	0.074660	0.037201
H98	H	0.995032	0.574660	0.537201
H99	H	0.486735	-0.074861	0.028726
H100	H	0.986735	0.425139	0.528726
H101	H	0.502651	0.074538	-0.143930
H102	H	1.002651	0.574538	0.356070
H103	H	0.494327	-0.074982	-0.152253
H104	H	0.994327	0.425018	0.347747
