data_functionalizedCrystal
_audit_creation_method	'MofGen! by Chris Wilmer'
_symmetry_space_group_name_H-M	'P1'
_symmetry_Int_Tables_number	1
_symmetry_cell_setting	triclinic
loop_
_symmetry_equiv_pos_as_xyz
  x,y,z
_cell_length_a	16.098538
_cell_length_b	10.540539
_cell_length_c	10.540510
_cell_angle_alpha	95.480599
_cell_angle_beta	87.247443
_cell_angle_gamma	87.235883
loop_
_atom_site_label
_atom_site_type_symbol
_atom_site_fract_x
_atom_site_fract_y
_atom_site_fract_z
O1	O	0.069212	-1.691498	0.173285
O2	O	0.569212	-1.191498	0.673285
O3	O	0.069222	-1.322084	0.190140
O4	O	0.569222	-0.822084	0.690140
O5	O	0.069216	-1.515239	-0.002997
O6	O	0.569216	-1.015239	0.497003
O7	O	0.069217	-1.498343	0.366421
O8	O	0.569217	-0.998343	0.866421
O9	O	-0.069296	-1.503955	0.008241
O10	O	0.430704	-1.003955	0.508241
O11	O	-0.069291	-1.310800	0.201377
O12	O	0.430709	-0.810800	0.701377
O13	O	-0.069301	-1.680214	0.184522
O14	O	0.430699	-1.180214	0.684522
Zn15	Zn	-0.091288	-1.493716	0.194734
Zn16	Zn	0.408712	-0.993716	0.694734
Zn17	Zn	0.091209	-1.508582	0.179928
Zn18	Zn	0.591209	-1.008582	0.679928
O19	O	-0.069295	-1.487060	0.377659
O20	O	0.430705	-0.987060	0.877659
C21	C	-0.000033	-1.269139	0.194494
C22	C	0.499967	-0.769139	0.694494
C23	C	-0.000029	-1.128192	0.190712
C24	C	0.499971	-0.628192	0.690712
N25	N	-0.215836	-1.483579	0.204838
N26	N	0.284164	-0.983579	0.704838
C27	C	-0.000044	-1.733159	0.180167
C28	C	0.499956	-1.233159	0.680167
C29	C	-0.000042	-1.874107	0.183949
C30	C	0.499958	-1.374107	0.683949
C31	C	-0.259424	-1.565592	0.122892
C32	C	0.240576	-1.065592	0.622892
C33	C	-0.346613	-1.558513	0.129973
C34	C	0.153387	-1.058513	0.629973
C35	C	-0.390212	-1.469426	0.219005
C36	C	0.109788	-0.969426	0.719005
C37	C	-0.346619	-1.387404	0.300954
C38	C	0.153381	-0.887404	0.800954
C39	C	-0.259432	-1.394478	0.293867
C40	C	0.240568	-0.894478	0.793867
C41	C	-0.653462	-1.443781	0.244676
C42	C	-0.153462	-0.943781	0.744676
C43	C	-0.740655	-1.436716	0.251759
C44	C	-0.240655	-0.936716	0.751759
C45	C	-0.740643	-1.607824	0.080776
C46	C	-0.240643	-1.107824	0.580776
C47	C	-0.653454	-1.614896	0.073701
C48	C	-0.153454	-1.114896	0.573701
C49	C	-0.609868	-1.532869	0.155646
C50	C	-0.109868	-1.032869	0.655646
C51	C	-0.479333	-1.462190	0.226247
C52	C	0.020667	-0.962190	0.726247
C53	C	-0.520749	-1.540100	0.148397
C54	C	-0.020749	-1.040100	0.648397
N55	N	0.215758	-1.518729	0.169814
N56	N	0.715758	-1.018729	0.669814
C57	C	-0.000038	-1.508338	-0.044682
C58	C	0.499962	-1.008338	0.455318
C59	C	-0.000033	-1.504571	-0.185632
C60	C	0.499967	-1.004571	0.314368
C61	C	-0.000353	-0.944754	0.045819
C62	C	0.499647	-0.444754	0.545819
C63	C	-0.000032	-1.091398	0.049627
C64	C	0.499968	-0.591398	0.549627
C65	C	0.079065	-1.072955	0.252191
C66	C	0.579065	-0.572955	0.752191
C67	C	0.079123	-0.926416	0.247372
C68	C	0.579123	-0.426416	0.747372
C69	C	-0.078392	-0.913096	0.263021
C70	C	0.421608	-0.413096	0.763021
C71	C	-0.079429	-1.059993	0.264405
C72	C	0.420571	-0.559993	0.764405
C73	C	-0.000354	-1.638729	-0.403061
C74	C	0.499646	-1.138729	0.096939
C75	C	-0.000038	-1.642773	-0.256492
C76	C	0.499962	-1.142773	0.243508
C77	C	0.079065	-1.440269	-0.236808
C78	C	0.579065	-0.940269	0.263192
C79	C	0.079127	-1.437235	-0.383574
C80	C	0.579127	-0.937235	0.116426
C81	C	-0.078388	-1.421525	-0.370603
C82	C	0.421612	-0.921525	0.129397
C83	C	-0.079429	-1.427995	-0.224178
C84	C	0.420571	-0.927995	0.275822
C85	C	-0.000039	-1.493961	0.419343
C86	C	0.499961	-0.993961	0.919343
C87	C	-0.000038	-1.497727	0.560293
C88	C	0.499962	-0.997727	1.060293
H89	H	-0.223931	-1.638141	0.050398
H90	H	0.276069	-1.138141	0.550398
Cl91	Cl	-0.087930	-0.893488	-0.033131
Cl92	Cl	0.412070	-0.393488	0.466869
Cl93	Cl	-0.401410	-1.661615	0.026953
Cl94	Cl	0.098590	-1.161615	0.526953
Cl95	Cl	-0.086801	-1.271610	-0.147831
Cl96	Cl	0.413199	-0.771610	0.352169
Cl97	Cl	0.087653	-1.735870	-0.219740
Cl98	Cl	0.587653	-1.235870	0.280260
H99	H	-0.137945	-1.474706	-0.190818
H100	H	0.362055	-0.974706	0.309182
H101	H	0.138251	-1.490399	-0.428586
H102	H	0.638251	-0.990399	0.071414
H103	H	-0.078918	-1.317719	-0.392710
H104	H	0.421082	-0.817719	0.107290
H105	H	0.082009	-1.338767	-0.189658
H106	H	0.582009	-0.838767	0.310342
Cl107	Cl	0.169949	-1.146112	0.172001
Cl108	Cl	0.669949	-0.646112	0.672001
Cl109	Cl	0.169945	-1.523527	-0.196552
Cl110	Cl	0.669945	-1.023527	0.303448
H111	H	0.056047	-1.696856	-0.451143
H112	H	0.556047	-1.196856	0.048857
H113	H	0.082713	-1.334160	-0.406860
H114	H	0.582713	-0.834160	0.093140
H115	H	-0.485247	-1.612630	0.075901
H116	H	0.014753	-1.112630	0.575901
Cl117	Cl	0.086729	-0.905215	-0.046945
Cl118	Cl	0.586729	-0.405215	0.453055
H119	H	-0.514839	-1.389656	0.298742
H120	H	-0.014839	-0.889656	0.798742
H121	H	-0.056731	-1.129399	0.000804
H122	H	0.443269	-0.629399	0.500804
H123	H	-0.776150	-1.364167	0.324266
H124	H	-0.276150	-0.864167	0.824266
H125	H	0.082009	-1.095537	0.355562
H126	H	0.582009	-0.595537	0.855562
Cl127	Cl	-0.170956	-0.856868	0.200032
Cl128	Cl	0.329044	-0.356868	0.700032
Cl129	Cl	-0.169770	-1.115726	0.195026
Cl130	Cl	0.330230	-0.615726	0.695026
H131	H	-0.223944	-1.327693	0.360594
H132	H	0.276056	-0.827693	0.860594
Cl133	Cl	-0.795440	-1.710932	-0.022239
Cl134	Cl	-0.295440	-1.210932	0.477761
Cl135	Cl	-0.170951	-1.481336	-0.428715
Cl136	Cl	0.329049	-0.981336	0.071285
H137	H	-0.617957	-1.687437	0.001204
H138	H	-0.117957	-1.187437	0.501204
H139	H	-0.617981	-1.376994	0.311400
H140	H	-0.117981	-0.876994	0.811400
H141	H	-0.382123	-1.314861	0.373442
H142	H	0.117877	-0.814861	0.873442
H143	H	-0.084204	-1.083819	0.367652
H144	H	0.415796	-0.583819	0.867652
Cl145	Cl	0.087806	-1.162979	-0.040199
Cl146	Cl	0.587806	-0.662979	0.459801
Cl147	Cl	-0.079218	-0.840099	0.420420
Cl148	Cl	0.420782	-0.340099	0.920420
H149	H	0.138247	-0.903028	0.192393
H150	H	0.638247	-0.403028	0.692393
H151	H	0.082713	-0.878729	0.348547
H152	H	0.582713	-0.378729	0.848547
Cl153	Cl	-0.087589	-1.721073	-0.204074
Cl154	Cl	0.412411	-1.221073	0.295926
H155	H	-0.057079	-1.687951	-0.440414
H156	H	0.442921	-1.187951	0.059586
