data_functionalizedCrystal
_audit_creation_method	'MofGen! by Chris Wilmer'
_symmetry_space_group_name_H-M	'P1'
_symmetry_Int_Tables_number	1
_symmetry_cell_setting	triclinic
loop_
_symmetry_equiv_pos_as_xyz
  x,y,z
_cell_length_a	10.654550
_cell_length_b	14.519709
_cell_length_c	9.130313
_cell_angle_alpha	89.997798
_cell_angle_beta	89.996220
_cell_angle_gamma	84.082524
loop_
_atom_site_label
_atom_site_type_symbol
_atom_site_fract_x
_atom_site_fract_y
_atom_site_fract_z
O1	O	1.666589	0.129528	-0.121923
O2	O	1.300991	0.141869	-0.121900
O3	O	1.493483	0.001510	-0.121899
O4	O	1.474097	0.269887	-0.121924
O5	O	1.493481	0.001514	0.121700
O6	O	1.300989	0.141873	0.121699
O7	O	1.666586	0.129532	0.121676
Cu8	Cu	1.483787	0.135703	0.143930
Cu9	Cu	1.483790	0.135698	-0.144154
O10	O	1.474094	0.269891	0.121675
C11	C	1.254201	0.140965	-0.000098
C12	C	1.114784	0.138254	-0.000088
C13	C	1.034504	0.220895	-0.000117
C14	C	0.903507	0.218342	-0.000143
C15	C	0.933085	0.050500	-0.000116
C16	C	1.064078	0.053054	-0.000080
C17	C	1.017426	0.317797	-0.000139
C18	C	0.886430	0.315244	-0.000164
C19	C	1.492579	-0.032852	-0.000099
C20	C	1.489871	-0.135247	-0.000098
C21	C	1.479904	-0.510195	-0.000136
C22	C	1.482672	-0.405873	-0.000125
C23	C	1.484887	-0.322725	-0.000116
C24	C	1.487656	-0.218396	-0.000108
C25	C	1.713377	0.130436	-0.000130
C26	C	1.852794	0.133147	-0.000149
C27	C	1.474999	0.304253	-0.000128
C28	C	1.477707	0.406648	-0.000139
N29	N	1.483795	0.135705	0.346552
N30	N	1.483793	0.135688	-0.346777
C31	C	1.569052	0.073576	0.423205
C32	C	1.569048	0.073565	0.576542
C33	C	1.398527	0.197821	0.576560
C34	C	1.398525	0.197827	0.423226
C35	C	1.667505	0.001840	0.423195
C36	C	1.667502	0.001829	0.576532
H37	H	0.840476	0.344531	0.105001
H38	H	1.329091	0.248409	0.360817
C39	C	1.796046	0.022950	0.631740
C40	C	1.874677	0.035882	0.512216
C41	C	1.993091	0.055349	0.563017
H42	H	1.832422	-0.027299	0.689495
H43	H	1.786655	0.077649	0.689508
H44	H	1.884072	-0.018811	0.454473
H45	H	1.838341	0.086133	0.454449
H46	H	1.983700	0.110048	0.620784
H47	H	2.029455	0.005097	0.620772
H48	H	2.046452	0.064134	0.481929
C49	C	1.639549	-0.092632	0.367789
C50	C	1.521155	-0.111808	0.419078
C51	C	1.495350	-0.198818	0.368056
H52	H	1.702410	-0.138621	0.402430
H53	H	1.639472	-0.092652	0.263734
H54	H	1.521243	-0.111796	0.523111
H55	H	1.458269	-0.065842	0.384441
H56	H	1.495272	-0.198838	0.264000
H57	H	1.558218	-0.244800	0.402700
H58	H	1.415013	-0.211837	0.402836
C59	C	1.305754	0.265158	0.659735
C60	C	1.182324	0.249339	0.622468
C61	C	1.096826	0.311344	0.699071
H62	H	1.319349	0.326845	0.634677
H63	H	1.317877	0.256249	0.762047
H64	H	1.170205	0.258255	0.520178
H65	H	1.168688	0.187664	0.647529
H66	H	1.108950	0.302435	0.801383
H67	H	1.110433	0.373027	0.674007
H68	H	1.013070	0.300614	0.673806
C69	C	0.830447	0.364072	-0.136053
C70	C	0.858215	0.456246	-0.135717
C71	C	0.806676	0.501250	-0.260874
H72	H	0.741549	0.362447	-0.136195
H73	H	0.865569	0.333706	-0.221046
H74	H	0.823088	0.486605	-0.050746
H75	H	0.947103	0.457899	-0.135596
H76	H	0.841798	0.470884	-0.345867
H77	H	0.717780	0.499618	-0.261005
H78	H	0.825519	0.563792	-0.260669
C79	C	1.627903	-0.087493	0.640182
C80	C	1.725889	-0.130145	0.726432
C81	C	1.689453	-0.212418	0.785118
H82	H	1.609961	-0.127897	0.562858
H83	H	1.554666	-0.073962	0.698835
H84	H	1.799104	-0.143679	0.667782
H85	H	1.743843	-0.089768	0.803779
H86	H	1.616216	-0.198887	0.843772
H87	H	1.671511	-0.252814	0.707785
H88	H	1.755925	-0.241363	0.843656
H89	H	1.758473	0.024302	0.375629
H90	H	1.129439	-0.014241	-0.000035
H91	H	0.891784	-0.018867	-0.000131
H92	H	1.046392	0.355697	0.101809
H93	H	1.052786	0.348651	-0.105314
