data_functionalizedCrystal
_audit_creation_method	'MofGen! by Chris Wilmer'
_symmetry_space_group_name_H-M	'P1'
_symmetry_Int_Tables_number	1
_symmetry_cell_setting	triclinic
loop_
_symmetry_equiv_pos_as_xyz
  x,y,z
_cell_length_a	20.919287
_cell_length_b	14.628931
_cell_length_c	14.628931
_cell_angle_alpha	60.000164
_cell_angle_beta	86.844449
_cell_angle_gamma	58.213046
loop_
_atom_site_label
_atom_site_type_symbol
_atom_site_fract_x
_atom_site_fract_y
_atom_site_fract_z
Zr1	Zr	0.616755	1.000579	-0.168509
O2	O	0.514529	1.191284	-0.306422
O3	O	0.648092	0.809875	-0.126232
O4	O	0.648092	1.000579	-0.316937
O5	O	0.514529	1.000579	0.034714
O6	O	0.753449	1.000580	-0.325230
O7	O	0.514529	1.000579	-0.115717
O8	O	0.753449	0.659444	0.015906
O9	O	0.514530	1.341715	-0.306422
O10	O	0.740084	0.888315	-0.114390
O11	O	0.661457	0.888315	0.004065
O12	O	0.661458	1.112845	-0.220466
O13	O	0.582831	1.112845	-0.102011
Zr14	Zr	0.784787	1.000581	0.058185
Zr15	Zr	0.784787	1.000580	-0.181737
Zr16	Zr	0.616754	1.000580	0.071412
Zr17	Zr	0.616755	1.240500	-0.168509
Zr18	Zr	0.784786	0.760660	0.058184
O19	O	0.753449	1.191286	0.015907
O20	O	0.753450	1.191285	-0.325230
O21	O	0.514529	1.191285	0.034715
O22	O	0.887012	0.809877	0.196098
O23	O	0.887012	0.809876	-0.145039
O24	O	0.648092	0.809876	0.214905
O25	O	0.887013	1.000581	-0.145039
O26	O	0.753449	1.000581	0.206612
O27	O	0.648092	1.000581	0.214906
O28	O	0.887012	1.000582	0.005393
O29	O	0.648093	1.341716	-0.316936
O30	O	0.753448	0.659445	0.206611
O31	O	0.887012	0.659445	0.196097
O32	O	0.887012	0.659445	0.005392
O33	O	0.514529	1.341716	-0.115717
O34	O	0.648093	1.341717	-0.126231
O35	O	0.740084	0.888316	0.110141
O36	O	0.818711	0.888316	-0.008314
O37	O	0.740084	1.112846	-0.114390
O38	O	0.661457	1.112846	0.004065
C39	C	0.700770	0.700476	-0.055163
C40	C	0.700770	0.598623	-0.055163
C41	C	0.645611	0.526706	-0.129578
C42	C	0.645610	0.631978	-0.129580
C43	C	0.490588	1.000579	-0.038617
C44	C	0.419254	1.000579	-0.033001
C45	C	0.385740	1.000582	-0.113240
C46	C	0.318717	1.000575	-0.107958
C47	C	0.285204	1.000574	-0.022442
C48	C	0.318723	1.000567	0.057804
C49	C	0.385749	1.000565	0.052526
C50	C	0.082833	1.000572	-0.002355
C51	C	0.015801	1.000579	0.002915
C52	C	0.015800	1.000584	-0.162847
C53	C	0.082824	1.000590	-0.168121
C54	C	0.116340	1.000576	-0.087872
C55	C	0.216694	1.000571	-0.017043
C56	C	0.184852	1.000570	-0.093267
C57	C	0.910954	1.000581	-0.071708
C58	C	0.982288	1.000582	-0.077323
C59	C	0.700771	1.000579	-0.355267
C60	C	0.700771	1.000579	-0.457120
C61	C	0.700771	1.300685	-0.055162
C62	C	0.700771	1.402538	-0.055161
C63	C	0.661767	1.111961	-0.555150
C64	C	0.661766	1.111963	-0.660421
C65	C	0.700770	1.000581	0.244943
C66	C	0.700770	1.000581	0.346795
C67	C	0.910953	0.700477	-0.071708
C68	C	0.982287	0.598624	-0.077324
C69	C	0.700770	0.700477	0.244942
C70	C	0.700770	0.598624	0.346795
C71	C	0.910953	0.700478	0.228396
C72	C	0.982287	0.598626	0.324634
C73	C	0.490588	1.300683	-0.338721
C74	C	0.419255	1.402535	-0.434958
C75	C	0.490588	1.300684	-0.038616
C76	C	0.419254	1.402536	-0.033001
C77	C	0.700771	1.300684	-0.355267
C78	C	0.700772	1.402536	-0.457119
C79	C	0.974744	0.550793	-0.135342
C80	C	1.041763	0.455105	-0.140640
C81	C	1.116325	0.407244	-0.087913
C82	C	1.123867	0.455085	-0.029894
C83	C	1.056848	0.550777	-0.024603
C84	C	1.056835	0.550795	0.307995
C85	C	1.123868	0.455107	0.398410
C86	C	1.116349	0.407246	0.505464
C87	C	1.041793	0.455086	0.522101
C88	C	0.974762	0.550778	0.431686
C89	C	0.344706	1.450377	-0.418319
C90	C	0.277674	1.546095	-0.508735
C91	C	0.285192	1.593961	-0.615788
C92	C	0.359748	1.546115	-0.632425
C93	C	0.426779	1.450406	-0.542011
C94	C	0.426797	1.450377	0.025007
C95	C	0.359778	1.546092	0.030279
C96	C	0.285216	1.593956	-0.022451
C97	C	0.277674	1.546111	-0.080466
C98	C	0.344693	1.450405	-0.085744
C99	C	0.739774	0.553215	0.444825
C100	C	0.739774	0.447946	0.550096
H101	H	0.747992	0.374169	0.008553
H102	H	1.062972	0.589750	0.220834
H103	H	0.667380	0.441580	0.458781
H104	H	0.667374	0.559571	0.340803
F105	F	0.506117	1.399491	-0.559736
H106	H	0.487503	1.411413	0.067955
F107	F	0.198314	1.597063	-0.136578
H108	H	0.628369	1.207321	-0.744522
F109	F	0.762504	0.459449	0.028114
H110	H	0.413036	1.000560	0.117866
H111	H	0.773168	0.408894	0.634197
F112	F	0.583885	0.771153	-0.212863
H113	H	0.230605	1.671893	-0.689400
F114	F	0.583880	0.563794	-0.212849
F115	F	0.421397	1.000592	-0.204263
H116	H	0.734161	0.905218	-0.569107
F117	F	0.895396	0.601717	-0.191469
H118	H	0.110115	1.000564	0.062985
H119	H	0.291431	1.000576	-0.173293
H120	H	0.734165	0.905223	-0.451129
F121	F	0.367738	1.597069	-0.746368
H122	H	0.230651	1.671886	-0.018145
H123	H	1.035608	0.416165	-0.187885
H124	H	0.628379	1.207317	-0.561141
H125	H	1.063001	0.589709	0.022648
F126	F	1.203228	0.404131	0.026220
F127	F	0.118489	1.000593	-0.259137
F128	F	1.203208	0.404205	0.380681
F129	F	1.187646	0.305397	-0.093553
F130	F	1.033804	0.404135	0.636043
H131	H	0.338540	1.411455	-0.132977
H132	H	1.170936	0.329327	0.579075
H133	H	0.773163	0.592278	0.450816
F134	F	0.895424	0.601667	0.449412
F135	F	-0.019873	1.000595	-0.248246
F136	F	0.336687	1.399449	-0.304393
F137	F	0.198333	1.596996	-0.491005
H138	H	-0.011482	1.000579	0.072557
F139	F	0.367821	1.596991	0.092032
H140	H	0.291436	1.000558	0.127438
F141	F	0.220522	1.000563	-0.184274
H142	H	0.189401	1.000573	0.052584
