data_functionalizedCrystal
_audit_creation_method	'MofGen! by Chris Wilmer'
_symmetry_space_group_name_H-M	'P1'
_symmetry_Int_Tables_number	1
_symmetry_cell_setting	triclinic
loop_
_symmetry_equiv_pos_as_xyz
  x,y,z
_cell_length_a	12.594517
_cell_length_b	19.121063
_cell_length_c	12.594510
_cell_angle_alpha	87.599829
_cell_angle_beta	90.022787
_cell_angle_gamma	92.468805
loop_
_atom_site_label
_atom_site_type_symbol
_atom_site_fract_x
_atom_site_fract_y
_atom_site_fract_z
Zn1	Zn	1.609125	-0.279555	0.619878
Zn2	Zn	2.109125	0.220445	1.119878
Zn3	Zn	1.601381	-0.397029	0.449471
Zn4	Zn	2.101381	0.102971	0.949471
Zn5	Zn	1.431121	-0.279597	0.441910
Zn6	Zn	1.931121	0.220403	0.941910
Zn7	Zn	1.423484	-0.396969	0.627397
Zn8	Zn	1.923484	0.103031	1.127397
O9	O	1.516278	-0.338287	0.534664
O10	O	2.016278	0.161713	1.034664
O11	O	1.757043	-0.295146	0.597291
O12	O	2.257043	0.204854	1.097291
O13	O	1.578751	-0.381494	0.299525
O14	O	2.078751	0.118506	0.799525
O15	O	1.461171	-0.181307	0.459206
O16	O	1.961171	0.318693	0.959206
O17	O	1.751353	-0.381454	0.472094
O18	O	2.251353	0.118546	0.972094
O19	O	1.591949	-0.181277	0.589959
O20	O	2.091949	0.318723	1.089959
O21	O	1.453662	-0.295217	0.293969
O22	O	1.953662	0.204783	0.793969
O23	O	1.281163	-0.295159	0.466497
O24	O	1.781163	0.204841	0.966497
O25	O	1.448155	-0.381351	0.775343
O26	O	1.948155	0.118649	1.275343
O27	O	1.275552	-0.381391	0.602774
O28	O	1.775552	0.118609	1.102774
O29	O	1.584544	-0.295087	0.769819
O30	O	2.084544	0.204913	1.269819
O31	O	1.571345	-0.495305	0.479384
O32	O	2.071345	0.004695	0.979384
O33	O	1.440646	-0.495261	0.610106
O34	O	1.940646	0.004739	1.110106
C35	C	1.239738	-0.338273	0.534632
C36	C	1.739738	0.161727	1.034632
C37	C	1.121431	-0.338284	0.534644
C38	C	1.621431	0.161716	1.034644
C39	C	1.055203	-0.291318	0.460655
C40	C	1.555203	0.208682	0.960655
C41	C	0.980230	-0.355385	0.438604
C42	C	1.480230	0.144615	0.938604
C43	C	0.985603	-0.274249	0.556715
C44	C	1.485603	0.225751	1.056715
C45	C	1.048014	-0.402385	0.512545
C46	C	1.548014	0.097615	1.012545
C47	C	1.053397	-0.321205	0.630698
C48	C	1.553397	0.178795	1.130698
C49	C	0.978453	-0.385316	0.608687
C50	C	1.478453	0.114684	1.108687
C51	C	1.504355	-0.520767	0.546405
C52	C	2.004355	-0.020767	1.046405
C53	C	1.499352	-0.598832	0.551463
C54	C	1.999352	-0.098832	1.051463
C55	C	1.565103	-0.635507	0.485836
C56	C	2.065103	-0.135507	0.985836
C57	C	1.560404	-0.708858	0.490600
C58	C	2.060404	-0.208858	0.990600
C59	C	1.489948	-0.745532	0.560986
C60	C	1.989948	-0.245532	1.060986
C61	C	1.424195	-0.708852	0.626620
C62	C	1.924195	-0.208852	1.126620
C63	C	1.428900	-0.635503	0.621861
C64	C	1.928900	-0.135503	1.121861
C65	C	1.472340	-0.967000	0.578762
C66	C	1.972340	-0.467000	1.078762
C67	C	1.467637	-1.040355	0.583514
C68	C	1.967637	-0.540355	1.083514
C69	C	1.603849	-1.040356	0.447495
C70	C	2.103849	-0.540356	0.947495
C71	C	1.608543	-0.967005	0.442738
C72	C	2.108543	-0.467005	0.942738
C73	C	1.542794	-0.930331	0.508376
C74	C	2.042794	-0.430331	1.008376
C75	C	1.485141	-0.820509	0.565855
C76	C	1.985141	-0.320509	1.065855
C77	C	1.547607	-0.855356	0.503512
C78	C	2.047607	-0.355356	1.003512
C79	C	1.793898	-0.338302	0.534697
C80	C	2.293898	0.161698	1.034697
C81	C	1.912203	-0.338308	0.534711
C82	C	2.412203	0.161692	1.034711
C83	C	1.516361	-0.338208	0.812280
C84	C	2.016361	0.161792	1.312280
C85	C	1.516397	-0.338174	0.930583
C86	C	2.016397	0.161826	1.430583
C87	C	1.528275	-0.155096	0.522900
C88	C	2.028275	0.344904	1.022900
C89	C	1.533388	-0.077030	0.517887
C90	C	2.033388	0.422970	1.017887
C91	C	1.516259	-0.338316	0.258125
C92	C	2.016259	0.161684	0.758125
C93	C	1.516442	-0.338152	0.139809
C94	C	2.016442	0.161848	0.639809
C95	C	1.590605	-0.291241	1.067594
C96	C	2.090605	0.208759	1.567594
C97	C	1.612430	-0.355328	1.000904
C98	C	2.112430	0.144672	1.500904
C99	C	1.494619	-0.274095	0.995702
C100	C	1.994619	0.225905	1.495702
C101	C	1.538316	-0.402273	1.074679
C102	C	2.038316	0.097727	1.574679
C103	C	1.420462	-0.320996	1.069481
C104	C	1.920462	0.179004	1.569481
C105	C	1.442247	-0.385127	1.002825
C106	C	1.942247	0.114873	1.502825
H107	H	1.622471	-0.605652	0.428516
H108	H	2.122471	-0.105652	0.928516
Br109	Br	0.926726	-0.379490	0.303264
Br110	Br	1.426726	0.120510	0.803264
H111	H	1.085524	-0.306725	0.711875
H112	H	1.585524	0.193275	1.211875
H113	H	1.556874	-0.456466	1.109106
H114	H	2.056874	0.043534	1.609106
Br115	Br	1.747681	-0.379540	0.950639
Br116	Br	2.247681	0.120460	1.450639
Br117	Br	1.693080	-1.090131	0.358425
Br118	Br	2.193080	-0.590131	0.858425
Br119	Br	1.093711	-0.492690	0.481321
Br120	Br	1.593711	0.007310	0.981321
H121	H	1.379508	-0.424853	0.974488
H122	H	1.879508	0.075147	1.474488
Br123	Br	0.922767	-0.451604	0.713032
Br124	Br	1.422767	0.048396	1.213032
H125	H	1.427774	-0.850377	0.623161
H126	H	1.927774	-0.350377	1.123161
H127	H	1.366833	-0.738718	0.683934
H128	H	1.866833	-0.238718	1.183934
H129	H	1.604976	-0.825494	0.446207
H130	H	2.104976	-0.325494	0.946207
Br131	Br	1.695234	-0.225185	1.115168
Br132	Br	2.195234	0.274815	1.615168
H133	H	1.375360	-0.605642	0.675303
H134	H	1.875360	-0.105642	1.175303
H135	H	1.339339	-0.306452	1.099663
H136	H	1.839339	0.193548	1.599663
Br137	Br	1.463884	-0.183790	0.938100
Br138	Br	1.963884	0.316210	1.438100
H139	H	0.957995	-0.220092	0.575319
H140	H	1.457995	0.279908	1.075319
H141	H	1.088800	-0.251639	0.398013
H142	H	1.588800	0.248361	0.898013
H143	H	1.613945	-0.738716	0.437159
H144	H	2.113945	-0.238716	0.937159
H145	H	1.665914	-0.937146	0.385424
H146	H	2.165914	-0.437146	0.885424
H147	H	1.410276	-1.070213	0.640850
H148	H	1.910276	-0.570213	1.140850
H149	H	1.418802	-0.937146	0.632206
H150	H	1.918802	-0.437146	1.132206
