data_functionalizedCrystal
_audit_creation_method	'MofGen! by Chris Wilmer'
_symmetry_space_group_name_H-M	'P1'
_symmetry_Int_Tables_number	1
_symmetry_cell_setting	triclinic
loop_
_symmetry_equiv_pos_as_xyz
  x,y,z
_cell_length_a	12.503552
_cell_length_b	14.853567
_cell_length_c	14.853567
_cell_angle_alpha	96.365070
_cell_angle_beta	86.471599
_cell_angle_gamma	86.474799
loop_
_atom_site_label
_atom_site_type_symbol
_atom_site_fract_x
_atom_site_fract_y
_atom_site_fract_z
O1	O	0.089238	-1.201558	0.112504
O2	O	0.089255	-0.939100	0.126524
O3	O	0.089249	-1.077340	-0.011716
O4	O	0.089243	-1.063318	0.250744
O5	O	-0.089393	-1.066931	-0.001310
O6	O	-0.089387	-0.928691	0.136930
O7	O	-0.089404	-1.191150	0.122910
Cu8	Cu	-0.105707	-1.058970	0.130870
Cu9	Cu	0.105558	-1.071279	0.118564
O10	O	-0.089399	-1.052910	0.261150
C11	C	-0.000064	-0.900307	0.131092
C12	C	-0.000057	-0.800224	0.129188
N13	N	-0.254300	-1.050319	0.139525
C14	C	-0.526735	-1.092659	0.097168
C15	C	-0.473408	-1.037601	0.152256
C16	C	-0.351485	-1.044679	0.145170
C17	C	-0.648669	-1.085582	0.104252
C18	C	-0.000069	-1.071500	-0.040102
C19	C	-0.000059	-1.069597	-0.140186
N20	N	0.254150	-1.079937	0.109902
C21	C	-0.000083	-1.229943	0.118342
C22	C	-0.000083	-1.330026	0.120246
C23	C	-0.000079	-0.387688	0.039023
C24	C	-0.000081	-0.366407	0.203256
C25	C	-0.000078	-0.460441	0.205046
C26	C	-0.000073	-0.518103	0.123823
C27	C	-0.000072	-0.481732	0.040810
C28	C	-0.000068	-0.496821	0.288057
C29	C	-0.000064	-0.590860	0.289850
C30	C	-0.000067	-0.648524	0.208626
C31	C	-0.000067	-0.612147	0.125610
C32	C	-0.000062	-0.669809	0.044388
C33	C	-0.000070	-0.633433	-0.038629
C34	C	-0.000075	-0.539395	-0.040413
C35	C	-0.000061	-0.742561	0.210410
C36	C	-0.000056	-0.763852	0.046175
C37	C	-0.000074	-0.979431	-0.552719
C38	C	-0.000085	-1.143663	-0.573999
C39	C	-0.000078	-1.145453	-0.479966
C40	C	-0.000072	-1.064231	-0.422304
C41	C	-0.000071	-0.981218	-0.458676
C42	C	-0.000090	-1.228464	-0.443586
C43	C	-0.000085	-1.230258	-0.349547
C44	C	-0.000070	-1.149035	-0.291885
C45	C	-0.000069	-1.066019	-0.328262
C46	C	-0.000062	-0.984797	-0.270600
C47	C	-0.000052	-0.901780	-0.306976
C48	C	-0.000056	-0.899996	-0.401014
C49	C	-0.000066	-1.150819	-0.197847
C50	C	-0.000059	-0.986584	-0.176558
C51	C	-0.000078	-1.058749	0.289536
C52	C	-0.000081	-1.060653	0.389620
H53	H	-0.519322	-0.985148	0.204740
H54	H	-0.000099	-1.209790	-0.620952
H55	H	-0.000059	-0.680394	-0.104761
H56	H	-0.000091	-1.297854	-0.319939
H57	H	-0.480826	-1.145109	0.044688
H58	H	-0.000056	-0.810795	-0.019968
H59	H	-0.000054	-0.835649	-0.260016
H60	H	-0.000081	-1.218410	-0.168234
H61	H	-0.000107	-0.509767	-0.107999
H62	H	-0.000089	-0.358067	-0.028567
H63	H	-0.000076	-0.319454	0.269383
H64	H	-0.000061	-0.449867	0.354183
H65	H	-0.000057	-0.620469	0.357447
H66	H	-0.000057	-0.772175	0.278001
H67	H	-0.000048	-0.920443	-0.129615
H68	H	-0.000050	-0.832408	-0.430640
H69	H	-0.000062	-0.911841	-0.582341
H70	H	-0.000106	-1.294590	-0.490540
