data_functionalizedCrystal
_audit_creation_method	'MofGen! by Chris Wilmer'
_symmetry_space_group_name_H-M	'P1'
_symmetry_Int_Tables_number	1
_symmetry_cell_setting	triclinic
loop_
_symmetry_equiv_pos_as_xyz
  x,y,z
_cell_length_a	14.853567
_cell_length_b	12.811432
_cell_length_c	11.892095
_cell_angle_alpha	80.673990
_cell_angle_beta	86.098450
_cell_angle_gamma	96.161096
loop_
_atom_site_label
_atom_site_type_symbol
_atom_site_fract_x
_atom_site_fract_y
_atom_site_fract_z
O1	O	1.201641	-0.131299	-0.080460
O2	O	0.939123	-0.147742	-0.078793
O3	O	1.077950	0.014386	-0.095402
O4	O	1.062813	-0.293426	-0.063851
O5	O	1.066375	0.000889	0.093988
O6	O	0.927548	-0.161239	0.110597
O7	O	1.190066	-0.144796	0.108930
Zn8	Zn	1.056969	-0.155160	0.139833
Zn9	Zn	1.072220	-0.137377	-0.109697
O10	O	1.051238	-0.306924	0.125539
C11	C	0.899749	-0.153745	0.015823
C12	C	0.799674	-0.151511	0.015587
C13	C	1.071670	0.047031	-0.004747
C14	C	1.070192	0.164410	-0.016786
N15	N	1.046567	-0.167296	0.310130
C16	C	0.387522	-0.045767	0.004773
C17	C	0.365543	-0.238379	0.024515
C18	C	0.459570	-0.240478	0.024726
C19	C	0.517577	-0.145220	0.014959
C20	C	0.481558	-0.047863	0.004981
C21	C	0.495597	-0.337833	0.034693
C22	C	0.589628	-0.339936	0.034904
C23	C	0.647637	-0.244677	0.025145
C24	C	0.611612	-0.147316	0.015167
C25	C	0.669620	-0.052058	0.005400
C26	C	0.633597	0.045304	-0.004569
C27	C	0.539566	0.047396	-0.004778
C28	C	0.741667	-0.246770	0.025353
C29	C	0.763655	-0.054154	0.005608
C30	C	1.229439	-0.138792	0.014311
C31	C	1.329515	-0.141025	0.014540
C32	C	1.074414	0.337205	-0.136974
C33	C	1.075807	0.226918	-0.125675
C34	C	1.063187	0.212195	0.080810
C35	C	1.061794	0.322481	0.069511
C36	C	1.067406	0.384982	-0.039385
C37	C	1.066007	0.495270	-0.050683
C38	C	1.053394	0.480545	0.155800
C39	C	1.054787	0.370258	0.167100
C40	C	1.057520	0.660432	0.034881
C41	C	1.059002	0.543055	0.046913
N42	N	1.082628	-0.125233	-0.279995
C43	C	1.155008	-0.040726	0.533812
C44	C	1.147744	-0.049217	0.653024
C45	C	1.024771	-0.192762	0.667767
C46	C	1.032035	-0.184271	0.548555
C47	C	1.097157	-0.108252	0.481582
C48	C	1.104425	-0.099767	0.362369
C49	C	0.981448	-0.243306	0.377113
C50	C	0.974184	-0.251797	0.496325
H51	H	0.810879	0.023418	-0.002341
O52	O	1.218375	0.032956	0.468727
C53	C	1.278026	-0.018901	0.405576
H54	H	1.277110	-0.104853	0.450053
H55	H	1.255321	-0.017934	0.315785
C56	C	1.376219	0.144824	0.343177
C57	C	1.375099	0.039258	0.397810
H58	H	1.436097	0.180701	0.338381
H59	H	1.336029	0.179762	0.385719
H60	H	1.357293	0.145615	0.268357
H61	H	1.394013	0.038468	0.472633
H62	H	1.415294	0.004321	0.355279
H63	H	1.070570	0.546156	-0.139351
O64	O	0.352567	0.048819	-0.004716
C65	C	0.376271	0.099917	0.087398
H66	H	0.391504	0.038105	0.161789
H67	H	0.439061	0.160325	0.059184
C68	C	0.278059	0.233549	0.034275
C69	C	0.296760	0.157629	0.125646
H70	H	0.229015	0.269153	0.057866
H71	H	0.262091	0.199126	-0.027787
H72	H	0.330390	0.283879	0.010772
H73	H	0.244433	0.107293	0.149138
H74	H	0.312717	0.192045	0.187713
H75	H	0.971745	-0.254648	0.722311
H76	H	1.157452	-0.037871	0.307840
O77	O	0.910886	-0.325502	0.561501
C78	C	0.851196	-0.273672	0.624628
H79	H	0.886221	-0.192277	0.634000
H80	H	0.787386	-0.263084	0.577949
C81	C	0.781862	-0.441276	0.732471
C82	C	0.824883	-0.341310	0.743990
H83	H	0.765626	-0.483000	0.806098
H84	H	0.822073	-0.476196	0.689939
H85	H	0.728691	-0.432439	0.693568
H86	H	0.878058	-0.350148	0.782880
H87	H	0.784680	-0.306393	0.786532
O88	O	1.204037	0.016430	0.703580
C89	C	1.263051	0.085364	0.618898
H90	H	1.269140	0.048063	0.538365
H91	H	1.234749	0.164871	0.598164
C92	C	1.350045	0.149464	0.762100
C93	C	1.357529	0.103646	0.663192
H94	H	1.408322	0.160746	0.789423
H95	H	1.310285	0.103025	0.819153
H96	H	1.326456	0.215715	0.744809
H97	H	1.381107	0.037390	0.680488
H98	H	1.397296	0.150074	0.606142
H99	H	0.510226	0.126661	-0.012867
H100	H	0.934344	-0.298294	0.334575
O101	O	0.776814	-0.341238	0.034978
C102	C	0.872244	-0.322667	0.033104
H103	H	0.896722	-0.237630	-0.011201
H104	H	0.892857	-0.334306	0.124494
C105	C	0.885510	-0.505974	0.021871
C106	C	0.915575	-0.401532	-0.032555
H107	H	0.912240	-0.554624	-0.018626
H108	H	0.821217	-0.518487	0.023138
H109	H	0.902689	-0.515658	0.098026
H110	H	0.898386	-0.391846	-0.108703
H111	H	0.979867	-0.389019	-0.033836
O112	O	0.690050	0.137776	-0.014203
C113	C	0.751063	0.149323	-0.112782
H114	H	0.757590	0.067722	-0.136885
H115	H	0.724442	0.202558	-0.186413
C116	C	0.836840	0.300477	-0.058836
C117	C	0.844862	0.200252	-0.088434
H118	H	0.894699	0.331896	-0.043821
H119	H	0.795733	0.292700	0.007576
H120	H	0.814652	0.344827	-0.120200
H121	H	0.867039	0.155900	-0.027065
H122	H	0.885975	0.208022	-0.154836
H123	H	0.318309	-0.315933	0.032457
H124	H	0.448361	-0.415386	0.042633
O125	O	1.046419	0.526869	0.250652
C126	C	0.964869	0.483536	0.317428
H127	H	0.914395	0.449242	0.260956
H128	H	0.979393	0.417602	0.388075
C129	C	0.986347	0.613716	0.440580
C130	C	0.924350	0.571603	0.371218
H131	H	0.961354	0.668037	0.473765
H132	H	1.041290	0.642908	0.395595
H133	H	0.998444	0.558761	0.499443
H134	H	0.912263	0.626555	0.312349
H135	H	0.869404	0.542423	0.416195
H136	H	1.078970	0.388093	-0.225641
H137	H	1.081514	0.188023	-0.205142
O138	O	0.624464	-0.434604	0.044657
C139	C	0.553102	-0.518227	0.053201
H140	H	0.487107	-0.491052	0.086007
H141	H	0.545272	-0.541144	-0.034645
C142	C	0.655933	-0.648702	0.096595
C143	C	0.574878	-0.615328	0.136897
H144	H	0.669366	-0.708601	0.148218
H145	H	0.704012	-0.592364	0.090835
H146	H	0.649398	-0.667792	0.023390
H147	H	0.581418	-0.596226	0.210094
H148	H	0.526801	-0.671665	0.142672
O149	O	1.057576	0.151387	0.186552
C150	C	0.979960	0.075271	0.200435
H151	H	0.928563	0.104411	0.139295
H152	H	1.000364	-0.003641	0.180957
C153	C	1.000168	0.023571	0.399593
C154	C	0.937038	0.059365	0.324508
H155	H	0.973693	0.013755	0.476128
H156	H	1.052462	0.074849	0.390240
H157	H	1.017166	-0.042185	0.383348
H158	H	0.920050	0.125127	0.340745
H159	H	0.884740	0.008098	0.333867
H160	H	1.050222	0.319356	0.255759
