data_functionalizedCrystal
_audit_creation_method	'MofGen! by Chris Wilmer'
_symmetry_space_group_name_H-M	'P1'
_symmetry_Int_Tables_number	1
_symmetry_cell_setting	triclinic
loop_
_symmetry_equiv_pos_as_xyz
  x,y,z
_cell_length_a	25.639239
_cell_length_b	21.295420
_cell_length_c	21.295411
_cell_angle_alpha	90.025759
_cell_angle_beta	89.980474
_cell_angle_gamma	89.967272
loop_
_atom_site_label
_atom_site_type_symbol
_atom_site_fract_x
_atom_site_fract_y
_atom_site_fract_z
Zn1	Zn	-0.208293	-0.962319	-0.355941
Zn2	Zn	0.041707	-0.712319	-0.105941
Zn3	Zn	0.291707	-0.462319	0.144059
Zn4	Zn	0.541707	-0.212319	0.394059
Zn5	Zn	-0.295713	-0.962207	-0.250670
Zn6	Zn	-0.045713	-0.712207	-0.000670
Zn7	Zn	0.204287	-0.462207	0.249330
Zn8	Zn	0.454287	-0.212207	0.499330
Zn9	Zn	-0.208285	-0.857043	-0.250684
Zn10	Zn	0.041715	-0.607043	-0.000684
Zn11	Zn	0.291715	-0.357043	0.249316
Zn12	Zn	0.541715	-0.107043	0.499316
Zn13	Zn	-0.295691	-0.856997	-0.355900
Zn14	Zn	-0.045691	-0.606997	-0.105900
Zn15	Zn	0.204309	-0.356997	0.144100
Zn16	Zn	0.454309	-0.106997	0.394100
O17	O	-0.251996	-0.909642	-0.303298
O18	O	-0.001996	-0.659642	-0.053298
O19	O	0.248004	-0.409642	0.196702
O20	O	0.498004	-0.159642	0.446702
O21	O	-0.219903	-1.050394	-0.341988
O22	O	0.030097	-0.800394	-0.091988
O23	O	0.280097	-0.550394	0.158012
O24	O	0.530097	-0.300394	0.408012
O25	O	-0.284122	-0.948229	-0.162582
O26	O	-0.034122	-0.698229	0.087418
O27	O	0.215878	-0.448229	0.337418
O28	O	0.465878	-0.198229	0.587418
O29	O	-0.135121	-0.871074	-0.264669
O30	O	0.114879	-0.621074	-0.014669
O31	O	0.364879	-0.371074	0.235331
O32	O	0.614879	-0.121074	0.485331
O33	O	-0.284130	-1.050311	-0.264646
O34	O	-0.034130	-0.800311	-0.014646
O35	O	0.215870	-0.550311	0.235354
O36	O	0.465870	-0.300311	0.485354
O37	O	-0.135127	-0.948421	-0.342001
O38	O	0.114873	-0.698421	-0.092001
O39	O	0.364873	-0.448421	0.157999
O40	O	0.614873	-0.198421	0.407999
O41	O	-0.219888	-0.870965	-0.162592
O42	O	0.030112	-0.620965	0.087408
O43	O	0.280112	-0.370965	0.337408
O44	O	0.530112	-0.120965	0.587408
O45	O	-0.219866	-0.768947	-0.264629
O46	O	0.030134	-0.518947	-0.014629
O47	O	0.280134	-0.268947	0.235371
O48	O	0.530134	-0.018947	0.485371
O49	O	-0.284091	-0.870996	-0.443994
O50	O	-0.034091	-0.620996	-0.193994
O51	O	0.215909	-0.370996	0.056006
O52	O	0.465909	-0.120996	0.306006
O53	O	-0.284083	-0.768914	-0.341931
O54	O	-0.034083	-0.518914	-0.091931
O55	O	0.215917	-0.268914	0.158069
O56	O	0.465917	-0.018914	0.408069
O57	O	-0.219881	-0.948376	-0.444025
O58	O	0.030119	-0.698376	-0.194025
O59	O	0.280119	-0.448376	0.055975
O60	O	0.530119	-0.198376	0.305975
O61	O	-0.368876	-0.948184	-0.264606
O62	O	-0.118876	-0.698184	-0.014606
O63	O	0.131124	-0.448184	0.235394
O64	O	0.381124	-0.198184	0.485394
O65	O	-0.368859	-0.870887	-0.341918
O66	O	-0.118859	-0.620887	-0.091918
O67	O	0.131141	-0.370887	0.158082
O68	O	0.381141	-0.120887	0.408082
C69	C	-0.251971	-0.746090	-0.303277
C70	C	-0.001971	-0.496090	-0.053277
C71	C	0.248029	-0.246090	0.196723
C72	C	0.498029	0.003910	0.446723
C73	C	-0.251974	-0.676122	-0.303283
C74	C	-0.001974	-0.426122	-0.053283
C75	C	0.248026	-0.176122	0.196717
C76	C	0.498026	0.073878	0.446717
C77	C	-0.218613	-0.176706	-0.343630
C78	C	0.031387	0.073294	-0.093630
C79	C	0.281387	0.323294	0.156370
C80	C	0.531387	0.573294	0.406370
C81	C	-0.218611	-0.242449	-0.343632
C82	C	0.031389	0.007551	-0.093632
C83	C	0.281389	0.257551	0.156368
C84	C	0.531389	0.507551	0.406368
C85	C	-0.251995	-0.275282	-0.303300
C86	C	-0.001995	-0.025282	-0.053300
C87	C	0.248005	0.224718	0.196700
C88	C	0.498005	0.474718	0.446700
C89	C	-0.285395	-0.242368	-0.262976
C90	C	-0.035395	0.007632	-0.012976
C91	C	0.214605	0.257632	0.237024
C92	C	0.464605	0.507632	0.487024
C93	C	-0.285400	-0.176627	-0.262980
C94	C	-0.035400	0.073373	-0.012980
C95	C	0.214600	0.323373	0.237020
C96	C	0.464600	0.573373	0.487020
N97	N	-0.255931	-0.378472	-0.248183
N98	N	-0.005931	-0.128472	0.001817
N99	N	0.244069	0.121528	0.251817
N100	N	0.494069	0.371528	0.501817
N101	N	-0.255924	-0.440923	-0.248180
N102	N	-0.005924	-0.190923	0.001820
N103	N	0.244076	0.059077	0.251820
N104	N	0.494076	0.309077	0.501820
C105	C	-0.251983	-0.473357	-0.303286
C106	C	-0.001983	-0.223357	-0.053286
C107	C	0.248017	0.026643	0.196714
C108	C	0.498017	0.276643	0.446714
N109	N	-0.248041	-0.440981	-0.358395
N110	N	0.001959	-0.190981	-0.108395
N111	N	0.251959	0.059019	0.141605
N112	N	0.501959	0.309019	0.391605
N113	N	-0.248046	-0.378523	-0.358396
N114	N	0.001954	-0.128523	-0.108396
N115	N	0.251954	0.121477	0.141604
N116	N	0.501954	0.371477	0.391604
C117	C	-0.251994	-0.346568	-0.303291
C118	C	-0.001994	-0.096568	-0.053291
C119	C	0.248006	0.153432	0.196709
C120	C	0.498006	0.403432	0.446709
C121	C	-0.218587	-0.577549	-0.343612
C122	C	0.031413	-0.327549	-0.093612
C123	C	0.281413	-0.077549	0.156388
C124	C	0.531413	0.172451	0.406388
C125	C	-0.218588	-0.643293	-0.343614
C126	C	0.031412	-0.393293	-0.093614
C127	C	0.281412	-0.143293	0.156386
C128	C	0.531412	0.106707	0.406386
C129	C	-0.285369	-0.643211	-0.262953
C130	C	-0.035369	-0.393211	-0.012953
C131	C	0.214631	-0.143211	0.237047
C132	C	0.464631	0.106789	0.487047
C133	C	-0.285370	-0.577468	-0.262956
C134	C	-0.035370	-0.327468	-0.012956
C135	C	0.214630	-0.077468	0.237044
C136	C	0.464630	0.172532	0.487044
C137	C	-0.251976	-0.544641	-0.303285
C138	C	-0.001976	-0.294641	-0.053285
C139	C	0.248024	-0.044641	0.196715
C140	C	0.498024	0.205359	0.446715
C141	C	-0.387838	-0.909536	-0.303270
C142	C	-0.137838	-0.659536	-0.053270
C143	C	0.112162	-0.409536	0.196730
C144	C	0.362162	-0.159536	0.446730
C145	C	-0.445952	-0.909548	-0.303278
C146	C	-0.195952	-0.659548	-0.053278
C147	C	0.054048	-0.409548	0.196722
C148	C	0.304048	-0.159548	0.446722
C149	C	-0.806311	-0.949995	-0.263111
C150	C	-0.556311	-0.699995	-0.013111
C151	C	-0.306311	-0.449995	0.236889
C152	C	-0.056311	-0.199995	0.486889
C153	C	-0.860916	-0.950020	-0.263119
C154	C	-0.610916	-0.700020	-0.013119
C155	C	-0.360916	-0.450020	0.236881
C156	C	-0.110916	-0.200020	0.486881
O157	O	-0.889149	-0.984300	-0.228936
O158	O	-0.639149	-0.734300	0.021064
O159	O	-0.389149	-0.484300	0.271064
O160	O	-0.139149	-0.234300	0.521064
N161	N	-0.888235	-0.909752	-0.303340
N162	N	-0.638235	-0.659752	-0.053340
N163	N	-0.388235	-0.409752	0.196660
N164	N	-0.138235	-0.159752	0.446660
C165	C	-0.860946	-0.869462	-0.343560
C166	C	-0.610946	-0.619462	-0.093560
C167	C	-0.360946	-0.369462	0.156440
C168	C	-0.110946	-0.119462	0.406440
O169	O	-0.889197	-0.835214	-0.377772
O170	O	-0.639197	-0.585214	-0.127772
O171	O	-0.389197	-0.335214	0.122228
O172	O	-0.139197	-0.085214	0.372228
C173	C	-0.806343	-0.869441	-0.343554
C174	C	-0.556343	-0.619441	-0.093554
C175	C	-0.306343	-0.369441	0.156446
C176	C	-0.056343	-0.119441	0.406446
C177	C	-0.779027	-0.909707	-0.303326
C178	C	-0.529027	-0.659707	-0.053326
C179	C	-0.279027	-0.409707	0.196674
C180	C	-0.029027	-0.159707	0.446674
C181	C	-0.778995	-0.990258	-0.222887
C182	C	-0.528995	-0.740258	0.027113
C183	C	-0.278995	-0.490258	0.277113
C184	C	-0.028995	-0.240258	0.527113
C185	C	-0.724395	-0.990233	-0.222878
C186	C	-0.474395	-0.740233	0.027122
C187	C	-0.224395	-0.490233	0.277122
C188	C	0.025605	-0.240233	0.527122
C189	C	-0.697110	-0.949944	-0.263093
C190	C	-0.447110	-0.699944	-0.013093
C191	C	-0.197110	-0.449944	0.236907
C192	C	0.052890	-0.199944	0.486907
C193	C	-0.724426	-0.909682	-0.303317
C194	C	-0.474426	-0.659682	-0.053317
C195	C	-0.224426	-0.409682	0.196683
C196	C	0.025574	-0.159682	0.446683
C197	C	-0.779056	-0.829155	-0.383776
C198	C	-0.529056	-0.579155	-0.133776
C199	C	-0.279056	-0.329155	0.116224
C200	C	-0.029056	-0.079155	0.366224
C201	C	-0.724449	-0.829138	-0.383768
C202	C	-0.474449	-0.579138	-0.133768
C203	C	-0.224449	-0.329138	0.116232
C204	C	0.025551	-0.079138	0.366232
C205	C	-0.697133	-0.869404	-0.343540
C206	C	-0.447133	-0.619404	-0.093540
C207	C	-0.197133	-0.369404	0.156460
C208	C	0.052867	-0.119404	0.406460
C209	C	-0.642542	-0.869368	-0.343523
C210	C	-0.392542	-0.619368	-0.093523
C211	C	-0.142542	-0.369368	0.156477
C212	C	0.107458	-0.119368	0.406477
N213	N	-0.615223	-0.909636	-0.303302
N214	N	-0.365223	-0.659636	-0.053302
N215	N	-0.115223	-0.409636	0.196698
N216	N	0.134777	-0.159636	0.446698
C217	C	-0.642507	-0.949924	-0.263087
C218	C	-0.392507	-0.699924	-0.013087
C219	C	-0.142507	-0.449924	0.236913
C220	C	0.107493	-0.199924	0.486913
C221	C	-0.975617	-0.869510	-0.343569
C222	C	-0.725617	-0.619510	-0.093569
C223	C	-0.475617	-0.369510	0.156431
C224	C	-0.225617	-0.119510	0.406431
C225	C	-1.030219	-0.869527	-0.343573
C226	C	-0.780219	-0.619527	-0.093573
C227	C	-0.530219	-0.369527	0.156427
C228	C	-0.280219	-0.119527	0.406427
C229	C	-1.030185	-0.950085	-0.263133
C230	C	-0.780185	-0.700085	-0.013133
C231	C	-0.530185	-0.450085	0.236867
C232	C	-0.280185	-0.200085	0.486867
C233	C	-0.975582	-0.950064	-0.263127
C234	C	-0.725582	-0.700064	-0.013127
C235	C	-0.475582	-0.450064	0.236873
C236	C	-0.225582	-0.200064	0.486873
C237	C	-0.948298	-0.909777	-0.303349
C238	C	-0.698298	-0.659777	-0.053349
C239	C	-0.448298	-0.409777	0.196651
C240	C	-0.198298	-0.159777	0.446651
C241	C	-0.527842	-0.949867	-0.263071
C242	C	-0.277842	-0.699867	-0.013071
C243	C	-0.027842	-0.449867	0.236929
C244	C	0.222158	-0.199867	0.486929
C245	C	-0.473237	-0.949836	-0.263063
C246	C	-0.223237	-0.699836	-0.013063
C247	C	0.026763	-0.449836	0.236937
C248	C	0.276763	-0.199836	0.486937
C249	C	-0.473276	-0.869280	-0.343505
C250	C	-0.223276	-0.619280	-0.093505
C251	C	0.026724	-0.369280	0.156495
C252	C	0.276724	-0.119280	0.406495
C253	C	-0.527876	-0.869309	-0.343510
C254	C	-0.277876	-0.619309	-0.093510
C255	C	-0.027876	-0.369309	0.156490
C256	C	0.222124	-0.119309	0.406490
C257	C	-0.555158	-0.909607	-0.303291
C258	C	-0.305158	-0.659607	-0.053291
C259	C	-0.055158	-0.409607	0.196709
C260	C	0.194842	-0.159607	0.446709
O261	O	-0.614273	-0.835108	-0.377691
O262	O	-0.364273	-0.585108	-0.127691
O263	O	-0.114273	-0.335108	0.122309
O264	O	0.135727	-0.085108	0.372309
O265	O	-0.614250	-0.984172	-0.228886
O266	O	-0.364250	-0.734172	0.021114
O267	O	-0.114250	-0.484172	0.271114
O268	O	0.135750	-0.234172	0.521114
C269	C	-0.115623	-0.909765	-0.303341
C270	C	0.134377	-0.659765	-0.053341
C271	C	0.384377	-0.409765	0.196659
C272	C	0.634377	-0.159765	0.446659
C273	C	-0.057508	-0.909818	-0.303359
C274	C	0.192492	-0.659818	-0.053359
C275	C	0.442492	-0.409818	0.196641
C276	C	0.692492	-0.159818	0.446641
C277	C	-0.251985	-0.909694	-0.467489
C278	C	-0.001985	-0.659694	-0.217489
C279	C	0.248015	-0.409694	0.032511
C280	C	0.498015	-0.159694	0.282511
C281	C	-0.251980	-0.909716	-0.537457
C282	C	-0.001980	-0.659716	-0.287457
C283	C	0.248020	-0.409716	-0.037457
C284	C	0.498020	-0.159716	0.212543
C285	C	-0.252014	-0.073832	-0.303315
C286	C	-0.002014	0.176168	-0.053315
C287	C	0.247986	0.426168	0.196685
C288	C	0.497986	0.676168	0.446685
C289	C	-0.252005	-0.143800	-0.303309
C290	C	-0.002005	0.106200	-0.053309
C291	C	0.247995	0.356200	0.196691
C292	C	0.497995	0.606200	0.446691
C293	C	-0.218544	-0.950006	-0.570340
C294	C	0.031456	-0.700006	-0.320340
C295	C	0.281456	-0.450006	-0.070340
C296	C	0.531456	-0.200006	0.179660
C297	C	-0.218521	-0.950005	-0.636083
C298	C	0.031479	-0.700005	-0.386083
C299	C	0.281479	-0.450005	-0.136083
C300	C	0.531479	-0.200005	0.113917
C301	C	-0.251944	-0.909721	-0.668940
C302	C	-0.001944	-0.659721	-0.418940
C303	C	0.248056	-0.409721	-0.168940
C304	C	0.498056	-0.159721	0.081060
C305	C	-0.285382	-0.869423	-0.636048
C306	C	-0.035382	-0.619423	-0.386048
C307	C	0.214618	-0.369423	-0.136048
C308	C	0.464618	-0.119423	0.113952
C309	C	-0.285400	-0.869421	-0.570307
C310	C	-0.035400	-0.619421	-0.320307
C311	C	0.214600	-0.369421	-0.070307
C312	C	0.464600	-0.119421	0.179693
N313	N	-0.297682	-0.904856	-0.772157
N314	N	-0.047682	-0.654856	-0.522157
N315	N	0.202318	-0.404856	-0.272157
N316	N	0.452318	-0.154856	-0.022157
N317	N	-0.297663	-0.904862	-0.834608
N318	N	-0.047663	-0.654862	-0.584608
N319	N	0.202337	-0.404862	-0.334608
N320	N	0.452337	-0.154862	-0.084608
C321	C	-0.251891	-0.909725	-0.867014
C322	C	-0.001891	-0.659725	-0.617014
C323	C	0.248109	-0.409725	-0.367014
C324	C	0.498109	-0.159725	-0.117014
N325	N	-0.206137	-0.914594	-0.834610
N326	N	0.043863	-0.664594	-0.584610
N327	N	0.293863	-0.414594	-0.334610
N328	N	0.543863	-0.164594	-0.084610
N329	N	-0.206156	-0.914591	-0.772152
N330	N	0.043844	-0.664591	-0.522152
N331	N	0.293844	-0.414591	-0.272152
N332	N	0.543844	-0.164591	-0.022152
C333	C	-0.251928	-0.909719	-0.740225
C334	C	-0.001928	-0.659719	-0.490225
C335	C	0.248072	-0.409719	-0.240225
C336	C	0.498072	-0.159719	0.009775
C337	C	-0.218428	-0.950016	-0.971183
C338	C	0.031572	-0.700016	-0.721183
C339	C	0.281572	-0.450016	-0.471183
C340	C	0.531572	-0.200016	-0.221183
C341	C	-0.218404	-0.950011	-1.036927
C342	C	0.031596	-0.700011	-0.786927
C343	C	0.281596	-0.450011	-0.536927
C344	C	0.531596	-0.200011	-0.286927
C345	C	-0.285269	-0.869432	-1.036891
C346	C	-0.035269	-0.619432	-0.786891
C347	C	0.214731	-0.369432	-0.536891
C348	C	0.464731	-0.119432	-0.286891
C349	C	-0.285288	-0.869434	-0.971149
C350	C	-0.035288	-0.619434	-0.721149
C351	C	0.214712	-0.369434	-0.471149
C352	C	0.464712	-0.119434	-0.221149
C353	C	-0.251868	-0.909729	-0.938299
C354	C	-0.001868	-0.659729	-0.688299
C355	C	0.248132	-0.409729	-0.438299
C356	C	0.498132	-0.159729	-0.188299
C357	C	-0.251969	-0.909626	-0.139747
C358	C	-0.001969	-0.659626	0.110253
C359	C	0.248031	-0.409626	0.360253
C360	C	0.498031	-0.159626	0.610253
C361	C	-0.251826	-0.909726	-0.069779
C362	C	-0.001826	-0.659726	0.180221
C363	C	0.248174	-0.409726	0.430221
C364	C	0.498174	-0.159726	0.680221
H365	H	-0.312578	-0.269105	-0.230139
H366	H	-0.062578	-0.019105	0.019861
H367	H	0.187422	0.230895	0.269861
H368	H	0.437422	0.480895	0.519861
C369	C	-0.181883	-0.140601	-0.387999
C370	C	0.068117	0.109399	-0.137999
C371	C	0.318117	0.359399	0.112001
C372	C	0.568117	0.609399	0.362001
N373	N	-0.154219	-0.113405	-0.421419
N374	N	0.095781	0.136595	-0.171419
N375	N	0.345781	0.386595	0.078581
N376	N	0.595781	0.636595	0.328581
H377	H	-0.312593	-0.836621	-0.662804
H378	H	-0.062593	-0.586621	-0.412804
H379	H	0.187407	-0.336621	-0.162804
H380	H	0.437407	-0.086621	0.087196
C381	C	-0.181619	-0.994334	-1.073099
C382	C	0.068381	-0.744334	-0.823099
C383	C	0.318381	-0.494334	-0.573099
C384	C	0.568381	-0.244334	-0.323099
N385	N	-0.153912	-1.027720	-1.100344
N386	N	0.096088	-0.777720	-0.850344
N387	N	0.346088	-0.527720	-0.600344
N388	N	0.596088	-0.277720	-0.350344
H389	H	-0.450997	-0.982625	-0.230303
H390	H	-0.200997	-0.732625	0.019697
H391	H	0.049003	-0.482625	0.269697
H392	H	0.299003	-0.232625	0.519697
H393	H	-0.702157	-1.023022	-0.190122
H394	H	-0.452157	-0.773022	0.059878
H395	H	-0.202157	-0.523022	0.309878
H396	H	0.047843	-0.273022	0.559878
C397	C	-0.181660	-0.994336	-0.935046
C398	C	0.068340	-0.744336	-0.685046
C399	C	0.318340	-0.494336	-0.435046
C400	C	0.568340	-0.244336	-0.185046
N401	N	-0.153966	-1.027717	-0.907829
N402	N	0.096034	-0.777717	-0.657829
N403	N	0.346034	-0.527717	-0.407829
N404	N	0.596034	-0.277717	-0.157829
C405	C	-0.322035	-0.825119	-1.073030
C406	C	-0.072035	-0.575119	-0.823030
C407	C	0.177965	-0.325119	-0.573030
C408	C	0.427965	-0.075119	-0.323030
N409	N	-0.349728	-0.791741	-1.100252
N410	N	-0.099728	-0.541741	-0.850252
N411	N	0.150272	-0.291741	-0.600252
N412	N	0.400272	-0.041741	-0.350252
C413	C	-0.322185	-0.825098	-0.534134
C414	C	-0.072185	-0.575098	-0.284134
C415	C	0.177815	-0.325098	-0.034134
C416	C	0.427815	-0.075098	0.215866
N417	N	-0.349893	-0.791714	-0.506888
N418	N	-0.099893	-0.541714	-0.256888
N419	N	0.150107	-0.291714	-0.006888
N420	N	0.400107	-0.041714	0.243112
C421	C	-0.322073	-0.825114	-0.934975
C422	C	-0.072073	-0.575114	-0.684975
C423	C	0.177927	-0.325114	-0.434975
C424	C	0.427927	-0.075114	-0.184975
N425	N	-0.349780	-0.791728	-0.907730
N426	N	-0.099780	-0.541728	-0.657730
N427	N	0.150220	-0.291728	-0.407730
N428	N	0.400220	-0.041728	-0.157730
C429	C	-0.809000	-1.034579	-0.178639
C430	C	-0.559000	-0.784579	0.071361
C431	C	-0.309000	-0.534579	0.321361
C432	C	-0.059000	-0.284579	0.571361
N433	N	-0.831595	-1.067960	-0.145305
N434	N	-0.581595	-0.817960	0.104695
N435	N	-0.331595	-0.567960	0.354695
N436	N	-0.081595	-0.317960	0.604695
H437	H	-0.801287	-0.796364	-0.416531
H438	H	-0.551287	-0.546364	-0.166531
H439	H	-0.301287	-0.296364	0.083469
H440	H	-0.051287	-0.046364	0.333469
H441	H	-0.550048	-0.982683	-0.230322
H442	H	-0.300048	-0.732683	0.019678
H443	H	-0.050048	-0.482683	0.269678
H444	H	0.199952	-0.232683	0.519678
C445	C	-0.322131	-0.140429	-0.218616
C446	C	-0.072131	0.109571	0.031384
C447	C	0.177869	0.359571	0.281384
C448	C	0.427869	0.609571	0.531384
N449	N	-0.349796	-0.113163	-0.185198
N450	N	-0.099796	0.136837	0.064802
N451	N	0.150204	0.386837	0.314802
N452	N	0.400204	0.636837	0.564802
C453	C	-0.181858	-0.541437	-0.387980
C454	C	0.068142	-0.291437	-0.137980
C455	C	0.318142	-0.041437	0.112020
C456	C	0.568142	0.208563	0.362020
N457	N	-0.154195	-0.514240	-0.421400
N458	N	0.095805	-0.264240	-0.171400
N459	N	0.345805	-0.014240	0.078600
N460	N	0.595805	0.235760	0.328600
C461	C	-0.181850	-0.679490	-0.387972
C462	C	0.068150	-0.429490	-0.137972
C463	C	0.318150	-0.179490	0.112028
C464	C	0.568150	0.070510	0.362028
N465	N	-0.154178	-0.706754	-0.421382
N466	N	0.095822	-0.456754	-0.171382
N467	N	0.345822	-0.206754	0.078618
N468	N	0.595822	0.043246	0.328618
H469	H	-0.312556	-0.669943	-0.230119
H470	H	-0.062556	-0.419943	0.019881
H471	H	0.187444	-0.169943	0.269881
H472	H	0.437444	0.080057	0.519881
C473	C	-0.181872	-0.278653	-0.387987
C474	C	0.068128	-0.028653	-0.137987
C475	C	0.318128	0.221347	0.112013
C476	C	0.568128	0.471347	0.362013
N477	N	-0.154199	-0.305920	-0.421394
N478	N	0.095801	-0.055920	-0.171394
N479	N	0.345801	0.194080	0.078606
N480	N	0.595801	0.444080	0.328606
H481	H	-0.312560	-0.550676	-0.230119
H482	H	-0.062560	-0.300676	0.019881
H483	H	0.187440	-0.050676	0.269881
H484	H	0.437440	0.199324	0.519881
H485	H	-0.953344	-0.982852	-0.230370
H486	H	-0.703344	-0.732852	0.019630
H487	H	-0.453344	-0.482852	0.269630
H488	H	-0.203344	-0.232852	0.519630
H489	H	-1.052410	-0.982892	-0.230389
H490	H	-0.802410	-0.732892	0.019611
H491	H	-0.552410	-0.482892	0.269611
H492	H	-0.302410	-0.232892	0.519611
C493	C	-1.060261	-0.825225	-0.387820
C494	C	-0.810261	-0.575225	-0.137820
C495	C	-0.560261	-0.325225	0.112180
C496	C	-0.310261	-0.075225	0.362180
N497	N	-1.082886	-0.791859	-0.421152
N498	N	-0.832886	-0.541859	-0.171152
N499	N	-0.582886	-0.291859	0.078848
N500	N	-0.332886	-0.041859	0.328848
H501	H	-0.953405	-0.836698	-0.376321
H502	H	-0.703405	-0.586698	-0.126321
H503	H	-0.453405	-0.336698	0.123679
H504	H	-0.203405	-0.086698	0.373679
H505	H	-0.550118	-0.836523	-0.376269
H506	H	-0.300118	-0.586523	-0.126269
H507	H	-0.050118	-0.336523	0.123731
H508	H	0.199882	-0.086523	0.373731
C509	C	-0.694440	-0.784818	-0.428016
C510	C	-0.444440	-0.534818	-0.178016
C511	C	-0.194440	-0.284818	0.071984
C512	C	0.055560	-0.034818	0.321984
N513	N	-0.671839	-0.751435	-0.461343
N514	N	-0.421839	-0.501435	-0.211343
N515	N	-0.171839	-0.251435	0.038657
N516	N	0.078161	-0.001435	0.288657
H517	H	-0.191330	-0.982817	-0.543598
H518	H	0.058670	-0.732817	-0.293598
H519	H	0.308670	-0.482817	-0.043598
H520	H	0.558670	-0.232817	0.206402
C521	C	-0.443253	-0.824968	-0.387742
C522	C	-0.193253	-0.574968	-0.137742
C523	C	0.056747	-0.324968	0.112258
C524	C	0.306747	-0.074968	0.362258
N525	N	-0.420637	-0.791596	-0.421066
N526	N	-0.170637	-0.541596	-0.171066
N527	N	0.079363	-0.291596	0.078934
N528	N	0.329363	-0.041596	0.328934
C529	C	-0.181741	-0.994333	-0.672262
C530	C	0.068259	-0.744333	-0.422262
C531	C	0.318259	-0.494333	-0.172262
C532	C	0.568259	-0.244333	0.077738
N533	N	-0.154039	-1.027722	-0.699510
N534	N	0.095961	-0.777722	-0.449510
N535	N	0.345961	-0.527722	-0.199510
N536	N	0.595961	-0.277722	0.050490
