data_functionalizedCrystal
_audit_creation_method	'MofGen! by Chris Wilmer'
_symmetry_space_group_name_H-M	'P1'
_symmetry_Int_Tables_number	1
_symmetry_cell_setting	triclinic
loop_
_symmetry_equiv_pos_as_xyz
  x,y,z
_cell_length_a	12.759401
_cell_length_b	14.908520
_cell_length_c	14.906804
_cell_angle_alpha	90.089375
_cell_angle_beta	86.677111
_cell_angle_gamma	93.320696
loop_
_atom_site_label
_atom_site_type_symbol
_atom_site_fract_x
_atom_site_fract_y
_atom_site_fract_z
Zn1	Zn	1.619804	-0.327950	-0.529075
Zn2	Zn	1.599427	-0.487180	-0.387362
Zn3	Zn	1.433378	-0.336850	-0.378713
Zn4	Zn	1.434552	-0.478259	-0.537706
O5	O	1.521790	-0.407560	-0.458214
O6	O	1.764122	-0.349081	-0.510284
O7	O	1.568382	-0.474697	-0.260369
O8	O	1.466144	-0.209851	-0.391427
O9	O	1.749151	-0.466067	-0.406168
O10	O	1.603111	-0.203312	-0.501897
O11	O	1.446386	-0.364250	-0.254014
O12	O	1.286513	-0.355599	-0.399797
O13	O	1.468145	-0.450862	-0.662408
O14	O	1.287375	-0.459492	-0.516608
O15	O	1.604249	-0.340431	-0.656066
O16	O	1.569520	-0.611815	-0.414538
O17	O	1.448386	-0.605261	-0.524995
C18	C	1.248823	-0.407544	-0.458201
C19	C	1.132047	-0.407558	-0.458218
C20	C	1.077648	-0.461752	-0.518952
C21	C	0.967924	-0.461763	-0.518962
C22	C	0.967006	-0.353383	-0.397497
C23	C	1.076729	-0.353368	-0.397492
C24	C	1.078177	-0.524327	-0.589077
C25	C	0.968453	-0.524338	-0.589087
C26	C	1.506899	-0.641160	-0.471661
C27	C	1.500627	-0.741093	-0.477444
C28	C	1.615121	-0.935637	-0.373385
C29	C	1.609231	-1.029534	-0.378815
C30	C	1.482963	-1.022784	-0.493740
C31	C	1.488853	-0.928888	-0.488309
C32	C	1.554933	-0.885318	-0.428129
C33	C	1.560817	-0.791420	-0.422694
C34	C	1.434555	-0.784672	-0.537623
C35	C	1.428665	-0.878568	-0.543053
C36	C	1.795823	-0.407576	-0.458228
C37	C	1.912600	-0.407583	-0.458234
C38	C	1.538600	-0.393658	-0.692780
C39	C	1.545764	-0.387734	-0.792738
C40	C	1.536770	-0.173046	-0.444734
C41	C	1.543153	-0.073111	-0.438990
C42	C	1.505110	-0.421342	-0.224557
C43	C	1.498166	-0.427013	-0.124585
C44	C	1.417971	-0.492934	0.013238
C45	C	1.424491	-0.487604	-0.080694
C46	C	1.565328	-0.371749	-0.074537
C47	C	1.558808	-0.377079	0.019395
C48	C	1.485126	-0.437673	0.063280
C49	C	1.478602	-0.442998	0.157214
C50	C	1.619444	-0.327148	0.163369
C51	C	1.625964	-0.321818	0.069436
H52	H	1.106207	-0.591914	-0.567820
H53	H	1.121016	-0.309231	-0.348042
C54	C	1.369075	-0.730198	-0.597105
C55	C	1.309926	-0.788458	-0.650949
C56	C	1.249580	-0.738310	-0.705740
H57	H	1.414217	-0.691187	-0.634280
H58	H	1.323103	-0.695681	-0.560566
H59	H	1.355892	-0.822960	-0.687485
H60	H	1.264764	-0.827469	-0.613798
H61	H	1.203608	-0.703793	-0.669201
H62	H	1.294729	-0.699301	-0.742909
H63	H	1.209433	-0.777832	-0.742274
H64	H	1.114135	-0.501655	-0.657690
C65	C	1.674756	-1.084186	-0.319546
C66	C	1.742340	-1.134961	-0.373656
C67	C	1.802749	-1.185299	-0.319096
H68	H	1.629649	-1.123271	-0.282421
H69	H	1.715014	-1.044797	-0.282963
H70	H	1.702085	-1.174346	-0.410223
H71	H	1.787468	-1.095898	-0.410781
H72	H	1.843007	-1.145910	-0.282514
H73	H	1.757634	-1.224379	-0.281973
H74	H	1.848618	-1.219750	-0.355802
C75	C	0.931717	-0.486010	-0.675542
C76	C	1.019224	-0.460599	-0.732804
C77	C	0.985421	-0.425294	-0.812454
H78	H	0.892362	-0.435020	-0.662094
H79	H	0.888792	-0.530300	-0.704185
H80	H	1.062131	-0.416313	-0.704166
H81	H	1.058589	-0.511574	-0.746277
H82	H	0.942497	-0.469584	-0.841097
H83	H	0.946066	-0.374307	-0.798997
H84	H	1.044789	-0.408057	-0.851319
H85	H	1.668919	-0.900162	-0.324377
C86	C	1.411248	-1.070267	-0.558986
C87	C	1.418960	-1.163267	-0.552008
C88	C	1.352900	-1.207037	-0.612089
H89	H	1.431786	-1.051370	-0.618574
H90	H	1.340656	-1.055778	-0.544875
H91	H	1.489537	-1.177749	-0.566125
H92	H	1.398414	-1.182190	-0.492433
H93	H	1.282309	-1.192549	-0.597978
H94	H	1.373444	-1.188134	-0.671673
H95	H	1.358117	-1.270143	-0.607356
H96	H	1.685956	-0.272487	0.033693
H97	H	1.369807	-0.532605	-0.121435
H98	H	1.418595	-0.492327	0.192944
H99	H	1.374867	-0.914056	-0.592053
H100	H	1.357957	-0.542255	0.048971
H101	H	1.625325	-0.322424	-0.110285
H102	H	1.674122	-0.282146	0.204123
C103	C	1.632480	-0.744235	-0.357219
C104	C	1.601901	-0.772417	-0.269549
C105	C	1.667905	-0.728981	-0.209211
H106	H	1.627427	-0.681100	-0.361700
H107	H	1.703056	-0.758803	-0.371273
H108	H	1.531343	-0.757842	-0.255499
H109	H	1.606959	-0.835546	-0.265040
H110	H	1.738480	-0.743550	-0.223265
H111	H	1.662846	-0.665848	-0.213700
H112	H	1.647172	-0.748103	-0.149721
C113	C	0.921234	-0.618685	-0.569344
C114	C	1.002044	-0.676384	-0.557257
C115	C	0.958586	-0.763295	-0.539058
H116	H	0.881834	-0.639198	-0.618275
H117	H	0.876348	-0.617989	-0.516251
H118	H	1.046913	-0.677083	-0.610343
H119	H	1.041451	-0.655900	-0.508324
H120	H	0.913700	-0.762600	-0.485965
H121	H	0.919187	-0.783799	-0.587991
H122	H	1.013408	-0.802453	-0.530846
C123	C	0.907067	-0.294615	-0.331419
C124	C	0.926152	-0.319311	-0.243527
C125	C	0.870969	-0.265187	-0.182629
H126	H	0.833907	-0.302331	-0.339993
H127	H	0.929865	-0.233426	-0.341149
H128	H	0.903348	-0.380486	-0.233801
H129	H	0.999301	-0.311592	-0.234924
H130	H	0.893767	-0.203998	-0.192359
H131	H	0.797812	-0.272907	-0.191211
H132	H	0.883918	-0.281930	-0.122988
