data_functionalizedCrystal
_audit_creation_method	'MofGen! by Chris Wilmer'
_symmetry_space_group_name_H-M	'P1'
_symmetry_Int_Tables_number	1
_symmetry_cell_setting	triclinic
loop_
_symmetry_equiv_pos_as_xyz
  x,y,z
_cell_length_a	14.519731
_cell_length_b	12.996460
_cell_length_c	16.109304
_cell_angle_alpha	90.003335
_cell_angle_beta	83.575745
_cell_angle_gamma	90.005673
loop_
_atom_site_label
_atom_site_type_symbol
_atom_site_fract_x
_atom_site_fract_y
_atom_site_fract_z
O1	O	1.223626	0.085562	0.109071
O2	O	0.955124	0.085563	0.121887
O3	O	1.096749	0.085563	-0.005538
O4	O	1.082000	0.085562	0.236497
O5	O	1.096735	-0.085570	-0.005545
O6	O	0.955109	-0.085571	0.121880
O7	O	1.223611	-0.085571	0.109064
Cu8	Cu	1.089359	-0.101197	0.115471
Cu9	Cu	1.089376	0.101189	0.115480
O10	O	1.081986	-0.085572	0.236490
C11	C	0.920759	-0.000003	0.121283
C12	C	0.818382	-0.000003	0.119484
N13	N	1.089353	-0.243544	0.115465
C14	C	0.735241	0.000001	0.118022
C15	C	0.630936	0.000002	0.116194
C16	C	0.547800	0.000002	0.114744
C17	C	0.443489	0.000004	0.112918
C18	C	1.089375	-0.663358	0.115481
C19	C	1.089366	-0.546553	0.115479
C20	C	1.089365	-0.453455	0.115474
C21	C	1.089355	-0.336642	0.115471
C22	C	1.257976	-0.000002	0.109668
C23	C	1.360353	0.000004	0.111468
C24	C	1.096144	-0.000001	-0.036518
C25	C	1.094352	0.000006	-0.128816
N26	N	1.089389	0.243536	0.115480
C27	C	1.090218	0.093287	-0.341157
C28	C	1.088525	0.093286	-0.427880
C29	C	1.088514	-0.093293	-0.427885
C30	C	1.090200	-0.093291	-0.341163
C31	C	1.091057	0.000002	-0.297802
C32	C	1.087678	-0.000001	-0.471247
C33	C	1.085843	-0.000003	-0.565276
C34	C	1.092891	0.000004	-0.203766
C35	C	1.082591	-0.000005	0.267469
C36	C	1.084383	-0.000005	0.359768
H37	H	1.090913	0.169252	-0.305855
C38	C	1.087578	-0.195910	-0.475582
H39	H	1.088310	-0.251467	-0.437337
H40	H	1.140666	-0.199790	-0.515670
H41	H	1.033166	-0.199789	-0.503153
C42	C	1.091118	-0.195907	-0.293464
H43	H	1.092233	-0.182542	-0.235604
H44	H	1.144584	-0.234244	-0.313929
H45	H	1.037084	-0.234234	-0.301420
H46	H	1.087841	0.169248	-0.463176
