data_functionalizedCrystal
_audit_creation_method	'MofGen! by Chris Wilmer'
_symmetry_space_group_name_H-M	'P1'
_symmetry_Int_Tables_number	1
_symmetry_cell_setting	triclinic
loop_
_symmetry_equiv_pos_as_xyz
  x,y,z
_cell_length_a	13.032831
_cell_length_b	25.639239
_cell_length_c	13.032268
_cell_angle_alpha	97.141717
_cell_angle_beta	90.886977
_cell_angle_gamma	82.842759
loop_
_atom_site_label
_atom_site_type_symbol
_atom_site_fract_x
_atom_site_fract_y
_atom_site_fract_z
Zn1	Zn	1.498234	-0.353075	-0.780741
Zn2	Zn	1.519922	-0.430970	-0.608740
Zn3	Zn	1.348108	-0.331235	-0.586988
Zn4	Zn	1.326172	-0.428143	-0.758866
O5	O	1.423109	-0.385856	-0.683834
O6	O	1.645024	-0.373731	-0.776183
O7	O	1.515387	-0.409782	-0.461940
O8	O	1.368126	-0.260977	-0.612741
O9	O	1.660959	-0.430960	-0.649815
O10	O	1.478423	-0.277023	-0.755090
O11	O	1.389156	-0.336508	-0.445959
O12	O	1.201284	-0.333767	-0.591530
O13	O	1.330740	-0.426142	-0.905683
O14	O	1.185169	-0.404965	-0.717808
O15	O	1.457153	-0.370990	-0.921754
O16	O	1.494117	-0.503750	-0.628604
O17	O	1.351770	-0.501673	-0.738901
C18	C	1.155911	-0.366689	-0.649935
C19	C	1.041600	-0.358504	-0.635458
C20	C	0.982702	-0.390128	-0.691390
C21	C	0.864555	-0.381668	-0.676428
C22	C	1.422942	-0.521683	-0.683765
C23	C	1.422960	-0.579799	-0.683782
C24	C	1.497387	-0.941263	-0.626536
C25	C	1.497425	-0.995870	-0.626555
O26	O	1.560532	-1.025027	-0.577808
N27	N	1.423281	-1.022111	-0.683925
C28	C	1.349101	-0.993742	-0.741288
O29	O	1.286040	-1.021077	-0.790088
C30	C	1.349068	-0.939136	-0.741275
C31	C	1.423210	-0.912897	-0.683893
C32	C	1.571523	-0.915024	-0.569160
C33	C	1.571484	-0.860419	-0.569140
C34	C	1.497307	-0.832054	-0.626496
C35	C	1.423171	-0.858293	-0.683872
C36	C	1.274894	-0.910769	-0.798643
C37	C	1.274868	-0.856159	-0.798625
C38	C	1.349010	-0.829920	-0.741243
C39	C	1.348955	-0.775323	-0.741209
N40	N	1.423098	-0.749082	-0.683839
C41	C	1.497275	-0.777448	-0.626482
C42	C	1.349176	-1.108419	-0.741314
C43	C	1.349204	-1.163024	-0.741322
C44	C	1.497529	-1.165149	-0.626590
C45	C	1.497496	-1.110542	-0.626577
C46	C	1.423320	-1.082179	-0.683944
C47	C	1.497185	-0.662774	-0.626444
C48	C	1.497137	-0.608165	-0.626425
C49	C	1.348815	-0.606046	-0.741161
C50	C	1.348860	-0.660650	-0.741176
C51	C	1.423054	-0.689013	-0.683815
O52	O	1.285883	-0.746133	-0.789934
O53	O	1.560333	-0.750108	-0.577701
C54	C	1.691350	-0.405097	-0.717865
C55	C	1.805658	-0.413297	-0.732368
C56	C	1.389080	-0.400687	-0.952077
C57	C	1.374579	-0.407007	-1.066386
C58	C	1.423302	-0.249501	-0.683929
C59	C	1.423384	-0.191395	-0.683970
C60	C	1.430661	-0.382537	-1.125301
C61	C	1.415675	-0.389069	-1.243446
C62	C	1.457064	-0.371048	-0.416642
C63	C	1.471765	-0.364595	-0.302358
H64	H	1.019744	-0.423463	-0.750355
C65	C	0.992250	-0.313977	-0.556968
C66	C	1.015473	-0.265365	-0.582835
C67	C	0.970019	-0.224335	-0.510560
H68	H	1.018508	-0.318925	-0.490003
H69	H	0.919395	-0.314168	-0.557374
H70	H	1.088314	-0.265176	-0.582419
H71	H	0.989214	-0.260400	-0.649788
H72	H	0.897164	-0.224526	-0.510965
H73	H	0.996281	-0.229289	-0.443599
H74	H	0.985762	-0.191347	-0.528106
H75	H	0.827516	-0.348327	-0.617466
C76	C	0.855231	-0.457738	-0.810910
C77	C	0.962563	-0.457305	-0.810116
C78	C	1.008264	-0.498238	-0.882446
H79	H	0.829045	-0.452759	-0.877888
H80	H	0.839624	-0.490781	-0.793521
H81	H	0.978162	-0.424269	-0.827512
H82	H	0.988777	-0.462290	-0.743156
H83	H	0.992657	-0.531282	-0.865057
H84	H	0.982070	-0.493256	-0.949418
H85	H	1.081093	-0.497953	-0.881910
H86	H	1.557512	-0.586803	-0.579694
H87	H	1.530872	-0.338804	-1.265336
H88	H	1.557603	-0.685862	-0.579737
H89	H	1.631932	-0.938113	-0.522454
H90	H	1.315465	-0.432789	-1.103413
C91	C	1.652111	-0.832038	-0.506827
C92	C	1.717091	-0.868579	-0.456634
C93	C	1.791394	-0.842459	-0.399237
H94	H	1.618624	-0.805467	-0.456910
H95	H	1.691939	-0.816110	-0.551867
H96	H	1.677268	-0.884498	-0.411598
H97	H	1.750602	-0.895151	-0.506527
H98	H	1.831222	-0.826531	-0.444277
H99	H	1.757897	-0.815889	-0.349325
H100	H	1.835497	-0.867249	-0.365181
C101	C	1.268781	-1.077617	-0.803739
C102	C	1.318557	-1.054054	-0.877101
C103	C	1.244532	-1.025684	-0.934635
H104	H	1.228947	-1.050920	-0.758794
H105	H	1.224643	-1.101057	-0.837966
H106	H	1.362677	-1.030616	-0.842876
H107	H	1.358385	-1.080739	-0.922069
H108	H	1.200394	-1.049124	-0.968862
H109	H	1.204703	-0.998990	-0.889681
H110	H	1.278294	-1.009697	-0.984423
C111	C	1.336930	-0.423537	-1.292675
C112	C	1.362520	-0.475434	-1.269401
C113	C	1.289998	-0.507199	-1.314722
H114	H	1.337263	-0.423425	-1.365529
H115	H	1.270038	-0.409996	-1.266333
H116	H	1.429394	-0.488972	-1.295748
H117	H	1.362179	-0.475562	-1.196556
H118	H	1.223106	-0.493657	-1.288380
H119	H	1.290337	-0.507082	-1.387573
H120	H	1.307345	-0.542413	-1.298929
H121	H	1.557869	-1.089182	-0.579852
H122	H	1.557930	-1.188254	-0.579892
C123	C	1.194370	-0.825444	-0.861087
C124	C	1.203773	-0.845933	-0.965688
C125	C	1.129630	-0.817657	-1.023254
H126	H	1.204880	-0.789159	-0.852994
H127	H	1.127179	-0.828658	-0.837283
H128	H	1.270948	-0.842714	-0.989485
H129	H	1.193253	-0.882215	-0.973813
H130	H	1.062439	-0.820871	-0.999450
H131	H	1.140146	-0.781373	-1.015153
H132	H	1.135994	-0.831558	-1.094231
C133	C	1.268645	-1.191416	-0.803722
C134	C	1.203697	-1.154883	-0.853963
C135	C	1.129485	-1.181018	-0.911473
H136	H	1.228768	-1.207365	-0.758779
H137	H	1.302242	-1.217975	-0.853614
H138	H	1.170103	-1.128333	-0.804077
H139	H	1.243544	-1.138932	-0.898924
H140	H	1.163082	-1.207577	-0.961365
H141	H	1.089616	-1.196966	-0.866522
H142	H	1.085416	-1.156235	-0.945575
C143	C	1.194298	-0.939259	-0.860768
C144	C	1.135807	-0.962701	-0.794156
C145	C	1.061544	-0.988945	-0.851354
H146	H	1.227812	-0.965863	-0.910608
H147	H	1.150069	-0.914551	-0.894902
H148	H	1.180030	-0.987407	-0.760039
H149	H	1.102271	-0.936110	-0.744316
H150	H	1.017315	-0.964237	-0.885488
H151	H	1.095067	-1.015546	-0.901192
H152	H	1.021843	-1.004850	-0.806166
C153	C	1.268309	-0.689050	-0.803580
C154	C	1.203355	-0.652520	-0.853823
C155	C	1.129155	-0.678661	-0.911341
H156	H	1.228435	-0.705003	-0.758642
H157	H	1.301916	-0.715606	-0.853471
H158	H	1.169750	-0.625974	-0.803938
H159	H	1.243199	-0.636565	-0.898779
H160	H	1.162762	-0.705217	-0.961232
H161	H	1.089289	-0.694613	-0.866395
H162	H	1.085081	-0.653880	-0.945445
C163	C	1.268403	-0.575154	-0.803410
C164	C	1.284267	-0.521720	-0.791130
C165	C	1.210226	-0.493248	-0.848476
H166	H	1.201184	-0.578288	-0.779610
H167	H	1.274651	-0.588949	-0.874451
H168	H	1.278011	-0.507929	-0.720104
H169	H	1.351472	-0.518570	-0.814935
H170	H	1.216473	-0.507043	-0.919516
H171	H	1.143011	-0.496386	-0.824671
H172	H	1.220985	-0.456991	-0.840159
C173	C	1.509331	-0.348106	-1.075786
C174	C	1.458922	-0.307045	-1.006727
C175	C	1.531364	-0.275321	-0.961087
H176	H	1.542615	-0.333546	-1.127952
H177	H	1.559377	-0.369002	-1.039488
H178	H	1.408894	-0.286152	-1.043024
H179	H	1.425643	-0.321589	-0.954542
H180	H	1.581410	-0.296217	-0.924789
H181	H	1.564644	-0.260765	-1.013260
H182	H	1.497173	-0.247460	-0.914218
