data_functionalizedCrystal
_audit_creation_method	'MofGen! by Chris Wilmer'
_symmetry_space_group_name_H-M	'P1'
_symmetry_Int_Tables_number	1
_symmetry_cell_setting	triclinic
loop_
_symmetry_equiv_pos_as_xyz
  x,y,z
_cell_length_a	14.908571
_cell_length_b	16.959454
_cell_length_c	14.908308
_cell_angle_alpha	86.730321
_cell_angle_beta	89.824947
_cell_angle_gamma	86.716421
loop_
_atom_site_label
_atom_site_type_symbol
_atom_site_fract_x
_atom_site_fract_y
_atom_site_fract_z
Zn1	Zn	1.345297	-0.412496	0.587603
Zn2	Zn	1.353878	-0.537521	0.437249
Zn3	Zn	1.203612	-0.397314	0.428600
Zn4	Zn	1.194906	-0.536582	0.578901
O5	O	1.274423	-0.470978	0.508088
O6	O	1.472261	-0.435828	0.574920
O7	O	1.341180	-0.512961	0.310277
O8	O	1.222460	-0.288721	0.449714
O9	O	1.478566	-0.527683	0.464456
O10	O	1.326555	-0.299875	0.566532
O11	O	1.230780	-0.409952	0.303922
O12	O	1.076631	-0.409042	0.441276
O13	O	1.207621	-0.526082	0.705880
O14	O	1.070235	-0.511361	0.551701
O15	O	1.318113	-0.434917	0.712273
O16	O	1.332737	-0.648003	0.456018
O17	O	1.215941	-0.647313	0.560089
C18	C	1.040808	-0.458452	0.494606
C19	C	0.940865	-0.453114	0.488860
C20	C	0.746458	-0.549777	0.592894
C21	C	0.652552	-0.544763	0.587498
C22	C	0.659146	-0.438070	0.472677
C23	C	0.753052	-0.443084	0.478073
C24	C	0.796704	-0.498940	0.538183
C25	C	0.890612	-0.503956	0.543574
C26	C	0.897204	-0.397260	0.428758
C27	C	0.803298	-0.392247	0.423362
C28	C	1.274349	-0.676340	0.508068
C29	C	1.274398	-0.764200	0.508095
C30	C	1.213691	-1.135352	0.562276
C31	C	1.335401	-1.136020	0.454006
C32	C	1.335370	-1.053472	0.453996
C33	C	1.274498	-1.011860	0.508126
C34	C	1.213657	-1.052796	0.562266
C35	C	1.396203	-1.012529	0.399850
C36	C	1.396174	-0.929976	0.399837
C37	C	1.335306	-0.888363	0.453972
C38	C	1.274463	-0.929304	0.508115
C39	C	1.213591	-0.887692	0.562245
C40	C	1.152752	-0.928632	0.616394
C41	C	1.152788	-1.011183	0.616402
C42	C	1.335269	-0.805812	0.453965
C43	C	1.213557	-0.805136	0.562235
C44	C	1.508951	-0.483554	0.521623
C45	C	1.608893	-0.488913	0.527391
C46	C	1.260938	-0.482089	0.742614
C47	C	1.255192	-0.486823	0.842555
C48	C	1.274521	-0.264817	0.508129
C49	C	1.274563	-0.176963	0.508146
C50	C	1.287908	-0.459857	0.274478
C51	C	1.293828	-0.454909	0.174547
C52	C	1.359446	-0.400771	1.037013
C53	C	1.354049	-0.405217	1.130917
C54	C	1.238998	-0.500156	1.124267
C55	C	1.244395	-0.495710	1.030364
C56	C	1.304622	-0.446017	0.986740
C57	C	1.310022	-0.441576	0.892835
C58	C	1.194967	-0.536510	0.886187
C59	C	1.189570	-0.540956	0.980090
H60	H	0.938125	-0.355866	0.384206
Br61	Br	1.478746	-0.874422	0.326359
H62	H	0.782000	-0.595261	0.641833
H63	H	0.767743	-0.346769	0.374425
H64	H	1.398691	-0.368371	1.171846
H65	H	0.611645	-0.586159	0.632051
Br66	Br	1.107835	-0.608391	1.039301
Br67	Br	1.441192	-0.333345	0.977806
H68	H	1.384955	-1.169904	0.409930
H69	H	0.623587	-0.392590	0.423745
Br70	Br	1.131134	-1.190910	0.635767
H71	H	1.445756	-1.046415	0.355773
H72	H	0.926152	-0.549438	0.592516
H73	H	1.163990	-0.771261	0.606318
Br74	Br	1.070137	-0.872149	0.689846
Br75	Br	1.070229	-1.066748	0.689882
H76	H	1.384800	-0.772482	0.409873
Br77	Br	1.391761	-0.374140	0.833632
H78	H	1.189964	-0.540614	1.159802
Br79	Br	1.120571	-0.597932	0.817955
