data_functionalizedCrystal
_audit_creation_method	'MofGen! by Chris Wilmer'
_symmetry_space_group_name_H-M	'P1'
_symmetry_Int_Tables_number	1
_symmetry_cell_setting	triclinic
loop_
_symmetry_equiv_pos_as_xyz
  x,y,z
_cell_length_a	33.428889
_cell_length_b	33.428139
_cell_length_c	33.424847
_cell_angle_alpha	60.004234
_cell_angle_beta	60.008465
_cell_angle_gamma	59.994972
loop_
_atom_site_label
_atom_site_type_symbol
_atom_site_fract_x
_atom_site_fract_y
_atom_site_fract_z
O1	O	0.055565	-0.584504	0.488714
O2	O	0.555565	-0.084504	0.988714
O3	O	0.020982	-0.455083	0.393778
O4	O	0.520982	0.044917	0.893778
O5	O	0.102943	-0.536959	0.393689
O6	O	0.602943	-0.036959	0.893689
O7	O	-0.026396	-0.502628	0.488803
O8	O	0.473604	-0.002628	0.988803
O9	O	0.130140	-0.509767	0.420792
O10	O	0.630140	-0.009767	0.920792
O11	O	0.048179	-0.427891	0.420881
O12	O	0.548179	0.072109	0.920881
O13	O	0.082762	-0.557312	0.515817
O14	O	0.582762	-0.057312	1.015817
Cu15	Cu	0.067954	-0.490119	0.470823
Cu16	Cu	0.567954	0.009881	0.970823
Cu17	Cu	0.035790	-0.522276	0.438771
Cu18	Cu	0.535790	-0.022276	0.938771
O19	O	0.000801	-0.475436	0.515906
O20	O	0.500801	0.024564	1.015906
N21	N	0.090577	-0.467504	0.493370
N22	N	0.590577	0.032496	0.993370
N23	N	0.013171	-0.544895	0.416225
N24	N	0.513171	-0.044895	0.916225
C25	C	0.143377	-0.280390	0.546067
C26	C	0.643377	0.219610	1.046067
C27	C	0.143515	-0.414755	0.680369
C28	C	0.643515	0.085245	1.180369
C29	C	0.143392	-0.414735	0.546069
C30	C	0.643392	0.085265	1.046069
C31	C	0.277766	-0.414702	0.545966
C32	C	0.777766	0.085298	1.045966
C33	C	0.158177	-0.324719	0.560828
C34	C	0.658177	0.175281	1.060828
C35	C	0.158255	-0.399967	0.636038
C36	C	0.658255	0.100033	1.136038
C37	C	0.233434	-0.399936	0.560773
C38	C	0.733434	0.100064	1.060773
C39	C	0.158186	-0.399955	0.560829
C40	C	0.658186	0.100045	1.060829
C41	C	0.124540	-0.223964	0.527278
C42	C	0.624540	0.276036	1.027278
C43	C	0.124565	-0.433545	0.527281
C44	C	0.624565	0.066455	1.027281
C45	C	0.177014	-0.381145	0.579617
C46	C	0.677014	0.118855	1.079617
C47	C	0.359814	-0.400540	0.502735
C48	C	0.859814	0.099460	1.002735
C49	C	0.411105	-0.417624	0.485606
C50	C	0.911105	0.082376	0.985606
C51	C	0.411136	-0.500620	0.517255
C52	C	0.911136	-0.000620	1.017255
C53	C	0.359845	-0.483534	0.534385
C54	C	0.859845	0.016466	1.034385
C55	C	0.136887	-0.198305	0.476855
C56	C	0.636887	0.301695	0.976855
C57	C	0.119761	-0.147011	0.459777
C58	C	0.619761	0.352989	0.959777
C59	C	0.077945	-0.147038	0.543547
C60	C	0.577945	0.352962	1.043547
C61	C	0.095072	-0.198332	0.560625
C62	C	0.595072	0.301668	1.060625
C63	C	0.074134	-0.421169	0.539710
C64	C	0.574134	0.078831	1.039710
C65	C	0.057023	-0.438269	0.522625
C66	C	0.557023	0.061731	1.022625
C67	C	0.140770	-0.480120	0.480694
C68	C	0.640770	0.019880	0.980694
C69	C	0.157883	-0.463020	0.497773
C70	C	0.657883	0.036980	0.997773
C71	C	0.074339	-0.421208	0.762475
C72	C	0.574339	0.078792	1.262475
C73	C	0.057288	-0.438323	0.813768
C74	C	0.557288	0.061677	1.313768
C75	C	0.141075	-0.480183	0.813699
C76	C	0.641075	0.019817	1.313699
C77	C	0.158125	-0.463069	0.762404
C78	C	0.658125	0.036931	1.262404
C79	C	0.124756	-0.433580	0.736794
C80	C	0.624756	0.066420	1.236794
C81	C	0.334186	-0.433494	0.527123
C82	C	0.834186	0.066506	1.027123
C83	C	-0.173769	-0.597444	0.363037
C84	C	0.326231	-0.097444	0.863037
C85	C	-0.039302	-0.597595	0.228856
C86	C	0.460698	-0.097595	0.728856
C87	C	-0.039496	-0.597587	0.363300
C88	C	0.460504	-0.097587	0.863300
C89	C	-0.039512	-0.731889	0.363237
C90	C	0.460488	-0.231889	0.863237
C91	C	-0.129442	-0.612265	0.348329
C92	C	0.370558	-0.112265	0.848329
C93	C	-0.054138	-0.612351	0.273187
C94	C	0.445862	-0.112351	0.773187
C95	C	-0.054257	-0.687554	0.348440
C96	C	0.445743	-0.187554	0.848440
C97	C	-0.054247	-0.612346	0.348477
C98	C	0.445753	-0.112346	0.848477
C99	C	-0.230191	-0.578579	0.381758
C100	C	0.269809	-0.078579	0.881758
C101	C	-0.020722	-0.578803	0.382168
C102	C	0.479278	-0.078803	0.882168
C103	C	-0.073020	-0.631130	0.329609
C104	C	0.426980	-0.131130	0.829609
C105	C	-0.053713	-0.813916	0.406386
C106	C	0.446287	-0.313916	0.906386
C107	C	-0.036654	-0.865210	0.423504
C108	C	0.463346	-0.365210	0.923504
C109	C	0.046338	-0.865293	0.391984
C110	C	0.546338	-0.365293	0.891984
C111	C	0.029278	-0.813999	0.374865
C112	C	0.529278	-0.313999	0.874865
C113	C	-0.255900	-0.590938	0.432169
C114	C	0.244100	-0.090938	0.932169
C115	C	-0.307191	-0.573786	0.449185
C116	C	0.192809	-0.073786	0.949185
C117	C	-0.307060	-0.531922	0.365377
C118	C	0.192940	-0.031922	0.865377
C119	C	-0.255769	-0.549074	0.348360
C120	C	0.244231	-0.049074	0.848360
C121	C	-0.033081	-0.528377	0.369764
C122	C	0.466919	-0.028377	0.869764
C123	C	-0.016014	-0.511306	0.386922
C124	C	0.483986	-0.011306	0.886922
C125	C	0.025770	-0.595083	0.428877
C126	C	0.525770	-0.095083	0.928877
C127	C	0.008703	-0.612156	0.411725
C128	C	0.508703	-0.112156	0.911725
C129	C	-0.032755	-0.528393	0.146761
C130	C	0.467245	-0.028393	0.646761
C131	C	-0.015585	-0.511324	0.095468
C132	C	0.484415	-0.011324	0.595468
C133	C	0.026262	-0.595106	0.095516
C134	C	0.526262	-0.095106	0.595516
C135	C	0.009094	-0.612174	0.146811
C136	C	0.509094	-0.112174	0.646811
C137	C	-0.020417	-0.578816	0.172432
C138	C	0.479583	-0.078816	0.672432
C139	C	-0.020748	-0.788312	0.382068
C140	C	0.479252	-0.288312	0.882068
N141	N	0.436037	-0.467415	0.493101
N142	N	0.936037	0.032585	0.993101
O143	O	0.592642	-0.471896	0.376066
O144	O	1.092642	0.028104	0.876066
O145	O	0.592838	-0.567146	0.505347
O146	O	1.092838	-0.067146	1.005347
O147	O	0.592754	-0.566928	0.423360
O148	O	1.092754	-0.066928	0.923360
O149	O	0.592727	-0.472113	0.458053
O150	O	1.092727	0.027887	0.958053
O151	O	0.511269	-0.539835	0.450606
O152	O	1.011269	-0.039835	0.950606
O153	O	0.511353	-0.540052	0.532594
O154	O	1.011353	-0.040052	1.032594
O155	O	0.511157	-0.444802	0.403312
O156	O	1.011157	0.055198	0.903312
Cu157	Cu	0.503815	-0.489954	0.470441
Cu158	Cu	1.003815	0.010046	0.970441
Cu159	Cu	0.600180	-0.521995	0.438219
Cu160	Cu	1.100180	-0.021995	0.938219
O161	O	0.511242	-0.445020	0.485300
O162	O	1.011242	0.054980	0.985300
N163	N	0.667959	-0.544533	0.415554
N164	N	1.167959	-0.044533	0.915554
N165	N	0.090544	-0.122107	0.493359
N166	N	0.590544	0.377893	0.993359
O167	O	-0.026406	0.034587	0.488773
O168	O	0.473594	0.534587	0.988773
O169	O	0.102877	0.034627	0.393499
O170	O	0.602877	0.534627	0.893499
O171	O	0.020848	0.034591	0.393771
O172	O	0.520848	0.534591	0.893771
O173	O	0.055623	0.034623	0.488500
O174	O	0.555623	0.534623	0.988500
O175	O	0.048051	-0.046899	0.420925
O176	O	0.548051	0.453101	0.920925
O177	O	0.130080	-0.046864	0.420653
O178	O	0.630080	0.453136	0.920653
O179	O	0.000796	-0.046903	0.515927
O180	O	0.500796	0.453097	1.015927
Cu181	Cu	0.067922	-0.054324	0.470769
Cu182	Cu	0.567922	0.445676	0.970769
Cu183	Cu	0.035752	0.042048	0.438656
Cu184	Cu	0.535752	0.542048	0.938656
O185	O	0.082825	-0.046867	0.515655
O186	O	0.582825	0.453133	1.015655
N187	N	0.013123	0.109830	0.416068
N188	N	0.513123	0.609830	0.916068
N189	N	0.090892	-0.467554	0.838649
N190	N	0.590892	0.032446	1.338649
O191	O	0.086330	-0.584488	0.995334
O192	O	0.586330	-0.084488	1.495334
O193	O	-0.008902	-0.455160	0.995379
O194	O	0.491098	0.044840	1.495379
O195	O	-0.008679	-0.537172	0.995355
O196	O	0.491321	-0.037172	1.495355
O197	O	0.086107	-0.502475	0.995358
O198	O	0.586107	-0.002475	1.495358
O199	O	0.018452	-0.509990	0.913868
O200	O	0.518452	-0.009990	1.413868
O201	O	0.018230	-0.427978	0.913891
O202	O	0.518230	0.072022	1.413891
O203	O	0.113461	-0.557306	0.913847
O204	O	0.613461	-0.057306	1.413847
Cu205	Cu	0.068323	-0.490160	0.906429
Cu206	Cu	0.568323	0.009840	1.406429
Cu207	Cu	0.036237	-0.522306	1.002797
Cu208	Cu	0.536237	-0.022306	1.502797
O209	O	0.113239	-0.475293	0.913870
O210	O	0.613239	0.024707	1.413870
N211	N	0.013667	-0.544916	1.070577
N212	N	0.513667	-0.044916	1.570577
C213	C	0.031339	-0.425179	0.394250
C214	C	0.531339	0.074821	0.894250
C215	C	0.132837	-0.526572	0.394139
C216	C	0.632837	-0.026572	0.894139
C217	C	0.072405	-0.587216	0.515344
C218	C	0.572405	-0.087216	1.015344
C219	C	-0.029093	-0.485823	0.515455
C220	C	0.470907	0.014177	1.015455
C221	C	0.552119	-0.566716	0.535258
C222	C	1.052119	-0.066716	1.035258
C223	C	0.552016	-0.566447	0.433726
C224	C	1.052016	-0.066447	0.933726
C225	C	0.551873	-0.445232	0.373402
C226	C	1.051873	0.054768	0.873402
C227	C	0.551980	-0.445502	0.474933
C228	C	1.051980	0.054498	0.974933
C229	C	0.132731	-0.006013	0.393923
C230	C	0.632731	0.493987	0.893923
C231	C	0.031182	-0.006158	0.394293
C232	C	0.531182	0.493842	0.894293
C233	C	-0.029092	-0.006163	0.515469
C234	C	0.470908	0.493837	1.015469
C235	C	0.072491	-0.006119	0.515133
C236	C	0.572491	0.493881	1.015133
C237	C	-0.008451	-0.425276	0.954641
C238	C	0.491549	0.074724	1.454641
C239	C	-0.008170	-0.526833	0.954596
C240	C	0.491830	-0.026833	1.454596
C241	C	0.113010	-0.587190	0.954585
C242	C	0.613010	-0.087190	1.454585
C243	C	0.112735	-0.485627	0.954611
C244	C	0.612735	0.014373	1.454611
H245	H	0.016234	-0.428240	0.834672
H246	H	0.516234	0.071760	1.334672
H247	H	0.023733	-0.006162	0.364531
H248	H	0.523733	0.493838	0.864531
H249	H	-0.066242	-0.478508	0.545321
H250	H	0.433758	0.021492	1.045321
H251	H	0.023949	-0.388000	0.364433
H252	H	0.523949	0.112000	0.864433
C253	C	0.152460	-0.475668	0.954503
C254	C	0.652460	0.024332	1.454503
C255	C	0.163589	-0.436266	0.912578
C256	C	0.663589	0.063734	1.412578
C257	C	0.200186	-0.427082	0.912458
C258	C	0.700186	0.072918	1.412458
H259	H	0.141202	-0.467863	0.982889
H260	H	0.641202	0.032137	1.482889
H261	H	0.181000	-0.503972	0.954464
H262	H	0.681000	-0.003972	1.454464
H263	H	0.135055	-0.407968	0.912622
H264	H	0.635055	0.092032	1.412622
H265	H	0.174856	-0.444060	0.884185
H266	H	0.674856	0.055940	1.384185
H267	H	0.228726	-0.455386	0.912419
H268	H	0.728726	0.044614	1.412419
H269	H	0.188923	-0.419279	0.940847
H270	H	0.688923	0.080721	1.440847
H271	H	0.207745	-0.400350	0.884011
H272	H	0.707745	0.099650	1.384011
H273	H	0.079939	-0.006110	0.544893
H274	H	0.579939	0.493890	1.044893
H275	H	-0.057039	-0.501216	0.345698
H276	H	0.442961	-0.001216	0.845698
H277	H	0.169783	-0.005775	0.363939
H278	H	0.669783	0.494225	0.863939
C279	C	0.182407	-0.536409	0.354383
C280	C	0.682407	-0.036409	0.854383
C281	C	0.212618	-0.584219	0.372009
C282	C	0.712618	-0.084219	0.872009
C283	C	0.258288	-0.593295	0.335401
C284	C	0.758288	-0.093295	0.835401
H285	H	0.178187	-0.532764	0.326528
H286	H	0.678187	-0.032764	0.826528
H287	H	0.197119	-0.513782	0.345454
H288	H	0.697119	-0.013782	0.845454
H289	H	0.197910	-0.606839	0.380931
H290	H	0.697910	-0.106839	0.880931
H291	H	0.216852	-0.587875	0.399859
H292	H	0.716852	-0.087875	0.899859
H293	H	0.272999	-0.570669	0.326473
H294	H	0.772999	-0.070669	0.826473
H295	H	0.254063	-0.589648	0.307548
H296	H	0.754063	-0.089648	0.807548
H297	H	0.278793	-0.625733	0.347357
H298	H	0.778793	-0.125733	0.847357
H299	H	0.079796	-0.624394	0.545162
H300	H	0.579796	-0.124394	1.045162
C301	C	0.552043	-0.405855	0.484869
C302	C	1.052043	0.094145	0.984869
C303	C	0.593989	-0.422635	0.496280
C304	C	1.093989	0.077365	0.996280
C305	C	0.594061	-0.386129	0.505442
C306	C	1.094061	0.113871	1.005442
H307	H	0.552021	-0.377308	0.456586
H308	H	1.052021	0.122692	0.956586
H309	H	0.523662	-0.398261	0.511636
H310	H	1.023662	0.101739	1.011636
H311	H	0.622362	-0.430222	0.469515
H312	H	1.122362	0.069778	0.969515
H313	H	0.594020	-0.451176	0.524564
H314	H	1.094020	0.048824	1.024564
H315	H	0.565680	-0.378535	0.532209
H316	H	1.065680	0.121465	1.032209
H317	H	0.594038	-0.357585	0.477158
H318	H	1.094038	0.142415	0.977158
H319	H	0.622518	-0.397510	0.513190
H320	H	1.122518	0.102490	1.013190
C321	C	0.551930	-0.606113	0.423839
C322	C	1.051930	-0.106113	0.923839
C323	C	0.509973	-0.589344	0.412451
C324	C	1.009973	-0.089344	0.912451
C325	C	0.509873	-0.625873	0.403346
C326	C	1.009873	-0.125873	0.903346
H327	H	0.580293	-0.613740	0.397082
H328	H	1.080293	-0.113740	0.897082
H329	H	0.551950	-0.634641	0.452151
H330	H	1.051950	-0.134641	0.952151
H331	H	0.509957	-0.560825	0.384142
H332	H	1.009957	-0.060825	0.884142
H333	H	0.481603	-0.581721	0.439201
H334	H	0.981603	-0.081721	0.939201
H335	H	0.509893	-0.654401	0.431659
H336	H	1.009893	-0.154401	0.931659
H337	H	0.538238	-0.633498	0.376590
H338	H	1.038238	-0.133498	0.876590
H339	H	0.481404	-0.614502	0.395623
H340	H	0.981404	-0.114502	0.895623
H341	H	0.552170	-0.596617	0.572390
H342	H	1.052170	-0.096617	1.072390
H343	H	0.047002	-0.397168	0.563734
H344	H	0.547002	0.102832	1.063734
C345	C	-0.078641	-0.006142	0.555278
C346	C	0.421359	0.493858	1.055278
C347	C	-0.108909	-0.006142	0.537741
C348	C	0.391091	0.493858	1.037741
C349	C	-0.154560	-0.006111	0.574395
C350	C	0.345440	0.493889	1.074395
H351	H	-0.074402	-0.034547	0.583144
H352	H	0.425598	0.465453	1.083144
H353	H	-0.093319	0.022292	0.564167
H354	H	0.406681	0.522292	1.064167
H355	H	-0.094234	-0.034572	0.528859
H356	H	0.405766	0.465428	1.028859
H357	H	-0.113162	0.022261	0.509880
H358	H	0.386838	0.522261	1.009880
H359	H	-0.169238	0.022322	0.583284
H360	H	0.330762	0.522322	1.083284
H361	H	-0.150316	-0.034517	0.602259
H362	H	0.349684	0.465483	1.102259
H363	H	-0.175104	-0.006107	0.562500
H364	H	0.324896	0.493893	1.062500
C365	C	0.551816	-0.405424	0.323857
C366	C	1.051816	0.094576	0.823857
C367	C	0.551806	-0.422991	0.293618
C368	C	1.051806	0.077009	0.793618
C369	C	0.551758	-0.386336	0.247973
C370	C	1.051758	0.113664	0.747973
H371	H	0.523389	-0.377578	0.328113
H372	H	1.023389	0.122422	0.828113
H373	H	0.580224	-0.396496	0.309145
H374	H	1.080224	0.103504	0.809145
H375	H	0.523400	-0.431912	0.308327
H376	H	1.023400	0.068088	0.808327
H377	H	0.580230	-0.450832	0.289348
H378	H	1.080230	0.049168	0.789348
H379	H	0.580167	-0.377408	0.233261
H380	H	1.080167	0.122592	0.733261
H381	H	0.523332	-0.358492	0.252234
H382	H	1.023332	0.141508	0.752234
H383	H	0.551756	-0.398251	0.227449
H384	H	1.051756	0.101749	0.727449
H385	H	-0.038348	-0.388133	0.954654
H386	H	0.461652	0.111867	1.454654
H387	H	-0.037935	-0.534246	0.954563
H388	H	0.462065	-0.034246	1.454563
C389	C	0.152861	-0.636710	0.954489
C390	C	0.652861	-0.136710	1.454489
C391	C	0.164107	-0.645396	0.912564
C392	C	0.664107	-0.145396	1.412564
C393	C	0.200811	-0.691011	0.912462
C394	C	0.700811	-0.191011	1.412462
H395	H	0.181341	-0.636811	0.954461
H396	H	0.681341	-0.136811	1.454461
H397	H	0.141645	-0.661662	0.982886
H398	H	0.641645	-0.161662	1.482886
H399	H	0.175325	-0.620451	0.884175
H400	H	0.675325	-0.120451	1.384175
H401	H	0.135638	-0.645305	0.912583
H402	H	0.635638	-0.145305	1.412583
H403	H	0.189595	-0.715964	0.940858
H404	H	0.689595	-0.215964	1.440858
H405	H	0.229288	-0.691109	0.912435
H406	H	0.729288	-0.191109	1.412435
H407	H	0.208443	-0.696913	0.884019
H408	H	0.708443	-0.196913	1.384019
C409	C	0.038084	-0.389273	0.734698
C410	C	0.538084	0.110727	1.234698
C411	C	0.008672	-0.415045	0.747188
C412	C	0.508672	0.084955	1.247188
C413	C	-0.024726	-0.385648	0.721604
C414	C	0.475274	0.114352	1.221604
H415	H	0.018027	-0.360268	0.743098
H416	H	0.518027	0.139732	1.243098
H417	H	0.055439	-0.380862	0.700467
H418	H	0.555439	0.119138	1.200467
H419	H	-0.008682	-0.423449	0.781411
H420	H	0.491318	0.076551	1.281411
H421	H	0.028715	-0.444048	0.738786
H422	H	0.528715	0.055952	1.238786
H423	H	-0.007372	-0.377236	0.687373
H424	H	0.492628	0.122764	1.187373
H425	H	-0.044780	-0.356644	0.730006
H426	H	0.455220	0.143356	1.230006
H427	H	-0.044683	-0.403131	0.730072
H428	H	0.455317	0.096869	1.230072
C429	C	0.177325	-0.512277	0.841482
C430	C	0.677325	-0.012277	1.341482
C431	C	0.206742	-0.554979	0.828993
C432	C	0.706742	-0.054979	1.328993
C433	C	0.240134	-0.584563	0.854584
C434	C	0.740134	-0.084563	1.354584
H435	H	0.197379	-0.494933	0.833088
H436	H	0.697379	0.005067	1.333088
H437	H	0.159965	-0.520731	0.875712
H438	H	0.659965	-0.020731	1.375712
H439	H	0.224100	-0.546525	0.794771
H440	H	0.724100	-0.046525	1.294771
H441	H	0.186701	-0.572335	0.837389
H442	H	0.686701	-0.072335	1.337389
H443	H	0.222774	-0.593016	0.888814
H444	H	0.722774	-0.093016	1.388814
H445	H	0.260184	-0.567215	0.846187
H446	H	0.760184	-0.067215	1.346187
H447	H	0.260094	-0.613541	0.846117
H448	H	0.760094	-0.113541	1.346117
C449	C	0.212862	-0.476571	0.734498
C450	C	0.712862	0.023429	1.234498
C451	C	0.225107	-0.502214	0.705059
C452	C	0.725107	-0.002214	1.205059
C453	C	0.275525	-0.514665	0.679352
C454	C	0.775525	-0.014665	1.179352
H455	H	0.221311	-0.447598	0.714447
H456	H	0.721311	0.052402	1.214447
H457	H	0.230309	-0.496605	0.757084
H458	H	0.730309	0.003395	1.257084
H459	H	0.207665	-0.482181	0.682476
H460	H	0.707665	0.017819	1.182476
H461	H	0.216670	-0.531192	0.725098
H462	H	0.716670	-0.031192	1.225098
H463	H	0.292972	-0.534699	0.701938
H464	H	0.792972	-0.034699	1.201938
H465	H	0.283970	-0.485689	0.659304
H466	H	0.783970	0.014311	1.159304
H467	H	0.283841	-0.532069	0.659378
H468	H	0.783841	-0.032069	1.159378
H469	H	0.015959	-0.428182	0.532734
H470	H	0.515959	0.071818	1.032734
H471	H	0.198948	-0.473094	0.487648
H472	H	0.698948	0.026906	0.987648
C473	C	0.176973	-0.512040	0.448577
C474	C	0.676973	-0.012040	0.948577
C475	C	0.206355	-0.486258	0.405859
C476	C	0.706355	0.013742	0.905859
C477	C	0.239706	-0.515641	0.376257
C478	C	0.739706	-0.015641	0.876257
H479	H	0.197055	-0.541050	0.465896
H480	H	0.697055	-0.041050	0.965896
H481	H	0.159581	-0.520443	0.440146
H482	H	0.659581	-0.020443	0.940146
H483	H	0.223746	-0.477861	0.414289
H484	H	0.723746	0.022139	0.914289
H485	H	0.186287	-0.457250	0.388526
H486	H	0.686287	0.042750	0.888526
H487	H	0.222314	-0.524044	0.367826
H488	H	0.722314	-0.024044	0.867826
H489	H	0.259784	-0.544650	0.393580
H490	H	0.759784	-0.044650	0.893580
H491	H	0.259642	-0.498151	0.347267
H492	H	0.759642	0.001849	0.847267
C493	C	0.332111	-0.519390	0.560832
C494	C	0.832111	-0.019390	1.060832
C495	C	0.365566	-0.566866	0.563509
C496	C	0.865566	-0.066866	1.063509
C497	C	0.340035	-0.599910	0.587862
C498	C	0.840035	-0.099910	1.087862
H499	H	0.312124	-0.518153	0.592989
H500	H	0.812124	-0.018153	1.092989
H501	H	0.312092	-0.510840	0.543370
H502	H	0.812092	-0.010840	1.043370
H503	H	0.385576	-0.575414	0.580972
H504	H	0.885576	-0.075414	1.080972
H505	H	0.385554	-0.568119	0.531359
H506	H	0.885554	-0.068119	1.031359
H507	H	0.320016	-0.591360	0.570400
H508	H	0.820016	-0.091360	1.070400
H509	H	0.320048	-0.598669	0.620018
H510	H	0.820048	-0.098669	1.120018
H511	H	0.362730	-0.632126	0.589678
H512	H	0.862730	-0.132126	1.089678
H513	H	0.432025	-0.541365	0.523165
H514	H	0.932025	-0.041365	1.023165
H515	H	0.431972	-0.390789	0.465748
H516	H	0.931972	0.109211	0.965748
H517	H	0.338923	-0.359792	0.496821
H518	H	0.838923	0.140208	0.996821
C519	C	-0.064822	-0.492251	0.174664
C520	C	0.435178	0.007749	0.674664
C521	C	-0.077228	-0.517988	0.225079
C522	C	0.422772	-0.017988	0.725079
C523	C	-0.106770	-0.484712	0.250799
C524	C	0.393230	0.015288	0.750799
H525	H	-0.047458	-0.472251	0.166352
H526	H	0.452542	0.027749	0.666352
H527	H	-0.093817	-0.472224	0.166230
H528	H	0.406183	0.027776	0.666230
H529	H	-0.048238	-0.538007	0.233509
H530	H	0.451762	-0.038007	0.733509
H531	H	-0.094598	-0.537987	0.233406
H532	H	0.405402	-0.037987	0.733406
H533	H	-0.135765	-0.464685	0.242365
H534	H	0.364235	0.035315	0.742365
H535	H	-0.089403	-0.464713	0.242483
H536	H	0.410597	0.035287	0.742483
H537	H	-0.115195	-0.502170	0.285007
H538	H	0.384805	-0.002170	0.785007
C539	C	0.168854	-0.226044	0.440571
C540	C	0.668854	0.273956	0.940571
C541	C	0.175985	-0.192592	0.392756
C542	C	0.675985	0.307408	0.892756
C543	C	0.205425	-0.218130	0.359319
C544	C	0.705425	0.281870	0.859319
H545	H	0.199639	-0.246047	0.445407
H546	H	0.699639	0.253953	0.945407
H547	H	0.153195	-0.246051	0.445484
H548	H	0.653195	0.253949	0.945484
H549	H	0.191645	-0.172594	0.387844
H550	H	0.691645	0.327406	0.887844
H551	H	0.145210	-0.172588	0.387904
H552	H	0.645210	0.327412	0.887904
H553	H	0.189767	-0.238136	0.364233
H554	H	0.689767	0.261864	0.864233
H555	H	0.236208	-0.238132	0.364160
H556	H	0.736208	0.261868	0.864160
H557	H	0.210264	-0.195437	0.326873
H558	H	0.710264	0.304563	0.826873
H559	H	-0.063498	-0.886058	0.443304
H560	H	0.436502	-0.386058	0.943304
H561	H	0.053957	-0.126168	0.570702
H562	H	0.553957	0.373832	1.070702
C563	C	0.081733	-0.226148	0.615380
C564	C	0.581733	0.273852	1.115380
C565	C	0.099206	-0.213659	0.636447
C566	C	0.599206	0.286341	1.136447
C567	C	0.086931	-0.239272	0.686888
C568	C	0.586931	0.260728	1.186888
H569	H	0.047136	-0.217771	0.629871
H570	H	0.547136	0.282229	1.129871
H571	H	0.096161	-0.260376	0.620815
H572	H	0.596161	0.239624	1.120815
H573	H	0.084776	-0.179439	0.631016
H574	H	0.584776	0.320561	1.131016
H575	H	0.133803	-0.222038	0.621971
H576	H	0.633803	0.277962	1.121971
H577	H	0.101359	-0.273500	0.692323
H578	H	0.601359	0.226500	1.192323
H579	H	0.052334	-0.230892	0.701374
H580	H	0.552334	0.269108	1.201374
H581	H	0.098789	-0.230805	0.701188
H582	H	0.598789	0.269195	1.201188
C583	C	-0.029066	-0.456557	0.067690
C584	C	0.470934	0.043443	0.567690
C585	C	-0.058597	-0.431002	0.101110
C586	C	0.441403	0.068998	0.601110
C587	C	-0.071029	-0.380550	0.075539
C588	C	0.428971	0.119450	0.575539
H589	H	-0.000089	-0.448110	0.047723
H590	H	0.499911	0.051890	0.547723
H591	H	-0.046454	-0.448114	0.047645
H592	H	0.453546	0.051886	0.547645
H593	H	-0.041210	-0.439442	0.121146
H594	H	0.458790	0.060558	0.621146
H595	H	-0.087581	-0.439434	0.121077
H596	H	0.412419	0.060566	0.621077
H597	H	-0.088417	-0.372107	0.055494
H598	H	0.411583	0.127893	0.555494
H599	H	-0.042049	-0.372108	0.055573
H600	H	0.457951	0.127892	0.555573
H601	H	-0.091071	-0.363205	0.098210
H602	H	0.408929	0.136795	0.598210
H603	H	0.050281	-0.622271	0.074658
H604	H	0.550281	-0.122271	0.574658
C605	C	0.022422	-0.666928	0.174655
C606	C	0.522422	-0.166928	0.674655
C607	C	0.004993	-0.688006	0.162133
C608	C	0.504993	-0.188006	0.662133
C609	C	0.017254	-0.738443	0.187777
C610	C	0.517254	-0.238443	0.687777
H611	H	0.057017	-0.681433	0.166327
H612	H	0.557017	-0.181433	0.666327
H613	H	0.007958	-0.672339	0.208877
H614	H	0.507958	-0.172339	0.708877
H615	H	0.019458	-0.682600	0.127919
H616	H	0.519458	-0.182600	0.627919
H617	H	-0.029601	-0.673517	0.170463
H618	H	0.470399	-0.173517	0.670463
H619	H	0.002790	-0.743853	0.222000
H620	H	0.502790	-0.243853	0.722000
H621	H	0.051849	-0.752942	0.179447
H622	H	0.551849	-0.252942	0.679447
H623	H	0.005427	-0.752750	0.179288
H624	H	0.505427	-0.252750	0.679288
C625	C	-0.029449	-0.456539	0.373370
C626	C	0.470551	0.043461	0.873370
C627	C	-0.058850	-0.430982	0.343793
C628	C	0.441150	0.069018	0.843793
C629	C	-0.071223	-0.380530	0.331287
C630	C	0.428777	0.119470	0.831287
H631	H	-0.046911	-0.448031	0.402318
H632	H	0.453089	0.051969	0.902318
H633	H	-0.000432	-0.448157	0.355992
H634	H	0.499568	0.051843	0.855992
H635	H	-0.087862	-0.439359	0.361170
H636	H	0.412138	0.060641	0.861170
H637	H	-0.041397	-0.439474	0.314838
H638	H	0.458603	0.060526	0.814838
H639	H	-0.042206	-0.372149	0.313910
H640	H	0.457794	0.127851	0.813910
H641	H	-0.088684	-0.372028	0.360238
H642	H	0.411316	0.127972	0.860238
H643	H	-0.091170	-0.363184	0.311215
H644	H	0.408830	0.136816	0.811215
H645	H	0.049734	-0.622248	0.452940
H646	H	0.549734	-0.122248	0.952940
C647	C	0.022096	-0.666918	0.425286
C648	C	0.522096	-0.166918	0.925286
C649	C	0.004599	-0.688005	0.476306
C650	C	0.504599	-0.188005	0.976306
C651	C	0.016934	-0.738450	0.488815
C652	C	0.516934	-0.238450	0.988815
H653	H	0.007727	-0.672375	0.410886
H654	H	0.507727	-0.172375	0.910886
H655	H	0.056707	-0.681379	0.413570
H656	H	0.556707	-0.181379	0.913570
H657	H	-0.030005	-0.673549	0.488017
H658	H	0.469995	-0.173549	0.988017
H659	H	0.018966	-0.682562	0.490718
H660	H	0.518966	-0.182562	0.990718
H661	H	0.051545	-0.752911	0.477098
H662	H	0.551545	-0.252911	0.977098
H663	H	0.002563	-0.743902	0.474411
H664	H	0.502563	-0.243902	0.974411
H665	H	0.005068	-0.752765	0.523432
H666	H	0.505068	-0.252765	1.023432
C667	C	0.065136	-0.786267	0.348405
C668	C	0.565136	-0.286267	0.848405
C669	C	0.099741	-0.798789	0.306455
C670	C	0.599741	-0.298789	0.806455
C671	C	0.132788	-0.773258	0.282072
C672	C	0.632788	-0.273258	0.782072
H673	H	0.047881	-0.752031	0.339189
H674	H	0.547881	-0.252031	0.839189
H675	H	0.081343	-0.794700	0.369536
H676	H	0.581343	-0.294700	0.869536
H677	H	0.083535	-0.790353	0.285328
H678	H	0.583535	-0.290353	0.785328
H679	H	0.117008	-0.833021	0.315657
H680	H	0.617008	-0.333021	0.815657
H681	H	0.148995	-0.781690	0.303203
H682	H	0.648995	-0.281690	0.803203
H683	H	0.115528	-0.739023	0.272860
H684	H	0.615528	-0.239023	0.772860
H685	H	0.156273	-0.781753	0.253610
H686	H	0.656273	-0.281753	0.753610
C687	C	-0.108041	-0.786114	0.414212
C688	C	0.391959	-0.286114	0.914212
C689	C	-0.133254	-0.819519	0.439153
C690	C	0.366746	-0.319519	0.939153
C691	C	-0.183299	-0.793928	0.446360
C692	C	0.316701	-0.293928	0.946360
H693	H	-0.120169	-0.766090	0.433023
H694	H	0.379831	-0.266090	0.933023
H695	H	-0.112759	-0.766124	0.383368
H696	H	0.387241	-0.266124	0.883368
H697	H	-0.128539	-0.839501	0.469992
H698	H	0.371461	-0.339501	0.969992
H699	H	-0.121141	-0.839544	0.420350
H700	H	0.378859	-0.339544	0.920350
H701	H	-0.188016	-0.773938	0.415515
H702	H	0.311984	-0.273938	0.915515
H703	H	-0.195422	-0.773905	0.465169
H704	H	0.304578	-0.273905	0.965169
H705	H	-0.200411	-0.816590	0.463279
H706	H	0.299589	-0.316590	0.963279
C707	C	0.100633	-0.893209	0.384268
C708	C	0.600633	-0.393209	0.884268
C709	C	0.107442	-0.922644	0.429789
C710	C	0.607442	-0.422644	0.929789
C711	C	0.157453	-0.948364	0.422701
C712	C	0.657453	-0.448364	0.922701
H713	H	0.112734	-0.913265	0.365499
H714	H	0.612734	-0.413265	0.865499
H715	H	0.117839	-0.870629	0.367356
H716	H	0.617839	-0.370629	0.867356
H717	H	0.090242	-0.945221	0.446694
H718	H	0.590242	-0.445221	0.946694
H719	H	0.095353	-0.902600	0.448565
H720	H	0.595353	-0.402600	0.948565
H721	H	0.174659	-0.925785	0.405789
H722	H	0.674659	-0.425785	0.905789
H723	H	0.169549	-0.968418	0.403931
H724	H	0.669549	-0.468418	0.903931
H725	H	0.162079	-0.968336	0.453585
H726	H	0.662079	-0.468336	0.953585
H727	H	-0.235077	-0.614964	0.459366
H728	H	0.264923	-0.114964	0.959366
C729	C	-0.335019	-0.587283	0.503938
C730	C	0.164981	-0.087283	1.003938
C731	C	-0.301640	-0.616809	0.529543
C732	C	0.198360	-0.116809	1.029543
C733	C	-0.327255	-0.629259	0.579982
C734	C	0.172745	-0.129259	1.079982
H735	H	-0.355031	-0.558310	0.512402
H736	H	0.144969	-0.058310	1.012402
H737	H	-0.355022	-0.604682	0.512323
H738	H	0.144978	-0.104682	1.012323
H739	H	-0.281645	-0.599409	0.521162
H740	H	0.218355	-0.099409	1.021162
H741	H	-0.281628	-0.645788	0.521094
H742	H	0.218372	-0.145788	1.021094
H743	H	-0.347258	-0.646659	0.588367
H744	H	0.152742	-0.146659	1.088367
H745	H	-0.347266	-0.600284	0.588441
H746	H	0.152734	-0.100284	1.088441
H747	H	-0.304611	-0.649297	0.597361
H748	H	0.195389	-0.149297	1.097361
H749	H	0.129813	-0.126117	0.418717
H750	H	0.629813	0.373883	0.918717
H751	H	-0.327887	-0.507903	0.338181
H752	H	0.172113	-0.007903	0.838181
C753	C	-0.227946	-0.535622	0.293609
C754	C	0.272054	-0.035622	0.793609
C755	C	-0.261327	-0.506119	0.268006
C756	C	0.238673	-0.006119	0.768006
C757	C	-0.235714	-0.493721	0.217566
C758	C	0.264286	0.006279	0.717566
H759	H	-0.207929	-0.518222	0.285174
H760	H	0.292071	-0.018222	0.785174
H761	H	-0.207949	-0.564628	0.285193
H762	H	0.292051	-0.064628	0.785193
H763	H	-0.281316	-0.477118	0.276418
H764	H	0.218684	0.022882	0.776418
H765	H	-0.281346	-0.523510	0.276425
H766	H	0.218654	-0.023510	0.776425
H767	H	-0.215717	-0.522727	0.209150
H768	H	0.284283	-0.022727	0.709150
H769	H	-0.215697	-0.476323	0.209137
H770	H	0.284303	0.023677	0.709137
H771	H	-0.258359	-0.473706	0.200188
H772	H	0.241641	0.026294	0.700188
