data_functionalizedCrystal
_audit_creation_method	'MofGen! by Chris Wilmer'
_symmetry_space_group_name_H-M	'P1'
_symmetry_Int_Tables_number	1
_symmetry_cell_setting	triclinic
loop_
_symmetry_equiv_pos_as_xyz
  x,y,z
_cell_length_a	14.044191
_cell_length_b	14.044220
_cell_length_c	13.596369
_cell_angle_alpha	89.993157
_cell_angle_beta	89.997249
_cell_angle_gamma	93.190327
loop_
_atom_site_label
_atom_site_type_symbol
_atom_site_fract_x
_atom_site_fract_y
_atom_site_fract_z
O1	O	1.277174	0.230202	-0.081748
O2	O	1.777174	0.730202	0.418252
O3	O	1.000501	0.221889	-0.081761
O4	O	1.500501	0.721889	0.418239
O5	O	1.134685	0.087709	-0.081745
O6	O	1.634685	0.587709	0.418255
O7	O	1.142990	0.364381	-0.081764
O8	O	1.642990	0.864381	0.418236
O9	O	1.134669	0.087700	0.081838
O10	O	1.634669	0.587700	0.581838
O11	O	1.000486	0.221880	0.081822
O12	O	1.500486	0.721880	0.581822
O13	O	1.277158	0.230193	0.081835
O14	O	1.777158	0.730193	0.581835
Zn15	Zn	1.138820	0.226035	0.107801
Zn16	Zn	1.638820	0.726035	0.607801
Zn17	Zn	1.138840	0.226047	-0.107727
Zn18	Zn	1.638840	0.726047	0.392273
O19	O	1.142975	0.364372	0.081819
O20	O	1.642975	0.864372	0.581819
C21	C	0.964872	0.218248	0.000029
C22	C	1.464872	0.718248	0.500029
C23	C	0.858728	0.207401	0.000025
C24	C	1.358728	0.707401	0.500025
C25	C	0.613270	0.264501	0.000031
C26	C	1.113270	0.764501	0.500031
C27	C	0.664395	0.187585	0.000035
C28	C	1.164395	0.687585	0.500035
C29	C	0.772532	0.198613	0.000029
C30	C	1.272532	0.698613	0.500029
C31	C	0.505123	0.253474	0.000036
C32	C	1.005123	0.753474	0.500036
C33	C	1.131041	0.052083	0.000047
C34	C	1.631041	0.552083	0.500047
C35	C	1.120197	-0.054060	0.000048
C36	C	1.620197	0.445940	0.500048
C37	C	1.100370	-0.248398	0.000033
C38	C	1.600370	0.251602	0.500033
C39	C	1.177285	-0.299526	0.000033
C40	C	1.677285	0.200474	0.500033
C41	C	1.166253	-0.407663	0.000025
C42	C	1.666253	0.092337	0.500025
C43	C	1.111400	-0.140252	0.000041
C44	C	1.611400	0.359748	0.500041
C45	C	1.312788	0.233834	0.000043
C46	C	1.812788	0.733834	0.500043
C47	C	1.418931	0.244681	0.000040
C48	C	1.918931	0.744681	0.500040
C49	C	1.146618	0.399998	0.000025
C50	C	1.646618	0.899998	0.500025
C51	C	1.157463	0.506142	0.000018
C52	C	1.657463	1.006142	0.500018
N53	N	1.138813	0.226027	0.254893
N54	N	1.638813	0.726027	0.754893
N55	N	1.138853	0.226048	-0.254819
N56	N	1.638853	0.726048	0.245181
C57	C	1.138839	0.226048	0.656184
C58	C	1.638839	0.726048	1.156184
C59	C	1.138829	0.226045	0.544532
C60	C	1.638829	0.726045	1.044532
C61	C	1.138826	0.226038	0.455542
C62	C	1.638826	0.726038	0.955542
C63	C	1.138816	0.226034	0.343883
C64	C	1.638816	0.726034	0.843883
H65	H	0.626952	0.113452	-0.000030
H66	H	1.126952	0.613452	0.499970
H67	H	1.026242	-0.285837	0.000027
H68	H	1.526242	0.214163	0.500027
C69	C	0.663852	0.364645	0.000014
C70	C	1.163852	0.864645	0.500014
N71	N	0.701962	0.440072	-0.000003
N72	N	1.201962	0.940072	0.499997
C73	C	1.277437	-0.248947	0.000051
C74	C	1.777437	0.251053	0.500051
N75	N	1.352869	-0.210846	0.000070
N76	N	1.852869	0.289154	0.500070
