data_functionalizedCrystal
_audit_creation_method	'MofGen! by Chris Wilmer'
_symmetry_space_group_name_H-M	'P1'
_symmetry_Int_Tables_number	1
_symmetry_cell_setting	triclinic
loop_
_symmetry_equiv_pos_as_xyz
  x,y,z
_cell_length_a	27.731994
_cell_length_b	27.732048
_cell_length_c	14.421503
_cell_angle_alpha	90.003297
_cell_angle_beta	89.986791
_cell_angle_gamma	82.631595
loop_
_atom_site_label
_atom_site_type_symbol
_atom_site_fract_x
_atom_site_fract_y
_atom_site_fract_z
O1	O	0.640937	0.057389	0.076989
O2	O	1.140937	0.557389	0.576989
O3	O	0.500139	0.066162	0.077022
O4	O	1.000139	0.566162	0.577022
O5	O	0.574911	-0.008622	0.076987
O6	O	1.074911	0.491378	0.576987
O7	O	0.566165	0.132173	0.077024
O8	O	1.066165	0.632173	0.577024
O9	O	0.574920	-0.008618	-0.077237
O10	O	1.074920	0.491382	0.422763
O11	O	0.500148	0.066166	-0.077202
O12	O	1.000148	0.566166	0.422798
O13	O	0.640946	0.057393	-0.077234
O14	O	1.140946	0.557393	0.422766
Cu15	Cu	0.570548	0.061780	-0.091300
Cu16	Cu	1.070548	0.561780	0.408700
Cu17	Cu	0.570537	0.061775	0.091087
Cu18	Cu	1.070537	0.561775	0.591087
O19	O	0.566174	0.132177	-0.077199
O20	O	1.066174	0.632177	0.422801
C21	C	0.482137	0.065984	-0.000086
C22	C	0.982137	0.565984	0.499914
C23	C	0.428480	0.065442	-0.000075
C24	C	0.928480	0.565442	0.499925
C25	C	0.095767	0.062028	-0.084179
C26	C	0.595767	0.562028	0.415821
C27	C	-0.105891	0.059967	-0.084190
C28	C	0.394109	0.559967	0.415810
O29	O	-0.131960	0.059682	-0.155686
O30	O	0.368040	0.559682	0.344314
N31	N	-0.131111	0.059708	-0.000123
N32	N	0.368889	0.559708	0.499877
C33	C	-0.105913	0.059962	0.083953
C34	C	0.394087	0.559962	0.583953
O35	O	-0.131990	0.059690	0.155457
O36	O	0.368010	0.559690	0.655457
C37	C	0.095745	0.062020	0.083963
C38	C	0.595745	0.562020	0.583963
C39	C	0.120961	0.062283	-0.000109
C40	C	0.620961	0.562283	0.499891
C41	C	0.120983	0.062291	-0.168244
C42	C	0.620983	0.562291	0.331756
C43	C	0.171394	0.062809	-0.168241
C44	C	0.671394	0.562809	0.331759
C45	C	0.196589	0.063064	-0.084171
C46	C	0.696589	0.563064	0.415829
C47	C	0.171372	0.062801	-0.000106
C48	C	0.671372	0.562801	0.499894
C49	C	0.120943	0.062270	0.168038
C50	C	0.620943	0.562270	0.668038
C51	C	0.171361	0.062783	0.168033
C52	C	0.671361	0.562783	0.668033
C53	C	0.196577	0.063047	0.083961
C54	C	0.696577	0.563047	0.583961
C55	C	0.246978	0.063575	0.083967
C56	C	0.746978	0.563575	0.583967
N57	N	0.272198	0.063833	-0.000100
N58	N	0.772198	0.563833	0.499900
C59	C	0.247003	0.063578	-0.084169
C60	C	0.747003	0.563578	0.415831
C61	C	-0.211786	0.058882	0.083942
C62	C	0.288214	0.558882	0.583942
C63	C	-0.262201	0.058369	0.083940
C64	C	0.237799	0.558369	0.583940
C65	C	-0.262176	0.058373	-0.084204
C66	C	0.237824	0.558373	0.415796
C67	C	-0.211761	0.058890	-0.084200
C68	C	0.288239	0.558890	0.415800
C69	C	-0.186566	0.059141	-0.000125
C70	C	0.313434	0.559141	0.499875
C71	C	0.352870	0.064666	-0.084155
C72	C	0.852870	0.564666	0.415845
C73	C	0.403286	0.065187	-0.084144
C74	C	0.903286	0.565187	0.415856
C75	C	0.403257	0.065180	0.083999
C76	C	0.903257	0.565180	0.583999
C77	C	0.352845	0.064662	0.083988
C78	C	0.852845	0.564662	0.583988
C79	C	0.327654	0.064404	-0.000096
C80	C	0.827654	0.564404	0.499904
O81	O	0.273078	0.063855	0.155426
O82	O	0.773078	0.563855	0.655426
O83	O	0.273091	0.063840	-0.155662
O84	O	0.773091	0.563840	0.344338
C85	C	0.045356	0.061510	-0.084182
C86	C	0.545356	0.561510	0.415818
C87	C	0.020139	0.061247	-0.000117
C88	C	0.520139	0.561247	0.499883
C89	C	0.045334	0.061502	0.083953
C90	C	0.545334	0.561502	0.583953
C91	C	-0.030275	0.060734	-0.000119
C92	C	0.469725	0.560734	0.499881
C93	C	-0.055470	0.060479	-0.084188
C94	C	0.444530	0.560479	0.415812
C95	C	-0.030250	0.060737	-0.168255
C96	C	0.469750	0.560737	0.331745
C97	C	0.020161	0.061255	-0.168252
C98	C	0.520161	0.561255	0.331748
C99	C	0.020114	0.061244	0.168020
C100	C	0.520114	0.561244	0.668020
C101	C	-0.030297	0.060726	0.168009
C102	C	0.469703	0.560726	0.668009
C103	C	-0.055492	0.060471	0.083940
C104	C	0.444508	0.560471	0.583940
C105	C	0.574732	-0.026627	-0.000127
C106	C	1.074732	0.473373	0.499873
C107	C	0.574179	-0.080282	-0.000135
C108	C	1.074179	0.419718	0.499865
C109	C	0.614884	-0.419105	-0.000097
C110	C	1.114884	0.080895	0.499903
C111	C	0.612833	-0.620764	-0.000083
C112	C	1.112833	-0.120764	0.499917
O113	O	0.650055	-0.652027	-0.000051
O114	O	1.150055	-0.152027	0.499949
N115	N	0.568496	-0.639879	-0.000074
N116	N	1.068496	-0.139879	0.499926
C117	C	0.524670	-0.608576	-0.000062
C118	C	1.024670	-0.108576	0.499938
O119	O	0.486912	-0.629462	-0.000044
O120	O	0.986912	-0.129462	0.499956
C121	C	0.526721	-0.406918	-0.000069
C122	C	1.026721	0.093082	0.499931
C123	C	0.571061	-0.387805	-0.000087
C124	C	1.071061	0.112195	0.499913
C125	C	0.659220	-0.399992	-0.000114
C126	C	1.159220	0.100008	0.499886
C127	C	0.659732	-0.349580	-0.000123
C128	C	1.159732	0.150420	0.499877
C129	C	0.615908	-0.318281	-0.000113
C130	C	1.115908	0.181719	0.499887
C131	C	0.571573	-0.337394	-0.000096
C132	C	1.071573	0.162606	0.499904
C133	C	0.482895	-0.375615	-0.000050
C134	C	0.982895	0.124385	0.499950
C135	C	0.483412	-0.325198	-0.000049
C136	C	0.983412	0.174802	0.499951
C137	C	0.527751	-0.306086	-0.000068
C138	C	1.027751	0.193914	0.499932
C139	C	0.528262	-0.255683	-0.000095
C140	C	1.028262	0.244317	0.499905
N141	N	0.572598	-0.236567	-0.000104
N142	N	1.072598	0.263433	0.499896
C143	C	0.616421	-0.267867	-0.000114
C144	C	1.116421	0.232133	0.499886
C145	C	0.523596	-0.714450	-0.000060
C146	C	1.023596	-0.214450	0.499940
C147	C	0.523083	-0.764864	-0.000060
C148	C	1.023083	-0.264864	0.499940
C149	C	0.611246	-0.777049	-0.000080
C150	C	1.111246	-0.277049	0.499920
C151	C	0.611759	-0.726633	-0.000086
C152	C	1.111759	-0.226633	0.499914
C153	C	0.567932	-0.695335	-0.000070
C154	C	1.067932	-0.195335	0.499930
C155	C	0.617494	-0.161998	-0.000132
C156	C	1.117494	0.338002	0.499868
C157	C	0.618002	-0.111581	-0.000144
C158	C	1.118002	0.388419	0.499856
C159	C	0.529839	-0.099401	-0.000120
C160	C	1.029839	0.400599	0.499880
C161	C	0.529331	-0.149813	-0.000112
C162	C	1.029331	0.350187	0.499888
C163	C	0.573162	-0.181111	-0.000115
C164	C	1.073162	0.318889	0.499885
O165	O	0.491060	-0.224391	-0.000117
O166	O	0.991060	0.275609	0.499883
O167	O	0.654174	-0.246971	-0.000111
O168	O	1.154174	0.253029	0.499889
C169	C	0.614372	-0.469517	-0.000088
C170	C	1.114372	0.030483	0.499912
C171	C	0.570036	-0.488629	-0.000071
C172	C	1.070036	0.011371	0.499929
C173	C	0.526213	-0.457330	-0.000061
C174	C	1.026213	0.042670	0.499939
C175	C	0.569523	-0.539043	-0.000071
C176	C	1.069523	-0.039043	0.499929
C177	C	0.613346	-0.570343	-0.000080
C178	C	1.113346	-0.070343	0.499920
C179	C	0.657683	-0.551228	-0.000089
C180	C	1.157683	-0.051228	0.499911
C181	C	0.658195	-0.500816	-0.000098
C182	C	1.158195	-0.000816	0.499902
C183	C	0.481876	-0.476445	-0.000052
C184	C	0.981876	0.023555	0.499948
C185	C	0.481367	-0.526857	-0.000045
C186	C	0.981367	-0.026857	0.499955
C187	C	0.525191	-0.558157	-0.000054
C188	C	1.025191	-0.058157	0.499946
C189	C	0.658949	0.057571	-0.000124
C190	C	1.158949	0.557571	0.499876
C191	C	0.712605	0.058114	-0.000130
C192	C	1.212605	0.558114	0.499870
C193	C	0.566353	0.150182	-0.000083
C194	C	1.066353	0.650182	0.499917
C195	C	0.566906	0.203837	-0.000069
C196	C	1.066906	0.703837	0.499931
N197	N	0.570559	0.061784	-0.219581
N198	N	1.070559	0.561784	0.280419
C199	C	0.605141	0.027196	-0.469226
C200	C	1.105141	0.527196	0.030774
C201	C	0.561531	0.018143	-0.531016
C202	C	1.061531	0.518143	-0.031016
C203	C	0.570548	0.061778	-0.408742
C204	C	1.070548	0.561778	0.091258
C205	C	0.614148	0.070803	-0.531047
C206	C	1.114148	0.570803	-0.031047
C207	C	0.570542	0.061771	-0.591464
C208	C	1.070542	0.561771	-0.091464
C209	C	0.526916	0.052704	-0.469171
C210	C	1.026916	0.552704	0.030829
C211	C	0.579562	0.105382	-0.469197
C212	C	1.079562	0.605382	0.030803
C213	C	0.535921	0.096348	-0.530959
C214	C	1.035921	0.596348	-0.030959
C215	C	0.570553	0.061781	-0.303481
C216	C	1.070553	0.561781	0.196519
C217	C	0.570532	0.061769	-0.696723
C218	C	1.070532	0.561769	-0.196723
N219	N	0.570530	0.061767	0.219368
N220	N	1.070530	0.561767	0.719368
H221	H	0.191922	0.063021	-0.236701
H222	H	0.691922	0.563021	0.263299
C223	C	0.477089	0.042336	-0.432618
C224	C	0.977089	0.542336	0.067382
H225	H	0.477400	0.042388	-0.366744
H226	H	0.977400	0.542388	0.133256
H227	H	0.452512	0.066760	-0.454253
H228	H	0.952512	0.566760	0.045747
H229	H	0.470620	0.011460	-0.454292
H230	H	0.970620	0.511460	0.045708
H231	H	0.332365	0.064460	-0.152625
H232	H	0.832365	0.564460	0.347375
C233	C	-0.289912	0.058212	-0.176677
C234	C	0.210088	0.558212	0.323323
H235	H	-0.323552	0.057902	-0.164630
H236	H	0.176448	0.557902	0.335370
H237	H	-0.285508	0.086532	-0.211072
H238	H	0.214492	0.586532	0.288928
H239	H	-0.277798	0.030129	-0.211372
H240	H	0.222202	0.530129	0.288628
C241	C	0.551223	-0.031673	-0.567709
C242	C	1.051223	0.468327	-0.067709
H243	H	0.575833	-0.056207	-0.546579
H244	H	1.075833	0.443793	-0.046579
H245	H	0.520486	-0.038325	-0.545615
H246	H	1.020486	0.461675	-0.045615
H247	H	0.551004	-0.031221	-0.633577
H248	H	1.051004	0.468779	-0.133577
C249	C	0.496358	0.135852	-0.567357
C250	C	0.996358	0.635852	-0.067357
H251	H	0.465417	0.129357	-0.546055
H252	H	0.965417	0.629357	-0.046055
H253	H	0.502500	0.166752	-0.545255
H254	H	1.002500	0.666752	-0.045255
H255	H	0.496742	0.135809	-0.633227
H256	H	0.996742	0.635809	-0.133227
C257	C	0.589889	0.155183	-0.432474
C258	C	1.089889	0.655183	0.067526
H259	H	0.620900	0.161549	-0.453621
H260	H	1.120900	0.661549	0.046379
H261	H	0.565631	0.179808	-0.454528
H262	H	1.065631	0.679808	0.045472
H263	H	0.589521	0.154910	-0.366606
H264	H	1.089521	0.654910	0.133394
H265	H	0.651022	0.078440	-0.558225
H266	H	1.151022	0.578440	-0.058225
C267	C	0.430978	0.065456	0.176467
C268	C	0.930978	0.565456	0.676467
H269	H	0.464614	0.065796	0.164421
H270	H	0.964614	0.565796	0.664421
H271	H	0.418816	0.093567	0.211031
H272	H	0.918816	0.593567	0.711031
H273	H	0.426613	0.037165	0.210993
H274	H	0.926613	0.537165	0.710993
C275	C	0.093217	0.061970	0.260520
C276	C	0.593217	0.561970	0.760520
H277	H	0.115450	0.062187	0.310580
H278	H	0.615450	0.562187	0.810580
H279	H	0.069647	0.089964	0.264047
H280	H	0.569647	0.589964	0.764047
H281	H	0.077456	0.033562	0.263996
H282	H	0.577456	0.533562	0.763996
H283	H	0.423814	0.065403	-0.152609
H284	H	0.923814	0.565403	0.347391
C285	C	0.199073	0.063061	0.260516
C286	C	0.699073	0.563061	0.760516
H287	H	0.232711	0.063403	0.248484
H288	H	0.732711	0.563403	0.748484
H289	H	0.186905	0.091173	0.295069
H290	H	0.686905	0.591173	0.795069
H291	H	0.194707	0.034771	0.295044
H292	H	0.694707	0.534771	0.795044
H293	H	-0.050773	0.060532	-0.236708
H294	H	0.449227	0.560532	0.263292
C295	C	0.706968	-0.479799	-0.000109
C296	C	1.206968	0.020201	0.499891
H297	H	0.732991	-0.505665	-0.000105
H298	H	1.232991	-0.005665	0.499895
H299	H	0.709010	-0.460388	-0.053890
H300	H	1.209010	0.039612	0.446110
H301	H	0.709000	-0.460385	0.053679
H302	H	1.209000	0.039615	0.553679
C303	C	0.093276	0.062015	-0.260729
C304	C	0.593276	0.562015	0.239271
H305	H	0.115521	0.062249	-0.310786
H306	H	0.615521	0.562249	0.189214
H307	H	0.077506	0.033617	-0.264249
H308	H	0.577506	0.533617	0.235751
H309	H	0.069714	0.090020	-0.264217
H310	H	0.569714	0.590020	0.235783
H311	H	-0.191233	0.059105	-0.152660
H312	H	0.308767	0.559105	0.347340
C313	C	0.434121	-0.396628	-0.000022
C314	C	0.934121	0.103372	0.499978
H315	H	0.408099	-0.370760	-0.000004
H316	H	0.908099	0.129240	0.499996
H317	H	0.432082	-0.416044	-0.053797
H318	H	0.932082	0.083956	0.446203
H319	H	0.432086	-0.416035	0.053772
H320	H	0.932086	0.083965	0.553772
C321	C	0.708505	-0.328563	-0.000126
C322	C	1.208505	0.171437	0.499874
H323	H	0.734528	-0.354430	-0.000119
H324	H	1.234528	0.145570	0.499881
H325	H	0.710549	-0.309152	-0.053904
H326	H	1.210549	0.190848	0.446096
H327	H	0.710534	-0.309150	0.053665
H328	H	1.210534	0.190850	0.553665
C329	C	-0.289934	0.058085	0.176419
C330	C	0.210066	0.558085	0.676419
H331	H	-0.267704	0.058306	0.226483
H332	H	0.232296	0.558306	0.726483
H333	H	-0.313501	0.086083	0.179927
H334	H	0.186499	0.586083	0.679927
H335	H	-0.305700	0.029681	0.179908
H336	H	0.194300	0.529681	0.679908
C337	C	-0.184079	0.059164	0.176431
C338	C	0.315921	0.559164	0.676431
H339	H	-0.206325	0.058942	0.226490
H340	H	0.293675	0.558942	0.726490
H341	H	-0.160513	0.031167	0.179932
H342	H	0.339487	0.531167	0.679932
H343	H	-0.168315	0.087569	0.179935
H344	H	0.331685	0.587569	0.679935
H345	H	0.494160	-0.073908	-0.000115
H346	H	0.994160	0.426092	0.499885
H347	H	0.647863	-0.711076	-0.000101
H348	H	1.147863	-0.211076	0.499899
H349	H	0.040622	0.061450	0.236481
H350	H	0.540622	0.561450	0.736481
C351	C	0.325104	0.064388	0.176465
C352	C	0.825104	0.564388	0.676465
H353	H	0.347331	0.064616	0.226533
H354	H	0.847331	0.564616	0.726533
H355	H	0.301537	0.092387	0.179955
H356	H	0.801537	0.592387	0.679955
H357	H	0.309338	0.035985	0.179964
H358	H	0.809338	0.535985	0.679964
C359	C	0.474311	-0.785884	-0.000050
C360	C	0.974311	-0.285884	0.499950
H361	H	0.480277	-0.820392	-0.000058
H362	H	0.980277	-0.320392	0.499942
H363	H	0.456281	-0.775114	0.053735
H364	H	0.956281	-0.275114	0.553735
H365	H	0.456288	-0.775119	-0.053834
H366	H	0.956288	-0.275119	0.446166
C367	C	-0.058030	0.060436	0.260496
C368	C	0.441970	0.560436	0.760496
H369	H	-0.035800	0.060657	0.310560
H370	H	0.464200	0.560657	0.810560
H371	H	-0.081600	0.088431	0.264010
H372	H	0.418400	0.588431	0.764010
H373	H	-0.073792	0.032029	0.263979
H374	H	0.426208	0.532029	0.763979
H375	H	0.040688	0.061470	-0.236712
H376	H	0.540688	0.561470	0.263288
H377	H	0.654110	-0.096023	-0.000162
H378	H	1.154110	0.403977	0.499838
C379	C	0.432591	-0.547875	-0.000021
C380	C	0.932591	-0.047875	0.499979
H381	H	0.406567	-0.522010	-0.000007
H382	H	0.906567	-0.022010	0.499993
H383	H	0.430554	-0.567294	-0.053794
H384	H	0.930554	-0.067294	0.446206
H385	H	0.430558	-0.567281	0.053775
H386	H	0.930558	-0.067281	0.553775
C387	C	0.665707	-0.196418	-0.000143
C388	C	1.165707	0.303582	0.499857
H389	H	0.692182	-0.177809	-0.000163
H390	H	1.192182	0.322191	0.499837
H391	H	0.667343	-0.216336	0.053638
H392	H	1.167343	0.283664	0.553638
H393	H	0.667343	-0.216340	-0.053931
H394	H	1.167343	0.283660	0.446069
C395	C	0.659451	-0.811484	-0.000075
C396	C	1.159451	-0.311484	0.499925
H397	H	0.652791	-0.844244	-0.000063
H398	H	1.152791	-0.344244	0.499937
H399	H	0.677659	-0.805734	-0.053853
H400	H	1.177659	-0.305734	0.446147
H401	H	0.677637	-0.805722	0.053716
H402	H	1.177637	-0.305722	0.553716
H403	H	0.694908	-0.425472	-0.000118
H404	H	1.194908	0.074528	0.499882
C405	C	0.475383	-0.680027	-0.000054
C406	C	0.975383	-0.180027	0.499946
H407	H	0.448909	-0.698636	-0.000059
H408	H	0.948909	-0.198636	0.499941
H409	H	0.473740	-0.660102	0.053724
H410	H	0.973740	-0.160102	0.553724
H411	H	0.473754	-0.660111	-0.053845
H412	H	0.973754	-0.160111	0.446155
H413	H	0.447722	-0.299716	-0.000034
H414	H	0.947722	0.200284	0.499966
C415	C	0.644616	-0.012329	-0.432596
C416	C	1.144616	0.487671	0.067404
H417	H	0.638127	-0.043294	-0.453763
H418	H	1.138127	0.456706	0.046237
H419	H	0.675531	-0.006221	-0.454688
H420	H	1.175531	0.493779	0.045312
H421	H	0.644535	-0.011864	-0.366728
H422	H	1.144535	0.488136	0.133272
H423	H	0.493226	-0.165375	-0.000123
H424	H	0.993226	0.334625	0.499877
H425	H	0.693365	-0.576720	-0.000101
H426	H	1.193365	-0.076720	0.499899
H427	H	0.446189	-0.450966	-0.000042
H428	H	0.946189	0.049034	0.499958
