data_functionalizedCrystal
_audit_creation_method	'MofGen! by Chris Wilmer'
_symmetry_space_group_name_H-M	'P1'
_symmetry_Int_Tables_number	1
_symmetry_cell_setting	triclinic
loop_
_symmetry_equiv_pos_as_xyz
  x,y,z
_cell_length_a	10.685980
_cell_length_b	18.101395
_cell_length_c	10.686551
_cell_angle_alpha	85.593544
_cell_angle_beta	81.591741
_cell_angle_gamma	94.397672
loop_
_atom_site_label
_atom_site_type_symbol
_atom_site_fract_x
_atom_site_fract_y
_atom_site_fract_z
Zn1	Zn	1.995707	-0.165994	-0.866689
Zn2	Zn	1.979219	-0.300158	-0.654413
Zn3	Zn	1.767124	-0.186607	-0.638151
Zn4	Zn	1.783343	-0.300087	-0.850323
O5	O	1.881348	-0.238211	-0.752394
O6	O	2.171158	-0.175195	-0.852184
O7	O	1.937396	-0.293752	-0.474623
O8	O	1.797559	-0.080232	-0.668511
O9	O	2.159044	-0.273765	-0.696226
O10	O	1.965498	-0.065089	-0.836416
O11	O	1.781571	-0.210326	-0.462675
O12	O	1.591638	-0.210256	-0.652642
O13	O	1.825201	-0.273642	-1.030127
O14	O	1.603554	-0.293629	-0.808523
O15	O	1.981224	-0.175125	-1.042151
O16	O	1.953123	-0.403789	-0.680357
O17	O	1.809213	-0.403736	-0.824292
C18	C	1.551536	-0.254172	-0.727043
C19	C	1.410444	-0.261017	-0.716228
C20	C	1.881176	-0.430632	-0.752344
C21	C	1.881221	-0.512943	-0.752373
C22	C	1.881505	-0.812017	-0.752463
C23	C	1.791207	-0.780666	-0.843284
C24	C	1.790718	-0.695086	-0.842940
C25	C	1.881364	-0.663643	-0.752420
C26	C	1.834868	-0.703044	-0.615861
C27	C	1.834282	-0.788691	-0.616401
C28	C	2.018423	-0.772193	-0.797040
C29	C	2.017859	-0.686438	-0.799914
C30	C	1.881286	-0.579788	-0.752387
C31	C	1.881579	-0.895872	-0.752487
C32	C	2.212448	-0.222189	-0.777845
C33	C	2.353543	-0.215361	-0.788690
C34	C	1.906861	-0.222077	-1.083485
C35	C	1.917733	-0.215201	-1.224576
C36	C	1.881558	-0.045036	-0.752475
C37	C	1.881648	0.037283	-0.752509
C38	C	1.856008	-0.254226	-0.422597
C39	C	1.845382	-0.260882	-0.281525
H40	H	1.821000	-0.668108	-0.943876
N41	N	1.336149	-0.316617	-0.627988
N42	N	1.255930	-0.297972	-0.541564
H43	H	1.203459	-0.337239	-0.479243
H44	H	1.988004	-0.170832	-1.283765
H45	H	2.085824	-0.792390	-0.731018
H46	H	1.412768	-0.171033	-0.859001
H47	H	1.898114	-0.682985	-0.545897
N48	N	1.757215	-0.316533	-1.207290
N49	N	1.641207	-0.316576	-1.212996
H50	H	1.578934	-0.355880	-1.160560
H51	H	1.690555	-0.808133	-0.813276
N52	N	1.829022	-0.799005	-0.970282
N53	N	1.831140	-0.865605	-0.993292
H54	H	1.857881	-0.878552	-1.082988
N55	N	1.663660	-0.676901	-0.804882
N56	N	1.575070	-0.727451	-0.778482
H57	H	1.485329	-0.714610	-0.751600
N58	N	1.708350	-0.821575	-0.570513
N59	N	1.656165	-0.811772	-0.461250
H60	H	1.567223	-0.834994	-0.428840
N61	N	1.912480	-0.815151	-0.527893
N62	N	1.967307	-0.770360	-0.465915
H63	H	2.022519	-0.789044	-0.403392
N64	N	2.107763	-0.658978	-0.723996
N65	N	2.167233	-0.703376	-0.665171
H66	H	2.230727	-0.683987	-0.611543
N67	N	1.710183	-0.683913	-0.569446
N68	N	1.655339	-0.641292	-0.636692
H69	H	1.567278	-0.627780	-0.603918
N70	N	2.069107	-0.791382	-0.920503
N71	N	2.083226	-0.857816	-0.938794
H72	H	2.119012	-0.871371	-1.025991
N73	N	2.061601	-0.653233	-0.926053
N74	N	1.992582	-0.612922	-0.980845
H75	H	2.023470	-0.589468	-1.069933
