data_functionalizedCrystal
_audit_creation_method	'MofGen! by Chris Wilmer'
_symmetry_space_group_name_H-M	'P1'
_symmetry_Int_Tables_number	1
_symmetry_cell_setting	triclinic
loop_
_symmetry_equiv_pos_as_xyz
  x,y,z
_cell_length_a	23.204084
_cell_length_b	23.204045
_cell_length_c	23.204116
_cell_angle_alpha	59.996887
_cell_angle_beta	89.996849
_cell_angle_gamma	59.999904
loop_
_atom_site_label
_atom_site_type_symbol
_atom_site_fract_x
_atom_site_fract_y
_atom_site_fract_z
O1	O	0.395338	0.508351	-0.017165
O2	O	0.311534	0.390337	0.017047
O3	O	0.311533	0.508346	-0.100966
O4	O	0.395340	0.390342	0.100848
O5	O	0.407384	0.412495	-0.100966
O6	O	0.407386	0.294485	0.017047
O7	O	0.491189	0.412500	-0.017165
Cu8	Cu	0.458039	0.344740	-0.000059
Cu9	Cu	0.344684	0.458096	-0.000059
O10	O	0.491191	0.294490	0.100848
C11	C	0.492067	0.621388	-0.024963
C12	C	0.456504	0.692515	-0.020072
C13	C	0.561424	0.586875	-0.025453
C14	C	0.492070	0.517023	-0.024955
C15	C	0.456510	0.476563	-0.020056
C16	C	0.561427	0.482669	-0.025445
C17	C	0.596427	0.517028	-0.024963
C18	C	0.672445	0.476573	-0.020071
C19	C	0.457226	0.586870	-0.025446
C20	C	0.144181	0.212795	0.035745
C21	C	0.068162	0.253253	0.030849
C22	C	0.179182	0.142951	0.036231
C23	C	0.248541	0.212792	0.035749
C24	C	0.284105	0.253247	0.030857
C25	C	0.283384	0.142948	0.036235
C26	C	0.248540	0.108436	0.035744
C27	C	0.284102	0.037312	0.030848
C28	C	0.179184	0.247149	0.036235
C29	C	0.312832	-0.020147	0.026891
C30	C	0.006745	0.285940	0.026893
C31	C	0.312837	0.285931	0.026904
C32	C	0.348875	-0.092234	0.021928
C33	C	-0.070304	0.326947	0.021930
C34	C	0.348882	0.326934	0.021946
C35	C	0.248544	0.590047	-0.445864
C36	C	0.284106	0.549591	-0.481426
C37	C	0.179187	0.659892	-0.480706
C38	C	0.248544	0.590047	-0.341505
C39	C	0.284107	0.549590	-0.265486
C40	C	0.179187	0.659892	-0.376506
C41	C	0.144185	0.694406	-0.445863
C42	C	0.068167	0.765531	-0.481424
C43	C	0.283387	0.555691	-0.376507
C44	C	0.006751	0.822991	-0.510153
C45	C	0.312836	0.516905	-0.510157
C46	C	0.312837	0.516904	-0.204070
C47	C	-0.070297	0.895079	-0.546196
C48	C	0.348880	0.475900	-0.546201
C49	C	0.348881	0.475898	-0.127021
O50	O	0.903643	0.294496	0.017034
O51	O	0.701828	0.412510	-0.017179
O52	O	0.819823	0.294506	0.100834
O53	O	0.785648	0.412500	-0.100980
O54	O	0.819820	0.390363	0.100826
O55	O	0.701825	0.508367	-0.017187
O56	O	0.903640	0.390353	0.017026
Cu57	Cu	0.802733	0.458112	-0.000082
Cu58	Cu	0.802736	0.344751	-0.000072
O59	O	0.785645	0.508356	-0.100988
O60	O	0.407380	0.886609	0.017032
O61	O	0.491183	0.719005	-0.017180
O62	O	0.491179	0.718989	0.100833
O63	O	0.407384	0.886625	-0.100981
O64	O	0.395325	0.718996	0.100825
O65	O	0.395329	0.719012	-0.017189
O66	O	0.311525	0.886616	0.017023
Cu67	Cu	0.344675	0.802815	-0.000083
Cu68	Cu	0.458034	0.802806	-0.000073
O69	O	0.311530	0.886632	-0.100990
O70	O	-0.298162	1.083846	-0.592646
O71	O	-0.096350	0.916232	-0.508846
O72	O	-0.214353	0.916226	-0.508835
O73	O	-0.180159	1.083851	-0.592657
O74	O	-0.214356	0.916229	-0.604687
O75	O	-0.096353	0.916234	-0.604698
O76	O	-0.298165	1.083848	-0.688498
Cu77	Cu	-0.197259	1.000042	-0.655350
Cu78	Cu	-0.197256	1.000039	-0.541994
O79	O	-0.180162	1.083854	-0.688509
O80	O	0.395344	0.390337	-0.688506
O81	O	0.311532	0.508347	-0.604703
O82	O	0.311536	0.390335	-0.604694
O83	O	0.395340	0.508349	-0.688516
O84	O	0.407386	0.294485	-0.508843
O85	O	0.407382	0.412497	-0.508852
O86	O	0.491193	0.294487	-0.592655
Cu87	Cu	0.458039	0.344740	-0.542002
Cu88	Cu	0.344686	0.458094	-0.655357
O89	O	0.491190	0.412499	-0.592665
C90	C	0.596435	0.181463	0.310607
C91	C	0.672453	0.110338	0.346167
C92	C	0.561434	0.215976	0.345451
C93	C	0.492075	0.285822	0.206249
C94	C	0.456512	0.326280	0.130231
C95	C	0.457233	0.320177	0.241252
C96	C	0.492077	0.285821	0.310609
C97	C	0.456515	0.326277	0.346172
C98	C	0.561432	0.215977	0.241250
C99	C	0.827559	0.285873	0.310579
C100	C	0.822657	0.326337	0.346135
C101	C	0.828037	0.216032	0.345424
C102	C	0.827581	0.285857	0.206228
C103	C	0.822704	0.326303	0.130212
C104	C	0.828060	0.216015	0.241232
C105	C	0.827557	0.181511	0.310586
C106	C	0.822653	0.110391	0.346150
C107	C	0.828062	0.320219	0.241225
C108	C	0.492049	0.516998	0.310585
C109	C	0.456483	0.476541	0.346144
C110	C	0.561406	0.482636	0.345432
C111	C	0.492056	0.621364	0.206230
C112	C	0.456497	0.692496	0.130211
C113	C	0.561413	0.586844	0.241235
C114	C	0.596411	0.516993	0.310592
C115	C	0.672429	0.476531	0.346157
C116	C	0.457209	0.586849	0.241228
C117	C	0.767010	0.694370	-0.445874
C118	C	0.771908	0.765494	-0.481439
C119	C	0.766533	0.659846	-0.480711
C120	C	0.766989	0.590021	-0.341515
C121	C	0.771866	0.549575	-0.265499
C122	C	0.766513	0.555656	-0.376511
C123	C	0.767017	0.590002	-0.445865
C124	C	0.771923	0.549536	-0.481419
C125	C	0.766506	0.659865	-0.376520
C126	C	0.775888	0.516842	-0.510143
C127	C	0.775867	0.822953	-0.510172
C128	C	0.775808	0.516897	-0.204085
C129	C	0.780862	0.475827	-0.546180
C130	C	0.780833	0.895040	-0.546218
C131	C	0.780752	0.475902	-0.127038
O132	O	0.785539	0.412579	0.491094
O133	O	0.819754	0.294556	0.407303
O134	O	0.701743	0.412581	0.407278
O135	O	0.903550	0.294555	0.491119
O136	O	0.701765	0.508420	0.311429
O137	O	0.819777	0.390396	0.311454
O138	O	0.785561	0.508419	0.395245
Cu139	Cu	0.802671	0.458158	0.344598
Cu140	Cu	0.802645	0.344817	0.457950
O141	O	0.903573	0.390395	0.395271
C142	C	0.144202	1.212851	-0.445886
C143	C	0.068184	1.253314	-0.481452
C144	C	0.179207	1.247207	-0.480725
C145	C	0.248557	1.108479	-0.341524
C146	C	0.284115	1.037347	-0.265505
C147	C	0.283404	1.142994	-0.376522
C148	C	0.248564	1.212845	-0.445879
C149	C	0.284131	1.253302	-0.481436
C150	C	0.179200	1.143000	-0.376529
C151	C	0.312864	1.285987	-0.510163
C152	C	0.006768	1.286005	-0.510185
C153	C	0.312842	0.979881	-0.204089
C154	C	0.348912	1.326992	-0.546202
C155	C	-0.070280	1.327016	-0.546233
C156	C	0.348881	0.907786	-0.127040
H157	H	0.589528	0.426462	-0.026224
O158	O	0.829098	0.181412	0.207819
C159	C	0.890223	0.100750	0.245587
H160	H	0.909928	0.077301	0.302864
H161	H	0.932967	0.099365	0.220890
C162	C	0.848429	0.074986	0.172487
C163	C	0.872628	0.046183	0.242837
H164	H	0.837578	0.041327	0.170788
H165	H	0.807249	0.129331	0.147040
H166	H	0.884053	0.073831	0.151913
H167	H	0.837001	0.047348	0.263406
H168	H	0.913802	-0.008163	0.268287
O169	O	0.765691	0.694219	-0.342929
C170	C	0.826143	0.637240	-0.282081
H171	H	0.869190	0.589640	-0.288452
H172	H	0.812211	0.606009	-0.234011
C173	C	0.799979	0.739951	-0.264115
C174	C	0.852852	0.681491	-0.271944
H175	H	0.816453	0.767246	-0.257859
H176	H	0.759250	0.778338	-0.305108
H177	H	0.788374	0.713916	-0.224057
H178	H	0.864450	0.707528	-0.312005
H179	H	0.893584	0.643109	-0.230957
H180	H	0.765731	0.499450	-0.348402
H181	H	0.589501	0.426430	0.402419
H182	H	0.151092	1.114118	-0.348433
H183	H	0.589521	0.615766	-0.026241
O184	O	0.828811	0.181695	0.413358
C185	C	0.768329	0.238683	0.417191
H186	H	0.725312	0.286275	0.363201
H187	H	0.782231	0.269922	0.434042
C188	C	0.794425	0.135992	0.537857
C189	C	0.741588	0.194442	0.471547
H190	H	0.777931	0.108703	0.571388
H191	H	0.835174	0.097598	0.535276
H192	H	0.806005	0.162033	0.551890
H193	H	0.730015	0.168399	0.457512
H194	H	0.700836	0.232831	0.474127
H195	H	0.400241	0.615754	-0.026223
H196	H	0.589534	0.187078	0.402442
O197	O	0.145576	0.108556	0.037220
C198	C	0.076743	0.153983	0.037600
H199	H	0.059448	0.218728	0.014738
H200	H	0.076200	0.124118	0.094109
C201	C	0.046892	0.076969	0.020643
C202	C	0.025648	0.156492	-0.007442
H203	H	0.015375	0.078515	-0.007138
H204	H	0.093267	0.046361	0.020389
H205	H	0.046439	0.052090	0.067733
H206	H	0.026110	0.181366	-0.054527
H207	H	-0.020727	0.187105	-0.007198
H208	H	0.828836	0.376430	0.213119
O209	O	0.351364	0.488629	-0.343077
C210	C	0.374732	0.465526	-0.388845
H211	H	0.341579	0.520393	-0.445873
H212	H	0.369005	0.415090	-0.377207
C213	C	0.493500	0.366917	-0.307486
C214	C	0.452784	0.434308	-0.377529
H215	H	0.541647	0.347656	-0.300504
H216	H	0.477757	0.382479	-0.276649
H217	H	0.488720	0.324895	-0.297796
H218	H	0.457558	0.476332	-0.387215
H219	H	0.468530	0.418752	-0.408367
H220	H	0.589514	0.615733	0.213134
O221	O	0.351377	0.108569	0.037199
C222	C	0.374755	0.154052	0.037494
H223	H	0.341564	0.189406	0.059162
H224	H	0.369092	0.198544	-0.018654
C225	C	0.493545	0.052455	0.057781
C226	C	0.452783	0.095871	0.084399
H227	H	0.541677	0.016568	0.086711
H228	H	0.477795	0.021813	0.057579
H229	H	0.488818	0.089539	0.010992
H230	H	0.457504	0.058788	0.131184
H231	H	0.468536	0.126506	0.084609
O232	O	0.389295	0.387322	0.207705
C233	C	0.385446	0.451640	0.204221
H234	H	0.439426	0.440692	0.208781
H235	H	0.368603	0.454564	0.249375
C236	C	0.264776	0.546184	0.127658
C237	C	0.331074	0.532741	0.133253
H238	H	0.231234	0.596212	0.083883
H239	H	0.267367	0.502852	0.130007
H240	H	0.250749	0.548616	0.165291
H241	H	0.345103	0.530299	0.095625
H242	H	0.328483	0.576075	0.130895
H243	H	0.151081	0.303348	0.037024
O244	O	0.594933	0.181421	0.207783
C245	C	0.614514	0.100740	0.245555
H246	H	0.579298	0.094013	0.278965
H247	H	0.671927	0.056910	0.281367
C248	C	0.649170	0.089165	0.152274
C249	C	0.605913	0.080904	0.193303
H250	H	0.643868	0.076927	0.120044
H251	H	0.635981	0.143520	0.126827
H252	H	0.697010	0.052639	0.182124
H253	H	0.558073	0.117437	0.163454
H254	H	0.619094	0.026555	0.218744
H255	H	0.151085	0.688768	-0.348398
O256	O	0.351398	1.108406	-0.342905
C257	C	0.374771	1.039244	-0.274045
H258	H	0.341574	1.015421	-0.271885
H259	H	0.369110	1.056559	-0.235216
C260	C	0.493565	1.001749	-0.256849
C261	C	0.452796	0.972484	-0.254198
H262	H	0.541696	0.960568	-0.244605
H263	H	0.477818	1.048346	-0.303241
H264	H	0.488840	1.016177	-0.224492
H265	H	0.457515	0.958066	-0.286561
H266	H	0.468546	0.925882	-0.207811
H267	H	0.765754	0.688732	-0.537698
O268	O	0.389184	0.621377	0.207769
C269	C	0.346289	0.644694	0.245554
H270	H	0.372983	0.653217	0.278961
H271	H	0.338274	0.595294	0.281370
C272	C	0.241416	0.714913	0.152289
C273	C	0.274199	0.725389	0.193315
H274	H	0.196946	0.764688	0.120067
H275	H	0.270315	0.699202	0.126834
H276	H	0.234743	0.673744	0.182143
H277	H	0.280880	0.766550	0.163462
H278	H	0.245300	0.741109	0.218765
H279	H	0.151089	0.688777	-0.537694
H280	H	0.151103	1.303422	-0.537709
