data_functionalizedCrystal
_audit_creation_method	'MofGen! by Chris Wilmer'
_symmetry_space_group_name_H-M	'P1'
_symmetry_Int_Tables_number	1
_symmetry_cell_setting	triclinic
loop_
_symmetry_equiv_pos_as_xyz
  x,y,z
_cell_length_a	15.537862
_cell_length_b	19.188924
_cell_length_c	14.185328
_cell_angle_alpha	104.820741
_cell_angle_beta	108.250482
_cell_angle_gamma	65.203199
loop_
_atom_site_label
_atom_site_type_symbol
_atom_site_fract_x
_atom_site_fract_y
_atom_site_fract_z
O1	O	1.269931	-0.217781	0.083354
O2	O	1.769931	0.282219	0.583354
O3	O	0.995327	-0.137059	0.083372
O4	O	1.495327	0.362941	0.583372
O5	O	1.140554	-0.281069	0.083351
O6	O	1.640554	0.218931	0.583351
O7	O	1.124704	-0.073771	0.083375
O8	O	1.624704	0.426229	0.583375
O9	O	1.102488	-0.299682	-0.083493
O10	O	1.602488	0.200318	0.416507
O11	O	0.957261	-0.155672	-0.083471
O12	O	1.457261	0.344328	0.416529
O13	O	1.231865	-0.236393	-0.083490
O14	O	1.731865	0.263607	0.416510
Cu15	Cu	1.091087	-0.197732	-0.098715
Cu16	Cu	1.591087	0.302268	0.401285
Cu17	Cu	1.136105	-0.175720	0.098597
Cu18	Cu	1.636105	0.324280	0.598597
O19	O	1.086638	-0.092384	-0.083468
O20	O	1.586638	0.407616	0.416532
C21	C	0.941162	-0.137920	-0.000047
C22	C	1.441162	0.362080	0.499953
C23	C	0.836480	-0.112762	-0.000041
C24	C	1.336480	0.387238	0.499959
C25	C	0.677431	-0.010787	-0.000024
C26	C	1.177431	0.489213	0.499976
C27	C	0.775798	-0.034434	-0.000030
C28	C	1.275798	0.465566	0.499970
C29	C	0.798811	-0.167473	-0.000051
C30	C	1.298811	0.332527	0.499949
C31	C	0.700444	-0.143838	-0.000050
C32	C	1.200444	0.356162	0.499950
C33	C	0.639762	-0.065493	-0.000035
C34	C	1.139762	0.434507	0.499965
C35	C	0.662774	-0.198544	-0.000061
C36	C	1.162774	0.301456	0.499939
C37	C	0.564417	-0.174909	-0.000055
C38	C	1.064417	0.325091	0.499945
C39	C	0.503729	-0.096568	-0.000038
C40	C	1.003729	0.403432	0.499962
C41	C	0.541404	-0.041859	-0.000029
C42	C	1.041404	0.458141	0.499971
C43	C	0.723460	-0.276887	-0.000068
C44	C	1.223460	0.223113	0.499932
C45	C	0.685790	-0.331593	-0.000079
C46	C	1.185790	0.168407	0.499921
C47	C	0.587429	-0.307959	-0.000080
C48	C	1.087429	0.192041	0.499920
C49	C	0.526742	-0.229618	-0.000063
C50	C	1.026742	0.270382	0.499937
C51	C	0.549754	-0.362669	-0.000088
C52	C	1.049754	0.137331	0.499912
C53	C	0.451397	-0.339034	-0.000082
C54	C	0.951397	0.160966	0.499918
C55	C	0.428384	-0.205984	-0.000057
C56	C	0.928384	0.294016	0.499943
C57	C	1.121009	-0.316258	-0.000072
C58	C	1.621009	0.183742	0.499928
C59	C	1.119470	-0.393376	-0.000075
C60	C	1.619470	0.106624	0.499925
C61	C	1.139502	-0.419449	0.090872
C62	C	1.639502	0.080551	0.590872
C63	C	1.138045	-0.491905	0.090880
C64	C	1.638045	0.008095	0.590880
C65	C	1.116574	-0.538292	-0.000064
C66	C	1.616574	-0.038292	0.499936
C67	C	1.096534	-0.512210	-0.091023
C68	C	1.596534	-0.012210	0.408977
C69	C	1.097982	-0.439752	-0.091028
C70	C	1.597982	0.060248	0.408972
N71	N	1.152521	-0.678416	-0.067755
N72	N	1.652521	-0.178416	0.432245
N73	N	1.151148	-0.747248	-0.067744
N74	N	1.651148	-0.247248	0.432256
C75	C	1.112208	-0.756602	-0.000054
C76	C	1.612208	-0.256602	0.499946
N77	N	1.074707	-0.694527	0.067640
N78	N	1.574707	-0.194527	0.567640
N79	N	1.076084	-0.625690	0.067631
N80	N	1.576084	-0.125690	0.567631
C81	C	1.115001	-0.616861	-0.000069
C82	C	1.615001	-0.116861	0.499931
C83	C	1.130661	-0.861238	0.090907
C84	C	1.630661	-0.361238	0.590907
C85	C	1.129197	-0.933694	0.090911
C86	C	1.629197	-0.433694	0.590911
C87	C	1.087695	-0.954001	-0.090994
C88	C	1.587695	-0.454001	0.409006
C89	C	1.089150	-0.881544	-0.090996
C90	C	1.589150	-0.381544	0.409004
C91	C	1.110638	-0.835168	-0.000042
C92	C	1.610638	-0.335168	0.499958
C93	C	1.286031	-0.235533	-0.000068
C94	C	1.786031	0.264467	0.499932
C95	C	1.390714	-0.260690	-0.000068
C96	C	1.890714	0.239310	0.499932
C97	C	1.106184	-0.057195	-0.000043
C98	C	1.606184	0.442805	0.499957
C99	C	1.107724	0.019925	-0.000034
C100	C	1.607724	0.519925	0.499966
N101	N	1.059432	-0.213216	-0.237493
N102	N	1.559432	0.286784	0.262507
C103	C	1.260697	-0.114713	-0.605096
C104	C	1.760697	0.385287	-0.105096
C105	C	1.236740	-0.126458	-0.710123
C106	C	1.736740	0.373542	-0.210123
C107	C	1.122722	-0.182294	-0.710111
C108	C	1.622722	0.317706	-0.210111
C109	C	1.146666	-0.170550	-0.605081
C110	C	1.646666	0.329450	-0.105081
C111	C	1.215655	-0.136760	-0.552582
C112	C	1.715655	0.363240	-0.052582
C113	C	1.101624	-0.192597	-0.552568
C114	C	1.601624	0.307403	-0.052568
C115	C	1.125570	-0.180858	-0.447548
C116	C	1.625570	0.319142	0.052452
C117	C	1.194558	-0.147071	-0.395041
C118	C	1.694558	0.352929	0.104959
C119	C	1.239601	-0.125020	-0.447562
C120	C	1.739601	0.374980	0.052438
C121	C	1.032641	-0.226392	-0.605069
C122	C	1.532641	0.273608	-0.105069
C123	C	0.987599	-0.248440	-0.552555
C124	C	1.487599	0.251560	-0.052555
C125	C	1.011539	-0.236695	-0.447533
C126	C	1.511539	0.263305	0.052467
C127	C	1.080528	-0.202909	-0.395027
C128	C	1.580528	0.297091	0.104973
C129	C	0.966497	-0.258746	-0.395012
C130	C	1.466497	0.241254	0.104988
C131	C	0.990443	-0.247006	-0.289992
C132	C	1.490443	0.252994	0.210008
C133	C	1.104474	-0.191169	-0.290007
C134	C	1.604474	0.308831	0.209993
N135	N	1.167768	-0.160244	0.237376
N136	N	1.667768	0.339756	0.737376
H137	H	0.378969	-0.142190	-0.000059
H138	H	0.878969	0.357810	0.499941
F139	F	0.942520	-0.270487	-0.234100
F140	F	1.442520	0.229513	0.265900
H141	H	1.072845	-0.860319	-0.165055
H142	H	1.572845	-0.360319	0.334945
F143	F	0.614350	-0.446044	-0.000093
F144	F	1.114350	0.053956	0.499907
H145	H	1.066554	-0.209809	-0.752870
H146	H	1.566554	0.290191	-0.252870
H147	H	1.013152	-0.235956	-0.690583
H148	H	1.513152	0.264044	-0.190583
H149	H	1.156996	-0.381693	0.164934
H150	H	1.656996	0.118307	0.664934
F151	F	0.914178	-0.284401	-0.608440
F152	F	1.414178	0.215599	-0.108440
F153	F	0.612839	0.072594	-0.000027
F154	F	1.112839	0.572594	0.499973
H155	H	1.154352	-0.513135	0.164942
H156	H	1.654352	-0.013135	0.664942
H157	H	0.806460	0.010119	-0.000033
H158	H	1.306460	0.510119	0.499967
F159	F	0.863403	-0.250850	-0.000066
F160	F	1.363403	0.249150	0.499934
F161	F	1.073677	-0.561577	-0.187812
F162	F	1.573677	-0.061577	0.312188
H163	H	0.803553	-0.296125	-0.000054
H164	H	1.303553	0.203875	0.499946
F165	F	0.399048	-0.071413	-0.000027
F166	F	0.899048	0.428587	0.499973
H167	H	0.735212	-0.395381	-0.000087
H168	H	1.235212	0.104619	0.499913
H169	H	1.081665	-0.418524	-0.165090
H170	H	1.581665	0.081476	0.334910
H171	H	0.420726	-0.383581	-0.000090
H172	H	0.920726	0.116419	0.499910
H173	H	1.273424	-0.108501	-0.752876
H174	H	1.773424	0.391499	-0.252876
H175	H	1.214056	-0.137515	-0.309527
H176	H	1.714056	0.362485	0.190473
H177	H	1.160641	-0.163643	-0.247259
H178	H	1.660641	0.336357	0.252741
H179	H	0.910333	-0.286265	-0.437773
H180	H	1.410333	0.213735	0.062227
H181	H	1.148152	-0.823475	0.164967
H182	H	1.648152	-0.323475	0.664967
F183	F	0.476811	0.041523	-0.000032
F184	F	0.976811	0.541523	0.499968
F185	F	1.150513	-0.961438	0.187714
F186	F	1.650513	-0.461438	0.687714
F187	F	1.064839	-1.003363	-0.187785
F188	F	1.564839	-0.503363	0.312215
H189	H	1.295768	-0.097495	-0.404814
H190	H	1.795768	0.402505	0.095186
H191	H	1.316864	-0.087187	-0.562348
H192	H	1.816864	0.412813	-0.062348
