data_functionalizedCrystal
_audit_creation_method	'MofGen! by Chris Wilmer'
_symmetry_space_group_name_H-M	'P1'
_symmetry_Int_Tables_number	1
_symmetry_cell_setting	triclinic
loop_
_symmetry_equiv_pos_as_xyz
  x,y,z
_cell_length_a	15.995280
_cell_length_b	15.995300
_cell_length_c	14.472310
_cell_angle_alpha	90.003476
_cell_angle_beta	90.013746
_cell_angle_gamma	96.532298
loop_
_atom_site_label
_atom_site_type_symbol
_atom_site_fract_x
_atom_site_fract_y
_atom_site_fract_z
O1	O	-1.111014	0.107643	-0.076847
O2	O	-0.611014	0.607643	0.423153
O3	O	-0.867228	0.121032	-0.076844
O4	O	-0.367228	0.621032	0.423156
O5	O	-0.995807	-0.007555	-0.076850
O6	O	-0.495807	0.492445	0.423150
O7	O	-0.982435	0.236230	-0.076841
O8	O	-0.482435	0.736230	0.423159
O9	O	-0.995774	-0.007547	0.076832
O10	O	-0.495774	0.492453	0.576832
O11	O	-0.867195	0.121040	0.076838
O12	O	-0.367195	0.621040	0.576838
O13	O	-1.110981	0.107650	0.076835
O14	O	-0.610981	0.607650	0.576835
Cu15	Cu	-0.989085	0.114345	0.090869
Cu16	Cu	-0.489085	0.614345	0.590869
Cu17	Cu	-0.989124	0.114337	-0.090878
Cu18	Cu	-0.489124	0.614337	0.409122
O19	O	-0.982402	0.236237	0.076841
O20	O	-0.482402	0.736237	0.576841
C21	C	-0.836016	0.120493	-0.000003
C22	C	-0.336016	0.620493	0.499997
C23	C	-0.743063	0.118864	-0.000002
C24	C	-0.243063	0.618864	0.499998
C25	C	-0.405323	0.112878	-0.000016
C26	C	0.094677	0.612878	0.499984
C27	C	-0.428619	0.205683	-0.000355
C28	C	0.071381	0.705683	0.499645
C29	C	-0.525295	0.207443	-0.000004
C30	C	-0.025295	0.707443	0.499996
C31	C	-0.572880	0.115848	-0.000010
C32	C	-0.072880	0.615848	0.499990
C33	C	-0.543767	0.069455	0.087745
C34	C	-0.043767	0.569455	0.587745
C35	C	-0.446976	0.068342	0.087814
C36	C	0.053024	0.568342	0.587814
C37	C	-0.447159	0.066438	-0.086952
C38	C	0.052841	0.566438	0.413048
C39	C	-0.543652	0.069873	-0.088107
C40	C	-0.043652	0.569873	0.411893
C41	C	-0.667576	0.117522	-0.000003
C42	C	-0.167576	0.617522	0.499997
C43	C	-0.310627	0.111201	-0.000016
C44	C	0.189373	0.611201	0.499984
C45	C	-0.995245	-0.038746	-0.000012
C46	C	-0.495245	0.461254	0.499988
C47	C	-0.993610	-0.131699	-0.000022
C48	C	-0.493610	0.368301	0.499978
C49	C	-0.990590	-0.301881	-0.000012
C50	C	-0.490590	0.198119	0.499988
C51	C	-1.082141	-0.349370	-0.000015
C52	C	-0.582141	0.150630	0.499985
C53	C	-1.080471	-0.446057	0.000337
C54	C	-0.580471	0.053943	0.500337
C55	C	-0.987618	-0.469437	-0.000005
C56	C	-0.487618	0.030563	0.499995
C57	C	-0.942178	-0.428287	0.087582
C58	C	-0.442178	0.071713	0.587582
C59	C	-0.944495	-0.331654	0.087652
C60	C	-0.444495	0.168346	0.587652
C61	C	-0.943177	-0.331386	-0.087119
C62	C	-0.443177	0.168614	0.412881
C63	C	-0.943185	-0.428331	-0.088267
C64	C	-0.443185	0.071669	0.411733
C65	C	-0.985934	-0.564132	0.000003
C66	C	-0.485934	-0.064132	0.500003
C67	C	-0.992272	-0.207186	-0.000014
C68	C	-0.492272	0.292814	0.499986
C69	C	-0.142192	0.108201	-0.000010
C70	C	0.357808	0.608201	0.499990
C71	C	-0.235140	0.109862	-0.000023
C72	C	0.264860	0.609862	0.499977
C73	C	-0.982964	0.267429	0.000001
C74	C	-0.482964	0.767429	0.500001
C75	C	-0.984599	0.360381	0.000005
C76	C	-0.484599	0.860381	0.500005
N77	N	-0.989063	0.114351	0.218700
N78	N	-0.489063	0.614351	0.718700
N79	N	-0.989152	0.114324	-0.218709
N80	N	-0.489152	0.614324	0.281291
C81	C	-0.989123	0.114333	0.592791
C82	C	-0.489123	0.614333	1.092791
C83	C	-0.920092	0.182907	0.553628
C84	C	-0.420092	0.682907	1.053628
C85	C	-0.920251	0.183157	0.446540
C86	C	-0.420251	0.683157	0.946540
C87	C	-0.989093	0.114342	0.407200
C88	C	-0.489093	0.614342	0.907200
C89	C	-1.076457	0.133402	0.446037
C90	C	-0.576457	0.633402	0.946037
C91	C	-1.076069	0.133890	0.553159
C92	C	-0.576069	0.633890	1.053159
C93	C	-0.971569	0.026496	0.553317
C94	C	-0.471569	0.526496	1.053317
C95	C	-0.969565	0.027082	0.446190
C96	C	-0.469565	0.527082	0.946190
C97	C	-0.989081	0.114346	0.302312
C98	C	-0.489081	0.614346	0.802312
C99	C	-0.989140	0.114332	0.697679
C100	C	-0.489140	0.614332	1.197679
H101	H	-0.575647	0.002054	0.091004
H102	H	-0.075647	0.502054	0.591004
H103	H	-0.931459	0.248340	0.420908
H104	H	-0.431459	0.748340	0.920908
H105	H	-1.091540	0.197948	0.578137
H106	H	-0.591540	0.697948	1.078137
H107	H	-0.855312	0.171804	0.420284
H108	H	-0.355312	0.671804	0.920284
H109	H	-0.418841	0.095445	-0.153466
H110	H	0.081159	0.595445	0.346534
Cl111	Cl	-0.594567	-0.033351	-0.096295
Cl112	Cl	-0.094567	0.466649	0.403705
Cl113	Cl	-0.425579	-0.039029	-0.087873
Cl114	Cl	0.074421	0.460971	0.412127
Cl115	Cl	-0.383786	0.260618	0.096264
Cl116	Cl	0.116214	0.760618	0.596264
Cl117	Cl	-0.875331	-0.001793	0.595074
Cl118	Cl	-0.375331	0.498207	1.095074
Cl119	Cl	-0.574702	0.119204	0.188584
Cl120	Cl	-0.074702	0.619204	0.688584
H121	H	-0.543678	0.244002	0.063012
H122	H	-0.043678	0.744002	0.563012
Cl123	Cl	-1.049289	-0.052291	0.592416
Cl124	Cl	-0.549289	0.447709	1.092416
Cl125	Cl	-0.994413	-0.470563	-0.188313
Cl126	Cl	-0.494413	0.029437	0.311687
H127	H	-1.115994	-0.473910	0.063489
H128	H	-0.615994	0.026090	0.563489
H129	H	-0.562229	0.103653	-0.153027
H130	H	-0.062229	0.603653	0.346973
Cl131	Cl	-0.995010	-0.303372	0.189120
Cl132	Cl	-0.495010	0.196628	0.689120
Cl133	Cl	-0.819498	0.165658	0.593420
Cl134	Cl	-0.319498	0.665658	1.093420
H135	H	-0.931145	0.247723	0.580540
H136	H	-0.431145	0.747723	1.080540
Cl137	Cl	-1.138082	-0.319107	0.096809
Cl138	Cl	-0.638082	0.180893	0.596809
H139	H	-0.875674	-0.299598	-0.087953
H140	H	-0.375674	0.200402	0.412047
Cl141	Cl	-0.840704	-0.281796	0.093432
Cl142	Cl	-0.340704	0.218204	0.593432
H143	H	-0.875493	-0.443659	-0.093818
H144	H	-0.375493	0.056341	0.406182
H145	H	-1.129040	0.085912	0.579062
H146	H	-0.629040	0.585912	1.079062
Cl147	Cl	-0.405538	0.117965	0.189096
Cl148	Cl	0.094462	0.617965	0.689096
Cl149	Cl	-0.836840	-0.450025	0.092238
Cl150	Cl	-0.336840	0.049975	0.592238
H151	H	-0.544328	0.243772	-0.062912
H152	H	-0.044328	0.743772	0.437088
Cl153	Cl	-0.424524	-0.036709	0.094016
Cl154	Cl	0.075476	0.463291	0.594016
H155	H	-1.129051	0.084784	0.420551
H156	H	-0.629051	0.584784	0.920551
Cl157	Cl	-1.100918	0.231176	0.404609
Cl158	Cl	-0.600918	0.731176	0.904609
H159	H	-1.116176	-0.474534	-0.062434
H160	H	-0.616176	0.025466	0.437566
Cl161	Cl	-0.870343	0.004745	0.407003
Cl162	Cl	-0.370343	0.504745	0.907003
Cl163	Cl	-1.138970	-0.320848	-0.096977
Cl164	Cl	-0.638970	0.179152	0.403023
Cl165	Cl	-0.990270	-0.472070	0.188601
Cl166	Cl	-0.490270	0.027930	0.688601
Cl167	Cl	-0.989729	-0.299749	-0.189648
Cl168	Cl	-0.489729	0.200251	0.310352
H169	H	-1.016579	-0.026336	0.419413
H170	H	-0.516579	0.473664	0.919413
H171	H	-0.400630	0.241453	-0.063289
H172	H	0.099370	0.741453	0.436711
