data_functionalizedCrystal
_audit_creation_method	'MofGen! by Chris Wilmer'
_symmetry_space_group_name_H-M	'P1'
_symmetry_Int_Tables_number	1
_symmetry_cell_setting	triclinic
loop_
_symmetry_equiv_pos_as_xyz
  x,y,z
_cell_length_a	34.408637
_cell_length_b	34.407814
_cell_length_c	34.404193
_cell_angle_alpha	60.004510
_cell_angle_beta	60.009006
_cell_angle_gamma	59.994604
loop_
_atom_site_label
_atom_site_type_symbol
_atom_site_fract_x
_atom_site_fract_y
_atom_site_fract_z
O1	O	0.053973	-0.567860	0.474801
O2	O	0.553973	-0.067860	0.974801
O3	O	0.020377	-0.442124	0.382567
O4	O	0.520377	0.057876	0.882567
O5	O	0.100004	-0.521670	0.382483
O6	O	0.600004	-0.021670	0.882483
O7	O	-0.025653	-0.488314	0.474886
O8	O	0.474347	0.011686	0.974886
O9	O	0.126426	-0.495253	0.408816
O10	O	0.626426	0.004747	0.908816
O11	O	0.046800	-0.415707	0.408900
O12	O	0.546800	0.084293	0.908900
O13	O	0.080396	-0.541443	0.501134
O14	O	0.580396	-0.041443	1.001134
Zn15	Zn	0.067793	-0.474381	0.459198
Zn16	Zn	0.567793	0.025619	0.959198
Zn17	Zn	0.032980	-0.509186	0.424503
Zn18	Zn	0.532980	-0.009186	0.924503
O19	O	0.000769	-0.461897	0.501219
O20	O	0.500769	0.038103	1.001219
N21	N	0.091552	-0.450631	0.482879
N22	N	0.591552	0.049369	0.982879
N23	N	0.009225	-0.532940	0.400823
N24	N	0.509225	-0.032940	0.900823
C25	C	0.142848	-0.268847	0.534081
C26	C	0.642848	0.231153	1.034081
C27	C	0.142979	-0.399386	0.664559
C28	C	0.642979	0.100614	1.164559
C29	C	0.142862	-0.399365	0.534081
C30	C	0.642862	0.100635	1.034081
C31	C	0.273409	-0.399338	0.533986
C32	C	0.773409	0.100662	1.033986
C33	C	0.157225	-0.311914	0.548422
C34	C	0.657225	0.188086	1.048422
C35	C	0.157300	-0.385019	0.621491
C36	C	0.657300	0.114981	1.121491
C37	C	0.230339	-0.384991	0.548370
C38	C	0.730339	0.115009	1.048370
C39	C	0.157235	-0.385007	0.548422
C40	C	0.657235	0.114993	1.048422
C41	C	0.124548	-0.214028	0.515827
C42	C	0.624548	0.285972	1.015827
C43	C	0.124571	-0.417639	0.515827
C44	C	0.624571	0.082361	1.015827
C45	C	0.175526	-0.366733	0.566676
C46	C	0.675526	0.133267	1.066676
C47	C	0.353121	-0.385580	0.491988
C48	C	0.853121	0.114420	0.991988
C49	C	0.402952	-0.402180	0.475348
C50	C	0.902952	0.097820	0.975348
C51	C	0.402981	-0.482812	0.506096
C52	C	0.902981	0.017188	1.006096
C53	C	0.353151	-0.466211	0.522737
C54	C	0.853151	0.033789	1.022737
C55	C	0.136544	-0.189099	0.466839
C56	C	0.636544	0.310901	0.966839
C57	C	0.119905	-0.139265	0.450247
C58	C	0.619905	0.360735	0.950247
C59	C	0.079280	-0.139291	0.531632
C60	C	0.579280	0.360709	1.031632
C61	C	0.095918	-0.189125	0.548224
C62	C	0.595918	0.310875	1.048224
C63	C	0.075577	-0.405615	0.527900
C64	C	0.575577	0.094385	1.027900
C65	C	0.058953	-0.422228	0.511301
C66	C	0.558953	0.077772	1.011301
C67	C	0.140315	-0.462889	0.470566
C68	C	0.640315	0.037111	0.970566
C69	C	0.156941	-0.446276	0.487159
C70	C	0.656941	0.053724	0.987159
C71	C	0.075772	-0.405653	0.744326
C72	C	0.575772	0.094347	1.244326
C73	C	0.059206	-0.422280	0.794159
C74	C	0.559206	0.077720	1.294159
C75	C	0.140607	-0.462951	0.794094
C76	C	0.640607	0.037049	1.294094
C77	C	0.157172	-0.446325	0.744260
C78	C	0.657172	0.053675	1.244260
C79	C	0.124753	-0.417674	0.719377
C80	C	0.624753	0.082326	1.219377
C81	C	0.328223	-0.417595	0.515681
C82	C	0.828223	0.082405	1.015681
C83	C	-0.172390	-0.583988	0.349141
C84	C	0.327610	-0.083988	0.849141
C85	C	-0.041751	-0.584138	0.218783
C86	C	0.458249	-0.084138	0.718783
C87	C	-0.041941	-0.584130	0.349402
C88	C	0.458059	-0.084130	0.849402
C89	C	-0.041957	-0.714607	0.349338
C90	C	0.458043	-0.214607	0.849338
C91	C	-0.129326	-0.598388	0.334853
C92	C	0.370674	-0.098388	0.834853
C93	C	-0.056165	-0.598473	0.261852
C94	C	0.443835	-0.098473	0.761852
C95	C	-0.056282	-0.671535	0.334962
C96	C	0.443718	-0.171535	0.834962
C97	C	-0.056272	-0.598469	0.334999
C98	C	0.443728	-0.098469	0.834999
C99	C	-0.227205	-0.565659	0.367327
C100	C	0.272795	-0.065659	0.867327
C101	C	-0.023703	-0.565882	0.367734
C102	C	0.476297	-0.065882	0.867734
C103	C	-0.074511	-0.616717	0.316667
C104	C	0.425489	-0.116717	0.816667
C105	C	-0.055754	-0.794298	0.391257
C106	C	0.444246	-0.294298	0.891257
C107	C	-0.039181	-0.844132	0.407888
C108	C	0.460819	-0.344132	0.907888
C109	C	0.041447	-0.844215	0.377269
C110	C	0.541447	-0.344215	0.877269
C111	C	0.024873	-0.794381	0.360637
C112	C	0.524873	-0.294381	0.860637
C113	C	-0.252183	-0.577666	0.416302
C114	C	0.247817	-0.077666	0.916302
C115	C	-0.302014	-0.561001	0.432833
C116	C	0.197986	-0.061001	0.932833
C117	C	-0.301886	-0.520329	0.351410
C118	C	0.198114	-0.020329	0.851410
C119	C	-0.252055	-0.536994	0.334880
C120	C	0.247945	-0.036994	0.834880
C121	C	-0.035709	-0.516892	0.355682
C122	C	0.464291	-0.016892	0.855682
C123	C	-0.019129	-0.500308	0.372353
C124	C	0.480871	-0.000308	0.872353
C125	C	0.021465	-0.581700	0.413115
C126	C	0.521465	-0.081700	0.913115
C127	C	0.004884	-0.598286	0.396450
C128	C	0.504884	-0.098286	0.896450
C129	C	-0.035389	-0.516907	0.139026
C130	C	0.464611	-0.016907	0.639026
C131	C	-0.018707	-0.500324	0.089193
C132	C	0.481293	-0.000324	0.589193
C133	C	0.021949	-0.581721	0.089240
C134	C	0.521949	-0.081721	0.589240
C135	C	0.005268	-0.598303	0.139074
C136	C	0.505268	-0.098303	0.639074
C137	C	-0.023402	-0.565894	0.163965
C138	C	0.476598	-0.065894	0.663965
C139	C	-0.023728	-0.769425	0.367633
C140	C	0.476272	-0.269425	0.867633
N141	N	0.427173	-0.450553	0.482630
N142	N	0.927173	0.049447	0.982630
O143	O	0.589997	-0.458460	0.365361
O144	O	1.089997	0.041540	0.865361
O145	O	0.590185	-0.550997	0.490963
O146	O	1.090185	-0.050997	0.990963
O147	O	0.590104	-0.550786	0.411309
O148	O	1.090104	-0.050786	0.911309
O149	O	0.590077	-0.458671	0.445016
O150	O	1.090077	0.041329	0.945016
O151	O	0.510940	-0.524462	0.437777
O152	O	1.010940	-0.024462	0.937777
O153	O	0.511020	-0.524674	0.517432
O154	O	1.011020	-0.024674	1.017432
O155	O	0.510832	-0.432136	0.391830
O156	O	1.010832	0.067864	0.891830
Zn157	Zn	0.498357	-0.474225	0.458833
Zn158	Zn	0.998357	0.025775	0.958833
Zn159	Zn	0.602660	-0.508908	0.423960
Zn160	Zn	1.102660	-0.008908	0.923960
O161	O	0.510913	-0.432348	0.471484
O162	O	1.010913	0.067652	0.971484
N163	N	0.673844	-0.532580	0.400158
N164	N	1.173844	-0.032580	0.900158
N165	N	0.091520	-0.115070	0.482873
N166	N	0.591520	0.384930	0.982873
O167	O	-0.025663	0.047841	0.474857
O168	O	0.474337	0.547841	0.974857
O169	O	0.099940	0.047877	0.382299
O170	O	0.599940	0.547877	0.882299
O171	O	0.020247	0.047844	0.382560
O172	O	0.520247	0.547844	0.882560
O173	O	0.054030	0.047874	0.474596
O174	O	0.554030	0.547874	0.974596
O175	O	0.046674	-0.031326	0.408942
O176	O	0.546674	0.468674	0.908942
O177	O	0.126367	-0.031293	0.408680
O178	O	0.626367	0.468707	0.908680
O179	O	0.000764	-0.031329	0.501238
O180	O	0.500764	0.468671	1.001238
Zn181	Zn	0.067761	-0.043881	0.459148
Zn182	Zn	0.567761	0.456119	0.959148
Zn183	Zn	0.032943	0.060429	0.424389
Zn184	Zn	0.532943	0.560429	0.924389
O185	O	0.080457	-0.031296	0.500977
O186	O	0.580457	0.468704	1.000977
N187	N	0.009178	0.131618	0.400665
N188	N	0.509178	0.631618	0.900665
N189	N	0.091852	-0.450680	0.818332
N190	N	0.591852	0.049320	1.318332
O191	O	0.083862	-0.567845	0.981235
O192	O	0.583862	-0.067845	1.481235
O193	O	-0.008657	-0.442198	0.981276
O194	O	0.491343	0.057802	1.481276
O195	O	-0.008441	-0.521875	0.981252
O196	O	0.491559	-0.021875	1.481252
O197	O	0.083646	-0.488168	0.981258
O198	O	0.583646	0.011832	1.481258
O199	O	0.017919	-0.495468	0.902085
O200	O	0.517919	0.004532	1.402085
O201	O	0.017703	-0.415791	0.902109
O202	O	0.517703	0.084209	1.402109
O203	O	0.110222	-0.541438	0.902067
O204	O	0.610222	-0.041438	1.402067
Zn205	Zn	0.068148	-0.474422	0.889518
Zn206	Zn	0.568148	0.025578	1.389518
Zn207	Zn	0.033417	-0.509214	0.993825
Zn208	Zn	0.533417	-0.009214	1.493825
O209	O	0.110006	-0.461761	0.902091
O210	O	0.610006	0.038239	1.402091
N211	N	0.009712	-0.532961	1.065011
N212	N	0.509712	-0.032961	1.565011
C213	C	0.030439	-0.413071	0.383027
C214	C	0.530439	0.086929	0.883027
C215	C	0.129046	-0.511580	0.382922
C216	C	0.629046	-0.011580	0.882922
C217	C	0.070334	-0.570496	0.500675
C218	C	0.570334	-0.070496	1.000675
C219	C	-0.028274	-0.471987	0.500780
C220	C	0.471726	0.028013	1.000780
C221	C	0.550625	-0.550579	0.520021
C222	C	1.050625	-0.050579	1.020021
C223	C	0.550527	-0.550317	0.421379
C224	C	1.050527	-0.050317	0.921379
C225	C	0.550389	-0.432554	0.362773
C226	C	1.050389	0.067446	0.862773
C227	C	0.550491	-0.432816	0.461414
C228	C	1.050491	0.067184	0.961414
C229	C	0.128944	0.008394	0.382712
C230	C	0.628944	0.508394	0.882712
C231	C	0.030287	0.008256	0.383068
C232	C	0.530287	0.508256	0.883068
C233	C	-0.028273	0.008252	0.500793
C234	C	0.471727	0.508252	1.000793
C235	C	0.070417	0.008292	0.500470
C236	C	0.570417	0.508292	1.000470
C237	C	-0.008218	-0.413165	0.941698
C238	C	0.491782	0.086835	1.441698
C239	C	-0.007945	-0.511830	0.941653
C240	C	0.492055	-0.011830	1.441653
C241	C	0.109783	-0.570471	0.941646
C242	C	0.609783	-0.070471	1.441646
C243	C	0.109516	-0.471800	0.941673
C244	C	0.609516	0.028200	1.441673
H245	H	0.019320	-0.412483	0.814467
H246	H	0.519320	0.087517	1.314467
C247	C	0.020518	0.008246	0.344003
C248	C	0.520518	0.508246	0.844003
H249	H	0.048019	0.008257	0.316288
H250	H	0.548019	0.508257	0.816288
H251	H	0.012971	-0.019367	0.355007
H252	H	0.512971	0.480633	0.855007
H253	H	-0.005459	0.035853	0.336607
H254	H	0.494541	0.535853	0.836607
H255	H	0.165136	-0.518689	0.353905
H256	H	0.665136	-0.018689	0.853905
C257	C	-0.077000	0.008239	0.540048
C258	C	0.423000	0.508239	1.040048
H259	H	-0.097015	0.008231	0.528566
H260	H	0.402985	0.508231	1.028566
H261	H	-0.072809	-0.019368	0.567095
H262	H	0.427191	0.480632	1.067095
H263	H	-0.091241	0.035852	0.548693
H264	H	0.408759	0.535852	1.048693
H265	H	-0.064365	-0.464880	0.529794
H266	H	0.435635	0.035120	1.029794
H267	H	0.077514	-0.606615	0.529644
H268	H	0.577514	-0.106615	1.029644
C269	C	0.550695	-0.589827	0.568751
C270	C	1.050695	-0.089827	1.068751
H271	H	0.550709	-0.617466	0.568794
H272	H	1.050709	-0.117466	1.068794
H273	H	0.578313	-0.597297	0.574535
H274	H	1.078313	-0.097297	1.074535
H275	H	0.523097	-0.578932	0.592988
H276	H	1.023097	-0.078932	1.092988
H277	H	0.164941	0.008624	0.353583
H278	H	0.664941	0.508624	0.853583
C279	C	0.550540	-0.589410	0.411639
C280	C	1.050540	-0.089410	0.911639
H281	H	0.550497	-0.577771	0.380128
H282	H	1.050497	-0.077771	0.880128
H283	H	0.578170	-0.616467	0.415158
H284	H	1.078170	-0.116467	0.915158
H285	H	0.522954	-0.598102	0.433618
H286	H	1.022954	-0.098102	0.933618
C287	C	0.080189	0.008300	0.539533
C288	C	0.580189	0.508300	1.039533
H289	H	0.111709	0.008307	0.527885
H290	H	0.611709	0.508307	1.027885
H291	H	0.058230	0.035905	0.548209
H292	H	0.558230	0.535905	1.048209
H293	H	0.076663	-0.019316	0.566605
H294	H	0.576663	0.480684	1.066605
C295	C	-0.047459	-0.364419	0.941715
C296	C	0.452541	0.135581	1.441715
H297	H	-0.035964	-0.344419	0.941724
H298	H	0.464036	0.155581	1.441724
H299	H	-0.056120	-0.350172	0.914111
H300	H	0.443880	0.149828	1.414111
H301	H	-0.074502	-0.368594	0.969329
H302	H	0.425498	0.131406	1.469329
C303	C	0.149026	-0.619216	0.941628
C304	C	0.649026	-0.119216	1.441628
H305	H	0.176660	-0.619259	0.941623
H306	H	0.676660	-0.119259	1.441623
H307	H	0.138125	-0.643440	0.969229
H308	H	0.638125	-0.143440	1.469229
H309	H	0.156509	-0.625017	0.914011
H310	H	0.656509	-0.125017	1.414011
C311	C	-0.047012	-0.521554	0.941605
C312	C	0.452988	-0.021554	1.441605
H313	H	-0.035372	-0.553071	0.941583
H314	H	0.464628	-0.053071	1.441583
H315	H	-0.074090	-0.518008	0.969207
H316	H	0.425910	-0.018008	1.469207
H317	H	-0.055669	-0.499583	0.913988
H318	H	0.444331	0.000417	1.413988
H319	H	-0.095331	-0.773979	0.396956
H320	H	0.404669	-0.273979	0.896956
C321	C	0.550310	-0.393304	0.314045
C322	C	1.050310	0.106696	0.814045
H323	H	0.550299	-0.404805	0.294048
H324	H	1.050299	0.095195	0.794048
H325	H	0.522686	-0.366269	0.318244
H326	H	1.022686	0.133731	0.818244
H327	H	0.577903	-0.384629	0.299779
H328	H	1.077903	0.115371	0.799779
C329	C	0.094907	-0.871666	0.369573
C330	C	0.594907	-0.371666	0.869573
H331	H	0.111609	-0.849715	0.353118
H332	H	0.611609	-0.349715	0.853118
H333	H	0.099486	-0.891105	0.399535
H334	H	0.599486	-0.391105	0.899535
H335	H	0.106611	-0.891110	0.351310
H336	H	0.606611	-0.391110	0.851310
H337	H	0.138447	-0.464586	0.941669
H338	H	0.638447	0.035414	1.441669
H339	H	0.167007	-0.486271	0.814352
H340	H	0.667007	0.013729	1.314352
C341	C	0.040111	-0.374138	0.716957
C342	C	0.540111	0.125862	1.216957
H343	H	0.056991	-0.365954	0.683706
H344	H	0.556991	0.134046	1.183706
H345	H	0.020674	-0.391049	0.725138
H346	H	0.520674	0.108951	1.225138
H347	H	0.020674	-0.345962	0.725138
H348	H	0.520674	0.154038	1.225138
C349	C	0.211053	-0.459547	0.716820
C350	C	0.711053	0.040453	1.216820
H351	H	0.227986	-0.478985	0.738778
H352	H	0.727986	0.021015	1.238778
H353	H	0.219214	-0.476449	0.697377
H354	H	0.719214	0.023551	1.197377
H355	H	0.219202	-0.431359	0.697381
H356	H	0.719202	0.068641	1.197381
H357	H	0.550485	-0.403881	0.468626
H358	H	1.050485	0.096119	0.968626
H359	H	0.019058	-0.412426	0.521121
H360	H	0.519058	0.087574	1.021121
C361	C	0.039970	-0.374115	0.559430
C362	C	0.539970	0.125885	1.059430
H363	H	0.008410	-0.369329	0.564237
H364	H	0.508410	0.130671	1.064237
H365	H	0.044786	-0.389336	0.589288
H366	H	0.544786	0.110664	1.089288
H367	H	0.044743	-0.344240	0.544213
H368	H	0.544743	0.155760	1.044213
H369	H	0.166679	-0.486211	0.447227
H370	H	0.666679	0.013789	0.947227
H371	H	0.196836	-0.456064	0.477324
H372	H	0.696836	0.043936	0.977324
H373	H	0.423275	-0.522397	0.511838
H374	H	0.923275	-0.022397	1.011838
C375	C	0.325764	-0.501429	0.548801
C376	C	0.825764	-0.001429	1.048801
H377	H	0.292516	-0.484583	0.557707
H378	H	0.792516	0.015417	1.057707
H379	H	0.333916	-0.517181	0.528300
H380	H	0.833916	-0.017181	1.028300
H381	H	0.333960	-0.524247	0.576485
H382	H	0.833960	-0.024247	1.076485
C383	C	0.430342	-0.366963	0.449282
C384	C	0.930342	0.133037	0.949282
H385	H	0.408360	-0.335630	0.447458
H386	H	0.908360	0.164370	0.947458
H387	H	0.449805	-0.375296	0.466240
H388	H	0.949805	0.124704	0.966240
H389	H	0.449757	-0.368232	0.418057
H390	H	0.949757	0.131768	0.918057
C391	C	0.325700	-0.332103	0.484229
C392	C	0.825700	0.167897	0.984229
H393	H	0.347668	-0.315415	0.467739
H394	H	0.847668	0.184585	0.967739
H395	H	0.306240	-0.320415	0.465988
H396	H	0.806240	0.179585	0.965988
H397	H	0.306282	-0.327486	0.514177
H398	H	0.806282	0.172514	1.014177
H399	H	0.129672	-0.118967	0.410356
H400	H	0.629672	0.381033	0.910356
C401	C	0.168032	-0.216489	0.431201
C402	C	0.668032	0.283511	0.931201
H403	H	0.172787	-0.194504	0.399649
H404	H	0.672787	0.305496	0.899649
H405	H	0.197914	-0.235923	0.435963
H406	H	0.697914	0.264077	0.935963
H407	H	0.152816	-0.235934	0.436003
H408	H	0.652816	0.264066	0.936003
H409	H	0.055974	-0.119015	0.558014
H410	H	0.555974	0.380985	1.058014
H411	H	-0.028474	-0.460433	0.068892
H412	H	0.471526	0.039567	0.568892
C413	C	0.082723	-0.216545	0.602110
C414	C	0.582723	0.283455	1.102110
H415	H	0.096728	-0.249792	0.607353
H416	H	0.596728	0.250208	1.107353
H417	H	0.094194	-0.208377	0.616096
H418	H	0.594194	0.291623	1.116096
H419	H	0.049102	-0.208389	0.616123
H420	H	0.549102	0.291611	1.116123
C421	C	-0.066929	-0.481257	0.166404
C422	C	0.433071	0.018743	0.666404
H423	H	-0.075150	-0.498147	0.199654
H424	H	0.424850	0.001853	0.699654
H425	H	-0.050019	-0.461839	0.158272
H426	H	0.449981	0.038161	0.658272
H427	H	-0.095080	-0.461797	0.158181
H428	H	0.404920	0.038203	0.658181
C429	C	0.053475	-0.617371	0.061861
C430	C	0.553475	-0.117371	0.561861
H431	H	0.058226	-0.648921	0.083852
H432	H	0.558226	-0.148921	0.583852
H433	H	0.038295	-0.612566	0.042377
H434	H	0.538295	-0.112566	0.542377
H435	H	0.083362	-0.612621	0.042469
H436	H	0.583362	-0.112621	0.542469
H437	H	-0.058984	-0.490504	0.332300
H438	H	0.441016	0.009496	0.832300
C439	C	0.018452	-0.652191	0.166507
C440	C	0.518452	-0.152191	0.666507
H441	H	0.004416	-0.657427	0.199751
H442	H	0.504416	-0.157427	0.699751
H443	H	0.007007	-0.666170	0.158304
H444	H	0.507007	-0.166170	0.658304
H445	H	0.052071	-0.666220	0.158396
H446	H	0.552071	-0.166220	0.658396
C447	C	-0.032689	-0.446421	0.359456
C448	C	0.467311	0.053579	0.859456
H449	H	-0.052192	-0.429498	0.340069
H450	H	0.447808	0.070502	0.840069
H451	H	-0.049659	-0.438553	0.387810
H452	H	0.450341	0.061447	0.887810
H453	H	-0.004684	-0.437969	0.342628
H454	H	0.495316	0.062031	0.842628
H455	H	0.044746	-0.608091	0.436494
H456	H	0.544746	-0.108091	0.936494
H457	H	0.050956	-0.774133	0.341399
H458	H	0.550956	-0.274133	0.841399
C459	C	0.018091	-0.652175	0.409703
C460	C	0.518091	-0.152175	0.909703
H461	H	0.037494	-0.669098	0.429189
H462	H	0.537494	-0.169098	0.929189
H463	H	-0.010097	-0.660312	0.426561
H464	H	0.489903	-0.160312	0.926561
H465	H	0.035035	-0.660362	0.381530
H466	H	0.535035	-0.160362	0.881530
C467	C	-0.074409	-0.871498	0.433881
C468	C	0.425591	-0.371498	0.933881
H469	H	-0.057575	-0.904751	0.442783
H470	H	0.442425	-0.404751	0.942783
H471	H	-0.097251	-0.863308	0.461557
H472	H	0.402749	-0.363308	0.961557
H473	H	-0.090128	-0.863323	0.413337
H474	H	0.409872	-0.363323	0.913337
C475	C	-0.224852	-0.609194	0.451995
C476	C	0.275148	-0.109194	0.951995
H477	H	-0.246866	-0.613951	0.483531
H478	H	0.253134	-0.113951	0.983531
H479	H	-0.205420	-0.639075	0.447231
H480	H	0.294580	-0.139075	0.947231
H481	H	-0.205412	-0.594001	0.447246
H482	H	0.294588	-0.094001	0.947246
H483	H	-0.322118	-0.496994	0.324987
H484	H	0.177882	0.003006	0.824987
C485	C	-0.329494	-0.574223	0.486706
C486	C	0.170506	-0.074223	0.986706
H487	H	-0.362730	-0.560195	0.491905
H488	H	0.137270	-0.060195	0.991905
H489	H	-0.321351	-0.607845	0.500698
H490	H	0.178649	-0.107845	1.000698
H491	H	-0.321357	-0.562782	0.500751
H492	H	0.178643	-0.062782	1.000751
C493	C	-0.224582	-0.523787	0.281007
C494	C	0.275418	-0.023787	0.781007
H495	H	-0.246521	-0.504330	0.264052
H496	H	0.253479	-0.004330	0.764052
H497	H	-0.205136	-0.506909	0.272877
H498	H	0.294864	-0.006909	0.772877
H499	H	-0.205146	-0.551978	0.272854
H500	H	0.294854	-0.051978	0.772854
H501	H	0.023260	-0.376951	0.354059
H502	H	0.523260	0.123049	0.854059
