data_functionalizedCrystal
_audit_creation_method	'MofGen! by Chris Wilmer'
_symmetry_space_group_name_H-M	'P1'
_symmetry_Int_Tables_number	1
_symmetry_cell_setting	triclinic
loop_
_symmetry_equiv_pos_as_xyz
  x,y,z
_cell_length_a	12.759401
_cell_length_b	12.759400
_cell_length_c	11.169409
_cell_angle_alpha	89.967324
_cell_angle_beta	89.979948
_cell_angle_gamma	90.012209
loop_
_atom_site_label
_atom_site_type_symbol
_atom_site_fract_x
_atom_site_fract_y
_atom_site_fract_z
Zn1	Zn	1.606282	-0.418208	-0.678547
Zn2	Zn	1.606176	-0.593934	-0.477863
Zn3	Zn	1.430579	-0.418266	-0.477881
Zn4	Zn	1.430577	-0.593843	-0.678507
O5	O	1.518404	-0.506063	-0.578199
O6	O	1.753289	-0.441532	-0.651935
O7	O	1.582840	-0.570694	-0.309915
O8	O	1.453932	-0.271238	-0.504524
O9	O	1.753211	-0.570637	-0.504493
O10	O	1.583020	-0.271195	-0.651953
O11	O	1.453829	-0.441632	-0.309929
O12	O	1.283558	-0.441543	-0.504485
O13	O	1.453928	-0.570482	-0.846462
O14	O	1.283557	-0.570538	-0.651884
O15	O	1.583018	-0.441444	-0.846492
O16	O	1.582838	-0.740943	-0.504454
O17	O	1.453826	-0.740876	-0.651867
C18	C	1.245436	-0.506038	-0.578183
C19	C	1.128660	-0.506053	-0.578204
C20	C	1.073831	-0.438955	-0.655096
C21	C	0.964107	-0.438975	-0.655104
C22	C	0.964050	-0.573200	-0.501324
C23	C	1.073772	-0.573174	-0.501311
C24	C	1.128719	-0.371834	-0.731989
C25	C	1.073890	-0.304731	-0.808888
C26	C	0.964166	-0.304751	-0.808896
C27	C	0.909271	-0.371874	-0.732004
C28	C	1.518349	-0.779030	-0.578181
C29	C	1.518421	-0.895807	-0.578213
C30	C	1.585604	-0.950567	-0.655042
C31	C	1.585653	-1.060291	-0.655071
C32	C	1.451334	-1.060485	-0.501432
C33	C	1.451280	-0.950763	-0.501409
C34	C	1.652745	-0.895610	-0.731845
C35	C	1.719933	-0.950370	-0.808679
C36	C	1.719982	-1.060094	-0.808708
C37	C	1.652842	-1.115058	-0.731903
C38	C	1.792437	-0.506088	-0.578217
C39	C	1.909214	-0.506099	-0.578224
C40	C	1.518484	-0.505946	-0.891242
C41	C	1.518519	-0.505896	-1.024642
C42	C	1.518488	-0.232029	-0.578245
C43	C	1.518524	-0.115253	-0.578264
C44	C	1.518384	-0.506103	-0.266375
C45	C	1.518553	-0.505857	-0.132975
H46	H	1.652715	-0.806267	-0.731827
H47	H	0.919345	-0.627850	-0.438725
O48	O	1.785112	-0.896821	-0.883174
C49	C	1.770648	-0.788234	-0.866697
H50	H	1.736273	-0.773335	-0.774038
H51	H	1.849322	-0.746477	-0.874904
H52	H	1.714654	-0.757085	-0.937824
O53	O	1.127258	-0.239680	-0.883701
C54	C	1.190772	-0.299562	-0.961075
H55	H	1.157706	-0.382322	-0.968328
H56	H	1.192051	-0.261657	-1.053514
H57	H	1.273914	-0.303128	-0.923954
H58	H	1.652875	-1.204403	-0.731947
H59	H	1.774682	-1.104677	-0.871280
H60	H	1.396672	-1.105245	-0.438900
O61	O	1.127158	-0.638406	-0.426791
C62	C	1.190636	-0.706329	-0.494987
H63	H	1.207100	-0.669362	-0.586013
H64	H	1.267778	-0.720335	-0.446070
H65	H	1.148362	-0.784214	-0.508021
H66	H	1.396573	-0.906177	-0.438849
H67	H	1.218062	-0.371809	-0.731991
O68	O	0.802684	-0.371794	-0.732198
C69	C	0.766058	-0.298154	-0.816528
H70	H	0.829315	-0.283496	-0.886671
H71	H	0.692671	-0.329919	-0.862016
H72	H	0.746570	-0.221504	-0.769090
H73	H	0.919528	-0.250105	-0.871502
