data_functionalizedCrystal
_audit_creation_method	'MofGen! by Chris Wilmer'
_symmetry_space_group_name_H-M	'P1'
_symmetry_Int_Tables_number	1
_symmetry_cell_setting	triclinic
loop_
_symmetry_equiv_pos_as_xyz
  x,y,z
_cell_length_a	16.959455
_cell_length_b	16.959453
_cell_length_c	19.805399
_cell_angle_alpha	89.973285
_cell_angle_beta	89.976446
_cell_angle_gamma	90.017008
loop_
_atom_site_label
_atom_site_type_symbol
_atom_site_fract_x
_atom_site_fract_y
_atom_site_fract_z
Zn1	Zn	1.208409	-0.314763	-0.382796
Zn2	Zn	1.541742	0.018571	-0.049462
Zn3	Zn	1.875076	0.351904	0.283871
Zn4	Zn	1.208324	-0.446945	-0.269609
Zn5	Zn	1.541658	-0.113612	0.063724
Zn6	Zn	1.874991	0.219722	0.397058
Zn7	Zn	1.076230	-0.314778	-0.269612
Zn8	Zn	1.409564	0.018556	0.063721
Zn9	Zn	1.742897	0.351889	0.397054
Zn10	Zn	1.076202	-0.446896	-0.382748
Zn11	Zn	1.409536	-0.113563	-0.049415
Zn12	Zn	1.742869	0.219770	0.283919
O13	O	1.142292	-0.380845	-0.326191
O14	O	1.475625	-0.047512	0.007142
O15	O	1.808958	0.285821	0.340475
O16	O	1.319009	-0.332311	-0.367800
O17	O	1.652342	0.001022	-0.034466
O18	O	1.985675	0.334356	0.298867
O19	O	1.190778	-0.429439	-0.174893
O20	O	1.524111	-0.096106	0.158440
O21	O	1.857445	0.237227	0.491774
O22	O	1.093811	-0.204165	-0.284648
O23	O	1.427144	0.129169	0.048686
O24	O	1.760478	0.462502	0.382019
O25	O	1.318947	-0.429425	-0.284642
O26	O	1.652280	-0.096092	0.048691
O27	O	1.985613	0.237242	0.382025
O28	O	1.190922	-0.204154	-0.367803
O29	O	1.524256	0.129180	-0.034470
O30	O	1.857589	0.462513	0.298864
O31	O	1.093729	-0.332337	-0.174895
O32	O	1.427062	0.000997	0.158438
O33	O	1.760396	0.334330	0.491771
O34	O	0.965616	-0.332289	-0.284601
O35	O	1.298949	0.001044	0.048732
O36	O	1.632282	0.334377	0.382065
O37	O	1.093764	-0.429342	-0.477471
O38	O	1.427097	-0.096008	-0.144138
O39	O	1.760430	0.237325	0.189196
O40	O	0.965595	-0.429356	-0.367722
O41	O	1.298929	-0.096023	-0.034388
O42	O	1.632262	0.237310	0.298945
O43	O	1.190895	-0.332264	-0.477506
O44	O	1.524229	0.001070	-0.144173
O45	O	1.857562	0.334403	0.189161
O46	O	1.190751	-0.557549	-0.284596
O47	O	1.524084	-0.224216	0.048737
O48	O	1.857418	0.109117	0.382071
O49	O	1.093682	-0.557514	-0.367719
O50	O	1.427015	-0.224180	-0.034385
O51	O	1.760348	0.109153	0.298948
C52	C	0.936925	-0.380820	-0.326157
C53	C	1.270259	-0.047486	0.007176
C54	C	1.603592	0.285847	0.340510
C55	C	0.849069	-0.380828	-0.326159
C56	C	1.182402	-0.047494	0.007175
C57	C	1.515735	0.285839	0.340508
C58	C	0.477550	-0.431363	-0.282869
C59	C	0.810883	-0.098029	0.050464
C60	C	1.144217	0.235304	0.383798
C61	C	0.477636	-0.330394	-0.369596
C62	C	0.810969	0.002939	-0.036263
C63	C	1.144303	0.336273	0.297071
C64	C	0.560182	-0.330381	-0.369579
C65	C	0.893515	0.002952	-0.036246
C66	C	1.226849	0.336286	0.297087
C67	C	0.601416	-0.380860	-0.326208
C68	C	0.934749	-0.047527	0.007126
C69	C	1.268082	0.285806	0.340459
C70	C	0.560104	-0.431353	-0.282853
C71	C	0.893437	-0.098019	0.050481
C72	C	1.226770	0.235314	0.383814
C73	C	0.601500	-0.279895	-0.412939
C74	C	0.934834	0.053438	-0.079605
C75	C	1.268167	0.386772	0.253728
C76	C	0.684051	-0.279881	-0.412924
C77	C	1.017385	0.053453	-0.079591
C78	C	1.350718	0.386786	0.253742
C79	C	0.725287	-0.330357	-0.369549
C80	C	1.058620	0.002977	-0.036216
C81	C	1.391953	0.336310	0.297118
C82	C	0.683969	-0.380850	-0.326191
C83	C	1.017303	-0.047517	0.007142
C84	C	1.350636	0.285816	0.340475
C85	C	0.725203	-0.431330	-0.282820
C86	C	1.058536	-0.097996	0.050514
C87	C	1.391870	0.235337	0.383847
C88	C	0.683887	-0.481820	-0.239458
C89	C	1.017221	-0.148487	0.093875
C90	C	1.350554	0.184846	0.427208
C91	C	0.601339	-0.481829	-0.239477
C92	C	0.934672	-0.148495	0.093856
C93	C	1.268005	0.184838	0.427190
C94	C	0.807835	-0.330348	-0.369530
C95	C	1.141168	0.002985	-0.036197
C96	C	1.474502	0.336318	0.297136
C97	C	0.807757	-0.431320	-0.282803
C98	C	1.141090	-0.097987	0.050530
C99	C	1.474423	0.235347	0.383863
C100	C	1.142226	-0.586212	-0.326166
C101	C	1.475559	-0.252878	0.007167
C102	C	1.808892	0.080455	0.340500
C103	C	1.142270	-0.674068	-0.326178
C104	C	1.475603	-0.340735	0.007155
C105	C	1.808936	-0.007402	0.340488
C106	C	1.192922	-1.045480	-0.369572
C107	C	1.526255	-0.712146	-0.036239
C108	C	1.859589	-0.378813	0.297095
C109	C	1.091882	-1.045608	-0.282911
C110	C	1.425215	-0.712275	0.050422
C111	C	1.758548	-0.378941	0.383756
C112	C	1.091852	-0.963062	-0.282896
C113	C	1.425186	-0.629729	0.050438
C114	C	1.758519	-0.296395	0.383771
C115	C	1.142358	-0.921721	-0.326220
C116	C	1.475691	-0.588388	0.007114
C117	C	1.809025	-0.255055	0.340447
C118	C	1.192893	-0.962926	-0.369559
C119	C	1.526226	-0.629593	-0.036226
C120	C	1.859559	-0.296259	0.297108
C121	C	1.041313	-0.921851	-0.239562
C122	C	1.374646	-0.588518	0.093772
C123	C	1.707980	-0.255184	0.427105
C124	C	1.041281	-0.839300	-0.239545
C125	C	1.374614	-0.505967	0.093788
C126	C	1.707948	-0.172633	0.427122
C127	C	1.091791	-0.797958	-0.282866
C128	C	1.425124	-0.464624	0.050467
C129	C	1.758458	-0.131291	0.383801
C130	C	1.142328	-0.839168	-0.326207
C131	C	1.475662	-0.505834	0.007127
C132	C	1.808995	-0.172501	0.340460
C133	C	1.192834	-0.797827	-0.369531
C134	C	1.526167	-0.464493	-0.036197
C135	C	1.859501	-0.131160	0.297136
C136	C	1.243376	-0.839035	-0.412869
C137	C	1.576709	-0.505702	-0.079535
C138	C	1.910043	-0.172368	0.253798
C139	C	1.243403	-0.921584	-0.412880
C140	C	1.576736	-0.588250	-0.079547
C141	C	1.910069	-0.254917	0.253786
C142	C	1.091764	-0.715409	-0.282854
C143	C	1.425098	-0.382076	0.050479
C144	C	1.758431	-0.048743	0.383812
C145	C	1.192805	-0.715273	-0.369518
C146	C	1.526138	-0.381940	-0.036185
C147	C	1.859471	-0.048606	0.297149
C148	C	1.348460	-0.380872	-0.326226
C149	C	1.681793	-0.047539	0.007107
C150	C	2.015126	0.285795	0.340441
C151	C	1.436316	-0.380883	-0.326241
C152	C	1.769650	-0.047550	0.007093
C153	C	2.102983	0.285784	0.340426
C154	C	1.142336	-0.380796	-0.502734
C155	C	1.475669	-0.047462	-0.169401
C156	C	1.809003	0.285871	0.163933
C157	C	1.142355	-0.380774	-0.577966
C158	C	1.475688	-0.047441	-0.244633
C159	C	1.809021	0.285892	0.088701
C160	C	1.142379	-0.174677	-0.326231
C161	C	1.475713	0.158656	0.007102
C162	C	1.809046	0.491990	0.340436
C163	C	1.142417	-0.086821	-0.326248
C164	C	1.475750	0.246513	0.007085
C165	C	1.809083	0.579846	0.340419
C166	C	1.192932	-0.330223	-0.613330
C167	C	1.526266	0.003110	-0.279996
C168	C	1.859599	0.336443	0.053337
C169	C	1.192940	-0.330200	-0.684018
C170	C	1.526274	0.003133	-0.350685
C171	C	1.859607	0.336466	-0.017351
C172	C	1.142374	-0.380733	-0.719342
C173	C	1.475708	-0.047400	-0.386008
C174	C	1.809041	0.285934	-0.052675
C175	C	1.091791	-0.431286	-0.683973
C176	C	1.425125	-0.097953	-0.350640
C177	C	1.758458	0.235380	-0.017307
C178	C	1.091780	-0.431305	-0.613286
C179	C	1.425113	-0.097971	-0.279953
C180	C	1.758446	0.235362	0.053381
C181	C	1.091836	-0.431213	-0.969047
C182	C	1.425169	-0.097879	-0.635713
C183	C	1.758502	0.235454	-0.302380
C184	C	1.091853	-0.431192	-1.039739
C185	C	1.425186	-0.097859	-0.706406
C186	C	1.758520	0.235475	-0.373072
C187	C	1.192997	-0.330108	-1.039779
C188	C	1.526330	0.003225	-0.706445
C189	C	1.859663	0.336558	-0.373112
C190	C	1.192985	-0.330127	-0.969091
C191	C	1.526318	0.003207	-0.635758
C192	C	1.859652	0.336540	-0.302425
C193	C	1.142399	-0.380677	-0.933729
C194	C	1.475733	-0.047343	-0.600396
C195	C	1.809066	0.285990	-0.267063
C196	C	1.142390	-0.380700	-0.857081
C197	C	1.475723	-0.047367	-0.523747
C198	C	1.809057	0.285967	-0.190414
C199	C	1.142387	-0.380714	-0.795989
C200	C	1.475720	-0.047381	-0.462656
C201	C	1.809054	0.285952	-0.129322
C202	C	1.142293	-0.380838	-0.150335
C203	C	1.475626	-0.047505	0.182998
C204	C	1.808960	0.285829	0.516331
C205	C	1.142427	-0.380636	-0.075104
C206	C	1.475760	-0.047303	0.258230
C207	C	1.809094	0.286030	0.591563
H208	H	0.567922	-0.238803	-0.448254
H209	H	0.901255	0.094531	-0.114920
H210	H	1.234588	0.427864	0.218413
F211	F	1.246833	-0.276305	-1.077419
F212	F	1.580166	0.057028	-0.744086
F213	F	1.913499	0.390361	-0.410753
H214	H	1.050657	-0.472385	-0.940263
H215	H	1.383991	-0.139052	-0.606930
H216	H	1.717324	0.194282	-0.273597
H217	H	1.284494	-0.805366	-0.448147
H218	H	1.617828	-0.472032	-0.114813
H219	H	1.951161	-0.138699	0.218520
H220	H	1.234112	-0.289076	-0.584574
H221	H	1.567445	0.044257	-0.251241
H222	H	1.900778	0.377590	0.082093
F223	F	1.246799	-0.276424	-0.721651
F224	F	1.580133	0.056909	-0.388318
F225	F	1.913466	0.390242	-0.054985
F226	F	0.557363	-0.535560	-0.193334
F227	F	0.890696	-0.202227	0.139999
F228	F	1.224029	0.131106	0.473333
H229	H	1.233935	-0.681618	-0.404795
H230	H	1.567269	-0.348285	-0.071462
H231	H	1.900602	-0.014952	0.261871
H232	H	0.443907	-0.472468	-0.247563
H233	H	0.777240	-0.139135	0.085770
H234	H	1.110574	0.194198	0.419103
H235	H	1.050672	-0.472343	-1.068497
H236	H	1.384006	-0.139010	-0.735164
H237	H	1.717339	0.194323	-0.401831
H238	H	1.050759	-1.079273	-0.247642
H239	H	1.384093	-0.745939	0.085692
H240	H	1.717426	-0.412606	0.419025
H241	H	1.050617	-0.472428	-0.712739
H242	H	1.383950	-0.139095	-0.379406
H243	H	1.717283	0.194239	-0.046073
F244	F	1.037946	-0.485106	-0.575650
F245	F	1.371279	-0.151773	-0.242317
F246	F	1.704613	0.181561	0.091017
F247	F	1.246807	-0.276346	-0.931501
F248	F	1.580140	0.056987	-0.598168
F249	F	1.913474	0.390321	-0.264834
H250	H	1.284551	-0.955143	-0.448164
H251	H	1.617884	-0.621810	-0.114831
H252	H	1.951217	-0.288476	0.218503
H253	H	1.234074	-1.079035	-0.404855
H254	H	1.567408	-0.745702	-0.071521
H255	H	1.900741	-0.412368	0.261812
F256	F	0.728015	-0.226145	-0.459072
F257	F	1.061348	0.107189	-0.125739
F258	F	1.394682	0.440522	0.207594
F259	F	0.727781	-0.535547	-0.193305
F260	F	1.061114	-0.202214	0.140029
F261	F	1.394447	0.131120	0.473362
F262	F	0.851634	-0.485044	-0.236637
F263	F	1.184967	-0.151711	0.096697
F264	F	1.518301	0.181622	0.430030
H265	H	1.000128	-0.805753	-0.204257
H266	H	1.333461	-0.472420	0.129077
H267	H	1.666795	-0.139087	0.462410
F268	F	1.037976	-0.671556	-0.236736
F269	F	1.371309	-0.338223	0.096597
F270	F	1.704643	-0.004889	0.429930
F271	F	0.433750	-0.276681	-0.415759
F272	F	0.767084	0.056652	-0.082425
F273	F	1.100417	0.389986	0.250908
H274	H	1.000192	-0.955517	-0.204292
H275	H	1.333525	-0.622184	0.129042
H276	H	1.666859	-0.288850	0.462375
F277	F	0.851802	-0.276621	-0.415678
F278	F	1.185136	0.056713	-0.082345
F279	F	1.518469	0.390046	0.250988
