data_functionalizedCrystal
_audit_creation_method	'MofGen! by Chris Wilmer'
_symmetry_space_group_name_H-M	'P1'
_symmetry_Int_Tables_number	1
_symmetry_cell_setting	triclinic
loop_
_symmetry_equiv_pos_as_xyz
  x,y,z
_cell_length_a	11.792241
_cell_length_b	11.792241
_cell_length_c	7.540329
_cell_angle_alpha	90.003744
_cell_angle_beta	89.998758
_cell_angle_gamma	84.193416
loop_
_atom_site_label
_atom_site_type_symbol
_atom_site_fract_x
_atom_site_fract_y
_atom_site_fract_z
O1	O	1.506906	0.155566	0.147311
O2	O	2.006906	0.655566	0.647311
O3	O	1.176565	0.171599	0.147352
O4	O	1.676565	0.671599	0.647352
O5	O	1.349752	-0.001588	0.147318
O6	O	1.849752	0.498412	0.647318
O7	O	1.333719	0.328753	0.147345
O8	O	1.833719	0.828753	0.647345
O9	O	1.349742	-0.001590	-0.147647
O10	O	1.849742	0.498410	0.352353
O11	O	1.176555	0.171597	-0.147613
O12	O	1.676555	0.671597	0.352387
O13	O	1.506896	0.155564	-0.147654
O14	O	2.006896	0.655564	0.352346
Cu15	Cu	1.341725	0.163580	-0.174566
Cu16	Cu	1.841725	0.663580	0.325434
Cu17	Cu	1.341737	0.163583	0.174264
Cu18	Cu	1.841737	0.663583	0.674264
O19	O	1.333709	0.328751	-0.147620
O20	O	1.833709	0.828751	0.352380
C21	C	1.134269	0.170591	-0.000125
C22	C	1.634269	0.670591	0.499875
C23	C	1.008255	0.167576	-0.000110
C24	C	1.508255	0.667576	0.499890
C25	C	0.777543	0.162034	-0.000161
C26	C	1.277543	0.662034	0.499839
C27	C	0.905928	0.165113	-0.000133
C28	C	1.405928	0.665113	0.499867
C29	C	1.348740	-0.043880	-0.000164
C30	C	1.848740	0.456120	0.499836
C31	C	1.345726	-0.169894	-0.000162
C32	C	1.845726	0.330106	0.499838
C33	C	1.340183	-0.400606	-0.000131
C34	C	1.840183	0.099394	0.499869
C35	C	1.343262	-0.272221	-0.000148
C36	C	1.843262	0.227779	0.499852
C37	C	1.549192	0.156572	-0.000173
C38	C	2.049192	0.656572	0.499827
C39	C	1.675206	0.159587	-0.000177
C40	C	2.175206	0.659587	0.499823
C41	C	1.334721	0.371043	-0.000134
C42	C	1.834721	0.871043	0.499866
C43	C	1.337736	0.497057	-0.000125
C44	C	1.837736	0.997057	0.499875
N45	N	1.341724	0.163578	-0.419915
N46	N	1.841724	0.663578	0.080085
N47	N	1.341746	0.163576	0.419613
N48	N	1.841746	0.663576	0.919613
