data_functionalizedCrystal
_audit_creation_method	'MofGen! by Chris Wilmer'
_symmetry_space_group_name_H-M	'P1'
_symmetry_Int_Tables_number	1
_symmetry_cell_setting	triclinic
loop_
_symmetry_equiv_pos_as_xyz
  x,y,z
_cell_length_a	16.625546
_cell_length_b	12.827893
_cell_length_c	12.827885
_cell_angle_alpha	89.978811
_cell_angle_beta	90.035124
_cell_angle_gamma	89.979513
loop_
_atom_site_label
_atom_site_type_symbol
_atom_site_fract_x
_atom_site_fract_y
_atom_site_fract_z
Zn1	Zn	-0.321005	-1.597618	0.590863
Zn2	Zn	0.178995	-1.097618	1.090863
Zn3	Zn	-0.455859	-1.597491	0.416107
Zn4	Zn	0.044141	-1.097491	0.916107
Zn5	Zn	-0.321040	-1.422860	0.416131
Zn6	Zn	0.178960	-0.922860	0.916131
Zn7	Zn	-0.455795	-1.422823	0.590801
Zn8	Zn	0.044205	-0.922823	1.090801
O9	O	-0.388425	-1.510198	0.503476
O10	O	0.111575	-1.010198	1.003476
O11	O	-0.338906	-1.743837	0.567697
O12	O	0.161094	-1.243837	1.067697
O13	O	-0.438017	-1.574287	0.269874
O14	O	0.061983	-1.074287	0.769874
O15	O	-0.208203	-1.446110	0.439346
O16	O	0.291797	-0.946110	0.939346
O17	O	-0.437983	-1.743744	0.439305
O18	O	0.062017	-1.243744	0.939305
O19	O	-0.208177	-1.574505	0.567721
O20	O	0.291823	-1.074505	1.067721
O21	O	-0.338965	-1.445987	0.269892
O22	O	0.161035	-0.945987	0.769892
O23	O	-0.338903	-1.276619	0.439286
O24	O	0.161097	-0.776619	0.939286
O25	O	-0.437873	-1.446048	0.737046
O26	O	0.062127	-0.946048	1.237046
O27	O	-0.437907	-1.276592	0.567615
O28	O	0.062093	-0.776592	1.067615
O29	O	-0.338844	-1.574469	0.737091
O30	O	0.161156	-1.074469	1.237091
O31	O	-0.568683	-1.574252	0.439245
O32	O	-0.068683	-1.074252	0.939245
O33	O	-0.568636	-1.445925	0.567592
O34	O	-0.068636	-0.945925	1.067592
C35	C	-0.388402	-1.238688	0.503447
C36	C	0.111598	-0.738688	1.003447
C37	C	-0.388412	-1.122535	0.503459
C38	C	0.111588	-0.622535	1.003459
C39	C	-0.339366	-0.950692	0.440083
C40	C	0.160634	-0.450692	0.940083
C41	C	-0.339355	-1.070742	0.440069
C42	C	0.160645	-0.570742	0.940069
C43	C	-0.597916	-1.510099	0.503432
C44	C	-0.097916	-1.010099	1.003432
C45	C	-0.687537	-1.510152	0.503448
C46	C	-0.187537	-1.010152	1.003448
C47	C	-1.015712	-1.510335	0.503557
C48	C	-0.515712	-1.010335	1.003557
C49	C	-0.924404	-1.510281	0.503530
C50	C	-0.424404	-1.010281	1.003530
C51	C	-0.851627	-1.510243	0.503502
C52	C	-0.351627	-1.010243	1.003502
C53	C	-0.760313	-1.510190	0.503476
C54	C	-0.260313	-1.010190	1.003476
C55	C	-0.178116	-1.510326	0.503543
C56	C	0.321884	-1.010326	1.003543
C57	C	-0.088495	-1.510380	0.503571
C58	C	0.411505	-1.010380	1.003571
C59	C	-0.388347	-1.510269	0.776046
C60	C	0.111653	-1.010269	1.276046
C61	C	-0.388314	-1.510299	0.892199
C62	C	0.111686	-1.010299	1.392199
C63	C	-0.388442	-0.782768	0.503497
C64	C	0.111558	-0.282768	1.003497
C65	C	-0.388432	-0.898921	0.503485
C66	C	0.111568	-0.398921	1.003485
C67	C	-0.388444	-1.510187	0.231966
C68	C	0.111556	-1.010187	0.731966
C69	C	-0.388250	-1.510359	0.115813
C70	C	0.111750	-1.010359	0.615813
C71	C	-0.339302	-1.573853	0.944007
C72	C	0.160698	-1.073853	1.444007
C73	C	-0.339267	-1.573886	1.064057
C74	C	0.160733	-1.073886	1.564057
H75	H	-0.430423	-1.078020	0.557740
H76	H	0.069577	-0.578020	1.057740
H77	H	-0.297308	-1.628300	1.108610
H78	H	0.202692	-1.128300	1.608610
C79	C	-0.282645	-1.647331	0.883873
C80	C	0.217355	-1.147331	1.383873
C81	C	-0.289220	-1.766143	0.898790
C82	C	0.210780	-1.266143	1.398790
C83	C	-0.232561	-1.839624	0.838661
C84	C	0.267439	-1.339624	1.338661
C85	C	-0.169327	-1.794294	0.763614
C86	C	0.330673	-1.294294	1.263614
C87	C	-0.162750	-1.675476	0.748694
C88	C	0.337250	-1.175476	1.248694
C89	C	-0.219409	-1.601995	0.808823
C90	C	0.280591	-1.101995	1.308823
H91	H	-0.336032	-1.799705	0.954347
H92	H	0.163968	-1.299705	1.454347
H93	H	-0.237430	-1.927581	0.849706
H94	H	0.262570	-1.427581	1.349706
H95	H	-0.127385	-1.848689	0.719103
H96	H	0.372615	-1.348689	1.219103
H97	H	-0.115938	-1.641914	0.693137
H98	H	0.384062	-1.141914	1.193137
H99	H	-0.214540	-1.514038	0.797778
H100	H	0.285460	-1.014038	1.297778
H101	H	-0.430244	-1.455906	0.936722
H102	H	0.069756	-0.955906	1.436722
C103	C	-0.282603	-1.130878	0.366734
C104	C	0.217397	-0.630878	0.866734
C105	C	-0.289065	-1.115912	0.247908
C106	C	0.210935	-0.615912	0.747908
C107	C	-0.232310	-1.176050	0.174571
C108	C	0.267690	-0.676050	0.674571
C109	C	-0.169094	-1.251153	0.220059
C110	C	0.330906	-0.751153	0.720059
C111	C	-0.162629	-1.266122	0.338890
C112	C	0.337371	-0.766122	0.838890
C113	C	-0.219384	-1.205984	0.412228
C114	C	0.280616	-0.705984	0.912228
H115	H	-0.335864	-1.060313	0.214230
H116	H	0.164136	-0.560313	0.714230
H117	H	-0.237096	-1.164969	0.086604
H118	H	0.262904	-0.664969	0.586604
H119	H	-0.127081	-1.295671	0.165770
H120	H	0.372919	-0.795671	0.665770
H121	H	-0.115830	-1.321721	0.372569
H122	H	0.384170	-0.821721	0.872569
H123	H	-0.214598	-1.217066	0.500195
H124	H	0.285402	-0.717066	1.000195
H125	H	-0.297365	-0.906137	0.385817
H126	H	0.202635	-0.406137	0.885817
C127	C	-0.445173	-0.959099	0.576805
C128	C	0.054827	-0.459099	1.076805
C129	C	-0.508375	-1.034120	0.531299
C130	C	-0.008375	-0.534120	1.031299
C131	C	-0.565118	-1.094295	0.604622
C132	C	-0.065118	-0.594295	1.104622
C133	C	-0.558659	-1.079450	0.723451
C134	C	-0.058659	-0.579450	1.223451
C135	C	-0.495454	-1.004426	0.768963
C136	C	0.004546	-0.504426	1.268963
C137	C	-0.438711	-0.944251	0.695640
C138	C	0.061289	-0.444251	1.195640
H139	H	-0.513159	-1.045112	0.443330
H140	H	-0.013159	-0.545112	0.943330
H141	H	-0.611907	-1.149832	0.570931
H142	H	-0.111907	-0.649832	1.070931
H143	H	-0.600664	-1.123995	0.777730
H144	H	-0.100664	-0.623995	1.277730
H145	H	-0.490670	-0.993434	0.856933
H146	H	0.009330	-0.493434	1.356933
H147	H	-0.391923	-0.888713	0.729332
H148	H	0.108077	-0.388713	1.229332
H149	H	-0.430216	-1.455950	1.071267
H150	H	0.069784	-0.955950	1.571267
