data_functionalizedCrystal
_audit_creation_method	'MofGen! by Chris Wilmer'
_symmetry_space_group_name_H-M	'P1'
_symmetry_Int_Tables_number	1
_symmetry_cell_setting	triclinic
loop_
_symmetry_equiv_pos_as_xyz
  x,y,z
_cell_length_a	12.759401
_cell_length_b	21.295417
_cell_length_c	12.759393
_cell_angle_alpha	89.960830
_cell_angle_beta	89.978811
_cell_angle_gamma	90.030454
loop_
_atom_site_label
_atom_site_type_symbol
_atom_site_fract_x
_atom_site_fract_y
_atom_site_fract_z
Zn1	Zn	1.606140	-0.250573	-0.594001
Zn2	Zn	1.605986	-0.355857	-0.418298
Zn3	Zn	1.430442	-0.250606	-0.418332
Zn4	Zn	1.430382	-0.355808	-0.593931
O5	O	1.518238	-0.303211	-0.506141
O6	O	1.753141	-0.264546	-0.570709
O7	O	1.582660	-0.341929	-0.271281
O8	O	1.453838	-0.162512	-0.441679
O9	O	1.753027	-0.341898	-0.441620
O10	O	1.582923	-0.162488	-0.570742
O11	O	1.453689	-0.264601	-0.271307
O12	O	1.283413	-0.264554	-0.441611
O13	O	1.453736	-0.341814	-0.740962
O14	O	1.283369	-0.341846	-0.570623
O15	O	1.582865	-0.264499	-0.741013
O16	O	1.582602	-0.443940	-0.441553
O17	O	1.453587	-0.443904	-0.570589
C18	C	1.245270	-0.303199	-0.506114
C19	C	1.128494	-0.303209	-0.506127
C20	C	1.518100	-0.466763	-0.506083
C21	C	1.518137	-0.536731	-0.506093
C22	C	0.963839	-0.343435	-0.438857
C23	C	1.073563	-0.343424	-0.438827
C24	C	1.073695	-0.262998	-0.573454
C25	C	0.963973	-0.263007	-0.573477
C26	C	0.963763	-0.389870	-0.361134
C27	C	1.073487	-0.389859	-0.361104
C28	C	1.585375	-0.569595	-0.438972
C29	C	1.585424	-0.635338	-0.438996
C30	C	1.518217	-0.668213	-0.506129
C31	C	1.450974	-0.635341	-0.573263
C32	C	1.450934	-0.569600	-0.573245
N33	N	1.426310	-0.771478	-0.514129
N34	N	1.426350	-0.833930	-0.514140
C35	C	1.518334	-0.866288	-0.506189
N36	N	1.610278	-0.833835	-0.498206
N37	N	1.610236	-0.771378	-0.498190
C38	C	1.518253	-0.739498	-0.506157
C39	C	1.585631	-0.970438	-0.439091
C40	C	1.585682	-1.036181	-0.439122
C41	C	1.451223	-1.036183	-0.573383
C42	C	1.451181	-0.970441	-0.573358
C43	C	1.518384	-0.937572	-0.506206
C44	C	1.792271	-0.303224	-0.506169
C45	C	1.909047	-0.303229	-0.506180
C46	C	1.518311	-0.303147	-0.780174
C47	C	1.518342	-0.303120	-0.896951
C48	C	1.518404	-0.139021	-0.506222
C49	C	1.518476	-0.069052	-0.506257
C50	C	1.585589	-0.262858	-0.951842
C51	C	1.585614	-0.262835	-1.061566
C52	C	1.451143	-0.343342	-1.061499
C53	C	1.451114	-0.343362	-0.951777
C54	C	1.663228	-0.216380	-0.951881
C55	C	1.663253	-0.216357	-1.061605
C56	C	1.518225	-0.303229	-0.233173
C57	C	1.518397	-0.303078	-0.116397
H58	H	0.919366	-0.230262	-0.628291
F59	F	1.656990	-0.670321	-0.367553
F60	F	1.379701	-1.071168	-0.644838
H61	H	1.107483	-0.372341	-0.283851
H62	H	1.744618	-0.229414	-1.091384
H63	H	1.396180	-0.542841	-0.627904
H64	H	1.118428	-0.230250	-0.628244
H65	H	1.396351	-0.376145	-0.907089
F66	F	0.924788	-0.372735	-0.254840
H67	H	1.396425	-0.943681	-0.628009
F68	F	1.634804	-0.152661	-0.912995
H69	H	0.929717	-0.436204	-0.390146
F70	F	1.657153	-0.935454	-0.367622
H71	H	1.103247	-0.438625	-0.382746
F72	F	1.656910	-0.534617	-0.367514
F73	F	1.379451	-0.670330	-0.644715
F74	F	1.657257	-1.071158	-0.367685
H75	H	1.396405	-0.376104	-1.106152
F76	F	1.764217	-0.239220	-0.907388
H77	H	1.634161	-0.170036	-1.095662
