data_functionalizedCrystal
_audit_creation_method	'MofGen! by Chris Wilmer'
_symmetry_space_group_name_H-M	'P1'
_symmetry_Int_Tables_number	1
_symmetry_cell_setting	triclinic
loop_
_symmetry_equiv_pos_as_xyz
  x,y,z
_cell_length_a	17.038272
_cell_length_b	15.072220
_cell_length_c	15.995350
_cell_angle_alpha	89.991130
_cell_angle_beta	87.301965
_cell_angle_gamma	90.012145
loop_
_atom_site_label
_atom_site_type_symbol
_atom_site_fract_x
_atom_site_fract_y
_atom_site_fract_z
O1	O	-1.037399	0.073664	-0.181832
O2	O	-0.704065	0.406998	0.151502
O3	O	-0.370732	0.740331	0.484835
O4	O	-0.809767	0.073691	-0.178945
O5	O	-0.476434	0.407024	0.154389
O6	O	-0.143100	0.740357	0.487722
O7	O	-0.929805	0.073676	-0.058944
O8	O	-0.596472	0.407009	0.274390
O9	O	-0.263139	0.740343	0.607723
O10	O	-0.917360	0.073679	-0.301833
O11	O	-0.584027	0.407012	0.031501
O12	O	-0.250694	0.740346	0.364834
O13	O	-0.929821	-0.073889	-0.058922
O14	O	-0.596487	0.259444	0.274411
O15	O	-0.263154	0.592777	0.607744
O16	O	-0.809782	-0.073875	-0.178923
O17	O	-0.476449	0.259459	0.154410
O18	O	-0.143116	0.592792	0.487743
O19	O	-1.037414	-0.073901	-0.181810
O20	O	-0.704081	0.259433	0.151523
O21	O	-0.370747	0.592766	0.484856
Zn22	Zn	-0.923601	-0.097317	-0.180363
Zn23	Zn	-0.590267	0.236016	0.152970
Zn24	Zn	-0.256934	0.569350	0.486303
Zn25	Zn	-0.923580	0.097107	-0.180392
Zn26	Zn	-0.590247	0.430440	0.152942
Zn27	Zn	-0.256914	0.763773	0.486275
O28	O	-0.917376	-0.073886	-0.301811
O29	O	-0.584042	0.259447	0.031522
O30	O	-0.250709	0.592780	0.364855
C31	C	-0.780646	-0.000089	-0.176308
C32	C	-0.447313	0.333245	0.157025
C33	C	-0.113979	0.666578	0.490359
C34	C	-0.693851	-0.000079	-0.168474
C35	C	-0.360518	0.333255	0.164860
C36	C	-0.027184	0.666588	0.498193
C37	C	-0.929298	-0.000105	-0.027702
C38	C	-0.595965	0.333228	0.305632
C39	C	-0.262632	0.666562	0.638965
C40	C	-0.927756	-0.000100	0.065359
C41	C	-0.594423	0.333234	0.398692
C42	C	-0.261089	0.666567	0.732025
C43	C	-1.066535	-0.000120	-0.184447
C44	C	-0.733202	0.333214	0.148886
C45	C	-0.399868	0.666547	0.482220
C46	C	-1.153330	-0.000124	-0.192281
C47	C	-0.819997	0.333209	0.141052
C48	C	-0.486663	0.666543	0.474385
C49	C	-0.643755	-0.000078	-0.240402
C50	C	-0.310421	0.333255	0.092931
C51	C	0.022912	0.666588	0.426264
C52	C	-0.562202	-0.000091	-0.233036
C53	C	-0.228869	0.333243	0.100297
C54	C	0.104465	0.666576	0.433631
C55	C	-0.530748	-0.000097	-0.153741
C56	C	-0.197415	0.333236	0.179593
C57	C	0.135919	0.666570	0.512926
C58	C	-0.580851	-0.000100	-0.081807
C59	C	-0.247518	0.333234	0.251527
C60	C	0.085816	0.666567	0.584860
C61	C	-0.662402	-0.000094	-0.089174
C62	C	-0.329068	0.333240	0.244160
C63	C	0.004265	0.666573	0.577493
C64	C	-0.284984	-0.000121	-0.127714
C65	C	0.048350	0.333212	0.205619
C66	C	0.381683	0.666546	0.538952
C67	C	-0.203426	-0.000124	-0.120353
C68	C	0.129907	0.333209	0.212981
C69	C	0.463240	0.666542	0.546314
C70	C	-0.184783	-0.000117	-0.271583
C71	C	0.148550	0.333217	0.061750
C72	C	0.481883	0.666550	0.395084
C73	C	-0.266336	-0.000105	-0.278943
C74	C	0.066997	0.333228	0.054390
C75	C	0.400330	0.666561	0.387724
C76	C	-0.316432	-0.000113	-0.207009
C77	C	0.016901	0.333220	0.126324
C78	C	0.350234	0.666554	0.459658
C79	C	-0.447389	-0.000107	-0.146209
C80	C	-0.114055	0.333227	0.187124
C81	C	0.219278	0.666560	0.520457
C82	C	-0.399790	-0.000110	-0.214541
C83	C	-0.066457	0.333224	0.118792
C84	C	0.266877	0.666557	0.452126
N85	N	-0.923620	-0.230006	-0.180344
N86	N	-0.590287	0.103328	0.152989
N87	N	-0.256953	0.436661	0.486323
N88	N	-0.923567	0.229795	-0.180405
N89	N	-0.590234	0.563129	0.152929
N90	N	-0.256900	0.896462	0.486262
C91	C	-0.923602	0.588997	-0.180364
C92	C	-0.590269	0.922330	0.152969
C93	C	-0.256936	1.255664	0.486303
C94	C	-0.859441	0.551398	-0.244653
C95	C	-0.526108	0.884731	0.088680
C96	C	-0.192774	1.218064	0.422013
C97	C	-0.859203	0.448572	-0.244472
C98	C	-0.525869	0.781905	0.088861
C99	C	-0.192536	1.115239	0.422195
C100	C	-0.923585	0.410793	-0.180385
C101	C	-0.590251	0.744126	0.152948
C102	C	-0.256918	1.077459	0.486282
C103	C	-0.905981	0.448101	-0.091695
C104	C	-0.572648	0.781434	0.241639
C105	C	-0.239314	1.114768	0.574972
C106	C	-0.905530	0.550959	-0.092054
C107	C	-0.572197	0.884292	0.241280
C108	C	-0.238864	1.217626	0.574613
C109	C	-1.005557	0.551073	-0.203997
C110	C	-0.672224	0.884406	0.129336
C111	C	-0.338891	1.217739	0.462670
C112	C	-1.005001	0.448209	-0.205956
C113	C	-0.671667	0.781542	0.127378
C114	C	-0.338334	1.114876	0.460711
C115	C	-0.923577	0.310079	-0.180391
C116	C	-0.590243	0.643413	0.152942
C117	C	-0.256910	0.976746	0.486275
C118	C	-0.923609	0.689710	-0.180351
C119	C	-0.590276	1.023044	0.152982
C120	C	-0.256942	1.356377	0.486315
C121	C	-0.917883	-0.000103	-0.333053
C122	C	-0.584549	0.333230	0.000280
C123	C	-0.251216	0.666563	0.333613
C124	C	-0.919425	-0.000103	-0.426114
C125	C	-0.586092	0.333231	-0.092780
C126	C	-0.252758	0.666564	0.240553
C127	C	-0.922217	-0.000102	0.403501
C128	C	-0.588883	0.333231	0.736834
C129	C	-0.255550	0.666565	1.070167
C130	C	-0.836728	0.000239	0.362156
C131	C	-0.503394	0.333572	0.695489
C132	C	-0.170061	0.666905	1.028823
C133	C	-0.838270	-0.000094	0.265356
C134	C	-0.504937	0.333239	0.598689
C135	C	-0.171604	0.666573	0.932023
C136	C	-0.924964	-0.000100	0.235744
C137	C	-0.591631	0.333233	0.569078
C138	C	-0.258298	0.666566	0.902411
C139	C	-0.967139	-0.084371	0.273831
C140	C	-0.633806	0.248963	0.607164
C141	C	-0.300473	0.582296	0.940497
C142	C	-0.964992	-0.084441	0.370619
C143	C	-0.631658	0.248892	0.703953
C144	C	-0.298325	0.582226	1.037286
C145	C	-0.966740	0.083368	0.370827
C146	C	-0.633407	0.416701	0.704161
C147	C	-0.300074	0.750035	1.037494
C148	C	-0.966720	0.084482	0.273883
C149	C	-0.633387	0.417815	0.607216
C150	C	-0.300053	0.751148	0.940550
C151	C	-0.926522	-0.000102	0.140936
C152	C	-0.593188	0.333231	0.474269
C153	C	-0.259855	0.666564	0.807603
C154	C	-0.920662	-0.000106	0.498309
C155	C	-0.587328	0.333227	0.831643
C156	C	-0.253995	0.666561	1.164976
H157	H	-0.669358	-0.000073	-0.304973
H158	H	-0.336024	0.333261	0.028360
H159	H	-0.002691	0.666594	0.361694
H160	H	-0.521416	-0.000089	-0.291608
H161	H	-0.188083	0.333244	0.041725
H162	H	0.145250	0.666577	0.375058
H163	H	-0.934251	-0.147430	0.391120
H164	H	-0.600917	0.185904	0.724453
H165	H	-0.267584	0.519237	1.057787
H166	H	-0.703190	-0.000093	-0.030601
H167	H	-0.369857	0.333240	0.302732
H168	H	-0.036524	0.666573	0.636065
H169	H	-0.846902	0.422343	-0.071464
H170	H	-0.513568	0.755676	0.261870
H171	H	-0.180235	1.089009	0.595203
H172	H	-0.935884	0.146822	0.248821
H173	H	-0.602551	0.480156	0.582155
H174	H	-0.269218	0.813489	0.915488
H175	H	-0.143987	-0.000112	-0.330147
H176	H	0.189346	0.333221	0.003186
H177	H	0.522680	0.666554	0.336519
H178	H	-0.555235	-0.000117	-0.017242
H179	H	-0.221901	0.333216	0.316091
H180	H	0.111432	0.666549	0.649424
H181	H	-1.029771	0.083930	0.398098
H182	H	-0.696438	0.417263	0.731431
H183	H	-0.363104	0.750596	1.064765
H184	H	-0.425404	-0.000109	-0.279103
H185	H	-0.092070	0.333224	0.054230
H186	H	0.241263	0.666557	0.387563
H187	H	-0.421769	-0.000137	-0.081646
H188	H	-0.088436	0.333197	0.251687
H189	H	0.244897	0.666530	0.585020
H190	H	-1.030831	-0.087509	0.255168
H191	H	-0.697498	0.245824	0.588502
H192	H	-0.364165	0.579158	0.921835
H193	H	-0.869657	0.423349	-0.310204
H194	H	-0.536323	0.756683	0.023130
H195	H	-0.202990	1.090016	0.356463
H196	H	-0.937859	-0.147077	0.247544
H197	H	-0.604526	0.186256	0.580878
H198	H	-0.271193	0.519590	0.914211
H199	H	-0.869725	0.576149	-0.310584
H200	H	-0.536392	0.909482	0.022750
H201	H	-0.203058	1.242816	0.356083
H202	H	-1.054965	0.422490	-0.162636
H203	H	-0.721632	0.755823	0.170698
H204	H	-0.388299	1.089157	0.504031
H205	H	-0.798378	0.423976	-0.228752
H206	H	-0.465044	0.757309	0.104581
H207	H	-0.131711	1.090643	0.437914
H208	H	-0.291940	-0.000090	-0.343514
H209	H	0.041393	0.333243	-0.010180
H210	H	0.374727	0.666577	0.323153
H211	H	-0.177820	-0.000128	-0.055778
H212	H	0.155513	0.333205	0.277556
H213	H	0.488846	0.666538	0.610889
H214	H	-0.845767	0.574959	-0.072149
H215	H	-0.512434	0.908292	0.261184
H216	H	-0.179100	1.241625	0.594517
H217	H	-0.938783	0.147239	0.393349
H218	H	-0.605450	0.480573	0.726682
H219	H	-0.272116	0.813906	1.060015
H220	H	-0.950496	0.575829	-0.042466
H221	H	-0.617163	0.909162	0.290867
H222	H	-0.283829	1.242496	0.624201
H223	H	-0.325762	-0.000128	-0.069140
H224	H	0.007571	0.333206	0.264193
H225	H	0.340904	0.666539	0.597527
H226	H	-0.798961	0.577255	-0.229115
H227	H	-0.465628	0.910588	0.104218
H228	H	-0.132295	1.243922	0.437551
H229	H	-0.804909	-0.060598	0.239877
H230	H	-0.471575	0.272735	0.573210
H231	H	-0.138242	0.606069	0.906544
H232	H	-0.951476	0.423627	-0.042459
H233	H	-0.618143	0.756961	0.290875
H234	H	-0.284809	1.090294	0.624208
H235	H	-1.022528	0.577028	-0.267607
H236	H	-0.689195	0.910361	0.065727
H237	H	-0.355862	1.243695	0.399060
H238	H	-1.018357	0.423841	-0.271236
H239	H	-0.685023	0.757174	0.062097
H240	H	-0.351690	1.090508	0.395431
H241	H	-1.053302	0.575389	-0.157187
H242	H	-0.719969	0.908723	0.176146
H243	H	-0.386636	1.242056	0.509480
H244	H	-1.029940	0.089565	0.254017
H245	H	-0.696607	0.422898	0.587350
H246	H	-0.363273	0.756232	0.920684
H247	H	-0.805119	0.060314	0.239286
H248	H	-0.471785	0.393648	0.572620
H249	H	-0.138452	0.726981	0.905953
H250	H	-0.802552	0.060671	0.383113
H251	H	-0.469219	0.394004	0.716446
H252	H	-0.135886	0.727337	1.049780
H253	H	-0.802716	-0.059849	0.384182
H254	H	-0.469383	0.273484	0.717515
H255	H	-0.136050	0.606818	1.050849
H256	H	-1.027757	-0.088269	0.398397
H257	H	-0.694423	0.245064	0.731730
H258	H	-0.361090	0.578398	1.065064
