data_functionalizedCrystal
_audit_creation_method	'MofGen! by Chris Wilmer'
_symmetry_space_group_name_H-M	'P1'
_symmetry_Int_Tables_number	1
_symmetry_cell_setting	triclinic
loop_
_symmetry_equiv_pos_as_xyz
  x,y,z
_cell_length_a	15.944551
_cell_length_b	13.448316
_cell_length_c	14.971486
_cell_angle_alpha	89.993189
_cell_angle_beta	83.556433
_cell_angle_gamma	89.997731
loop_
_atom_site_label
_atom_site_type_symbol
_atom_site_fract_x
_atom_site_fract_y
_atom_site_fract_z
O1	O	1.114636	-0.082589	0.115362
O2	O	0.870100	-0.082613	0.129585
O3	O	0.998923	-0.082593	-0.007734
O4	O	0.985814	-0.082609	0.252680
O5	O	0.998906	0.082791	-0.007742
O6	O	0.870084	0.082770	0.129576
O7	O	1.114620	0.082795	0.115354
Cu8	Cu	0.992351	0.097884	0.122464
Cu9	Cu	0.992370	-0.097702	0.122474
O10	O	0.985798	0.082775	0.252672
C11	C	0.838798	0.000075	0.128990
C12	C	0.745550	0.000066	0.127220
N13	N	0.992343	0.235448	0.122456
N14	N	0.992384	-0.235266	0.122475
C15	C	0.530608	0.000091	0.037872
C16	C	0.469636	-0.081455	0.079366
C17	C	0.574821	0.000078	0.124017
C18	C	0.469642	0.081601	0.079379
C19	C	0.409905	0.000094	0.120918
C20	C	0.515077	-0.081535	0.165535
C21	C	0.515089	0.081594	0.165535
C22	C	0.454134	0.000029	0.207092
C23	C	0.669825	0.000068	0.125801
C24	C	0.314903	0.000097	0.119141
C25	C	1.145923	0.000104	0.115948
C26	C	1.239171	0.000107	0.117718
C27	C	0.998328	0.000098	-0.041062
C28	C	0.996572	0.000097	-0.140357
C29	C	1.049404	0.287497	0.061677
C30	C	1.049409	0.391600	0.061676
C31	C	0.992357	0.443653	0.122460
C32	C	0.935291	0.391596	0.183243
C33	C	0.935282	0.287495	0.183238
C34	C	0.935314	0.608576	0.183249
C35	C	0.935324	0.712685	0.183254
C36	C	1.049441	0.712682	0.061686
C37	C	1.049432	0.608581	0.061682
C38	C	0.992367	0.556531	0.122466
C39	C	1.072251	0.000106	-0.197664
C40	C	1.070595	0.000095	-0.290962
C41	C	0.993259	0.000084	-0.326951
C42	C	0.917574	0.000073	-0.269637
C43	C	0.919230	0.000076	-0.176341
C44	C	0.914127	0.000069	-0.464095
C45	C	0.912470	0.000067	-0.557398
C46	C	1.065491	0.000088	-0.578717
C47	C	1.067148	0.000091	-0.485421
C48	C	0.991462	0.000082	-0.428113
C49	C	0.986392	0.000081	0.286000
C50	C	0.988149	0.000076	0.385295
H51	H	0.449498	-0.150391	0.042934
H52	H	1.132222	0.000104	-0.337618
O53	O	0.842396	0.000191	-0.304486
C54	C	0.796254	0.085850	-0.275227
H55	H	0.819210	0.114411	-0.210524
H56	H	0.726321	0.066575	-0.262276
H57	H	0.805918	0.145829	-0.329220
H58	H	0.849496	0.000074	-0.586696
O59	O	0.845660	-0.000064	-0.120760
C60	C	0.798732	-0.085737	-0.137047
H61	H	0.819286	-0.114289	-0.207816
H62	H	0.728680	-0.066485	-0.130485
H63	H	0.810280	-0.145714	-0.086013
H64	H	1.130122	0.000108	-0.456122
H65	H	0.888834	0.433983	0.232731
H66	H	1.095892	0.566200	0.012192
O67	O	1.138936	0.000042	-0.634508
C68	C	1.120895	0.000053	-0.724571
H69	H	1.054918	-0.031265	-0.728146
H70	H	1.169133	-0.047963	-0.766827
H71	H	1.124045	0.079393	-0.751568
O72	O	0.840551	-0.000074	-0.408515
C73	C	0.793617	-0.085744	-0.424798
H74	H	0.814170	-0.114301	-0.495565
H75	H	0.723567	-0.066486	-0.418235
H76	H	0.805163	-0.145720	-0.373761
O77	O	0.570237	-0.000176	-0.047442
C78	C	0.547205	-0.086302	-0.092529
H79	H	0.525259	-0.146094	-0.041179
H80	H	0.603952	-0.114762	-0.138528
H81	H	0.493781	-0.067694	-0.134341
H82	H	0.535106	-0.150550	0.201947
O83	O	1.104957	0.763083	0.002606
C84	C	1.155301	0.694818	-0.051052
H85	H	1.156272	0.620604	-0.014380
H86	H	1.222368	0.724885	-0.064641
H87	H	1.127974	0.683763	-0.117524
O88	O	0.414688	-0.000202	0.292483
C89	C	0.437868	-0.086279	0.337565
H90	H	0.459727	-0.146096	0.286217
H91	H	0.381223	-0.114740	0.383720
H92	H	0.491394	-0.067606	0.379210
H93	H	0.535248	0.150534	0.201937
O94	O	0.879852	0.558168	0.242382
C95	C	0.829486	0.626430	0.296021
H96	H	0.863928	0.700633	0.297055
H97	H	0.816742	0.596341	0.367445
H98	H	0.767062	0.637516	0.266939
O99	O	0.879825	0.237085	0.242368
C100	C	0.829457	0.305347	0.296006
H101	H	0.863901	0.379548	0.297045
H102	H	0.816707	0.275256	0.367428
H103	H	0.767037	0.316436	0.266918
O104	O	0.445742	0.163816	0.035773
C105	C	0.485049	0.163493	-0.053414
H106	H	0.544450	0.115759	-0.057699
H107	H	0.502728	0.242796	-0.074863
H108	H	0.439756	0.131664	-0.099800
H109	H	1.095865	0.245123	0.012183
H110	H	1.095871	0.433979	0.012184
H111	H	0.888865	0.755060	0.232750
H112	H	1.135227	0.000121	-0.168370
