data_functionalizedCrystal
_audit_creation_method	'MofGen! by Chris Wilmer'
_symmetry_space_group_name_H-M	'P1'
_symmetry_Int_Tables_number	1
_symmetry_cell_setting	triclinic
loop_
_symmetry_equiv_pos_as_xyz
  x,y,z
_cell_length_a	11.792241
_cell_length_b	10.268362
_cell_length_c	11.792254
_cell_angle_alpha	89.998485
_cell_angle_beta	84.196007
_cell_angle_gamma	90.000220
loop_
_atom_site_label
_atom_site_type_symbol
_atom_site_fract_x
_atom_site_fract_y
_atom_site_fract_z
O1	O	-1.506917	0.108155	-0.155561
O2	O	-1.173583	0.441488	0.177772
O3	O	-0.840250	0.774822	0.511105
O4	O	-1.176576	0.108190	-0.171594
O5	O	-0.843243	0.441523	0.161739
O6	O	-0.509910	0.774856	0.495073
O7	O	-1.349755	0.108162	0.001592
O8	O	-1.016422	0.441495	0.334925
O9	O	-0.683089	0.774829	0.668259
O10	O	-1.333737	0.108182	-0.328747
O11	O	-1.000404	0.441516	0.004586
O12	O	-0.667071	0.774849	0.337919
O13	O	-1.349739	-0.108438	0.001586
O14	O	-1.016405	0.224895	0.334919
O15	O	-0.683072	0.558228	0.668253
O16	O	-1.176560	-0.108411	-0.171600
O17	O	-0.843226	0.224922	0.161733
O18	O	-0.509893	0.558256	0.495067
O19	O	-1.506900	-0.108446	-0.155567
O20	O	-1.173567	0.224888	0.177766
O21	O	-0.840233	0.558221	0.511100
Cu22	Cu	-1.341728	-0.128206	-0.163584
Cu23	Cu	-1.008395	0.205128	0.169749
Cu24	Cu	-0.675062	0.538461	0.503083
Cu25	Cu	-1.341748	0.127950	-0.163577
Cu26	Cu	-1.008415	0.461283	0.169756
Cu27	Cu	-0.675081	0.794616	0.503090
O28	O	-1.333721	-0.108418	-0.328753
O29	O	-1.000387	0.224915	0.004580
O30	O	-0.667054	0.558248	0.337914
C31	C	-1.134277	-0.000106	-0.170590
C32	C	-0.800944	0.333227	0.162743
C33	C	-0.467610	0.666560	0.496077
C34	C	-1.008263	-0.000093	-0.167576
C35	C	-0.674930	0.333240	0.165758
C36	C	-0.341596	0.666573	0.499091
N37	N	-1.341723	-0.308372	-0.163588
N38	N	-1.008389	0.024962	0.169745
N39	N	-0.675056	0.358295	0.503078
C40	C	-1.341731	-0.426214	-0.163589
C41	C	-1.008398	-0.092881	0.169744
C42	C	-0.675064	0.240453	0.503078
C43	C	-1.341745	-0.574052	-0.163579
C44	C	-1.008412	-0.240719	0.169755
C45	C	-0.675079	0.092615	0.503088
C46	C	-0.777551	-0.000128	-0.162033
C47	C	-0.444217	0.333205	0.171301
C48	C	-0.110884	0.666539	0.504634
C49	C	-0.905936	-0.000109	-0.165112
C50	C	-0.572603	0.333224	0.168221
C51	C	-0.239269	0.666558	0.501554
C52	C	-0.549199	-0.000144	-0.156571
C53	C	-0.215866	0.333190	0.176762
C54	C	0.117467	0.666523	0.510095
C55	C	-0.675213	-0.000138	-0.159586
C56	C	-0.341880	0.333195	0.173748
C57	C	-0.008546	0.666528	0.507081
C58	C	-1.348738	-0.000138	0.043880
C59	C	-1.015405	0.333196	0.377213
C60	C	-0.682071	0.666529	0.710546
C61	C	-1.345718	-0.000136	0.169893
C62	C	-1.012385	0.333197	0.503226
C63	C	-0.679051	0.666531	0.836559
N64	N	-1.341762	0.308115	-0.163564
N65	N	-1.008429	0.641449	0.169769
N66	N	-0.675096	0.974782	0.503103
C67	C	-1.334738	-0.000116	-0.371041
C68	C	-1.001405	0.333218	-0.037708
C69	C	-0.668071	0.666551	0.295626
C70	C	-1.337758	-0.000109	-0.497054
C71	C	-1.004425	0.333225	-0.163721
C72	C	-0.671092	0.666558	0.169613
C73	C	-1.343264	-0.000131	0.272229
C74	C	-1.009931	0.333202	0.605563
C75	C	-0.676597	0.666535	0.938896
C76	C	-1.340196	-0.000119	0.400616
C77	C	-1.006862	0.333214	0.733949
C78	C	-0.673529	0.666548	1.067283
