data_functionalizedCrystal
_audit_creation_method	'MofGen! by Chris Wilmer'
_symmetry_space_group_name_H-M	'P1'
_symmetry_Int_Tables_number	1
_symmetry_cell_setting	triclinic
loop_
_symmetry_equiv_pos_as_xyz
  x,y,z
_cell_length_a	13.330367
_cell_length_b	19.288864
_cell_length_c	19.288853
_cell_angle_alpha	83.134502
_cell_angle_beta	89.984882
_cell_angle_gamma	89.978603
loop_
_atom_site_label
_atom_site_type_symbol
_atom_site_fract_x
_atom_site_fract_y
_atom_site_fract_z
O1	O	0.083768	-0.921349	-0.086648
O2	O	0.583768	-0.421349	0.413352
O3	O	0.083703	-0.719088	-0.098336
O4	O	0.583703	-0.219088	0.401664
O5	O	0.083704	-0.826066	0.008639
O6	O	0.583704	-0.326066	0.508639
O7	O	0.083767	-0.814371	-0.193623
O8	O	0.583767	-0.314371	0.306377
O9	O	-0.083143	-0.826050	0.008641
O10	O	0.416857	-0.326050	0.508641
O11	O	-0.083145	-0.719072	-0.098334
O12	O	0.416855	-0.219072	0.401666
O13	O	-0.083079	-0.921333	-0.086645
O14	O	0.416921	-0.421333	0.413355
Cu15	Cu	-0.098346	-0.820201	-0.092489
Cu16	Cu	0.401654	-0.320201	0.407511
Cu17	Cu	0.098970	-0.820220	-0.092492
Cu18	Cu	0.598970	-0.320220	0.407508
O19	O	-0.083081	-0.814355	-0.193620
O20	O	0.416919	-0.314355	0.306380
C21	C	0.000270	-0.693204	-0.097959
C22	C	0.500270	-0.193204	0.402041
C23	C	0.000243	-0.616100	-0.096830
C24	C	0.500243	-0.116100	0.403170
N25	N	-0.237128	-0.820194	-0.092487
N26	N	0.262872	-0.320194	0.407513
C27	C	0.000274	-0.825683	0.034517
C28	C	0.500274	-0.325683	0.534517
C29	C	0.000255	-0.824556	0.111620
C30	C	0.500255	-0.324556	0.611620
C31	C	-0.709751	-0.772848	-0.139842
C32	C	-0.209751	-0.272848	0.360158
C33	C	-0.709718	-0.867610	-0.045137
C34	C	-0.209718	-0.367610	0.454863
C35	C	-0.604700	-0.867602	-0.045134
C36	C	-0.104700	-0.367602	0.454866
C37	C	-0.552202	-0.820217	-0.092488
C38	C	-0.052202	-0.320217	0.407512
C39	C	-0.604723	-0.772840	-0.139843
C40	C	-0.104723	-0.272840	0.360157
C41	C	-0.552171	-0.914984	0.002215
C42	C	-0.052171	-0.414984	0.502215
C43	C	-0.447146	-0.914978	0.002219
C44	C	0.052854	-0.414978	0.502219
C45	C	-0.394647	-0.867589	-0.045132
C46	C	0.105353	-0.367589	0.454868
C47	C	-0.447174	-0.820209	-0.092488
C48	C	0.052826	-0.320209	0.407512
C49	C	-0.394677	-0.772824	-0.139842
C50	C	0.105323	-0.272824	0.360158
C51	C	-0.447202	-0.725441	-0.187196
C52	C	0.052798	-0.225441	0.312804
C53	C	-0.552224	-0.725451	-0.187193
C54	C	-0.052224	-0.225451	0.312807
C55	C	-0.289625	-0.867579	-0.045134
C56	C	0.210375	-0.367579	0.454866
C57	C	-0.289649	-0.772816	-0.139842
C58	C	0.210351	-0.272816	0.360158
N59	N	0.237751	-0.820233	-0.092489
N60	N	0.737751	-0.320233	0.407511
C61	C	0.000356	-0.947217	-0.087023
C62	C	0.500356	-0.447217	0.412977
C63	C	0.000389	-1.024321	-0.088152
C64	C	0.500389	-0.524321	0.411848
C65	C	0.000279	-0.571402	-0.159598
C66	C	0.500279	-0.071402	0.340402
C67	C	0.000289	-0.498955	-0.158538
C68	C	0.500289	0.001045	0.341462
C69	C	0.000285	-0.471209	-0.094705
C70	C	0.500285	0.028791	0.405295
C71	C	0.000244	-0.515917	-0.031929
C72	C	0.500244	-0.015917	0.468071
C73	C	0.000223	-0.588363	-0.032991
C74	C	0.500223	-0.088363	0.467009
C75	C	0.058757	-0.362954	-0.044527
C76	C	0.558757	0.137046	0.455473
C77	C	0.058784	-0.290510	-0.043467
C78	C	0.558784	0.209490	0.456533
C79	C	0.000345	-0.247764	-0.091425
C80	C	0.500345	0.252236	0.408575
C81	C	-0.058109	-0.277470	-0.140456
C82	C	0.441891	0.222530	0.359544
C83	C	-0.058130	-0.349915	-0.141518
C84	C	0.441870	0.150085	0.358482
C85	C	0.000307	-0.392655	-0.093546
C86	C	0.500307	0.107345	0.406454
C87	C	0.000390	-0.124510	-0.153048
C88	C	0.500390	0.375490	0.346952
C89	C	0.000395	-0.052062	-0.151985
C90	C	0.500395	0.447938	0.348015
C91	C	0.000360	-0.069026	-0.025374
C92	C	0.500360	0.430974	0.474626
C93	C	0.000345	-0.141472	-0.026439
C94	C	0.500345	0.358528	0.473561
C95	C	0.000365	-0.169209	-0.090278
C96	C	0.500365	0.330791	0.409722
C97	C	0.000147	-0.879704	0.675662
C98	C	0.500147	-0.379704	1.175662
C99	C	0.000158	-0.880769	0.603215
C100	C	0.500158	-0.380769	1.103215
C101	C	0.000149	-0.817999	0.558508
C102	C	0.500149	-0.317999	1.058508
C103	C	0.000103	-0.754160	0.586254
C104	C	0.500103	-0.254160	1.086254
C105	C	0.000082	-0.753097	0.658699
C106	C	0.500082	-0.253097	1.158699
C107	C	0.058618	-0.771191	0.437234
C108	C	0.558618	-0.271191	0.937234
C109	C	0.058645	-0.772256	0.364790
C110	C	0.558645	-0.272256	0.864790
C111	C	0.000210	-0.821275	0.335062
C112	C	0.500210	-0.321275	0.835062
C113	C	-0.058240	-0.869240	0.377789
C114	C	0.441760	-0.369240	0.877789
C115	C	-0.058262	-0.868177	0.450234
C116	C	0.441738	-0.368177	0.950234
C117	C	0.000171	-0.819145	0.479953
C118	C	0.500171	-0.319145	0.979953
C119	C	0.000260	-0.886264	0.228771
C120	C	0.500260	-0.386264	0.728771
C121	C	0.000265	-0.887326	0.156322
C122	C	0.500265	-0.387326	0.656322
C123	C	0.000221	-0.760716	0.139362
C124	C	0.500221	-0.260716	0.639362
C125	C	0.000206	-0.759656	0.211809
C126	C	0.500206	-0.259656	0.711809
C127	C	0.000230	-0.822432	0.256509
C128	C	0.500230	-0.322432	0.756509
C129	C	0.000284	-0.814741	0.780502
C130	C	0.500284	-0.314741	1.280502
C131	C	0.000107	-0.815873	0.703399
C132	C	0.500107	-0.315873	1.203399
H133	H	-0.246912	-0.734227	-0.178401
H134	H	0.253088	-0.234227	0.321599
F135	F	-0.391320	-0.675015	-0.237595
F136	F	0.108680	-0.175015	0.262405
H137	H	-0.105855	-0.907230	0.485019
H138	H	0.394145	-0.407230	0.985019
F139	F	-0.608129	-0.675027	-0.237588
F140	F	-0.108129	-0.175027	0.262412
H141	H	-0.752520	-0.734267	-0.178395
H142	H	-0.252520	-0.234267	0.321605
H143	H	0.000279	-0.937381	0.265168
H144	H	0.500279	-0.437381	0.765168
F145	F	0.120812	-0.719011	0.468864
F146	F	0.620812	-0.219011	0.968864
F147	F	0.000090	-0.687356	0.538673
F148	F	0.500090	-0.187356	1.038673
H149	H	-0.752465	-0.906193	-0.006586
H150	H	-0.252465	-0.406193	0.493414
H151	H	0.000161	-0.930822	0.712053
H152	H	0.500161	-0.430822	1.212053
F153	F	0.000324	-0.451375	-0.225347
F154	F	0.500324	0.048625	0.274653
H155	H	-0.594918	-0.953567	0.040766
H156	H	-0.094918	-0.453567	0.540766
F157	F	-0.120309	-0.231982	-0.191502
F158	F	0.379691	0.268018	0.308498
H159	H	0.000392	-0.147094	-0.205029
H160	H	0.500392	0.352906	0.294971
F161	F	0.000427	-0.004490	-0.218795
F162	F	0.500427	0.495510	0.281205
H163	H	-0.404386	-0.953559	0.040777
H164	H	0.095614	-0.453559	0.540777
F165	F	-0.233730	-0.918008	0.005256
F166	F	0.266270	-0.418008	0.505256
H167	H	-0.105728	-0.374099	-0.181438
H168	H	0.394272	0.125901	0.318562
F169	F	0.000297	-0.600918	-0.227542
F170	F	0.500297	-0.100918	0.272458
H171	H	0.000418	-0.046436	0.026600
H172	H	0.500418	0.453564	0.526600
H173	H	0.106385	-0.266329	-0.003546
H174	H	0.606385	0.233671	0.496454
F175	F	0.120861	-0.721213	0.319325
F176	F	0.620861	-0.221213	0.819325
H177	H	0.000322	-0.177867	0.024674
H178	H	0.500322	0.322133	0.524674
F179	F	0.120960	-0.408442	0.006522
F180	F	0.620960	0.091558	0.506522
H181	H	0.000255	-0.493322	0.020044
H182	H	0.500255	0.006678	0.520044
H183	H	0.000195	-0.624757	0.018124
H184	H	0.500195	-0.124757	0.518124
H185	H	0.000190	-0.932749	0.580627
H186	H	0.500190	-0.432749	1.080627
H187	H	-0.105832	-0.909151	0.353586
H188	H	0.394168	-0.409151	0.853586
F189	F	0.000200	-0.693911	0.091786
F190	F	0.500200	-0.193911	0.591786
H191	H	0.000291	-0.939307	0.133741
H192	H	0.500291	-0.439307	0.633741
H193	H	0.000180	-0.707678	0.234392
H194	H	0.500180	-0.207678	0.734392
F195	F	0.000041	-0.685157	0.688219
F196	F	0.500041	-0.185157	1.188219
