data_functionalizedCrystal
_audit_creation_method	'MofGen! by Chris Wilmer'
_symmetry_space_group_name_H-M	'P1'
_symmetry_Int_Tables_number	1
_symmetry_cell_setting	triclinic
loop_
_symmetry_equiv_pos_as_xyz
  x,y,z
_cell_length_a	12.759395
_cell_length_b	18.101397
_cell_length_c	12.759387
_cell_angle_alpha	90.037018
_cell_angle_beta	90.021426
_cell_angle_gamma	90.021154
loop_
_atom_site_label
_atom_site_type_symbol
_atom_site_fract_x
_atom_site_fract_y
_atom_site_fract_z
Zn1	Zn	1.606227	-0.294777	0.593985
Zn2	Zn	1.606100	-0.418637	0.418287
Zn3	Zn	1.430525	-0.294815	0.418319
Zn4	Zn	1.430499	-0.418583	0.593923
O5	O	1.518338	-0.356703	0.506129
O6	O	1.753231	-0.311214	0.570691
O7	O	1.582767	-0.402251	0.271270
O8	O	1.453896	-0.191177	0.441662
O9	O	1.753137	-0.402213	0.441606
O10	O	1.582983	-0.191149	0.570723
O11	O	1.453773	-0.311280	0.271294
O12	O	1.283500	-0.311227	0.441601
O13	O	1.453853	-0.402121	0.740953
O14	O	1.283482	-0.402158	0.570616
O15	O	1.582959	-0.311161	0.740998
O16	O	1.582742	-0.522263	0.441546
O17	O	1.453729	-0.522223	0.570585
C18	C	1.245370	-0.356691	0.506106
C19	C	1.128593	-0.356704	0.506122
C20	C	0.909189	-0.451561	0.640288
C21	C	0.964071	-0.498974	0.707346
C22	C	1.073792	-0.498965	0.707332
C23	C	1.128635	-0.451539	0.640251
C24	C	1.073753	-0.404126	0.573193
C25	C	0.964029	-0.404139	0.573216
C26	C	1.073712	-0.309291	0.439063
C27	C	0.963990	-0.309295	0.439081
C28	C	1.128555	-0.261865	0.371982
C29	C	1.073673	-0.214447	0.304928
C30	C	0.963945	-0.214458	0.304945
C31	C	0.909109	-0.261882	0.372022
C32	C	1.518248	-0.549114	0.506078
C33	C	1.518305	-0.631428	0.506091
C34	C	1.518439	-0.930519	0.506187
C35	C	1.599384	-0.899188	0.424782
C36	C	1.599665	-0.813569	0.424992
C37	C	1.518373	-0.782136	0.506138
C38	C	1.548394	-0.813134	0.616880
C39	C	1.549020	-0.898779	0.616437
C40	C	1.407258	-0.899031	0.477809
C41	C	1.407807	-0.813381	0.475337
C42	C	1.518334	-0.698277	0.506118
C43	C	1.518481	-1.014378	0.506215
C44	C	1.792371	-0.356715	0.506152
C45	C	1.909148	-0.356721	0.506162
C46	C	1.518417	-0.356630	0.780162
C47	C	1.518451	-0.356600	0.896939
C48	C	1.518456	-0.163541	0.506203
C49	C	1.518507	-0.081227	0.506234
C50	C	1.518319	-0.356722	0.233161
C51	C	1.518489	-0.356544	0.116385
C52	C	1.652898	-0.261890	0.897007
C53	C	1.720136	-0.214524	0.951901
C54	C	1.720162	-0.214497	1.061623
C55	C	1.652940	-0.261839	1.116452
C56	C	1.585701	-0.309205	1.061558
C57	C	1.585685	-0.309229	0.951834
C58	C	1.451251	-0.403910	1.061490
C59	C	1.451229	-0.403942	0.951769
C60	C	1.384028	-0.451253	1.116320
C61	C	1.316794	-0.498624	1.061426
C62	C	1.316772	-0.498649	0.951697
C63	C	1.383990	-0.451308	0.896874
H64	H	1.118335	-0.175841	0.250311
O65	O	1.374623	-0.924745	0.383088
C66	C	1.321086	-0.894038	0.207311
C67	C	1.357996	-0.864815	0.314541
H68	H	1.307652	-0.845601	0.151854
H69	H	1.244808	-0.926056	0.217466
H70	H	1.383550	-0.932105	0.173207
H71	H	1.295605	-0.826720	0.348704
H72	H	1.434299	-0.832840	0.304320
H73	H	1.262007	-0.537213	0.907008
H74	H	1.383983	-0.451328	0.807533
O75	O	0.802606	-0.451663	0.640435
C76	C	0.645171	-0.503629	0.714178
C77	C	0.765875	-0.503612	0.714080
H78	H	0.615437	-0.545615	0.773730
H79	H	0.615229	-0.518966	0.632828
H80	H	0.615487	-0.446271	0.736099
H81	H	0.795649	-0.560953	0.692205
H82	H	0.795746	-0.488234	0.795440
H83	H	1.580828	-0.919838	0.342422
H84	H	1.580882	-0.792614	0.342879
O85	O	0.910959	-0.545103	0.772551
C86	C	0.922581	-0.639119	0.905661
C87	C	0.982855	-0.586932	0.831850
H88	H	0.980683	-0.672940	0.953640
H89	H	0.871195	-0.677860	0.857398
H90	H	0.871232	-0.605148	0.960643
H91	H	1.034261	-0.620843	0.776853
H92	H	1.034176	-0.548189	0.880179
O93	O	1.127155	-0.545099	0.772321
C94	C	1.251069	-0.645047	0.786174
C95	C	1.190683	-0.592860	0.712455
H96	H	1.302461	-0.683665	0.737803
H97	H	1.193077	-0.679001	0.834101
H98	H	1.302429	-0.611070	0.841209
H99	H	1.139320	-0.626780	0.657356
H100	H	1.248731	-0.558904	0.664602
H101	H	1.492646	-0.919501	0.679180
H102	H	1.774906	-0.175922	1.106318
O103	O	1.480117	-0.788974	0.691186
C104	C	1.353455	-0.822606	0.822830
C105	C	1.430737	-0.850063	0.738706
H106	H	1.313526	-0.871983	0.861289
H107	H	1.291767	-0.785797	0.784781
H108	H	1.397921	-0.789705	0.884752
H109	H	1.386361	-0.882996	0.676759
H110	H	1.492423	-0.886834	0.776830
H111	H	1.217896	-0.261865	0.371971
H112	H	1.217976	-0.451542	0.640237
H113	H	1.681291	-0.920654	0.443341
H114	H	1.628753	-0.791624	0.641325
H115	H	1.682022	-0.793024	0.443768
O116	O	1.380609	-0.789240	0.378156
C117	C	1.256399	-0.720754	0.274302
C118	C	1.287064	-0.748033	0.384427
H119	H	1.180778	-0.687419	0.279338
H120	H	1.244104	-0.770212	0.220311
H121	H	1.321666	-0.684391	0.241735
H122	H	1.221834	-0.784382	0.417089
H123	H	1.299395	-0.698541	0.438347
O124	O	0.910799	-0.168330	0.239769
C125	C	0.922351	-0.074299	0.106674
C126	C	0.982664	-0.126488	0.180451
H127	H	0.980428	-0.040467	0.058681
H128	H	0.871052	-0.035568	0.154965
H129	H	0.870911	-0.108269	0.051704
H130	H	1.034161	-0.092578	0.235436
H131	H	1.033897	-0.165221	0.132094
H132	H	0.819768	-0.261892	0.372048
O133	O	1.383887	-0.451300	1.222903
C134	C	1.310193	-0.503267	1.380321
C135	C	1.310228	-0.503272	1.259616
H136	H	1.250661	-0.545294	1.410040
H137	H	1.288384	-0.445931	1.410196
H138	H	1.391574	-0.518608	1.410086
H139	H	1.228871	-0.487963	1.229762
H140	H	1.332095	-0.560615	1.229812
H141	H	1.630289	-0.918696	0.640475
O142	O	1.251403	-0.544631	1.114523
C143	C	1.118091	-0.638608	1.102888
C144	C	1.192074	-0.586529	1.042621
H145	H	1.070120	-0.672508	1.044782
H146	H	1.063118	-0.604623	1.154228
H147	H	1.166326	-0.677288	1.154284
H148	H	1.143924	-0.547839	0.991168
H149	H	1.247050	-0.620560	0.991347
O150	O	1.335290	-0.923075	0.548610
C151	C	1.207656	-0.889227	0.679228
C152	C	1.289137	-0.861896	0.599100
H153	H	1.170302	-0.839778	0.720056
H154	H	1.247819	-0.925757	0.739897
H155	H	1.144470	-0.922388	0.636991
H156	H	1.352346	-0.828704	0.641247
H157	H	1.248898	-0.825405	0.538436
O158	O	1.785405	-0.168611	0.898477
C159	C	1.844930	-0.126652	0.729474
C160	C	1.770977	-0.178697	0.789840
H161	H	1.833275	-0.134777	0.641631
H162	H	1.929661	-0.139668	0.750983
H163	H	1.826549	-0.066936	0.751131
H164	H	1.789264	-0.238430	0.768216
H165	H	1.686268	-0.165617	0.768327
H166	H	1.344252	-0.791992	0.530287
O167	O	1.653122	-0.261738	1.223035
C168	C	1.726868	-0.209693	1.380528
C169	C	1.726788	-0.209744	1.259824
H170	H	1.786405	-0.167650	1.410308
H171	H	1.748693	-0.267014	1.410360
H172	H	1.645495	-0.194343	1.410276
H173	H	1.808136	-0.225063	1.229986
H174	H	1.704904	-0.152416	1.230063
H175	H	1.652894	-0.261914	0.807665
