data_functionalizedCrystal
_audit_creation_method	'MofGen! by Chris Wilmer'
_symmetry_space_group_name_H-M	'P1'
_symmetry_Int_Tables_number	1
_symmetry_cell_setting	triclinic
loop_
_symmetry_equiv_pos_as_xyz
  x,y,z
_cell_length_a	11.026607
_cell_length_b	10.723024
_cell_length_c	9.798715
_cell_angle_alpha	90.001978
_cell_angle_beta	89.996711
_cell_angle_gamma	83.473057
loop_
_atom_site_label
_atom_site_type_symbol
_atom_site_fract_x
_atom_site_fract_y
_atom_site_fract_z
O1	O	1.614520	-0.523503	-0.113489
O2	O	1.260718	-0.463891	-0.113491
O3	O	1.445780	-0.313882	-0.113485
O4	O	1.429458	-0.673512	-0.113495
O5	O	1.445766	-0.313879	0.113498
O6	O	1.260704	-0.463888	0.113492
O7	O	1.614506	-0.523499	0.113494
Zn8	Zn	1.437603	-0.493693	0.149531
Zn9	Zn	1.437621	-0.493698	-0.149528
O10	O	1.429444	-0.673508	0.113487
C11	C	1.215408	-0.452892	0.000000
C12	C	1.080422	-0.420109	-0.000001
C13	C	1.007369	-0.510629	-0.000004
C14	C	0.867853	-0.476748	-0.000005
C15	C	1.444585	-0.267125	0.000005
C16	C	1.441032	-0.127803	0.000000
C17	C	1.659816	-0.534498	-0.000000
C18	C	1.794803	-0.567282	-0.000008
C19	C	1.430639	-0.720266	-0.000005
C20	C	1.434193	-0.859587	-0.000009
N21	N	1.437599	-0.493691	0.353631
C22	C	1.544583	-0.075171	-0.000001
C23	C	1.540912	0.068824	-0.000006
N24	N	1.437634	-0.493692	-0.353628
C25	C	1.515302	-0.430355	0.421410
C26	C	1.515321	-0.430355	0.578573
H27	H	0.835541	-0.669869	-0.000002
Cl28	Cl	1.617716	-0.346291	0.331375
Cl29	Cl	1.017525	-0.261728	0.000014
H30	H	1.349660	-0.066260	-0.000009
Cl31	Cl	1.618041	-0.346640	0.668558
Cl32	Cl	1.334924	-0.577425	0.556396
H33	H	1.048115	-0.613209	0.000001
Cl34	Cl	0.804962	-0.318360	0.000009
Cl35	Cl	1.685660	-0.170180	-0.000009
Cl36	Cl	1.677785	0.138754	0.000003
Cl37	Cl	1.297314	0.070491	0.000003
H38	H	1.371085	-0.547910	0.411953
