data_functionalizedCrystal
_audit_creation_method	'MofGen! by Chris Wilmer'
_symmetry_space_group_name_H-M	'P1'
_symmetry_Int_Tables_number	1
_symmetry_cell_setting	triclinic
loop_
_symmetry_equiv_pos_as_xyz
  x,y,z
_cell_length_a	19.288864
_cell_length_b	16.992695
_cell_length_c	18.366186
_cell_angle_alpha	89.993794
_cell_angle_beta	89.977106
_cell_angle_gamma	86.902234
loop_
_atom_site_label
_atom_site_type_symbol
_atom_site_fract_x
_atom_site_fract_y
_atom_site_fract_z
O1	O	0.927052	0.097795	-0.060785
O2	O	0.725561	0.110988	-0.060736
O3	O	0.825499	-0.009748	-0.060755
O4	O	0.827114	0.218531	-0.060767
O5	O	0.825480	-0.009754	0.060345
O6	O	0.725542	0.110982	0.060363
O7	O	0.927034	0.097789	0.060314
Zn8	Zn	0.826285	0.104385	0.079566
Zn9	Zn	0.826309	0.104392	-0.079988
O10	O	0.827096	0.218525	0.060333
C11	C	0.699650	0.110560	-0.000180
C12	C	0.622472	0.109286	-0.000161
C13	C	0.581905	0.180128	-0.000176
C14	C	0.509388	0.178931	-0.000184
C15	C	0.477442	0.106888	-0.000191
C16	C	0.518018	0.036036	-0.000172
C17	C	0.590534	0.037235	-0.000157
C18	C	0.365885	0.050255	-0.042639
C19	C	0.293371	0.049059	-0.042659
C20	C	0.253780	0.103186	-0.000235
C21	C	0.286712	0.158522	0.042199
C22	C	0.359227	0.159722	0.042214
C23	C	0.398811	0.105579	-0.000207
C24	C	0.134581	0.172735	-0.000258
C25	C	0.062063	0.171535	-0.000261
C26	C	0.070695	0.028638	-0.000257
C27	C	0.143212	0.029840	-0.000246
C28	C	0.175150	0.101891	-0.000250
C29	C	0.823411	-0.038957	-0.000205
C30	C	0.817211	-0.125979	-0.000203
C31	C	0.877039	-0.176431	-0.000217
C32	C	0.871208	-0.258197	-0.000223
C33	C	0.805549	-0.289509	-0.000209
C34	C	0.745717	-0.239051	-0.000197
C35	C	0.751548	-0.157287	-0.000197
C36	C	0.781382	-0.533022	-0.000213
C37	C	0.775556	-0.614793	-0.000211
C38	C	0.901048	-0.633933	-0.000238
C39	C	0.906873	-0.552166	-0.000233
C40	C	0.847041	-0.501715	-0.000225
N41	N	0.799588	-0.373087	-0.000212
N42	N	0.853002	-0.418138	-0.000227
C43	C	0.952944	0.098217	-0.000244
C44	C	1.030122	0.099491	-0.000268
C45	C	0.829183	0.247733	-0.000219
C46	C	0.835384	0.334756	-0.000225
N47	N	0.826273	0.104379	0.188457
N48	N	0.826326	0.104392	-0.188879
C49	C	0.870543	0.050943	0.226549
C50	C	0.870547	0.050940	0.302777
C51	C	0.826289	0.104385	0.340910
C52	C	0.782011	0.157825	0.302808
C53	C	0.782003	0.157822	0.226582
C54	C	0.821154	0.175814	0.461668
C55	C	0.821167	0.175819	0.537893
C56	C	0.826310	0.104395	0.576017
C57	C	0.831454	0.032964	0.537908
C58	C	0.831446	0.032961	0.461681
C59	C	0.826293	0.104394	0.423564
C60	C	0.870586	0.050951	0.696764
C61	C	0.870585	0.050947	0.772994
C62	C	0.782053	0.157839	0.773024
C63	C	0.782050	0.157837	0.696796
C64	C	0.826320	0.104394	0.658671
H65	H	0.492003	-0.022623	-0.000188
H66	H	0.930505	-0.150943	-0.000224
H67	H	0.160587	0.231403	-0.000250
O68	O	0.629842	-0.031657	-0.000179
C69	C	0.586100	-0.095504	-0.000165
H70	H	0.533154	-0.075415	-0.023100
H71	H	0.610088	-0.145124	-0.035319
H72	H	0.579686	-0.117603	0.057932
H73	H	0.745974	0.201340	0.333860
O74	O	0.913319	-0.001110	0.189404
C75	C	0.903699	0.010213	0.113955
H76	H	0.881470	0.072711	0.103471
H77	H	0.955712	0.000953	0.084848
H78	H	0.866137	-0.033867	0.092535
O79	O	0.711810	-0.645306	-0.000298
C80	C	0.704695	-0.692012	-0.063022
H81	H	0.758306	-0.712562	-0.083941
H82	H	0.674043	-0.745463	-0.048909
H83	H	0.675983	-0.655778	-0.106937
H84	H	0.906633	0.007429	0.804009
O85	O	0.738979	0.209811	0.189689
C86	C	0.699899	0.256969	0.239687
H87	H	0.728422	0.257775	0.294011
H88	H	0.692776	0.319607	0.217659
H89	H	0.646901	0.231661	0.247821
H90	H	0.816982	0.233982	0.568916
H91	H	0.746004	0.201352	0.665779
H92	H	0.029034	0.229226	-0.000270
H93	H	0.835633	-0.025201	0.430655
O94	O	0.929274	-0.307288	-0.000140
C95	C	0.929652	-0.355156	0.062583
H96	H	0.874297	-0.359096	0.083505
H97	H	0.952107	-0.416703	0.048466
H98	H	0.962857	-0.328380	0.106496
O99	O	0.970708	-0.521882	-0.000276
C100	C	1.022266	-0.583946	-0.000268
H101	H	0.999723	-0.639421	-0.023197
H102	H	1.067843	-0.567009	-0.035430
H103	H	1.040923	-0.595596	0.057826
H104	H	0.607904	0.238798	-0.000180
O105	O	0.693501	-0.108164	-0.000213
C106	C	0.712726	-0.029282	-0.000200
H107	H	0.767451	-0.026340	-0.023138
H108	H	0.674877	0.007910	-0.035350
H109	H	0.711396	-0.005631	0.057898
H110	H	0.949760	-0.675018	-0.000246
O111	O	0.913615	-0.001003	0.339677
C112	C	0.952669	-0.048191	0.289681
H113	H	0.955236	-0.016056	0.235338
H114	H	1.007464	-0.060311	0.311683
H115	H	0.926889	-0.106364	0.281595
H116	H	0.386037	0.204776	0.076768
H117	H	0.732662	-0.491954	-0.000206
O118	O	0.836327	-0.036410	0.574959
C119	C	0.777040	-0.042565	0.619094
H120	H	0.732458	-0.003347	0.596144
H121	H	0.761584	-0.106370	0.619967
H122	H	0.789138	-0.022957	0.676859
H123	H	0.692255	-0.264552	-0.000191
H124	H	0.906632	0.007432	0.665722
O125	O	0.261350	-0.004586	-0.083967
C126	C	0.216986	0.035074	-0.134557
H127	H	0.235127	0.096990	-0.144060
H128	H	0.218237	0.001297	-0.188209
H129	H	0.161721	0.039006	-0.112311
O130	O	0.739024	0.209649	0.810136
C131	C	0.693845	0.167787	0.854242
H132	H	0.718103	0.106364	0.865658
H133	H	0.684676	0.200542	0.907845
H134	H	0.642225	0.162606	0.824890
H135	H	0.476351	0.236621	-0.000194
O136	O	0.816192	0.245273	0.424750
C137	C	0.811648	0.308317	0.474729
H138	H	0.834942	0.288062	0.529059
H139	H	0.841474	0.359318	0.452685
H140	H	0.754856	0.328549	0.482858
H141	H	0.044686	-0.030021	-0.000308
H142	H	0.398115	0.006177	-0.077190
O143	O	0.248366	0.211182	0.083433
C144	C	0.292981	0.260263	0.120903
H145	H	0.344693	0.261026	0.090907
H146	H	0.268237	0.322653	0.123642
H147	H	0.302090	0.236799	0.178457
O148	O	0.182520	-0.039049	-0.000272
C149	C	0.138777	-0.102896	-0.000261
H150	H	0.085833	-0.082805	-0.023199
H151	H	0.162767	-0.152516	-0.035414
H152	H	0.132359	-0.124995	0.057836
