data_functionalizedCrystal
_audit_creation_method	'MofGen! by Chris Wilmer'
_symmetry_space_group_name_H-M	'P1'
_symmetry_Int_Tables_number	1
_symmetry_cell_setting	triclinic
loop_
_symmetry_equiv_pos_as_xyz
  x,y,z
_cell_length_a	19.288859
_cell_length_b	16.974813
_cell_length_c	17.766277
_cell_angle_alpha	86.339073
_cell_angle_beta	89.989768
_cell_angle_gamma	83.264704
loop_
_atom_site_label
_atom_site_type_symbol
_atom_site_fract_x
_atom_site_fract_y
_atom_site_fract_z
O1	O	0.921533	0.098615	-0.068615
O2	O	0.719296	0.111926	-0.069424
O3	O	0.826052	-0.009853	-0.062003
O4	O	0.814777	0.220395	-0.076035
O5	O	0.826033	-0.009859	0.063186
O6	O	0.719277	0.111920	0.055765
O7	O	0.921514	0.098609	0.056574
Cu8	Cu	0.820394	0.105264	0.067600
Cu9	Cu	0.820416	0.105271	-0.080450
O10	O	0.814759	0.220388	0.049154
C11	C	0.693409	0.111496	-0.006803
C12	C	0.616303	0.110212	-0.006724
C13	C	0.052375	0.172986	-0.010551
C14	C	0.124824	0.174199	-0.010629
C15	C	0.169402	0.102744	-0.006273
C16	C	0.141526	0.030071	-0.001858
C17	C	0.069079	0.028861	-0.001787
C18	C	0.290570	0.049451	0.040837
C19	C	0.363016	0.050665	0.040771
C20	C	0.392855	0.106475	-0.006492
C21	C	0.350237	0.161085	-0.053681
C22	C	0.277790	0.159874	-0.053611
C23	C	0.247960	0.104049	-0.006349
C24	C	0.499279	0.180458	-0.010997
C25	C	0.571730	0.181668	-0.011079
C26	C	0.588431	0.037538	-0.002300
C27	C	0.515982	0.036331	-0.002226
C28	C	0.471410	0.107793	-0.006570
C29	C	0.825613	-0.039313	0.002385
C30	C	0.824326	-0.127086	0.007729
C31	C	0.823734	-0.168313	-0.058000
C32	C	0.822520	-0.250784	-0.052976
C33	C	0.821904	-0.292026	0.017778
C34	C	0.822495	-0.250792	0.083512
C35	C	0.823703	-0.168322	0.078487
C36	C	0.818283	-0.538675	0.040124
C37	C	0.817077	-0.621151	0.045143
C38	C	0.817101	-0.621137	-0.091345
C39	C	0.818313	-0.538666	-0.096364
C40	C	0.818900	-0.497439	-0.030630
N41	N	0.820666	-0.376325	0.022915
N42	N	0.820134	-0.413141	-0.035767
C43	C	0.947401	0.099039	-0.006048
C44	C	1.024507	0.100323	-0.006132
C45	C	0.815197	0.249848	-0.015236
C46	C	0.816484	0.337621	-0.020586
N47	N	0.820384	0.105258	0.171731
N48	N	0.820432	0.105271	-0.184580
C49	C	0.867670	0.051361	0.214402
C50	C	0.867674	0.051357	0.293204
C51	C	0.820398	0.105265	0.329331
C52	C	0.773103	0.159166	0.286650
C53	C	0.773095	0.159163	0.207850
C54	C	0.811229	0.177310	0.449779
C55	C	0.811241	0.177314	0.528577
C56	C	0.820417	0.105274	0.572377
C57	C	0.829595	0.033227	0.537369
C58	C	0.829588	0.033224	0.458569
C59	C	0.820401	0.105274	0.414776
C60	C	0.867711	0.051368	0.700495
C61	C	0.867710	0.051363	0.779298
C62	C	0.773141	0.159179	0.772742
C63	C	0.773139	0.159177	0.693941
C64	C	0.820427	0.105272	0.657821
H65	H	0.016089	0.231176	-0.014092
H66	H	0.906174	0.007466	0.184996
H67	H	0.837059	-0.025439	0.430068
H68	H	0.734636	0.203069	0.659195
N69	N	0.839496	-0.044480	0.584597
H70	H	0.838105	-0.033550	0.639829
H71	H	0.800914	-0.077298	0.572835
H72	H	0.624726	-0.020641	0.001241
N73	N	0.722114	0.217308	0.325616
H74	H	0.730052	0.273405	0.308474
H75	H	0.672850	0.208272	0.312455
H76	H	0.906214	0.007473	0.671085
N77	N	0.819051	-0.494199	-0.172677
H78	H	0.819935	-0.435703	-0.165886
H79	H	0.861909	-0.515217	-0.201135
N80	N	0.918718	-0.006765	0.825329
H81	H	0.949432	0.023376	0.856174
H82	H	0.892169	-0.041687	0.860120
N83	N	0.601791	0.260044	-0.015859
H84	H	0.562559	0.305128	-0.018602
H85	H	0.631483	0.263682	0.030325
H86	H	0.266282	0.004000	0.079327
H87	H	0.734645	0.203069	0.802156
H88	H	0.816621	-0.654713	-0.144862
N89	N	0.451202	0.257531	-0.015699
H90	H	0.401077	0.245739	-0.014980
H91	H	0.460211	0.289210	0.028778
N92	N	0.722089	0.217295	0.161821
H93	H	0.692136	0.251444	0.196661
H94	H	0.748639	0.252175	0.126989
N95	N	0.801338	0.255016	0.566333
H96	H	0.795513	0.300652	0.526631
H97	H	0.758352	0.256786	0.598931
H98	H	0.824239	-0.134740	-0.115615
N99	N	0.816415	-0.665638	0.121460
H100	H	0.816969	-0.627007	0.162340
H101	H	0.772877	-0.693296	0.126113
H102	H	0.818775	-0.505120	0.093649
H103	H	0.822040	-0.284349	-0.106499
H104	H	0.374530	0.206532	-0.092166
N105	N	0.801333	0.255014	0.402540
H106	H	0.795528	0.300654	0.436673
H107	H	0.843522	0.259502	0.369561
N108	N	0.485919	-0.042042	0.002546
H109	H	0.525150	-0.087126	0.005295
H110	H	0.456215	-0.045686	0.049177
N111	N	0.231828	0.218761	-0.104514
H112	H	0.205145	0.189216	-0.140218
H113	H	0.197866	0.252202	-0.072908
N114	N	0.039023	-0.049519	0.002988
H115	H	0.009331	-0.053236	0.049623
H116	H	0.009378	-0.053185	-0.043225
N117	N	0.408977	-0.008239	0.091660
H118	H	0.459399	0.000998	0.084447
H119	H	0.395446	-0.001072	0.145931
N120	N	0.154894	0.252574	-0.015396
H121	H	0.115664	0.297660	-0.018139
H122	H	0.184579	0.256203	0.030795
H123	H	0.177827	-0.028108	0.001687
H124	H	0.821989	-0.284378	0.141122
H125	H	0.824176	-0.134754	0.132011
N126	N	0.918676	-0.006779	0.339241
H127	H	0.948630	-0.040929	0.304403
H128	H	0.949350	0.023410	0.370083
