data_functionalizedCrystal
_audit_creation_method	'MofGen! by Chris Wilmer'
_symmetry_space_group_name_H-M	'P1'
_symmetry_Int_Tables_number	1
_symmetry_cell_setting	triclinic
loop_
_symmetry_equiv_pos_as_xyz
  x,y,z
_cell_length_a	17.038272
_cell_length_b	17.038272
_cell_length_c	16.176319
_cell_angle_alpha	89.993159
_cell_angle_beta	89.998402
_cell_angle_gamma	91.111556
loop_
_atom_site_label
_atom_site_type_symbol
_atom_site_fract_x
_atom_site_fract_y
_atom_site_fract_z
O1	O	1.048758	0.170539	-0.068644
O2	O	0.820946	0.167831	-0.068668
O3	O	0.933498	0.055279	-0.068650
O4	O	0.936206	0.283091	-0.068662
O5	O	0.933481	0.055270	0.068844
O6	O	0.820929	0.167822	0.068825
O7	O	1.048741	0.170530	0.068849
Cu8	Cu	0.934833	0.169175	0.081391
Cu9	Cu	0.934854	0.169186	-0.081210
O10	O	0.936189	0.283082	0.068831
C11	C	0.791645	0.165364	0.000075
C12	C	0.704361	0.158016	0.000066
C13	C	0.931027	0.025982	0.000097
C14	C	0.923679	-0.061301	0.000096
C15	C	0.658752	0.225479	0.000063
C16	C	0.576740	0.218570	0.000075
C17	C	0.540339	0.144197	0.000084
C18	C	0.585954	0.076728	0.000090
C19	C	0.667965	0.083638	0.000084
C20	C	0.292951	0.119787	0.000107
C21	C	0.210935	0.112882	0.000111
C22	C	0.201726	0.254725	0.000098
C23	C	0.283739	0.261628	0.000087
C24	C	0.329347	0.194159	0.000097
C25	C	0.456510	0.137133	0.000093
C26	C	0.413174	0.201224	0.000093
C27	C	0.991142	-0.106911	0.000104
C28	C	0.984233	-0.188923	0.000095
C29	C	0.909860	-0.225324	0.000084
C30	C	0.842391	-0.179708	0.000074
C31	C	0.849301	-0.097698	0.000077
C32	C	0.885449	-0.472712	0.000070
C33	C	0.878545	-0.554728	0.000070
C34	C	1.020387	-0.563937	0.000090
C35	C	1.027291	-0.481924	0.000098
C36	C	0.959822	-0.436316	0.000083
C37	C	0.902796	-0.309153	0.000078
C38	C	0.966886	-0.352488	0.000083
C39	C	1.078042	0.172997	0.000104
C40	C	1.165326	0.180346	0.000108
C41	C	0.938660	0.312379	0.000083
C42	C	0.946008	0.399663	0.000078
N43	N	0.934825	0.169168	0.195757
N44	N	0.934868	0.169187	-0.195575
C45	C	0.984680	0.119353	0.239029
C46	C	0.984684	0.119352	0.325576
C47	C	0.934836	0.169171	0.368849
C48	C	0.884975	0.218989	0.325571
C49	C	0.884968	0.218985	0.239025
C50	C	0.885003	0.219005	0.674599
C51	C	0.885016	0.219007	0.761151
C52	C	0.984719	0.119373	0.761150
C53	C	0.984712	0.119369	0.674604
C54	C	0.934849	0.169183	0.631333
C55	C	0.934844	0.169182	0.537489
C56	C	0.934844	0.169177	0.462692
H57	H	0.688384	0.286042	0.000055
H58	H	0.426863	0.076578	0.000124
C59	C	1.039558	0.064585	0.627004
H60	H	1.032422	0.071727	0.569263
H61	H	1.027563	0.011595	0.641189
H62	H	1.092537	0.076651	0.641187
H63	H	0.844369	0.259548	0.203794
H64	H	0.830511	-0.435587	0.000059
H65	H	1.087853	-0.452293	0.000106
H66	H	0.164583	0.309653	0.000091
H67	H	1.025319	0.078809	0.796390
H68	H	1.025280	0.078789	0.360808
C69	C	0.545919	-0.005082	0.000099
H70	H	0.584830	-0.044272	0.000107
H71	H	0.514118	-0.010724	-0.047846
H72	H	0.514120	-0.010728	0.048053
C73	C	0.170891	0.031070	0.000127
H74	H	0.115517	0.036620	0.000120
H75	H	0.186221	0.003062	0.048078
H76	H	0.186222	0.003061	-0.047822
C77	C	0.343110	0.045574	0.000113
H78	H	0.309682	0.000292	0.000110
H79	H	0.375294	0.045315	0.048058
H80	H	0.375292	0.045321	-0.047841
C81	C	0.775091	-0.047528	0.000070
H82	H	0.729807	-0.080951	0.000070
H83	H	0.774845	-0.015338	-0.047877
H84	H	0.774832	-0.015351	0.048023
H85	H	1.025276	0.078788	0.203802
C86	C	0.760581	-0.219744	0.000056
H87	H	0.721391	-0.180832	0.000042
H88	H	0.754925	-0.251552	0.048000
H89	H	0.754948	-0.251536	-0.047900
H90	H	0.842241	-0.338800	0.000071
H91	H	1.075316	-0.601079	0.000101
C92	C	0.830163	0.273805	0.627012
H93	H	0.800485	0.303481	0.665181
H94	H	0.795589	0.243363	0.593260
H95	H	0.860587	0.308394	0.593242
C96	C	0.526573	0.292781	0.000069
H97	H	0.559998	0.338064	0.000052
H98	H	0.494392	0.293036	0.048018
H99	H	0.494388	0.293033	-0.047881
H100	H	1.051705	-0.077279	0.000117
H101	H	1.027441	-0.322847	0.000073
C102	C	0.323774	0.343438	0.000089
H103	H	0.284864	0.382629	0.000098
H104	H	0.355577	0.349089	-0.047858
H105	H	0.355573	0.349073	0.048042
C106	C	0.796731	-0.594768	0.000044
H107	H	0.757538	-0.555860	0.000026
H108	H	0.791073	-0.626577	0.047988
H109	H	0.791107	-0.626561	-0.047912
C110	C	0.830165	0.273795	0.808750
H111	H	0.800458	0.303454	0.770585
H112	H	0.860579	0.308389	0.842507
H113	H	0.795606	0.243332	0.842515
C114	C	0.830145	0.273790	0.373169
H115	H	0.837295	0.266665	0.430910
H116	H	0.777164	0.261746	0.358996
H117	H	0.842162	0.326777	0.358972
H118	H	0.705099	0.028702	0.000086
H119	H	0.442816	0.261778	0.000091
C120	C	1.058444	-0.239089	0.000112
H121	H	1.103727	-0.205665	0.000131
H122	H	1.058711	-0.271268	-0.047834
H123	H	1.058684	-0.271278	0.048066
