data_functionalizedCrystal
_audit_creation_method	'MofGen! by Chris Wilmer'
_symmetry_space_group_name_H-M	'P1'
_symmetry_Int_Tables_number	1
_symmetry_cell_setting	triclinic
loop_
_symmetry_equiv_pos_as_xyz
  x,y,z
_cell_length_a	12.759401
_cell_length_b	10.685194
_cell_length_c	12.759393
_cell_angle_alpha	85.596579
_cell_angle_beta	89.981433
_cell_angle_gamma	94.376282
loop_
_atom_site_label
_atom_site_type_symbol
_atom_site_fract_x
_atom_site_fract_y
_atom_site_fract_z
Zn1	Zn	1.574243	-0.502371	-0.561902
Zn2	Zn	1.560687	-0.713441	-0.372744
Zn3	Zn	1.398541	-0.502433	-0.386238
Zn4	Zn	1.385090	-0.713340	-0.548391
O5	O	1.479640	-0.607896	-0.467319
O6	O	1.719465	-0.530386	-0.536817
O7	O	1.539134	-0.685518	-0.227508
O8	O	1.433151	-0.325826	-0.420841
O9	O	1.709505	-0.685458	-0.397843
O10	O	1.562238	-0.325780	-0.549902
O11	O	1.420006	-0.530492	-0.237422
O12	O	1.249737	-0.530394	-0.407740
O13	O	1.410225	-0.685286	-0.697209
O14	O	1.239854	-0.685346	-0.526874
O15	O	1.549195	-0.530288	-0.707136
O16	O	1.526092	-0.890026	-0.384742
O17	O	1.397081	-0.889952	-0.513790
C18	C	1.206675	-0.607866	-0.467306
C19	C	1.089897	-0.607884	-0.467324
C20	C	1.040204	-0.527290	-0.539782
C21	C	0.930479	-0.527314	-0.539787
C22	C	0.920148	-0.688537	-0.394872
C23	C	1.029872	-0.688505	-0.394863
C24	C	1.046167	-0.434214	-0.623450
C25	C	0.936442	-0.434238	-0.623455
C26	C	1.458684	-0.935779	-0.446358
C27	C	1.449815	-1.076049	-0.437427
C28	C	1.753672	-0.607927	-0.467332
C29	C	1.870447	-0.607940	-0.467338
C30	C	1.479722	-0.607769	-0.741360
C31	C	1.479757	-0.607714	-0.858141
C32	C	1.500707	-0.278733	-0.488384
C33	C	1.509684	-0.138463	-0.497361
C34	C	1.552128	-0.526999	-0.918173
C35	C	1.552156	-0.526954	-1.027900
C36	C	1.407438	-0.688349	-1.017551
C37	C	1.407406	-0.688387	-0.907827
C38	C	1.635683	-0.433823	-0.924149
C39	C	1.635711	-0.433777	-1.033876
C40	C	1.479625	-0.607932	-0.194349
C41	C	1.479817	-0.607630	-0.077592
H42	H	1.567727	-1.084589	-0.555511
N43	N	1.083479	-0.775424	-0.316713
H44	H	1.132255	-0.724048	-0.271381
H45	H	1.028741	-0.826488	-0.270884
H46	H	1.620142	-0.336089	-0.900634
N47	N	1.372916	-1.147405	-0.360400
H48	H	1.377260	-1.240856	-0.364719
H49	H	1.390747	-1.124482	-0.286824
H50	H	0.905021	-0.460538	-0.703112
H51	H	1.348471	-0.754109	-0.858952
N52	N	1.093853	-0.304700	-0.603029
H53	H	1.137461	-0.310201	-0.537020
H54	H	1.140006	-0.270272	-0.664521
N55	N	1.329392	-0.775340	-1.071143
H56	H	1.340387	-0.763062	-1.149763
H57	H	1.339954	-0.865486	-1.046199
H58	H	1.710722	-0.468861	-0.887876
H59	H	1.612515	-0.340914	-1.073854
N60	N	1.741279	-0.468451	-1.071120
H61	H	1.788366	-0.483967	-1.008596
H62	H	1.731485	-0.547256	-1.110079
H63	H	0.871262	-0.754176	-0.335877
H64	H	0.908319	-0.341353	-0.600387
N65	N	1.088340	-0.480727	-0.722783
H66	H	1.028013	-0.503221	-0.770786
H67	H	1.137284	-0.412426	-0.759516
