data_functionalizedCrystal
_audit_creation_method	'MofGen! by Chris Wilmer'
_symmetry_space_group_name_H-M	'P1'
_symmetry_Int_Tables_number	1
_symmetry_cell_setting	triclinic
loop_
_symmetry_equiv_pos_as_xyz
  x,y,z
_cell_length_a	12.645330
_cell_length_b	12.645331
_cell_length_c	21.395355
_cell_angle_alpha	89.971558
_cell_angle_beta	90.012330
_cell_angle_gamma	89.988054
loop_
_atom_site_label
_atom_site_type_symbol
_atom_site_fract_x
_atom_site_fract_y
_atom_site_fract_z
Zn1	Zn	-0.422325	-1.620753	0.354353
Zn2	Zn	-0.599574	-1.620628	0.249587
Zn3	Zn	-0.422307	-1.443461	0.249583
Zn4	Zn	-0.599529	-1.443449	0.354320
O5	O	-0.510934	-1.532073	0.301961
O6	O	-0.445863	-1.769084	0.340472
O7	O	-0.576070	-1.597079	0.161909
O8	O	-0.273962	-1.467036	0.263493
O9	O	-0.576088	-1.768992	0.263500
O10	O	-0.273975	-1.597292	0.340467
O11	O	-0.445833	-1.466915	0.161906
O12	O	-0.445790	-1.295112	0.263461
O13	O	-0.576011	-1.467016	0.442003
O14	O	-0.575994	-1.295103	0.340411
O15	O	-0.445820	-1.597280	0.442027
O16	O	-0.747915	-1.597068	0.263468
O17	O	-0.747882	-1.466895	0.340415
C18	C	-0.510886	-1.256643	0.301932
C19	C	-0.510891	-1.138813	0.301935
C20	C	-0.786363	-1.531995	0.301952
C21	C	-0.904193	-1.532059	0.301969
C22	C	-0.428589	-0.971219	0.253786
C23	C	-0.428812	-1.093779	0.253579
C24	C	-0.622554	-1.094292	0.283898
C25	C	-0.622095	-0.971693	0.283565
C26	C	-0.482560	-0.971668	0.368292
C27	C	-0.480076	-1.094273	0.367928
C28	C	-1.071781	-1.450505	0.350526
C29	C	-0.949221	-1.450088	0.350370
C30	C	-0.948760	-1.501810	0.235937
C31	C	-1.071358	-1.501312	0.236232
C32	C	-1.071300	-1.644361	0.318910
C33	C	-0.948694	-1.643673	0.320353
C34	C	-0.234428	-1.532179	0.301983
C35	C	-0.116598	-1.532225	0.301993
C36	C	-0.510912	-1.532161	0.465384
C37	C	-0.510903	-1.532198	0.535026
C38	C	-0.510962	-0.808578	0.301980
C39	C	-0.510921	-0.926408	0.301964
C40	C	-0.510878	-1.532046	0.139173
C41	C	-0.510589	-1.532214	0.069532
C42	C	-0.443110	-1.600024	0.567752
C43	C	-0.443064	-1.600023	0.633188
C44	C	-0.510831	-1.532207	0.665894
C45	C	-0.578629	-1.464368	0.633159
C46	C	-0.578665	-1.464364	0.567725
C47	C	-0.606282	-1.523809	0.769565
C48	C	-0.606248	-1.523821	0.834998
C49	C	-0.510719	-1.532213	0.867715
C50	C	-0.415221	-1.540616	0.834990
C51	C	-0.415257	-1.540612	0.769556
C52	C	-0.510799	-1.532203	0.736846
C53	C	-0.442870	-1.600041	0.971394
C54	C	-0.442823	-1.600032	1.036831
C55	C	-0.578397	-1.464383	1.036801
C56	C	-0.578435	-1.464386	0.971366
C57	C	-0.510673	-1.532221	0.938666
H58	H	-0.346008	-1.123880	0.264884
H59	H	-1.101213	-1.469258	0.399649
N60	N	-0.549877	-1.132706	0.415353
N61	N	-0.557506	-1.229868	0.425130
H62	H	-0.606835	-1.256998	0.458614
H63	H	-0.684008	-1.516985	0.861638
N64	N	-0.557798	-0.935355	0.413329
N65	N	-0.653558	-0.957403	0.407006
H66	H	-0.706700	-0.931761	0.438810
H67	H	-0.633802	-1.409148	0.659793
H68	H	-0.918038	-1.707765	0.287579
H69	H	-1.100036	-1.419339	0.221902
N70	N	-0.373817	-1.669297	0.666639
N71	N	-0.306242	-1.632031	0.703141
H72	H	-0.257337	-1.680955	0.726766
H73	H	-0.387611	-1.655262	1.063476
H74	H	-0.402553	-0.940772	0.384693
N75	N	-0.701566	-1.130908	0.326537
N76	N	-0.718089	-1.227831	0.332569
H77	H	-0.773889	-1.253696	0.362684
N78	N	-1.108573	-1.572701	0.189308
N79	N	-1.165248	-1.539331	0.145673
H80	H	-1.191533	-1.589740	0.112529
N81	N	-0.452345	-1.130532	0.191929
N82	N	-0.456598	-1.227553	0.181061
H83	H	-0.473222	-1.253511	0.137519
N84	N	-0.647921	-1.395068	0.534302
N85	N	-0.708417	-1.334513	0.563507
H86	H	-0.757331	-1.285572	0.539902
H87	H	-0.345531	-0.941756	0.264968
N88	N	-0.911427	-1.473833	0.411794
N89	N	-0.975595	-1.490828	0.455079
H90	H	-0.948909	-1.507595	0.498463
N91	N	-1.110540	-1.346873	0.336644
N92	N	-1.171026	-1.332939	0.291163
H93	H	-1.198403	-1.259749	0.281357
N94	N	-0.912172	-1.574117	0.189338
N95	N	-0.852698	-1.648928	0.204311
H96	H	-0.826856	-1.699998	0.171401
N97	N	-0.910335	-1.400049	0.217639
N98	N	-0.850142	-1.349629	0.253116
H99	H	-0.823004	-1.277758	0.240196
H100	H	-0.633646	-1.409161	0.944719
H101	H	-0.646149	-0.943045	0.235076
H102	H	-0.919974	-1.366955	0.339162
N103	N	-0.703879	-1.515225	0.736159
N104	N	-0.789133	-1.507732	0.765382
H105	H	-0.858059	-1.501666	0.741790
H106	H	-0.685514	-0.942051	0.317126
N107	N	-0.451835	-0.932498	0.192493
N108	N	-0.528775	-0.872043	0.184139
H109	H	-0.545197	-0.844693	0.140851
H110	H	-0.647027	-1.124944	0.235932
N111	N	-1.110030	-1.678970	0.378286
N112	N	-1.171497	-1.621400	0.408859
H113	H	-1.198853	-1.645832	0.450795
N114	N	-1.107636	-1.720742	0.274563
N115	N	-1.085638	-1.710247	0.217944
H116	H	-1.111302	-1.764184	0.186622
N117	N	-0.376988	-1.130783	0.384983
N118	N	-0.326343	-1.189391	0.348705
H119	H	-0.253537	-1.215182	0.360748
N120	N	-0.912146	-1.672282	0.381318
N121	N	-0.853540	-1.610757	0.411150
H122	H	-0.827724	-1.630958	0.454207
N123	N	-0.317641	-1.549188	0.868410
N124	N	-0.317616	-1.549180	0.926833
H125	H	-0.248703	-1.555234	0.950438
N126	N	-0.373890	-1.669322	0.534362
N127	N	-0.313365	-1.729878	0.563595
H128	H	-0.264478	-1.778821	0.540012
H129	H	-0.337500	-1.547451	0.742915
H130	H	-0.387688	-1.655270	0.944769
H131	H	-0.633563	-1.409155	1.063430
