data_functionalizedCrystal
_audit_creation_method	'MofGen! by Chris Wilmer'
_symmetry_space_group_name_H-M	'P1'
_symmetry_Int_Tables_number	1
_symmetry_cell_setting	triclinic
loop_
_symmetry_equiv_pos_as_xyz
  x,y,z
_cell_length_a	14.971486
_cell_length_b	19.288865
_cell_length_c	14.048226
_cell_angle_alpha	89.988335
_cell_angle_beta	89.998499
_cell_angle_gamma	83.375189
loop_
_atom_site_label
_atom_site_type_symbol
_atom_site_fract_x
_atom_site_fract_y
_atom_site_fract_z
O1	O	1.186458	0.090517	-0.079062
O2	O	0.925999	0.101357	-0.079090
O3	O	1.063754	-0.005169	-0.079056
O4	O	1.048702	0.197043	-0.079096
O5	O	1.063738	-0.005175	0.079265
O6	O	0.925982	0.101351	0.079232
O7	O	1.186441	0.090511	0.079259
Zn8	Zn	1.056209	0.095930	0.104382
Zn9	Zn	1.056231	0.095938	-0.104213
O10	O	1.048686	0.197037	0.079226
C11	C	0.892669	0.100869	0.000068
C12	C	0.793379	0.099416	0.000058
C13	C	0.735816	0.161997	0.000047
C14	C	0.642524	0.160628	0.000062
C15	C	0.606797	0.096677	0.000080
C16	C	0.664368	0.034092	0.000094
C17	C	0.757658	0.035461	0.000086
C18	C	0.469921	0.031241	0.000108
C19	C	0.376624	0.029871	0.000113
C20	C	0.354786	0.156407	0.000083
C21	C	0.448077	0.157777	0.000075
C22	C	0.505641	0.095191	0.000087
C23	C	1.063262	-0.031050	0.000107
C24	C	1.061808	-0.108158	0.000115
C25	C	1.142636	-0.152591	0.000128
C26	C	1.141271	-0.225043	0.000113
C27	C	1.059071	-0.253058	0.000104
C28	C	0.978232	-0.208615	0.000085
C29	C	0.979600	-0.136166	0.000091
C30	C	0.994448	-0.361558	0.055554
C31	C	0.993083	-0.434007	0.055554
C32	C	1.054848	-0.476517	0.000082
C33	C	1.117994	-0.446571	-0.055378
C34	C	1.119362	-0.374121	-0.055372
C35	C	1.057579	-0.331617	0.000097
C36	C	1.134201	-0.599511	0.000077
C37	C	1.132832	-0.671963	0.000056
C38	C	0.969791	-0.655535	0.000038
C39	C	0.971163	-0.583084	0.000050
C40	C	1.053370	-0.555077	0.000074
C41	C	1.219771	0.090999	0.000099
C42	C	1.319061	0.092452	0.000103
C43	C	1.049178	0.222918	0.000060
C44	C	1.050632	0.300026	0.000046
N45	N	1.056201	0.095924	0.246743
N46	N	1.056246	0.095939	-0.246574
C47	C	1.117218	0.048774	0.296576
C48	C	1.117224	0.048773	0.396233
C49	C	1.056217	0.095927	0.446056
C50	C	0.995193	0.143079	0.396217
C51	C	0.995183	0.143076	0.296561
C52	C	0.995219	0.143084	0.603931
C53	C	0.995229	0.143089	0.703593
C54	C	1.117259	0.048782	0.703603
C55	C	1.117250	0.048778	0.603947
C56	C	1.056227	0.095932	0.554115
H57	H	0.764896	0.214073	0.000032
O58	O	1.183004	-0.002102	0.242846
H59	H	1.172748	0.005814	0.165177
H60	H	0.913778	-0.099988	0.000081
O61	O	0.292700	0.223911	0.000079
H62	H	0.333216	0.268609	0.000054
O63	O	0.486608	0.226754	0.000067
H64	H	0.463459	0.256838	-0.064460
O65	O	0.889573	-0.238827	0.000075
H66	H	0.850737	-0.220987	0.064596
H67	H	1.198655	-0.708141	0.000062
H68	H	1.166908	0.010380	0.436807
O69	O	1.183074	-0.002084	0.757342
H70	H	1.172825	0.005832	0.835010
H71	H	1.207093	-0.261227	0.000120
H72	H	1.166931	0.010386	0.563382
O73	O	0.929363	0.193919	0.242800
H74	H	0.966860	0.227722	0.197363
H75	H	1.170775	-0.349742	-0.100531
H76	H	1.168289	-0.481182	-0.100548
H77	H	0.945550	0.181485	0.744154
O78	O	0.580434	0.228125	0.000051
H79	H	0.620949	0.272824	0.000025
O80	O	1.222861	-0.569294	0.000084
H81	H	1.278840	-0.612366	0.000073
H82	H	0.347539	-0.022204	0.000130
O83	O	0.929408	0.193944	0.550176
H84	H	0.886994	0.226740	0.601562
O85	O	0.929399	0.193945	0.449951
H86	H	0.859707	0.185005	0.430849
O87	O	0.532014	-0.036261	0.000116
H88	H	0.491500	-0.080960	0.000119
O89	O	1.231303	-0.122387	0.000147
H90	H	1.218678	-0.064542	0.000156
H91	H	0.635272	-0.017978	0.000123
H92	H	0.804527	-0.015498	0.000094
H93	H	0.902863	-0.678344	0.000026
O94	O	0.883984	-0.535152	0.000059
H95	H	0.826594	-0.566803	0.000062
O96	O	0.927829	-0.315709	0.115392
H97	H	0.883704	-0.348703	0.153967
O98	O	0.924983	-0.466306	0.115369
H99	H	0.882252	-0.424575	0.153929
