data_functionalizedCrystal
_audit_creation_method	'MofGen! by Chris Wilmer'
_symmetry_space_group_name_H-M	'P1'
_symmetry_Int_Tables_number	1
_symmetry_cell_setting	triclinic
loop_
_symmetry_equiv_pos_as_xyz
  x,y,z
_cell_length_a	18.050589
_cell_length_b	18.101398
_cell_length_c	18.101389
_cell_angle_alpha	90.006642
_cell_angle_beta	89.982037
_cell_angle_gamma	89.976974
loop_
_atom_site_label
_atom_site_type_symbol
_atom_site_fract_x
_atom_site_fract_y
_atom_site_fract_z
Zn1	Zn	-0.295811	-1.132121	-0.418550
Zn2	Zn	-0.045811	-0.882121	-0.168550
Zn3	Zn	0.204189	-0.632121	0.081450
Zn4	Zn	0.454189	-0.382121	0.331450
Zn5	Zn	-0.419994	-1.132028	-0.294719
Zn6	Zn	-0.169994	-0.882028	-0.044719
Zn7	Zn	0.080006	-0.632028	0.205281
Zn8	Zn	0.330006	-0.382028	0.455281
Zn9	Zn	-0.295811	-1.008285	-0.294746
Zn10	Zn	-0.045811	-0.758285	-0.044746
Zn11	Zn	0.204189	-0.508285	0.205254
Zn12	Zn	0.454189	-0.258285	0.455254
Zn13	Zn	-0.419953	-1.008237	-0.418541
Zn14	Zn	-0.169953	-0.758237	-0.168541
Zn15	Zn	0.080047	-0.508237	0.081459
Zn16	Zn	0.330047	-0.258237	0.331459
O17	O	-0.357892	-1.070168	-0.356639
O18	O	-0.107892	-0.820168	-0.106639
O19	O	0.142108	-0.570168	0.143361
O20	O	0.392108	-0.320168	0.393361
O21	O	-0.312302	-1.235742	-0.402117
O22	O	-0.062302	-0.985742	-0.152117
O23	O	0.187698	-0.735742	0.097883
O24	O	0.437698	-0.485742	0.347883
O25	O	-0.403538	-1.115594	-0.191089
O26	O	-0.153538	-0.865594	0.058911
O27	O	0.096462	-0.615594	0.308911
O28	O	0.346462	-0.365594	0.558911
O29	O	-0.191887	-1.024771	-0.311184
O30	O	0.058113	-0.774771	-0.061184
O31	O	0.308113	-0.524771	0.188816
O32	O	0.558113	-0.274771	0.438816
O33	O	-0.403538	-1.235673	-0.311138
O34	O	-0.153538	-0.985673	-0.061138
O35	O	0.096462	-0.735673	0.188862
O36	O	0.346462	-0.485673	0.438862
O37	O	-0.191887	-1.115753	-0.402143
O38	O	0.058113	-0.865753	-0.152143
O39	O	0.308113	-0.615753	0.097857
O40	O	0.558113	-0.365753	0.347857
O41	O	-0.312302	-1.024680	-0.191109
O42	O	-0.062302	-0.774680	0.058891
O43	O	0.187698	-0.524680	0.308891
O44	O	0.437698	-0.274680	0.558891
O45	O	-0.312262	-0.904646	-0.311175
O46	O	-0.062262	-0.654646	-0.061175
O47	O	0.187738	-0.404646	0.188825
O48	O	0.437738	-0.154646	0.438825
O49	O	-0.403468	-1.024690	-0.522175
O50	O	-0.153468	-0.774690	-0.272175
O51	O	0.096532	-0.524690	-0.022175
O52	O	0.346532	-0.274690	0.227825
O53	O	-0.403468	-0.904611	-0.402127
O54	O	-0.153468	-0.654611	-0.152127
O55	O	0.096532	-0.404611	0.097873
O56	O	0.346532	-0.154611	0.347873
O57	O	-0.312262	-1.115707	-0.522182
O58	O	-0.062262	-0.865707	-0.272182
O59	O	0.187738	-0.615707	-0.022182
O60	O	0.437738	-0.365707	0.227818
O61	O	-0.523913	-1.115548	-0.311129
O62	O	-0.273913	-0.865548	-0.061129
O63	O	-0.023913	-0.615548	0.188871
O64	O	0.226087	-0.365548	0.438871
O65	O	-0.523883	-1.024599	-0.402100
O66	O	-0.273883	-0.774599	-0.152100
O67	O	-0.023883	-0.524599	0.097900
O68	O	0.226117	-0.274599	0.347900
C69	C	-0.357861	-0.877757	-0.356653
C70	C	-0.107861	-0.627757	-0.106653
C71	C	0.142139	-0.377757	0.143347
C72	C	0.392139	-0.127757	0.393347
C73	C	-0.357865	-0.795443	-0.356677
C74	C	-0.107865	-0.545443	-0.106677
C75	C	0.142135	-0.295443	0.143323
C76	C	0.392135	-0.045443	0.393323
C77	C	-0.357905	-0.496352	-0.356652
C78	C	-0.107905	-0.246352	-0.106652
C79	C	0.142095	0.003648	0.143348
C80	C	0.392095	0.253648	0.393348
C81	C	-0.415567	-0.527680	-0.413593
C82	C	-0.165567	-0.277680	-0.163593
C83	C	0.084433	-0.027680	0.086407
C84	C	0.334433	0.222320	0.336407
C85	C	-0.415388	-0.613299	-0.413826
C86	C	-0.165388	-0.363299	-0.163826
C87	C	0.084612	-0.113299	0.086174
C88	C	0.334612	0.136701	0.336174
C89	C	-0.357886	-0.644735	-0.356664
C90	C	-0.107886	-0.394735	-0.106664
C91	C	0.142114	-0.144735	0.143336
C92	C	0.392114	0.105265	0.393336
C93	C	-0.279666	-0.613676	-0.377987
C94	C	-0.029666	-0.363676	-0.127987
C95	C	0.220334	-0.113676	0.122013
C96	C	0.470334	0.136324	0.372013
C97	C	-0.280011	-0.528031	-0.378393
C98	C	-0.030011	-0.278031	-0.128393
C99	C	0.219989	-0.028031	0.121607
C100	C	0.469989	0.221969	0.371607
C101	C	-0.377773	-0.527903	-0.278250
C102	C	-0.127773	-0.277903	-0.028250
C103	C	0.122227	-0.027903	0.221750
C104	C	0.372227	0.222097	0.471750
C105	C	-0.379491	-0.613553	-0.278667
C106	C	-0.129491	-0.363553	-0.028667
C107	C	0.120509	-0.113553	0.221333
C108	C	0.370509	0.136447	0.471333
C109	C	-0.357870	-0.728594	-0.356670
C110	C	-0.107870	-0.478594	-0.106670
C111	C	0.142130	-0.228594	0.143330
C112	C	0.392130	0.021406	0.393330
C113	C	-0.357915	-0.412493	-0.356648
C114	C	-0.107915	-0.162493	-0.106648
C115	C	0.142085	0.087507	0.143352
C116	C	0.392085	0.337507	0.393352
C117	C	-0.550845	-1.070078	-0.356627
C118	C	-0.300845	-0.820078	-0.106627
C119	C	-0.050845	-0.570078	0.143373
C120	C	0.199155	-0.320078	0.393373
C121	C	-0.633390	-1.070108	-0.356646
C122	C	-0.383390	-0.820108	-0.106646
C123	C	-0.133390	-0.570108	0.143354
C124	C	0.116610	-0.320108	0.393354
C125	C	-0.832851	-1.020699	-0.406099
C126	C	-0.582851	-0.770699	-0.156099
C127	C	-0.332851	-0.520699	0.093901
C128	C	-0.082851	-0.270699	0.343901
C129	C	-0.882283	-1.002649	-0.338526
C130	C	-0.632283	-0.752649	-0.088526
C131	C	-0.382283	-0.502649	0.161474
C132	C	-0.132283	-0.252649	0.411474
C133	C	-0.784521	-1.070181	-0.356656
C134	C	-0.534521	-0.820181	-0.106656
C135	C	-0.284521	-0.570181	0.143344
C136	C	-0.034521	-0.320181	0.393344
C137	C	-0.882170	-1.088267	-0.424237
C138	C	-0.632170	-0.838267	-0.174237
C139	C	-0.382170	-0.588267	0.075763
C140	C	-0.132170	-0.338267	0.325763
C141	C	-0.930506	-1.070250	-0.356671
C142	C	-0.680506	-0.820250	-0.106671
C143	C	-0.430506	-0.570250	0.143329
C144	C	-0.180506	-0.320250	0.393329
C145	C	-0.832866	-1.052096	-0.289046
C146	C	-0.582866	-0.802096	-0.039046
C147	C	-0.332866	-0.552096	0.210954
C148	C	-0.082866	-0.302096	0.460954
C149	C	-0.832748	-1.137744	-0.374804
C150	C	-0.582748	-0.887744	-0.124804
C151	C	-0.332748	-0.637744	0.125196
C152	C	-0.082748	-0.387744	0.375196
C153	C	-0.882158	-1.119720	-0.307183
C154	C	-0.632158	-0.869720	-0.057183
C155	C	-0.382158	-0.619720	0.192817
C156	C	-0.132158	-0.369720	0.442817
C157	C	-0.700422	-1.070139	-0.356648
C158	C	-0.450422	-0.820139	-0.106648
C159	C	-0.200422	-0.570139	0.143352
C160	C	0.049578	-0.320139	0.393352
C161	C	-1.014602	-1.070291	-0.356671
C162	C	-0.764602	-0.820291	-0.106671
C163	C	-0.514602	-0.570291	0.143329
C164	C	-0.264602	-0.320291	0.393329
C165	C	-0.164187	-1.070278	-0.356667
C166	C	0.085813	-0.820278	-0.106667
C167	C	0.335813	-0.570278	0.143333
C168	C	0.585813	-0.320278	0.393333
C169	C	-0.081641	-1.070325	-0.356680
C170	C	0.168359	-0.820325	-0.106680
C171	C	0.418359	-0.570325	0.143320
C172	C	0.668359	-0.320325	0.393320
C173	C	-0.357860	-1.070204	-0.549801
C174	C	-0.107860	-0.820204	-0.299801
C175	C	0.142140	-0.570204	-0.049801
C176	C	0.392140	-0.320204	0.200199
C177	C	-0.357847	-1.070220	-0.632115
C178	C	-0.107847	-0.820220	-0.382115
C179	C	0.142153	-0.570220	-0.132115
C180	C	0.392153	-0.320220	0.117885
C181	C	-0.357921	-0.263330	-0.356630
C182	C	-0.107921	-0.013330	-0.106630
C183	C	0.142079	0.236670	0.143370
C184	C	0.392079	0.486670	0.393370
C185	C	-0.357925	-0.345644	-0.356639
C186	C	-0.107925	-0.095644	-0.106639
C187	C	0.142075	0.154356	0.143361
C188	C	0.392075	0.404356	0.393361
C189	C	-0.357789	-1.070247	-0.782824
C190	C	-0.107789	-0.820247	-0.532824
C191	C	0.142211	-0.570247	-0.282824
C192	C	0.392211	-0.320247	-0.032824
C193	C	-0.415162	-1.012991	-0.814173
C194	C	-0.165162	-0.762991	-0.564173
C195	C	0.084838	-0.512991	-0.314173
C196	C	0.334838	-0.262991	-0.064173
C197	C	-0.414960	-1.012783	-0.899791
C198	C	-0.164960	-0.762783	-0.649791
C199	C	0.085040	-0.512783	-0.399791
C200	C	0.335040	-0.262783	-0.149791
C201	C	-0.357733	-1.070275	-0.931206
C202	C	-0.107733	-0.820275	-0.681206
C203	C	0.142267	-0.570275	-0.431206
C204	C	0.392267	-0.320275	-0.181206
C205	C	-0.279417	-1.049384	-0.900122
C206	C	-0.029417	-0.799384	-0.650122
C207	C	0.220583	-0.549384	-0.400122
C208	C	0.470583	-0.299384	-0.150122
C209	C	-0.279781	-1.048952	-0.814477
C210	C	-0.029781	-0.798952	-0.564477
C211	C	0.220219	-0.548952	-0.314477
C212	C	0.470219	-0.298952	-0.064477
C213	C	-0.378036	-1.148545	-0.814379
C214	C	-0.128036	-0.898545	-0.564379
C215	C	0.121964	-0.648545	-0.314379
C216	C	0.371964	-0.398545	-0.064379
C217	C	-0.379730	-1.148141	-0.900029
C218	C	-0.129730	-0.898141	-0.650029
C219	C	0.120270	-0.648141	-0.400029
C220	C	0.370270	-0.398141	-0.150029
C221	C	-0.357697	-1.070291	-1.015066
C222	C	-0.107697	-0.820291	-0.765066
C223	C	0.142303	-0.570291	-0.515066
C224	C	0.392303	-0.320291	-0.265066
C225	C	-0.357820	-1.070229	-0.698964
C226	C	-0.107820	-0.820229	-0.448964
C227	C	0.142180	-0.570229	-0.198964
C228	C	0.392180	-0.320229	0.051036
C229	C	-0.357871	-1.070174	-0.164228
C230	C	-0.107871	-0.820174	0.085772
C231	C	0.142129	-0.570174	0.335772
C232	C	0.392129	-0.320174	0.585772
C233	C	-0.357675	-1.070302	-0.081915
C234	C	-0.107675	-0.820302	0.168085
C235	C	0.142325	-0.570302	0.418085
C236	C	0.392325	-0.320302	0.668085
H237	H	-0.235539	-0.634039	-0.337806
H238	H	0.014461	-0.384039	-0.087806
H239	H	0.264461	-0.134039	0.162194
H240	H	0.514461	0.115961	0.412194
O241	O	-0.322141	-0.501067	-0.222050
O242	O	-0.072141	-0.251067	0.027950
O243	O	0.177859	-0.001067	0.277950
O244	O	0.427859	0.248933	0.527950
H245	H	-0.336539	-0.523581	-0.166851
H246	H	-0.086539	-0.273581	0.083149
H247	H	0.163461	-0.023581	0.333149
H248	H	0.413461	0.226419	0.583149
O249	O	-0.804298	-1.031781	-0.213328
O250	O	-0.554298	-0.781781	0.036672
O251	O	-0.304298	-0.531781	0.286672
O252	O	-0.054298	-0.281781	0.536672
H253	H	-0.824506	-1.072654	-0.172307
H254	H	-0.574506	-0.822654	0.077693
H255	H	-0.324506	-0.572654	0.327693
H256	H	-0.074506	-0.322654	0.577693
O257	O	-0.398377	-0.499194	-0.490100
O258	O	-0.148377	-0.249194	-0.240100
O259	O	0.101623	0.000806	0.009900
O260	O	0.351623	0.250806	0.259900
H261	H	-0.387105	-0.546520	-0.527449
H262	H	-0.137105	-0.296520	-0.277449
H263	H	0.112895	-0.046520	-0.027449
H264	H	0.362895	0.203480	0.222551
H265	H	-0.903671	-1.161595	-0.265329
H266	H	-0.653671	-0.911595	-0.015329
H267	H	-0.403671	-0.661595	0.234671
H268	H	-0.153671	-0.411595	0.484671
H269	H	-0.810975	-1.194836	-0.390172
H270	H	-0.560975	-0.944836	-0.140172
H271	H	-0.310975	-0.694836	0.109828
H272	H	-0.060975	-0.444836	0.359828
H273	H	-0.433835	-0.506293	-0.258873
H274	H	-0.183835	-0.256293	-0.008873
H275	H	0.066165	-0.006293	0.241127
H276	H	0.316165	0.243707	0.491127
H277	H	-0.262509	-0.635138	-0.434678
H278	H	-0.012509	-0.385138	-0.184678
H279	H	0.237491	-0.135138	0.065322
H280	H	0.487491	0.114862	0.315322
H281	H	-0.434193	-1.167606	-0.792778
H282	H	-0.184193	-0.917606	-0.542778
H283	H	0.065807	-0.667606	-0.292778
H284	H	0.315807	-0.417606	-0.042778
H285	H	-0.437368	-1.163897	-0.920343
H286	H	-0.187368	-0.913897	-0.670343
H287	H	0.062632	-0.663897	-0.420343
H288	H	0.312632	-0.413897	-0.170343
H289	H	-0.235560	-1.088857	-0.793738
H290	H	0.014440	-0.838857	-0.543738
H291	H	0.264440	-0.588857	-0.293738
H292	H	0.514440	-0.338857	-0.043738
O293	O	-0.911107	-0.927008	-0.318188
O294	O	-0.661107	-0.677008	-0.068188
O295	O	-0.411107	-0.427008	0.181812
O296	O	-0.161107	-0.177008	0.431812
H297	H	-0.891365	-0.886002	-0.359301
H298	H	-0.641365	-0.636002	-0.109301
H299	H	-0.391365	-0.386002	0.140699
H300	H	-0.141365	-0.136002	0.390699
O301	O	-0.804163	-0.965190	-0.461402
O302	O	-0.554163	-0.715190	-0.211402
O303	O	-0.304163	-0.465190	0.038598
O304	O	-0.054163	-0.215190	0.288598
H305	H	-0.824764	-0.979660	-0.517328
H306	H	-0.574764	-0.729660	-0.267328
H307	H	-0.324764	-0.479660	-0.017328
H308	H	-0.074764	-0.229660	0.232672
H309	H	-0.437049	-0.633861	-0.262586
H310	H	-0.187049	-0.383861	-0.012586
H311	H	0.062951	-0.133861	0.237414
H312	H	0.312951	0.116139	0.487414
H313	H	-0.903828	-1.103536	-0.481384
H314	H	-0.653828	-0.853536	-0.231384
H315	H	-0.403828	-0.603536	0.018616
H316	H	-0.153828	-0.353536	0.268616
H317	H	-0.340542	-0.634953	-0.233963
H318	H	-0.090542	-0.384953	0.016037
H319	H	0.159458	-0.134953	0.266037
H320	H	0.409458	0.115047	0.516037
O321	O	-0.257086	-0.973156	-0.788017
O322	O	-0.007086	-0.723156	-0.538017
O323	O	0.242914	-0.473156	-0.288017
O324	O	0.492914	-0.223156	-0.038017
H325	H	-0.245960	-0.937153	-0.836393
H326	H	0.004040	-0.687153	-0.586393
H327	H	0.254040	-0.437153	-0.336393
H328	H	0.504040	-0.187153	-0.086393
O329	O	-0.221178	-0.500590	-0.325844
O330	O	0.028822	-0.250590	-0.075844
O331	O	0.278822	-0.000590	0.174156
O332	O	0.528822	0.249410	0.424156
H333	H	-0.247413	-0.466527	-0.282061
H334	H	0.002587	-0.216527	-0.032061
H335	H	0.252587	0.033473	0.217939
H336	H	0.502587	0.283473	0.467939
O337	O	-0.397605	-0.936573	-0.785685
O338	O	-0.147605	-0.686573	-0.535685
O339	O	0.102395	-0.436573	-0.285685
O340	O	0.352395	-0.186573	-0.035685
H341	H	-0.341017	-0.920601	-0.803586
H342	H	-0.091017	-0.670601	-0.553586
H343	H	0.158983	-0.420601	-0.303586
H344	H	0.408983	-0.170601	-0.053586
H345	H	-0.473025	-1.025824	-0.920809
H346	H	-0.223025	-0.775824	-0.670809
H347	H	0.026975	-0.525824	-0.420809
H348	H	0.276975	-0.275824	-0.170809
O349	O	-0.397149	-0.935948	-0.926954
O350	O	-0.147149	-0.685948	-0.676954
O351	O	0.102851	-0.435948	-0.426954
O352	O	0.352851	-0.185948	-0.176954
H353	H	-0.388640	-0.898797	-0.878916
H354	H	-0.138640	-0.648797	-0.628916
H355	H	0.111360	-0.398797	-0.378916
H356	H	0.361360	-0.148797	-0.128916
H357	H	-0.473424	-1.025870	-0.793578
H358	H	-0.223424	-0.775870	-0.543578
H359	H	0.026576	-0.525870	-0.293578
H360	H	0.276576	-0.275870	-0.043578
H361	H	-0.235484	-1.089817	-0.920469
H362	H	0.014516	-0.839817	-0.670469
H363	H	0.264516	-0.589817	-0.420469
H364	H	0.514516	-0.339817	-0.170469
O365	O	-0.397960	-0.640458	-0.490768
O366	O	-0.147960	-0.390458	-0.240768
O367	O	0.102040	-0.140458	0.009232
O368	O	0.352040	0.109542	0.259232
H369	H	-0.440653	-0.619807	-0.529762
H370	H	-0.190653	-0.369807	-0.279762
H371	H	0.059347	-0.119807	-0.029762
H372	H	0.309347	0.130193	0.220238
H373	H	-0.261975	-0.992796	-0.921580
H374	H	-0.011975	-0.742796	-0.671580
H375	H	0.238025	-0.492796	-0.421580
H376	H	0.488025	-0.242796	-0.171580
O377	O	-0.257692	-0.501576	-0.454311
O378	O	-0.007692	-0.251576	-0.204311
O379	O	0.242308	-0.001576	0.045689
O380	O	0.492308	0.248424	0.295689
H381	H	-0.246758	-0.549954	-0.490390
H382	H	0.003242	-0.299954	-0.240390
H383	H	0.253242	-0.049954	0.009610
H384	H	0.503242	0.200046	0.259610
H385	H	-0.336246	-1.191200	-0.794109
H386	H	-0.086246	-0.941200	-0.544109
H387	H	0.163754	-0.691200	-0.294109
H388	H	0.413754	-0.441200	-0.044109
O389	O	-0.328410	-1.207651	-0.928339
O390	O	-0.078410	-0.957651	-0.678339
O391	O	0.171590	-0.707651	-0.428339
O392	O	0.421590	-0.457651	-0.178339
H393	H	-0.331289	-1.209609	-0.989557
H394	H	-0.081289	-0.959609	-0.739557
H395	H	0.168711	-0.709609	-0.489557
H396	H	0.418711	-0.459609	-0.239557
O397	O	-0.492220	-0.641122	-0.396129
O398	O	-0.242220	-0.391122	-0.146129
O399	O	0.007780	-0.141122	0.103871
O400	O	0.257780	0.108878	0.353871
H401	H	-0.531743	-0.620557	-0.438356
H402	H	-0.281743	-0.370557	-0.188356
H403	H	-0.031743	-0.120557	0.061644
H404	H	0.218257	0.129443	0.311644
O405	O	-0.492655	-0.500374	-0.396106
O406	O	-0.242655	-0.250374	-0.146106
O407	O	0.007345	-0.000374	0.103894
O408	O	0.257345	0.249626	0.353894
H409	H	-0.490697	-0.464178	-0.346646
H410	H	-0.240697	-0.214178	-0.096646
H411	H	0.009303	0.035822	0.153354
H412	H	0.259303	0.285822	0.403354
