data_functionalizedCrystal
_audit_creation_method	'MofGen! by Chris Wilmer'
_symmetry_space_group_name_H-M	'P1'
_symmetry_Int_Tables_number	1
_symmetry_cell_setting	triclinic
loop_
_symmetry_equiv_pos_as_xyz
  x,y,z
_cell_length_a	27.732048
_cell_length_b	15.995350
_cell_length_c	14.472310
_cell_angle_alpha	90.001162
_cell_angle_beta	89.992508
_cell_angle_gamma	83.067515
loop_
_atom_site_label
_atom_site_type_symbol
_atom_site_fract_x
_atom_site_fract_y
_atom_site_fract_z
O1	O	0.641363	0.099622	-0.076718
O2	O	0.500635	0.114770	-0.076745
O3	O	0.574846	-0.014741	-0.076730
O4	O	0.567152	0.229134	-0.076733
O5	O	0.574827	-0.014733	0.076952
O6	O	0.500616	0.114778	0.076937
O7	O	0.641344	0.099630	0.076964
Cu8	Cu	0.570978	0.107205	0.090983
Cu9	Cu	0.571001	0.107196	-0.090764
O10	O	0.567133	0.229141	0.076949
C11	C	0.574518	-0.045928	0.000109
C12	C	0.573565	-0.138866	0.000104
C13	C	0.482617	0.114456	0.000092
C14	C	0.428958	0.113499	0.000082
C15	C	0.570140	-0.476569	0.000106
C16	C	0.517289	-0.428451	-0.000249
C17	C	0.518242	-0.331773	0.000098
C18	C	0.571839	-0.309031	0.000105
C19	C	0.597896	-0.350441	0.087868
C20	C	0.596569	-0.447060	0.087941
C21	C	0.597682	-0.447441	-0.086824
C22	C	0.597670	-0.350495	-0.087984
C23	C	0.572802	-0.214346	0.000107
C24	C	0.569179	-0.571255	0.000110
C25	C	0.090447	0.184004	0.000121
C26	C	-0.111228	0.180451	0.000129
O27	O	-0.142205	0.244923	0.000168
N28	N	-0.130683	0.103656	0.000128
C29	C	-0.099715	0.027744	0.000132
O30	O	-0.120891	-0.037657	0.000141
C31	C	0.101958	0.031297	0.000130
C32	C	0.121410	0.108097	0.000121
C33	C	0.109900	0.260797	0.000113
C34	C	0.160315	0.261685	0.000106
C35	C	0.191279	0.185778	0.000107
C36	C	0.171826	0.108985	0.000114
C37	C	0.132925	-0.044614	0.000140
C38	C	0.183346	-0.043719	0.000142
C39	C	0.202798	0.033081	0.000133
C40	C	0.253205	0.033965	0.000108
N41	N	0.272660	0.110761	0.000108
C42	C	0.241697	0.186667	0.000108
C43	C	-0.205598	0.025883	0.000131
C44	C	-0.256016	0.024995	0.000130
C45	C	-0.267525	0.177703	0.000129
C46	C	-0.217106	0.178590	0.000123
C47	C	-0.186143	0.102679	0.000132
C48	C	0.347574	0.188525	0.000092
C49	C	0.397995	0.189405	0.000081
C50	C	0.409499	0.036698	0.000087
C51	C	0.359083	0.035817	0.000093
C52	C	0.328121	0.111737	0.000099
O53	O	0.284211	-0.030472	0.000079
O54	O	0.262881	0.252058	0.000119
C55	C	0.040031	0.183116	0.000128
C56	C	0.020579	0.106323	0.000136
C57	C	0.051542	0.030416	0.000136
C58	C	-0.029839	0.105434	0.000134
C59	C	-0.060803	0.181340	0.000134
C60	C	-0.041348	0.258135	0.000134
C61	C	0.009068	0.259023	0.000127
C62	C	0.032087	-0.046379	0.000136
C63	C	-0.018329	-0.047260	0.000142
C64	C	-0.049292	0.028646	0.000141
C65	C	0.659362	0.099944	0.000125
C66	C	0.713021	0.100901	0.000129
C67	C	0.567461	0.260328	0.000108
C68	C	0.568414	0.353266	0.000107
N69	N	0.570966	0.107210	0.218814
N70	N	0.571017	0.107183	-0.218595
C71	C	0.571000	0.107192	0.592905
C72	C	0.531158	0.176262	0.553731
C73	C	0.531250	0.176511	0.446643
C74	C	0.570983	0.107201	0.407314
C75	C	0.621417	0.125630	0.446161
C76	C	0.621193	0.126121	0.553282
C77	C	0.560858	0.019484	0.553433
C78	C	0.559701	0.020084	0.446305
C79	C	0.570976	0.107205	0.302426
C80	C	0.571010	0.107190	0.697793
H81	H	0.497759	-0.303089	-0.062815
H82	H	-0.292744	0.239509	0.000128
H83	H	0.651767	0.077762	0.579194
C84	C	0.480347	0.161818	0.588545
H85	H	0.456824	0.204154	0.564116
H86	H	0.479692	0.164363	0.654117
H87	H	0.473173	0.108021	0.568863
H88	H	0.343245	-0.026720	0.000087
H89	H	0.630131	0.190066	0.578259
H90	H	-0.201272	0.241128	0.000121
C91	C	0.443565	-0.046792	0.000095
H92	H	0.476377	-0.035258	0.000101
H93	H	0.437675	-0.078323	-0.053491
H94	H	0.437664	-0.078299	0.053700
C95	C	0.540009	0.264448	0.412003
H96	H	0.540093	0.264901	0.346360
H97	H	0.570454	0.277518	0.434192
H98	H	0.514878	0.305176	0.434076
C99	C	-0.277408	-0.059485	0.000130
H100	H	-0.251742	-0.104560	0.000140
H101	H	-0.296833	-0.063016	-0.053460
H102	H	-0.296838	-0.063003	0.053731
C103	C	0.313523	0.272035	0.000086
H104	H	0.332336	0.317891	0.000071
H105	H	0.293610	0.274880	0.053677
H106	H	0.293621	0.274858	-0.053515
H107	H	0.651773	0.076634	0.420684
H108	H	0.579782	-0.321822	0.153174
C109	C	0.648984	-0.491306	0.093345
H110	H	0.670994	-0.450207	0.095493
H111	H	0.655659	-0.525913	0.040429
H112	H	0.652637	-0.525084	0.147466
C113	C	0.488757	-0.453115	-0.085268
H114	H	0.456962	-0.423390	-0.084191
H115	H	0.486733	-0.511968	-0.084107
H116	H	0.504972	-0.439188	-0.139963
H117	H	0.496250	-0.447770	0.062330
C118	C	0.490371	-0.293761	0.085228
H119	H	0.478425	-0.337414	0.119738
H120	H	0.463921	-0.254448	0.065660
H121	H	0.511579	-0.265981	0.122820
H122	H	0.577551	-0.465112	0.153541
C123	C	0.111539	-0.129095	0.000162
H124	H	0.137207	-0.174167	0.000177
H125	H	0.092112	-0.132637	-0.053424
H126	H	0.092110	-0.132609	0.053767
C127	C	0.651088	-0.332044	0.092294
H128	H	0.657892	-0.298862	0.040536
H129	H	0.672046	-0.383602	0.091484
H130	H	0.656137	-0.302300	0.147591
H131	H	-0.180391	-0.035937	0.000138
H132	H	0.024901	0.321561	0.000122
H133	H	0.580411	-0.467760	-0.153343
H134	H	0.630568	0.188843	0.419325
C135	C	0.571971	-0.313286	-0.175696
H136	H	0.545612	-0.272647	-0.158715
H137	H	0.560103	-0.357034	-0.210158
H138	H	0.594347	-0.287202	-0.212323
C139	C	0.512243	-0.004657	0.589949
H140	H	0.497676	0.038535	0.629613
H141	H	0.517890	-0.056050	0.623313
H142	H	0.491166	-0.011328	0.539442
C143	C	0.650472	-0.330434	-0.095137
H144	H	0.657487	-0.296361	-0.044264
H145	H	0.654573	-0.301145	-0.151149
H146	H	0.671935	-0.381428	-0.094389
C147	C	0.539786	0.263715	0.590074
H148	H	0.567564	0.258317	0.629015
H149	H	0.512193	0.287385	0.624174
H150	H	0.544933	0.299393	0.539449
H151	H	0.636649	-0.479706	-0.087409
H152	H	0.522601	0.006083	0.420916
H153	H	0.413829	0.251948	0.000073
C154	C	0.596359	-0.052538	0.410157
H155	H	0.619128	-0.030580	0.370641
H156	H	0.579587	-0.091192	0.376713
H157	H	0.612990	-0.080635	0.460828
H158	H	0.589913	-0.031908	0.578765
H159	H	0.084694	0.322613	0.000116
C160	C	0.181708	0.346163	0.000103
H161	H	0.216171	0.335832	0.000095
H162	H	0.171074	0.377390	0.053695
H163	H	0.171081	0.377383	-0.053496
C164	C	0.217402	-0.127224	0.000141
H165	H	0.198593	-0.173085	0.000137
H166	H	0.237310	-0.130054	0.053728
H167	H	0.237310	-0.130055	-0.053463
H168	H	-0.066567	0.319941	0.000130
H169	H	-0.034161	-0.109804	0.000141
C170	C	0.480605	0.161824	0.411158
H171	H	0.459788	0.155655	0.462212
H172	H	0.483257	0.112178	0.374565
H173	H	0.467519	0.208597	0.374820
H174	H	0.057293	-0.108193	0.000138
