data_functionalizedCrystal
_audit_creation_method	'MofGen! by Chris Wilmer'
_symmetry_space_group_name_H-M	'P1'
_symmetry_Int_Tables_number	1
_symmetry_cell_setting	triclinic
loop_
_symmetry_equiv_pos_as_xyz
  x,y,z
_cell_length_a	10.654551
_cell_length_b	14.044220
_cell_length_c	9.730223
_cell_angle_alpha	89.997406
_cell_angle_beta	90.000351
_cell_angle_gamma	88.837074
loop_
_atom_site_label
_atom_site_type_symbol
_atom_site_fract_x
_atom_site_fract_y
_atom_site_fract_z
O1	O	1.681222	0.133232	-0.114276
O2	O	1.317019	0.145924	-0.114283
O3	O	1.493654	0.001557	-0.114267
O4	O	1.504587	0.277598	-0.114293
O5	O	1.493652	0.001561	0.114313
O6	O	1.317017	0.145928	0.114296
O7	O	1.681220	0.133235	0.114303
Zn8	Zn	1.499118	0.139582	0.150592
Zn9	Zn	1.499121	0.139577	-0.150572
O10	O	1.504585	0.277602	0.114286
C11	C	1.270126	0.144994	0.000006
C12	C	1.130403	0.142205	0.000003
C13	C	0.933474	0.138266	0.124604
C14	C	1.064759	0.140895	0.124604
C15	C	1.064755	0.140896	-0.124606
C16	C	0.933473	0.138274	-0.124605
C17	C	0.867837	0.136946	0.249213
C18	C	0.933476	0.138257	0.373823
C19	C	1.064760	0.140886	0.373824
C20	C	1.130406	0.142204	0.249214
C21	C	1.488867	-0.033787	0.000024
C22	C	1.474591	-0.139106	0.000025
C23	C	1.448493	-0.331939	0.000005
C24	C	1.549741	-0.388907	0.000003
C25	C	1.535219	-0.496206	-0.000008
C26	C	1.463012	-0.224631	0.000016
C27	C	1.728112	0.134165	0.000011
C28	C	1.867836	0.136954	0.000004
C29	C	1.509372	0.312946	-0.000007
C30	C	1.523648	0.418266	-0.000017
N31	N	1.499126	0.139585	0.356128
N32	N	1.499122	0.139567	-0.356108
C33	C	1.577364	0.075681	0.428062
C34	C	1.577359	0.075669	0.571945
C35	C	1.420876	0.203474	0.571948
C36	C	1.420874	0.203480	0.428068
C37	C	1.655615	0.011786	0.356123
C38	C	1.733860	-0.052123	0.428056
C39	C	1.733856	-0.052134	0.571939
C40	C	1.655606	0.011763	0.643888
H41	H	0.760939	0.134804	0.249227
H42	H	1.655600	0.011741	0.761048
H43	H	1.655628	0.011791	0.238966
N44	N	0.866426	0.136936	0.501103
N45	N	0.789070	0.202220	0.528898
H46	H	0.741718	0.201290	0.618793
H47	H	1.797557	-0.104177	0.630506
N48	N	1.340959	0.268745	0.354560
N49	N	1.259585	0.238098	0.274272
H50	H	1.203140	0.284190	0.222355
N51	N	1.326078	-0.371843	0.000045
N52	N	1.251746	-0.353825	0.096416
H53	H	1.165292	-0.382018	0.096454
N54	N	1.813764	-0.117391	0.354548
N55	N	1.813757	-0.117377	0.226085
H56	H	1.870189	-0.163475	0.174169
H57	H	1.647328	-0.357094	-0.000088
N58	N	1.340956	0.268731	0.645459
N59	N	1.340969	0.268715	0.773922
H60	H	1.284527	0.314805	0.825841
N61	N	1.131809	0.142249	0.501101
N62	N	1.113043	0.208703	0.584526
H63	H	1.160396	0.209664	0.674420
N64	N	1.264504	0.144989	0.248971
N65	N	1.318758	0.212960	0.193182
H66	H	1.413462	0.214958	0.192926
N67	N	1.131827	0.142242	-0.251871
N68	N	1.249042	0.144582	-0.251852
H69	H	1.296413	0.145530	-0.341735
N70	N	0.866435	0.136918	-0.251889
N71	N	0.885194	0.070461	-0.335311
H72	H	0.837848	0.069504	-0.425209
