data_functionalizedCrystal
_audit_creation_method	'MofGen! by Chris Wilmer'
_symmetry_space_group_name_H-M	'P1'
_symmetry_Int_Tables_number	1
_symmetry_cell_setting	triclinic
loop_
_symmetry_equiv_pos_as_xyz
  x,y,z
_cell_length_a	16.992697
_cell_length_b	16.053948
_cell_length_c	16.974813
_cell_angle_alpha	90.769009
_cell_angle_beta	92.975198
_cell_angle_gamma	92.712413
loop_
_atom_site_label
_atom_site_type_symbol
_atom_site_fract_x
_atom_site_fract_y
_atom_site_fract_z
O1	O	-1.036809	0.080385	0.163992
O2	O	-0.703476	0.413719	0.497326
O3	O	-0.370142	0.747052	0.830659
O4	O	-0.808530	0.080289	0.162157
O5	O	-0.475196	0.413623	0.495490
O6	O	-0.141863	0.746956	0.828824
O7	O	-0.929360	0.072607	0.048725
O8	O	-0.596027	0.405940	0.382059
O9	O	-0.262694	0.739273	0.715392
O10	O	-0.915978	0.088068	0.277424
O11	O	-0.582645	0.421401	0.610758
O12	O	-0.249312	0.754735	0.944091
O13	O	-0.935208	-0.065824	0.055022
O14	O	-0.601874	0.267509	0.388355
O15	O	-0.268541	0.600842	0.721689
O16	O	-0.814377	-0.058141	0.168454
O17	O	-0.481044	0.275192	0.501787
O18	O	-0.147710	0.608525	0.835120
O19	O	-1.042656	-0.058046	0.170289
O20	O	-0.709323	0.275288	0.503622
O21	O	-0.375990	0.608621	0.836956
Zn22	Zn	-0.929445	-0.080072	0.170371
Zn23	Zn	-0.596112	0.253261	0.503705
Zn24	Zn	-0.262778	0.586594	0.837038
Zn25	Zn	-0.921741	0.102316	0.162075
Zn26	Zn	-0.588408	0.435650	0.495408
Zn27	Zn	-0.255074	0.768983	0.828742
O28	O	-0.921826	-0.050363	0.283721
O29	O	-0.588492	0.282970	0.617054
O30	O	-0.255159	0.616304	0.950388
C31	C	-0.782250	0.010918	0.162946
C32	C	-0.448917	0.344251	0.496280
C33	C	-0.115583	0.677585	0.829613
C34	C	-0.695233	0.010453	0.155908
C35	C	-0.361900	0.343787	0.489241
C36	C	-0.028567	0.677120	0.822574
N37	N	-0.934709	-0.204548	0.176033
N38	N	-0.601375	0.128785	0.509366
N39	N	-0.268042	0.462119	0.842700
C40	C	-0.644725	0.015044	0.223814
C41	C	-0.311392	0.348378	0.557148
C42	C	0.021942	0.681711	0.890481
C43	C	-0.562965	0.014587	0.217197
C44	C	-0.229632	0.347920	0.550530
C45	C	0.103702	0.681253	0.883864
C46	C	-0.531714	0.009544	0.142672
C47	C	-0.198381	0.342877	0.476006
C48	C	0.134952	0.676211	0.809339
C49	C	-0.582229	0.004950	0.074761
C50	C	-0.248896	0.338284	0.408094
C51	C	0.084438	0.671617	0.741427
C52	C	-0.663988	0.005402	0.081379
C53	C	-0.330654	0.338735	0.414712
C54	C	0.002679	0.672069	0.748046
C55	C	-0.288226	0.007671	0.115242
C56	C	0.045108	0.341004	0.448576
C57	C	0.378441	0.674338	0.781909
C58	C	-0.206460	0.007222	0.108629
C59	C	0.126873	0.340556	0.441962
C60	C	0.460206	0.673889	0.775295
C61	C	-0.187202	0.016857	0.251066
C62	C	0.146131	0.350190	0.584399
C63	C	0.479465	0.683524	0.917733
C64	C	-0.268963	0.017313	0.257678
C65	C	0.064370	0.350647	0.591011
C66	C	0.397704	0.683980	0.924344
C67	C	-0.319471	0.012715	0.189766
C68	C	0.013863	0.346049	0.523100
C69	C	0.347196	0.679382	0.856433
N70	N	-0.448143	0.009079	0.135906
N71	N	-0.114809	0.342412	0.469240
N72	N	0.218524	0.675745	0.802573
N73	N	-0.403041	0.013175	0.196533
N74	N	-0.069708	0.346508	0.529866
N75	N	0.263626	0.679841	0.863200
C76	C	-0.889213	-0.251562	0.127186
C77	C	-0.555880	0.081771	0.460520
C78	C	-0.222547	0.415104	0.793853
C79	C	-0.892915	-0.338699	0.131157
C80	C	-0.559582	-0.005366	0.464491
C81	C	-0.226248	0.327968	0.797824
C82	C	-0.942116	-0.378820	0.183972
C83	C	-0.608783	-0.045487	0.517305
C84	C	-0.275450	0.287846	0.850638
C85	C	-0.987613	-0.331799	0.232823
C86	C	-0.654280	0.001534	0.566157
C87	C	-0.320947	0.334867	0.899490
C88	C	-0.983907	-0.244664	0.228856
C89	C	-0.650574	0.088669	0.562189
C90	C	-0.317240	0.422003	0.895523
C91	C	-0.958274	-0.639052	0.201292
C92	C	-0.624941	-0.305719	0.534625
C93	C	-0.291608	0.027614	0.867959
C94	C	-0.961979	-0.726194	0.205254
C95	C	-0.628646	-0.392861	0.538587
C96	C	-0.295312	-0.059528	0.871921
C97	C	-0.867279	-0.733088	0.103588
C98	C	-0.533946	-0.399755	0.436922
C99	C	-0.200612	-0.066421	0.770255
C100	C	-0.863581	-0.645951	0.099622
C101	C	-0.530247	-0.312617	0.432956
C102	C	-0.196914	0.020716	0.766289
C103	C	-0.909074	-0.598937	0.148477
C104	C	-0.575741	-0.265604	0.481810
C105	C	-0.242408	0.067729	0.815144
N106	N	-0.945903	-0.467888	0.188030
N107	N	-0.612570	-0.134555	0.521363
N108	N	-0.279236	0.198779	0.854697
N109	N	-0.905283	-0.509871	0.144422
N110	N	-0.571950	-0.176538	0.477755
N111	N	-0.238616	0.156796	0.811089
C112	C	-0.068936	0.011331	0.169499
C113	C	0.264397	0.344665	0.502832
C114	C	0.597731	0.677998	0.836166
C115	C	-0.155952	0.011813	0.176535
C116	C	0.177381	0.345146	0.509869
C117	C	0.510714	0.678480	0.843202
C118	C	-0.931884	0.001406	0.022475
C119	C	-0.598551	0.334739	0.355808
C120	C	-0.265217	0.668072	0.689142
C121	C	-0.930682	-0.004510	-0.065124
C122	C	-0.597349	0.328823	0.268209
C123	C	-0.264015	0.662156	0.601542
N124	N	-0.916484	0.226791	0.156407
N125	N	-0.583150	0.560125	0.489741
N126	N	-0.249817	0.893458	0.823074
C127	C	-0.926932	0.068168	-0.109706
C128	C	-0.593598	0.401502	0.223627
C129	C	-0.260265	0.734835	0.556960
C130	C	-0.925798	0.062607	-0.192015
C131	C	-0.592464	0.395940	0.141318
C132	C	-0.259131	0.729274	0.474652
C133	C	-0.928419	-0.015634	-0.229740
C134	C	-0.595086	0.317699	0.103593
C135	C	-0.261753	0.651033	0.436927
C136	C	-0.932167	-0.088318	-0.185152
C137	C	-0.598834	0.245015	0.148181
C138	C	-0.265501	0.578349	0.481515
C139	C	-0.933296	-0.082756	-0.102845
C140	C	-0.599963	0.250577	0.230489
C141	C	-0.266629	0.583911	0.563822
C142	C	-0.925380	-0.040361	-0.475534
C143	C	-0.592047	0.292973	-0.142201
C144	C	-0.258714	0.626306	0.191132
C145	C	-0.924254	-0.045917	-0.557848
C146	C	-0.590921	0.287416	-0.224514
C147	C	-0.257587	0.620749	0.108819
C148	C	-0.917883	0.105008	-0.564705
C149	C	-0.584549	0.438342	-0.231372
C150	C	-0.251216	0.771675	0.101962
C151	C	-0.919016	0.110564	-0.482396
C152	C	-0.585683	0.443897	-0.149063
C153	C	-0.252350	0.777230	0.184271
C154	C	-0.922760	0.037880	-0.437815
C155	C	-0.589427	0.371213	-0.104481
C156	C	-0.256094	0.704546	0.228852
N157	N	-0.927262	-0.021320	-0.313873
N158	N	-0.593929	0.312013	0.019461
N159	N	-0.260596	0.645346	0.352794
N160	N	-0.923911	0.043567	-0.353683
N161	N	-0.590578	0.376900	-0.020350
N162	N	-0.257245	0.710234	0.312983
C163	C	-0.919302	0.020840	0.309971
C164	C	-0.585969	0.354173	0.643305
C165	C	-0.252636	0.687506	0.976638
C166	C	-0.920504	0.026761	0.397570
C167	C	-0.587170	0.360095	0.730904
C168	C	-0.253837	0.693428	1.064237
H169	H	-0.670162	0.019151	0.284500
H170	H	-0.336829	0.352484	0.617834
H171	H	-0.003496	0.685818	0.951167
H172	H	-0.922747	0.121790	-0.228310
H173	H	-0.589414	0.455123	0.105023
H174	H	-0.256080	0.788457	0.438356
H175	H	-1.020952	-0.206385	0.268634
H176	H	-0.687618	0.126948	0.601968
H177	H	-0.354285	0.460281	0.935301
Br178	Br	-0.831162	-0.402501	0.064868
Br179	Br	-0.497829	-0.069168	0.398201
Br180	Br	-0.164496	0.264165	0.731534
H181	H	-0.916883	0.174276	-0.451686
H182	H	-0.583549	0.507609	-0.118353
H183	H	-0.250216	0.840942	0.214981
H184	H	-0.914833	0.164184	-0.601012
H185	H	-0.581500	0.497517	-0.267678
H186	H	-0.248167	0.830850	0.065655
Br187	Br	-0.356762	0.001429	0.023076
Br188	Br	-0.023428	0.334762	0.356409
Br189	Br	0.309905	0.668095	0.689743
Br190	Br	-0.164050	0.000360	0.007482
Br191	Br	0.169283	0.333694	0.340815
Br192	Br	0.502616	0.667027	0.674149
H193	H	-0.521844	0.018326	0.272494
H194	H	-0.188511	0.351659	0.605827
H195	H	0.144823	0.684993	0.939161
H196	H	-0.823518	-0.613291	0.056613
H197	H	-0.490185	-0.279957	0.389946
H198	H	-0.156851	0.053376	0.723280
Br199	Br	-0.539819	-0.001902	-0.026381
Br200	Br	-0.206486	0.331432	0.306952
Br201	Br	0.126848	0.664765	0.640285
H202	H	-0.926385	-0.109634	-0.588560
H203	H	-0.593052	0.223700	-0.255227
H204	H	-0.259718	0.557033	0.078106
H205	H	-0.928445	-0.099545	-0.439247
H206	H	-0.595111	0.233788	-0.105914
H207	H	-0.261778	0.567121	0.227420
H208	H	-0.995322	-0.600785	0.241070
H209	H	-0.661989	-0.267451	0.574403
H210	H	-0.328655	0.065882	0.907737
Br211	Br	-0.935712	-0.194504	-0.236348
Br212	Br	-0.602379	0.138830	0.096985
Br213	Br	-0.269046	0.472163	0.430318
H214	H	-0.924801	0.131881	-0.078997
H215	H	-0.591468	0.465214	0.254336
H216	H	-0.258134	0.798547	0.587670
H217	H	-0.294400	0.021429	0.318363
H218	H	0.038933	0.354763	0.651696
H219	H	0.372266	0.688096	0.985030
Br220	Br	-0.938381	-0.181395	-0.042339
Br221	Br	-0.605048	0.151938	0.290995
Br222	Br	-0.271715	0.485271	0.624328
Br223	Br	-0.118653	0.023096	0.343226
Br224	Br	0.214680	0.356429	0.676560
Br225	Br	0.548014	0.689763	1.009893
Br226	Br	-1.054378	-0.386248	0.304510
Br227	Br	-0.721045	-0.052915	0.637843
Br228	Br	-0.387711	0.280419	0.971177
H229	H	-0.705111	0.001664	0.026082
H230	H	-0.371778	0.334997	0.359415
H231	H	-0.038445	0.668331	0.692749
H232	H	-0.830239	-0.771375	0.063815
H233	H	-0.496906	-0.438042	0.397148
H234	H	-0.163573	-0.104709	0.730482
Br235	Br	-0.822447	-0.197121	0.055497
Br236	Br	-0.489113	0.136212	0.388830
Br237	Br	-0.155780	0.469545	0.722164
H238	H	-1.002045	-0.758858	0.248265
H239	H	-0.668712	-0.425525	0.581598
H240	H	-0.335379	-0.092191	0.914932
