data_functionalizedCrystal
_audit_creation_method	'MofGen! by Chris Wilmer'
_symmetry_space_group_name_H-M	'P1'
_symmetry_Int_Tables_number	1
_symmetry_cell_setting	triclinic
loop_
_symmetry_equiv_pos_as_xyz
  x,y,z
_cell_length_a	14.560438
_cell_length_b	20.016444
_cell_length_c	14.560438
_cell_angle_alpha	89.997789
_cell_angle_beta	60.000713
_cell_angle_gamma	119.997449
loop_
_atom_site_label
_atom_site_type_symbol
_atom_site_fract_x
_atom_site_fract_y
_atom_site_fract_z
Zr1	Zr	1.005346	-0.643566	-0.120526
O2	O	1.196941	-0.536892	-0.267170
O3	O	0.813747	-0.676268	-0.075573
O4	O	1.005352	-0.676264	-0.267175
O5	O	1.005333	-0.536899	0.075573
O6	O	1.005363	-0.786203	-0.267177
O7	O	1.005335	-0.536896	-0.075568
O8	O	0.662616	-0.786210	0.075564
O9	O	1.348080	-0.536891	-0.267168
O10	O	0.892565	-0.772261	-0.056401
O11	O	0.892555	-0.690217	0.056395
O12	O	1.118145	-0.690212	-0.169191
O13	O	1.118135	-0.608168	-0.056395
Zr14	Zr	1.005359	-0.818910	0.120523
Zr15	Zr	1.005364	-0.818906	-0.120529
Zr16	Zr	1.005342	-0.643571	0.120526
Zr17	Zr	1.246396	-0.643565	-0.120523
Zr18	Zr	0.764310	-0.818911	0.120520
O19	O	1.196959	-0.786208	0.075570
O20	O	1.196965	-0.786202	-0.267175
O21	O	1.196935	-0.536898	0.075575
O22	O	0.813765	-0.925585	0.267167
O23	O	0.813771	-0.925578	-0.075578
O24	O	0.813741	-0.676275	0.267172
O25	O	1.005373	-0.925578	-0.075575
O26	O	1.005354	-0.786212	0.267172
O27	O	1.005343	-0.676274	0.267174
O28	O	1.005371	-0.925580	0.075565
O29	O	1.348093	-0.676263	-0.267171
O30	O	0.662613	-0.786214	0.267168
O31	O	0.662626	-0.925585	0.267165
O32	O	0.662629	-0.925582	0.075561
O33	O	1.348077	-0.536895	-0.075564
O34	O	1.348090	-0.676266	-0.075567
O35	O	0.892561	-0.772265	0.169188
O36	O	0.892571	-0.854309	0.056392
O37	O	1.118151	-0.772260	-0.056398
O38	O	1.118141	-0.690216	0.056398
C39	C	0.703837	-0.731240	-0.000005
C40	C	0.601505	-0.731240	-0.000006
C41	C	1.005332	-0.511915	0.000003
C42	C	1.005324	-0.437479	0.000004
C43	C	0.457273	-0.774064	-0.058878
C44	C	0.553429	-0.774064	-0.058886
C45	C	0.553429	-0.688407	0.058876
C46	C	0.457281	-0.688403	0.058878
C47	C	0.887583	-0.309043	0.058885
C48	C	0.887587	-0.239098	0.058889
C49	C	1.123100	-0.153447	-0.058873
C50	C	1.123096	-0.223390	-0.058869
C51	C	1.005333	-0.301188	0.000007
C52	C	1.005341	-0.161300	0.000007
C53	C	1.005346	-0.085463	0.000011
C54	C	1.005328	-0.377030	0.000005
C55	C	1.306869	-0.731237	0.000002
C56	C	1.409201	-0.731237	0.000004
C57	C	1.005358	-0.731233	-0.301521
C58	C	1.005360	-0.731231	-0.403854
C59	C	1.005366	0.049436	-0.000001
C60	C	1.005350	-0.025009	0.000010
C61	C	1.123108	-0.688403	-0.510805
C62	C	1.123102	-0.688413	-0.606954
C63	C	0.887588	-0.774079	-0.489186
C64	C	0.887596	-0.774074	-0.393040
C65	C	1.005348	-0.731244	0.301518
C66	C	1.005346	-0.731246	0.403851
C67	C	0.703858	-0.950562	-0.000009
C68	C	0.601534	-1.024999	-0.000012
C69	C	0.703832	-0.731245	0.301514
C70	C	0.601498	-0.731247	0.403846
C71	C	0.703853	-0.950568	0.301510
C72	C	0.601527	-1.025006	0.403840
C73	C	1.306853	-0.511909	-0.301513
C74	C	1.409179	-0.437470	-0.403843
C75	C	1.306848	-0.511914	0.000006
C76	C	1.409172	-0.437477	0.000009
C77	C	1.306874	-0.731231	-0.301517
C78	C	1.409208	-0.731229	-0.403849
C79	C	0.553478	-1.017127	-0.058900
C80	C	0.457346	-1.087061	-0.058925
C81	C	0.409266	-1.164867	-0.000055
C82	C	0.457331	-1.172737	0.058835
C83	C	0.553468	-1.102804	0.058853
C84	C	0.553479	-1.102797	0.393017
C85	C	0.457346	-1.172747	0.489158
C86	C	0.409256	-1.164904	0.596121
C87	C	0.457314	-1.087105	0.606942
C88	C	0.553452	-1.017157	0.510802
C89	C	1.457239	-0.359679	-0.393020
C90	C	1.553402	-0.289730	-0.489161
C91	C	1.601496	-0.297573	-0.596124
C92	C	1.553432	-0.375371	-0.606945
C93	C	1.457278	-0.445319	-0.510805
C94	C	1.457238	-0.445349	0.058887
C95	C	1.553396	-0.375415	0.058886
C96	C	1.601480	-0.297609	0.000012
C97	C	1.553410	-0.289739	-0.058874
C98	C	1.457260	-0.359673	-0.058878
C99	C	0.553423	-0.774076	0.510799
C100	C	0.457279	-0.774069	0.606946
C101	C	0.457290	-0.688403	0.489175
C102	C	0.553439	-0.688406	0.393030
H103	H	0.418129	-0.808941	-0.106818
C104	C	0.303507	-1.241787	-0.000072
H105	H	0.281769	-1.225948	-0.043568
H106	H	0.335010	-1.273434	-0.031594
H107	H	0.228478	-1.273425	0.074945
H108	H	1.679791	-0.240610	-0.674398
H109	H	1.218985	-0.653539	-0.694036
C110	C	0.758055	-0.394618	0.123653
H111	H	0.774912	-0.435150	0.115216
H112	H	0.709675	-0.400751	0.201112
H113	H	0.709672	-0.400749	0.094571
H114	H	1.418128	-0.353252	-0.106820
H115	H	0.592619	-1.109198	0.305931
H116	H	0.791703	-0.245501	0.106835
H117	H	0.592586	-0.653535	0.106812
H118	H	0.791709	-0.808959	-0.480395
C119	C	0.606322	-1.111469	0.123633
H120	H	0.670473	-1.058680	0.115212
H121	H	0.537289	-1.140538	0.201089
H122	H	0.643838	-1.140528	0.094542
C123	C	1.252628	-0.067871	-0.123644
H124	H	1.235769	-0.027339	-0.115224
H125	H	1.301019	-0.061734	-0.094574
H126	H	1.301001	-0.061743	-0.201108
C127	C	0.758066	-0.821184	-0.275386
H128	H	0.687929	-0.846691	-0.282714
H129	H	0.753181	-0.861708	-0.235430
H130	H	0.753174	-0.784209	-0.235437
H131	H	1.218988	-0.216988	-0.106813
H132	H	1.592575	-0.226380	-0.106807
H133	H	1.592519	-0.226390	-0.480329
H134	H	0.418227	-1.236087	0.480328
H135	H	0.330974	-1.221867	0.674395
C136	C	0.404395	-0.821184	0.724590
H137	H	0.446784	-0.846702	0.717256
H138	H	0.420153	-0.784220	0.764549
H139	H	0.313615	-0.861713	0.764540
C140	C	1.606328	-0.383992	-0.724605
H141	H	1.563943	-0.440339	-0.717293
H142	H	1.590567	-0.358476	-0.764547
H143	H	1.697108	-0.358487	-0.764558
C144	C	0.404411	-1.078484	0.724602
H145	H	0.446796	-1.022138	0.717290
H146	H	0.313634	-1.103999	0.764552
H147	H	0.420185	-1.103991	0.764547
H148	H	0.418143	-0.653523	0.106826
C149	C	1.252642	-0.641290	-0.522701
H150	H	1.322767	-0.615793	-0.600171
H151	H	1.257546	-0.600759	-0.487646
H152	H	1.257537	-0.678264	-0.487640
H153	H	0.592624	-0.953780	-0.106853
C154	C	0.606304	-0.821185	0.522696
H155	H	0.563910	-0.846683	0.600166
H156	H	0.590554	-0.861716	0.487639
H157	H	0.697082	-0.784209	0.487638
H158	H	0.592586	-0.653526	0.305938
C159	C	0.404408	-0.641293	0.477286
H160	H	0.340249	-0.647432	0.549863
H161	H	0.473427	-0.584947	0.437335
H162	H	0.366896	-0.662450	0.437334
H163	H	0.418223	-1.080637	-0.106880
H164	H	0.592560	-0.953819	0.519630
C165	C	0.606304	-0.821176	-0.123649
H166	H	0.670463	-0.815039	-0.115230
H167	H	0.537281	-0.877521	-0.094573
H168	H	0.643815	-0.800020	-0.201114
H169	H	1.418086	-0.353278	-0.305934
H170	H	1.418148	-0.508658	-0.519631
H171	H	1.418096	-0.508696	0.106837
C172	C	0.404423	-1.258326	0.123598
H173	H	0.340275	-1.298842	0.115158
H174	H	0.473431	-1.264477	0.094540
H175	H	0.366891	-1.264466	0.201066
C176	C	1.707238	-0.220690	0.000029
H177	H	1.728963	-0.236529	0.043538
H178	H	1.782263	-0.189044	-0.074979
H179	H	1.675717	-0.189050	0.031566
H180	H	1.592518	-0.381839	0.106841
