data_functionalizedCrystal
_audit_creation_method	'MofGen! by Chris Wilmer'
_symmetry_space_group_name_H-M	'P1'
_symmetry_Int_Tables_number	1
_symmetry_cell_setting	triclinic
loop_
_symmetry_equiv_pos_as_xyz
  x,y,z
_cell_length_a	15.298068
_cell_length_b	15.298671
_cell_length_c	15.298259
_cell_angle_alpha	107.381581
_cell_angle_beta	91.587309
_cell_angle_gamma	91.624540
loop_
_atom_site_label
_atom_site_type_symbol
_atom_site_fract_x
_atom_site_fract_y
_atom_site_fract_z
Zn1	Zn	1.256716	0.016392	-0.725163
Zn2	Zn	1.756716	0.516392	-0.225163
Zn3	Zn	1.315511	0.186541	-0.555082
Zn4	Zn	1.815511	0.686541	-0.055082
Zn5	Zn	1.145474	0.066608	-0.546348
Zn6	Zn	1.645474	0.566608	-0.046348
Zn7	Zn	1.145451	0.195130	-0.674926
Zn8	Zn	1.645451	0.695130	-0.174926
O9	O	1.215788	0.116168	-0.625380
O10	O	1.715788	0.616168	-0.125380
O11	O	1.382241	0.014353	-0.727280
O12	O	1.882241	0.514353	-0.227280
O13	O	1.317570	0.188052	-0.428933
O14	O	1.817570	0.688052	0.071067
O15	O	1.135634	-0.065049	-0.587438
O16	O	1.635634	0.434951	-0.087438
O17	O	1.425437	0.139360	-0.602322
O18	O	1.925437	0.639360	-0.102322
O19	O	1.217363	-0.101942	-0.718812
O20	O	1.717363	0.398058	-0.218812
O21	O	1.192645	0.099938	-0.422517
O22	O	1.692645	0.599938	0.077483
O23	O	1.027745	0.108267	-0.538725
O24	O	1.527745	0.608267	-0.038725
O25	O	1.135596	0.154000	-0.806580
O26	O	1.635596	0.654000	-0.306580
O27	O	1.027729	0.202692	-0.633190
O28	O	1.527729	0.702692	-0.133190
O29	O	1.217341	0.022681	-0.843488
O30	O	1.717341	0.522681	-0.343488
O31	O	1.317549	0.312676	-0.553610
O32	O	1.817549	0.812676	-0.053610
O33	O	1.192607	0.318986	-0.641659
O34	O	1.692607	0.818986	-0.141659
C35	C	0.997212	0.161861	-0.579559
C36	C	1.497212	0.661861	-0.079559
C37	C	0.903704	0.181427	-0.559975
C38	C	1.403704	0.681427	-0.059975
C39	C	0.550163	-0.023451	-0.765320
C40	C	1.050163	0.476549	-0.265320
C41	C	0.638018	-0.041833	-0.783725
C42	C	1.138018	0.458167	-0.283725
C43	C	0.704444	0.013980	-0.727789
C44	C	1.204444	0.513980	-0.227789
C45	C	0.683006	0.088179	-0.653445
C46	C	1.183006	0.588179	-0.153445
C47	C	0.595143	0.106566	-0.635043
C48	C	1.095143	0.606566	-0.135043
C49	C	0.749423	0.143998	-0.597512
C50	C	1.249423	0.643998	-0.097512
C51	C	0.727986	0.218196	-0.523168
C52	C	1.227986	0.718196	-0.023168
C53	C	0.640131	0.236580	-0.504768
C54	C	1.140131	0.736580	-0.004768
C55	C	0.573705	0.180767	-0.560704
C56	C	1.073705	0.680767	-0.060704
C57	C	0.837287	0.125610	-0.615914
C58	C	1.337287	0.625610	-0.115914
C59	C	0.882267	0.255628	-0.485636
C60	C	1.382267	0.755628	0.014364
C61	C	0.794412	0.274010	-0.467232
C62	C	1.294412	0.774010	0.032768
C63	C	1.261474	0.348233	-0.593155
C64	C	1.761474	0.848233	-0.093155
C65	C	1.281090	0.447491	-0.579415
C66	C	1.781090	0.947491	-0.079415
C67	C	1.355385	0.490788	-0.527175
C68	C	1.855385	0.990788	-0.027175
C69	C	1.373822	0.584044	-0.514271
C70	C	1.873822	1.084044	-0.014271
C71	C	1.317961	0.634014	-0.553599
C72	C	1.817961	1.134014	-0.053599
C73	C	1.243660	0.590719	-0.605835
C74	C	1.743660	1.090719	-0.105835
C75	C	1.225226	0.497452	-0.618746
C76	C	1.725226	0.997452	-0.118746
C77	C	1.187801	0.640678	-0.645171
C78	C	1.687801	1.140678	-0.145171
C79	C	1.113501	0.597383	-0.697406
C80	C	1.613501	1.097383	-0.197406
C81	C	1.095069	0.504125	-0.710315
C82	C	1.595069	1.004125	-0.210315
C83	C	1.150930	0.454155	-0.670986
C84	C	1.650930	0.954155	-0.170986
C85	C	1.206236	0.733945	-0.632259
C86	C	1.706236	1.233945	-0.132259
C87	C	1.076076	0.740609	-0.723830
C88	C	1.576076	1.240609	-0.223830
C89	C	1.057640	0.647353	-0.736735
C90	C	1.557640	1.147353	-0.236735
C91	C	1.435218	0.070297	-0.671379
C92	C	1.935218	0.570297	-0.171379
C93	C	1.528726	0.050749	-0.690982
C94	C	2.028726	0.550749	-0.190982
C95	C	1.169934	0.883188	-0.657764
C96	C	1.669934	1.383188	-0.157764
C97	C	1.150372	0.783906	-0.671590
C98	C	1.650372	1.283906	-0.171590
C99	C	1.169908	0.083697	-0.858349
C100	C	1.669908	0.583697	-0.358349
C101	C	1.150356	0.069860	-0.957626
C102	C	1.650356	0.569860	-0.457626
C103	C	1.355417	0.214370	-1.250828
C104	C	1.855417	0.714370	-0.750828
C105	C	1.373784	0.227377	-1.157550
C106	C	1.873784	0.727377	-0.657550
C107	C	1.317929	0.187999	-1.107565
C108	C	1.817929	0.687999	-0.607565
C109	C	1.243704	0.135611	-1.150866
C110	C	1.743704	0.635611	-0.650866
C111	C	1.225332	0.122609	-1.244151
C112	C	1.725332	0.622609	-0.744151
C113	C	1.187843	0.096238	-1.100888
C114	C	1.687843	0.596238	-0.600888
C115	C	1.113618	0.043850	-1.144189
C116	C	1.613618	0.543850	-0.644189
C117	C	1.095250	0.030850	-1.237466
C118	C	1.595250	0.530850	-0.737466
C119	C	1.151105	0.070228	-1.287451
C120	C	1.651105	0.570228	-0.787451
C121	C	1.206215	0.109240	-1.007603
C122	C	1.706215	0.609240	-0.507603
C123	C	1.076129	0.017479	-1.000926
C124	C	1.576129	0.517479	-0.500926
C125	C	1.057763	0.004472	-1.094204
C126	C	1.557763	0.504472	-0.594204
C127	C	1.261526	0.148438	-0.393336
C128	C	1.761526	0.648438	0.106664
C129	C	1.281190	0.161989	-0.294128
C130	C	1.781190	0.661989	0.205872
H131	H	0.776945	0.334423	-0.406701
H132	H	1.276945	0.834423	0.093299
C133	C	0.975915	0.599714	-0.794199
C134	C	1.475915	1.099714	-0.294199
N135	N	0.914361	0.563831	-0.837483
N136	N	1.414361	1.063831	-0.337483
C137	C	1.338239	0.736601	-0.539394
C138	C	1.838239	1.236601	-0.039394
N139	N	1.353512	0.813875	-0.528686
N140	N	1.853512	1.313875	-0.028686
C141	C	0.860857	0.043988	-0.697686
C142	C	1.360857	0.543988	-0.197686
N143	N	0.878608	-0.017496	-0.759279
N144	N	1.378608	0.482504	-0.259279
H145	H	1.400882	0.246434	-1.291532
H146	H	1.900882	0.746434	-0.791532
H147	H	0.622681	0.297004	-0.444238
H148	H	1.122681	0.797004	0.055762
H149	H	0.936352	0.301079	-0.440092
H150	H	1.436352	0.801079	0.059908
C151	C	0.477058	0.200982	-0.540462
C152	C	0.977058	0.700982	-0.040462
N153	N	0.404260	0.216206	-0.525217
N154	N	0.904260	0.716206	-0.025217
H155	H	1.266733	0.769187	-0.589729
H156	H	1.766733	1.269187	-0.089729
H157	H	1.266654	0.151888	-0.972358
H158	H	1.766654	0.651888	-0.472358
C159	C	1.014624	0.795573	-0.767092
C160	C	1.514624	1.295573	-0.267092
N161	N	0.968342	0.836977	-0.799675
N162	N	1.468342	1.336977	-0.299675
C163	C	1.130903	0.055926	-1.390063
C164	C	1.630903	0.555926	-0.890063
N165	N	1.115688	0.045158	-1.467350
N166	N	1.615688	0.545158	-0.967350
C167	C	1.013599	-0.026777	-1.285094
C168	C	1.513599	0.473223	-0.785094
N169	N	0.952102	-0.070184	-1.320968
N170	N	1.452102	0.429816	-0.820968
H171	H	0.775978	-0.000993	-0.742777
H172	H	1.275978	0.499007	-0.242777
H173	H	1.030647	-0.014585	-0.960228
H174	H	1.530647	0.485415	-0.460228
C175	C	0.976115	-0.053148	-1.141847
C176	C	1.476115	0.446852	-0.641847
N177	N	0.914616	-0.096547	-1.177732
N178	N	1.414616	0.403453	-0.677732
H179	H	1.434317	0.619289	-0.471741
H180	H	1.934317	1.119289	0.028259
C181	C	1.013366	0.456490	-0.767823
C182	C	1.513366	0.956490	-0.267823
N183	N	0.951835	0.420608	-0.811153
N184	N	1.451835	0.920608	-0.311153
C185	C	1.416824	0.435815	-0.483922
C186	C	1.916824	0.935815	0.016078
N187	N	1.463104	0.394408	-0.451341
N188	N	1.963104	0.894408	0.048659
C189	C	1.130674	0.351558	-0.685210
C190	C	1.630674	0.851558	-0.185210
N191	N	1.115426	0.274277	-0.695935
N192	N	1.615426	0.774277	-0.195935
C193	C	1.338145	0.202292	-1.004961
C194	C	1.838145	0.702292	-0.504961
N195	N	1.353380	0.213053	-0.927678
N196	N	1.853380	0.713053	-0.427678
C197	C	1.455457	0.284955	-1.109938
C198	C	1.955457	0.784955	-0.609938
N199	N	1.516990	0.328308	-1.074082
N200	N	2.016990	0.828308	-0.574082
H201	H	0.655465	-0.102243	-0.844258
H202	H	1.155465	0.397757	-0.344258
H203	H	0.496074	-0.068882	-0.810860
H204	H	0.996074	0.431118	-0.310860
