data_functionalizedCrystal
_audit_creation_method	'MofGen! by Chris Wilmer'
_symmetry_space_group_name_H-M	'P1'
_symmetry_Int_Tables_number	1
_symmetry_cell_setting	triclinic
loop_
_symmetry_equiv_pos_as_xyz
  x,y,z
_cell_length_a	15.944551
_cell_length_b	14.971486
_cell_length_c	14.048226
_cell_angle_alpha	90.006640
_cell_angle_beta	89.989347
_cell_angle_gamma	96.443567
loop_
_atom_site_label
_atom_site_type_symbol
_atom_site_fract_x
_atom_site_fract_y
_atom_site_fract_z
O1	O	1.114636	-0.115362	-0.079254
O2	O	1.614636	0.384638	0.420746
O3	O	0.870100	-0.129584	-0.079235
O4	O	1.370100	0.370416	0.420765
O5	O	0.998922	0.007734	-0.079238
O6	O	1.498922	0.507734	0.420762
O7	O	0.985814	-0.252680	-0.079251
O8	O	1.485814	0.247320	0.420749
O9	O	0.998907	0.007742	0.079083
O10	O	1.498907	0.507742	0.579083
O11	O	0.870085	-0.129576	0.079086
O12	O	1.370085	0.370424	0.579086
O13	O	1.114621	-0.115354	0.079068
O14	O	1.614621	0.384646	0.579068
Zn15	Zn	0.992350	-0.122464	0.104214
Zn16	Zn	1.492350	0.377536	0.604214
Zn17	Zn	0.992371	-0.122474	-0.104381
Zn18	Zn	1.492371	0.377526	0.395619
O19	O	0.985798	-0.252672	0.079071
O20	O	1.485798	0.247328	0.579071
C21	C	0.838798	-0.128990	-0.000072
C22	C	1.338798	0.371010	0.499928
C23	C	0.745550	-0.127220	-0.000065
C24	C	1.245550	0.372780	0.499935
C25	C	0.998328	0.041062	-0.000078
C26	C	1.498328	0.541062	0.499922
C27	C	0.996572	0.140357	-0.000078
C28	C	1.496572	0.640357	0.499922
C29	C	1.145923	-0.115948	-0.000097
C30	C	1.645923	0.384052	0.499903
C31	C	1.239171	-0.117718	-0.000111
C32	C	1.739171	0.382282	0.499889
C33	C	1.454112	-0.207066	-0.000093
C34	C	1.954112	0.292934	0.499907
C35	C	1.515101	-0.165580	-0.078151
C36	C	2.015101	0.334420	0.421849
C37	C	1.409900	-0.120921	-0.000097
C38	C	1.909900	0.379079	0.499903
C39	C	1.515063	-0.165551	0.077941
C40	C	2.015063	0.334449	0.577941
C41	C	1.574815	-0.124020	-0.000080
C42	C	2.074815	0.375980	0.499920
C43	C	1.469660	-0.079411	-0.078219
C44	C	1.969660	0.420589	0.421781
C45	C	1.469616	-0.079395	0.077943
C46	C	1.969616	0.420605	0.577943
C47	C	1.530586	-0.037846	-0.000134
C48	C	2.030586	0.462154	0.499866
C49	C	1.314896	-0.119138	-0.000108
C50	C	1.814896	0.380862	0.499892
C51	C	1.669818	-0.125797	-0.000076
C52	C	2.169818	0.374203	0.499924
C53	C	0.986392	-0.286000	-0.000092
C54	C	1.486392	0.214000	0.499908
C55	C	0.988149	-0.385295	-0.000097
C56	C	1.488149	0.114705	0.499903
N57	N	0.992342	-0.122456	0.246575
N58	N	1.492342	0.377544	0.746575
C59	C	1.072251	0.197664	-0.000083
C60	C	1.572251	0.697664	0.499917
C61	C	1.070595	0.290962	-0.000093
C62	C	1.570595	0.790962	0.499907
C63	C	0.993259	0.326951	-0.000090
C64	C	1.493259	0.826951	0.499910
C65	C	0.917574	0.269637	-0.000088
C66	C	1.417574	0.769637	0.499912
C67	C	0.919230	0.176341	-0.000086
C68	C	1.419230	0.676341	0.499914
C69	C	0.914127	0.464095	-0.000092
C70	C	1.414127	0.964095	0.499908
C71	C	0.912470	0.557398	-0.000092
C72	C	1.412470	1.057398	0.499908
C73	C	1.065491	0.578717	-0.000099
C74	C	1.565491	1.078717	0.499901
C75	C	1.067148	0.485421	-0.000096
C76	C	1.567148	0.985421	0.499904
C77	C	0.991462	0.428113	-0.000092
C78	C	1.491462	0.928113	0.499908
N79	N	0.992385	-0.122475	-0.246742
N80	N	1.492385	0.377525	0.253258
C81	C	1.049403	-0.061676	0.296391
C82	C	1.549403	0.438324	0.796391
C83	C	1.049408	-0.061676	0.396049
C84	C	1.549408	0.438324	0.896049
C85	C	0.992357	-0.122460	0.445888
C86	C	1.492357	0.377540	0.945888
C87	C	0.935290	-0.183242	0.396064
C88	C	1.435290	0.316758	0.896064
C89	C	0.935281	-0.183238	0.296408
C90	C	1.435281	0.316762	0.796408
C91	C	0.935315	-0.183249	0.603779
C92	C	1.435315	0.316751	1.103779
C93	C	0.935325	-0.183255	0.703441
C94	C	1.435325	0.316745	1.203441
C95	C	1.049442	-0.061687	0.703419
C96	C	1.549442	0.438313	1.203419
C97	C	1.049433	-0.061682	0.603763
C98	C	1.549433	0.438318	1.103763
C99	C	0.992367	-0.122466	0.553946
C100	C	1.492367	0.377534	1.053946
H101	H	1.420874	-0.278571	-0.000174
H102	H	1.920874	0.221429	0.499826
C103	C	1.542337	-0.214811	-0.167301
C104	C	2.042337	0.285189	0.332699
N105	N	1.562851	-0.251899	-0.234443
N106	N	2.062851	0.248101	0.265557
H107	H	1.449442	-0.042987	0.143943
H108	H	1.949442	0.457013	0.643943
C109	C	1.112159	0.005208	0.450843
C110	C	1.612159	0.505208	0.950843
N111	N	1.159418	0.055596	0.492113
N112	N	1.659418	0.555596	0.992113
C113	C	1.442621	-0.030237	-0.167476
C114	C	1.942621	0.469763	0.332524
N115	N	1.422253	0.006796	-0.234705
N116	N	1.922253	0.506796	0.265295
C117	C	1.575293	0.058837	-0.000185
C118	C	2.075293	0.558837	0.499815
N119	N	1.608966	0.131658	-0.000228
N120	N	2.108966	0.631658	0.499772
C121	C	0.830868	0.401058	-0.000082
C122	C	1.330868	0.901058	0.499918
N123	N	0.768158	0.353579	-0.000069
N124	N	1.268158	0.853579	0.499931
H125	H	1.095864	-0.012183	0.255819
H126	H	1.595864	0.487817	0.755819
C127	C	1.153849	0.353996	-0.000083
C128	C	1.653849	0.853996	0.499917
N129	N	1.216560	0.401474	-0.000071
N130	N	1.716560	0.901474	0.499929
H131	H	1.535176	-0.201999	0.143933
H132	H	2.035176	0.298001	0.643933
C133	C	0.872530	-0.250105	0.548982
C134	C	1.372530	0.249895	1.048982
N135	N	0.825242	-0.300460	0.507710
N136	N	1.325242	0.199540	1.007710
H137	H	0.854605	0.298946	-0.000092
H138	H	1.354605	0.798946	0.499908
H139	H	1.135227	0.168370	-0.000079
H140	H	1.635227	0.668370	0.499921
H141	H	0.857604	0.129681	-0.000082
H142	H	1.357604	0.629681	0.499918
C143	C	1.112212	0.005179	0.758219
C144	C	1.612212	0.505179	1.258219
N145	N	1.159490	0.055540	0.799500
N146	N	1.659490	0.555540	1.299500
H147	H	1.095892	-0.012192	0.563184
H148	H	1.595892	0.487808	1.063184
C149	C	0.872560	-0.250115	0.758262
C150	C	1.372560	0.249885	1.258262
N151	N	0.825284	-0.300474	0.799554
N152	N	1.325284	0.199526	1.299554
H153	H	1.130122	0.456122	-0.000091
H154	H	1.630122	0.956122	0.499909
C155	C	1.148747	0.641757	-0.000110
C156	C	1.648747	1.141757	0.499890
N157	N	1.211452	0.689243	-0.000117
N158	N	1.711452	1.189243	0.499883
H159	H	0.849496	0.586696	-0.000075
H160	H	1.349496	1.086696	0.499925
H161	H	0.888834	-0.232731	0.436649
H162	H	1.388834	0.267269	0.936649
H163	H	0.888816	-0.232730	0.255849
H164	H	1.388816	0.267270	0.755849
