data_functionalizedCrystal
_audit_creation_method	'MofGen! by Chris Wilmer'
_symmetry_space_group_name_H-M	'P1'
_symmetry_Int_Tables_number	1
_symmetry_cell_setting	triclinic
loop_
_symmetry_equiv_pos_as_xyz
  x,y,z
_cell_length_a	6.817900
_cell_length_b	11.102285
_cell_length_c	11.102193
_cell_angle_alpha	91.950782
_cell_angle_beta	108.604059
_cell_angle_gamma	108.605686
loop_
_atom_site_label
_atom_site_type_symbol
_atom_site_fract_x
_atom_site_fract_y
_atom_site_fract_z
V1	V	-4.111518	-0.175849	-0.396264
O2	O	-4.070547	0.008441	-0.388714
O3	O	-4.088299	-0.348670	-0.393560
O4	O	-4.088292	-0.173148	-0.569085
O5	O	-4.070554	-0.168296	-0.211974
V6	V	-4.588621	-0.153806	-0.374220
O7	O	-4.386859	-0.224204	-0.444618
O8	O	-4.763478	-0.105451	-0.325867
O9	O	-4.388634	0.019016	-0.376924
O10	O	-4.746989	-0.338096	-0.381770
O11	O	-4.746983	-0.161359	-0.558511
O12	O	-4.388641	-0.156506	-0.201399
C13	C	-3.938611	-0.390800	-0.387310
C14	C	-4.001081	-0.532084	-0.386252
C15	C	-4.090595	-0.616615	-0.502136
C16	C	-4.149265	-0.749363	-0.501130
C17	C	-4.028905	-0.713037	-0.268344
C18	C	-3.970222	-0.580291	-0.269351
C19	C	-4.183487	-0.948438	-0.635508
C20	C	-4.273042	-1.032976	-0.751400
C21	C	-4.425418	-1.010091	-0.858565
C22	C	-4.488294	-0.902673	-0.849844
C23	C	-4.398760	-0.818142	-0.733950
C24	C	-4.246337	-0.841024	-0.626789
C25	C	-3.936020	-0.381216	-0.134981
C26	C	-3.846499	-0.296683	-0.019087
C27	C	-3.694128	-0.319564	0.088088
C28	C	-3.631278	-0.426985	0.079379
C29	C	-3.720800	-0.511518	-0.036516
C30	C	-3.873163	-0.488627	-0.143691
C31	C	-3.938601	-0.166903	-0.611209
C32	C	-4.001062	-0.165838	-0.752491
C33	C	-4.121395	-0.398618	-0.788827
C34	C	-4.210897	-0.514502	-0.873367
C35	C	-4.269584	-0.513495	-1.006113
C36	C	-4.238769	-0.396590	-1.054320
C37	C	-4.149267	-0.280706	-0.969779
C38	C	-4.090580	-0.281726	-0.837032
C39	C	-4.028949	-0.047930	-0.933445
C40	C	-3.970247	-0.048934	-0.800698
C41	C	-3.998134	0.068975	-0.981652
C42	C	-3.908616	0.184862	-0.897111
C43	C	-3.849926	0.183850	-0.764358
C44	C	-3.880745	0.066950	-0.716158
C45	C	-4.201664	0.061139	-0.383170
C46	C	-4.118434	0.202421	-0.384238
C47	C	-4.201674	-0.162756	-0.159269
C48	C	-4.118451	-0.163814	-0.017985
H49	H	-4.003794	-0.752304	-0.173168
H50	H	-4.449957	-0.730687	-0.726849
Br51	Br	-3.424497	-0.458052	0.224835
H52	H	-4.060088	-0.362572	-0.222250
Br53	Br	-4.041702	-0.399992	-0.608670
H54	H	-4.235986	-0.609684	-0.834102
Br55	Br	-3.801084	0.065568	-0.536003
Br56	Br	-3.572652	-0.204846	0.245379
Br57	Br	-4.318462	-0.395227	-1.234478
H58	H	-4.342466	-0.607858	-1.074947
Br59	Br	-4.132472	-0.551195	-0.660785
Br60	Br	-3.976646	-0.979491	-0.490076
Br61	Br	-3.635505	-0.657307	-0.048337
H62	H	-4.045940	0.069786	-1.089742
H63	H	-3.883549	0.280036	-0.936373
Br64	Br	-3.728499	0.341130	-0.649635
H65	H	-4.612399	-0.884060	-0.937107
Br66	Br	-4.546962	-1.124826	-1.015843
H67	H	-3.897700	-0.209221	-0.011999
H68	H	-4.221831	-1.120434	-0.758492
