data_functionalizedCrystal
_audit_creation_method	'MofGen! by Chris Wilmer'
_symmetry_space_group_name_H-M	'P1'
_symmetry_Int_Tables_number	1
_symmetry_cell_setting	triclinic
loop_
_symmetry_equiv_pos_as_xyz
  x,y,z
_cell_length_a	18.101398
_cell_length_b	18.101395
_cell_length_c	16.625539
_cell_angle_alpha	89.972352
_cell_angle_beta	89.988670
_cell_angle_gamma	90.026661
loop_
_atom_site_label
_atom_site_type_symbol
_atom_site_fract_x
_atom_site_fract_y
_atom_site_fract_z
Zn1	Zn	1.132133	-0.294916	-0.455714
Zn2	Zn	1.382133	-0.044916	-0.205714
Zn3	Zn	1.632133	0.205084	0.044286
Zn4	Zn	1.882133	0.455084	0.294286
Zn5	Zn	1.132025	-0.418765	-0.320883
Zn6	Zn	1.382025	-0.168765	-0.070883
Zn7	Zn	1.632025	0.081235	0.179117
Zn8	Zn	1.882025	0.331235	0.429117
Zn9	Zn	1.008288	-0.294932	-0.320916
Zn10	Zn	1.258288	-0.044932	-0.070916
Zn11	Zn	1.508288	0.205068	0.179084
Zn12	Zn	1.758288	0.455068	0.429084
Zn13	Zn	1.008242	-0.418711	-0.455695
Zn14	Zn	1.258242	-0.168711	-0.205695
Zn15	Zn	1.508242	0.081289	0.044305
Zn16	Zn	1.758242	0.331289	0.294305
O17	O	1.070172	-0.356831	-0.388302
O18	O	1.320172	-0.106831	-0.138302
O19	O	1.570172	0.143169	0.111698
O20	O	1.820172	0.393169	0.361698
O21	O	1.235751	-0.311361	-0.437823
O22	O	1.485751	-0.061361	-0.187823
O23	O	1.735751	0.188639	0.062177
O24	O	1.985751	0.438639	0.312177
O25	O	1.115585	-0.402368	-0.208055
O26	O	1.365585	-0.152368	0.041945
O27	O	1.615585	0.097632	0.291945
O28	O	1.865585	0.347632	0.541945
O29	O	1.024780	-0.191297	-0.338820
O30	O	1.274780	0.058703	-0.088820
O31	O	1.524780	0.308703	0.161180
O32	O	1.774780	0.558703	0.411180
O33	O	1.235672	-0.402352	-0.338763
O34	O	1.485672	-0.152352	-0.088763
O35	O	1.735672	0.097648	0.161237
O36	O	1.985672	0.347648	0.411237
O37	O	1.115768	-0.191285	-0.437855
O38	O	1.365768	0.058715	-0.187855
O39	O	1.615768	0.308715	0.062145
O40	O	1.865768	0.558715	0.312145
O41	O	1.024676	-0.311389	-0.208080
O42	O	1.274676	-0.061389	0.041920
O43	O	1.524676	0.188611	0.291920
O44	O	1.774676	0.438611	0.541920
O45	O	0.904649	-0.311336	-0.338801
O46	O	1.154649	-0.061336	-0.088801
O47	O	1.404649	0.188664	0.161199
O48	O	1.654649	0.438664	0.411199
O49	O	1.024702	-0.402260	-0.568530
O50	O	1.274702	-0.152260	-0.318530
O51	O	1.524702	0.097740	-0.068530
O52	O	1.774702	0.347740	0.181470
O53	O	0.904615	-0.402275	-0.437822
O54	O	1.154615	-0.152275	-0.187822
O55	O	1.404615	0.097725	0.062178
O56	O	1.654615	0.347725	0.312178
O57	O	1.115724	-0.311308	-0.568544
O58	O	1.365724	-0.061308	-0.318544
O59	O	1.615724	0.188692	-0.068544
O60	O	1.865724	0.438692	0.181456
O61	O	1.115541	-0.522391	-0.338744
O62	O	1.365541	-0.272391	-0.088744
O63	O	1.615541	-0.022391	0.161256
O64	O	1.865541	0.227609	0.411256
O65	O	1.024598	-0.522351	-0.437789
O66	O	1.274598	-0.272351	-0.187789
O67	O	1.524598	-0.022351	0.062211
O68	O	1.774598	0.227649	0.312211
C69	C	0.877761	-0.356802	-0.388313
C70	C	1.127761	-0.106802	-0.138313
C71	C	1.377761	0.143198	0.111687
C72	C	1.627761	0.393198	0.361687
C73	C	0.795447	-0.356807	-0.388337
C74	C	1.045447	-0.106807	-0.138337
C75	C	1.295447	0.143193	0.111663
C76	C	1.545447	0.393193	0.361663
C77	C	0.496356	-0.356851	-0.388304
C78	C	0.746356	-0.106851	-0.138304
C79	C	0.996356	0.143149	0.111696
C80	C	1.246356	0.393149	0.361696
C81	C	0.527685	-0.414344	-0.450297
C82	C	0.777685	-0.164344	-0.200297
C83	C	1.027685	0.085656	0.049703
C84	C	1.277685	0.335656	0.299703
C85	C	0.613303	-0.414164	-0.450552
C86	C	0.863303	-0.164164	-0.200552
C87	C	1.113303	0.085836	0.049448
C88	C	1.363303	0.335836	0.299448
C89	C	0.644739	-0.356830	-0.388320
C90	C	0.894739	-0.106830	-0.138320
C91	C	1.144739	0.143170	0.111680
C92	C	1.394739	0.393170	0.361680
C93	C	0.613685	-0.278827	-0.411539
C94	C	0.863685	-0.028827	-0.161539
C95	C	1.113685	0.221173	0.088461
C96	C	1.363685	0.471173	0.338461
C97	C	0.528040	-0.279173	-0.411980
C98	C	0.778040	-0.029173	-0.161980
C99	C	1.028040	0.220827	0.088020
C100	C	1.278040	0.470827	0.338020
C101	C	0.527902	-0.376673	-0.302942
C102	C	0.777902	-0.126673	-0.052942
C103	C	1.027902	0.123327	0.197058
C104	C	1.277902	0.373327	0.447058
C105	C	0.613552	-0.378384	-0.303398
C106	C	0.863552	-0.128384	-0.053398
C107	C	1.113552	0.121616	0.196602
C108	C	1.363552	0.371616	0.446602
C109	C	0.728598	-0.356813	-0.388328
C110	C	0.978598	-0.106813	-0.138328
C111	C	1.228598	0.143187	0.111672
C112	C	1.478598	0.393187	0.361672
C113	C	0.412497	-0.356862	-0.388297
C114	C	0.662497	-0.106862	-0.138297
C115	C	0.912497	0.143138	0.111703
C116	C	1.162497	0.393138	0.361703
C117	C	1.070073	-0.549242	-0.388278
C118	C	1.320073	-0.299242	-0.138278
C119	C	1.570073	-0.049242	0.111722
C120	C	1.820073	0.200758	0.361722
C121	C	1.070098	-0.631556	-0.388295
C122	C	1.320098	-0.381556	-0.138295
C123	C	1.570098	-0.131556	0.111705
C124	C	1.820098	0.118444	0.361705
C125	C	1.070261	-0.930647	-0.388339
C126	C	1.320261	-0.680647	-0.138339
C127	C	1.570261	-0.430647	0.111661
C128	C	1.820261	-0.180647	0.361661
C129	C	1.013175	-0.899327	-0.450810
C130	C	1.263175	-0.649327	-0.200810
C131	C	1.513175	-0.399327	0.049190
C132	C	1.763175	-0.149327	0.299190
C133	C	1.012903	-0.813709	-0.450615
C134	C	1.262903	-0.563709	-0.200615
C135	C	1.512903	-0.313709	0.049385
C136	C	1.762903	-0.063709	0.299385
C137	C	1.070180	-0.782264	-0.388318
C138	C	1.320180	-0.532264	-0.138318
C139	C	1.570180	-0.282264	0.111682
C140	C	1.820180	-0.032264	0.361682
C141	C	1.049049	-0.813414	-0.303344
C142	C	1.299049	-0.563414	-0.053344
C143	C	1.549049	-0.313414	0.196656
C144	C	1.799049	-0.063414	0.446656
C145	C	1.048681	-0.899060	-0.303717
C146	C	1.298681	-0.649060	-0.053717
C147	C	1.548681	-0.399060	0.196283
C148	C	1.798681	-0.149060	0.446283
C149	C	1.148603	-0.898996	-0.410093
C150	C	1.398603	-0.648996	-0.160093
C151	C	1.648603	-0.398996	0.089907
C152	C	1.898603	-0.148996	0.339907
C153	C	1.148142	-0.813345	-0.411957
C154	C	1.398142	-0.563345	-0.161957
C155	C	1.648142	-0.313345	0.088043
C156	C	1.898142	-0.063345	0.338043
C157	C	1.070136	-0.698405	-0.388301
C158	C	1.320136	-0.448405	-0.138301
C159	C	1.570136	-0.198405	0.111699
C160	C	1.820136	0.051595	0.361699
C161	C	1.070303	-1.014506	-0.388350
C162	C	1.320303	-0.764506	-0.138350
C163	C	1.570303	-0.514506	0.111650
C164	C	1.820303	-0.264506	0.361650
C165	C	1.263334	-0.356861	-0.388291
C166	C	1.513334	-0.106861	-0.138291
C167	C	1.763334	0.143139	0.111709
C168	C	2.013334	0.393139	0.361709
C169	C	1.345648	-0.356874	-0.388287
C170	C	1.595648	-0.106874	-0.138287
C171	C	1.845648	0.143126	0.111713
C172	C	2.095648	0.393126	0.361713
C173	C	1.070220	-0.356776	-0.598611
C174	C	1.320220	-0.106776	-0.348611
C175	C	1.570220	0.143224	-0.098611
C176	C	1.820220	0.393224	0.151389
C177	C	1.070241	-0.356752	-0.688232
C178	C	1.320241	-0.106752	-0.438232
C179	C	1.570241	0.143248	-0.188232
C180	C	1.820241	0.393248	0.061768
C181	C	1.070292	-0.163669	-0.388344
C182	C	1.320292	0.086331	-0.138344
C183	C	1.570292	0.336331	0.111656
C184	C	1.820292	0.586331	0.361656
C185	C	1.070343	-0.081355	-0.388361
C186	C	1.320343	0.168645	-0.138361
C187	C	1.570343	0.418645	0.111639
C188	C	1.820343	0.668645	0.361639
C189	C	1.070275	-0.356670	-1.016408
C190	C	1.320275	-0.106670	-0.766408
C191	C	1.570275	0.143330	-0.516408
C192	C	1.820275	0.393330	-0.266408
C193	C	1.070263	-0.356695	-0.925100
C194	C	1.320263	-0.106695	-0.675100
C195	C	1.570263	0.143305	-0.425100
C196	C	1.820263	0.393305	-0.175100
C197	C	1.070258	-0.356712	-0.852323
C198	C	1.320258	-0.106712	-0.602323
C199	C	1.570258	0.143288	-0.352323
C200	C	1.820258	0.393288	-0.102323
C201	C	1.070246	-0.356736	-0.761009
C202	C	1.320246	-0.106736	-0.511009
C203	C	1.570246	0.143264	-0.261009
C204	C	1.820246	0.393264	-0.011009
C205	C	1.070167	-0.356833	-0.178811
C206	C	1.320167	-0.106833	0.071189
C207	C	1.570167	0.143167	0.321189
C208	C	1.820167	0.393167	0.571189
C209	C	1.070290	-0.356648	-0.089191
C210	C	1.320290	-0.106648	0.160809
C211	C	1.570290	0.143352	0.410809
C212	C	1.820290	0.393352	0.660809
H213	H	0.634298	-0.472007	-0.436000
H214	H	0.884298	-0.222007	-0.186000
H215	H	1.134298	0.027993	0.064000
H216	H	1.384298	0.277993	0.314000
H217	H	0.634048	-0.234829	-0.367794
H218	H	0.884048	0.015171	-0.117794
H219	H	1.134048	0.265171	0.132206
H220	H	1.384048	0.515171	0.382206
Br221	Br	0.647485	-0.392306	-0.555970
Br222	Br	0.897485	-0.142306	-0.305970
Br223	Br	1.147485	0.107694	-0.055970
Br224	Br	1.397485	0.357694	0.194030
Br225	Br	0.494768	-0.251152	-0.515989
Br226	Br	0.744768	-0.001152	-0.265989
Br227	Br	0.994768	0.248848	-0.015989
Br228	Br	1.244768	0.498848	0.234011
H229	H	0.506176	-0.401396	-0.513179
H230	H	0.756176	-0.151396	-0.263179
H231	H	1.006176	0.098604	-0.013179
H232	H	1.256176	0.348604	0.236821
H233	H	1.089319	-0.793047	-0.255529
H234	H	1.339319	-0.543047	-0.005529
H235	H	1.589319	-0.293047	0.244471
H236	H	1.839319	-0.043047	0.494471
Br237	Br	0.649460	-0.250296	-0.514418
Br238	Br	0.899460	-0.000296	-0.264418
Br239	Br	1.149460	0.249704	-0.014418
Br240	Br	1.399460	0.499704	0.235582
H241	H	1.026265	-0.919876	-0.514022
H242	H	1.276265	-0.669876	-0.264022
H243	H	1.526265	-0.419876	-0.014022
H244	H	1.776265	-0.169876	0.235978
H245	H	0.955459	-0.920909	-0.436582
H246	H	1.205459	-0.670909	-0.186582
H247	H	1.455459	-0.420909	0.063418
H248	H	1.705459	-0.170909	0.313418
H249	H	0.954834	-0.793282	-0.436205
H250	H	1.204834	-0.543282	-0.186205
H251	H	1.454834	-0.293282	0.063795
H252	H	1.704834	-0.043282	0.313795
Br253	Br	0.493495	-0.205357	-0.340006
Br254	Br	0.743495	0.044643	-0.090006
Br255	Br	0.993495	0.294643	0.159994
Br256	Br	1.243495	0.544643	0.409994
Br257	Br	0.491863	-0.469846	-0.267762
Br258	Br	0.741863	-0.219846	-0.017762
Br259	Br	0.991863	0.030154	0.232238
Br260	Br	1.241863	0.280154	0.482238
Br261	Br	0.953232	-0.932463	-0.272998
Br262	Br	1.203232	-0.682463	-0.022998
Br263	Br	1.453232	-0.432463	0.227002
Br264	Br	1.703232	-0.182463	0.477002
H265	H	0.634950	-0.339550	-0.254727
H266	H	0.884950	-0.089550	-0.004727
H267	H	1.134950	0.160450	0.245273
H268	H	1.384950	0.410450	0.495273
Br269	Br	1.034937	-0.778598	-0.555633
Br270	Br	1.284937	-0.528598	-0.305633
Br271	Br	1.534937	-0.278598	-0.055633
Br272	Br	1.784937	-0.028598	0.194367
Br273	Br	0.647376	-0.474060	-0.274214
Br274	Br	0.897376	-0.224060	-0.024214
Br275	Br	1.147376	0.025940	0.225786
Br276	Br	1.397376	0.275940	0.475786
Br277	Br	0.494134	-0.306876	-0.225952
Br278	Br	0.744134	-0.056876	0.024048
Br279	Br	0.994134	0.193124	0.274048
Br280	Br	1.244134	0.443124	0.524048
H281	H	1.088456	-0.919780	-0.255585
H282	H	1.338456	-0.669780	-0.005585
H283	H	1.588456	-0.419780	0.244415
H284	H	1.838456	-0.169780	0.494415
Br285	Br	1.174706	-0.779410	-0.516190
Br286	Br	1.424706	-0.529410	-0.266190
Br287	Br	1.674706	-0.279410	-0.016190
Br288	Br	1.924706	-0.029410	0.233810
H289	H	1.167868	-0.920546	-0.471000
H290	H	1.417868	-0.670546	-0.221000
H291	H	1.667868	-0.420546	0.029000
H292	H	1.917868	-0.170546	0.279000
H293	H	0.992387	-0.792025	-0.284583
H294	H	1.242387	-0.542025	-0.034583
H295	H	1.492387	-0.292025	0.215417
H296	H	1.742387	-0.042025	0.465417
Br297	Br	1.222788	-0.777657	-0.341653
Br298	Br	1.472788	-0.527657	-0.091653
Br299	Br	1.722788	-0.277657	0.158347
Br300	Br	1.972788	-0.027657	0.408347
H301	H	0.507069	-0.472376	-0.435908
H302	H	0.757069	-0.222376	-0.185908
H303	H	1.007069	0.027624	0.064092
H304	H	1.257069	0.277624	0.314092
Br305	Br	1.219495	-0.932768	-0.334270
Br306	Br	1.469495	-0.682768	-0.084270
Br307	Br	1.719495	-0.432768	0.165730
Br308	Br	1.969495	-0.182768	0.415730
