data_functionalizedCrystal
_audit_creation_method	'MofGen! by Chris Wilmer'
_symmetry_space_group_name_H-M	'P1'
_symmetry_Int_Tables_number	1
_symmetry_cell_setting	triclinic
loop_
_symmetry_equiv_pos_as_xyz
  x,y,z
_cell_length_a	27.780936
_cell_length_b	27.780883
_cell_length_c	27.780884
_cell_angle_alpha	90.001850
_cell_angle_beta	59.997716
_cell_angle_gamma	119.999690
loop_
_atom_site_label
_atom_site_type_symbol
_atom_site_fract_x
_atom_site_fract_y
_atom_site_fract_z
O1	O	-0.424589	-0.410270	0.754804
O2	O	-0.326020	-0.340272	0.586236
O3	O	-0.424587	-0.340270	0.684802
O4	O	-0.326022	-0.410272	0.656238
O5	O	-0.344528	-0.260211	0.684802
O6	O	-0.245960	-0.260213	0.586236
O7	O	-0.344530	-0.330211	0.754804
Cu8	Cu	-0.287935	-0.287902	0.670520
Cu9	Cu	-0.382615	-0.382581	0.670520
O10	O	-0.245963	-0.330213	0.656238
C11	C	-0.579990	-0.207594	0.700430
C12	C	-0.639397	-0.237297	0.696342
C13	C	-0.551163	-0.236698	0.700837
C14	C	-0.492823	-0.120429	0.700430
C15	C	-0.459031	-0.056934	0.696342
C16	C	-0.464128	-0.149665	0.700837
C17	C	-0.492824	-0.207596	0.700430
C18	C	-0.459034	-0.237301	0.696342
C19	C	-0.551161	-0.149664	0.700837
C20	C	-0.431734	-0.261299	0.693038
C21	C	-0.687391	-0.261293	0.693038
C22	C	-0.431730	-0.005637	0.693038
C23	C	-0.397485	-0.291406	0.688894
C24	C	-0.747602	-0.291398	0.688895
C25	C	-0.397479	0.058718	0.688894
O26	O	-0.905271	-0.410264	0.656238
O27	O	-0.765271	-0.340263	0.684802
O28	O	-0.765268	-0.340265	0.586236
O29	O	-0.905274	-0.410262	0.754804
O30	O	-0.765268	-0.260205	0.586236
O31	O	-0.765271	-0.260203	0.684802
O32	O	-0.905272	-0.330205	0.656238
Cu33	Cu	-0.835272	-0.287894	0.670520
Cu34	Cu	-0.835271	-0.382574	0.670520
O35	O	-0.905275	-0.330203	0.754804
C36	C	-0.177732	-0.207595	0.298163
C37	C	-0.211525	-0.237299	0.268460
C38	C	-0.119396	-0.149664	0.269061
C39	C	-0.177729	-0.207597	0.385327
C40	C	-0.211517	-0.237302	0.448822
C41	C	-0.119392	-0.149666	0.356093
C42	C	-0.090567	-0.120429	0.298163
C43	C	-0.031162	-0.056934	0.268461
C44	C	-0.206425	-0.236699	0.356093
C45	C	0.016831	-0.005636	0.244464
C46	C	-0.238827	-0.261295	0.244464
C47	C	-0.238816	-0.261300	0.500119
C48	C	0.077040	0.058720	0.214360
C49	C	-0.273077	-0.291400	0.214359
C50	C	-0.273063	-0.291407	0.564473
C51	C	-0.090552	-0.462879	0.640609
C52	C	-0.031145	-0.433174	0.644697
C53	C	-0.119379	-0.520810	0.640202
C54	C	-0.177719	-0.462881	0.640609
C55	C	-0.211512	-0.433178	0.644697
C56	C	-0.206413	-0.520811	0.640202
C57	C	-0.177717	-0.550046	0.640609
C58	C	-0.211507	-0.613540	0.644697
C59	C	-0.119381	-0.433777	0.640202
C60	C	-0.238806	-0.664838	0.648001
C61	C	0.016848	-0.409176	0.648001
C62	C	-0.238814	-0.409182	0.648001
C63	C	-0.273055	-0.729193	0.652144
C64	C	0.077060	-0.379070	0.652145
C65	C	-0.273064	-0.379077	0.652145
O66	O	-0.326011	0.249046	0.656237
O67	O	-0.424580	0.080482	0.684801
O68	O	-0.326011	0.179044	0.586235
O69	O	-0.424580	0.150484	0.754803
O70	O	-0.245954	0.179041	0.586235
O71	O	-0.344523	0.080479	0.684801
O72	O	-0.245953	0.249043	0.656237
Cu73	Cu	-0.287928	0.164760	0.670519
Cu74	Cu	-0.382605	0.164765	0.670519
O75	O	-0.344522	0.150481	0.754803
O76	O	0.234705	0.249046	0.175560
O77	O	0.094710	0.080481	0.245555
O78	O	0.094702	0.179041	0.245567
O79	O	0.234714	0.150486	0.175548
O80	O	0.094699	0.179043	0.165508
O81	O	0.094707	0.080483	0.165497
O82	O	0.234702	0.249048	0.095501
Cu83	Cu	0.164705	0.164766	0.123189
Cu84	Cu	0.164708	0.164763	0.217867
O85	O	0.234711	0.150488	0.095490
O86	O	-0.344547	-0.330206	0.095500
O87	O	-0.245978	-0.260205	0.165496
O88	O	-0.344550	-0.260209	0.165507
O89	O	-0.245975	-0.330202	0.095489
O90	O	-0.424605	-0.340270	0.245566
O91	O	-0.326033	-0.340266	0.245554
O92	O	-0.424602	-0.410267	0.175558
Cu93	Cu	-0.382627	-0.382576	0.217866
Cu94	Cu	-0.287953	-0.287895	0.123188
O95	O	-0.326030	-0.410263	0.175547
C96	C	-0.580005	-0.550043	1.042885
C97	C	-0.639413	-0.613538	1.072589
C98	C	-0.551178	-0.520808	1.071989
C99	C	-0.492836	-0.462879	0.955718
C100	C	-0.459042	-0.433176	0.892221
C101	C	-0.464142	-0.433776	0.984954
C102	C	-0.492839	-0.462878	1.042886
C103	C	-0.459049	-0.433174	1.072590
C104	C	-0.551175	-0.520809	0.984953
C105	C	-0.431750	-0.409177	1.096588
C106	C	-0.687408	-0.664835	1.096586
C107	C	-0.431740	-0.409180	0.840923
C108	C	-0.397502	-0.379071	1.126694
C109	C	-0.747620	-0.729189	1.126692
C110	C	-0.397488	-0.379075	0.776566
C111	C	-0.492811	-0.120437	0.298153
C112	C	-0.459018	-0.056943	0.268448
C113	C	-0.464114	-0.149673	0.269051
C114	C	-0.579980	-0.207601	0.385322
C115	C	-0.639389	-0.237302	0.448818
C116	C	-0.551151	-0.236705	0.356087
C117	C	-0.492811	-0.207604	0.298155
C118	C	-0.459019	-0.237308	0.268452
C119	C	-0.551151	-0.149670	0.356085
C120	C	-0.431718	-0.261306	0.244455
C121	C	-0.431716	-0.005646	0.244450
C122	C	-0.687384	-0.261298	0.500117
C123	C	-0.397468	-0.291413	0.214350
C124	C	-0.397466	0.058709	0.214343
C125	C	-0.747598	-0.291401	0.564473
C126	C	-1.177733	-0.462874	1.042887
C127	C	-1.211527	-0.433171	1.072592
C128	C	-1.206428	-0.520804	1.071989
C129	C	-1.090563	-0.462873	0.955718
C130	C	-1.031154	-0.433170	0.892222
C131	C	-1.119390	-0.520803	0.984953
C132	C	-1.177730	-0.550038	1.042885
C133	C	-1.211521	-0.613533	1.072588
C134	C	-1.119393	-0.433771	0.984955
C135	C	-1.238821	-0.664830	1.096585
C136	C	-1.238829	-0.409174	1.096591
C137	C	-0.983158	-0.409173	0.840923
C138	C	-1.273070	-0.729185	1.126690
C139	C	-1.273081	-0.379069	1.126698
C140	C	-0.922945	-0.379067	0.776567
C141	C	-0.090536	0.194663	0.298155
C142	C	-0.031130	0.190572	0.268452
C143	C	-0.119361	0.195072	0.269050
C144	C	-0.177704	0.194667	0.385321
C145	C	-0.211498	0.190580	0.448817
C146	C	-0.206397	0.195075	0.356084
C147	C	-0.177699	0.194667	0.298152
C148	C	-0.211487	0.190581	0.268447
C149	C	-0.119367	0.195071	0.356087
C150	C	-0.238786	0.187279	0.244448
C151	C	0.016864	0.187266	0.244456
C152	C	-0.238802	0.187277	0.500116
C153	C	-0.273032	0.183137	0.214341
C154	C	0.077075	0.183119	0.214351
C155	C	-0.273054	0.183135	0.564473
O156	O	-0.245930	0.249036	0.095480
O157	O	-0.344507	0.080470	0.165477
O158	O	-0.245943	0.179026	0.165484
O159	O	-0.344494	0.150479	0.095474
O160	O	-0.326005	0.179029	0.245544
O161	O	-0.424569	0.080472	0.245538
O162	O	-0.325992	0.249038	0.175541
Cu163	Cu	-0.382591	0.164756	0.217849
Cu164	Cu	-0.287908	0.164752	0.123169
O165	O	-0.424556	0.150482	0.175534
C166	C	-0.492813	0.134877	1.042879
C167	C	-0.459028	0.138953	1.072585
C168	C	-0.551140	0.134489	1.071978
C169	C	-0.492810	0.134881	0.955711
C170	C	-0.459022	0.138960	0.892217
C171	C	-0.551137	0.134493	0.984943
C172	C	-0.579961	0.134908	1.042872
C173	C	-0.639355	0.139016	1.072571
C174	C	-0.464122	0.134462	0.984949
C175	C	-0.687338	0.142336	1.096565
C176	C	-0.431733	0.142247	1.096584
C177	C	-0.431724	0.142257	0.840920
C178	C	-0.747536	0.146500	1.126666
C179	C	-0.397490	0.146378	1.126692
C180	C	-0.397478	0.146393	0.776565
H181	H	-0.417173	-0.126186	0.701474
H182	H	-0.575300	-0.544284	0.961482
H183	H	-0.253365	-0.284299	0.379560
H184	H	-0.575279	-0.284302	0.379563
O185	O	-0.583115	-0.299747	0.701704
H186	H	-0.628601	-0.315159	0.701906
H187	H	-0.253357	-0.544282	0.639548
H188	H	-0.095267	-0.126196	0.379567
O189	O	-1.268602	-0.551898	1.135044
H190	H	-1.310932	-0.591913	1.137633
O191	O	-0.087430	-0.118569	0.206010
H192	H	-0.117298	-0.148643	0.190596
O193	O	-0.087426	-0.551905	0.639336
H194	H	-0.041941	-0.521832	0.639134
O195	O	-0.583105	-0.118575	0.387173
H196	H	-0.583362	-0.116249	0.427179
O197	O	-0.087427	-0.370727	0.639330
H198	H	-0.041934	-0.355310	0.639118
H199	H	-0.417195	-0.386179	0.961478
O200	O	-0.583133	-0.551892	1.135039
H201	H	-0.628620	-0.597175	1.150452
O202	O	-0.401930	-0.118590	0.206001
H203	H	-0.386719	-0.073307	0.190587
H204	H	-0.417184	0.133798	0.961481
H205	H	-1.095255	-0.544270	0.961480
O206	O	-1.087428	-0.370722	0.953861
H207	H	-1.117294	-0.355306	0.983938
O208	O	-0.268575	0.195950	0.387168
H209	H	-0.283782	0.196162	0.432449
O210	O	-0.087408	0.195935	0.206001
H211	H	-0.041923	0.196135	0.190589
H212	H	-0.575285	-0.126191	0.701485
H213	H	-0.095234	0.195734	0.379555
O214	O	-0.583097	0.133632	0.953856
H215	H	-0.553238	0.133411	0.908578
H216	H	-0.575266	0.133833	1.119578
