data_functionalizedCrystal
_audit_creation_method	'MofGen! by Chris Wilmer'
_symmetry_space_group_name_H-M	'P1'
_symmetry_Int_Tables_number	1
_symmetry_cell_setting	triclinic
loop_
_symmetry_equiv_pos_as_xyz
  x,y,z
_cell_length_a	10.723024
_cell_length_b	17.038278
_cell_length_c	9.198806
_cell_angle_alpha	89.989653
_cell_angle_beta	89.996352
_cell_angle_gamma	87.789185
loop_
_atom_site_label
_atom_site_type_symbol
_atom_site_fract_x
_atom_site_fract_y
_atom_site_fract_z
O1	O	1.667335	0.109720	-0.120909
O2	O	1.305154	0.120222	-0.120917
O3	O	1.484094	0.001144	-0.120876
O4	O	1.488396	0.228799	-0.120950
O5	O	1.484079	0.001144	0.120909
O6	O	1.305139	0.120222	0.120868
O7	O	1.667320	0.109720	0.120876
Cu8	Cu	1.486228	0.114971	0.142949
Cu9	Cu	1.486246	0.114971	-0.142990
O10	O	1.488381	0.228798	0.120835
C11	C	1.258577	0.119458	-0.000025
C12	C	1.119811	0.117171	-0.000026
C13	C	1.050991	0.183801	-0.000048
C14	C	0.907569	0.181440	-0.000050
C15	C	1.480171	-0.028006	0.000023
C16	C	1.468490	-0.114864	0.000042
C17	C	1.396729	-0.605672	-0.000093
C18	C	1.407714	-0.524061	-0.000078
C19	C	1.525955	-0.491974	-0.000056
C20	C	1.633218	-0.541502	-0.000063
C21	C	1.622232	-0.623112	-0.000088
C22	C	1.564767	-0.246002	0.000010
C23	C	1.575745	-0.164386	0.000039
C24	C	1.350240	-0.146950	0.000021
C25	C	1.339264	-0.228562	0.000005
C26	C	1.446527	-0.278083	-0.000010
C27	C	1.537187	-0.408554	-0.000037
C28	C	1.435295	-0.361501	-0.000039
C29	C	1.713898	0.110484	-0.000020
C30	C	1.852664	0.112771	-0.000028
C31	C	1.492303	0.257948	-0.000067
C32	C	1.503984	0.344806	-0.000095
N33	N	1.486225	0.114970	0.344063
N34	N	1.486259	0.114966	-0.344104
C35	C	1.561336	0.064752	0.416277
C36	C	1.561355	0.064749	0.583689
H37	H	1.300445	-0.631790	-0.000094
Br38	Br	1.178788	-0.272103	-0.000025
Br39	Br	1.710340	-0.313200	0.000002
H40	H	1.729493	-0.515371	-0.000042
H41	H	1.709571	-0.663433	-0.000096
Br42	Br	1.041055	0.019173	0.000022
Br43	Br	1.262147	-0.456854	-0.000095
H44	H	0.848412	0.238480	-0.000075
H45	H	1.625666	0.021758	0.645790
H46	H	1.262913	-0.106621	0.000031
H47	H	1.672036	-0.138264	0.000058
H48	H	1.339023	-0.387630	-0.000065
H49	H	1.633459	-0.382420	0.000030
H50	H	1.625624	0.021757	0.354165
H51	H	1.421928	0.157959	0.406176
Br52	Br	1.129746	0.281800	-0.000071
Br53	Br	1.379079	0.186638	0.552408
H54	H	0.911813	0.055727	-0.000018
