data_functionalizedCrystal
_audit_creation_method	'MofGen! by Chris Wilmer'
_symmetry_space_group_name_H-M	'P1'
_symmetry_Int_Tables_number	1
_symmetry_cell_setting	triclinic
loop_
_symmetry_equiv_pos_as_xyz
  x,y,z
_cell_length_a	10.654541
_cell_length_b	11.792241
_cell_length_c	9.730217
_cell_angle_alpha	89.996588
_cell_angle_beta	89.999932
_cell_angle_gamma	84.338672
loop_
_atom_site_label
_atom_site_type_symbol
_atom_site_fract_x
_atom_site_fract_y
_atom_site_fract_z
O1	O	1.667388	0.159405	-0.114248
O2	O	1.301866	0.174596	-0.114261
O3	O	1.493497	0.001850	-0.114245
O4	O	1.475756	0.332151	-0.114264
O5	O	1.493491	0.001849	0.114336
O6	O	1.301860	0.174595	0.114320
O7	O	1.667382	0.159403	0.114332
Zn8	Zn	1.484620	0.166999	0.150618
Zn9	Zn	1.484628	0.167001	-0.150547
O10	O	1.475750	0.332149	0.114316
C11	C	1.255068	0.173481	0.000028
C12	C	1.115634	0.170145	0.000024
C13	C	1.087078	0.376710	-0.000006
C14	C	1.007297	0.478420	-0.000026
C15	C	0.876287	0.475279	-0.000027
C16	C	0.825059	0.370416	-0.000004
C17	C	0.904841	0.268706	0.000016
C18	C	1.035851	0.271858	0.000013
C19	C	0.933396	0.062144	0.000056
C20	C	1.064405	0.065282	0.000047
C21	C	0.882167	-0.042719	0.000079
C22	C	0.961949	-0.144432	0.000089
C23	C	1.092966	-0.141286	0.000089
C24	C	1.144187	-0.036428	0.000067
C25	C	1.492380	-0.040444	0.000045
C26	C	1.489044	-0.166465	0.000044
C27	C	1.482911	-0.397192	0.000020
C28	C	1.486319	-0.268799	0.000033
C29	C	1.714180	0.160519	0.000040
C30	C	1.853614	0.163854	0.000035
C31	C	1.476868	0.374443	0.000023
C32	C	1.480203	0.500465	0.000015
N33	N	1.484624	0.166997	0.356154
N34	N	1.484634	0.166994	-0.356083
C35	C	1.654383	0.014075	0.356159
C36	C	1.739271	-0.062382	0.428101
C37	C	1.739283	-0.062383	0.571981
C38	C	1.654397	0.014080	0.643922
C39	C	1.569509	0.090537	0.571979
C40	C	1.569508	0.090532	0.428096
C41	C	1.399746	0.243451	0.571975
C42	C	1.399737	0.243459	0.428095
C43	C	1.314859	0.319914	0.643916
C44	C	1.229975	0.396379	0.571973
C45	C	1.229966	0.396377	0.428085
C46	C	1.314849	0.319917	0.356153
H47	H	1.654391	0.014077	0.239004
C48	C	1.814665	-0.130273	0.792548
C49	C	1.832589	-0.146426	0.651070
H50	H	1.872263	-0.182163	0.841372
H51	H	1.828811	-0.054412	0.816105
H52	H	1.730766	-0.143310	0.816118
H53	H	1.916485	-0.133381	0.627499
H54	H	1.818452	-0.222305	0.627504
C55	C	1.561967	0.097325	0.850028
C56	C	1.654396	0.014070	0.802077
H57	H	1.561961	0.097311	0.947667
H58	H	1.579646	0.170007	0.817486
H59	H	1.481605	0.081104	0.817467
H60	H	1.734760	0.030295	0.834629
H61	H	1.636725	-0.058629	0.834633
C62	C	1.023295	0.655452	-0.117567
C63	C	1.063608	0.593683	-0.000054
H64	H	1.058052	0.726612	-0.117574
H65	H	1.050639	0.613525	-0.197255
H66	H	0.933852	0.668127	-0.117554
H67	H	1.153051	0.581001	-0.000072
H68	H	1.036272	0.635619	0.079655
H69	H	1.157918	-0.224112	0.000111
H70	H	0.811328	0.558101	-0.000034
H71	H	0.718383	0.367868	0.000012
C72	C	0.710048	-0.159692	0.000102
C73	C	0.738160	-0.046177	0.000076
H74	H	0.621143	-0.161827	0.000104
H75	H	0.744960	-0.197122	-0.079594
H76	H	0.744959	-0.197106	0.079829
H77	H	0.703257	-0.008765	-0.079657
H78	H	0.703234	-0.008732	0.079780
H79	H	1.808383	-0.124640	0.369514
C80	C	1.339636	-0.088159	-0.117428
C81	C	1.288193	-0.032967	0.000064
H82	H	1.428538	-0.086011	-0.117429
H83	H	1.320554	-0.165155	-0.117400
H84	H	1.304716	-0.050725	-0.197139
H85	H	1.323106	-0.070406	0.079775
H86	H	1.307287	0.044044	0.000048
C87	C	1.059203	0.419565	0.266294
C88	C	1.136652	0.480423	0.349012
H89	H	1.001590	0.471455	0.217489
H90	H	1.109751	0.374046	0.202859
H91	H	1.013727	0.371934	0.322443
H92	H	1.182136	0.528049	0.292862
H93	H	1.086098	0.525962	0.412454
H94	H	1.314867	0.319906	0.761070
C95	C	1.154609	0.464267	0.792530
C96	C	1.136677	0.480420	0.651051
H97	H	1.097015	0.516158	0.841350
H98	H	1.140462	0.388406	0.816100
H99	H	1.238510	0.477302	0.816091
H100	H	1.052779	0.467376	0.627488
H101	H	1.150815	0.556299	0.627472
C102	C	1.407267	0.236651	0.150054
C103	C	1.314839	0.319910	0.197998
H104	H	1.407254	0.236640	0.052415
H105	H	1.487623	0.252878	0.182589
H106	H	1.389593	0.163965	0.182627
H107	H	1.332519	0.392598	0.165433
H108	H	1.234466	0.303691	0.165448
H109	H	0.920227	-0.229803	0.000107
C110	C	1.259203	0.493679	-0.000046
C111	C	1.231085	0.380165	-0.000018
H112	H	1.348107	0.495810	-0.000046
H113	H	1.224293	0.531091	-0.079758
H114	H	1.224292	0.531111	0.079664
H115	H	1.265989	0.342734	-0.079733
H116	H	1.266010	0.342736	0.079703
