data_functionalizedCrystal
_audit_creation_method	'MofGen! by Chris Wilmer'
_symmetry_space_group_name_H-M	'P1'
_symmetry_Int_Tables_number	1
_symmetry_cell_setting	triclinic
loop_
_symmetry_equiv_pos_as_xyz
  x,y,z
_cell_length_a	21.395362
_cell_length_b	21.295417
_cell_length_c	21.395355
_cell_angle_alpha	90.021451
_cell_angle_beta	90.043940
_cell_angle_gamma	90.046383
loop_
_atom_site_label
_atom_site_type_symbol
_atom_site_fract_x
_atom_site_fract_y
_atom_site_fract_z
Zn1	Zn	0.957860	-0.250415	0.354573
Zn2	Zn	1.457860	0.249585	0.854573
Zn3	Zn	0.957763	-0.355667	0.249790
Zn4	Zn	1.457763	0.144333	0.749790
Zn5	Zn	0.853075	-0.250445	0.249774
Zn6	Zn	1.353075	0.249555	0.749774
Zn7	Zn	0.853045	-0.355680	0.354495
Zn8	Zn	1.353045	0.144320	0.854495
O9	O	0.905436	-0.303052	0.302158
O10	O	1.405436	0.196948	0.802158
O11	O	1.045525	-0.264359	0.340713
O12	O	1.545525	0.235641	0.840713
O13	O	0.943848	-0.341716	0.162110
O14	O	1.443848	0.158284	0.662110
O15	O	0.867029	-0.162351	0.263702
O16	O	1.367029	0.337649	0.763702
O17	O	1.045454	-0.341687	0.263729
O18	O	1.545454	0.158313	0.763729
O19	O	0.944014	-0.162330	0.340697
O20	O	1.444014	0.337670	0.840697
O21	O	0.866934	-0.264409	0.162098
O22	O	1.366934	0.235591	0.662098
O23	O	0.765393	-0.264422	0.263626
O24	O	1.265393	0.235578	0.763626
O25	O	0.866977	-0.341709	0.442183
O26	O	1.366977	0.158291	0.942183
O27	O	0.765371	-0.341738	0.340564
O28	O	1.265371	0.158262	0.840564
O29	O	0.943984	-0.264372	0.442240
O30	O	1.443984	0.235628	0.942240
O31	O	0.943819	-0.443758	0.263653
O32	O	1.443819	0.056242	0.763653
O33	O	0.866883	-0.443767	0.340579
O34	O	1.366883	0.056233	0.840579
C35	C	0.742648	-0.303085	0.302085
C36	C	1.242648	0.196915	0.802085
C37	C	0.673007	-0.303114	0.302069
C38	C	1.173007	0.196886	0.802069
C39	C	0.640299	-0.343426	0.342070
C40	C	1.140299	0.156574	0.842070
C41	C	0.574863	-0.343411	0.342098
C42	C	1.074863	0.156589	0.842098
C43	C	0.542139	-0.303090	0.302114
C44	C	1.042139	0.196910	0.802114
C45	C	0.574855	-0.262771	0.262109
C46	C	1.074855	0.237229	0.762109
C47	C	0.640289	-0.262783	0.262087
C48	C	1.140289	0.237217	0.762087
C49	C	0.438414	-0.298019	0.245709
C50	C	0.938414	0.201981	0.745709
C51	C	0.372981	-0.298011	0.245730
C52	C	0.872981	0.201989	0.745730
C53	C	0.340318	-0.303049	0.302183
C54	C	0.840318	0.196951	0.802183
C55	C	0.373096	-0.308108	0.358616
C56	C	0.873096	0.191892	0.858616
C57	C	0.438530	-0.308120	0.358594
C58	C	0.938530	0.191880	0.858594
C59	C	0.471186	-0.303072	0.302134
C60	C	0.971186	0.196928	0.802134
C61	C	0.236657	-0.343346	0.342218
C62	C	0.736657	0.156654	0.842218
C63	C	0.171221	-0.343326	0.342247
C64	C	0.671221	0.156674	0.842247
C65	C	0.171214	-0.262690	0.262252
C66	C	0.671214	0.237310	0.762252
C67	C	0.236649	-0.262706	0.262229
C68	C	0.736649	0.237294	0.762229
C69	C	0.269367	-0.303038	0.302211
C70	C	0.769367	0.196962	0.802211
C71	C	0.905354	-0.466603	0.302123
C72	C	1.405354	0.033397	0.802123
C73	C	0.905376	-0.536571	0.302129
C74	C	1.405376	-0.036571	0.802129
C75	C	0.945472	-0.569412	0.262115
C76	C	1.445472	-0.069412	0.762115
C77	C	0.945502	-0.635155	0.262129
C78	C	1.445502	-0.135155	0.762129
C79	C	0.905424	-0.668054	0.302151
C80	C	1.405424	-0.168054	0.802151
C81	C	0.865324	-0.635205	0.342173
C82	C	1.365324	-0.135205	0.842173
C83	C	0.865301	-0.569464	0.342162
C84	C	1.365301	-0.069464	0.842162
N85	N	0.850614	-0.771336	0.306903
N86	N	1.350614	-0.271336	0.806903
N87	N	0.850638	-0.833787	0.306910
N88	N	1.350638	-0.333787	0.806910
C89	C	0.905494	-0.866129	0.302187
C90	C	1.405494	-0.366129	0.802187
N91	N	0.960325	-0.833659	0.297445
N92	N	1.460325	-0.333659	0.797445
N93	N	0.960300	-0.771202	0.297435
N94	N	1.460300	-0.271202	0.797435
C95	C	0.905445	-0.739339	0.302167
C96	C	1.405445	-0.239339	0.802167
C97	C	0.945625	-0.970255	0.262186
C98	C	1.445625	-0.470255	0.762186
C99	C	0.945656	-1.035999	0.262204
C100	C	1.445656	-0.535999	0.762204
C101	C	0.865473	-1.036048	0.342245
C102	C	1.365473	-0.536048	0.842245
C103	C	0.865448	-0.970305	0.342230
C104	C	1.365448	-0.470305	0.842230
C105	C	0.905523	-0.937413	0.302197
C106	C	1.405523	-0.437413	0.802197
C107	C	1.068859	-0.303019	0.302231
C108	C	1.568859	0.196981	0.802231
C109	C	1.138501	-0.303005	0.302262
C110	C	1.638501	0.196995	0.802262
C111	C	0.905488	-0.303039	0.465581
C112	C	1.405488	0.196961	0.965581
C113	C	0.905510	-0.303033	0.535223
C114	C	1.405510	0.196967	1.035223
C115	C	0.905535	-0.138861	0.302206
C116	C	1.405535	0.361139	0.802206
C117	C	0.905578	-0.068893	0.302227
C118	C	1.405578	0.431107	0.802227
C119	C	0.905420	-0.303019	0.139370
C120	C	1.405420	0.196981	0.639370
C121	C	0.905519	-0.302847	0.069729
C122	C	1.405519	0.197153	0.569729
C123	C	0.945606	-0.262762	0.567967
C124	C	1.445606	0.237238	1.067967
C125	C	0.945605	-0.262735	0.633402
C126	C	1.445605	0.237265	1.133402
C127	C	0.905515	-0.302991	0.666091
C128	C	1.405515	0.197009	1.166091
C129	C	0.865411	-0.343265	0.633339
C130	C	1.365411	0.156735	1.133339
C131	C	0.865409	-0.343286	0.567905
C132	C	1.365409	0.156714	1.067905
C133	C	0.900539	-0.359672	0.769752
C134	C	1.400539	0.140328	1.269752
C135	C	0.900546	-0.359652	0.835185
C136	C	1.400546	0.140348	1.335185
C137	C	0.905519	-0.302924	0.867912
C138	C	1.405519	0.197076	1.367912
C139	C	0.910498	-0.246215	0.835198
C140	C	1.410498	0.253785	1.335198
C141	C	0.910496	-0.246237	0.769763
C142	C	1.410496	0.253763	1.269763
C143	C	0.905513	-0.302972	0.737043
C144	C	1.405513	0.197028	1.237043
C145	C	0.945616	-0.262620	0.971608
C146	C	1.445616	0.237380	1.471608
C147	C	0.945611	-0.262592	1.037045
C148	C	1.445611	0.237408	1.537045
C149	C	0.865420	-0.343127	1.036981
C150	C	1.365420	0.156873	1.536981
C151	C	0.865422	-0.343150	0.971545
C152	C	1.365422	0.156850	1.471545
C153	C	0.905523	-0.302897	0.938863
C154	C	1.405523	0.197103	1.438863
H155	H	0.144570	-0.229857	0.229699
H156	H	0.644570	0.270143	0.729699
C157	C	0.895067	-0.422027	0.871164
C158	C	1.395067	0.077973	1.371164
H159	H	0.892093	-0.455814	0.842303
H160	H	1.392093	0.044186	1.342303
H161	H	0.930971	-0.427551	0.896717
H162	H	1.430971	0.072449	1.396717
H163	H	0.858745	-0.421202	0.896663
H164	H	1.358745	0.078798	1.396663
H165	H	0.465215	-0.312237	0.404544
H166	H	0.965215	0.187763	0.904544
C167	C	0.821334	-0.934179	0.386238
C168	C	1.321334	-0.434179	0.886238
H169	H	0.797464	-0.963186	0.410072
H170	H	1.297464	-0.463186	0.910072
H171	H	0.845275	-0.908488	0.413564
H172	H	1.345275	-0.408488	0.913564
H173	H	0.794035	-0.908581	0.362225
H174	H	1.294035	-0.408581	0.862225
C175	C	0.272630	-0.218371	0.218219
C176	C	0.772630	0.281629	0.718219
H177	H	0.243770	-0.194358	0.194405
H178	H	0.743770	0.305642	0.694405
H179	H	0.298212	-0.190983	0.242225
H180	H	0.798212	0.309017	0.742225
H181	H	0.298099	-0.242422	0.190864
H182	H	0.798099	0.257578	0.690864
H183	H	0.978259	-0.229985	0.541361
H184	H	1.478259	0.270015	1.041361
H185	H	0.346503	-0.312209	0.404586
H186	H	0.846503	0.187791	0.904586
C187	C	0.989718	-0.218440	0.669428
C188	C	1.489718	0.281560	1.169428
H189	H	1.013603	-0.194474	0.640592
H190	H	1.513603	0.305526	1.140592
H191	H	0.965773	-0.191007	0.694941
H192	H	1.465773	0.308993	1.194941
H193	H	1.017002	-0.242518	0.694969
H194	H	1.517002	0.257482	1.194969
C195	C	0.336928	-0.292491	0.183655
C196	C	0.836928	0.207509	0.683655
H197	H	0.293280	-0.293227	0.191750
H198	H	0.793280	0.206773	0.691750
H199	H	0.347650	-0.254151	0.163661
H200	H	0.847650	0.245849	0.663661
H201	H	0.347607	-0.326715	0.157257
H202	H	0.847607	0.173285	0.657257
C203	C	0.989763	-1.072124	0.218186
C204	C	1.489763	-0.572124	0.718186
H205	H	1.013621	-1.043116	0.194340
H206	H	1.513621	-0.543116	0.694340
H207	H	1.017064	-1.097723	0.242188
H208	H	1.517064	-0.597723	0.742188
H209	H	0.965812	-1.097813	0.190861
H210	H	1.465812	-0.597813	0.690861
C211	C	0.538873	-0.387756	0.386098
C212	C	1.038873	0.112244	0.886098
H213	H	0.495217	-0.381969	0.380386
H214	H	0.995217	0.118031	0.880386
H215	H	0.549545	-0.430039	0.376844
H216	H	1.049545	0.069961	0.876844
H217	H	0.549650	-0.378609	0.428213
H218	H	1.049650	0.121391	0.928213
H219	H	0.465003	-0.293914	0.199735
H220	H	0.965003	0.206086	0.699735
H221	H	0.914548	-0.200062	0.743130
H222	H	1.414548	0.299938	1.243130
C223	C	0.676288	-0.387800	0.386035
C224	C	1.176288	0.112200	0.886035
H225	H	0.719943	-0.382043	0.380286
H226	H	1.219943	0.117957	0.880286
H227	H	0.665627	-0.378666	0.428159
H228	H	1.165627	0.121334	0.928159
H229	H	0.665503	-0.430076	0.376769
H230	H	1.165503	0.069924	0.876769
H231	H	0.978266	-0.229840	0.944997
H232	H	1.478266	0.270160	1.444997
H233	H	0.666920	-0.229954	0.229513
H234	H	1.166920	0.270046	0.729513
C235	C	0.916375	-0.183849	0.871188
C236	C	1.416375	0.316151	1.371188
H237	H	0.915781	-0.191966	0.914843
H238	H	1.415781	0.308034	1.414843
H239	H	0.954630	-0.163992	0.860342
H240	H	1.454630	0.336008	1.360342
H241	H	0.882453	-0.157127	0.860590
H242	H	1.382453	0.342873	1.360590
C243	C	0.538861	-0.218419	0.218127
C244	C	1.038861	0.281581	0.718127
H245	H	0.495206	-0.224190	0.223865
H246	H	0.995206	0.275810	0.723865
H247	H	0.549636	-0.176140	0.227372
H248	H	1.049636	0.323860	0.727372
H249	H	0.549530	-0.227574	0.176007
H250	H	1.049530	0.272426	0.676007
C251	C	0.272649	-0.387701	0.386202
C252	C	0.772649	0.112299	0.886202
H253	H	0.243795	-0.411701	0.410037
H254	H	0.743795	0.088299	0.910037
H255	H	0.298121	-0.415100	0.362177
H256	H	0.798121	0.084900	0.862177
H257	H	0.298230	-0.363661	0.413537
H258	H	0.798230	0.136339	0.913537
C259	C	0.135241	-0.387680	0.386242
C260	C	0.635241	0.112320	0.886242
H261	H	0.164101	-0.411707	0.410042
H262	H	0.664101	0.088293	0.910042
H263	H	0.109766	-0.363647	0.413601
H264	H	0.609766	0.136353	0.913601
H265	H	0.109666	-0.415064	0.362218
H266	H	0.609666	0.084936	0.862218
H267	H	0.978105	-0.542633	0.229519
H268	H	1.478105	-0.042633	0.729519
C269	C	0.821322	-0.387453	0.935522
C270	C	1.321322	0.112547	1.435522
H271	H	0.827059	-0.381697	0.891871
H272	H	1.327059	0.118303	1.391871
H273	H	0.830465	-0.429743	0.946251
H274	H	1.330465	0.070257	1.446251
H275	H	0.779228	-0.378241	0.946215
H276	H	1.279228	0.121759	1.446215
C277	C	0.821239	-0.671391	0.386195
C278	C	1.321239	-0.171391	0.886195
H279	H	0.826991	-0.715249	0.380466
H280	H	1.326991	-0.215249	0.880466
H281	H	0.830383	-0.660586	0.428302
H282	H	1.330383	-0.160586	0.928302
H283	H	0.779140	-0.660670	0.376966
H284	H	1.279140	-0.160670	0.876966
H285	H	0.978155	-0.661899	0.229545
H286	H	1.478155	-0.161899	0.729545
H287	H	0.978261	-0.229795	1.063704
H288	H	1.478261	0.270205	1.563704
C289	C	0.821325	-0.387411	1.072931
C290	C	1.321325	0.112589	1.572931
H291	H	0.827072	-0.381635	1.116591
H292	H	1.327072	0.118365	1.616591
H293	H	0.779232	-0.378217	1.062178
H294	H	1.279232	0.121783	1.562178
H295	H	0.830478	-0.429709	1.062210
H296	H	1.330478	0.070291	1.562210
C297	C	0.821190	-0.533338	0.386176
C298	C	1.321190	-0.033338	0.886176
H299	H	0.797322	-0.562344	0.410013
H300	H	1.297322	-0.062344	0.910013
H301	H	0.845133	-0.507646	0.413500
H302	H	1.345133	-0.007646	0.913500
H303	H	0.793889	-0.507741	0.362164
H304	H	1.293889	-0.007741	0.862164
H305	H	0.978259	-0.943473	0.229590
H306	H	1.478259	-0.443473	0.729590
H307	H	0.832843	-1.062834	0.374834
H308	H	1.332843	-0.562834	0.874834
H309	H	0.896322	-0.405855	0.743111
H310	H	1.396322	0.094145	1.243111
C311	C	0.821316	-0.387547	0.669294
C312	C	1.321316	0.112453	1.169294
H313	H	0.827065	-0.381772	0.712954
H314	H	1.327065	0.118228	1.212954
H315	H	0.779223	-0.378349	0.658543
H316	H	1.279223	0.121651	1.158543
H317	H	0.830465	-0.429846	0.658572
H318	H	1.330465	0.070154	1.158572
H319	H	0.832755	-0.376079	0.541245
H320	H	1.332755	0.123921	1.041245
