data_functionalizedCrystal
_audit_creation_method	'MofGen! by Chris Wilmer'
_symmetry_space_group_name_H-M	'P1'
_symmetry_Int_Tables_number	1
_symmetry_cell_setting	triclinic
loop_
_symmetry_equiv_pos_as_xyz
  x,y,z
_cell_length_a	19.805407
_cell_length_b	21.295417
_cell_length_c	19.805399
_cell_angle_alpha	89.970204
_cell_angle_beta	89.982197
_cell_angle_gamma	90.027018
loop_
_atom_site_label
_atom_site_type_symbol
_atom_site_fract_x
_atom_site_fract_y
_atom_site_fract_z
Zn1	Zn	1.034720	-0.250669	-0.382677
Zn2	Zn	1.534720	0.249331	0.117323
Zn3	Zn	1.034628	-0.355938	-0.269485
Zn4	Zn	1.534628	0.144062	0.230515
Zn5	Zn	0.921535	-0.250681	-0.269505
Zn6	Zn	1.421535	0.249319	0.230495
Zn7	Zn	0.921492	-0.355899	-0.382635
Zn8	Zn	1.421492	0.144101	0.117365
O9	O	0.978094	-0.303297	-0.326075
O10	O	1.478094	0.196703	0.173925
O11	O	1.129425	-0.264644	-0.367671
O12	O	1.629425	0.235356	0.132329
O13	O	1.019606	-0.341996	-0.174771
O14	O	1.519606	0.158004	0.325229
O15	O	0.936605	-0.162590	-0.284544
O16	O	1.436605	0.337410	0.215456
O17	O	1.129357	-0.341984	-0.284509
O18	O	1.629357	0.158016	0.215491
O19	O	1.019762	-0.162581	-0.367691
O20	O	1.519762	0.337419	0.132309
O21	O	0.936517	-0.264665	-0.174786
O22	O	1.436517	0.235335	0.325214
O23	O	0.826813	-0.264628	-0.284503
O24	O	1.326813	0.235372	0.215497
O25	O	0.936532	-0.341919	-0.477357
O26	O	1.436532	0.158081	0.022643
O27	O	0.826781	-0.341931	-0.367619
O28	O	1.326781	0.158069	0.132381
O29	O	1.019721	-0.264607	-0.477388
O30	O	1.519721	0.235393	0.022612
O31	O	1.019564	-0.444022	-0.284468
O32	O	1.519564	0.055978	0.215532
O33	O	0.936443	-0.443994	-0.367599
O34	O	1.436443	0.056006	0.132401
C35	C	0.802238	-0.303277	-0.326059
C36	C	1.302238	0.196723	0.173941
C37	C	0.727006	-0.303284	-0.326068
C38	C	1.227006	0.196716	0.173932
C39	C	0.691697	-0.263084	-0.369436
C40	C	1.191697	0.236916	0.130564
C41	C	0.621009	-0.263087	-0.369439
C42	C	1.121009	0.236913	0.130561
C43	C	0.585630	-0.303294	-0.326076
C44	C	1.085630	0.196706	0.173924
C45	C	0.620944	-0.343496	-0.282703
C46	C	1.120944	0.156504	0.217297
C47	C	0.691631	-0.343489	-0.282698
C48	C	1.191631	0.156511	0.217302
C49	C	0.335870	-0.343524	-0.282724
C50	C	0.835870	0.156476	0.217276
C51	C	0.265178	-0.343529	-0.282734
C52	C	0.765178	0.156471	0.217266
C53	C	0.265248	-0.263122	-0.369465
C54	C	0.765248	0.236878	0.130535
C55	C	0.335936	-0.263115	-0.369460
C56	C	0.835936	0.236885	0.130540
C57	C	0.371243	-0.303314	-0.326084
C58	C	0.871243	0.196686	0.173916
C59	C	0.447891	-0.303310	-0.326081
C60	C	0.947891	0.196690	0.173919
C61	C	0.508983	-0.303303	-0.326082
C62	C	1.008983	0.196697	0.173918
C63	C	0.978008	-0.466848	-0.326041
C64	C	1.478008	0.033152	0.173959
C65	C	0.978033	-0.536816	-0.326049
C66	C	1.478033	-0.036816	0.173951
C67	C	1.021308	-0.569621	-0.369375
C68	C	1.521308	-0.069621	0.130625
C69	C	1.021331	-0.635364	-0.369391
C70	C	1.521331	-0.135364	0.130609
C71	C	0.978087	-0.668299	-0.326071
C72	C	1.478087	-0.168299	0.173929
C73	C	0.934804	-0.635486	-0.282742
C74	C	1.434804	-0.135486	0.217258
C75	C	0.934777	-0.569745	-0.282731
C76	C	1.434777	-0.069745	0.217269
N77	N	0.972976	-0.771560	-0.266835
N78	N	1.472976	-0.271560	0.233165
N79	N	0.973006	-0.834011	-0.266847
N80	N	1.473006	-0.334011	0.233153
C81	C	0.978167	-0.866374	-0.326101
C82	C	1.478167	-0.366374	0.173899
N83	N	0.983309	-0.833925	-0.385344
N84	N	1.483309	-0.333925	0.114656
N85	N	0.983283	-0.771468	-0.385331
N86	N	1.483283	-0.271468	0.114669
C87	C	0.978112	-0.739584	-0.326078
C88	C	1.478112	-0.239584	0.173922
C89	C	1.021470	-0.970464	-0.369448
C90	C	1.521470	-0.470464	0.130552
C91	C	1.021489	-1.036208	-0.369466
C92	C	1.521489	-0.536208	0.130534
C93	C	0.934965	-1.036329	-0.282811
C94	C	1.434965	-0.536329	0.217189
C95	C	0.934942	-0.970587	-0.282799
C96	C	1.434942	-0.470587	0.217201
C97	C	0.978198	-0.937658	-0.326117
C98	C	1.478198	-0.437658	0.173883
C99	C	1.154637	-0.303317	-0.326092
C100	C	1.654637	0.196683	0.173908
C101	C	1.229868	-0.303326	-0.326100
C102	C	1.729868	0.196674	0.173900
C103	C	0.978132	-0.303257	-0.502618
C104	C	1.478132	0.196743	-0.002618
C105	C	0.978148	-0.303240	-0.577850
C106	C	1.478148	0.196760	-0.077850
C107	C	0.978199	-0.139106	-0.326125
C108	C	1.478199	0.360894	0.173875
C109	C	0.978244	-0.069138	-0.326146
C110	C	1.478244	0.430862	0.173854
C111	C	1.021465	-0.262982	-0.613212
C112	C	1.521465	0.237018	-0.113212
C113	C	1.021472	-0.262963	-0.683900
C114	C	1.521472	0.237037	-0.183900
C115	C	0.978165	-0.303207	-0.719226
C116	C	1.478165	0.196793	-0.219226
C117	C	0.934843	-0.343468	-0.683860
C118	C	1.434843	0.156532	-0.183860
C119	C	0.934833	-0.343482	-0.613172
C120	C	1.434833	0.156518	-0.113172
C121	C	0.934881	-0.343409	-0.968933
C122	C	1.434881	0.156591	-0.468933
C123	C	0.934896	-0.343393	-1.039625
C124	C	1.434896	0.156607	-0.539625
C125	C	1.021520	-0.262890	-1.039661
C126	C	1.521520	0.237110	-0.539661
C127	C	1.021510	-0.262905	-0.968974
C128	C	1.521510	0.237095	-0.468974
C129	C	0.978186	-0.303162	-0.933613
C130	C	1.478186	0.196838	-0.433613
C131	C	0.978178	-0.303181	-0.856965
C132	C	1.478178	0.196819	-0.356965
C133	C	0.978176	-0.303192	-0.795873
C134	C	1.478176	0.196808	-0.295873
C135	C	0.978095	-0.303291	-0.150220
C136	C	1.478095	0.196709	0.349780
C137	C	0.978210	-0.303130	-0.074988
C138	C	1.478210	0.196870	0.425012
H139	H	0.720498	-0.230344	-0.404749
H140	H	1.220498	0.269656	0.095251
O141	O	0.231055	-0.224047	-0.411661
O142	O	0.731055	0.275953	0.088339
C143	C	0.238587	-0.144268	-0.497664
C144	C	0.738587	0.355732	0.002336
C145	C	0.277393	-0.188495	-0.449923
C146	C	0.777393	0.311505	0.050077
H147	H	0.276035	-0.115503	-0.528602
H148	H	0.776035	0.384497	-0.028602
H149	H	0.205513	-0.173186	-0.533046
H150	H	0.705513	0.326814	-0.033046
H151	H	0.205477	-0.111342	-0.466649
H152	H	0.705477	0.388658	0.033351
H153	H	0.310540	-0.221430	-0.480884
H154	H	0.810540	0.278570	0.019116
H155	H	0.310424	-0.159538	-0.414540
H156	H	0.810424	0.340462	0.085460
H157	H	0.236375	-0.376272	-0.247420
H158	H	0.736375	0.123728	0.252580
H159	H	0.720378	-0.376223	-0.247382
H160	H	1.220378	0.123777	0.252618
H161	H	0.899593	-0.662306	-0.247471
H162	H	1.399593	-0.162306	0.252529
O163	O	0.586639	-0.224127	-0.411605
O164	O	1.086639	0.275873	0.088395
C165	C	0.506907	-0.215785	-0.503044
C166	C	1.006907	0.284215	-0.003044
C167	C	0.545775	-0.259980	-0.455320
C168	C	1.045775	0.240020	0.044680
H169	H	0.473870	-0.244755	-0.538409
H170	H	0.973870	0.255245	-0.038409
H171	H	0.473769	-0.182839	-0.472080
H172	H	0.973769	0.317161	0.027920
H173	H	0.544351	-0.187039	-0.534007
H174	H	1.044351	0.312961	-0.034007
H175	H	0.508380	-0.288767	-0.424347
H176	H	1.008380	0.211233	0.075653
H177	H	0.578923	-0.292884	-0.486323
H178	H	1.078923	0.207116	0.013677
O179	O	0.892718	-0.537973	-0.240577
O180	O	1.392718	-0.037973	0.259423
C181	C	0.806871	-0.545031	-0.154661
C182	C	1.306871	-0.045031	0.345339
C183	C	0.854478	-0.581092	-0.202356
C184	C	1.354478	-0.081092	0.297644
H185	H	0.775931	-0.579877	-0.123757
H186	H	1.275931	-0.079877	0.376243
H187	H	0.837923	-0.514269	-0.119246
H188	H	1.337923	-0.014269	0.380754
H189	H	0.771480	-0.514242	-0.185710
H190	H	1.271480	-0.014242	0.314290
H191	H	0.889878	-0.611915	-0.171361
H192	H	1.389878	-0.111915	0.328639
H193	H	0.823384	-0.611814	-0.237773
H194	H	1.323384	-0.111814	0.262227
O195	O	1.063497	-1.068006	-0.411648
O196	O	1.563497	-0.568006	0.088352
C197	C	1.096284	-1.088046	-0.526813
C198	C	1.596284	-0.588046	-0.026813
C199	C	1.048675	-1.051985	-0.479118
C200	C	1.548675	-0.551985	0.020882
H201	H	1.084308	-1.075117	-0.581373
H202	H	1.584308	-0.575117	-0.081373
H203	H	1.150872	-1.075072	-0.515021
H204	H	1.650872	-0.575072	-0.015021
H205	H	1.088886	-1.140687	-0.519349
H206	H	1.588886	-0.640687	-0.019349
H207	H	1.056013	-0.999336	-0.486555
H208	H	1.556013	-0.499336	0.013445
H209	H	0.994105	-1.065012	-0.490922
H210	H	1.494105	-0.565012	0.009078
H211	H	1.056747	-0.230182	-0.712688
H212	H	1.556747	0.269818	-0.212688
O213	O	0.892858	-1.068284	-0.240801
O214	O	1.392858	-0.568284	0.259199
C215	C	0.777752	-1.088474	-0.207820
C216	C	1.277752	-0.588474	0.292180
C217	C	0.825365	-1.052255	-0.255447
C218	C	1.325365	-0.552255	0.244553
H219	H	0.723175	-1.075517	-0.219634
H220	H	1.223175	-0.575517	0.280366
H221	H	0.785141	-1.141105	-0.215270
H222	H	1.285141	-0.641105	0.284730
H223	H	0.789700	-1.075580	-0.153255
H224	H	1.289700	-0.575580	0.346745
H225	H	0.813447	-1.065096	-0.310030
H226	H	1.313447	-0.565096	0.189970
H227	H	0.817967	-0.999633	-0.247937
H228	H	1.317967	-0.499633	0.252063
H229	H	0.364609	-0.376257	-0.247406
H230	H	0.864609	0.123743	0.252594
O231	O	0.586474	-0.382532	-0.240643
O232	O	1.086474	0.117468	0.259357
C233	C	0.477548	-0.418156	-0.202184
C234	C	0.977548	0.081844	0.297816
C235	C	0.516498	-0.373923	-0.249862
C236	C	1.016498	0.126077	0.250138
H237	H	0.420966	-0.411201	-0.209611
H238	H	0.920966	0.088799	0.290389
H239	H	0.491382	-0.468941	-0.213969
H240	H	0.991382	0.031059	0.286031
H241	H	0.491470	-0.407039	-0.147635
H242	H	0.991470	0.092961	0.352365
H243	H	0.502598	-0.384983	-0.304427
H244	H	1.002598	0.115017	0.195573
H245	H	0.502661	-0.323150	-0.238019
H246	H	1.002661	0.176850	0.261981
O247	O	1.063600	-0.223752	-0.934764
O248	O	1.563600	0.276248	-0.434764
C249	C	1.149549	-0.143923	-0.942262
C250	C	1.649549	0.356077	-0.442262
C251	C	1.101907	-0.188223	-0.981087
C252	C	1.601907	0.311777	-0.481087
H253	H	1.180542	-0.115196	-0.979697
H254	H	1.680542	0.384804	-0.479697
H255	H	1.118520	-0.110970	-0.909192
H256	H	1.618520	0.389030	-0.409192
H257	H	1.184888	-0.172844	-0.909145
H258	H	1.684888	0.327156	-0.409145
H259	H	1.066559	-0.159353	-1.014240
H260	H	1.566559	0.340647	-0.514240
H261	H	1.132977	-0.221178	-1.014113
H262	H	1.632977	0.278822	-0.514113
H263	H	1.056527	-0.542813	-0.404648
H264	H	1.556527	-0.042813	0.095352
H265	H	0.899614	-0.376198	-0.940151
H266	H	1.399614	0.123802	-0.440151
H267	H	0.364737	-0.230377	-0.404773
H268	H	0.864737	0.269623	0.095227
H269	H	1.056565	-0.662079	-0.404680
H270	H	1.556565	-0.162079	0.095320
H271	H	1.056733	-0.230212	-0.584455
H272	H	1.556733	0.269788	-0.084455
O273	O	1.063385	-0.938401	-0.411564
O274	O	1.563385	-0.438401	0.088436
C275	C	1.072396	-0.864136	-0.502965
C276	C	1.572396	-0.364136	-0.002965
C277	C	1.024854	-0.900395	-0.455301
C278	C	1.524854	-0.400395	0.044699
H279	H	1.041262	-0.833409	-0.538348
H280	H	1.541262	-0.333409	-0.038348
H281	H	1.107784	-0.833308	-0.471954
H282	H	1.607784	-0.333308	0.028046
H283	H	1.103343	-0.898888	-0.533910
H284	H	1.603343	-0.398888	-0.033910
H285	H	0.993863	-0.865689	-0.424346
H286	H	1.493863	-0.365689	0.075654
H287	H	0.989510	-0.931233	-0.486351
H288	H	1.489510	-0.431233	0.013649
O289	O	0.893004	-0.938646	-0.240673
O290	O	1.393004	-0.438646	0.259327
C291	C	0.883928	-0.864515	-0.149244
C292	C	1.383928	-0.364515	0.350756
C293	C	0.931502	-0.900636	-0.196919
C294	C	1.431502	-0.400636	0.303081
H295	H	0.915035	-0.833785	-0.113847
H296	H	1.415035	-0.333785	0.386153
H297	H	0.848516	-0.833702	-0.180245
H298	H	1.348516	-0.333702	0.319755
H299	H	0.853008	-0.899356	-0.118314
H300	H	1.353008	-0.399356	0.381686
H301	H	0.962466	-0.865840	-0.227859
H302	H	1.462466	-0.365840	0.272141
H303	H	0.966869	-0.931458	-0.165879
H304	H	1.466869	-0.431458	0.334121
H305	H	1.056794	-0.230108	-1.068460
H306	H	1.556794	0.269892	-0.568460
O307	O	0.892887	-0.382467	-1.074046
O308	O	1.392887	0.117533	-0.574046
C309	C	0.854493	-0.418096	-1.182930
C310	C	1.354493	0.081904	-0.682930
C311	C	0.902106	-0.373824	-1.144033
C312	C	1.402106	0.126176	-0.644033
H313	H	0.861920	-0.411114	-1.239521
H314	H	1.361920	0.088886	-0.739521
H315	H	0.866342	-0.468873	-1.169067
H316	H	1.366342	0.031127	-0.669067
H317	H	0.799927	-0.407043	-1.168992
H318	H	1.299927	0.092957	-0.668992
H319	H	0.956688	-0.384820	-1.157950
H320	H	1.456688	0.115180	-0.657950
H321	H	0.890199	-0.323060	-1.157899
H322	H	1.390199	0.176940	-0.657899
O323	O	0.892836	-0.382539	-0.718277
O324	O	1.392836	0.117461	-0.218277
C325	C	0.854429	-0.418170	-0.827156
C326	C	1.354429	0.081830	-0.327156
C327	C	0.902047	-0.373898	-0.788265
C328	C	1.402047	0.126102	-0.288265
H329	H	0.861850	-0.411189	-0.883748
H330	H	1.361850	0.088811	-0.383748
H331	H	0.866280	-0.468947	-0.813294
H332	H	1.366280	0.031053	-0.313294
H333	H	0.799865	-0.407117	-0.813212
H334	H	1.299865	0.092883	-0.313212
H335	H	0.956628	-0.384894	-0.802188
H336	H	1.456628	0.115106	-0.302188
H337	H	0.890139	-0.323134	-0.802131
H338	H	1.390139	0.176866	-0.302131
H339	H	0.899553	-0.376259	-0.584382
H340	H	1.399553	0.123741	-0.084382
