data_functionalizedCrystal
_audit_creation_method	'MofGen! by Chris Wilmer'
_symmetry_space_group_name_H-M	'P1'
_symmetry_Int_Tables_number	1
_symmetry_cell_setting	triclinic
loop_
_symmetry_equiv_pos_as_xyz
  x,y,z
_cell_length_a	25.639243
_cell_length_b	25.639239
_cell_length_c	16.625539
_cell_angle_alpha	89.968745
_cell_angle_beta	89.976850
_cell_angle_gamma	90.041410
loop_
_atom_site_label
_atom_site_type_symbol
_atom_site_fract_x
_atom_site_fract_y
_atom_site_fract_z
Zn1	Zn	0.799262	-0.208112	-0.455948
Zn2	Zn	1.299262	0.291888	0.044052
Zn3	Zn	0.799175	-0.295550	-0.321109
Zn4	Zn	1.299175	0.204450	0.178891
Zn5	Zn	0.711828	-0.208134	-0.321123
Zn6	Zn	1.211828	0.291866	0.178877
Zn7	Zn	0.711784	-0.295522	-0.455892
Zn8	Zn	1.211784	0.204478	0.044108
O9	O	0.755512	-0.251830	-0.388518
O10	O	1.255512	0.248170	0.111482
O11	O	0.872416	-0.219713	-0.438079
O12	O	1.372416	0.280287	0.061921
O13	O	0.787570	-0.283975	-0.208278
O14	O	1.287570	0.216025	0.291722
O15	O	0.723481	-0.134966	-0.339037
O16	O	1.223481	0.365034	0.160963
O17	O	0.872351	-0.283953	-0.339013
O18	O	1.372351	0.216047	0.160987
O19	O	0.787719	-0.134950	-0.438093
O20	O	1.287719	0.365050	0.061907
O21	O	0.723396	-0.219751	-0.208288
O22	O	1.223396	0.280249	0.291712
O23	O	0.638657	-0.219724	-0.338983
O24	O	1.138657	0.280276	0.161017
O25	O	0.723406	-0.283906	-0.568732
O26	O	1.223406	0.216094	-0.068732
O27	O	0.638624	-0.283928	-0.437997
O28	O	1.138624	0.216072	0.062003
O29	O	0.787676	-0.219686	-0.568773
O30	O	1.287676	0.280314	-0.068773
O31	O	0.787527	-0.368711	-0.338959
O32	O	1.287527	0.131289	0.161041
O33	O	0.723321	-0.368691	-0.437984
O34	O	1.223321	0.131309	0.062016
C35	C	0.619669	-0.251826	-0.388486
C36	C	1.119669	0.248174	0.111514
C37	C	0.561555	-0.251837	-0.388491
C38	C	1.061555	0.248163	0.111509
C39	C	0.755424	-0.387672	-0.388481
C40	C	1.255424	0.112328	0.111519
C41	C	0.755434	-0.445786	-0.388492
C42	C	1.255434	0.054214	0.111508
C43	C	0.201220	-0.218432	-0.440188
C44	C	0.701220	0.281568	0.059812
C45	C	0.146616	-0.218432	-0.440193
C46	C	0.646616	0.281568	0.059807
O47	O	0.118403	-0.190020	-0.484107
O48	O	0.618403	0.309980	0.015893
N49	N	0.119273	-0.251828	-0.388540
N50	N	0.619273	0.248172	0.111460
C51	C	0.146537	-0.285223	-0.336873
C52	C	0.646537	0.214777	0.163127
O53	O	0.118266	-0.313629	-0.292939
O54	O	0.618266	0.186371	0.207061
C55	C	0.201140	-0.285221	-0.336865
C56	C	0.701140	0.214779	0.163135
C57	C	0.228481	-0.251826	-0.388527
C58	C	0.728481	0.248174	0.111473
C59	C	0.228560	-0.185040	-0.491845
C60	C	0.728560	0.314960	0.008155
C61	C	0.283161	-0.185041	-0.491841
C62	C	0.783161	0.314959	0.008159
C63	C	0.310421	-0.218435	-0.440179
C64	C	0.810421	0.281565	0.059821
C65	C	0.283081	-0.251827	-0.388523
C66	C	0.783081	0.248173	0.111477
C67	C	0.228404	-0.318613	-0.285195
C68	C	0.728404	0.181387	0.214805
C69	C	0.283011	-0.318607	-0.285190
C70	C	0.783011	0.181393	0.214810
C71	C	0.310351	-0.285212	-0.336852
C72	C	0.810351	0.214788	0.163148
C73	C	0.364942	-0.285222	-0.336857
C74	C	0.864942	0.214778	0.163143
N75	N	0.392285	-0.251826	-0.388510
N76	N	0.892285	0.248174	0.111490
C77	C	0.365025	-0.218432	-0.440171
C78	C	0.865025	0.281568	0.059829
C79	C	0.031866	-0.285225	-0.336894
C80	C	0.531866	0.214775	0.163106
C81	C	-0.022736	-0.285231	-0.336906
C82	C	0.477264	0.214769	0.163094
C83	C	-0.022653	-0.218439	-0.440225
C84	C	0.477347	0.281561	0.059775
C85	C	0.031950	-0.218436	-0.440216
C86	C	0.531950	0.281564	0.059784
C87	C	0.059209	-0.251829	-0.388547
C88	C	0.559209	0.248171	0.111453
C89	C	0.479690	-0.218438	-0.440159
C90	C	0.979690	0.281562	0.059841
C91	C	0.534295	-0.218443	-0.440153
C92	C	1.034295	0.281557	0.059847
C93	C	0.534208	-0.285233	-0.336831
C94	C	1.034208	0.214767	0.163169
C95	C	0.479607	-0.285230	-0.336840
C96	C	0.979607	0.214770	0.163160
C97	C	0.452349	-0.251828	-0.388507
C98	C	0.952349	0.248172	0.111493
O99	O	0.393190	-0.313618	-0.292963
O100	O	0.893190	0.186382	0.207037
O101	O	0.393303	-0.190026	-0.484091
O102	O	0.893303	0.309974	0.015909
C103	C	0.789031	-0.806147	-0.337044
C104	C	1.289031	-0.306147	0.162956
C105	C	0.789052	-0.860751	-0.337054
C106	C	1.289052	-0.360751	0.162946
O107	O	0.817526	-0.888986	-0.293270
O108	O	1.317526	-0.388986	0.206730
N109	N	0.755604	-0.888069	-0.388571
N110	N	1.255604	-0.388069	0.111429
C111	C	0.722138	-0.860779	-0.440087
C112	C	1.222138	-0.360779	0.059913
O113	O	0.693690	-0.889028	-0.483908
O114	O	1.193690	-0.389028	0.016092
C115	C	0.722120	-0.806175	-0.440080
C116	C	1.222120	-0.306175	0.059920
C117	C	0.755566	-0.778861	-0.388553
C118	C	1.255566	-0.278861	0.111447
C119	C	0.822475	-0.778833	-0.285522
C120	C	1.322475	-0.278833	0.214478
C121	C	0.822454	-0.724232	-0.285510
C122	C	1.322454	-0.224232	0.214490
C123	C	0.788989	-0.696946	-0.337020
C124	C	1.288989	-0.196946	0.162980
C125	C	0.755545	-0.724260	-0.388542
C126	C	1.255545	-0.224260	0.111458
C127	C	0.688657	-0.778886	-0.491599
C128	C	1.188657	-0.278886	0.008401
C129	C	0.688643	-0.724279	-0.491587
C130	C	1.188643	-0.224279	0.008413
C131	C	0.722089	-0.696965	-0.440061
C132	C	1.222089	-0.196965	0.059939
C133	C	0.722059	-0.642374	-0.440040
C134	C	1.222059	-0.142374	0.059960
N135	N	0.755507	-0.615057	-0.388523
N136	N	1.255507	-0.115057	0.111477
C137	C	0.788972	-0.642343	-0.337013
C138	C	1.288972	-0.142343	0.162987
C139	C	0.722177	-0.975449	-0.440099
C140	C	1.222177	-0.475449	0.059901
C141	C	0.722191	-1.030051	-0.440103
C142	C	1.222191	-0.530051	0.059897
C143	C	0.789106	-1.030021	-0.337071
C144	C	1.289106	-0.530021	0.162929
C145	C	0.789089	-0.975417	-0.337064
C146	C	1.289089	-0.475417	0.162936
C147	C	0.755625	-0.948132	-0.388582
C148	C	1.255625	-0.448132	0.111418
C149	C	0.788925	-0.527678	-0.336992
C150	C	1.288925	-0.027678	0.163008
C151	C	0.788899	-0.473072	-0.336982
C152	C	1.288899	0.026928	0.163018
C153	C	0.721987	-0.473108	-0.440017
C154	C	1.221987	0.026892	0.059983
C155	C	0.722010	-0.527709	-0.440024
C156	C	1.222010	-0.027709	0.059976
C157	C	0.755483	-0.554992	-0.388508
C158	C	1.255483	-0.054992	0.111492
O159	O	0.693601	-0.614104	-0.483804
O160	O	1.193601	-0.114104	0.016196
O161	O	0.817419	-0.614087	-0.293207
O162	O	1.317419	-0.114087	0.206793
C163	C	0.891885	-0.251833	-0.388551
C164	C	1.391885	0.248167	0.111449
C165	C	0.949999	-0.251835	-0.388564
C166	C	1.449999	0.248165	0.111436
C167	C	0.755546	-0.251791	-0.598827
C168	C	1.255546	0.248209	-0.098827
C169	C	0.755561	-0.251774	-0.688448
C170	C	1.255561	0.248226	-0.188448
C171	C	0.755615	-0.115456	-0.388573
C172	C	1.255615	0.384544	0.111427
C173	C	0.755658	-0.057342	-0.388596
C174	C	1.255658	0.442658	0.111404
C175	C	0.755585	-0.251715	-1.016624
C176	C	1.255585	0.248285	-0.516624
C177	C	0.755576	-0.251733	-0.925316
C178	C	1.255576	0.248267	-0.425316
C179	C	0.755573	-0.251745	-0.852539
C180	C	1.255573	0.248255	-0.352539
C181	C	0.755564	-0.251762	-0.761225
C182	C	1.255564	0.248238	-0.261225
C183	C	0.755508	-0.251831	-0.179027
C184	C	1.255508	0.248169	0.320973
C185	C	0.755595	-0.251700	-0.089407
C186	C	1.255595	0.248300	0.410593
H187	H	0.556553	-0.191249	-0.482225
H188	H	1.056553	0.308751	0.017775
O189	O	0.453298	-0.185977	-0.490427
O190	O	0.953298	0.314023	0.009573
C191	C	0.489147	-0.156500	-0.536001
C192	C	0.989147	0.343500	-0.036001
H193	H	0.528053	-0.177922	-0.538717
H194	H	1.028053	0.322078	-0.038717
H195	H	0.473400	-0.150978	-0.599551
H196	H	0.973400	0.349022	-0.099551
H197	H	0.494975	-0.116766	-0.506590
H198	H	0.994975	0.383234	-0.006590
H199	H	0.556413	-0.312423	-0.294772
H200	H	1.056413	0.187577	0.205228
O201	O	0.309774	-0.152572	-0.541906
O202	O	0.809774	0.347428	-0.041906
C203	C	0.341356	-0.118754	-0.496089
C204	C	0.841356	0.381246	0.003911
H205	H	0.349509	-0.137146	-0.434935
H206	H	0.849509	0.362854	0.065065
H207	H	0.379766	-0.111767	-0.528950
H208	H	0.879766	0.388233	-0.028950
H209	H	0.320332	-0.080004	-0.487334
H210	H	0.820332	0.419996	0.012666
H211	H	0.054058	-0.312423	-0.294821
H212	H	0.554058	0.187577	0.205179
O213	O	0.821440	-0.446621	-0.286903
O214	O	1.321440	0.053379	0.213097
C215	C	0.850972	-0.482418	-0.241431
C216	C	1.350972	0.017582	0.258569
H217	H	0.852784	-0.521323	-0.274471
H218	H	1.352784	-0.021323	0.225529
H219	H	0.892165	-0.466601	-0.232887
H220	H	1.392165	0.033399	0.267113
H221	H	0.831850	-0.488274	-0.180167
H222	H	1.331850	0.011726	0.319833
O223	O	0.452990	-0.317599	-0.286622
O224	O	0.952990	0.182401	0.213378
C225	C	0.421426	-0.287787	-0.234611
C226	C	0.921426	0.212213	0.265389
H227	H	0.413282	-0.248188	-0.263160
H228	H	0.913282	0.251812	0.236840
H229	H	0.383011	-0.309073	-0.223740
H230	H	0.883011	0.190927	0.276260
H231	H	0.442462	-0.281993	-0.174877
H232	H	0.942462	0.218007	0.325123
O233	O	0.689576	-0.554223	-0.490186
O234	O	1.189576	-0.054223	0.009814
C235	C	0.700960	-0.540817	-0.570559
C236	C	1.200960	-0.040817	-0.070559
H237	H	0.742721	-0.525755	-0.574684
H238	H	1.242721	-0.025755	-0.074684
H239	H	0.696460	-0.576713	-0.610399
H240	H	1.196460	-0.076713	-0.110399
H241	H	0.672907	-0.509146	-0.591585
H242	H	1.172907	-0.009146	-0.091585
H243	H	0.206153	-0.345806	-0.243125
H244	H	0.706153	0.154194	0.256875
O245	O	0.821370	-0.554238	-0.286921
O246	O	1.321370	-0.054238	0.213079
C247	C	0.791641	-0.585873	-0.234787
C248	C	1.291641	-0.085873	0.265213
H249	H	0.752009	-0.594087	-0.263159
H250	H	1.252009	-0.094087	0.236841
H251	H	0.812961	-0.624250	-0.224030
H252	H	1.312961	-0.124250	0.275970
H253	H	0.785914	-0.564864	-0.175018
H254	H	1.285914	-0.064864	0.324982
H255	H	0.849729	-0.801043	-0.243576
H256	H	1.349729	-0.301043	0.256424
H257	H	0.305202	-0.345799	-0.243113
H258	H	0.805202	0.154201	0.256887
O259	O	0.854998	-0.697784	-0.235440
O260	O	1.354998	-0.197784	0.264560
C261	C	0.884528	-0.733585	-0.189974
C262	C	1.384528	-0.233585	0.310026
H263	H	0.886330	-0.772491	-0.223014
H264	H	1.386330	-0.272491	0.276986
H265	H	0.925724	-0.717776	-0.181438
H266	H	1.425724	-0.217776	0.318562
H267	H	0.865411	-0.739438	-0.128705
H268	H	1.365411	-0.239438	0.371295
O269	O	0.821629	-0.948967	-0.286989
O270	O	1.321629	-0.448967	0.213011
C271	C	0.851155	-0.984766	-0.241513
C272	C	1.351155	-0.484766	0.258487
H273	H	0.852963	-1.023673	-0.274551
H274	H	1.352963	-0.523673	0.225449
H275	H	0.892349	-0.968955	-0.232967
H276	H	1.392349	-0.468955	0.267033
H277	H	0.832031	-0.990619	-0.180250
H278	H	1.332031	-0.490619	0.319750
O279	O	0.821636	-1.056613	-0.287167
O280	O	1.321636	-0.556613	0.212833
C281	C	0.814487	-1.110663	-0.298246
C282	C	1.314487	-0.610663	0.201754
H283	H	0.797292	-1.118094	-0.360419
H284	H	1.297292	-0.618094	0.139581
H285	H	0.853673	-1.131360	-0.292940
H286	H	1.353673	-0.631360	0.207060
H287	H	0.786715	-1.126240	-0.250338
H288	H	1.286715	-0.626240	0.249662
H289	H	0.694922	-0.953236	-0.482049
H290	H	1.194922	-0.453236	0.017951
O291	O	0.689409	-0.446622	-0.489973
O292	O	1.189409	0.053378	0.010027
C293	C	0.637306	-0.460032	-0.472308
C294	C	1.137306	0.039968	0.027692
H295	H	0.634684	-0.475072	-0.407893
H296	H	1.134684	0.024928	0.092107
H297	H	0.611466	-0.424145	-0.479220
H298	H	1.111466	0.075855	0.020780
H299	H	0.623638	-0.491723	-0.515526
H300	H	1.123638	0.008277	-0.015526
H301	H	0.206371	-0.157844	-0.533914
H302	H	0.706371	0.342156	-0.033914
H303	H	0.694951	-1.052286	-0.482054
H304	H	1.194951	-0.552286	0.017946
O305	O	0.656152	-0.805330	-0.541731
O306	O	1.156152	-0.305330	-0.041731
C307	C	0.626610	-0.769527	-0.587175
C308	C	1.126610	-0.269527	-0.087175
H309	H	0.648016	-0.730582	-0.589978
H310	H	1.148016	-0.230582	-0.089978
H311	H	0.621018	-0.785274	-0.650703
H312	H	1.121018	-0.285274	-0.150703
H313	H	0.586908	-0.763773	-0.557594
H314	H	1.086908	-0.263773	-0.057594
H315	H	0.054207	-0.191242	-0.482282
H316	H	0.554207	0.308758	0.017718
H317	H	-0.044859	-0.191246	-0.482288
H318	H	0.455141	0.308754	0.017712
O319	O	0.656108	-0.697719	-0.541522
O320	O	1.156108	-0.197719	-0.041522
C321	C	0.622331	-0.666201	-0.495566
C322	C	1.122331	-0.166201	0.004434
H323	H	0.640787	-0.658023	-0.434487
H324	H	1.140787	-0.158023	0.065513
H325	H	0.615296	-0.627800	-0.528397
H326	H	1.115296	-0.127800	-0.028397
H327	H	0.583597	-0.687294	-0.486655
H328	H	1.083597	-0.187294	0.013345
O329	O	-0.049210	-0.317692	-0.286652
O330	O	0.450790	0.182308	0.213348
C331	C	-0.013434	-0.347173	-0.241074
C332	C	0.486566	0.152827	0.258926
H333	H	0.025503	-0.325753	-0.238344
H334	H	0.525503	0.174247	0.261656
H335	H	-0.029229	-0.352701	-0.177530
H336	H	0.470771	0.147299	0.322470
H337	H	-0.007645	-0.386906	-0.270492
H338	H	0.492355	0.113094	0.229508
