data_functionalizedCrystal
_audit_creation_method	'MofGen! by Chris Wilmer'
_symmetry_space_group_name_H-M	'P1'
_symmetry_Int_Tables_number	1
_symmetry_cell_setting	triclinic
loop_
_symmetry_equiv_pos_as_xyz
  x,y,z
_cell_length_a	12.827893
_cell_length_b	13.032268
_cell_length_c	12.827892
_cell_angle_alpha	97.150801
_cell_angle_beta	90.015362
_cell_angle_gamma	97.164280
loop_
_atom_site_label
_atom_site_type_symbol
_atom_site_fract_x
_atom_site_fract_y
_atom_site_fract_z
Zn1	Zn	1.522592	-0.590830	-0.491030
Zn2	Zn	1.544690	-0.416096	-0.643612
Zn3	Zn	1.370035	-0.416109	-0.468888
Zn4	Zn	1.347823	-0.590790	-0.665724
O5	O	1.446285	-0.503456	-0.567313
O6	O	1.671758	-0.567662	-0.511283
O7	O	1.540065	-0.269866	-0.601915
O8	O	1.390320	-0.439308	-0.325592
O9	O	1.687993	-0.439285	-0.623385
O10	O	1.502402	-0.567675	-0.341859
O11	O	1.411747	-0.269876	-0.473545
O12	O	1.220854	-0.439270	-0.494986
O13	O	1.352463	-0.737027	-0.661071
O14	O	1.204535	-0.567607	-0.639601
O15	O	1.480864	-0.737056	-0.532723
O16	O	1.518527	-0.439247	-0.792779
O17	O	1.373890	-0.567594	-0.809024
C18	C	1.174778	-0.503436	-0.567291
C19	C	1.058622	-0.503452	-0.567309
C20	C	1.411721	-0.776018	-0.601833
C21	C	1.396992	-0.892167	-0.616544
C22	C	0.998803	-0.566860	-0.638956
C23	C	0.878750	-0.566878	-0.638977
C24	C	1.453956	-0.943965	-0.559598
C25	C	1.438734	-1.064011	-0.574801
C26	C	1.718852	-0.503477	-0.567337
C27	C	1.835004	-0.503485	-0.567347
C28	C	1.446222	-0.503438	-0.838821
C29	C	1.446286	-0.503465	-0.954978
C30	C	1.480774	-0.231955	-0.532852
C31	C	1.495706	-0.115806	-0.517848
C32	C	1.517923	-0.440025	-0.998698
C33	C	1.517991	-0.440051	-1.118752
C34	C	1.446374	-0.503497	-0.294749
C35	C	1.446412	-0.503515	-0.178598
H36	H	1.036467	-0.621135	-0.700277
C37	C	0.809304	-0.640220	-0.721849
C38	C	0.689269	-0.640133	-0.721751
C39	C	0.619820	-0.713477	-0.804626
C40	C	0.670406	-0.786908	-0.887597
C41	C	0.790447	-0.786997	-0.887698
C42	C	0.859896	-0.713653	-0.804823
H43	H	0.651817	-0.585773	-0.660328
H44	H	0.530958	-0.713411	-0.804551
H45	H	0.618996	-0.841201	-0.948946
H46	H	0.827899	-0.841357	-0.949121
H47	H	0.948758	-0.713719	-0.804898
H48	H	0.886411	-0.449193	-0.506008
C49	C	1.363548	-0.576896	-1.127780
C50	C	1.287326	-0.531459	-1.047051
C51	C	1.204462	-0.604840	-0.996225
C52	C	1.197821	-0.723659	-1.026128
C53	C	1.274045	-0.769103	-1.106861
C54	C	1.356908	-0.695722	-1.157687
H55	H	1.292241	-0.443496	-1.024912
H56	H	1.148036	-0.571199	-0.936461
H57	H	1.136480	-0.777980	-0.988503
H58	H	1.269130	-0.857065	-1.129000
H59	H	1.413335	-0.729363	-1.217451
H60	H	1.020957	-0.449185	-0.505982
H61	H	1.579320	-0.385735	-1.156381
C62	C	1.535066	-0.883819	-0.478529
C63	C	1.524702	-0.898738	-0.361605
C64	C	1.605814	-0.838595	-0.280533
C65	C	1.697290	-0.763533	-0.316385
C66	C	1.707658	-0.748611	-0.433314
C67	C	1.626546	-0.808754	-0.514386
H68	H	1.456982	-0.954306	-0.335060
H69	H	1.598138	-0.849641	-0.193974
H70	H	1.757334	-0.719012	-0.256370
H71	H	1.775378	-0.693043	-0.459859
H72	H	1.634222	-0.797708	-0.600945
C73	C	1.357619	-1.124150	-0.655875
C74	C	1.393424	-1.199201	-0.747359
C75	C	1.312311	-1.259341	-0.828432
C76	C	1.195392	-1.244430	-0.818021
C77	C	1.159582	-1.169376	-0.726533
C78	C	1.240695	-1.109236	-0.645461
H79	H	1.479979	-1.210242	-0.755069
H80	H	1.338821	-1.314901	-0.896157
H81	H	1.135348	-1.288949	-0.878035
H82	H	1.073027	-1.158335	-0.718823
H83	H	1.214185	-1.053676	-0.577735
C84	C	1.576823	-1.055671	-0.436772
C85	C	1.566457	-1.070597	-0.319850
C86	C	1.647572	-1.010463	-0.238776
C87	C	1.739053	-0.935405	-0.274624
C88	C	1.749423	-0.920476	-0.391551
C89	C	1.668307	-0.980609	-0.472626
H90	H	1.498734	-1.126163	-0.293308
H91	H	1.639896	-1.021515	-0.152218
H92	H	1.799100	-0.890890	-0.214608
H93	H	1.817146	-0.864910	-0.418093
H94	H	1.675984	-0.969557	-0.559183
C95	C	1.315881	-0.952310	-0.697614
C96	C	1.351686	-1.027361	-0.789098
C97	C	1.270573	-1.087501	-0.870170
C98	C	1.153655	-1.072590	-0.859759
C99	C	1.117844	-0.997536	-0.768272
C100	C	1.198957	-0.937396	-0.687199
H101	H	1.438241	-1.038402	-0.796808
H102	H	1.297083	-1.143061	-0.937895
H103	H	1.093610	-1.117109	-0.919774
H104	H	1.031289	-0.986495	-0.760561
H105	H	1.172447	-0.881835	-0.619474
C106	C	1.600717	-0.366624	-0.929203
C107	C	1.565795	-0.284595	-0.843818
C108	C	1.648593	-0.211194	-0.774325
C109	C	1.766312	-0.219822	-0.790216
C110	C	1.801240	-0.301854	-0.875605
C111	C	1.718442	-0.375255	-0.945098
H112	H	1.478647	-0.278206	-0.832051
H113	H	1.622736	-0.150468	-0.711115
H114	H	1.827604	-0.165486	-0.738773
H115	H	1.888388	-0.308244	-0.887372
H116	H	1.744299	-0.435981	-1.008309
H117	H	1.385009	-0.557801	-1.006427
