data_functionalizedCrystal
_audit_creation_method	'MofGen! by Chris Wilmer'
_symmetry_space_group_name_H-M	'P1'
_symmetry_Int_Tables_number	1
_symmetry_cell_setting	triclinic
loop_
_symmetry_equiv_pos_as_xyz
  x,y,z
_cell_length_a	10.686220
_cell_length_b	10.685194
_cell_length_c	11.169409
_cell_angle_alpha	85.594469
_cell_angle_beta	94.348347
_cell_angle_gamma	99.069756
loop_
_atom_site_label
_atom_site_type_symbol
_atom_site_fract_x
_atom_site_fract_y
_atom_site_fract_z
Zn1	Zn	1.901872	-0.356222	-0.514038
Zn2	Zn	2.235205	-0.022888	-0.180705
Zn3	Zn	2.568538	0.310445	0.152628
Zn4	Zn	1.885488	-0.568559	-0.299053
Zn5	Zn	2.218822	-0.235226	0.034280
Zn6	Zn	2.552155	0.098108	0.367613
Zn7	Zn	1.689599	-0.372601	-0.327637
Zn8	Zn	2.022932	-0.039268	0.005696
Zn9	Zn	2.356265	0.294066	0.339030
Zn10	Zn	1.673354	-0.584748	-0.513966
Zn11	Zn	2.006688	-0.251415	-0.180633
Zn12	Zn	2.340021	0.081918	0.152700
O13	O	1.787578	-0.470532	-0.413674
O14	O	2.120912	-0.137199	-0.080340
O15	O	2.454245	0.196134	0.252993
O16	O	2.077314	-0.370759	-0.473588
O17	O	2.410647	-0.037425	-0.140255
O18	O	2.743981	0.295908	0.193079
O19	O	1.859445	-0.542645	-0.134894
O20	O	2.192778	-0.209311	0.198440
O21	O	2.526112	0.124022	0.531773
O22	O	1.731412	-0.192780	-0.364356
O23	O	2.064745	0.140553	-0.031023
O24	O	2.398079	0.473887	0.302311
O25	O	2.065277	-0.526762	-0.315640
O26	O	2.398611	-0.193429	0.017694
O27	O	2.731944	0.139905	0.351027
O28	O	1.887368	-0.180746	-0.501304
O29	O	2.220701	0.152587	-0.167971
O30	O	2.554035	0.485921	0.165362
O31	O	1.715526	-0.398675	-0.155894
O32	O	2.048859	-0.065342	0.177440
O33	O	2.382193	0.267992	0.510773
O34	O	1.509828	-0.414373	-0.364286
O35	O	1.843162	-0.081039	-0.030953
O36	O	2.176495	0.252294	0.302381
O37	O	1.703726	-0.554354	-0.681927
O38	O	2.037059	-0.221021	-0.348594
O39	O	2.370392	0.112313	-0.015261
O40	O	1.497894	-0.570236	-0.501181
O41	O	1.831227	-0.236903	-0.167848
O42	O	2.164560	0.096430	0.165485
O43	O	1.871616	-0.386457	-0.681980
O44	O	2.204950	-0.053123	-0.348647
O45	O	2.538283	0.280210	-0.015314
O46	O	1.843693	-0.748355	-0.315570
O47	O	2.177027	-0.415022	0.017764
O48	O	2.510360	-0.081688	0.351097
O49	O	1.687840	-0.760249	-0.473465
O50	O	2.021173	-0.426916	-0.140132
O51	O	2.354506	-0.093582	0.193202
C52	C	1.457807	-0.495840	-0.435828
C53	C	1.791140	-0.162506	-0.102495
C54	C	2.124474	0.170827	0.230839
C55	C	1.316727	-0.506697	-0.445332
C56	C	1.650061	-0.173363	-0.111999
C57	C	1.983394	0.159970	0.221334
C58	C	1.762260	-0.800362	-0.391432
C59	C	2.095594	-0.467028	-0.058098
C60	C	2.428927	-0.133695	0.275235
C61	C	1.751546	-0.941455	-0.381949
C62	C	2.084879	-0.608122	-0.048615
C63	C	2.418212	-0.274788	0.284718
C64	C	2.118637	-0.445128	-0.391433
C65	C	2.451970	-0.111794	-0.058100
C66	C	2.785304	0.221539	0.275233
C67	C	2.259715	-0.434301	-0.381956
C68	C	2.593048	-0.100968	-0.048623
C69	C	2.926381	0.232365	0.284711
C70	C	1.787686	-0.470384	-0.726719
C71	C	2.121020	-0.137051	-0.393386
C72	C	2.454353	0.196283	-0.060053
C73	C	1.787733	-0.470321	-0.860121
C74	C	2.121066	-0.136987	-0.526787
C75	C	2.454399	0.196346	-0.193454
C76	C	1.813029	-0.139413	-0.436027
C77	C	2.146363	0.193921	-0.102693
C78	C	2.479696	0.527254	0.230640
C79	C	1.823875	0.001691	-0.445552
C80	C	2.157209	0.335024	-0.112219
C81	C	2.490542	0.668357	0.221115
C82	C	1.787550	-0.470583	-0.101847
C83	C	2.120884	-0.137250	0.231486
C84	C	2.454217	0.196084	0.564819
C85	C	1.787778	-0.470270	0.031546
C86	C	2.121111	-0.136937	0.364879
C87	C	2.454444	0.196397	0.698212
H88	H	1.893999	-0.939045	-0.507266
H89	H	2.227332	-0.605712	-0.173933
H90	H	2.560666	-0.272379	0.159400
H91	H	1.681407	-1.000728	-0.320242
H92	H	2.014740	-0.667394	0.013092
H93	H	2.348073	-0.334061	0.346425
H94	H	1.318834	-0.364016	-0.320425
H95	H	1.652167	-0.030683	0.012909
H96	H	1.985500	0.302651	0.346242
H97	H	1.257601	-0.576995	-0.506859
H98	H	1.590934	-0.243662	-0.173526
H99	H	1.924267	0.089672	0.159807
