data_functionalizedCrystal
_audit_creation_method	'MofGen! by Chris Wilmer'
_symmetry_space_group_name_H-M	'P1'
_symmetry_Int_Tables_number	1
_symmetry_cell_setting	triclinic
loop_
_symmetry_equiv_pos_as_xyz
  x,y,z
_cell_length_a	14.560438
_cell_length_b	18.878441
_cell_length_c	18.878441
_cell_angle_alpha	89.999813
_cell_angle_beta	60.000276
_cell_angle_gamma	60.002359
loop_
_atom_site_label
_atom_site_type_symbol
_atom_site_fract_x
_atom_site_fract_y
_atom_site_fract_z
Zr1	Zr	1.005307	-0.092968	0.682378
O2	O	1.196898	-0.206065	0.569275
O3	O	0.813708	-0.058299	0.717051
O4	O	1.005303	-0.206072	0.717051
O5	O	1.005308	0.058276	0.569274
O6	O	1.005308	-0.206076	0.833619
O7	O	1.005303	-0.058292	0.569275
O8	O	0.662580	0.058263	0.833618
O9	O	1.348036	-0.206064	0.569275
O10	O	0.892522	-0.043514	0.818831
O11	O	0.892522	0.043482	0.731837
O12	O	1.118100	-0.130502	0.731838
O13	O	1.118100	-0.043506	0.644844
Zr14	Zr	1.005324	0.092938	0.868289
Zr15	Zr	1.005315	-0.092974	0.868290
Zr16	Zr	1.005315	0.092944	0.682377
Zr17	Zr	1.246355	-0.092965	0.682378
Zr18	Zr	0.764275	0.092935	0.868290
O19	O	1.196922	0.058269	0.833617
O20	O	1.196910	-0.206074	0.833618
O21	O	1.196910	0.058278	0.569274
O22	O	0.813733	0.206035	0.981392
O23	O	0.813720	-0.058308	0.981394
O24	O	0.813720	0.206044	0.717049
O25	O	1.005322	-0.058306	0.981393
O26	O	1.005327	0.206042	0.833617
O27	O	1.005322	0.206046	0.717049
O28	O	1.005327	0.058262	0.981393
O29	O	1.348043	-0.206069	0.717050
O30	O	0.662587	0.206038	0.833617
O31	O	0.662594	0.206033	0.981393
O32	O	0.662587	0.058258	0.981393
O33	O	1.348043	-0.058288	0.569274
O34	O	1.348050	-0.058293	0.717049
O35	O	0.892530	0.130472	0.818830
O36	O	0.892530	0.043476	0.905824
O37	O	1.118108	-0.043512	0.818830
O38	O	1.118108	0.043484	0.731837
C39	C	0.703800	-0.000018	0.775334
C40	C	0.601469	-0.000020	0.775335
C41	C	1.005304	-0.000007	0.542786
C42	C	1.005301	-0.000005	0.463861
C43	C	1.005326	0.232533	0.775333
C44	C	1.005330	0.311457	0.775332
C45	C	0.553394	-0.045432	0.820741
C46	C	0.457237	-0.045425	0.820743
C47	C	0.457240	0.045408	0.729925
C48	C	0.553389	0.045405	0.729929
C49	C	0.601473	-0.090857	0.866147
C50	C	0.553400	-0.136274	0.911557
C51	C	0.457242	-0.136267	0.911559
C52	C	0.409158	-0.090844	0.866151
C53	C	1.306830	-0.000012	0.775333
C54	C	1.409162	-0.000011	0.775333
C55	C	1.005304	-0.232563	0.775335
C56	C	1.005301	-0.311488	0.775335
C57	C	1.123078	0.303132	0.729924
C58	C	1.123073	0.377293	0.729920
C59	C	1.005320	0.459779	0.775329
C60	C	0.887562	0.468102	0.820739
C61	C	0.887568	0.393942	0.820738
C62	C	0.887559	0.622672	0.820741
C63	C	0.887553	0.696838	0.820744
C64	C	1.123064	0.606023	0.729923
C65	C	1.123070	0.531863	0.729921
C66	C	1.005312	0.540192	0.775332
C67	C	0.887553	0.045399	0.472190
C68	C	0.887557	0.045400	0.398029
C69	C	1.005311	-0.000009	0.315540
C70	C	1.123068	-0.045414	0.307213
C71	C	1.123062	-0.045409	0.381374
C72	C	1.123072	-0.045423	0.152643
C73	C	1.123078	-0.045429	0.078478
C74	C	0.887566	0.045386	0.169298
C75	C	0.887560	0.045391	0.243459
C76	C	1.005318	-0.000016	0.235127
C77	C	1.005326	-0.000023	1.007882
C78	C	1.005330	-0.000026	1.086806
C79	C	0.703811	-0.000026	1.007882
C80	C	0.601483	-0.000030	1.086807
C81	C	0.703811	0.232529	0.775333
C82	C	0.601483	0.311453	0.775333
C83	C	0.703821	0.232522	1.007881
C84	C	0.601497	0.311442	1.086805
C85	C	1.306809	-0.232552	0.542786
C86	C	1.409133	-0.311473	0.463862
C87	C	1.306820	-0.000004	0.542785
C88	C	1.409147	-0.000000	0.463860
C89	C	1.306820	-0.232560	0.775334
C90	C	1.409147	-0.311483	0.775334
C91	C	0.553424	-0.045448	1.078462
C92	C	0.457290	-0.045469	1.152613
C93	C	0.409209	-0.000066	1.235108
C94	C	0.457277	0.045353	1.243452
C95	C	0.553416	0.045368	1.169302
C96	C	0.553433	0.393932	0.820742
C97	C	0.457298	0.468096	0.820739
C98	C	0.409209	0.459779	0.775331
C99	C	0.457269	0.377291	0.729916
C100	C	0.553408	0.303129	0.729915
C101	C	0.553445	0.303093	1.169287
C102	C	0.457314	0.377241	1.243452
C103	C	0.409230	0.459736	1.235134
C104	C	0.457292	0.468084	1.152643
C105	C	0.553428	0.393937	1.078480
C106	C	1.457197	-0.303123	0.381381
C107	C	1.553358	-0.377271	0.307216
C108	C	1.601447	-0.459766	0.315534
C109	C	1.553378	-0.468114	0.398024
C110	C	1.457226	-0.393967	0.472187
C111	C	1.457216	0.045410	0.472206
C112	C	1.553377	0.045410	0.398055
C113	C	1.601461	0.000005	0.315559
C114	C	1.553389	-0.045410	0.307215
C115	C	1.457236	-0.045415	0.381366
C116	C	1.457206	-0.303138	0.820751
C117	C	1.553341	-0.377288	0.820769
C118	C	1.601422	-0.459782	0.775363
C119	C	1.553354	-0.468125	0.729945
C120	C	1.457214	-0.393976	0.729933
H121	H	0.679772	-0.090870	0.866149
H122	H	0.791675	0.082358	0.310623
H123	H	1.418093	-0.400776	0.539345
H124	H	0.592576	0.400720	0.857719
H125	H	0.418129	0.535261	1.145883
H126	H	1.418101	-0.082391	0.374558
H127	H	1.218945	-0.082370	0.374587
H128	H	0.418191	0.370429	1.310612
H129	H	1.218963	-0.082381	0.145852
H130	H	0.592580	0.235928	1.176076
H131	H	0.330950	0.520104	1.295529
H132	H	1.592517	-0.535301	0.692977
H133	H	1.592554	-0.082377	0.240037
H134	H	0.592571	-0.082430	1.011296
H135	H	1.418073	-0.235974	0.857726
H136	H	1.418073	0.082390	0.539371
H137	H	1.592501	0.082396	0.404865
H138	H	0.418180	0.535254	0.857724
H139	H	1.679740	-0.520134	0.255139
H140	H	0.791663	0.082380	0.539352
H141	H	0.592547	-0.173251	0.948532
H142	H	1.592544	-0.535291	0.404787
H143	H	1.592468	-0.370478	0.857752
H144	H	0.418093	-0.173241	0.948540
H145	H	1.418049	-0.235958	0.374591
H146	H	1.592479	-0.370457	0.240056
H147	H	0.330927	0.520174	0.775339
H148	H	1.679755	0.000017	0.255188
H149	H	1.679706	-0.520152	0.775379
H150	H	0.592540	0.400747	1.011323
H151	H	1.418096	-0.400783	0.692945
H152	H	0.330854	-0.090837	0.866161
H153	H	0.592518	0.235974	0.692940
H154	H	1.218956	0.464701	0.692950
H155	H	0.418085	0.082388	0.692954
H156	H	0.592539	0.082379	0.692949
H157	H	0.791683	0.082351	0.176080
H158	H	1.218967	0.235972	0.692950
H159	H	1.218945	-0.082381	0.240045
H160	H	1.218956	0.370506	0.692945
H161	H	0.791667	0.764000	0.857715
H162	H	1.218947	0.599243	0.692945
H163	H	0.418165	-0.082454	1.145802
H164	H	1.218963	-0.082405	0.011314
H165	H	0.791668	0.629461	0.857714
H166	H	0.791685	0.535269	0.857708
H167	H	0.418115	0.082317	1.310630
H168	H	0.418100	0.370532	0.692946
H169	H	0.791685	0.400726	0.857711
H170	H	0.791674	0.082373	0.404817
H171	H	0.592533	0.082357	1.176109
H172	H	0.330925	-0.000085	1.295479
