data_functionalizedCrystal
_audit_creation_method	'MofGen! by Chris Wilmer'
_symmetry_space_group_name_H-M	'P1'
_symmetry_Int_Tables_number	1
_symmetry_cell_setting	triclinic
loop_
_symmetry_equiv_pos_as_xyz
  x,y,z
_cell_length_a	14.560438
_cell_length_b	20.875621
_cell_length_c	20.875641
_cell_angle_alpha	87.033849
_cell_angle_beta	62.447149
_cell_angle_gamma	58.315109
loop_
_atom_site_label
_atom_site_type_symbol
_atom_site_fract_x
_atom_site_fract_y
_atom_site_fract_z
Zr1	Zr	0.993401	0.622081	-0.112250
O2	O	1.175127	0.523105	-0.206072
O3	O	0.804837	0.652419	-0.083501
O4	O	0.982836	0.657166	-0.212804
O5	O	1.007846	0.514617	0.025242
O6	O	0.982280	0.762919	-0.218100
O7	O	0.997128	0.518358	-0.076769
O8	O	0.663872	0.754429	0.013200
O9	O	1.326254	0.523108	-0.206058
O10	O	0.884513	0.744285	-0.075177
O11	O	0.892927	0.662571	0.004905
O12	O	1.102498	0.668159	-0.147333
O13	O	1.110912	0.586445	-0.067251
Zr14	Zr	1.009609	0.784780	0.042000
Zr15	Zr	0.992514	0.790746	-0.120696
Zr16	Zr	1.010495	0.616115	0.050446
Zr17	Zr	1.234431	0.622087	-0.112226
Zr18	Zr	0.768579	0.784774	0.041977
O19	O	1.198173	0.754442	0.013252
O20	O	1.173867	0.762924	-0.218081
O21	O	1.199433	0.514622	0.025261
O22	O	0.827882	0.883756	0.135823
O23	O	0.803576	0.892239	-0.095510
O24	O	0.829143	0.643937	0.147832
O25	O	0.995163	0.892243	-0.095491
O26	O	1.020174	0.749695	0.142555
O27	O	1.020730	0.643941	0.147851
O28	O	1.005881	0.888503	0.006520
O29	O	1.325549	0.657174	-0.212771
O30	O	0.677460	0.749687	0.142521
O31	O	0.676755	0.883752	0.135808
O32	O	0.663168	0.888494	0.006486
O33	O	1.339842	0.518366	-0.076736
O34	O	1.339137	0.652432	-0.083449
O35	O	0.900511	0.738702	0.077083
O36	O	0.892098	0.820416	-0.002999
O37	O	1.110082	0.744290	-0.075155
O38	O	1.118496	0.662576	0.004927
C39	C	0.700013	0.703423	-0.035154
C40	C	0.597689	0.703421	-0.035164
C41	C	0.627220	0.647224	-0.088417
C42	C	0.531035	0.647236	-0.088379
C43	C	0.375790	0.759642	0.018170
C44	C	0.471974	0.759634	0.018129
C45	C	0.752936	0.591011	-0.141710
C46	C	0.782473	0.534810	-0.194966
C47	C	0.686288	0.534821	-0.194929
C48	C	0.560566	0.591034	-0.141635
C49	C	1.002614	0.492457	-0.024560
C50	C	1.002990	0.420854	-0.020975
C51	C	0.997265	0.389275	-0.075491
C52	C	0.997613	0.321999	-0.072118
C53	C	1.003694	0.286300	-0.014232
C54	C	1.009415	0.317885	0.040289
C55	C	1.009058	0.385163	0.036919
C56	C	1.005384	0.084869	0.001876
C57	C	1.005744	0.017585	0.005241
C58	C	0.993940	0.021706	-0.107166
C59	C	0.993591	0.088982	-0.110533
C60	C	0.999306	0.120563	-0.056010
N61	N	1.004053	0.217532	-0.010785
N62	N	0.998938	0.189333	-0.059455
C63	C	1.302997	0.703438	-0.035095
C64	C	1.405320	0.703440	-0.035085
C65	C	0.980122	0.710893	-0.238633
C66	C	0.972865	0.713425	-0.307702
C67	C	1.000396	0.914404	-0.045689
C68	C	1.000020	0.986007	-0.049275
C69	C	1.083238	0.674879	-0.377815
C70	C	1.076412	0.677269	-0.442710
C71	C	0.959211	0.718200	-0.437491
C72	C	0.848830	0.756751	-0.367370
C73	C	0.855657	0.754365	-0.302476
C74	C	0.926590	0.729601	-0.627533
C75	C	0.919771	0.731981	-0.692434
C76	C	1.147355	0.652500	-0.767771
C77	C	1.154172	0.650115	-0.702872
C78	C	1.043790	0.688668	-0.632758
N79	N	0.952231	0.720642	-0.503823
N80	N	1.050772	0.686231	-0.566427
C81	C	1.022887	0.695968	0.168383
C82	C	1.030144	0.693436	0.237452
C83	C	0.698904	0.914397	-0.045719
C84	C	0.596204	0.985997	-0.049314
C85	C	0.721395	0.695961	0.168354
C86	C	0.626329	0.693426	0.237413
C87	C	0.720287	0.906935	0.157790
C88	C	0.624844	0.976002	0.223263
C89	C	1.282723	0.499926	-0.228039
C90	C	1.378166	0.430859	-0.293512
C91	C	1.304105	0.492464	-0.024531
C92	C	1.406805	0.420864	-0.020935
C93	C	1.281614	0.710900	-0.238604
C94	C	1.376680	0.713435	-0.307662
C95	C	0.544015	0.979882	-0.088685
C96	C	0.447530	1.047152	-0.092079
C97	C	0.403228	1.120536	-0.056096
C98	C	0.455426	1.126650	-0.016723
C99	C	0.551916	1.059381	-0.013335
C100	C	0.585644	0.731975	0.307527
C101	C	0.496333	0.729589	0.372421
C102	C	0.447702	0.688660	0.367200
C103	C	0.488395	0.650106	0.297079
C104	C	0.577711	0.652487	0.232186
C105	C	0.575631	1.051098	0.212208
C106	C	0.485965	1.116001	0.273720
C107	C	0.445507	1.105806	0.346288
C108	C	0.494729	1.030703	0.357342
C109	C	0.584400	0.965801	0.295830
C110	C	1.427390	0.355763	-0.282457
C111	C	1.517086	0.290860	-0.343970
C112	C	1.557549	0.301055	-0.416537
C113	C	1.508321	0.376158	-0.427591
C114	C	1.418633	0.441059	-0.366079
C115	C	1.459003	0.426979	0.018429
C116	C	1.555514	0.359710	0.021804
C117	C	1.599818	0.286326	-0.014181
C118	C	1.547616	0.280212	-0.053551
C119	C	1.451113	0.347481	-0.056930
C120	C	1.425284	0.754372	-0.302417
C121	C	1.514597	0.756769	-0.367300
C122	C	1.555311	0.718224	-0.437427
C123	C	1.506698	0.677286	-0.442670
C124	C	1.417381	0.674894	-0.377788
H125	H	0.273423	0.805406	0.061561
H126	H	1.377817	0.641555	-0.382069
C127	C	1.656199	0.229653	-0.484195
N128	N	1.730497	0.175870	-0.535152
C129	C	1.364480	0.523664	-0.378253
N130	N	1.323693	0.585881	-0.387428
H131	H	0.765779	0.785753	-0.245387
H132	H	0.482250	0.591051	-0.141621
H133	H	0.447924	0.805392	0.061493
C134	C	0.639130	0.776998	0.313288
N135	N	0.679417	0.810908	0.317634
H136	H	0.461775	1.022413	0.416434
C137	C	1.268766	0.610101	-0.844900
N138	N	1.360218	0.578168	-0.902995
C139	C	1.016050	0.278632	0.103982
N140	N	1.021035	0.249072	0.151962
C141	C	1.551452	0.634922	-0.519819
N142	N	1.585150	0.603023	-0.577929
H143	H	0.372490	1.158660	0.396368
C144	C	0.986892	0.128250	-0.174209
N145	N	0.981847	0.157826	-0.222171
C146	C	0.990575	0.428539	-0.139170
N147	N	0.985530	0.458113	-0.187134
H148	H	0.610824	0.621098	0.175099
C149	C	0.349440	0.686056	0.438591
N150	N	0.275423	0.684102	0.492365
H151	H	0.580083	0.920135	-0.117997
C152	C	0.719907	0.801774	-0.361630
N153	N	0.622800	0.835683	-0.357305
C154	C	0.609302	1.066120	0.029988
N155	N	0.652519	1.071202	0.062621
H156	H	1.408616	0.342490	-0.088983
H157	H	1.010697	-0.011479	0.052382
H158	H	0.463212	0.760988	0.429510
H159	H	0.831263	0.590994	-0.141745
H160	H	0.624458	0.904657	0.304842
H161	H	1.557153	0.229713	-0.334955
H162	H	0.445896	1.177148	0.264706
C163	C	0.434881	0.605090	0.291348
N164	N	0.394565	0.571188	0.287034
H165	H	1.422939	0.486726	0.047738
C166	C	0.920764	0.472985	-0.253591
N167	N	1.024925	0.426417	-0.297749
C168	C	1.552832	0.387360	-0.507422
N169	N	1.586352	0.395794	-0.567552
H170	H	1.166290	0.645883	-0.499798
C171	C	0.805166	0.772004	-0.550414
N172	N	0.713704	0.803942	-0.492324
H173	H	1.394450	0.347447	-0.223374
H174	H	1.598001	0.364703	0.053866
C175	C	1.705970	0.212335	-0.010452
N176	N	1.785920	0.156608	-0.007639
H177	H	0.710343	0.489064	-0.238297
H178	H	1.583704	0.220454	-0.082848
C179	C	0.390118	1.040409	-0.135385
N180	N	0.346876	1.035328	-0.168000
C181	C	1.380508	0.796783	-0.225284
N182	N	1.346783	0.828735	-0.167190
H183	H	1.013718	0.410874	0.081312
C184	C	0.406671	1.207380	0.022862
N185	N	0.369939	1.268188	0.052681
C186	C	1.653567	0.720862	-0.508792
N187	N	1.727576	0.722849	-0.562542
H188	H	0.992950	0.296289	-0.116509
H189	H	1.554169	0.790104	-0.363016
C190	C	0.987639	-0.013034	-0.167132
N191	N	0.982886	-0.039197	-0.212299
C192	C	1.011618	0.119618	0.061872
N193	N	1.016293	0.145800	0.107070
H194	H	1.178676	0.641544	-0.382074
H195	H	0.324658	1.175304	-0.058860
H196	H	0.824327	0.765312	-0.688176
H197	H	1.249609	0.616787	-0.707131
H198	H	0.608558	1.059413	0.153125
