data_functionalizedCrystal
_audit_creation_method	'MofGen! by Chris Wilmer'
_symmetry_space_group_name_H-M	'P1'
_symmetry_Int_Tables_number	1
_symmetry_cell_setting	triclinic
loop_
_symmetry_equiv_pos_as_xyz
  x,y,z
_cell_length_a	11.792254
_cell_length_b	11.792241
_cell_length_c	9.198806
_cell_angle_alpha	89.996670
_cell_angle_beta	89.996104
_cell_angle_gamma	84.196007
loop_
_atom_site_label
_atom_site_type_symbol
_atom_site_fract_x
_atom_site_fract_y
_atom_site_fract_z
O1	O	1.506900	0.155634	-0.120892
O2	O	1.176560	0.171652	-0.120895
O3	O	1.349746	-0.001527	-0.120883
O4	O	1.333714	0.328813	-0.120904
O5	O	1.349733	-0.001528	0.120902
O6	O	1.176547	0.171651	0.120890
O7	O	1.506886	0.155633	0.120893
Cu8	Cu	1.341715	0.163642	0.142968
Cu9	Cu	1.341731	0.163643	-0.142970
O10	O	1.333700	0.328812	0.120881
C11	C	1.134263	0.170642	-0.000003
C12	C	1.008250	0.167622	-0.000004
C13	C	0.905913	0.165168	-0.000010
C14	C	0.777527	0.162100	-0.000011
C15	C	1.348732	-0.043819	0.000009
C16	C	1.345718	-0.169832	0.000007
C17	C	1.340175	-0.400545	-0.000017
C18	C	1.343255	-0.272160	-0.000004
C19	C	1.549183	0.156643	-0.000002
C20	C	1.675196	0.159663	-0.000011
C21	C	1.334714	0.371104	-0.000014
C22	C	1.337728	0.497118	-0.000022
N23	N	1.341712	0.163641	0.344082
N24	N	1.341743	0.163635	-0.344084
C25	C	1.414428	0.090608	0.416284
C26	C	1.414446	0.090604	0.583697
H27	H	1.476667	0.028080	0.354163
Cl28	Cl	1.245603	0.260171	0.439987
H29	H	1.476706	0.028082	0.645787
Cl30	Cl	1.245623	0.260185	0.560068
