data_functionalizedCrystal
_audit_creation_method	'MofGen! by Chris Wilmer'
_symmetry_space_group_name_H-M	'P1'
_symmetry_Int_Tables_number	1
_symmetry_cell_setting	triclinic
loop_
_symmetry_equiv_pos_as_xyz
  x,y,z
_cell_length_a	12.837943
_cell_length_b	10.654550
_cell_length_c	11.892095
_cell_angle_alpha	93.927085
_cell_angle_beta	85.689438
_cell_angle_gamma	89.656935
loop_
_atom_site_label
_atom_site_type_symbol
_atom_site_fract_x
_atom_site_fract_y
_atom_site_fract_z
O1	O	-1.384378	-0.319511	0.093983
O2	O	-1.082456	-0.303369	0.093989
O3	O	-1.240358	-0.129459	0.093979
O4	O	-1.226476	-0.493421	0.093993
O5	O	-1.227192	-0.143935	-0.094028
O6	O	-1.069291	-0.317845	-0.094017
O7	O	-1.371212	-0.333986	-0.094024
Zn8	Zn	-1.218161	-0.328214	-0.123871
Zn9	Zn	-1.235507	-0.309142	0.123836
O10	O	-1.213310	-0.507897	-0.094013
C11	C	-1.037214	-0.305154	-0.000013
C12	C	-0.922020	-0.288892	-0.000011
C13	C	-1.232756	-0.089788	-0.000024
C14	C	-1.229706	0.049989	-0.000022
C15	C	-1.416455	-0.332201	-0.000019
C16	C	-1.531649	-0.348463	-0.000014
C17	C	-0.682467	-0.484397	-0.000019
C18	C	-0.574231	-0.469123	-0.000018
C19	C	-0.597311	-0.243071	-0.000015
C20	C	-0.705546	-0.258345	-0.000016
C21	C	-0.748120	-0.379012	-0.000016
C22	C	-0.856358	-0.394284	-0.000010
C23	C	-0.879435	-0.168234	-0.000015
C24	C	-0.771200	-0.152960	-0.000013
C25	C	-1.220912	-0.547568	-0.000008
C26	C	-1.223963	-0.687344	-0.000002
N27	N	-1.206330	-0.341230	-0.292924
C28	C	-1.322677	0.119329	-0.000024
C29	C	-1.319806	0.250664	-0.000010
C30	C	-1.130985	0.243307	0.000003
C31	C	-1.133858	0.111975	-0.000003
C32	C	-1.329671	-0.205471	-0.529580
C33	C	-1.321409	-0.214579	-0.647921
C34	C	-1.181539	-0.368548	-0.647950
C35	C	-1.189801	-0.359440	-0.529609
C36	C	-1.263871	-0.277900	-0.470428
C37	C	-1.272137	-0.268799	-0.352084
C38	C	-1.132263	-0.422761	-0.352115
C39	C	-1.124001	-0.431869	-0.470456
N40	N	-1.247346	-0.296116	0.292890
H41	H	-0.891019	-0.492537	-0.000012
H42	H	-0.562621	-0.144836	-0.000107
H43	H	-1.332450	-0.202408	-0.303900
H44	H	-0.736520	-0.054717	-0.000026
H45	H	-1.400722	0.068864	-0.000037
H46	H	-1.052949	0.293792	0.000016
H47	H	-1.058146	0.055516	0.000002
H48	H	-0.932903	-0.082421	-0.000005
H49	H	-1.121227	-0.434927	-0.696150
H50	H	-0.520779	-0.554939	-0.000023
H51	H	-1.063693	-0.498254	-0.518655
H52	H	-1.078687	-0.481741	-0.303940
H53	H	-1.395512	0.307116	-0.000009
H54	H	-1.389988	-0.139086	-0.481394
H55	H	-1.374988	-0.155598	-0.696080
H56	H	-0.717131	-0.582648	-0.000018
