data_functionalizedCrystal
_audit_creation_method	'MofGen! by Chris Wilmer'
_symmetry_space_group_name_H-M	'P1'
_symmetry_Int_Tables_number	1
_symmetry_cell_setting	triclinic
loop_
_symmetry_equiv_pos_as_xyz
  x,y,z
_cell_length_a	11.295483
_cell_length_b	19.288864
_cell_length_c	19.288865
_cell_angle_alpha	83.136245
_cell_angle_beta	94.075585
_cell_angle_gamma	85.895140
loop_
_atom_site_label
_atom_site_type_symbol
_atom_site_fract_x
_atom_site_fract_y
_atom_site_fract_z
O1	O	0.099422	-0.926060	-0.081937
O2	O	0.599422	-0.426060	0.418063
O3	O	0.099342	-0.723796	-0.093629
O4	O	0.599342	-0.223796	0.406371
O5	O	0.099360	-0.830772	0.013346
O6	O	0.599360	-0.330772	0.513346
O7	O	0.099403	-0.819085	-0.188912
O8	O	0.599403	-0.319085	0.311088
O9	O	-0.098692	-0.821376	0.003965
O10	O	0.401308	-0.321376	0.503965
O11	O	-0.098710	-0.714400	-0.103011
O12	O	0.401290	-0.214400	0.396989
O13	O	-0.098631	-0.916665	-0.091318
O14	O	0.401369	-0.416665	0.408682
Cu15	Cu	-0.116754	-0.814674	-0.098021
Cu16	Cu	0.383246	-0.314674	0.401979
Cu17	Cu	0.117466	-0.825786	-0.086926
Cu18	Cu	0.617466	-0.325786	0.413074
O19	O	-0.098649	-0.809689	-0.198294
O20	O	0.401351	-0.309689	0.301706
C21	C	0.000305	-0.693221	-0.097944
C22	C	0.500305	-0.193221	0.402056
C23	C	0.000274	-0.616116	-0.096817
C24	C	0.500274	-0.116116	0.403183
N25	N	-0.281492	-0.806864	-0.105824
N26	N	0.218508	-0.306864	0.394176
C27	C	0.000331	-0.825697	0.034532
C28	C	0.500331	-0.325697	0.534532
C29	C	0.000320	-0.824568	0.111635
C30	C	0.500320	-0.324568	0.611635
C31	C	-0.530767	-0.889825	-0.022909
C32	C	-0.030767	-0.389825	0.477091
C33	C	-0.655432	-0.883927	-0.028811
C34	C	-0.155432	-0.383927	0.471189
C35	C	-0.655488	-0.789169	-0.123525
C36	C	-0.155488	-0.289169	0.376475
C37	C	-0.530824	-0.795066	-0.117623
C38	C	-0.030824	-0.295066	0.382377
C39	C	-0.468467	-0.845397	-0.067314
C40	C	0.031533	-0.345397	0.432686
C41	C	-0.343801	-0.851297	-0.061417
C42	C	0.156199	-0.351297	0.438583
C43	C	-0.343859	-0.756536	-0.156127
C44	C	0.156141	-0.256536	0.343873
C45	C	-0.468524	-0.750638	-0.162029
C46	C	0.031476	-0.250638	0.337971
N47	N	0.282203	-0.833602	-0.079118
N48	N	0.782203	-0.333602	0.420882
C49	C	0.000409	-0.947240	-0.087003
C50	C	0.500409	-0.447240	0.412997
C51	C	0.000448	-1.024345	-0.088130
C52	C	0.500448	-0.524345	0.411870
C53	C	0.000306	-0.571421	-0.159583
C54	C	0.500306	-0.071421	0.340417
C55	C	0.000319	-0.498975	-0.158522
C56	C	0.500319	0.001025	0.341478
C57	C	0.000324	-0.471227	-0.094689
C58	C	0.500324	0.028773	0.405311
C59	C	0.000285	-0.515932	-0.031915
C60	C	0.500285	-0.015932	0.468085
C61	C	0.000260	-0.588376	-0.032979
C62	C	0.500260	-0.088376	0.467021
C63	C	0.069740	-0.366259	-0.041222
C64	C	0.569740	0.133741	0.458778
C65	C	0.069772	-0.293816	-0.040161
C66	C	0.569772	0.206184	0.459839
C67	C	0.000395	-0.247785	-0.091406
C68	C	0.500395	0.252215	0.408594
C69	C	-0.068999	-0.274206	-0.143724
C70	C	0.431001	0.225794	0.356276
C71	C	-0.069024	-0.346650	-0.144788
C72	C	0.430976	0.153350	0.355212
C73	C	0.000350	-0.392675	-0.093529
C74	C	0.500350	0.107325	0.406471
C75	C	0.000439	-0.124535	-0.153026
C76	C	0.500439	0.375465	0.346974
C77	C	0.000445	-0.052087	-0.151963
C78	C	0.500445	0.447913	0.348037
C79	C	0.000423	-0.069046	-0.025354
C80	C	0.500423	0.430954	0.474646
C81	C	0.000405	-0.141492	-0.026420
C82	C	0.500405	0.358508	0.473580
C83	C	0.000419	-0.169232	-0.090258
C84	C	0.500419	0.330768	0.409742
C85	C	0.000383	-0.814763	-0.219479
C86	C	0.500383	-0.314763	0.280521
C87	C	0.000402	-0.815893	-0.296582
C88	C	0.500402	-0.315893	0.203418
C89	C	0.000339	-0.887337	0.156332
C90	C	0.500339	-0.387337	0.656332
C91	C	0.000357	-0.886277	0.228780
C92	C	0.500357	-0.386277	0.728780
C93	C	0.000333	-0.822443	0.256527
C94	C	0.500333	-0.322443	0.756527
C95	C	0.000320	-0.759667	0.211820
C96	C	0.500320	-0.259667	0.711820
C97	C	0.000314	-0.760729	0.139374
C98	C	0.500314	-0.260729	0.639374
C99	C	-0.069061	-0.768972	0.361527
C100	C	0.430939	-0.268972	0.861527
C101	C	-0.069062	-0.767912	0.433971
C102	C	0.430938	-0.267912	0.933971
C103	C	0.000358	-0.819165	0.479973
C104	C	0.500358	-0.319165	0.979973
C105	C	0.069763	-0.871489	0.453523
C106	C	0.569763	-0.371489	0.953523
C107	C	0.069756	-0.872551	0.381077
C108	C	0.569756	-0.372551	0.881077
C109	C	0.000340	-0.821285	0.335081
C110	C	0.500340	-0.321285	0.835081
C111	C	0.000398	-0.880789	0.603228
C112	C	0.500398	-0.380789	1.103228
C113	C	0.000424	-0.879727	0.675677
C114	C	0.500424	-0.379727	1.175677
C115	C	0.000376	-0.753115	0.658714
C116	C	0.500376	-0.253115	1.158714
C117	C	0.000362	-0.754179	0.586267
C118	C	0.500362	-0.254179	1.086267
C119	C	0.000368	-0.818018	0.558528
C120	C	0.500368	-0.318018	1.058528
H121	H	-0.293031	-0.892280	-0.020454
H122	H	0.206969	-0.392280	0.479546
H123	H	-0.293121	-0.720361	-0.192287
H124	H	0.206879	-0.220361	0.307713
F125	F	0.143584	-0.415242	0.013325
F126	F	0.643584	0.084758	0.513325
H127	H	-0.706153	-0.920104	0.007350
H128	H	-0.206153	-0.420104	0.507350
F129	F	0.000285	-0.486400	0.036020
F130	F	0.500285	0.013600	0.536020
H131	H	0.000341	-0.462577	-0.209635
H132	H	0.500341	0.037423	0.290365
H133	H	0.000464	-0.015696	-0.203077
H134	H	0.500464	0.484304	0.296923
H135	H	0.000386	-0.177884	0.024692
H136	H	0.500386	0.322116	0.524692
H137	H	-0.125568	-0.725304	0.455501
H138	H	0.374432	-0.225304	0.955501
F139	F	0.000445	-0.154060	-0.220968
F140	F	0.500445	0.345940	0.279032
F141	F	-0.721866	-0.735601	-0.177058
F142	F	-0.221866	-0.235601	0.322942
H143	H	-0.479996	-0.930810	0.018050
H144	H	0.020004	-0.430810	0.518050
F145	F	0.000452	-0.946538	0.723248
F146	F	0.500452	-0.446538	1.223248
F147	F	-0.142840	-0.225222	-0.198269
F148	F	0.357160	0.274778	0.301731
F149	F	-0.534898	-0.697074	-0.215567
F150	F	-0.034898	-0.197074	0.284433
F151	F	0.000370	-0.955281	0.126816
F152	F	0.500370	-0.455281	0.626816
F153	F	0.000317	-0.600940	-0.227526
F154	F	0.500317	-0.100940	0.272474
F155	F	0.143625	-0.928234	0.352929
F156	F	0.643625	-0.428234	0.852929
F157	F	-0.142879	-0.374767	-0.200465
F158	F	0.357121	0.125233	0.299535
F159	F	0.000417	-0.039520	0.042582
F160	F	0.500417	0.460480	0.542582
H161	H	0.126281	-0.272310	0.002437
H162	H	0.626281	0.227690	0.502437
H163	H	0.000235	-0.624767	0.018135
H164	H	0.500235	-0.124767	0.518135
H165	H	-0.125597	-0.727233	0.324076
H166	H	0.374403	-0.227233	0.824076
H167	H	0.000377	-0.937392	0.265180
H168	H	0.500377	-0.437392	0.765180
F169	F	0.143651	-0.926040	0.502476
F170	F	0.643651	-0.426040	1.002476
H171	H	0.000409	-0.932771	0.580642
H172	H	0.500409	-0.432771	1.080642
H173	H	0.000362	-0.701140	0.681305
H174	H	0.500362	-0.201140	1.181305
H175	H	0.000340	-0.703065	0.549873
H176	H	0.500340	-0.203065	1.049873
H177	H	0.000303	-0.707693	0.234416
H178	H	0.500303	-0.207693	0.734416
H179	H	0.000298	-0.709613	0.102981
H180	H	0.500298	-0.209613	0.602981
