data_functionalizedCrystal
_audit_creation_method	'MofGen! by Chris Wilmer'
_symmetry_space_group_name_H-M	'P1'
_symmetry_Int_Tables_number	1
_symmetry_cell_setting	triclinic
loop_
_symmetry_equiv_pos_as_xyz
  x,y,z
_cell_length_a	13.635800
_cell_length_b	11.353959
_cell_length_c	9.582880
_cell_angle_alpha	77.990090
_cell_angle_beta	111.207034
_cell_angle_gamma	72.473377
loop_
_atom_site_label
_atom_site_type_symbol
_atom_site_fract_x
_atom_site_fract_y
_atom_site_fract_z
V1	V	2.082922	-0.180297	0.513582
O2	O	2.049933	0.009232	0.455314
O3	O	2.082655	-0.358045	0.556707
O4	O	2.077897	-0.177275	0.716295
O5	O	2.054724	-0.172790	0.294620
V6	V	2.319150	-0.157657	0.481727
O7	O	2.225689	-0.229961	0.583458
O8	O	2.401482	-0.107993	0.411850
O9	O	2.207815	0.020091	0.438602
O10	O	2.410838	-0.347185	0.539995
O11	O	2.406047	-0.165164	0.700688
O12	O	2.212573	-0.160679	0.279013
V13	V	2.582922	-0.180297	0.513582
O14	O	2.549933	0.009232	0.455314
O15	O	2.582655	-0.358045	0.556707
O16	O	2.577897	-0.177275	0.716295
O17	O	2.554724	-0.172790	0.294620
V18	V	2.819150	-0.157657	0.481727
O19	O	2.725689	-0.229961	0.583458
O20	O	2.901482	-0.107993	0.411850
O21	O	2.707815	0.020091	0.438602
O22	O	2.910838	-0.347185	0.539995
O23	O	2.906047	-0.165164	0.700688
O24	O	2.712573	-0.160679	0.279013
C25	C	2.010357	-0.401384	0.560639
C26	C	2.050909	-0.546693	0.597250
C27	C	2.034927	-0.593892	0.478748
C28	C	2.076839	-0.744076	0.516585
C29	C	2.004286	-0.170792	0.764207
C30	C	2.040978	-0.169497	0.930233
C31	C	2.111784	0.063423	0.434668
C32	C	2.060852	0.208731	0.398067
C33	C	2.117854	-0.167166	0.231094
C34	C	2.070781	-0.168455	0.065066
C35	C	2.510357	-0.401384	0.560639
C36	C	2.550909	-0.546693	0.597250
C37	C	2.504286	-0.170792	0.764207
C38	C	2.540978	-0.169497	0.930233
C39	C	2.611784	0.063423	0.434668
C40	C	2.560852	0.208731	0.398067
C41	C	2.617854	-0.167166	0.231094
C42	C	2.570781	-0.168455	0.065066
C43	C	2.662648	-0.621588	0.623654
C44	C	2.700772	-0.758125	0.658078
C45	C	2.627152	-0.819764	0.666085
C46	C	2.515404	-0.744860	0.639682
C47	C	2.477285	-0.608326	0.605271
C48	C	2.621607	0.283625	0.371667
C49	C	2.573756	0.420161	0.337250
C50	C	2.465153	0.481800	0.329246
C51	C	2.404394	0.406896	0.355645
C52	C	2.452241	0.270364	0.390049
H53	H	1.990221	-0.523115	0.349285
N54	N	2.738923	0.217322	0.380751
H55	H	2.793421	0.148554	0.491234
H56	H	2.769903	0.285750	0.358861
N57	N	2.136080	-0.837823	0.688085
H58	H	2.090442	-0.890776	0.702344
H59	H	2.140989	-0.785610	0.761872
H60	H	2.095625	-0.617470	0.726714
H61	H	2.623247	0.481129	0.315763
H62	H	2.658205	-0.930939	0.694107
N63	N	2.436003	-0.811353	0.648289
H64	H	2.413208	-0.797296	0.734751
H65	H	2.477185	-0.909181	0.674025
N66	N	2.742067	-0.555123	0.615044
H67	H	2.706029	-0.486191	0.504705
H68	H	2.818618	-0.623386	0.637082
H69	H	2.791764	-0.819094	0.679567
N70	N	2.001593	-0.697558	0.226546
H71	H	2.055538	-0.717672	0.176682
H72	H	1.980026	-0.603586	0.223920
N73	N	2.356757	-0.527542	0.576761
H74	H	2.361167	-0.483171	0.658545
H75	H	2.315972	-0.587390	0.587018
N76	N	2.413556	0.629060	0.292146
H77	H	2.468535	0.667141	0.276646
H78	H	2.399776	0.646648	0.383991
N79	N	2.287262	0.473385	0.347017
H80	H	2.266185	0.571240	0.321225
H81	H	2.289646	0.434042	0.453535
N82	N	2.386707	0.189591	0.418528
H83	H	2.310651	0.249366	0.408238
H84	H	2.433858	0.120075	0.529688
