data_functionalizedCrystal
_audit_creation_method	'MofGen! by Chris Wilmer'
_symmetry_space_group_name_H-M	'P1'
_symmetry_Int_Tables_number	1
_symmetry_cell_setting	triclinic
loop_
_symmetry_equiv_pos_as_xyz
  x,y,z
_cell_length_a	15.995350
_cell_length_b	15.995300
_cell_length_c	14.472310
_cell_angle_alpha	90.003476
_cell_angle_beta	89.990621
_cell_angle_gamma	83.482091
loop_
_atom_site_label
_atom_site_type_symbol
_atom_site_fract_x
_atom_site_fract_y
_atom_site_fract_z
O1	O	1.110977	0.107923	-0.076753
O2	O	0.867199	0.121251	-0.076771
O3	O	0.995774	-0.007303	-0.076766
O4	O	0.982402	0.236478	-0.076758
O5	O	0.995741	-0.007296	0.076916
O6	O	0.867166	0.121259	0.076911
O7	O	1.110944	0.107931	0.076929
Cu8	Cu	0.989052	0.114595	0.090952
Cu9	Cu	0.989091	0.114587	-0.090795
O10	O	0.982369	0.236485	0.076924
C11	C	0.835988	0.120704	0.000067
C12	C	0.743038	0.119052	0.000060
C13	C	0.995212	-0.038495	0.000072
C14	C	0.993577	-0.131448	0.000062
C15	C	0.990558	-0.301631	0.000071
C16	C	1.082105	-0.349096	0.000076
C17	C	1.080435	-0.445784	0.000428
C18	C	0.987586	-0.469187	0.000079
C19	C	0.942147	-0.428049	0.087662
C20	C	0.944463	-0.331415	0.087732
C21	C	0.943146	-0.331148	-0.087039
C22	C	0.943154	-0.428092	-0.088187
C23	C	0.985901	-0.563883	0.000086
C24	C	0.992239	-0.206935	0.000070
C25	C	0.405292	0.113120	0.000079
C26	C	0.452742	0.021566	0.000419
C27	C	0.549432	0.023218	0.000066
C28	C	0.572852	0.116062	0.000070
C29	C	0.531775	0.161216	-0.087684
C30	C	0.435140	0.158916	-0.087752
C31	C	0.434763	0.160816	0.087014
C32	C	0.531708	0.160794	0.088167
C33	C	0.667549	0.117730	0.000062
C34	C	0.310594	0.111455	0.000081
C35	C	1.142155	0.108478	0.000088
C36	C	1.235105	0.110130	0.000089
C37	C	0.982931	0.267677	0.000084
C38	C	0.984566	0.360630	0.000088
N39	N	0.989031	0.114601	0.218783
N40	N	0.989119	0.114574	-0.218625
C41	C	0.989090	0.114583	0.592874
C42	C	0.920062	0.183139	0.553706
C43	C	0.920221	0.183390	0.446618
C44	C	0.989060	0.114592	0.407283
C45	C	1.076421	0.133674	0.446128
C46	C	1.076033	0.134162	0.553249
C47	C	0.971537	0.026742	0.553399
C48	C	0.969533	0.027327	0.446272
C49	C	0.989048	0.114596	0.302395
C50	C	0.989107	0.114582	0.697763
H51	H	1.118904	-0.330621	-0.062730
O52	O	0.851779	-0.446735	0.091649
H53	H	0.809415	-0.386767	0.090519
H54	H	1.129003	0.086198	0.579157
H55	H	0.931429	0.248575	0.420987
H56	H	0.977182	-0.313092	0.153455
H57	H	0.875464	-0.443437	-0.093744
O58	O	1.096525	0.219016	0.586349
H59	H	1.106613	0.259319	0.525846
O60	O	1.031816	-0.043422	0.410835
H61	H	1.077869	-0.017375	0.364678
H62	H	0.973300	-0.456398	0.153092
H63	H	0.414219	0.130888	0.153530
O64	O	1.038205	-0.040845	0.586954
H65	H	1.083628	-0.012068	0.631530
H66	H	0.577854	-0.012275	0.062973
O67	O	0.428200	-0.026914	0.083777
H68	H	0.381915	0.013722	0.125856
H69	H	1.129014	0.085070	0.420647
O70	O	0.855421	-0.288656	0.092690
H71	H	0.819431	-0.307192	0.031908
H72	H	0.973298	-0.310650	-0.153445
H73	H	0.976336	-0.455437	-0.152982
O74	O	0.853742	-0.289044	-0.088181
H75	H	0.843086	-0.247293	-0.027042
H76	H	0.433168	-0.014865	-0.062169
O77	O	0.586371	-0.024113	-0.083411
H78	H	0.535162	-0.048265	-0.123691
O79	O	1.127487	-0.482675	0.084082
H80	H	1.084369	-0.515413	0.127796
O81	O	0.392668	0.250227	0.087808
H82	H	0.441385	0.294379	0.085548
H83	H	0.416852	0.125982	-0.153353
H84	H	0.854914	0.171957	0.579488
H85	H	1.116139	-0.474252	-0.062340
O86	O	0.392398	0.247946	-0.093042
H87	H	0.440777	0.292451	-0.095549
H88	H	0.545889	0.229426	-0.090945
O89	O	0.884405	0.008148	0.412649
H90	H	0.891827	-0.051117	0.372069
H91	H	1.092262	0.197006	0.419294
O92	O	0.552033	0.250482	0.095199
H93	H	0.586314	0.258701	0.160660
H94	H	0.909217	0.008393	0.580461
O95	O	0.569369	0.119661	-0.174203
H96	H	0.638166	0.123785	-0.175212
O97	O	1.130107	-0.323119	0.083143
H98	H	1.089044	-0.276552	0.124429
H99	H	0.559017	0.127833	0.153088
H100	H	0.855283	0.172020	0.420356
H101	H	0.931114	0.247958	0.580619
