data_functionalizedCrystal
_audit_creation_method	'MofGen! by Chris Wilmer'
_symmetry_space_group_name_H-M	'P1'
_symmetry_Int_Tables_number	1
_symmetry_cell_setting	triclinic
loop_
_symmetry_equiv_pos_as_xyz
  x,y,z
_cell_length_a	12.594517
_cell_length_b	15.297327
_cell_length_c	15.298013
_cell_angle_alpha	88.359290
_cell_angle_beta	80.329110
_cell_angle_gamma	80.293424
loop_
_atom_site_label
_atom_site_type_symbol
_atom_site_fract_x
_atom_site_fract_y
_atom_site_fract_z
Zn1	Zn	1.459878	0.263159	0.555649
Zn2	Zn	1.449422	0.434968	0.434503
Zn3	Zn	1.306648	0.288499	0.409182
Zn4	Zn	1.246763	0.409609	0.580927
O5	O	1.365678	0.349059	0.495065
O6	O	1.607431	0.285958	0.539597
O7	O	1.451168	0.436756	0.308568
O8	O	1.356412	0.162550	0.407436
O9	O	1.599749	0.412185	0.450591
O10	O	1.468989	0.143933	0.515045
O11	O	1.346273	0.329146	0.289965
O12	O	1.149763	0.304557	0.431947
O13	O	1.254348	0.368965	0.700150
O14	O	1.105767	0.393536	0.558127
O15	O	1.410922	0.261368	0.681578
O16	O	1.393101	0.554192	0.475102
O17	O	1.244209	0.535561	0.582679
C18	C	1.311047	0.576659	0.534400
C19	C	1.287769	0.674022	0.551257
C20	C	1.089146	0.349045	0.495033
C21	C	0.970836	0.349056	0.495043
C22	C	0.854711	0.300573	0.426536
C23	C	0.917166	0.265421	0.502781
C24	C	0.909961	0.384168	0.418800
C25	C	0.822489	0.313879	0.571393
C26	C	0.815278	0.432672	0.487364
C27	C	0.877684	0.397541	0.563670
C28	C	1.327121	0.309511	0.723535
C29	C	1.310691	0.292658	0.820895
C30	C	1.643289	0.349073	0.495099
C31	C	1.761590	0.349080	0.495113
C32	C	1.420547	0.120567	0.455596
C33	C	1.443929	0.023197	0.438777
C34	C	1.532442	0.987121	0.374886
C35	C	1.554313	0.895644	0.359044
C36	C	1.487679	0.840234	0.407096
C37	C	1.399169	0.876310	0.470992
C38	C	1.377291	0.967796	0.486831
C39	C	1.332528	0.820909	0.519041
C40	C	1.244018	0.856985	0.582938
C41	C	1.222144	0.948462	0.598774
C42	C	1.288778	1.003872	0.550722
C43	C	1.354407	0.729423	0.503202
C44	C	1.199256	0.710098	0.615148
C45	C	1.177385	0.801575	0.630990
C46	C	1.482832	0.469269	1.134073
C47	C	1.498262	0.485109	1.042600
C48	C	1.451371	0.436997	0.987169
C49	C	1.389046	0.373044	1.023221
C50	C	1.373607	0.357208	1.114705
C51	C	1.342146	0.324936	0.967801
C52	C	1.279821	0.260983	1.003853
C53	C	1.264386	0.245149	1.095328
C54	C	1.311277	0.293260	1.150758
C55	C	1.357585	0.340772	0.876317
C56	C	1.248360	0.228711	0.856948
C57	C	1.232930	0.212871	0.948422
C58	C	1.404071	0.388471	1.267487
C59	C	1.420502	0.405321	1.170127
H60	H	0.843847	0.259515	0.368628
F61	F	0.959831	0.422970	0.334486
F62	F	1.127939	0.986855	0.666775
H63	H	0.961386	0.194712	0.509323
F64	F	0.772816	0.274969	0.655717
F65	F	1.083188	0.839980	0.698992
H66	H	1.426472	0.700059	0.451177
H67	H	1.586680	1.032244	0.335764
F68	F	0.891618	0.451134	0.639504
F69	F	0.757430	0.525067	0.478792
F70	F	1.423914	0.408834	0.837958
H71	H	1.144995	0.664983	0.654274
F72	F	1.511156	0.742844	0.390421
H73	H	1.463937	0.449899	0.912688
F74	F	1.294861	0.276403	1.248117
F75	F	1.648514	0.857255	0.291049
H76	H	1.548995	0.537188	1.013254
F77	F	1.265213	1.101282	0.567301
F78	F	1.532718	0.520473	1.193072
H79	H	1.182184	0.160800	0.977789
F80	F	1.198012	0.177112	1.133699
H81	H	1.210177	0.189535	0.811817
