data_functionalizedCrystal
_audit_creation_method	'MofGen! by Chris Wilmer'
_symmetry_space_group_name_H-M	'P1'
_symmetry_Int_Tables_number	1
_symmetry_cell_setting	triclinic
loop_
_symmetry_equiv_pos_as_xyz
  x,y,z
_cell_length_a	10.686285
_cell_length_b	19.805407
_cell_length_c	19.805399
_cell_angle_alpha	89.980427
_cell_angle_beta	85.610534
_cell_angle_gamma	85.631507
loop_
_atom_site_label
_atom_site_type_symbol
_atom_site_fract_x
_atom_site_fract_y
_atom_site_fract_z
Zn1	Zn	-0.502374	1.055500	-0.362110
Zn2	Zn	-0.713385	1.064136	-0.240266
Zn3	Zn	-0.502409	0.942316	-0.248934
Zn4	Zn	-0.713318	0.950997	-0.353415
O5	O	-0.607872	1.003237	-0.301181
O6	O	-0.530379	1.151363	-0.345959
O7	O	-0.685441	1.047958	-0.146697
O8	O	-0.325830	0.950083	-0.271213
O9	O	-0.685408	1.157708	-0.256440
O10	O	-0.325804	1.033239	-0.354364
O11	O	-0.530438	0.958457	-0.153065
O12	O	-0.530373	0.848750	-0.262782
O13	O	-0.685293	0.964878	-0.449287
O14	O	-0.685327	0.855128	-0.339544
O15	O	-0.530314	1.041656	-0.455675
O16	O	-0.889951	1.056375	-0.248009
O17	O	-0.889902	0.973252	-0.331139
C18	C	-0.607847	0.827380	-0.301160
C19	C	-0.607868	0.752149	-0.301166
C20	C	-0.688673	0.720149	-0.341061
C21	C	-0.688676	0.649460	-0.341071
C22	C	-0.607877	0.610774	-0.301181
C23	C	-0.527063	0.642779	-0.261284
C24	C	-0.527055	0.713466	-0.261279
C25	C	-0.527090	0.357707	-0.261306
C26	C	-0.527107	0.287015	-0.261312
C27	C	-0.688711	0.293701	-0.341097
C28	C	-0.688704	0.364388	-0.341092
C29	C	-0.607885	0.396387	-0.301198
C30	C	-0.607882	0.473035	-0.301190
C31	C	-0.607886	0.534127	-0.301186
C32	C	-0.935710	1.016711	-0.287705
C33	C	-1.075961	1.022538	-0.281962
C34	C	-0.278753	0.989729	-0.314725
C35	C	-0.138502	0.983973	-0.320497
C36	C	-0.607792	1.003272	-0.477727
C37	C	-0.607758	1.003287	-0.552961
C38	C	-0.607897	1.179781	-0.301203
C39	C	-0.607907	1.255013	-0.301212
C40	C	-0.527056	1.043266	-0.591633
C41	C	-0.527020	1.043271	-0.662323
C42	C	-0.607692	1.003301	-0.694339
C43	C	-0.688398	0.963317	-0.655662
C44	C	-0.688427	0.963308	-0.584974
C45	C	-0.688280	0.963350	-0.940740
C46	C	-0.688247	0.963364	-1.011434
C47	C	-0.526873	1.043313	-1.018089
C48	C	-0.526902	1.043305	-0.947401
C49	C	-0.607602	1.003318	-0.908730
C50	C	-0.607639	1.003312	-0.832080
C51	C	-0.607663	1.003310	-0.770988
C52	C	-0.607860	1.003238	-0.125326
C53	C	-0.607538	1.003340	-0.050107
H54	H	-0.461303	0.255518	-0.228830
N55	N	-0.439937	0.601058	-0.218246
H56	H	-0.452215	0.551422	-0.224295
H57	H	-0.459487	0.614208	-0.169090
H58	H	-1.084751	0.946499	-0.357883
H59	H	-0.461159	1.075869	-1.049584
H60	H	-0.754130	0.930746	-0.553488
H61	H	-0.753943	0.930812	-1.037499
N62	N	-0.439991	1.086391	-0.704042
H63	H	-0.381501	1.056485	-0.735770
H64	H	-0.388972	1.111712	-0.672995
N65	N	-1.147154	1.072171	-0.232425
H66	H	-1.240615	1.069434	-0.235199
H67	H	-1.124104	1.119560	-0.243936
N68	N	-0.439895	1.086420	-0.912872
H69	H	-0.349731	1.072208	-0.928882
H70	H	-0.452268	1.080332	-0.862231
N71	N	-0.775830	0.761873	-0.384081
H72	H	-0.827018	0.730871	-0.409356
H73	H	-0.724543	0.789107	-0.417555
N74	N	-0.775275	0.920201	-0.899039
H75	H	-0.826363	0.894877	-0.930050
H76	H	-0.833703	0.950120	-0.867296
H77	H	-0.754502	0.395884	-0.373572
N78	N	-0.775873	0.259190	-0.384135
H79	H	-0.865999	0.275193	-0.369833
H80	H	-0.763513	0.208548	-0.378074
N81	N	-0.775848	0.614945	-0.384090
H82	H	-0.827044	0.650179	-0.409351
H83	H	-0.834166	0.588007	-0.354080
H84	H	-0.461292	0.383752	-0.228816
H85	H	-0.461367	1.075817	-0.565570
N86	N	-0.775381	0.920197	-0.690203
H87	H	-0.833850	0.950102	-0.717133
H88	H	-0.826426	0.894866	-0.654944
N89	N	-0.439892	0.747984	-0.218255
H90	H	-0.388707	0.712752	-0.192985
H91	H	-0.491167	0.779411	-0.184775
