data_functionalizedCrystal
_audit_creation_method	'MofGen! by Chris Wilmer'
_symmetry_space_group_name_H-M	'P1'
_symmetry_Int_Tables_number	1
_symmetry_cell_setting	triclinic
loop_
_symmetry_equiv_pos_as_xyz
  x,y,z
_cell_length_a	12.759401
_cell_length_b	12.759399
_cell_length_c	12.759393
_cell_angle_alpha	90.030906
_cell_angle_beta	90.020938
_cell_angle_gamma	90.016641
loop_
_atom_site_label
_atom_site_type_symbol
_atom_site_fract_x
_atom_site_fract_y
_atom_site_fract_z
Zn1	Zn	-1.606263	0.418173	-0.594017
Zn2	Zn	-1.606153	0.593888	-0.418336
Zn3	Zn	-1.430562	0.418229	-0.418352
Zn4	Zn	-1.430553	0.593815	-0.593973
O5	O	-1.518383	0.506026	-0.506170
O6	O	-1.753270	0.441489	-0.570724
O7	O	-1.582818	0.570641	-0.271317
O8	O	-1.453919	0.271200	-0.441680
O9	O	-1.753189	0.570587	-0.441652
O10	O	-1.583006	0.271159	-0.570740
O11	O	-1.453812	0.441584	-0.271329
O12	O	-1.283540	0.441513	-0.441637
O13	O	-1.453903	0.570461	-0.741000
O14	O	-1.283533	0.570516	-0.570665
O15	O	-1.582997	0.441418	-0.741032
O16	O	-1.582809	0.740900	-0.441609
O17	O	-1.453796	0.740846	-0.570649
C18	C	-1.518318	0.778994	-0.506146
C19	C	-1.518387	0.895770	-0.506171
C20	C	-1.518461	0.505925	-0.780203
C21	C	-1.518495	0.505882	-0.896980
C22	C	-1.245415	0.506013	-0.506149
C23	C	-1.128639	0.506033	-0.506165
C24	C	-1.792416	0.506040	-0.506191
C25	C	-1.909193	0.506046	-0.506200
C26	C	-1.073801	0.573307	-0.573244
C27	C	-0.964077	0.573311	-0.573265
C28	C	-0.964038	0.438764	-0.439118
C29	C	-1.073760	0.438756	-0.439104
C30	C	-1.518476	0.231993	-0.506217
C31	C	-1.518516	0.115216	-0.506237
C32	C	-1.585641	0.950625	-0.439056
C33	C	-1.585708	1.060349	-0.439091
C34	C	-1.451259	1.060353	-0.573359
C35	C	-1.451198	0.950631	-0.573328
C36	C	-1.585719	0.438679	-0.951860
C37	C	-1.585737	0.438633	-1.061584
C38	C	-1.451303	0.573004	-1.061538
C39	C	-1.451281	0.573044	-0.951816
C40	C	-1.518365	0.506051	-0.233202
C41	C	-1.518535	0.505798	-0.116426
H42	H	-1.118479	0.628086	-0.627852
H43	H	-1.396532	0.627768	-0.907131
O44	O	-1.650852	0.373379	-0.898478
C45	C	-1.591043	0.305524	-0.835036
H46	H	-1.511410	0.342584	-0.818574
H47	H	-1.579528	0.227653	-0.877339
C48	C	-1.746641	0.241011	-0.751044
C49	C	-1.648838	0.286534	-0.730819
H50	H	-1.782292	0.229293	-0.686760
H51	H	-1.786937	0.286723	-0.793789
H52	H	-1.737031	0.176124	-0.786300
H53	H	-1.658449	0.351426	-0.695576
H54	H	-1.608545	0.240833	-0.688066
H55	H	-0.919432	0.628090	-0.627889
H56	H	-1.640352	0.905960	-0.384374
O57	O	-1.651069	1.113473	-0.373794
C58	C	-1.710375	1.041518	-0.314538
H59	H	-1.667296	0.963346	-0.310841
H60	H	-1.790142	1.029745	-0.353074
C61	C	-1.778506	1.180431	-0.207285
C62	C	-1.725591	1.084422	-0.202738
H63	H	-1.787897	1.206897	-0.138323
H64	H	-1.738554	1.228910	-0.247210
H65	H	-1.844973	1.170607	-0.239404
H66	H	-1.659121	1.094249	-0.170632
H67	H	-1.765532	1.035945	-0.162805
O68	O	-1.386119	0.638213	-1.114970
C69	C	-1.400535	0.623752	-1.223583
H70	H	-1.481631	0.589345	-1.238588
H71	H	-1.338245	0.567787	-1.254721
C72	C	-1.291275	0.772293	-1.261464
C73	C	-1.390882	0.730042	-1.279894
H74	H	-1.285317	0.837856	-1.296201
H75	H	-1.281559	0.782034	-1.188290
H76	H	-1.239378	0.725646	-1.287412
H77	H	-1.442777	0.776683	-1.253934
H78	H	-1.400607	0.720312	-1.353066
H79	H	-1.396555	1.105035	-0.628034
H80	H	-1.640476	0.383908	-1.106263
H81	H	-0.919343	0.383991	-0.384518
O82	O	-1.385764	0.897501	-0.638561
C83	C	-1.326487	0.969448	-0.697855
H84	H	-1.322908	1.047701	-0.654842
H85	H	-1.364929	0.981020	-0.777683
C86	C	-1.219037	0.830589	-0.765719
C87	C	-1.214634	0.926698	-0.712887
H88	H	-1.150042	0.804218	-0.774997
H89	H	-1.258975	0.782116	-0.725775
H90	H	-1.251077	0.840245	-0.832237
H91	H	-1.182607	0.917039	-0.646365
H92	H	-1.174687	0.975169	-0.752820
H93	H	-1.118411	0.383967	-0.384480
