data_functionalizedCrystal
_audit_creation_method	'MofGen! by Chris Wilmer'
_symmetry_space_group_name_H-M	'P1'
_symmetry_Int_Tables_number	1
_symmetry_cell_setting	triclinic
loop_
_symmetry_equiv_pos_as_xyz
  x,y,z
_cell_length_a	15.995292
_cell_length_b	15.995350
_cell_length_c	18.366186
_cell_angle_alpha	89.995992
_cell_angle_beta	89.989780
_cell_angle_gamma	83.480495
loop_
_atom_site_label
_atom_site_type_symbol
_atom_site_fract_x
_atom_site_fract_y
_atom_site_fract_z
O1	O	1.111021	0.107696	-0.060566
O2	O	1.611021	0.607696	0.439434
O3	O	0.867239	0.121074	-0.060562
O4	O	1.367239	0.621074	0.439438
O5	O	0.995794	-0.007504	-0.060563
O6	O	1.495794	0.492496	0.439437
O7	O	0.982466	0.236274	-0.060565
O8	O	1.482466	0.736274	0.439435
O9	O	0.995772	-0.007510	0.060536
O10	O	1.495772	0.492490	0.560536
O11	O	0.867217	0.121068	0.060537
O12	O	1.367217	0.621068	0.560537
O13	O	1.110999	0.107690	0.060534
O14	O	1.610999	0.607690	0.560534
Zn15	Zn	0.989105	0.114378	0.079762
Zn16	Zn	1.489105	0.614378	0.579762
Zn17	Zn	0.989134	0.114386	-0.079791
Zn18	Zn	1.489134	0.614386	0.420209
O19	O	0.982445	0.236268	0.060535
O20	O	1.482445	0.736268	0.560535
C21	C	0.836033	0.120527	-0.000012
C22	C	1.336033	0.620527	0.499988
C23	C	0.743080	0.118894	-0.000011
C24	C	1.243080	0.618894	0.499989
C25	C	0.405341	0.112893	-0.000019
C26	C	0.905341	0.612893	0.499981
C27	C	0.428654	0.205697	-0.000290
C28	C	0.928654	0.705697	0.499710
C29	C	0.525329	0.207461	-0.000014
C30	C	1.025329	0.707461	0.499986
C31	C	0.572897	0.115871	-0.000016
C32	C	1.072897	0.615871	0.499984
C33	C	0.543783	0.069469	0.069136
C34	C	1.043783	0.569469	0.569136
C35	C	0.446992	0.068352	0.069191
C36	C	0.946992	0.568352	0.569191
C37	C	0.447162	0.066464	-0.068522
C38	C	0.947162	0.566464	0.431478
C39	C	0.543655	0.069904	-0.069433
C40	C	1.043655	0.569904	0.430567
C41	C	0.667593	0.117549	-0.000011
C42	C	1.167593	0.617549	0.499989
C43	C	0.310646	0.111212	-0.000019
C44	C	0.810646	0.611212	0.499981
C45	C	0.995232	-0.038702	-0.000015
C46	C	1.495232	0.461298	0.499985
C47	C	0.993580	-0.131652	-0.000019
C48	C	1.493580	0.368348	0.499981
C49	C	0.987648	-0.469398	-0.000017
C50	C	1.487648	0.030602	0.499983
C51	C	0.896094	-0.421945	-0.000287
C52	C	1.396094	0.078055	0.499713
C53	C	0.897746	-0.325255	-0.000014
C54	C	1.397746	0.174745	0.499986
C55	C	0.990591	-0.301838	-0.000018
C56	C	1.490591	0.198162	0.499982
C57	C	1.035736	-0.342929	0.069133
C58	C	1.535736	0.157071	0.569133
C59	C	1.033436	-0.439564	0.069191
C60	C	1.533436	0.060436	0.569191
C61	C	1.035352	-0.439915	-0.068521
C62	C	1.535352	0.060085	0.431479
C63	C	1.035331	-0.342970	-0.069435
C64	C	1.535331	0.157030	0.430565
C65	C	0.992259	-0.207141	-0.000017
C66	C	1.492259	0.292859	0.499983
C67	C	0.985983	-0.564095	-0.000013
C68	C	1.485983	-0.064095	0.499987
C69	C	1.142206	0.108237	-0.000018
C70	C	1.642206	0.608237	0.499982
C71	C	1.235159	0.109870	-0.000024
C72	C	1.735159	0.609870	0.499976
C73	C	0.983006	0.267466	-0.000015
C74	C	1.483006	0.767466	0.499985
C75	C	0.984658	0.360416	-0.000016
C76	C	1.484658	0.860416	0.499984
N77	N	0.989091	0.114372	0.188654
N78	N	1.489091	0.614372	0.688654
N79	N	0.989154	0.114386	-0.188682
N80	N	1.489154	0.614386	0.311318
C81	C	1.046034	0.057465	0.226754
C82	C	1.546034	0.557465	0.726754
C83	C	1.046040	0.057461	0.302981
C84	C	1.546040	0.557461	0.802981
C85	C	0.989110	0.114378	0.341106
C86	C	1.489110	0.614378	0.841106
C87	C	0.932157	0.171289	0.302997
C88	C	1.432157	0.671289	0.802997
C89	C	0.932147	0.171286	0.226771
C90	C	1.432147	0.671286	0.726771
C91	C	0.978140	0.190637	0.461866
C92	C	1.478140	0.690637	0.961866
C93	C	0.978155	0.190642	0.538091
C94	C	1.478155	0.690642	1.038091
C95	C	0.989134	0.114389	0.576214
C96	C	1.489134	0.614389	1.076214
C97	C	1.000115	0.038128	0.538102
C98	C	1.500115	0.538128	1.038102
C99	C	1.000106	0.038125	0.461876
C100	C	1.500106	0.538125	0.961876
C101	C	0.989113	0.114388	0.423761
C102	C	1.489113	0.614388	0.923761
C103	C	1.046086	0.057474	0.696969
C104	C	1.546086	0.557474	1.196969
C105	C	1.046085	0.057469	0.773198
C106	C	1.546085	0.557469	1.273198
C107	C	0.932206	0.171304	0.773212
C108	C	1.432206	0.671304	1.273212
C109	C	0.932203	0.171302	0.696985
C110	C	1.432203	0.671302	1.196985
C111	C	0.989147	0.114387	0.658867
C112	C	1.489147	0.614387	1.158867
H113	H	0.418844	0.095475	-0.120935
H114	H	0.918844	0.595475	0.379065
C115	C	0.966082	0.274524	0.580007
C116	C	1.466082	0.774524	1.080007
H117	H	0.959528	0.319936	0.546387
H118	H	1.459528	0.819936	1.046387
H119	H	1.013927	0.279192	0.609728
H120	H	1.513927	0.779192	1.109728
H121	H	0.917328	0.276198	0.609757
H122	H	1.417328	0.776198	1.109757
H123	H	0.859654	-0.441534	0.049028
H124	H	1.359654	0.058466	0.549028
C125	C	0.410747	0.111765	0.139017
C126	C	0.910747	0.611765	0.639017
H127	H	0.455197	0.129921	0.167081
H128	H	0.955197	0.629921	0.667081
H129	H	0.382711	0.073190	0.166665
H130	H	0.882711	0.573190	0.666665
H131	H	0.371981	0.158985	0.126380
H132	H	0.871981	0.658985	0.626380
C133	C	0.993357	-0.304594	0.138660
C134	C	1.493357	0.195406	0.638660
H135	H	1.021127	-0.329866	0.180217
H136	H	1.521127	0.170134	0.680217
H137	H	0.935934	-0.314553	0.139283
H138	H	1.435934	0.185447	0.639283
H139	H	0.996876	-0.245710	0.139376
H140	H	1.496876	0.254290	0.639376
C141	C	1.124235	-0.483152	0.073440
C142	C	1.624235	0.016848	0.573440
H143	H	1.162363	-0.441776	0.075129
H144	H	1.662363	0.058224	0.575129
H145	H	1.135794	-0.517670	0.031742
H146	H	1.635794	-0.017670	0.531742
H147	H	1.130567	-0.516888	0.116087
H148	H	1.630567	-0.016888	0.616087
C149	C	0.427330	-0.023565	0.073438
C150	C	0.927330	0.476435	0.573438
H151	H	0.478477	-0.060058	0.075129
H152	H	0.978477	0.439942	0.575129
H153	H	0.395997	-0.036276	0.031739
H154	H	0.895997	0.463724	0.531739
H155	H	0.395397	-0.031068	0.116084
H156	H	0.895397	0.468932	0.616084
H157	H	0.885838	0.217644	0.665962
H158	H	1.385838	0.717644	1.165962
C159	C	1.127879	-0.323863	0.072612
C160	C	1.627879	0.176137	0.572612
H161	H	1.139662	-0.290590	0.031826
H162	H	1.639662	0.209410	0.531826
H163	H	1.164186	-0.375157	0.071970
H164	H	1.664186	0.124843	0.571970
H165	H	1.136630	-0.294060	0.116184
H166	H	1.636630	0.205940	0.616184
H167	H	0.862001	-0.297385	0.049642
H168	H	1.362001	0.202615	0.549642
H169	H	1.005428	-0.460446	-0.120934
H170	H	1.505428	0.039554	0.379066
C171	C	0.568748	0.115541	-0.138545
C172	C	1.068748	0.615541	0.361455
H173	H	0.596934	0.162411	-0.125158
H174	H	1.096934	0.662411	0.374842
H175	H	0.519685	0.134466	-0.165696
H176	H	1.019685	0.634466	0.334304
H177	H	0.605126	0.077902	-0.167411
H178	H	1.105126	0.577902	0.332589
H179	H	1.092451	0.011128	0.665932
H180	H	1.592451	0.511128	1.165932
H181	H	0.969185	0.252736	0.430833
H182	H	1.469185	0.752736	0.930833
C183	C	0.588184	-0.020411	-0.075076
C184	C	1.088184	0.479589	0.424924
H185	H	0.625354	-0.031316	-0.034989
H186	H	1.125354	0.468684	0.465011
H187	H	0.619256	-0.026434	-0.119212
H188	H	1.119256	0.473566	0.380788
H189	H	0.547408	-0.059206	-0.074490
H190	H	1.047408	0.440794	0.425510
C191	C	1.012198	-0.045757	0.580023
C192	C	1.512198	0.454243	1.080023
H193	H	1.018744	-0.091171	0.546408
H194	H	1.518744	0.408829	1.046408
H195	H	0.964363	-0.050426	0.609771
H196	H	1.464363	0.449574	1.109771
H197	H	1.060961	-0.047426	0.609746
H198	H	1.560961	0.452574	1.109746
H199	H	1.009045	-0.023969	0.430848
H200	H	1.509045	0.476031	0.930848
H201	H	0.543724	0.244015	0.049640
H202	H	1.043724	0.744015	0.549640
C203	C	0.990808	-0.306076	-0.138547
C204	C	1.490808	0.193924	0.361453
H205	H	0.945146	-0.265770	-0.125161
H206	H	1.445146	0.234230	0.374839
H207	H	0.970246	-0.349971	-0.165700
H208	H	1.470246	0.150029	0.334300
H209	H	1.029565	-0.279707	-0.167412
H210	H	1.529565	0.220293	0.332588
C211	C	0.389447	0.253757	0.066325
C212	C	0.889447	0.753757	0.566325
H213	H	0.403835	0.309768	0.065740
H214	H	0.903835	0.809768	0.565740
H215	H	0.410330	0.226414	0.109632
H216	H	0.910330	0.726414	0.609632
H217	H	0.329980	0.254749	0.064689
H218	H	0.829980	0.754749	0.564689
C219	C	0.988930	-0.464285	0.139019
C220	C	1.488930	0.035715	0.639019
H221	H	0.972418	-0.415291	0.167082
H222	H	1.472418	0.084709	0.667082
H223	H	1.026332	-0.502265	0.166668
H224	H	1.526332	-0.002265	0.666668
H225	H	0.940564	-0.490537	0.126383
H226	H	1.440564	0.009463	0.626383
H227	H	0.433169	-0.001846	-0.068991
H228	H	0.933169	0.498154	0.431009
C229	C	0.869538	0.233899	0.344931
C230	C	1.369538	0.733899	0.844931
H231	H	0.877705	0.225757	0.395786
H232	H	1.377705	0.725757	0.895786
H233	H	0.813657	0.224785	0.332457
H234	H	1.313657	0.724785	0.832457
H235	H	0.878632	0.289786	0.332429
H236	H	1.378632	0.789786	0.832429
H237	H	0.544365	0.243796	-0.049586
H238	H	1.044365	0.743796	0.450414
H239	H	0.885777	0.217627	0.195749
H240	H	1.385777	0.717627	0.695749
H241	H	1.103038	-0.327622	-0.073614
H242	H	1.603038	0.172378	0.426386
H243	H	1.092452	0.011124	0.804219
H244	H	1.592452	0.511124	1.304219
C245	C	1.126538	-0.482845	-0.069161
C246	C	1.626538	0.017155	0.430839
H247	H	1.135527	-0.518568	-0.027907
H248	H	1.635527	-0.018568	0.472093
H249	H	1.164367	-0.441191	-0.067646
H250	H	1.664367	0.058809	0.432354
H251	H	1.135966	-0.515281	-0.112321
H252	H	1.635966	-0.015281	0.387679
C253	C	1.108680	-0.005133	0.344904
C254	C	1.608680	0.494867	0.844904
H255	H	1.100526	0.003019	0.395760
H256	H	1.600526	0.503019	0.895760
H257	H	1.164557	0.003986	0.332397
H258	H	1.664557	0.503986	0.832397
H259	H	1.099591	-0.061025	0.332423
H260	H	1.599591	0.438975	0.832423
C261	C	0.570856	0.112994	0.138660
C262	C	1.070856	0.612994	0.638660
H263	H	0.599893	0.159437	0.125693
H264	H	1.099893	0.659437	0.625693
H265	H	0.606910	0.074094	0.166639
H266	H	1.106910	0.574094	0.666639
H267	H	0.522458	0.132323	0.166534
H268	H	1.022458	0.632323	0.666534
C269	C	0.390837	0.254034	-0.067277
C270	C	0.890837	0.754034	0.432723
H271	H	0.360486	0.218054	-0.095679
H272	H	0.860486	0.718054	0.404321
H273	H	0.434800	0.272508	-0.095752
H274	H	0.934800	0.772508	0.404248
H275	H	0.353872	0.301356	-0.051722
H276	H	0.853872	0.801356	0.448278
C277	C	0.849794	-0.286840	-0.066971
C278	C	1.349794	0.213160	0.433029
H279	H	0.829123	-0.330322	-0.094583
H280	H	1.329123	0.169678	0.405417
H281	H	0.886693	-0.258555	-0.096233
H282	H	1.386693	0.241445	0.403767
H283	H	0.803962	-0.247952	-0.051401
H284	H	1.303962	0.252048	0.448599
H285	H	0.885850	0.217644	0.804253
H286	H	1.385850	0.717644	1.304253
C287	C	0.586830	-0.021579	0.072618
C288	C	1.086830	0.478421	0.572618
H289	H	0.568331	-0.048474	0.114833
H290	H	1.068331	0.451526	0.614833
H291	H	0.646112	-0.021088	0.074692
H292	H	1.146112	0.478912	0.574692
H293	H	0.572588	-0.051352	0.030475
H294	H	1.072588	0.448648	0.530475
C295	C	0.846662	-0.446973	-0.067271
C296	C	1.346662	0.053027	0.432729
H297	H	0.881411	-0.486590	-0.095672
H298	H	1.381411	0.013410	0.404328
H299	H	0.829828	-0.398392	-0.095749
H300	H	1.329828	0.101608	0.404251
H301	H	0.798251	-0.471399	-0.051713
H302	H	1.298251	0.028601	0.448287
H303	H	1.092399	0.011120	0.195721
H304	H	1.592399	0.511120	0.695721
