data_functionalizedCrystal
_audit_creation_method	'MofGen! by Chris Wilmer'
_symmetry_space_group_name_H-M	'P1'
_symmetry_Int_Tables_number	1
_symmetry_cell_setting	triclinic
loop_
_symmetry_equiv_pos_as_xyz
  x,y,z
_cell_length_a	6.817900
_cell_length_b	17.110486
_cell_length_c	17.110477
_cell_angle_alpha	96.939211
_cell_angle_beta	99.060298
_cell_angle_gamma	99.060439
loop_
_atom_site_label
_atom_site_type_symbol
_atom_site_fract_x
_atom_site_fract_y
_atom_site_fract_z
V1	V	-3.954938	-0.246618	-0.109247
O2	O	-3.966477	-0.242029	0.005492
O3	O	-3.885154	-0.244831	-0.216852
O4	O	-3.885155	-0.354223	-0.107460
O5	O	-3.966476	-0.131879	-0.104657
V6	V	-4.444108	-0.232907	-0.095536
O7	O	-4.203810	-0.276696	-0.139325
O8	O	-4.645433	-0.202830	-0.065458
O9	O	-4.290685	-0.234695	0.012069
O10	O	-4.549965	-0.237496	-0.210275
O11	O	-4.549966	-0.347646	-0.100126
O12	O	-4.290684	-0.125302	-0.097322
C13	C	-3.725645	-0.240914	-0.243087
C14	C	-3.749732	-0.240170	-0.331054
C15	C	-3.725645	-0.380454	-0.103546
C16	C	-3.749732	-0.468421	-0.102797
C17	C	-3.941550	-0.513775	-0.106395
C18	C	-3.964170	-0.596429	-0.105690
C19	C	-3.794972	-0.633728	-0.101394
C20	C	-3.603137	-0.588367	-0.097794
C21	C	-3.580518	-0.505714	-0.098493
C22	C	-3.854235	-0.883085	-0.099083
C23	C	-3.876871	-0.965745	-0.098387
C24	C	-4.237903	-0.973801	-0.106281
C25	C	-4.215268	-0.891147	-0.106984
C26	C	-4.023435	-0.845792	-0.103380
C27	C	-3.818089	-0.718214	-0.100677
C28	C	-4.000318	-0.761307	-0.104092
C29	C	-3.941549	-0.243763	-0.376408
C30	C	-3.964171	-0.243069	-0.459064
C31	C	-3.794973	-0.238775	-0.496363
C32	C	-3.603142	-0.235183	-0.451003
C33	C	-3.580524	-0.235884	-0.368350
C34	C	-3.854236	-0.236467	-0.745721
C35	C	-3.876869	-0.235765	-0.828379
C36	C	-4.237899	-0.243652	-0.836434
C37	C	-4.215261	-0.244347	-0.753779
C38	C	-4.023435	-0.240760	-0.708427
C39	C	-3.818092	-0.238062	-0.580849
C40	C	-4.000321	-0.241478	-0.623943
C41	C	-4.113536	-0.238609	0.038300
C42	C	-4.068686	-0.239358	0.126267
C43	C	-4.113536	-0.099067	-0.101239
C44	C	-4.068689	-0.011099	-0.101984
H45	H	-4.079336	-0.483414	-0.109898
C46	C	-4.175168	-0.646315	-0.109644
H47	H	-4.272698	-0.612265	-0.112310
H48	H	-4.176560	-0.671538	-0.063180
H49	H	-4.206436	-0.685914	-0.155890
H50	H	-3.680332	-0.748592	-0.097182
C51	C	-4.127670	-0.248482	-0.335386
H52	H	-4.245150	-0.250528	-0.374239
H53	H	-4.111415	-0.202566	-0.296126
H54	H	-4.141293	-0.295276	-0.310496
C55	C	-4.401385	-0.850122	-0.111698
H56	H	-4.518865	-0.888971	-0.113731
H57	H	-4.415009	-0.825227	-0.158484
H58	H	-4.385113	-0.810865	-0.065773
C59	C	-3.369524	-0.455821	-0.094538
H60	H	-3.380281	-0.401253	-0.095562
H61	H	-3.313989	-0.474893	-0.139154
H62	H	-3.284133	-0.460526	-0.046444
C63	C	-3.690842	-1.006818	-0.093962
H64	H	-3.573381	-0.967983	-0.092002
H65	H	-3.707583	-1.045989	-0.139983
H66	H	-3.676814	-1.031827	-0.047251
C67	C	-3.631977	-0.233331	-0.621876
H68	H	-3.514488	-0.231292	-0.583031
H69	H	-3.618378	-0.186543	-0.646770
H70	H	-3.648237	-0.279253	-0.661136
H71	H	-4.120366	-0.245996	-0.495988
H72	H	-3.424329	-0.232961	-0.331424
H73	H	-4.353047	-0.247849	-0.723417
H74	H	-4.394086	-1.010737	-0.109215
C75	C	-4.448894	-0.247609	-0.886324
H76	H	-4.438142	-0.246585	-0.940892
H77	H	-4.504433	-0.202996	-0.867251
H78	H	-4.534277	-0.295705	-0.881618
C79	C	-3.417021	-0.230460	-0.492026
H80	H	-3.299543	-0.228427	-0.453176
H81	H	-3.403401	-0.183670	-0.516916
H82	H	-3.433279	-0.276380	-0.531287
H83	H	-4.138076	-0.730935	-0.107587
C84	C	-4.186431	-0.246195	-0.582919
H85	H	-4.303921	-0.248236	-0.621765
H86	H	-4.170150	-0.200279	-0.543658
H87	H	-4.200056	-0.292989	-0.558030
H88	H	-3.698046	-0.846172	-0.096176
H89	H	-3.465373	-0.618742	-0.094292
H90	H	-3.739083	-0.232287	-0.858748
H91	H	-3.698041	-0.233542	-0.708804
