data_functionalizedCrystal
_audit_creation_method	'MofGen! by Chris Wilmer'
_symmetry_space_group_name_H-M	'P1'
_symmetry_Int_Tables_number	1
_symmetry_cell_setting	triclinic
loop_
_symmetry_equiv_pos_as_xyz
  x,y,z
_cell_length_a	9.065218
_cell_length_b	14.472310
_cell_length_c	9.065218
_cell_angle_alpha	90.000903
_cell_angle_beta	94.984115
_cell_angle_gamma	90.013153
loop_
_atom_site_label
_atom_site_type_symbol
_atom_site_fract_x
_atom_site_fract_y
_atom_site_fract_z
O1	O	1.960421	0.076839	-0.216347
O2	O	1.531136	0.076840	-0.234094
O3	O	1.754652	0.076838	-0.010578
O4	O	1.736905	0.076842	-0.439863
O5	O	1.754593	-0.076844	-0.010590
O6	O	1.531078	-0.076842	-0.234106
O7	O	1.960363	-0.076843	-0.216359
Cu8	Cu	1.745715	-0.090875	-0.225234
Cu9	Cu	1.745784	0.090872	-0.225219
O10	O	1.736847	-0.076840	-0.439875
C11	C	1.476120	-0.000001	-0.232394
C12	C	1.312277	-0.000000	-0.227294
N13	N	1.745677	-0.218706	-0.225243
C14	C	1.745782	-0.592797	-0.225213
C15	C	1.625771	-0.553630	-0.344400
C16	C	1.626057	-0.446542	-0.344844
C17	C	1.745729	-0.407206	-0.225228
C18	C	1.900138	-0.446043	-0.260913
C19	C	1.899466	-0.553164	-0.261762
C20	C	1.712752	-0.553327	-0.070002
C21	C	1.709234	-0.446200	-0.070987
C22	C	1.745708	-0.302318	-0.225234
C23	C	1.745812	-0.697685	-0.225211
C24	C	2.015378	0.000000	-0.218059
C25	C	2.179221	0.000006	-0.223158
C26	C	1.752917	-0.000002	0.044403
C27	C	1.747817	0.000003	0.208245
N28	N	1.745833	0.218703	-0.225198
C29	C	1.738582	0.000001	-0.494855
C30	C	1.743681	0.000003	-0.658698
H31	H	1.511348	-0.420286	-0.323280
Cl32	Cl	2.041449	-0.406706	-0.130584
Cl33	Cl	1.835194	-0.404879	0.072614
H34	H	1.928259	-0.578139	-0.375020
H35	H	1.929565	-0.419205	-0.372892
H36	H	1.800246	-0.578655	0.018717
Cl37	Cl	1.542484	-0.595085	-0.017841
H38	H	1.646796	-0.580538	-0.458886
Cl39	Cl	1.448090	-0.593421	-0.311589
H40	H	1.595638	-0.420818	-0.043954
H41	H	1.647364	-0.420906	-0.459981
H42	H	1.991668	-0.579071	-0.178485
