data_functionalizedCrystal
_audit_creation_method	'MofGen! by Chris Wilmer'
_symmetry_space_group_name_H-M	'P1'
_symmetry_Int_Tables_number	1
_symmetry_cell_setting	triclinic
loop_
_symmetry_equiv_pos_as_xyz
  x,y,z
_cell_length_a	12.784905
_cell_length_b	19.288865
_cell_length_c	18.366186
_cell_angle_alpha	90.011479
_cell_angle_beta	89.990263
_cell_angle_gamma	101.878217
loop_
_atom_site_label
_atom_site_type_symbol
_atom_site_fract_x
_atom_site_fract_y
_atom_site_fract_z
O1	O	1.410301	-0.004354	-0.060554
O2	O	1.910301	0.495646	0.439446
O3	O	1.100704	-0.034108	-0.060558
O4	O	1.600704	0.465892	0.439442
O5	O	1.264448	0.082421	-0.060541
O6	O	1.764448	0.582421	0.439459
O7	O	1.246556	-0.120883	-0.060571
O8	O	1.746556	0.379117	0.439429
O9	O	1.264420	0.082425	0.060558
O10	O	1.764420	0.582425	0.560558
O11	O	1.100676	-0.034105	0.060542
O12	O	1.600676	0.465895	0.560542
O13	O	1.410273	-0.004350	0.060545
O14	O	1.910273	0.495650	0.560545
Zn15	Zn	1.255470	-0.019227	0.079771
Zn16	Zn	1.755470	0.480773	0.579771
Zn17	Zn	1.255507	-0.019231	-0.079783
Zn18	Zn	1.755507	0.480769	0.420217
O19	O	1.246529	-0.120880	0.060529
O20	O	1.746529	0.379120	0.560529
C21	C	1.061081	-0.036042	-0.000008
C22	C	1.561081	0.463958	0.499992
C23	C	0.943060	-0.041799	-0.000009
C24	C	1.443060	0.458201	0.499991
C25	C	0.747237	0.075510	-0.000005
C26	C	1.247237	0.575510	0.499995
C27	C	0.636346	0.070104	-0.000006
C28	C	1.136346	0.570104	0.499994
C29	C	0.610385	-0.058019	-0.000016
C30	C	1.110385	0.441981	0.499984
C31	C	0.721276	-0.052612	-0.000015
C32	C	1.221276	0.447388	0.499985
C33	C	0.789699	0.014155	-0.000009
C34	C	1.289699	0.514155	0.499991
C35	C	0.900591	0.019561	-0.000003
C36	C	1.400591	0.519561	0.499997
C37	C	0.874628	-0.108561	-0.000018
C38	C	1.374628	0.391439	0.499982
C39	C	0.763738	-0.113968	-0.000019
C40	C	1.263738	0.386032	0.499981
C41	C	1.263859	0.108266	0.000010
C42	C	1.763859	0.608266	0.500010
C43	C	1.262130	0.185269	0.000017
C44	C	1.762130	0.685269	0.500017
C45	C	1.449896	-0.002417	-0.000006
C46	C	1.949896	0.497583	0.499994
C47	C	1.567917	0.003341	-0.000010
C48	C	2.067917	0.503341	0.499990
C49	C	1.247118	-0.146724	-0.000025
C50	C	1.747118	0.353276	0.499975
C51	C	1.248846	-0.223727	-0.000036
C52	C	1.748846	0.276273	0.499964
N53	N	1.255453	-0.019223	0.188662
N54	N	1.755453	0.480777	0.688662
C55	C	1.358208	0.235572	0.000021
C56	C	1.858208	0.735572	0.500021
C57	C	1.356585	0.307924	0.000010
C58	C	1.856585	0.807924	0.500010
C59	C	1.258878	0.329970	0.000008
C60	C	1.758878	0.829970	0.500008
C61	C	1.162787	0.279657	-0.000000
C62	C	1.662787	0.779657	0.500000
C63	C	1.164414	0.207306	0.000004
C64	C	1.664414	0.707306	0.500004
C65	C	1.182059	0.433777	0.042426
C66	C	1.682059	0.933777	0.542426
C67	C	1.180437	0.506126	0.042426
C68	C	1.680437	1.006126	0.542426
C69	C	1.253858	0.553123	-0.000008
C70	C	1.753858	1.053123	0.499992
C71	C	1.328919	0.527763	-0.042433
C72	C	1.828919	1.027763	0.457567
C73	C	1.330545	0.455412	-0.042429
C74	C	1.830545	0.955412	0.457571
C75	C	1.257103	0.408420	0.000003
C76	C	1.757103	0.908420	0.500003
C77	C	1.348182	0.681879	-0.000017
C78	C	1.848182	1.181879	0.499983
C79	C	1.346554	0.754232	-0.000033
C80	C	1.846554	1.254232	0.499967
C81	C	1.152754	0.725963	-0.000036
C82	C	1.652754	1.225963	0.499964
C83	C	1.154384	0.653612	-0.000027
C84	C	1.654384	1.153612	0.499973
C85	C	1.252101	0.631574	-0.000014
C86	C	1.752101	1.131574	0.499986
N87	N	1.255532	-0.019230	-0.188674
N88	N	1.755532	0.480770	0.311326
C89	C	1.327983	0.032355	0.226769
C90	C	1.827983	0.532355	0.726769
C91	C	1.327989	0.032358	0.302997
C92	C	1.827989	0.532358	0.802997
C93	C	1.255476	-0.019227	0.341114
C94	C	1.755476	0.480773	0.841114
C95	C	1.182933	-0.070809	0.302998
C96	C	1.682933	0.429191	0.802998
C97	C	1.182921	-0.070807	0.226771
C98	C	1.682921	0.429193	0.726771
C99	C	1.241244	-0.083345	0.461866
C100	C	1.741244	0.416655	0.961866
C101	C	1.241263	-0.083348	0.538091
C102	C	1.741263	0.416652	1.038091
C103	C	1.255507	-0.019234	0.576222
C104	C	1.755507	0.480766	1.076222
C105	C	1.269754	0.044887	0.538119
C106	C	1.769754	0.544887	1.038119
C107	C	1.269742	0.044889	0.461893
C108	C	1.769742	0.544889	0.961893
C109	C	1.255481	-0.019235	0.423769
C110	C	1.755481	0.480765	0.923769
C111	C	1.328048	0.032352	0.696984
C112	C	1.828048	0.532352	1.196984
C113	C	1.328047	0.032356	0.773214
C114	C	1.828047	0.532356	1.273214
C115	C	1.182996	-0.070817	0.773213
C116	C	1.682996	0.429183	1.273213
C117	C	1.182991	-0.070816	0.696985
C118	C	1.682991	0.429184	1.196985
C119	C	1.255523	-0.019232	0.658875
C120	C	1.755523	0.480768	1.158875
H121	H	0.802948	0.129875	0.000005
H122	H	1.302948	0.629875	0.500005
C123	C	1.462271	0.363269	0.000020
C124	C	1.962271	0.863269	0.500020
H125	H	1.447305	0.409514	0.000012
H126	H	1.947305	0.909514	0.500012
H127	H	1.502335	0.357227	0.042254
H128	H	2.002335	0.857227	0.542254
H129	H	1.502367	0.357214	-0.042212
H130	H	2.002367	0.857214	0.457788
C131	C	1.048697	0.598277	-0.000020
C132	C	1.548697	1.098277	0.499980
H133	H	0.990272	0.621766	-0.000016
H134	H	1.490272	1.121766	0.499984
H135	H	1.045309	0.569453	-0.042246
H136	H	1.545309	1.069453	0.457754
H137	H	1.045299	0.569478	0.042219
H138	H	1.545299	1.069478	0.542219
H139	H	1.073199	0.743912	-0.000041
H140	H	1.573199	1.243912	0.499959
C141	C	0.589642	0.137595	0.000002
C142	C	1.089642	0.637595	0.500002
H143	H	0.646277	0.178130	0.000011
H144	H	1.146277	0.678130	0.500011
H145	H	0.546930	0.138146	-0.042227
H146	H	1.046930	0.638146	0.457773
H147	H	0.546917	0.138151	0.042239
H148	H	1.046917	0.638151	0.542239
C149	C	1.058723	0.151971	0.000006
C150	C	1.558723	0.651971	0.500006
H151	H	1.000297	0.175460	0.000006
H152	H	1.500297	0.675460	0.500006
H153	H	1.055339	0.123146	-0.042220
H154	H	1.555339	0.623146	0.457780
H155	H	1.055323	0.123173	0.042245
H156	H	1.555323	0.623173	0.542245
C157	C	1.413098	0.427513	-0.089094
C158	C	1.913098	0.927513	0.410906
H159	H	1.403553	0.377695	-0.083008
H160	H	1.903553	0.877695	0.416992
H161	H	1.403503	0.437995	-0.138881
H162	H	1.903503	0.937995	0.361119
H163	H	1.483175	0.449632	-0.074172
H164	H	1.983175	0.949632	0.425828
H165	H	0.554657	-0.112377	-0.000031
H166	H	1.054657	0.387623	0.499969
C167	C	0.975859	0.092998	0.000003
C168	C	1.475859	0.592998	0.500003
H169	H	1.047984	0.087433	0.000009
H170	H	1.547984	0.587433	0.500009
H171	H	0.963028	0.118429	-0.042226
H172	H	1.463028	0.618429	0.457774
H173	H	0.963008	0.118437	0.042240
H174	H	1.463008	0.618437	0.542240
C175	C	0.688469	-0.187405	-0.000022
C176	C	1.188469	0.312595	0.499978
H177	H	0.616344	-0.181839	-0.000017
H178	H	1.116344	0.318161	0.499983
H179	H	0.701317	-0.212849	-0.042250
H180	H	1.201317	0.287151	0.457750
H181	H	0.701300	-0.212831	0.042215
H182	H	1.201300	0.287169	0.542215
C183	C	0.921337	-0.176055	-0.000027
C184	C	1.421337	0.323945	0.499973
H185	H	0.997180	-0.163275	-0.000031
H186	H	1.497180	0.336725	0.499969
H187	H	0.897819	-0.203261	0.042199
H188	H	1.397819	0.296739	0.542199
H189	H	0.897841	-0.203263	-0.042267
H190	H	1.397841	0.296737	0.457733
C191	C	1.465692	0.211334	0.000023
C192	C	1.965692	0.711334	0.500023
H193	H	1.522680	0.251659	0.000016
H194	H	2.022680	0.751659	0.500016
H195	H	1.470351	0.183703	0.042251
H196	H	1.970351	0.683703	0.542251
H197	H	1.470361	0.183692	-0.042214
H198	H	1.970361	0.683692	0.457786
C199	C	1.407788	0.089078	0.184849
C200	C	1.907788	0.589078	0.684849
H201	H	1.397411	0.081685	0.133993
H202	H	1.897411	0.581685	0.633993
H203	H	1.396509	0.134767	0.197345
H204	H	1.896509	0.634767	0.697345
H205	H	1.478695	0.085760	0.197340
H206	H	1.978695	0.585760	0.697340
C207	C	1.407777	0.089095	0.344924
C208	C	1.907777	0.589095	0.844924
H209	H	1.450974	0.119814	0.311310
H210	H	1.950974	0.619814	0.811310
H211	H	1.369682	0.115722	0.374677
H212	H	1.869682	0.615722	0.874677
H213	H	1.451914	0.066746	0.374643
H214	H	1.951914	0.566746	0.874643
C215	C	1.103219	-0.127559	0.655065
C216	C	1.603219	0.372441	1.155065
H217	H	1.060039	-0.158285	0.688681
H218	H	1.560039	0.341715	1.188681
H219	H	1.059081	-0.105222	0.625341
H220	H	1.559081	0.394778	1.125341
H221	H	1.141328	-0.154187	0.625317
H222	H	1.641328	0.345813	1.125317
H223	H	1.388705	0.566026	-0.076988
H224	H	1.888705	1.066026	0.423012
H225	H	1.123950	-0.112817	0.804247
H226	H	1.623950	0.387183	1.304247
H227	H	1.427749	0.663935	-0.000010
H228	H	1.927749	1.163935	0.499990
H229	H	1.119313	0.526768	0.076967
H230	H	1.619313	1.026768	0.576967
C231	C	1.055310	0.303901	-0.000005
C232	C	1.555310	0.803901	0.499995
H233	H	0.998320	0.263577	-0.000013
H234	H	1.498320	0.763577	0.499987
H235	H	1.050631	0.331546	0.042223
H236	H	1.550631	0.831546	0.542223
H237	H	1.050664	0.331528	-0.042243
H238	H	1.550664	0.831528	0.457757
C239	C	1.285414	0.115416	0.580053
C240	C	1.785414	0.615416	1.080053
H241	H	1.283366	0.106233	0.630907
H242	H	1.783366	0.606233	1.130907
H243	H	1.352583	0.144220	0.567559
H244	H	1.852583	0.644220	1.067559
H245	H	1.229934	0.139300	0.567572
H246	H	1.729934	0.639300	1.067572
H247	H	1.424796	0.795189	-0.000033
H248	H	1.924796	1.295189	0.499967
H249	H	1.229626	-0.135559	0.430825
H250	H	1.729626	0.364441	0.930825
C251	C	1.101295	0.382084	0.089107
C252	C	1.601295	0.882084	0.589107
H253	H	1.113007	0.335362	0.083030
H254	H	1.613007	0.835362	0.583030
H255	H	1.110363	0.395316	0.138891
H256	H	1.610363	0.895316	0.638891
H257	H	1.030685	0.383677	0.074186
H258	H	1.530685	0.883677	0.574186
C259	C	1.407816	0.089097	0.655061
C260	C	1.907816	0.589097	1.155061
H261	H	1.451004	0.119823	0.688677
H262	H	1.951004	0.619823	1.188677
H263	H	1.451949	0.066762	0.625311
H264	H	1.951949	0.566762	1.125311
H265	H	1.369700	0.115725	0.625339
H266	H	1.869700	0.615725	1.125339
H267	H	1.281339	0.097098	0.430872
H268	H	1.781339	0.597098	0.930872
C269	C	1.407836	0.089093	0.815132
C270	C	1.907836	0.589093	1.315132
H271	H	1.451035	0.119808	0.781515
H272	H	1.951035	0.619808	1.281515
H273	H	1.369745	0.115724	0.844882
H274	H	1.869745	0.615724	1.344882
H275	H	1.451971	0.066745	0.844853
H276	H	1.951971	0.566745	1.344853
C277	C	1.103174	-0.127553	0.344923
C278	C	1.603174	0.372447	0.844923
H279	H	1.113576	-0.120172	0.395779
H280	H	1.613576	0.379828	0.895779
H281	H	1.032254	-0.124266	0.332448
H282	H	1.532254	0.375734	0.832448
H283	H	1.114499	-0.173232	0.332414
H284	H	1.614499	0.326768	0.832414
H285	H	1.229669	-0.135558	0.569108
H286	H	1.729669	0.364442	1.069108
C287	C	1.103143	-0.127549	0.184851
C288	C	1.603143	0.372451	0.684851
H289	H	1.059959	-0.158274	0.218467
H290	H	1.559959	0.341726	0.718467
H291	H	1.059007	-0.105212	0.155125
H292	H	1.559007	0.394788	0.655125
H293	H	1.141253	-0.154178	0.155106
H294	H	1.641253	0.345822	0.655106
