data_functionalizedCrystal
_audit_creation_method	'MofGen! by Chris Wilmer'
_symmetry_space_group_name_H-M	'P1'
_symmetry_Int_Tables_number	1
_symmetry_cell_setting	triclinic
loop_
_symmetry_equiv_pos_as_xyz
  x,y,z
_cell_length_a	13.262522
_cell_length_b	11.804783
_cell_length_c	17.699083
_cell_angle_alpha	76.686354
_cell_angle_beta	83.879452
_cell_angle_gamma	92.339612
loop_
_atom_site_label
_atom_site_type_symbol
_atom_site_fract_x
_atom_site_fract_y
_atom_site_fract_z
O1	O	1.293704	0.517964	0.030232
O2	O	1.005855	0.424752	0.054222
O3	O	1.157914	0.473982	-0.068287
O4	O	1.141646	0.468735	0.152741
O5	O	1.193450	0.287451	-0.042468
O6	O	1.041391	0.238222	0.080040
O7	O	1.329240	0.331434	0.056050
Cu8	Cu	1.188560	0.267796	0.070403
Cu9	Cu	1.146535	0.488390	0.039870
O10	O	1.177181	0.282204	0.178559
C11	C	0.986794	0.319561	0.068161
C12	C	0.877053	0.284024	0.071221
C13	C	0.844875	0.165644	0.086734
C14	C	0.741771	0.132247	0.089603
C15	C	0.670834	0.217225	0.076966
C16	C	0.703010	0.335607	0.061458
C17	C	0.806125	0.369008	0.058582
C18	C	0.632084	0.420589	0.048814
C19	C	0.664260	0.538971	0.033306
C20	C	0.767365	0.572366	0.030431
C21	C	0.838303	0.487387	0.043069
C22	C	0.528969	0.387188	0.051689
C23	C	0.490218	0.590552	0.023537
C24	C	0.593322	0.623949	0.020668
N25	N	1.218125	0.112644	0.091877
C26	C	1.045946	-0.317147	-0.033183
C27	C	1.023561	-0.199745	-0.049432
C28	C	1.072200	-0.121642	-0.014106
C29	C	1.143228	-0.160952	0.037472
C30	C	1.165621	-0.278363	0.053718
C31	C	1.191875	-0.082859	0.072795
C32	C	1.262904	-0.122169	0.124372
C33	C	1.285292	-0.239569	0.140616
C34	C	1.236653	-0.317672	0.105290
C35	C	1.169482	0.034552	0.056549
C36	C	1.289157	0.073335	0.143449
C37	C	1.311543	-0.044066	0.159699
C38	C	1.348301	0.436628	0.042111
C39	C	1.458041	0.472172	0.039050
C40	C	1.175099	0.380528	-0.083551
C41	C	1.173351	0.379961	-0.167499
N42	N	1.116978	0.643545	0.018389
C43	C	1.262605	0.408862	-0.219697
C44	C	1.260955	0.408338	-0.298576
C45	C	1.170050	0.378905	-0.325254
C46	C	1.080788	0.350005	-0.273049
C47	C	1.082438	0.350537	-0.194173
C48	C	1.074131	0.347859	-0.591147
C49	C	1.072489	0.347325	-0.670029
C50	C	1.252648	0.405660	-0.695549
C51	C	1.254298	0.406192	-0.616673
C52	C	1.165035	0.377298	-0.564477
C53	C	1.166826	0.377869	-0.478948
C54	C	1.168260	0.378326	-0.410780
C55	C	1.159996	0.375661	0.193823
C56	C	1.161743	0.376235	0.277770
H57	H	0.432460	0.659748	0.013247
H58	H	0.922260	0.514574	0.040737
H59	H	1.336632	0.432823	-0.197982
H60	H	1.006358	-0.380745	-0.061945
F61	F	0.920376	0.075219	0.100178
F62	F	0.627580	0.749937	0.004161
F63	F	0.561101	0.181677	0.080024
H64	H	1.328765	0.136928	0.172214
F65	F	1.360897	-0.281399	0.195502
H66	H	1.009758	0.327003	-0.151673
F67	F	1.355952	0.439096	-0.354126
H68	H	0.998459	0.323354	-0.691745
F69	F	1.093892	0.076376	0.001657
F70	F	1.387134	-0.085918	0.214591
H71	H	0.793560	0.668760	0.017793
F72	F	1.351050	0.437520	-0.588286
F73	F	1.347649	0.436415	-0.751108
H74	H	1.254872	-0.413273	0.118521
F75	F	1.048373	0.003307	-0.031401
F76	F	0.979129	0.317110	-0.535606
H77	H	0.502780	0.290801	0.064322
F78	F	0.707532	0.006262	0.106116
F79	F	0.947950	-0.157923	-0.104306
F80	F	0.984038	0.318692	-0.301446
