data_functionalizedCrystal
_audit_creation_method	'MofGen! by Chris Wilmer'
_symmetry_space_group_name_H-M	'P1'
_symmetry_Int_Tables_number	1
_symmetry_cell_setting	triclinic
loop_
_symmetry_equiv_pos_as_xyz
  x,y,z
_cell_length_a	29.839135
_cell_length_b	29.839133
_cell_length_c	29.839125
_cell_angle_alpha	89.992589
_cell_angle_beta	89.984512
_cell_angle_gamma	90.032133
loop_
_atom_site_label
_atom_site_type_symbol
_atom_site_fract_x
_atom_site_fract_y
_atom_site_fract_z
Zn1	Zn	0.686757	-0.178886	-0.254079
Zn2	Zn	0.936757	0.071114	-0.004079
Zn3	Zn	1.186757	0.321114	0.245921
Zn4	Zn	1.436757	0.571114	0.495921
Zn5	Zn	0.686704	-0.253998	-0.178963
Zn6	Zn	0.936704	-0.003998	0.071037
Zn7	Zn	1.186704	0.246002	0.321037
Zn8	Zn	1.436704	0.496002	0.571037
Zn9	Zn	0.611639	-0.178886	-0.178957
Zn10	Zn	0.861639	0.071114	0.071043
Zn11	Zn	1.111639	0.321114	0.321043
Zn12	Zn	1.361639	0.571114	0.571043
Zn13	Zn	0.611603	-0.253993	-0.254060
Zn14	Zn	0.861603	-0.003993	-0.004060
Zn15	Zn	1.111603	0.246007	0.245940
Zn16	Zn	1.361603	0.496007	0.495940
O17	O	0.649176	-0.216441	-0.216515
O18	O	0.899176	0.033559	0.033485
O19	O	1.149176	0.283559	0.283485
O20	O	1.399176	0.533559	0.533485
O21	O	0.749617	-0.188852	-0.244126
O22	O	0.999617	0.061148	0.005874
O23	O	1.249617	0.311148	0.255874
O24	O	1.499617	0.561148	0.505874
O25	O	0.676740	-0.244036	-0.116095
O26	O	0.926740	0.005964	0.133905
O27	O	1.176740	0.255964	0.383905
O28	O	1.426740	0.505964	0.633905
O29	O	0.621641	-0.116019	-0.188929
O30	O	0.871641	0.133981	0.061071
O31	O	1.121641	0.383981	0.311071
O32	O	1.371641	0.633981	0.561071
O33	O	0.749578	-0.244036	-0.188938
O34	O	0.999578	0.005964	0.061062
O35	O	1.249578	0.255964	0.311062
O36	O	1.499578	0.505964	0.561062
O37	O	0.676829	-0.116019	-0.244120
O38	O	0.926829	0.133981	0.005880
O39	O	1.176829	0.383981	0.255880
O40	O	1.426829	0.633981	0.505880
O41	O	0.621590	-0.188852	-0.116091
O42	O	0.871590	0.061148	0.133909
O43	O	1.121590	0.311148	0.383909
O44	O	1.371590	0.561148	0.633909
O45	O	0.548767	-0.188847	-0.188909
O46	O	0.798767	0.061153	0.061091
O47	O	1.048767	0.311153	0.311091
O48	O	1.298767	0.561153	0.561091
O49	O	0.621578	-0.244028	-0.316930
O50	O	0.871578	0.005972	-0.066930
O51	O	1.121578	0.255972	0.183070
O52	O	1.371578	0.505972	0.433070
O53	O	0.548740	-0.244028	-0.244087
O54	O	0.798740	0.005972	0.005913
O55	O	1.048740	0.255972	0.255913
O56	O	1.298740	0.505972	0.505913
O57	O	0.676794	-0.188847	-0.316944
O58	O	0.926794	0.061153	-0.066944
O59	O	1.176794	0.311153	0.183056
O60	O	1.426794	0.561153	0.433056
O61	O	0.676704	-0.316864	-0.188919
O62	O	0.926704	-0.066864	0.061081
O63	O	1.176704	0.183136	0.311081
O64	O	1.426704	0.433136	0.561081
O65	O	0.621528	-0.316861	-0.244092
O66	O	0.871528	-0.066861	0.005908
O67	O	1.121528	0.183139	0.255908
O68	O	1.371528	0.433139	0.505908
C69	C	0.532453	-0.216437	-0.216496
C70	C	0.782453	0.033563	0.033504
C71	C	1.032453	0.283563	0.283504
C72	C	1.282453	0.533563	0.533504
C73	C	0.482519	-0.216447	-0.216498
C74	C	0.732519	0.033553	0.033502
C75	C	0.982519	0.283553	0.283502
C76	C	1.232519	0.533553	0.533502
C77	C	0.172892	-0.187750	-0.245294
C78	C	0.422892	0.062250	0.004706
C79	C	0.672892	0.312250	0.254706
C80	C	0.922892	0.562250	0.504706
C81	C	-0.014781	-0.187753	-0.245306
C82	C	0.235219	0.062247	0.004694
C83	C	0.485219	0.312247	0.254694
C84	C	0.735219	0.562247	0.504694
O85	O	-0.039031	-0.163343	-0.269768
O86	O	0.210969	0.086657	-0.019768
O87	O	0.460969	0.336657	0.230232
O88	O	0.710969	0.586657	0.480232
N89	N	-0.038266	-0.216441	-0.216531
N90	N	0.211734	0.033559	0.033469
N91	N	0.461734	0.283559	0.283469
N92	N	0.711734	0.533559	0.533469
C93	C	-0.014831	-0.245129	-0.187749
C94	C	0.235169	0.004871	0.062251
C95	C	0.485169	0.254871	0.312251
C96	C	0.735169	0.504871	0.562251
O97	O	-0.039113	-0.269527	-0.163271
O98	O	0.210887	-0.019527	0.086729
O99	O	0.460887	0.230473	0.336729
O100	O	0.710887	0.480473	0.586729
C101	C	0.172841	-0.245123	-0.187734
C102	C	0.422841	0.004877	0.062266
C103	C	0.672841	0.254877	0.312266
C104	C	0.922841	0.504877	0.562266
C105	C	0.196324	-0.216436	-0.216514
C106	C	0.446324	0.033564	0.033486
C107	C	0.696324	0.283564	0.283486
C108	C	0.946324	0.533564	0.533486
C109	C	0.196376	-0.159065	-0.274071
C110	C	0.446376	0.090935	-0.024071
C111	C	0.696376	0.340935	0.225929
C112	C	0.946376	0.590935	0.475929
C113	C	0.243291	-0.159066	-0.274069
C114	C	0.493291	0.090934	-0.024069
C115	C	0.743291	0.340934	0.225931
C116	C	0.993291	0.590934	0.475931
C117	C	0.266723	-0.187752	-0.245290
C118	C	0.516723	0.062248	0.004710
C119	C	0.766723	0.312248	0.254710
C120	C	1.016723	0.562248	0.504710
C121	C	0.243240	-0.216437	-0.216513
C122	C	0.493240	0.033563	0.033487
C123	C	0.743240	0.283563	0.283487
C124	C	0.993240	0.533563	0.533487
C125	C	0.196276	-0.273808	-0.158950
C126	C	0.446276	-0.023808	0.091050
C127	C	0.696276	0.226192	0.341050
C128	C	0.946276	0.476192	0.591050
C129	C	0.243197	-0.273803	-0.158948
C130	C	0.493197	-0.023803	0.091052
C131	C	0.743197	0.226197	0.341052
C132	C	0.993197	0.476197	0.591052
C133	C	0.266680	-0.245116	-0.187728
C134	C	0.516680	0.004884	0.062272
C135	C	0.766680	0.254884	0.312272
C136	C	1.016680	0.504884	0.562272
C137	C	0.313588	-0.245125	-0.187732
C138	C	0.563588	0.004875	0.062268
C139	C	0.813588	0.254875	0.312268
C140	C	1.063588	0.504875	0.562268
N141	N	0.337073	-0.216436	-0.216507
N142	N	0.587073	0.033564	0.033493
N143	N	0.837073	0.283564	0.283493
N144	N	1.087073	0.533564	0.533493
C145	C	0.313641	-0.187750	-0.245286
C146	C	0.563641	0.062250	0.004714
C147	C	0.813641	0.312250	0.254714
C148	C	1.063641	0.562250	0.504714
C149	C	-0.113362	-0.245130	-0.187759
C150	C	0.136638	0.004870	0.062241
C151	C	0.386638	0.254870	0.312241
C152	C	0.636638	0.504870	0.562241
C153	C	-0.160279	-0.245132	-0.187764
C154	C	0.089721	0.004868	0.062236
C155	C	0.339721	0.254868	0.312236
C156	C	0.589721	0.504868	0.562236
C157	C	-0.160226	-0.187756	-0.245320
C158	C	0.089774	0.062244	0.004680
C159	C	0.339774	0.312244	0.254680
C160	C	0.589774	0.562244	0.504680
C161	C	-0.113307	-0.187756	-0.245318
C162	C	0.136693	0.062244	0.004682
C163	C	0.386693	0.312244	0.254682
C164	C	0.636693	0.562244	0.504682
C165	C	-0.089876	-0.216442	-0.216534
C166	C	0.160124	0.033558	0.033466
C167	C	0.410124	0.283558	0.283466
C168	C	0.660124	0.533558	0.533466
C169	C	0.412167	-0.187755	-0.245280
C170	C	0.662167	0.062245	0.004720
C171	C	0.912167	0.312245	0.254720
C172	C	1.162167	0.562245	0.504720
C173	C	0.459087	-0.187760	-0.245277
C174	C	0.709087	0.062240	0.004723
C175	C	0.959087	0.312240	0.254723
C176	C	1.209087	0.562240	0.504723
C177	C	0.459029	-0.245135	-0.187719
C178	C	0.709029	0.004865	0.062281
C179	C	0.959029	0.254865	0.312281
C180	C	1.209029	0.504865	0.562281
C181	C	0.412113	-0.245132	-0.187724
C182	C	0.662113	0.004868	0.062276
C183	C	0.912113	0.254868	0.312276
C184	C	1.162113	0.504868	0.562276
C185	C	0.388684	-0.216438	-0.216506
C186	C	0.638684	0.033562	0.033494
C187	C	0.888684	0.283562	0.283494
C188	C	1.138684	0.533562	0.533494
O189	O	0.337867	-0.269518	-0.163280
O190	O	0.587867	-0.019518	0.086720
O191	O	0.837867	0.230482	0.336720
O192	O	1.087867	0.480482	0.586720
O193	O	0.337931	-0.163349	-0.269753
O194	O	0.587931	0.086651	-0.019753
O195	O	0.837931	0.336651	0.230247
O196	O	1.087931	0.586651	0.480247
C197	C	0.125977	-0.187748	-0.245295
C198	C	0.375977	0.062252	0.004705
C199	C	0.625977	0.312252	0.254705
C200	C	0.875977	0.562252	0.504705
C201	C	0.102494	-0.216434	-0.216518
C202	C	0.352494	0.033566	0.033482
C203	C	0.602494	0.283566	0.283482
C204	C	0.852494	0.533566	0.533482
C205	C	0.125926	-0.245120	-0.187739
C206	C	0.375926	0.004880	0.062261
C207	C	0.625926	0.254880	0.312261
C208	C	0.875926	0.504880	0.562261
C209	C	0.055576	-0.216436	-0.216522
C210	C	0.305576	0.033564	0.033478
C211	C	0.555576	0.283564	0.283478
C212	C	0.805576	0.533564	0.533478
C213	C	0.032144	-0.187749	-0.245301
C214	C	0.282144	0.062251	0.004699
C215	C	0.532144	0.312251	0.254699
C216	C	0.782144	0.562251	0.504699
C217	C	0.055629	-0.159061	-0.274076
C218	C	0.305629	0.090939	-0.024076
C219	C	0.555629	0.340939	0.225924
C220	C	0.805629	0.590939	0.475924
C221	C	0.102545	-0.159062	-0.274074
C222	C	0.352545	0.090938	-0.024074
C223	C	0.602545	0.340938	0.225926
C224	C	0.852545	0.590938	0.475926
C225	C	0.102440	-0.273808	-0.158964
C226	C	0.352440	-0.023808	0.091036
C227	C	0.602440	0.226192	0.341036
C228	C	0.852440	0.476192	0.591036
C229	C	0.055525	-0.273805	-0.158968
C230	C	0.305525	-0.023805	0.091032
C231	C	0.555525	0.226195	0.341032
C232	C	0.805525	0.476195	0.591032
C233	C	0.032092	-0.245119	-0.187747
C234	C	0.282092	0.004881	0.062253
C235	C	0.532092	0.254881	0.312253
C236	C	0.782092	0.504881	0.562253
C237	C	0.649119	-0.333163	-0.216514
C238	C	0.899119	-0.083163	0.033486
C239	C	1.149119	0.166837	0.283486
C240	C	1.399119	0.416837	0.533486
C241	C	0.649135	-0.383098	-0.216528
C242	C	0.899135	-0.133098	0.033472
C243	C	1.149135	0.116902	0.283472
C244	C	1.399135	0.366902	0.533472
C245	C	0.677929	-0.739650	-0.245286
C246	C	0.927929	-0.489650	0.004714
C247	C	1.177929	-0.239650	0.254714
C248	C	1.427929	0.010350	0.504714
C249	C	0.677886	-0.551977	-0.245286
C250	C	0.927886	-0.301977	0.004714
C251	C	1.177886	-0.051977	0.254714
C252	C	1.427886	0.198023	0.504714
O253	O	0.702309	-0.527682	-0.269730
O254	O	0.952309	-0.277682	-0.019730
O255	O	1.202309	-0.027682	0.230270
O256	O	1.452309	0.222318	0.480270
N257	N	0.649171	-0.528543	-0.216527
N258	N	0.899171	-0.278543	0.033473
N259	N	1.149171	-0.028543	0.283473
N260	N	1.399171	0.221457	0.533473
C261	C	0.620466	-0.552030	-0.187764
C262	C	0.870466	-0.302030	0.062236
C263	C	1.120466	-0.052030	0.312236
C264	C	1.370466	0.197970	0.562236
O265	O	0.596044	-0.527792	-0.163300
O266	O	0.846044	-0.277792	0.086700
O267	O	1.096044	-0.027792	0.336700
O268	O	1.346044	0.222208	0.586700
C269	C	0.620511	-0.739702	-0.187763
C270	C	0.870511	-0.489702	0.062237
C271	C	1.120511	-0.239702	0.312237
C272	C	1.370511	0.010298	0.562237
C273	C	0.649225	-0.763134	-0.216527
C274	C	0.899225	-0.513134	0.033473
C275	C	1.149225	-0.263134	0.283473
C276	C	1.399225	-0.013134	0.533473
C277	C	0.706641	-0.763081	-0.274047
C278	C	0.956641	-0.513081	-0.024047
C279	C	1.206641	-0.263081	0.225953
C280	C	1.456641	-0.013081	0.475953
C281	C	0.706649	-0.809997	-0.274049
C282	C	0.956649	-0.559997	-0.024049
C283	C	1.206649	-0.309997	0.225951
C284	C	1.456649	-0.059997	0.475951
C285	C	0.677946	-0.833481	-0.245289
C286	C	0.927946	-0.583481	0.004711
C287	C	1.177946	-0.333481	0.254711
C288	C	1.427946	-0.083481	0.504711
C289	C	0.649234	-0.810049	-0.216528
C290	C	0.899234	-0.560049	0.033472
C291	C	1.149234	-0.310049	0.283472
C292	C	1.399234	-0.060049	0.533472
C293	C	0.591809	-0.763189	-0.158998
C294	C	0.841809	-0.513189	0.091002
C295	C	1.091809	-0.263189	0.341002
C296	C	1.341809	-0.013189	0.591002
C297	C	0.591824	-0.810110	-0.159000
C298	C	0.841824	-0.560110	0.091000
C299	C	1.091824	-0.310110	0.341000
C300	C	1.341824	-0.060110	0.591000
C301	C	0.620538	-0.833541	-0.187764
C302	C	0.870538	-0.583541	0.062236
C303	C	1.120538	-0.333541	0.312236
C304	C	1.370538	-0.083541	0.562236
C305	C	0.620539	-0.880449	-0.187770
C306	C	0.870539	-0.630449	0.062230
C307	C	1.120539	-0.380449	0.312230
C308	C	1.370539	-0.130449	0.562230
N309	N	0.649254	-0.903883	-0.216529
N310	N	0.899254	-0.653883	0.033471
N311	N	1.149254	-0.403883	0.283471
N312	N	1.399254	-0.153883	0.533471
C313	C	0.677958	-0.880399	-0.245289
C314	C	0.927958	-0.630399	0.004711
C315	C	1.177958	-0.380399	0.254711
C316	C	1.427958	-0.130399	0.504711
C317	C	0.620444	-0.453499	-0.187768
C318	C	0.870444	-0.203499	0.062232
C319	C	1.120444	0.046501	0.312232
C320	C	1.370444	0.296501	0.562232
C321	C	0.620432	-0.406582	-0.187769
C322	C	0.870432	-0.156582	0.062231
C323	C	1.120432	0.093418	0.312231
C324	C	1.370432	0.343418	0.562231
C325	C	0.677853	-0.406532	-0.245289
C326	C	0.927853	-0.156532	0.004711
C327	C	1.177853	0.093468	0.254711
C328	C	1.427853	0.343468	0.504711
C329	C	0.677862	-0.453450	-0.245290
C330	C	0.927862	-0.203450	0.004710
C331	C	1.177862	0.046550	0.254710
C332	C	1.427862	0.296550	0.504710
C333	C	0.649159	-0.476933	-0.216526
C334	C	0.899159	-0.226933	0.033474
C335	C	1.149159	0.023067	0.283474
C336	C	1.399159	0.273067	0.533474
C337	C	0.677973	-0.978924	-0.245290
C338	C	0.927973	-0.728924	0.004710
C339	C	1.177973	-0.478924	0.254710
C340	C	1.427973	-0.228924	0.504710
C341	C	0.677978	-1.025844	-0.245290
C342	C	0.927978	-0.775844	0.004710
C343	C	1.177978	-0.525844	0.254710
C344	C	1.427978	-0.275844	0.504710
C345	C	0.620559	-1.025890	-0.187768
C346	C	0.870559	-0.775890	0.062232
C347	C	1.120559	-0.525890	0.312232
C348	C	1.370559	-0.275890	0.562232
C349	C	0.620553	-0.978974	-0.187769
C350	C	0.870553	-0.728974	0.062231
C351	C	1.120553	-0.478974	0.312231
C352	C	1.370553	-0.228974	0.562231
C353	C	0.649263	-0.955493	-0.216532
C354	C	0.899263	-0.705493	0.033468
C355	C	1.149263	-0.455493	0.283468
C356	C	1.399263	-0.205493	0.533468
O357	O	0.596132	-0.904772	-0.163335
O358	O	0.846132	-0.654772	0.086665
O359	O	1.096132	-0.404772	0.336665
O360	O	1.346132	-0.154772	0.586665
O361	O	0.702383	-0.904645	-0.269742
O362	O	0.952383	-0.654645	-0.019742
O363	O	1.202383	-0.404645	0.230258
O364	O	1.452383	-0.154645	0.480258
C365	C	0.677920	-0.692734	-0.245285
C366	C	0.927920	-0.442734	0.004715
C367	C	1.177920	-0.192734	0.254715
C368	C	1.427920	0.057266	0.504715
C369	C	0.649208	-0.669303	-0.216524
C370	C	0.899208	-0.419303	0.033476
C371	C	1.149208	-0.169303	0.283476
C372	C	1.399208	0.080697	0.533476
C373	C	0.620505	-0.692787	-0.187764
C374	C	0.870505	-0.442787	0.062236
C375	C	1.120505	-0.192787	0.312236
C376	C	1.370505	0.057213	0.562236
C377	C	0.649196	-0.622385	-0.216524
C378	C	0.899196	-0.372385	0.033476
C379	C	1.149196	-0.122385	0.283476
C380	C	1.399196	0.127615	0.533476
C381	C	0.677900	-0.598901	-0.245284
C382	C	0.927900	-0.348901	0.004716
C383	C	1.177900	-0.098901	0.254716
C384	C	1.427900	0.151099	0.504716
C385	C	0.706615	-0.622335	-0.274043
C386	C	0.956615	-0.372335	-0.024043
C387	C	1.206615	-0.122335	0.225957
C388	C	1.456615	0.127665	0.475957
C389	C	0.706623	-0.669250	-0.274044
C390	C	0.956623	-0.419250	-0.024044
C391	C	1.206623	-0.169250	0.225956
C392	C	1.456623	0.080750	0.475956
C393	C	0.591789	-0.669353	-0.159005
C394	C	0.841789	-0.419353	0.090995
C395	C	1.091789	-0.169353	0.340995
C396	C	1.341789	0.080647	0.590995
C397	C	0.591783	-0.622437	-0.159007
C398	C	0.841783	-0.372437	0.090993
C399	C	1.091783	-0.122437	0.340993
C400	C	1.341783	0.127563	0.590993
C401	C	0.620486	-0.598953	-0.187766
C402	C	0.870486	-0.348953	0.062234
C403	C	1.120486	-0.098953	0.312234
C404	C	1.370486	0.151047	0.562234
C405	C	0.766354	-0.216445	-0.216534
C406	C	1.016354	0.033555	0.033466
C407	C	1.266354	0.283555	0.283466
C408	C	1.516354	0.533555	0.533466
C409	C	0.816288	-0.216446	-0.216543
C410	C	1.066288	0.033554	0.033457
C411	C	1.316288	0.283554	0.283457
C412	C	1.566288	0.533554	0.533457
C413	C	0.649188	-0.216437	-0.333693
C414	C	0.899188	0.033563	-0.083693
C415	C	1.149188	0.283563	0.166307
C416	C	1.399188	0.533563	0.416307
C417	C	0.649193	-0.216435	-0.383628
C418	C	0.899193	0.033565	-0.133628
C419	C	1.149193	0.283565	0.116372
C420	C	1.399193	0.533565	0.366372
C421	C	0.649245	-0.099262	-0.216526
C422	C	0.899245	0.150738	0.033474
C423	C	1.149245	0.400738	0.283474
C424	C	1.399245	0.650738	0.533474
C425	C	0.649275	-0.049328	-0.216531
C426	C	0.899275	0.200672	0.033469
C427	C	1.149275	0.450672	0.283469
C428	C	1.399275	0.700672	0.533469
C429	C	0.677974	-0.187627	-0.693282
C430	C	0.927974	0.062373	-0.443282
C431	C	1.177974	0.312373	-0.193282
C432	C	1.427974	0.562373	0.056718
C433	C	0.677996	-0.187589	-0.880955
C434	C	0.927996	0.062411	-0.630955
C435	C	1.177996	0.312411	-0.380955
C436	C	1.427996	0.562411	-0.130955
O437	O	0.702433	-0.163138	-0.905229
O438	O	0.952433	0.086862	-0.655229
O439	O	1.202433	0.336862	-0.405229
O440	O	1.452433	0.586862	-0.155229
N441	N	0.649253	-0.216315	-0.904413
N442	N	0.899253	0.033685	-0.654413
N443	N	1.149253	0.283685	-0.404413
N444	N	1.399253	0.533685	-0.154413
C445	C	0.620499	-0.245050	-0.880950
C446	C	0.870499	0.004950	-0.630950
C447	C	1.120499	0.254950	-0.380950
C448	C	1.370499	0.504950	-0.130950
O449	O	0.596048	-0.269479	-0.905209
O450	O	0.846048	-0.019479	-0.655209
O451	O	1.096048	0.230521	-0.405209
O452	O	1.346048	0.480521	-0.155209
C453	C	0.620475	-0.245086	-0.693278
C454	C	0.870475	0.004914	-0.443278
C455	C	1.120475	0.254914	-0.193278
C456	C	1.370475	0.504914	0.056722
C457	C	0.649224	-0.216361	-0.669822
C458	C	0.899224	0.033639	-0.419822
C459	C	1.149224	0.283639	-0.169822
C460	C	1.399224	0.533639	0.080178
C461	C	0.706720	-0.158905	-0.669826
C462	C	0.956720	0.091095	-0.419826
C463	C	1.206720	0.341095	-0.169826
C464	C	1.456720	0.591095	0.080174
C465	C	0.706716	-0.158916	-0.622910
C466	C	0.956716	0.091084	-0.372910
C467	C	1.206716	0.341084	-0.122910
C468	C	1.456716	0.591084	0.127090
C469	C	0.677966	-0.187650	-0.599451
C470	C	0.927966	0.062350	-0.349451
C471	C	1.177966	0.312350	-0.099451
C472	C	1.427966	0.562350	0.150549
C473	C	0.649220	-0.216373	-0.622907
C474	C	0.899220	0.033627	-0.372907
C475	C	1.149220	0.283627	-0.122907
C476	C	1.399220	0.533627	0.127093
C477	C	0.591720	-0.273819	-0.669816
C478	C	0.841720	-0.023819	-0.419816
C479	C	1.091720	0.226181	-0.169816
C480	C	1.341720	0.476181	0.080184
C481	C	0.591716	-0.273824	-0.622894
C482	C	0.841716	-0.023824	-0.372894
C483	C	1.091716	0.226176	-0.122894
C484	C	1.341716	0.476176	0.127106
C485	C	0.620464	-0.245100	-0.599439
C486	C	0.870464	0.004900	-0.349439
C487	C	1.120464	0.254900	-0.099439
C488	C	1.370464	0.504900	0.150561
C489	C	0.620465	-0.245119	-0.552531
C490	C	0.870465	0.004881	-0.302531
C491	C	1.120465	0.254881	-0.052531
C492	C	1.370465	0.504881	0.197469
N493	N	0.649209	-0.216393	-0.529073
N494	N	0.899209	0.033607	-0.279073
N495	N	1.149209	0.283607	-0.029073
N496	N	1.399209	0.533607	0.220927
C497	C	0.677959	-0.187659	-0.552533
C498	C	0.927959	0.062341	-0.302533
C499	C	1.177959	0.312341	-0.052533
C500	C	1.427959	0.562341	0.197467
C501	C	0.620515	-0.245030	-0.979481
C502	C	0.870515	0.004970	-0.729481
C503	C	1.120515	0.254970	-0.479481
C504	C	1.370515	0.504970	-0.229481
C505	C	0.620521	-0.245022	-1.026398
C506	C	0.870521	0.004978	-0.776398
C507	C	1.120521	0.254978	-0.526398
C508	C	1.370521	0.504978	-0.276398
C509	C	0.678018	-0.187560	-1.026400
C510	C	0.928018	0.062440	-0.776400
C511	C	1.178018	0.312440	-0.526400
C512	C	1.428018	0.562440	-0.276400
C513	C	0.678013	-0.187571	-0.979481
C514	C	0.928013	0.062429	-0.729481
C515	C	1.178013	0.312429	-0.479481
C516	C	1.428013	0.562429	-0.229481
C517	C	0.649258	-0.216304	-0.956022
C518	C	0.899258	0.033696	-0.706022
C519	C	1.149258	0.283696	-0.456022
C520	C	1.399258	0.533696	-0.206022
C521	C	0.677948	-0.187685	-0.454007
C522	C	0.927948	0.062315	-0.204007
C523	C	1.177948	0.312315	0.045993
C524	C	1.427948	0.562315	0.295993
C525	C	0.677943	-0.187701	-0.407087
C526	C	0.927943	0.062299	-0.157087
C527	C	1.177943	0.312299	0.092913
C528	C	1.427943	0.562299	0.342913
C529	C	0.620445	-0.245161	-0.407090
C530	C	0.870445	0.004839	-0.157090
C531	C	1.120445	0.254839	0.092910
C532	C	1.370445	0.504839	0.342910
C533	C	0.620452	-0.245147	-0.454005
C534	C	0.870452	0.004853	-0.204005
C535	C	1.120452	0.254853	0.045995
C536	C	1.370452	0.504853	0.295995
C537	C	0.649205	-0.216406	-0.477463
C538	C	0.899205	0.033594	-0.227463
C539	C	1.149205	0.283594	0.022537
C540	C	1.399205	0.533594	0.272537
O541	O	0.596038	-0.269553	-0.528229
O542	O	0.846038	-0.019553	-0.278229
O543	O	1.096038	0.230447	-0.028229
O544	O	1.346038	0.480447	0.221771
O545	O	0.702399	-0.163226	-0.528266
O546	O	0.952399	0.086774	-0.278266
O547	O	1.202399	0.336774	-0.028266
O548	O	1.452399	0.586774	0.221734
C549	C	0.677978	-0.187616	-0.740197
C550	C	0.927978	0.062384	-0.490197
C551	C	1.177978	0.312384	-0.240197
C552	C	1.427978	0.562384	0.009803
C553	C	0.649232	-0.216338	-0.763653
C554	C	0.899232	0.033662	-0.513653
C555	C	1.149232	0.283662	-0.263653
C556	C	1.399232	0.533662	-0.013653
C557	C	0.620482	-0.245072	-0.740193
C558	C	0.870482	0.004928	-0.490193
C559	C	1.120482	0.254928	-0.240193
C560	C	1.370482	0.504928	0.009807
C561	C	0.649239	-0.216330	-0.810571
C562	C	0.899239	0.033670	-0.560571
C563	C	1.149239	0.283670	-0.310571
C564	C	1.399239	0.533670	-0.060571
C565	C	0.677989	-0.187596	-0.834031
C566	C	0.927989	0.062404	-0.584031
C567	C	1.177989	0.312404	-0.334031
C568	C	1.427989	0.562404	-0.084031
C569	C	0.706732	-0.158870	-0.810572
C570	C	0.956732	0.091130	-0.560572
C571	C	1.206732	0.341130	-0.310572
C572	C	1.456732	0.591130	-0.060572
C573	C	0.706728	-0.158881	-0.763657
C574	C	0.956728	0.091119	-0.513657
C575	C	1.206728	0.341119	-0.263657
C576	C	1.456728	0.591119	-0.013657
C577	C	0.591738	-0.273798	-0.763651
C578	C	0.841738	-0.023798	-0.513651
C579	C	1.091738	0.226202	-0.263651
C580	C	1.341738	0.476202	-0.013651
C581	C	0.591745	-0.273785	-0.810567
C582	C	0.841745	-0.023785	-0.560567
C583	C	1.091745	0.226215	-0.310567
C584	C	1.341745	0.476215	-0.060567
C585	C	0.620495	-0.245050	-0.834027
C586	C	0.870495	0.004950	-0.584027
C587	C	1.120495	0.254950	-0.334027
C588	C	1.370495	0.504950	-0.084027
C589	C	0.649189	-0.216412	-0.099792
C590	C	0.899189	0.033588	0.150208
C591	C	1.149189	0.283588	0.400208
C592	C	1.399189	0.533588	0.650208
C593	C	0.649271	-0.216288	-0.049858
C594	C	0.899271	0.033712	0.200142
C595	C	1.149271	0.283712	0.450142
C596	C	1.399271	0.533712	0.700142
H597	H	0.036543	-0.135705	-0.297511
H598	H	0.286543	0.114295	-0.047511
H599	H	0.536543	0.364295	0.202489
H600	H	0.786543	0.614295	0.452489
H601	H	0.597099	-0.268431	-0.960385
H602	H	0.847099	-0.018431	-0.710385
H603	H	1.097099	0.231569	-0.460385
H604	H	1.347099	0.481569	-0.210385
H605	H	0.568335	-0.297180	-0.829660
H606	H	0.818335	-0.047180	-0.579660
H607	H	1.068335	0.202820	-0.329660
H608	H	1.318335	0.452820	-0.079660
H609	H	0.701242	-0.472525	-0.268714
H610	H	0.951242	-0.222525	-0.018714
H611	H	1.201242	0.027475	0.231286
H612	H	1.451242	0.277475	0.481286
C613	C	0.709568	-0.156098	-0.381289
C614	C	0.959568	0.093902	-0.131289
C615	C	1.209568	0.343902	0.118711
C616	C	1.459568	0.593902	0.368711
N617	N	0.733386	-0.132294	-0.361859
N618	N	0.983386	0.117706	-0.111859
N619	N	1.233386	0.367706	0.138141
N620	N	1.483386	0.617706	0.388141
C621	C	0.269117	-0.127501	-0.305724
C622	C	0.519117	0.122499	-0.055724
C623	C	0.769117	0.372499	0.194276
C624	C	1.019117	0.622499	0.444276
N625	N	0.288565	-0.103723	-0.329565
N626	N	0.538565	0.146277	-0.079565
N627	N	0.788565	0.396277	0.170435
N628	N	1.038565	0.646277	0.420435
H629	H	0.701224	-0.387403	-0.268707
H630	H	0.951224	-0.137403	-0.018707
H631	H	1.201224	0.112597	0.231293
H632	H	1.451224	0.362597	0.481293
H633	H	0.701360	-0.164280	-0.473101
H634	H	0.951360	0.085720	-0.223101
H635	H	1.201360	0.335720	0.026899
H636	H	1.451360	0.585720	0.276899
H637	H	0.177302	-0.135702	-0.297506
H638	H	0.427302	0.114298	-0.047506
H639	H	0.677302	0.364298	0.202494
H640	H	0.927302	0.614298	0.452494
C641	C	0.709570	-1.051616	-0.276931
C642	C	0.959570	-0.801616	-0.026931
C643	C	1.209570	-0.551616	0.223069
C644	C	1.459570	-0.301616	0.473069
N645	N	0.733366	-1.071026	-0.300761
N646	N	0.983366	-0.821026	-0.050761
N647	N	1.233366	-0.571026	0.199239
N648	N	1.483366	-0.321026	0.449239
H649	H	0.597039	-0.268557	-0.387980
H650	H	0.847039	-0.018557	-0.137980
H651	H	1.097039	0.231443	0.112020
H652	H	1.347039	0.481443	0.362020
C653	C	-0.186010	-0.156198	-0.276975
C654	C	0.063990	0.093802	-0.026975
C655	C	0.313990	0.343802	0.223025
C656	C	0.563990	0.593802	0.473025
N657	N	-0.205433	-0.132427	-0.300813
N658	N	0.044567	0.117573	-0.050813
N659	N	0.294567	0.367573	0.199187
N660	N	0.544567	0.617573	0.449187
H661	H	0.568450	-0.829227	-0.135576
H662	H	0.818450	-0.579227	0.114424
H663	H	1.068450	-0.329227	0.364424
H664	H	1.318450	-0.079227	0.614424
C665	C	-0.186106	-0.276693	-0.156106
C666	C	0.063894	-0.026693	0.093894
C667	C	0.313894	0.223307	0.343894
C668	C	0.563894	0.473307	0.593894
N669	N	-0.205557	-0.300462	-0.132257
N670	N	0.044443	-0.050462	0.117743
N671	N	0.294443	0.199538	0.367743
N672	N	0.544443	0.449538	0.617743
H673	H	0.568310	-0.297209	-0.688905
H674	H	0.818310	-0.047209	-0.438905
H675	H	1.068310	0.202791	-0.188905
H676	H	1.318310	0.452791	0.061095
H677	H	-0.094288	-0.268491	-0.164319
H678	H	0.155712	-0.018491	0.085681
H679	H	0.405712	0.231509	0.335681
H680	H	0.655712	0.481509	0.585681
C681	C	0.738350	-0.127278	-0.737862
C682	C	0.988350	0.122722	-0.487862
C683	C	1.238350	0.372722	-0.237862
C684	C	1.488350	0.622722	0.012138
N685	N	0.762169	-0.103471	-0.718436
N686	N	1.012169	0.146529	-0.468436
N687	N	1.262169	0.396529	-0.218436
N688	N	1.512169	0.646529	0.031564
H689	H	0.478116	-0.268492	-0.164289
H690	H	0.728116	-0.018492	0.085711
H691	H	0.978116	0.231508	0.335711
H692	H	1.228116	0.481508	0.585711
H693	H	0.121661	-0.135702	-0.297510
H694	H	0.371661	0.114298	-0.047510
H695	H	0.621661	0.364298	0.202490
H696	H	0.871661	0.614298	0.452490
H697	H	0.597045	-0.387507	-0.164351
H698	H	0.847045	-0.137507	0.085649
H699	H	1.097045	0.112493	0.335649
H700	H	1.347045	0.362493	0.585649
C701	C	0.738355	-0.127260	-0.836387
C702	C	0.988355	0.122740	-0.586387
C703	C	1.238355	0.372740	-0.336387
C704	C	1.488355	0.622740	-0.086387
N705	N	0.762170	-0.103450	-0.855833
N706	N	1.012170	0.146550	-0.605833
N707	N	1.262170	0.396550	-0.355833
N708	N	1.512170	0.646550	-0.105833
C709	C	0.560083	-0.305435	-0.597093
C710	C	0.810083	-0.055435	-0.347093
C711	C	1.060083	0.194565	-0.097093
C712	C	1.310083	0.444565	0.152907
N713	N	0.536259	-0.329246	-0.577660
N714	N	0.786259	-0.079246	-0.327660
N715	N	1.036259	0.170754	-0.077660
N716	N	1.286259	0.420754	0.172340
C717	C	0.738245	-0.835765	-0.305684
C718	C	0.988245	-0.585765	-0.055684
C719	C	1.238245	-0.335765	0.194316
C720	C	1.488245	-0.085765	0.444316
N721	N	0.762048	-0.855171	-0.329510
N722	N	1.012048	-0.605171	-0.079510
N723	N	1.262048	-0.355171	0.170490
N724	N	1.512048	-0.105171	0.420490
H725	H	0.568327	-0.297198	-0.744555
H726	H	0.818327	-0.047198	-0.494555
H727	H	1.068327	0.202802	-0.244555
H728	H	1.318327	0.452802	0.005445
C729	C	0.170455	-0.305361	-0.127283
C730	C	0.420455	-0.055361	0.122717
C731	C	0.670455	0.194639	0.372717
C732	C	0.920455	0.444639	0.622717
N733	N	0.151007	-0.329126	-0.103427
N734	N	0.401007	-0.079126	0.146573
N735	N	0.651007	0.170874	0.396573
N736	N	0.901007	0.420874	0.646573
C737	C	0.738190	-0.596494	-0.305677
C738	C	0.988190	-0.346494	-0.055677
C739	C	1.238190	-0.096494	0.194323
C740	C	1.488190	0.153506	0.444323
N741	N	0.761973	-0.577028	-0.329500
N742	N	1.011973	-0.327028	-0.079500
N743	N	1.261973	-0.077028	0.170500
N744	N	1.511973	0.172972	0.420500
C745	C	0.588969	-0.953199	-0.156125
C746	C	0.838969	-0.703199	0.093875
C747	C	1.088969	-0.453199	0.343875
C748	C	1.338969	-0.203199	0.593875
N749	N	0.565184	-0.933788	-0.132285
N750	N	0.815184	-0.683788	0.117715
N751	N	1.065184	-0.433788	0.367715
N752	N	1.315184	-0.183788	0.617715
H753	H	0.730125	-0.135525	-0.603817
H754	H	0.980125	0.114475	-0.353817
H755	H	1.230125	0.364475	-0.103817
H756	H	1.480125	0.614475	0.146183
C757	C	0.588830	-0.276748	-0.479807
C758	C	0.838830	-0.026748	-0.229807
C759	C	1.088830	0.223252	0.020193
C760	C	1.338830	0.473252	0.270193
N761	N	0.565009	-0.300548	-0.499238
N762	N	0.815009	-0.050548	-0.249238
N763	N	1.065009	0.199452	0.000762
N764	N	1.315009	0.449452	0.250762
H765	H	0.036408	-0.297170	-0.135533
H766	H	0.286408	-0.047170	0.114467
H767	H	0.536408	0.202830	0.364467
H768	H	0.786408	0.452830	0.614467
C769	C	0.709635	-0.155968	-0.953685
C770	C	0.959635	0.094032	-0.703685
C771	C	1.209635	0.344032	-0.453685
C772	C	1.459635	0.594032	-0.203685
N773	N	0.733453	-0.132163	-0.934257
N774	N	0.983453	0.117837	-0.684257
N775	N	1.233453	0.367837	-0.434257
N776	N	1.483453	0.617837	-0.184257
C777	C	0.268968	-0.305362	-0.127284
C778	C	0.518968	-0.055362	0.122716
C779	C	0.768968	0.194638	0.372716
C780	C	1.018968	0.444638	0.622716
N781	N	0.288379	-0.329133	-0.103436
N782	N	0.538379	-0.079133	0.146564
N783	N	0.788379	0.170867	0.396564
N784	N	1.038379	0.420867	0.646564
H785	H	-0.094190	-0.164396	-0.268752
H786	H	0.155810	0.085604	-0.018752
H787	H	0.405810	0.335604	0.231248
H788	H	0.655810	0.585604	0.481248
C789	C	0.588899	-0.276624	-1.052194
C790	C	0.838899	-0.026624	-0.802194
C791	C	1.088899	0.223376	-0.552194
C792	C	1.338899	0.473376	-0.302194
N793	N	0.565077	-0.300426	-1.071622
N794	N	0.815077	-0.050426	-0.821622
N795	N	1.065077	0.199574	-0.571622
N796	N	1.315077	0.449574	-0.321622
H797	H	0.392992	-0.268496	-0.164294
H798	H	0.642992	-0.018496	0.085706
H799	H	0.892992	0.231504	0.335706
H800	H	1.142992	0.481504	0.585706
H801	H	0.121514	-0.297168	-0.135527
H802	H	0.371514	-0.047168	0.114473
H803	H	0.621514	0.202832	0.364473
H804	H	0.871514	0.452832	0.614473
C805	C	0.709555	-0.953101	-0.276932
C806	C	0.959555	-0.703101	-0.026932
C807	C	1.209555	-0.453101	0.223068
C808	C	1.459555	-0.203101	0.473068
N809	N	0.733340	-0.933652	-0.300767
N810	N	0.983340	-0.683652	-0.050767
N811	N	1.233340	-0.433652	0.199233
N812	N	1.483340	-0.183652	0.449233
C813	C	0.738221	-0.737256	-0.305686
C814	C	0.988221	-0.487256	-0.055686
C815	C	1.238221	-0.237256	0.194314
C816	C	1.488221	0.012744	0.444314
N817	N	0.762008	-0.717808	-0.329521
N818	N	1.012008	-0.467808	-0.079521
N819	N	1.262008	-0.217808	0.170479
N820	N	1.512008	0.032192	0.420479
C821	C	0.589019	-1.051731	-0.156102
C822	C	0.839019	-0.801731	0.093898
C823	C	1.089019	-0.551731	0.343898
C824	C	1.339019	-0.301731	0.593898
N825	N	0.565277	-1.071196	-0.132237
N826	N	0.815277	-0.821196	0.117763
N827	N	1.065277	-0.571196	0.367763
N828	N	1.315277	-0.321196	0.617763
C829	C	0.588863	-0.479325	-0.156126
C830	C	0.838863	-0.229325	0.093874
C831	C	1.088863	0.020675	0.343874
C832	C	1.338863	0.270675	0.593874
N833	N	0.565074	-0.498775	-0.132295
N834	N	0.815074	-0.248775	0.117705
N835	N	1.065074	0.001225	0.367705
N836	N	1.315074	0.251225	0.617705
C837	C	0.709640	-0.155949	-1.052214
C838	C	0.959640	0.094051	-0.802214
C839	C	1.209640	0.344051	-0.552214
C840	C	1.459640	0.594051	-0.302214
N841	N	0.733454	-0.132139	-1.071660
N842	N	0.983454	0.117861	-0.821660
N843	N	1.233454	0.367861	-0.571660
N844	N	1.483454	0.617861	-0.321660
H845	H	0.568428	-0.744117	-0.135576
H846	H	0.818428	-0.494117	0.114424
H847	H	1.068428	-0.244117	0.364424
H848	H	1.318428	0.005883	0.614424
C849	C	0.560187	-0.596668	-0.127367
C850	C	0.810187	-0.346668	0.122633
C851	C	1.060187	-0.096668	0.372633
C852	C	1.310187	0.153332	0.622633
N853	N	0.536392	-0.577260	-0.103536
N854	N	0.786392	-0.327260	0.146464
N855	N	1.036392	-0.077260	0.396464
N856	N	1.286392	0.172740	0.646464
C857	C	0.560209	-0.695179	-0.127368
C858	C	0.810209	-0.445179	0.122632
C859	C	1.060209	-0.195179	0.372632
C860	C	1.310209	0.054821	0.622632
N861	N	0.536418	-0.714629	-0.103539
N862	N	0.786418	-0.464629	0.146461
N863	N	1.036418	-0.214629	0.396461
N864	N	1.286418	0.035371	0.646461
H865	H	0.478204	-0.164399	-0.268715
H866	H	0.728204	0.085601	-0.018715
H867	H	0.978204	0.335601	0.231285
H868	H	1.228204	0.585601	0.481285
H869	H	0.393096	-0.164389	-0.268716
H870	H	0.643096	0.085611	-0.018716
H871	H	0.893096	0.335611	0.231284
H872	H	1.143096	0.585611	0.481284
H873	H	0.730132	-0.135503	-0.688922
H874	H	0.980132	0.114497	-0.438922
H875	H	1.230132	0.364497	-0.188922
H876	H	1.480132	0.614497	0.061078
H877	H	0.730005	-0.688324	-0.297467
H878	H	0.980005	-0.438324	-0.047467
H879	H	1.230005	-0.188324	0.202533
H880	H	1.480005	0.061676	0.452533
