data_functionalizedCrystal
_audit_creation_method	'MofGen! by Chris Wilmer'
_symmetry_space_group_name_H-M	'P1'
_symmetry_Int_Tables_number	1
_symmetry_cell_setting	triclinic
loop_
_symmetry_equiv_pos_as_xyz
  x,y,z
_cell_length_a	21.295419
_cell_length_b	21.295417
_cell_length_c	12.759393
_cell_angle_alpha	90.038095
_cell_angle_beta	90.022738
_cell_angle_gamma	90.045308
loop_
_atom_site_label
_atom_site_type_symbol
_atom_site_fract_x
_atom_site_fract_y
_atom_site_fract_z
Zn1	Zn	0.962344	-0.250330	0.594015
Zn2	Zn	0.962250	-0.355612	0.418312
Zn3	Zn	0.857071	-0.250388	0.418345
Zn4	Zn	0.857037	-0.355593	0.593944
O5	O	0.909676	-0.302981	0.506154
O6	O	1.050421	-0.264280	0.570724
O7	O	0.948273	-0.341686	0.271295
O8	O	0.871089	-0.162291	0.441692
O9	O	1.050352	-0.341630	0.441636
O10	O	0.948433	-0.162248	0.570756
O11	O	0.870998	-0.264379	0.271319
O12	O	0.768977	-0.264360	0.441622
O13	O	0.871032	-0.341597	0.740974
O14	O	0.768952	-0.341653	0.570634
O15	O	0.948400	-0.264261	0.741027
O16	O	0.948240	-0.443699	0.441566
O17	O	0.870940	-0.443685	0.570602
C18	C	0.746124	-0.303011	0.506125
C19	C	0.676156	-0.303039	0.506137
C20	C	0.643348	-0.262829	0.573457
C21	C	0.577605	-0.262812	0.573461
C22	C	0.544673	-0.303016	0.506156
C23	C	0.577489	-0.343230	0.438823
C24	C	0.643231	-0.343241	0.438813
N25	N	0.441398	-0.358095	0.497945
N26	N	0.378947	-0.358083	0.497960
C27	C	0.346599	-0.302984	0.506179
N28	N	0.379061	-0.247897	0.514403
N29	N	0.441519	-0.247910	0.514393
C30	C	0.473388	-0.303008	0.506158
C31	C	0.242505	-0.262752	0.573507
C32	C	0.176761	-0.262734	0.573504
C33	C	0.176647	-0.343157	0.438871
C34	C	0.242389	-0.343170	0.438869
C35	C	0.275314	-0.302968	0.506193
C36	C	0.909593	-0.466532	0.506096
C37	C	0.909615	-0.536501	0.506106
C38	C	0.949901	-0.569354	0.438986
C39	C	0.949931	-0.635096	0.439010
C40	C	0.909663	-0.667983	0.506142
C41	C	0.869375	-0.635122	0.573275
C42	C	0.869351	-0.569381	0.573257
N43	N	0.854596	-0.771262	0.514142
N44	N	0.854620	-0.833714	0.514153
C45	C	0.909734	-0.866058	0.506203
N46	N	0.964823	-0.833591	0.498220
N47	N	0.964797	-0.771134	0.498204
C48	C	0.909685	-0.739268	0.506170
C49	C	0.950055	-0.970196	0.439104
C50	C	0.950085	-1.035940	0.439135
C51	C	0.869524	-1.035964	0.573396
C52	C	0.869499	-0.970222	0.573370
C53	C	0.909763	-0.937342	0.506219
C54	C	1.073866	-0.302951	0.506184
C55	C	1.143834	-0.302938	0.506197
C56	C	0.909723	-0.302920	0.780188
C57	C	0.909743	-0.302895	0.896964
C58	C	0.909776	-0.138790	0.506235
C59	C	0.909818	-0.068822	0.506270
C60	C	0.909665	-0.302996	0.233187
C61	C	0.909767	-0.302844	0.116411
C62	C	0.950032	-0.262619	0.951855
C63	C	0.950042	-0.262592	1.061579
C64	C	0.869473	-0.343121	1.061512
C65	C	0.869460	-0.343144	0.951790
C66	C	0.972599	-0.188317	1.211575
C67	C	1.012897	-0.148047	1.266470
C68	C	1.074322	-0.138380	1.230884
C69	C	1.095460	-0.168992	1.140405
C70	C	1.055165	-0.209266	1.085516
C71	C	0.993731	-0.218921	1.121100
C72	C	0.846910	-0.417421	0.801792
C73	C	0.806618	-0.457699	0.746901
C74	C	0.745192	-0.467372	0.782485
C75	C	0.724056	-0.436771	0.872967
C76	C	0.764349	-0.396493	0.927858
C77	C	0.825774	-0.386819	0.892267
H78	H	0.550672	-0.375964	0.384022
C79	C	0.994349	-0.934023	0.365251
C80	C	1.038672	-0.970165	0.291428
C81	C	1.082967	-0.933993	0.217575
C82	C	1.082939	-0.861681	0.217544
C83	C	1.038614	-0.825535	0.291369
C84	C	0.994319	-0.861706	0.365223
H85	H	1.038695	-1.023698	0.291448
H86	H	1.115779	-0.960751	0.162924
H87	H	1.115728	-0.834904	0.162873
H88	H	1.038591	-0.772001	0.291349
H89	H	0.961507	-0.834948	0.419873
C90	C	0.825178	-0.387404	1.121831
C91	C	0.830280	-0.458967	1.106705
C92	C	0.785990	-0.503256	1.167026
C93	C	0.736599	-0.475981	1.242473
C94	C	0.731495	-0.404415	1.257602
C95	C	0.775785	-0.360126	1.197282
H96	H	0.866844	-0.479160	1.050852
H97	H	0.789768	-0.556234	1.155825
H98	H	0.703812	-0.508766	1.287126
H99	H	0.694931	-0.384222	1.313456
H100	H	0.772007	-0.307148	1.208482
C101	C	0.914483	-0.406780	0.762648
C102	C	0.958802	-0.362475	0.823022
C103	C	1.026374	-0.351839	0.783879
C104	C	1.049627	-0.385507	0.684363
C105	C	1.005306	-0.429815	0.623984
C106	C	0.937734	-0.440451	0.663127
H107	H	0.941590	-0.337550	0.896694
H108	H	1.059183	-0.319039	0.828576
H109	H	1.099648	-0.377633	0.655387
H110	H	1.022518	-0.454740	0.550311
H111	H	0.904925	-0.473251	0.618429
H112	H	0.995681	-0.123123	1.340138
C113	C	0.679560	-0.218601	0.647508
C114	C	0.670543	-0.223825	0.766928
C115	C	0.706754	-0.179596	0.840980
C116	C	0.751982	-0.130145	0.795613
C117	C	0.761000	-0.124919	0.676187
C118	C	0.724789	-0.169148	0.602135
H119	H	0.637060	-0.260434	0.800517
H120	H	0.700077	-0.183465	0.929387
H121	H	0.778787	-0.097404	0.850431
H122	H	0.794483	-0.088310	0.642598
H123	H	0.731466	-0.165279	0.513728
C124	C	1.078407	-0.242936	0.985991
C125	C	1.100976	-0.204346	0.891166
C126	C	1.124218	-0.238012	0.791635
C127	C	1.124891	-0.310268	0.786930
C128	C	1.102321	-0.348862	0.881758
C129	C	1.079079	-0.315196	0.981289
H130	H	1.100478	-0.150854	0.894647
H131	H	1.140926	-0.209441	0.721437
H132	H	1.142097	-0.335189	0.713251
H133	H	1.102819	-0.402354	0.878278
H134	H	1.062371	-0.343767	1.051488
H135	H	0.150050	-0.229986	0.628323
C136	C	0.825080	-0.671294	0.647123
C137	C	0.825101	-0.743607	0.647142
C138	C	0.780808	-0.779778	0.720997
C139	C	0.736492	-0.743637	0.794833
C140	C	0.736469	-0.671320	0.794816
C141	C	0.780763	-0.635149	0.720961
H142	H	0.857908	-0.770365	0.592483
H143	H	0.780825	-0.833312	0.721009
H144	H	0.703703	-0.770413	0.849504
H145	H	0.703662	-0.644562	0.849475
H146	H	0.780745	-0.581615	0.720949
H147	H	0.982688	-0.542585	0.384310
C148	C	0.656485	-0.447404	0.912112
C149	C	0.612162	-0.491702	0.851731
C150	C	0.544589	-0.502337	0.890872
C151	C	0.521340	-0.468675	0.990396
C152	C	0.565664	-0.424375	1.050783
C153	C	0.633236	-0.413739	1.011642
H154	H	0.629372	-0.516623	0.778052
H155	H	0.511778	-0.535131	0.846169
H156	H	0.471319	-0.476547	1.019371
H157	H	0.548454	-0.399453	1.124462
H158	H	0.666048	-0.380945	1.056345
C159	C	0.700867	-0.511679	0.722107
C160	C	0.684376	-0.497902	0.606878
C161	C	0.640050	-0.542205	0.546504
C162	C	0.612215	-0.600286	0.601360
C163	C	0.628706	-0.614066	0.716595
C164	C	0.673032	-0.569763	0.776969
H165	H	0.704982	-0.454904	0.566264
H166	H	0.627842	-0.532004	0.461199
H167	H	0.579402	-0.633082	0.556668
H168	H	0.608100	-0.657063	0.757208
H169	H	0.685239	-0.579964	0.862274
H170	H	0.823834	-0.482621	0.673232
H171	H	0.747135	-0.371577	1.001534
C172	C	0.825178	-0.934081	0.647199
C173	C	0.753622	-0.943206	0.638519
C174	C	0.709302	-0.907066	0.712355
C175	C	0.736536	-0.861800	0.794872
C176	C	0.808096	-0.852672	0.803555
C177	C	0.852417	-0.888813	0.729719
H178	H	0.733458	-0.976717	0.577432
H179	H	0.656329	-0.913823	0.705926
H180	H	0.703727	-0.835047	0.849530
H181	H	0.828260	-0.819162	0.864642
H182	H	0.905390	-0.882055	0.736147
H183	H	1.145480	-0.161122	1.111443
H184	H	0.836545	-0.542631	0.627916
H185	H	0.550888	-0.230064	0.628280
C186	C	0.278728	-0.218526	0.647550
C187	C	0.242636	-0.174285	0.721593
C188	C	0.278857	-0.130059	0.795635
C189	C	0.351170	-0.130073	0.795635
C190	C	0.387266	-0.174315	0.721590
C191	C	0.351045	-0.218542	0.647548
H192	H	0.189102	-0.174273	0.721595
H193	H	0.252136	-0.097308	0.850449
H194	H	0.377983	-0.097334	0.850446
H195	H	0.440800	-0.174328	0.721588
H196	H	0.377766	-0.251293	0.592734
H197	H	0.669943	-0.375986	0.383991
H198	H	1.107133	-0.105591	1.275587
C199	C	0.140431	-0.387383	0.364830
C200	C	0.095240	-0.360039	0.282435
C201	C	0.059021	-0.404264	0.208388
C202	C	0.067994	-0.475834	0.216735
C203	C	0.113188	-0.503181	0.299134
C204	C	0.149406	-0.458956	0.373181
H205	H	0.088596	-0.307056	0.276253
H206	H	0.025566	-0.384019	0.147391
H207	H	0.041183	-0.508572	0.161921
H208	H	0.119832	-0.556165	0.305316
H209	H	0.182861	-0.479201	0.434178
H210	H	0.269102	-0.375916	0.384054
H211	H	0.982895	-1.062688	0.384480
H212	H	0.836740	-1.062740	0.628061
C213	C	0.994241	-0.671247	0.365166
C214	C	0.989125	-0.662275	0.245720
C215	C	1.033433	-0.698425	0.171874
C216	C	1.082857	-0.743546	0.217473
C217	C	1.087974	-0.752519	0.336925
C218	C	1.043667	-0.716370	0.410771
H219	H	0.952537	-0.628872	0.211959
H220	H	1.029644	-0.691782	0.083448
H221	H	1.115656	-0.770306	0.162808
H222	H	1.124563	-0.785922	0.370685
H223	H	1.047456	-0.723013	0.499197
H224	H	0.922581	-0.196179	1.240553
H225	H	0.982831	-0.229844	0.907220
