data_functionalizedCrystal
_audit_creation_method	'MofGen! by Chris Wilmer'
_symmetry_space_group_name_H-M	'P1'
_symmetry_Int_Tables_number	1
_symmetry_cell_setting	triclinic
loop_
_symmetry_equiv_pos_as_xyz
  x,y,z
_cell_length_a	18.215407
_cell_length_b	19.121063
_cell_length_c	18.215399
_cell_angle_alpha	87.592693
_cell_angle_beta	90.016824
_cell_angle_gamma	92.469446
loop_
_atom_site_label
_atom_site_type_symbol
_atom_site_fract_x
_atom_site_fract_y
_atom_site_fract_z
Zn1	Zn	1.112538	-0.279596	0.428595
Zn2	Zn	1.362538	-0.029596	0.678595
Zn3	Zn	1.612538	0.220404	0.928595
Zn4	Zn	1.862538	0.470404	1.178595
Zn5	Zn	1.107196	-0.397056	0.310772
Zn6	Zn	1.357196	-0.147056	0.560772
Zn7	Zn	1.607196	0.102944	0.810772
Zn8	Zn	1.857196	0.352944	1.060772
Zn9	Zn	0.989475	-0.279624	0.305544
Zn10	Zn	1.239475	-0.029624	0.555544
Zn11	Zn	1.489475	0.220376	0.805544
Zn12	Zn	1.739475	0.470376	1.055544
Zn13	Zn	0.984181	-0.397012	0.433795
Zn14	Zn	1.234181	-0.147012	0.683795
Zn15	Zn	1.484181	0.102988	0.933795
Zn16	Zn	1.734181	0.352988	1.183795
O17	O	1.048347	-0.338322	0.369676
O18	O	1.298347	-0.088322	0.619676
O19	O	1.548347	0.161678	0.869676
O20	O	1.798347	0.411678	1.119676
O21	O	1.214813	-0.295184	0.412978
O22	O	1.464813	-0.045184	0.662978
O23	O	1.714813	0.204816	0.912978
O24	O	1.964813	0.454816	1.162978
O25	O	1.091560	-0.381508	0.207095
O26	O	1.341560	-0.131508	0.457095
O27	O	1.591560	0.118492	0.707095
O28	O	1.841560	0.368492	0.957095
O29	O	1.010251	-0.181336	0.317503
O30	O	1.260251	0.068664	0.567503
O31	O	1.510251	0.318664	0.817503
O32	O	1.760251	0.568664	1.067503
O33	O	1.210888	-0.381481	0.326413
O34	O	1.460888	-0.131481	0.576413
O35	O	1.710888	0.118519	0.826413
O36	O	1.960888	0.368519	1.076413
O37	O	1.100664	-0.181315	0.407908
O38	O	1.350664	0.068685	0.657908
O39	O	1.600664	0.318685	0.907908
O40	O	1.850664	0.568685	1.157908
O41	O	1.005071	-0.295231	0.203254
O42	O	1.255071	-0.045231	0.453254
O43	O	1.505071	0.204769	0.703254
O44	O	1.755071	0.454769	0.953254
O45	O	0.885789	-0.295189	0.322545
O46	O	1.135789	-0.045189	0.572545
O47	O	1.385789	0.204811	0.822545
O48	O	1.635789	0.454811	1.072545
O49	O	1.001228	-0.381406	0.536088
O50	O	1.251228	-0.131406	0.786088
O51	O	1.501228	0.118594	1.036088
O52	O	1.751228	0.368594	1.286088
O53	O	0.881900	-0.381433	0.416770
O54	O	1.131900	-0.131433	0.666770
O55	O	1.381900	0.118567	0.916770
O56	O	1.631900	0.368567	1.166770
O57	O	1.095531	-0.295141	0.532268
O58	O	1.345531	-0.045141	0.782268
O59	O	1.595531	0.204859	1.032268
O60	O	1.845531	0.454859	1.282268
O61	O	1.086427	-0.495334	0.331455
O62	O	1.336427	-0.245334	0.581455
O63	O	1.586427	0.004666	0.831455
O64	O	1.836427	0.254666	1.081455
O65	O	0.996048	-0.495302	0.421839
O66	O	1.246048	-0.245302	0.671839
O67	O	1.496048	0.004698	0.921839
O68	O	1.746048	0.254698	1.171839
C69	C	0.857142	-0.338310	0.369655
C70	C	1.107142	-0.088310	0.619655
C71	C	1.357142	0.161690	0.869655
C72	C	1.607142	0.411690	1.119655
C73	C	0.775342	-0.338321	0.369664
C74	C	1.025342	-0.088321	0.619664
C75	C	1.275342	0.161679	0.869664
C76	C	1.525342	0.411679	1.119664
C77	C	0.585139	-0.383299	0.418671
C78	C	0.835139	-0.133299	0.668671
C79	C	1.085139	0.116701	0.918671
C80	C	1.335139	0.366701	1.168671
C81	C	0.508280	-0.383302	0.418680
C82	C	0.758280	-0.133302	0.668680
C83	C	1.008280	0.116698	0.918680
C84	C	1.258280	0.366698	1.168680
C85	C	0.512307	-0.293357	0.320698
C86	C	0.762307	-0.043357	0.570698
C87	C	1.012307	0.206643	0.820698
C88	C	1.262307	0.456643	1.070698
C89	C	0.589165	-0.293351	0.320693
C90	C	0.839165	-0.043351	0.570693
C91	C	1.089165	0.206649	0.820693
C92	C	1.339165	0.456649	1.070693
C93	C	0.625579	-0.338327	0.369679
C94	C	0.875579	-0.088327	0.619679
C95	C	1.125579	0.161673	0.869679
C96	C	1.375579	0.411673	1.119679
C97	C	0.471862	-0.338334	0.369693
C98	C	0.721862	-0.088334	0.619693
C99	C	0.971862	0.161666	0.869693
C100	C	1.221862	0.411666	1.119693
C101	C	0.388528	-0.338336	0.369703
C102	C	0.638528	-0.088336	0.619703
C103	C	0.888528	0.161664	0.869703
C104	C	1.138528	0.411664	1.119703
C105	C	0.708918	-0.338324	0.369670
C106	C	0.958918	-0.088324	0.619670
C107	C	1.208918	0.161676	0.869670
C108	C	1.458918	0.411676	1.119670
C109	C	1.040103	-0.520802	0.377794
C110	C	1.290103	-0.270802	0.627794
C111	C	1.540103	-0.020802	0.877794
C112	C	1.790103	0.229198	1.127794
C113	C	1.036644	-0.598868	0.381292
C114	C	1.286644	-0.348868	0.631292
C115	C	1.536644	-0.098868	0.881292
C116	C	1.786644	0.151132	1.131292
C117	C	1.082110	-0.635537	0.335916
C118	C	1.332110	-0.385537	0.585916
C119	C	1.582110	-0.135537	0.835916
C120	C	1.832110	0.114463	1.085916
C121	C	1.078861	-0.708888	0.339209
C122	C	1.328861	-0.458888	0.589209
C123	C	1.578861	-0.208888	0.839209
C124	C	1.828861	0.041112	1.089209
C125	C	1.030141	-0.745569	0.387876
C126	C	1.280141	-0.495569	0.637876
C127	C	1.530141	-0.245569	0.887876
C128	C	1.780141	0.004431	1.137876
C129	C	0.984673	-0.708895	0.433257
C130	C	1.234673	-0.458895	0.683257
C131	C	1.484673	-0.208895	0.933257
C132	C	1.734673	0.041105	1.183257
C133	C	0.987926	-0.635545	0.429967
C134	C	1.237926	-0.385545	0.679967
C135	C	1.487926	-0.135545	0.929967
C136	C	1.737926	0.114455	1.179967
C137	C	1.017965	-0.967039	0.400167
C138	C	1.267965	-0.717039	0.650167
C139	C	1.517965	-0.467039	0.900167
C140	C	1.767965	-0.217039	1.150167
C141	C	1.014713	-1.040394	0.403453
C142	C	1.264713	-0.790394	0.653453
C143	C	1.514713	-0.540394	0.903453
C144	C	1.764713	-0.290394	1.153453
C145	C	1.108902	-1.040382	0.309405
C146	C	1.358902	-0.790382	0.559405
C147	C	1.608902	-0.540382	0.809405
C148	C	1.858902	-0.290382	1.059405
C149	C	1.112149	-0.967031	0.306116
C150	C	1.362149	-0.717031	0.556116
C151	C	1.612149	-0.467031	0.806116
C152	C	1.862149	-0.217031	1.056116
C153	C	1.066683	-0.930363	0.351500
C154	C	1.316683	-0.680363	0.601500
C155	C	1.566683	-0.430363	0.851500
C156	C	1.816683	-0.180363	1.101500
C157	C	1.026817	-0.820546	0.391242
C158	C	1.276817	-0.570546	0.641242
C159	C	1.526817	-0.320546	0.891242
C160	C	1.776817	-0.070546	1.141242
C161	C	1.070012	-0.855387	0.348137
C162	C	1.320012	-0.605387	0.598137
C163	C	1.570012	-0.355387	0.848137
C164	C	1.820012	-0.105387	1.098137
C165	C	1.240300	-0.338334	0.369698
C166	C	1.490300	-0.088334	0.619698
C167	C	1.740300	0.161666	0.869698
C168	C	1.990300	0.411666	1.119698
C169	C	1.322098	-0.338340	0.369708
C170	C	1.572098	-0.088340	0.619708
C171	C	1.822098	0.161660	0.869708
C172	C	2.072098	0.411660	1.119708
C173	C	1.048385	-0.338266	0.561627
C174	C	1.298385	-0.088266	0.811627
C175	C	1.548385	0.161734	1.061627
C176	C	1.798385	0.411734	1.311627
C177	C	1.048401	-0.338242	0.643425
C178	C	1.298401	-0.088242	0.893425
C179	C	1.548401	0.161758	1.143425
C180	C	1.798401	0.411758	1.393425
C181	C	1.056644	-0.155129	0.361543
C182	C	1.306644	0.094871	0.611543
C183	C	1.556644	0.344871	0.861543
C184	C	1.806644	0.594871	1.111543
C185	C	1.060179	-0.077063	0.358077
C186	C	1.310179	0.172937	0.608077
C187	C	1.560179	0.422937	0.858077
C188	C	1.810179	0.672937	1.108077
C189	C	1.048355	-0.338327	0.178470
C190	C	1.298355	-0.088327	0.428470
C191	C	1.548355	0.161673	0.678470
C192	C	1.798355	0.411673	0.928470
C193	C	1.048491	-0.338153	0.096664
C194	C	1.298491	-0.088153	0.346664
C195	C	1.548491	0.161847	0.596664
C196	C	1.798491	0.411847	0.846664
C197	C	1.003407	-0.293287	0.829618
C198	C	1.253407	-0.043287	1.079618
C199	C	1.503407	0.206713	1.329618
C200	C	1.753407	0.456713	1.579618
C201	C	1.003420	-0.293273	0.906476
C202	C	1.253420	-0.043273	1.156476
C203	C	1.503420	0.206727	1.406476
C204	C	1.753420	0.456727	1.656476
C205	C	1.093486	-0.383112	0.910465
C206	C	1.343486	-0.133112	1.160465
C207	C	1.593486	0.116888	1.410465
C208	C	1.843486	0.366888	1.660465
C209	C	1.093468	-0.383130	0.833609
C210	C	1.343468	-0.133130	1.083609
C211	C	1.593468	0.116870	1.333609
C212	C	1.843468	0.366870	1.583609
C213	C	1.048430	-0.338213	0.793187
C214	C	1.298430	-0.088213	1.043187
C215	C	1.548430	0.161787	1.293187
C216	C	1.798430	0.411787	1.543187
C217	C	1.048461	-0.338182	0.946902
C218	C	1.298461	-0.088182	1.196902
C219	C	1.548461	0.161818	1.446902
C220	C	1.798461	0.411818	1.696902
C221	C	1.048476	-0.338167	1.030235
C222	C	1.298476	-0.088167	1.280235
C223	C	1.548476	0.161833	1.530235
C224	C	1.798476	0.411833	1.780235
C225	C	1.048414	-0.338229	0.709849
C226	C	1.298414	-0.088229	0.959849
C227	C	1.548414	0.161771	1.209849
C228	C	1.798414	0.411771	1.459849
H229	H	1.121780	-0.605676	0.296283
H230	H	1.371780	-0.355676	0.546283
H231	H	1.621780	-0.105676	0.796283
H232	H	1.871780	0.144324	1.046283
H233	H	0.966734	-0.256713	0.796709
H234	H	1.216734	-0.006713	1.046709
H235	H	1.466734	0.243287	1.296709
H236	H	1.716734	0.493287	1.546709
Br237	Br	0.453401	-0.444335	0.485176
Br238	Br	0.703401	-0.194335	0.735176
Br239	Br	0.953401	0.055665	0.985176
Br240	Br	1.203401	0.305665	1.235176
H241	H	0.482649	-0.256740	0.280815
H242	H	0.732649	-0.006740	0.530815
H243	H	0.982649	0.243260	0.780815
H244	H	1.232649	0.493260	1.030815
H245	H	0.622092	-0.256725	0.280798
H246	H	0.872092	-0.006725	0.530798
H247	H	1.122092	0.243275	0.780798
H248	H	1.372092	0.493275	1.030798
H249	H	0.614785	-0.419920	0.458559
H250	H	0.864785	-0.169920	0.708559
H251	H	1.114785	0.080080	0.958559
H252	H	1.364785	0.330080	1.208559
Br253	Br	1.140573	-0.758651	0.277629
Br254	Br	1.390573	-0.508651	0.527629
Br255	Br	1.640573	-0.258651	0.777629
Br256	Br	1.890573	-0.008651	1.027629
H257	H	1.151820	-0.937167	0.266488
H258	H	1.401820	-0.687167	0.516488
H259	H	1.651820	-0.437167	0.766488
H260	H	1.901820	-0.187167	1.016488
Br261	Br	1.170606	-1.090149	0.247820
Br262	Br	1.420606	-0.840149	0.497820
Br263	Br	1.670606	-0.590149	0.747820
Br264	Br	1.920606	-0.340149	0.997820
Br265	Br	0.948576	-1.090175	0.469492
Br266	Br	1.198576	-0.840175	0.719492
Br267	Br	1.448576	-0.590175	0.969492
Br268	Br	1.698576	-0.340175	1.219492
Br269	Br	0.956261	-0.917284	0.461760
Br270	Br	1.206261	-0.667284	0.711760
Br271	Br	1.456261	-0.417284	0.961760
Br272	Br	1.706261	-0.167284	1.211760
H273	H	0.966758	-0.256690	0.936135
H274	H	1.216758	-0.006690	1.186135
H275	H	1.466758	0.243310	1.436135
H276	H	1.716758	0.493310	1.686135
Br277	Br	1.154607	-0.444067	0.965327
Br278	Br	1.404607	-0.194067	1.215327
Br279	Br	1.654607	0.055933	1.465327
Br280	Br	1.904607	0.305933	1.715327
Br281	Br	0.926224	-0.585779	0.491556
Br282	Br	1.176224	-0.335779	0.741556
Br283	Br	1.426224	-0.085779	0.991556
Br284	Br	1.676224	0.164221	1.241556
Br285	Br	1.154570	-0.444110	0.784161
Br286	Br	1.404570	-0.194110	1.034161
Br287	Br	1.654570	0.055890	1.284161
Br288	Br	1.904570	0.305890	1.534161
H289	H	1.109682	-0.825520	0.308515
H290	H	1.359682	-0.575520	0.558515
H291	H	1.609682	-0.325520	0.808515
H292	H	1.859682	-0.075520	1.058515
Br293	Br	0.918558	-0.758675	0.499312
Br294	Br	1.168558	-0.508675	0.749312
Br295	Br	1.418558	-0.258675	0.999312
Br296	Br	1.668558	-0.008675	1.249312
H297	H	0.987147	-0.850419	0.430866
H298	H	1.237147	-0.600419	0.680866
H299	H	1.487147	-0.350419	0.930866
H300	H	1.737147	-0.100419	1.180866
