data_functionalizedCrystal
_audit_creation_method	'MofGen! by Chris Wilmer'
_symmetry_space_group_name_H-M	'P1'
_symmetry_Int_Tables_number	1
_symmetry_cell_setting	triclinic
loop_
_symmetry_equiv_pos_as_xyz
  x,y,z
_cell_length_a	12.759400
_cell_length_b	18.101398
_cell_length_c	12.759393
_cell_angle_alpha	89.971456
_cell_angle_beta	89.970195
_cell_angle_gamma	90.012376
loop_
_atom_site_label
_atom_site_type_symbol
_atom_site_fract_x
_atom_site_fract_y
_atom_site_fract_z
Zn1	Zn	-0.418279	1.132233	-0.594238
Zn2	Zn	-0.593995	1.132156	-0.418561
Zn3	Zn	-0.418323	1.008384	-0.418550
Zn4	Zn	-0.593909	1.008378	-0.594174
O5	O	-0.506127	1.070288	-0.506381
O6	O	-0.441605	1.235856	-0.570965
O7	O	-0.570745	1.115708	-0.271538
O8	O	-0.271296	1.024847	-0.441878
O9	O	-0.570703	1.235800	-0.441896
O10	O	-0.271264	1.115839	-0.570955
O11	O	-0.441681	1.024773	-0.271530
O12	O	-0.441598	0.904750	-0.441816
O13	O	-0.570558	1.024838	-0.741204
O14	O	-0.570601	0.904746	-0.570846
O15	O	-0.441523	1.115833	-0.741251
O16	O	-0.741004	1.115703	-0.441834
O17	O	-0.740942	1.024763	-0.570857
C18	C	-0.506096	0.877877	-0.506324
C19	C	-0.506108	0.795563	-0.506324
C20	C	-0.506129	0.644855	-0.506372
C21	C	-0.424848	0.613479	-0.425324
C22	C	-0.424542	0.527861	-0.425590
C23	C	-0.506150	0.496472	-0.506416
C24	C	-0.476585	0.527611	-0.617262
C25	C	-0.475983	0.613256	-0.616768
C26	C	-0.617186	0.613272	-0.477550
C27	C	-0.616601	0.527621	-0.475135
C28	C	-0.506164	0.412613	-0.506448
C29	C	-0.506113	0.728714	-0.506347
C30	C	-0.779094	1.070244	-0.506362
C31	C	-0.895871	1.070293	-0.506389
C32	C	-0.950626	1.117652	-0.573657
C33	C	-1.060350	1.117693	-0.573686
C34	C	-1.060554	1.023016	-0.439170
C35	C	-0.950832	1.022971	-0.439147
C36	C	-0.232093	1.070352	-0.506423
C37	C	-0.115317	1.070379	-0.506440
C38	C	-0.506026	1.070343	-0.780414
C39	C	-0.505983	1.070367	-0.897191
C40	C	-0.506158	1.263450	-0.506439
C41	C	-0.506172	1.345764	-0.506463
C42	C	-0.438783	1.117752	-0.952079
C43	C	-0.438738	1.117764	-1.061803
C44	C	-0.573100	1.023005	-1.061742
C45	C	-0.573140	1.022989	-0.952019
C46	C	-0.506151	1.070275	-0.233414
C47	C	-0.505898	1.070395	-0.116637
H48	H	-0.443085	0.634020	-0.342874
C49	C	-0.890598	0.970862	-0.365154
N50	N	-0.845229	0.931612	-0.309431
H51	H	-1.104926	1.156256	-0.628464
H52	H	-0.533982	0.507285	-0.679321
H53	H	-0.905879	1.156183	-0.628411
C54	C	-1.121021	0.971015	-0.365135
N55	N	-1.166564	0.931865	-0.309345
H56	H	-0.384097	1.156328	-0.907441
H57	H	-0.343023	0.635011	-0.444213
C58	C	-0.364816	1.169893	-1.122175
N59	N	-0.309134	1.209159	-1.167647
H60	H	-0.627780	0.984434	-1.106396
H61	H	-0.680372	0.506248	-0.529823
H62	H	-0.342256	0.507383	-0.444725
H63	H	-0.627861	0.984398	-0.907328
H64	H	-0.442989	0.506803	-0.343413
C65	C	-0.552507	0.641305	-0.701177
N66	N	-0.610137	0.662428	-0.764760
C67	C	-0.366329	0.640263	-0.649672
N68	N	-0.283733	0.660600	-0.674453
H69	H	-0.677739	0.633561	-0.536581
C70	C	-0.653652	0.642395	-0.370171
N71	N	-0.681107	0.664331	-0.289289
C72	C	-0.368153	0.498645	-0.650765
N73	N	-0.286483	0.476825	-0.675996
C74	C	-0.646738	0.500116	-0.364930
N75	N	-0.669435	0.479393	-0.281924
