data_functionalizedCrystal
_audit_creation_method	'MofGen! by Chris Wilmer'
_symmetry_space_group_name_H-M	'P1'
_symmetry_Int_Tables_number	1
_symmetry_cell_setting	triclinic
loop_
_symmetry_equiv_pos_as_xyz
  x,y,z
_cell_length_a	6.817900
_cell_length_b	19.551786
_cell_length_c	14.125465
_cell_angle_alpha	96.297102
_cell_angle_beta	100.398878
_cell_angle_gamma	101.662645
loop_
_atom_site_label
_atom_site_type_symbol
_atom_site_fract_x
_atom_site_fract_y
_atom_site_fract_z
V1	V	-3.982338	-0.096073	-0.300420
O2	O	-3.979997	0.005234	-0.294242
O3	O	-3.925214	-0.191091	-0.298808
O4	O	-3.918644	-0.094325	-0.431242
O5	O	-3.986613	-0.092202	-0.160890
V6	V	-4.469078	-0.083988	-0.283678
O7	O	-4.236539	-0.122584	-0.337146
O8	O	-4.665074	-0.057477	-0.246951
O9	O	-4.302996	0.011030	-0.285290
O10	O	-4.588816	-0.185295	-0.289856
O11	O	-4.582200	-0.087859	-0.423207
O12	O	-4.309566	-0.085737	-0.152856
C13	C	-3.768587	-0.214263	-0.294182
C14	C	-3.803067	-0.291940	-0.293736
C15	C	-4.024498	-0.841878	-0.202477
C16	C	-3.992084	-0.768892	-0.202886
C17	C	-4.002936	-0.742156	-0.291191
C18	C	-4.046157	-0.788413	-0.379091
C19	C	-4.078550	-0.861398	-0.378679
C20	C	-4.088988	-0.636351	-0.363021
C21	C	-4.056607	-0.563367	-0.363431
C22	C	-3.903018	-0.517047	-0.292468
C23	C	-3.781834	-0.543718	-0.221080
C24	C	-3.814227	-0.616703	-0.220668
C25	C	-3.967813	-0.663017	-0.291649
C26	C	-3.824641	-0.391658	-0.205017
C27	C	-3.792215	-0.318670	-0.205430
C28	C	-3.846310	-0.338194	-0.381639
C29	C	-3.878714	-0.411180	-0.381222
C30	C	-3.867887	-0.437908	-0.292909
C31	C	-3.760205	-0.090827	-0.463115
C32	C	-3.789354	-0.090025	-0.570065
C33	C	-3.842782	-0.088556	-0.765881
C34	C	-4.028004	-0.091503	-0.818216
C35	C	-4.057733	-0.090686	-0.927175
C36	C	-3.813044	-0.089374	-0.656913
C37	C	-4.122964	0.034198	-0.289913
C38	C	-4.067722	0.111874	-0.290366
C39	C	-4.131347	-0.089237	-0.120978
C40	C	-4.081437	-0.090034	-0.014027
H41	H	-3.715550	-0.638416	-0.162543
H42	H	-4.015674	-0.863635	-0.130565
O43	O	-3.856840	-0.312348	-0.467503
C44	C	-3.914028	-0.339418	-0.642234
C45	C	-3.902128	-0.368785	-0.545059
H46	H	-3.950686	-0.385033	-0.704964
H47	H	-3.760860	-0.302960	-0.642499
H48	H	-4.039502	-0.308512	-0.651176
H49	H	-3.776745	-0.399724	-0.536053
H50	H	-4.055381	-0.405205	-0.544837
O51	O	-3.680122	-0.084692	-0.809974
C52	C	-3.347860	-0.017760	-0.819193
C53	C	-3.531943	-0.022037	-0.769176
H54	H	-3.227991	0.032885	-0.786214
H55	H	-3.401049	-0.017713	-0.900471
H56	H	-3.278203	-0.065323	-0.807877
H57	H	-3.601683	0.025515	-0.780416
H58	H	-3.478636	-0.022118	-0.687916
H59	H	-3.956873	-0.731230	-0.131314
O60	O	-3.750474	-0.273679	-0.120120
C61	C	-3.855087	-0.183448	-0.023749
C62	C	-3.902573	-0.234354	-0.120416
H63	H	-3.978054	-0.151651	-0.023949
H64	H	-3.699284	-0.145942	-0.015120
H65	H	-3.852835	-0.215106	0.039421
H66	H	-3.904936	-0.202753	-0.183644
H67	H	-4.058343	-0.271860	-0.128960
H68	H	-4.164253	-0.094648	-0.781193
H69	H	-3.656768	-0.506005	-0.163296
H70	H	-3.815810	-0.413421	-0.133107
O71	O	-3.920386	-0.456131	-0.466562
C72	C	-3.815936	-0.546428	-0.562891
C73	C	-3.768480	-0.495543	-0.466206
H74	H	-3.693172	-0.578316	-0.562626
H75	H	-3.818027	-0.514819	-0.626113
H76	H	-3.971849	-0.583855	-0.571484
H77	H	-3.612560	-0.458104	-0.457518
H78	H	-3.766523	-0.527196	-0.403033
O79	O	-4.174441	-0.537581	-0.432868
C80	C	-4.450449	-0.564772	-0.573994
C81	C	-4.317118	-0.594068	-0.495423
H82	H	-4.565863	-0.610426	-0.624578
H83	H	-4.348825	-0.533788	-0.617908
H84	H	-4.535459	-0.528402	-0.537615
H85	H	-4.232086	-0.630466	-0.531723
H86	H	-4.418847	-0.625010	-0.451517
O87	O	-4.238308	-0.681409	-0.431831
C88	C	-4.550035	-0.771883	-0.464327
C89	C	-4.381053	-0.720902	-0.386302
H90	H	-4.665511	-0.803816	-0.427547
H91	H	-4.478771	-0.809260	-0.507781
H92	H	-4.631000	-0.740275	-0.515429
H93	H	-4.300027	-0.752452	-0.335134
H94	H	-4.452437	-0.683524	-0.342919
O95	O	-4.056695	-0.762562	-0.464955
C96	C	-4.113884	-0.789630	-0.639686
C97	C	-4.101972	-0.818998	-0.542511
H98	H	-4.150533	-0.835245	-0.702417
H99	H	-3.960723	-0.753169	-0.639952
H100	H	-4.239368	-0.758728	-0.648628
H101	H	-3.976579	-0.849933	-0.533507
H102	H	-4.255219	-0.855422	-0.542289
O103	O	-4.120838	-0.906402	-0.464005
C104	C	-4.361379	-1.003572	-0.571270
C105	C	-4.313716	-0.952659	-0.474600
H106	H	-4.517338	-1.040975	-0.579877
H107	H	-4.238677	-1.035481	-0.571101
H108	H	-4.363455	-0.971913	-0.634438
H109	H	-4.311670	-0.984264	-0.411380
H110	H	-4.436426	-0.920749	-0.474854
