data_functionalizedCrystal
_audit_creation_method	'MofGen! by Chris Wilmer'
_symmetry_space_group_name_H-M	'P1'
_symmetry_Int_Tables_number	1
_symmetry_cell_setting	triclinic
loop_
_symmetry_equiv_pos_as_xyz
  x,y,z
_cell_length_a	19.077105
_cell_length_b	10.686285
_cell_length_c	19.077569
_cell_angle_alpha	83.146359
_cell_angle_beta	85.299277
_cell_angle_gamma	83.162422
loop_
_atom_site_label
_atom_site_type_symbol
_atom_site_fract_x
_atom_site_fract_y
_atom_site_fract_z
Zn1	Zn	1.116552	-0.552740	-0.419179
Zn2	Zn	1.120843	-0.773201	-0.292247
Zn3	Zn	0.993935	-0.552758	-0.296574
Zn4	Zn	1.007059	-0.756730	-0.406043
O5	O	1.059597	-0.658857	-0.353511
O6	O	1.216056	-0.588870	-0.406029
O7	O	1.100312	-0.750860	-0.193887
O8	O	1.002913	-0.375129	-0.320147
O9	O	1.219208	-0.750842	-0.312772
O10	O	1.092999	-0.375115	-0.410224
O11	O	1.007073	-0.588901	-0.197066
O12	O	0.896741	-0.572930	-0.307408
O13	O	1.025280	-0.722769	-0.506720
O14	O	0.906383	-0.722787	-0.387834
O15	O	1.105724	-0.572899	-0.516371
O16	O	1.113037	-0.948643	-0.300034
O17	O	1.029440	-0.936542	-0.383639
C18	C	0.875910	-0.646074	-0.346666
C19	C	0.797329	-0.640635	-0.343753
C20	C	0.765453	-0.716229	-0.384182
C21	C	0.691618	-0.711101	-0.381449
C22	C	0.649660	-0.630385	-0.338283
C23	C	0.681541	-0.554782	-0.297853
C24	C	0.755375	-0.559904	-0.300590
C25	C	0.428300	-0.606679	-0.325618
C26	C	0.354461	-0.601566	-0.322883
C27	C	0.364542	-0.757885	-0.406480
C28	C	0.438377	-0.763005	-0.409211
C29	C	0.470252	-0.687397	-0.368783
N30	N	0.574189	-0.625144	-0.335487
N31	N	0.545722	-0.692632	-0.371583
C32	C	1.073148	-0.988650	-0.339957
C33	C	1.079011	-1.129739	-0.334185
C34	C	1.244002	-0.671691	-0.360383
C35	C	1.322585	-0.677161	-0.363312
C36	C	1.066488	-0.645995	-0.537915
C37	C	1.069424	-0.640513	-0.616497
C38	C	1.046013	-0.327777	-0.367134
C39	C	1.040225	-0.186691	-0.372939
C40	C	1.028921	-0.715962	-0.648392
C41	C	1.031686	-0.710812	-0.722228
C42	C	1.074950	-0.630206	-0.764169
C43	C	1.115457	-0.554755	-0.732270
C44	C	1.112696	-0.559912	-0.658435
C45	C	1.087703	-0.606420	-0.985533
C46	C	1.090460	-0.601266	-1.059373
C47	C	1.006689	-0.757326	-1.049326
C48	C	1.003928	-0.762470	-0.975490
C49	C	1.044438	-0.687024	-0.943597
N50	N	1.077775	-0.624937	-0.839642
N51	N	1.041616	-0.692300	-0.868125
C52	C	1.052771	-0.671581	-0.169829
C53	C	1.049957	-0.676714	-0.091267
H54	H	0.472535	-0.828736	-0.444359
H55	H	0.993681	-0.781584	-0.614249
H56	H	0.998705	-0.772252	-0.748193
H57	H	1.116699	-1.188924	-0.296582
C58	C	0.767994	-0.870214	-0.466546
C59	C	0.811569	-0.804952	-0.431635
H60	H	0.796464	-0.924979	-0.495847
H61	H	0.740032	-0.918836	-0.432640
H62	H	0.737940	-0.811081	-0.494838
H63	H	0.841619	-0.864085	-0.403338
H64	H	0.839543	-0.756327	-0.465545
H65	H	0.968709	-0.828129	-0.941345
H66	H	0.973708	-0.818750	-1.075301
C67	C	0.255837	-0.819436	-0.439411
C68	C	0.329503	-0.840976	-0.450924
H69	H	0.234208	-0.870729	-0.466855
H70	H	0.242712	-0.840363	-0.390691
H71	H	0.240631	-0.732609	-0.452890
H72	H	0.344710	-0.927802	-0.437439
H73	H	0.342634	-0.820058	-0.499654
H74	H	1.120690	-0.544987	-0.959574
H75	H	1.125688	-0.535615	-1.093520
H76	H	1.150688	-0.489129	-0.766424
H77	H	1.002534	-1.127514	-0.410534
C78	C	0.507013	-0.601156	-0.234346
C79	C	0.463328	-0.523580	-0.281175
H80	H	0.528642	-0.549849	-0.206910
H81	H	0.479463	-0.656271	-0.203920
H82	H	0.542570	-0.649946	-0.260453
H83	H	0.427769	-0.474797	-0.255067
H84	H	0.490880	-0.468443	-0.311605
C85	C	1.195770	-0.405126	-0.675777
C86	C	1.157215	-0.476971	-0.623374
H87	H	1.223253	-0.353918	-0.654131
H88	H	1.226158	-0.460300	-0.703307
H89	H	1.164044	-0.352418	-0.705426
H90	H	1.188941	-0.529686	-0.593728
H91	H	1.126825	-0.421791	-0.595832
C92	C	0.651758	-0.499373	-0.179907
C93	C	0.635423	-0.466053	-0.250404
H94	H	0.623289	-0.444590	-0.150615
H95	H	0.642768	-0.584506	-0.165535
H96	H	0.700294	-0.491597	-0.175761
H97	H	0.586888	-0.473838	-0.254552
H98	H	0.644407	-0.380899	-0.264781
H99	H	0.665668	-0.772660	-0.414370
H100	H	0.320300	-0.535822	-0.287737
H101	H	0.781327	-0.498340	-0.267672
