data_functionalizedCrystal
_audit_creation_method	'MofGen! by Chris Wilmer'
_symmetry_space_group_name_H-M	'P1'
_symmetry_Int_Tables_number	1
_symmetry_cell_setting	triclinic
loop_
_symmetry_equiv_pos_as_xyz
  x,y,z
_cell_length_a	25.639239
_cell_length_b	19.805407
_cell_length_c	19.805399
_cell_angle_alpha	89.980427
_cell_angle_beta	89.971274
_cell_angle_gamma	90.038686
loop_
_atom_site_label
_atom_site_type_symbol
_atom_site_fract_x
_atom_site_fract_y
_atom_site_fract_z
Zn1	Zn	-0.208163	1.034678	-0.382714
Zn2	Zn	0.125170	1.368011	-0.049381
Zn3	Zn	0.458504	1.701345	0.283952
Zn4	Zn	-0.295597	1.034569	-0.269524
Zn5	Zn	0.037736	1.367902	0.063810
Zn6	Zn	0.371070	1.701235	0.397143
Zn7	Zn	-0.208177	0.921493	-0.269539
Zn8	Zn	0.125156	1.254826	0.063795
Zn9	Zn	0.458489	1.588159	0.397128
Zn10	Zn	-0.295569	0.921432	-0.382670
Zn11	Zn	0.037764	1.254765	-0.049337
Zn12	Zn	0.371098	1.588099	0.283996
O13	O	-0.251877	0.978043	-0.326112
O14	O	0.081457	1.311376	0.007222
O15	O	0.414790	1.644709	0.340555
O16	O	-0.219767	1.129380	-0.367711
O17	O	0.113567	1.462713	-0.034378
O18	O	0.446900	1.796047	0.298955
O19	O	-0.284018	1.019548	-0.174809
O20	O	0.049315	1.352882	0.158524
O21	O	0.382648	1.686215	0.491858
O22	O	-0.135010	0.936578	-0.284576
O23	O	0.198323	1.269911	0.048757
O24	O	0.531656	1.603245	0.382090
O25	O	-0.284004	1.129300	-0.284551
O26	O	0.049329	1.462633	0.048783
O27	O	0.382662	1.795966	0.382116
O28	O	-0.135000	1.019735	-0.367726
O29	O	0.198334	1.353068	-0.034393
O30	O	0.531667	1.686402	0.298941
O31	O	-0.219791	0.936472	-0.174820
O32	O	0.113542	1.269805	0.158513
O33	O	0.446875	1.603139	0.491846
O34	O	-0.219764	0.826768	-0.284534
O35	O	0.113569	1.160101	0.048799
O36	O	0.446902	1.493435	0.382133
O37	O	-0.283957	0.936475	-0.477393
O38	O	0.049376	1.269808	-0.144060
O39	O	0.382710	1.603141	0.189274
O40	O	-0.283971	0.826723	-0.367651
O41	O	0.049362	1.160057	-0.034318
O42	O	0.382696	1.493390	0.299015
O43	O	-0.219740	1.019676	-0.477425
O44	O	0.113593	1.353009	-0.144092
O45	O	0.446927	1.686343	0.189242
O46	O	-0.368758	1.019489	-0.284508
O47	O	-0.035425	1.352823	0.048825
O48	O	0.297908	1.686156	0.382158
O49	O	-0.368738	0.936368	-0.367637
O50	O	-0.035405	1.269702	-0.034303
O51	O	0.297929	1.603035	0.299030
C52	C	-0.251867	0.802187	-0.326090
C53	C	0.081467	1.135520	0.007243
C54	C	0.414800	1.468853	0.340577
C55	C	-0.251875	0.726955	-0.326097
C56	C	0.081458	1.060288	0.007237
C57	C	0.414792	1.393621	0.340570
C58	C	-0.285357	0.691605	-0.369306
C59	C	0.047976	1.024938	-0.035972
C60	C	0.381309	1.358272	0.297361
C61	C	-0.285358	0.620917	-0.369315
C62	C	0.047975	0.954250	-0.035982
C63	C	0.381308	1.287583	0.297351
C64	C	-0.251879	0.585579	-0.326112
C65	C	0.081454	0.918912	0.007222
C66	C	0.414788	1.252246	0.340555
C67	C	-0.218393	0.620934	-0.282901
C68	C	0.114941	0.954267	0.050433
C69	C	0.448274	1.287600	0.383766
C70	C	-0.218390	0.691621	-0.282895
C71	C	0.114944	1.024954	0.050438
C72	C	0.448277	1.358288	0.383772
C73	C	-0.218404	0.335860	-0.282923
C74	C	0.114929	0.669194	0.050410
C75	C	0.448262	1.002527	0.383744
C76	C	-0.218411	0.265168	-0.282931
C77	C	0.114922	0.598502	0.050403
C78	C	0.448256	0.931835	0.383736
C79	C	-0.285373	0.265156	-0.369343
C80	C	0.047960	0.598489	-0.036010
C81	C	0.381294	0.931823	0.297323
C82	C	-0.285370	0.335843	-0.369338
C83	C	0.047963	0.669177	-0.036004
C84	C	0.381297	1.002510	0.297329
C85	C	-0.251882	0.371192	-0.326129
C86	C	0.081451	0.704525	0.007204
C87	C	0.414785	1.037858	0.340537
C88	C	-0.251881	0.447840	-0.326121
C89	C	0.081453	0.781174	0.007213
C90	C	0.414786	1.114507	0.340546
C91	C	-0.251883	0.508932	-0.326117
C92	C	0.081451	0.842265	0.007217
C93	C	0.414784	1.175599	0.340550
C94	C	-0.387719	0.977929	-0.326081
C95	C	-0.054386	1.311262	0.007253
C96	C	0.278947	1.644596	0.340586
C97	C	-0.445833	0.977942	-0.326090
C98	C	-0.112500	1.311275	0.007243
C99	C	0.220833	1.644609	0.340576
C100	C	-0.806194	1.021437	-0.282901
C101	C	-0.472861	1.354770	0.050433
C102	C	-0.139528	1.688103	0.383766
C103	C	-0.860799	1.021463	-0.282910
C104	C	-0.527465	1.354796	0.050424
C105	C	-0.194132	1.688130	0.383757
O106	O	-0.889034	1.058326	-0.246154
O107	O	-0.555700	1.391659	0.087179
O108	O	-0.222367	1.724992	0.420512
N109	N	-0.888116	0.978162	-0.326157
N110	N	-0.554782	1.311495	0.007177
N111	N	-0.221449	1.644828	0.340510
C112	C	-0.860825	0.934836	-0.369402
C113	C	-0.527492	1.268169	-0.036069
C114	C	-0.194159	1.601503	0.297264
O115	O	-0.889075	0.898008	-0.406189
O116	O	-0.555741	1.231341	-0.072855
O117	O	-0.222408	1.564675	0.260478
C118	C	-0.806222	0.934814	-0.369396
C119	C	-0.472889	1.268147	-0.036063
C120	C	-0.139556	1.601481	0.297271
C121	C	-0.778908	0.978113	-0.326141
C122	C	-0.445575	1.311446	0.007192
C123	C	-0.112241	1.644780	0.340525
C124	C	-0.778880	1.064733	-0.239650
C125	C	-0.445547	1.398066	0.093683
C126	C	-0.112213	1.731400	0.427017
C127	C	-0.724279	1.064706	-0.239640
C128	C	-0.390946	1.398039	0.093693
C129	C	-0.057613	1.731372	0.427026
C130	C	-0.696993	1.021382	-0.282881
C131	C	-0.363660	1.354716	0.050452
C132	C	-0.030327	1.688049	0.383786
C133	C	-0.724307	0.978086	-0.326132
C134	C	-0.390974	1.311419	0.007202
C135	C	-0.057641	1.644753	0.340535
C136	C	-0.778933	0.891492	-0.412645
C137	C	-0.445600	1.224826	-0.079311
C138	C	-0.112266	1.558159	0.254022
C139	C	-0.724326	0.891474	-0.412635
C140	C	-0.390993	1.224807	-0.079302
C141	C	-0.057659	1.558141	0.254031
C142	C	-0.697012	0.934773	-0.369381
C143	C	-0.363679	1.268107	-0.036047
C144	C	-0.030345	1.601440	0.297286
C145	C	-0.642421	0.934735	-0.369363
C146	C	-0.309087	1.268068	-0.036029
C147	C	0.024246	1.601402	0.297304
N148	N	-0.615104	0.978036	-0.326116
N149	N	-0.281770	1.311370	0.007218
N150	N	0.051563	1.644703	0.340551
C151	C	-0.642390	1.021360	-0.282875
C152	C	-0.309057	1.354693	0.050458
C153	C	0.024277	1.688027	0.383792
C154	C	-0.975496	0.934887	-0.369413
C155	C	-0.642163	1.268220	-0.036079
C156	C	-0.308829	1.601554	0.297254
C157	C	-1.030098	0.934906	-0.369416
C158	C	-0.696765	1.268239	-0.036083
C159	C	-0.363432	1.601572	0.297251
C160	C	-1.030068	1.021533	-0.282924
C161	C	-0.696734	1.354867	0.050409
C162	C	-0.363401	1.688200	0.383743
C163	C	-0.975464	1.021511	-0.282918
C164	C	-0.642131	1.354845	0.050415
C165	C	-0.308798	1.688178	0.383749
C166	C	-0.948179	0.978188	-0.326166
C167	C	-0.614846	1.311522	0.007168
C168	C	-0.281512	1.644855	0.340501
C169	C	-0.527725	1.021299	-0.282857
C170	C	-0.194392	1.354632	0.050476
C171	C	0.138942	1.687966	0.383809
C172	C	-0.473119	1.021266	-0.282849
C173	C	-0.139786	1.354599	0.050484
C174	C	0.193547	1.687932	0.383817
C175	C	-0.473155	0.934641	-0.369343
C176	C	-0.139822	1.267974	-0.036010
C177	C	0.193512	1.601307	0.297323
C178	C	-0.527756	0.934671	-0.369349
C179	C	-0.194422	1.268004	-0.036016
C180	C	0.138911	1.601338	0.297317
C181	C	-0.555039	0.978006	-0.326104
C182	C	-0.221706	1.311339	0.007230
C183	C	0.111628	1.644672	0.340563
O184	O	-0.614151	0.897893	-0.406101
O185	O	-0.280818	1.231226	-0.072768
O186	O	0.052516	1.564560	0.260565
O187	O	-0.614134	1.058188	-0.246101
O188	O	-0.280801	1.391522	0.087232
O189	O	0.052533	1.724855	0.420566
C190	C	-0.115504	0.978175	-0.326158
C191	C	0.217830	1.311509	0.007176
C192	C	0.551163	1.644842	0.340509
C193	C	-0.057389	0.978232	-0.326177
C194	C	0.275944	1.311565	0.007156
C195	C	0.609277	1.644899	0.340489
C196	C	-0.251844	0.978081	-0.502655
C197	C	0.081490	1.311414	-0.169321
C198	C	0.414823	1.644747	0.164012
C199	C	-0.251830	0.978097	-0.577887
C200	C	0.081504	1.311430	-0.244553
C201	C	0.414837	1.644764	0.088780
C202	C	-0.251887	1.154585	-0.326134
C203	C	0.081446	1.487919	0.007199
C204	C	0.414780	1.821252	0.340532
C205	C	-0.251891	1.229817	-0.326144
C206	C	0.081442	1.563151	0.007190
C207	C	0.414775	1.896484	0.340523
C208	C	-0.218390	1.021421	-0.613249
C209	C	0.114943	1.354754	-0.279915
C210	C	0.448276	1.688087	0.053418
C211	C	-0.218375	1.021428	-0.683937
C212	C	0.114958	1.354761	-0.350604
C213	C	0.448292	1.688094	-0.017270
C214	C	-0.251802	0.978114	-0.719262
C215	C	0.081531	1.311447	-0.385929
C216	C	0.414864	1.644780	-0.052596
C217	C	-0.285243	0.934785	-0.683895
C218	C	0.048090	1.268118	-0.350562
C219	C	0.381423	1.601452	-0.017229
C220	C	-0.285255	0.934775	-0.613208
C221	C	0.048078	1.268108	-0.279875
C222	C	0.381411	1.601442	0.053459
C223	C	-0.285194	0.934823	-0.968969
C224	C	0.048139	1.268157	-0.635635
C225	C	0.381472	1.601490	-0.302302
C226	C	-0.285181	0.934838	-1.039661
C227	C	0.048152	1.268171	-0.706328
C228	C	0.381486	1.601504	-0.372994
C229	C	-0.218314	1.021476	-1.039698
C230	C	0.115019	1.354809	-0.706364
C231	C	0.448353	1.688143	-0.373031
C232	C	-0.218326	1.021466	-0.969011
C233	C	0.115007	1.354799	-0.635677
C234	C	0.448340	1.688133	-0.302344
C235	C	-0.251765	0.978135	-0.933650
C236	C	0.081568	1.311468	-0.600316
C237	C	0.414902	1.644802	-0.266983
C238	C	-0.251780	0.978127	-0.857001
C239	C	0.081553	1.311460	-0.523668
C240	C	0.414886	1.644794	-0.190335
C241	C	-0.251790	0.978125	-0.795909
C242	C	0.081543	1.311458	-0.462576
C243	C	0.414877	1.644791	-0.129243
C244	C	-0.251872	0.978044	-0.150256
C245	C	0.081462	1.311377	0.183078
C246	C	0.414795	1.644711	0.516411
C247	C	-0.251738	0.978159	-0.075024
C248	C	0.081595	1.311492	0.258309
C249	C	0.414928	1.644826	0.591642
H250	H	-0.191145	0.236399	-0.247749
H251	H	0.142188	0.569732	0.085584
H252	H	0.475522	0.903065	0.418918
H253	H	-0.312458	0.899515	-0.712663
H254	H	0.020875	1.232849	-0.379329
H255	H	0.354208	1.566182	-0.045996
Br256	Br	-0.330636	0.875972	-0.565216
Br257	Br	0.002697	1.209305	-0.231882
Br258	Br	0.336031	1.542639	0.101451
Br259	Br	-0.172962	1.080255	-0.921073
Br260	Br	0.160371	1.413588	-0.587739
Br261	Br	0.493705	1.746922	-0.254406
Br262	Br	-0.687299	0.832678	-0.471335
Br263	Br	-0.353966	1.166011	-0.138001
Br264	Br	-0.020632	1.499345	0.195332
H265	H	-0.450930	0.899365	-0.404548
H266	H	-0.117597	1.232698	-0.071214
H267	H	0.215737	1.566032	0.262119
H268	H	-0.191171	1.056694	-0.584492
H269	H	0.142162	1.390028	-0.251159
H270	H	0.475495	1.723361	0.082175
H271	H	-0.312402	0.899563	-1.068421
H272	H	0.020931	1.232897	-0.735087
H273	H	0.354264	1.566230	-0.401754
Br274	Br	-0.173015	1.080259	-0.731926
Br275	Br	0.160318	1.413592	-0.398593
Br276	Br	0.493651	1.746925	-0.065259
H277	H	-0.801163	0.856230	-0.447864
H278	H	-0.467830	1.189563	-0.114531
H279	H	-0.134496	1.522897	0.218803
H280	H	-0.549996	0.899415	-0.404573
H281	H	-0.216663	1.232749	-0.071239
H282	H	0.116671	1.566082	0.262094
Br283	Br	-0.330811	0.383798	-0.427969
Br284	Br	0.002522	0.717131	-0.094636
Br285	Br	0.335856	1.050465	0.238698
Br286	Br	-0.172953	0.383825	-0.224287
Br287	Br	0.160380	0.717158	0.109046
Br288	Br	0.493713	1.050491	0.442380
Br289	Br	-0.436053	1.080032	-0.224141
Br290	Br	-0.102720	1.413365	0.109192
Br291	Br	0.230613	1.746698	0.442525
Br292	Br	-0.172931	1.080283	-1.087691
Br293	Br	0.160402	1.413616	-0.754358
Br294	Br	0.493736	1.746949	-0.421024
H295	H	-0.312622	0.720372	-0.404485
H296	H	0.020711	1.053705	-0.071152
H297	H	0.354045	1.387038	0.262182
Br298	Br	-0.330800	0.572944	-0.427961
Br299	Br	0.002534	0.906278	-0.094627
Br300	Br	0.335867	1.239611	0.238706
H301	H	-0.191131	0.592156	-0.247727
H302	H	0.142202	0.925490	0.085607
H303	H	0.475536	1.258823	0.418940
Br304	Br	-0.330823	0.217180	-0.427983
Br305	Br	0.002510	0.550513	-0.094650
Br306	Br	0.335843	0.883846	0.238684
Br307	Br	-0.564744	1.080111	-0.224167
Br308	Br	-0.231411	1.413444	0.109167
Br309	Br	0.101923	1.746777	0.442500
H310	H	-0.953228	1.056769	-0.247697
H311	H	-0.619895	1.390103	0.085637
H312	H	-0.286562	1.723436	0.418970
Br313	Br	-0.172944	0.739597	-0.224256
Br314	Br	0.160389	1.072930	0.109078
Br315	Br	0.493722	1.406263	0.442411
Br316	Br	-0.687219	1.123482	-0.180944
Br317	Br	-0.353885	1.456816	0.152389
Br318	Br	-0.020552	1.790149	0.485723
Br319	Br	-1.067110	1.080328	-0.224236
Br320	Br	-0.733776	1.413661	0.109097
Br321	Br	-0.400443	1.746994	0.442430
H322	H	-0.801091	1.100016	-0.204438
H323	H	-0.467757	1.433349	0.128895
H324	H	-0.134424	1.766683	0.462229
H325	H	-1.052333	0.899641	-0.404632
H326	H	-0.719000	1.232974	-0.071299
H327	H	-0.385666	1.566307	0.262035
Br328	Br	-0.938471	0.876082	-0.428108
Br329	Br	-0.605138	1.209415	-0.094774
Br330	Br	-0.271805	1.542749	0.238559
Br331	Br	-0.330575	0.876016	-0.920988
Br332	Br	0.002759	1.209349	-0.587655
Br333	Br	0.336092	1.542682	-0.254321
