data_functionalizedCrystal
_audit_creation_method	'MofGen! by Chris Wilmer'
_symmetry_space_group_name_H-M	'P1'
_symmetry_Int_Tables_number	1
_symmetry_cell_setting	triclinic
loop_
_symmetry_equiv_pos_as_xyz
  x,y,z
_cell_length_a	10.654554
_cell_length_b	10.654551
_cell_length_c	9.130313
_cell_angle_alpha	89.998448
_cell_angle_beta	90.001106
_cell_angle_gamma	95.513947
loop_
_atom_site_label
_atom_site_type_symbol
_atom_site_fract_x
_atom_site_fract_y
_atom_site_fract_z
O1	O	1.667831	-0.176420	-0.121744
O2	O	1.302354	-0.193220	-0.121756
O3	O	1.493495	-0.002081	-0.121750
O4	O	1.476690	-0.367559	-0.121749
O5	O	1.493493	-0.002086	0.121849
O6	O	1.302351	-0.193225	0.121843
O7	O	1.667829	-0.176425	0.121855
Cu8	Cu	1.485090	-0.184826	0.144091
Cu9	Cu	1.485093	-0.184820	-0.143992
O10	O	1.476688	-0.367564	0.121849
C11	C	1.255555	-0.191988	0.000042
C12	C	1.116112	-0.188294	0.000037
C13	C	0.905604	-0.297367	0.000051
C14	C	1.036625	-0.300839	0.000039
C15	C	1.064571	-0.072269	0.000031
C16	C	0.933552	-0.068799	0.000032
C17	C	0.826123	-0.409919	0.000068
C18	C	0.877654	-0.525944	0.000071
C19	C	1.008676	-0.529416	0.000059
C20	C	1.088166	-0.416863	0.000045
C21	C	1.492260	0.044714	0.000046
C22	C	1.488567	0.184158	0.000036
C23	C	1.714628	-0.177657	0.000054
C24	C	1.854071	-0.181351	0.000049
N25	N	1.485097	-0.184829	0.346714
C26	C	1.477923	-0.414360	0.000050
C27	C	1.481616	-0.553803	0.000051
C28	C	1.486836	0.249672	-0.132747
C29	C	1.483356	0.380693	-0.132741
C30	C	1.483343	0.380673	0.132844
C31	C	1.486814	0.249654	0.132836
C32	C	1.488589	0.184176	-0.265548
C33	C	1.486860	0.249692	-0.398342
C34	C	1.483379	0.380712	-0.398335
C35	C	1.481629	0.446217	-0.265534
N36	N	1.485095	-0.184806	-0.346615
C37	C	1.569756	-0.100222	0.423369
C38	C	1.569753	-0.100207	0.576705
C39	C	1.400427	-0.269417	0.576720
C40	C	1.400426	-0.269425	0.423386
C41	C	1.654428	-0.015625	0.346697
C42	C	1.739095	0.068988	0.423351
C43	C	1.739092	0.069003	0.576688
C44	C	1.654421	-0.015595	0.653370
H45	H	0.891594	0.025671	0.000029
H46	H	1.491426	0.077494	-0.265568
H47	H	1.331487	-0.338319	0.360973
O48	O	1.481478	0.444417	0.261745
C49	C	1.370877	0.506903	0.269706
H50	H	1.334162	0.522113	0.154412
H51	H	1.392855	0.602018	0.325914
H52	H	1.296182	0.447108	0.335228
H53	H	1.808024	0.137872	0.360909
H54	H	0.812926	-0.617580	0.000071
O55	O	0.698870	-0.406389	-0.000122
C56	C	0.662750	-0.342577	-0.126307
H57	H	0.746409	-0.277849	-0.168381
H58	H	0.581968	-0.284070	-0.097933
H59	H	0.630664	-0.414208	-0.214641
O60	O	1.058528	-0.642222	0.000120
C61	C	0.960277	-0.740812	0.000095
H62	H	0.870982	-0.704831	0.046217
H63	H	0.988362	-0.821742	0.070822
H64	H	0.942038	-0.775585	-0.116768
O65	O	1.478260	0.573493	-0.265788
C66	C	1.477045	0.617269	-0.411464
H67	H	1.518777	0.546650	-0.486663
H68	H	1.535540	0.712391	-0.419524
H69	H	1.375839	0.628165	-0.446002
H70	H	1.488197	0.196307	0.240960
O71	O	1.654561	-0.015433	0.197747
C72	C	1.747468	0.077350	0.146508
H73	H	1.768731	0.151972	0.234858
H74	H	1.711700	0.123431	0.043915
H75	H	1.837096	0.031677	0.119316
O76	O	1.215413	-0.420460	0.000088
C77	C	1.243857	-0.546994	0.000042
H78	H	1.160446	-0.609711	0.046169
H79	H	1.330669	-0.556262	0.070753
H80	H	1.263457	-0.577328	-0.116829
O81	O	1.141963	0.036939	0.000094
C82	C	1.268654	0.008997	0.000059
H83	H	1.274537	-0.089696	0.046176
H84	H	1.327374	0.080660	0.070785
H85	H	1.306497	0.013432	-0.116807
O86	O	1.318138	-0.351424	0.651368
C87	C	1.240062	-0.283434	0.740030
H88	H	1.289231	-0.185620	0.762987
H89	H	1.220656	-0.335663	0.847863
H90	H	1.147169	-0.274041	0.680940
H91	H	1.488273	0.196347	-0.506463
H92	H	1.481958	0.434049	-0.506462
O93	O	1.821448	0.151241	0.650925
C94	C	1.896152	0.225924	0.550366
H95	H	1.898013	0.174407	0.441073
H96	H	1.996280	0.244148	0.594670
H97	H	1.854573	0.319605	0.534042
O98	O	1.654612	-0.015444	0.802323
C99	C	1.747461	0.077405	0.853543
H100	H	1.822091	0.098602	0.765186
H101	H	1.793515	0.041612	0.956140
H102	H	1.701861	0.167078	0.880721
