data_functionalizedCrystal
_audit_creation_method	'MofGen! by Chris Wilmer'
_symmetry_space_group_name_H-M	'P1'
_symmetry_Int_Tables_number	1
_symmetry_cell_setting	triclinic
loop_
_symmetry_equiv_pos_as_xyz
  x,y,z
_cell_length_a	12.594517
_cell_length_b	12.594516
_cell_length_c	12.594510
_cell_angle_alpha	90.033582
_cell_angle_beta	90.012939
_cell_angle_gamma	90.007702
loop_
_atom_site_label
_atom_site_type_symbol
_atom_site_fract_x
_atom_site_fract_y
_atom_site_fract_z
Zn1	Zn	1.627314	-0.423767	0.601583
Zn2	Zn	1.627213	-0.601795	0.423606
Zn3	Zn	1.449313	-0.423818	0.423642
Zn4	Zn	1.449313	-0.601691	0.601566
O5	O	1.538288	-0.512768	0.512599
O6	O	1.776246	-0.447405	0.577965
O7	O	1.603572	-0.578251	0.274665
O8	O	1.472967	-0.274866	0.447269
O9	O	1.776172	-0.578201	0.447206
O10	O	1.603744	-0.274828	0.578001
O11	O	1.472870	-0.447492	0.274692
O12	O	1.300367	-0.447391	0.447253
O13	O	1.472967	-0.578024	0.750514
O14	O	1.300367	-0.578074	0.577973
O15	O	1.603743	-0.447304	0.750527
O16	O	1.603572	-0.750727	0.447190
O17	O	1.472870	-0.750651	0.577937
C18	C	1.261747	-0.512728	0.512615
C19	C	1.143442	-0.512736	0.512648
C20	C	1.074219	-0.583953	0.583609
C21	C	1.003404	-0.486905	0.609786
C22	C	1.003458	-0.609865	0.486446
C23	C	1.074185	-0.415636	0.538876
C24	C	1.074244	-0.538661	0.415491
C25	C	1.003461	-0.441546	0.441632
C26	C	1.538239	-0.789309	0.512581
C27	C	1.538315	-0.907614	0.512608
C28	C	1.609487	-0.976870	0.441571
C29	C	1.635500	-1.047559	0.538716
C30	C	1.512435	-1.047724	0.415525
C31	C	1.564378	-0.976745	0.609804
C32	C	1.441268	-0.976904	0.486548
C33	C	1.467244	-1.047561	0.583760
C34	C	1.815909	-0.512809	0.512584
C35	C	1.934214	-0.512827	0.512577
C36	C	1.538366	-0.512647	0.790220
C37	C	1.538400	-0.512595	0.908526
C38	C	1.538367	-0.235147	0.512641
C39	C	1.538400	-0.116842	0.512659
C40	C	1.538271	-0.512811	0.236058
C41	C	1.538444	-0.512563	0.117753
C42	C	1.609554	-0.441475	1.048549
C43	C	1.635549	-0.538598	0.977725
C44	C	1.512452	-0.415484	0.977779
C45	C	1.564489	-0.609737	1.048487
C46	C	1.441347	-0.486557	1.048547
C47	C	1.467305	-0.583747	0.977755
H48	H	1.105123	-0.333509	0.561100
Cl49	Cl	1.374428	-0.676685	0.930064
Cl50	Cl	1.598392	-0.928820	0.736630
Cl51	Cl	0.955791	-0.348518	0.348935
Cl52	Cl	1.702494	-0.348755	1.096546
H53	H	1.717642	-0.560613	0.946613
H54	H	1.717607	-1.078597	0.560787
Cl55	Cl	1.122288	-0.572492	0.288699
Cl56	Cl	1.374375	-1.095188	0.676646
Cl57	Cl	0.955489	-0.736623	0.452275
Cl58	Cl	1.122192	-0.676763	0.676371
Cl59	Cl	1.702421	-0.928941	0.348904
H60	H	1.359184	-0.945843	0.464449
H61	H	1.490511	-1.078901	0.333402
Cl62	Cl	1.598553	-0.736548	1.096233
H63	H	1.359278	-0.464511	1.079681
Cl64	Cl	1.478538	-0.288712	0.929820
Cl65	Cl	0.955361	-0.453097	0.736591
