data_functionalizedCrystal
_audit_creation_method	'MofGen! by Chris Wilmer'
_symmetry_space_group_name_H-M	'P1'
_symmetry_Int_Tables_number	1
_symmetry_cell_setting	triclinic
loop_
_symmetry_equiv_pos_as_xyz
  x,y,z
_cell_length_a	15.538191
_cell_length_b	17.699083
_cell_length_c	16.776229
_cell_angle_alpha	89.995692
_cell_angle_beta	90.006765
_cell_angle_gamma	114.722446
loop_
_atom_site_label
_atom_site_type_symbol
_atom_site_fract_x
_atom_site_fract_y
_atom_site_fract_z
O1	O	1.250477	0.245976	0.066293
O2	O	1.750477	0.745976	0.566293
O3	O	0.976018	0.158529	0.066294
O4	O	1.476018	0.658529	0.566294
O5	O	1.121002	0.314560	0.066286
O6	O	1.621002	0.814560	0.566286
O7	O	1.105493	0.089944	0.066300
O8	O	1.605493	0.589944	0.566300
O9	O	1.120985	0.314556	-0.066290
O10	O	1.620985	0.814556	0.433710
O11	O	0.976001	0.158525	-0.066283
O12	O	1.476001	0.658525	0.433717
O13	O	1.250461	0.245972	-0.066284
O14	O	1.750461	0.745972	0.433716
Zn15	Zn	1.113228	0.202248	-0.087333
Zn16	Zn	1.613228	0.702248	0.412667
Zn17	Zn	1.113250	0.202253	0.087343
Zn18	Zn	1.613250	0.702253	0.587343
O19	O	1.105477	0.089940	-0.066276
O20	O	1.605477	0.589940	0.433724
C21	C	0.940893	0.149378	0.000006
C22	C	1.440893	0.649378	0.500006
C23	C	0.836257	0.122125	0.000006
C24	C	1.336257	0.622125	0.500006
N25	N	1.113221	0.202246	-0.206544
N26	N	1.613221	0.702246	0.293456
C27	C	1.120438	0.342603	-0.000002
C28	C	1.620438	0.842603	0.499998
C29	C	1.118771	0.426166	-0.000002
C30	C	1.618771	0.926166	0.499998
C31	C	0.549086	0.392872	0.000001
C32	C	1.049086	0.892872	0.500001
C33	C	0.450762	0.367245	0.000004
C34	C	0.950762	0.867245	0.500004
C35	C	0.427989	0.223099	0.000012
C36	C	0.927989	0.723099	0.500012
C37	C	0.526313	0.248714	0.000006
C38	C	1.026313	0.748714	0.500006
C39	C	0.586855	0.333602	0.000002
C40	C	1.086855	0.833602	0.500002
C41	C	0.564082	0.189444	0.000007
C42	C	1.064082	0.689444	0.500007
C43	C	0.662398	0.215057	0.000005
C44	C	1.162398	0.715057	0.500005
C45	C	0.722945	0.299940	0.000003
C46	C	1.222945	0.799940	0.500003
C47	C	0.685171	0.359215	-0.000000
C48	C	1.185171	0.859215	0.500000
C49	C	0.503539	0.104556	0.000017
C50	C	1.003539	0.604556	0.500017
C51	C	0.541308	0.045286	0.000017
C52	C	1.041308	0.545286	0.500017
C53	C	0.639625	0.070899	0.000010
C54	C	1.139625	0.570899	0.500010
C55	C	0.700173	0.155782	0.000007
C56	C	1.200173	0.655782	0.500007
C57	C	0.677400	0.011624	0.000012
C58	C	1.177400	0.511624	0.500012
C59	C	0.775716	0.037238	0.000011
C60	C	1.275716	0.537238	0.500011
C61	C	0.798489	0.181396	0.000006
C62	C	1.298489	0.681396	0.500006
C63	C	1.285585	0.255123	0.000006
C64	C	1.785585	0.755123	0.500006
C65	C	1.390221	0.282375	0.000011
C66	C	1.890221	0.782375	0.500011
C67	C	1.106041	0.061897	0.000014
C68	C	1.606041	0.561897	0.500014
C69	C	1.107708	-0.021665	0.000020
C70	C	1.607708	0.478335	0.500020
C71	C	1.203873	0.498041	-0.000004
C72	C	1.703873	0.998041	0.499996
C73	C	1.202301	0.576554	0.000003
C74	C	1.702301	1.076554	0.500003
C75	C	1.115626	0.583192	0.000006
C76	C	1.615626	1.083192	0.500006
C77	C	1.030517	0.511309	0.000010
C78	C	1.530517	1.011309	0.500010
C79	C	1.032090	0.432797	0.000008
C80	C	1.532090	0.932797	0.500008
C81	C	1.024171	0.827938	0.000016
C82	C	1.524171	1.327938	0.500016
C83	C	1.022605	0.906458	0.000015
C84	C	1.522605	1.406458	0.500015
C85	C	1.194382	0.971696	0.000011
C86	C	1.694382	1.471696	0.500011
C87	C	1.195955	0.893184	0.000010
C88	C	1.695955	1.393184	0.500010
C89	C	1.110847	0.821308	0.000018
C90	C	1.610847	1.321308	0.500018
C91	C	1.112552	0.736175	0.000012
C92	C	1.612552	1.236175	0.500012
C93	C	1.113919	0.668323	0.000006
C94	C	1.613919	1.168323	0.500006
C95	C	1.170278	0.171988	-0.248255
C96	C	1.670278	0.671988	0.251745
C97	C	1.170289	0.171994	-0.331707
C98	C	1.670289	0.671994	0.168293
C99	C	1.113236	0.202253	-0.373447
C100	C	1.613236	0.702253	0.126553
C101	C	1.056176	0.232515	-0.331730
C102	C	1.556176	0.732515	0.168270
C103	C	1.056171	0.232514	-0.248279
C104	C	1.556171	0.732514	0.251721
C105	C	1.056195	0.232519	-0.668277
C106	C	1.556195	0.732519	-0.168277
C107	C	1.056202	0.232515	-0.751734
C108	C	1.556202	0.732515	-0.251734
C109	C	1.170313	0.171999	-0.751705
C110	C	1.670313	0.671999	-0.251705
C111	C	1.170308	0.171998	-0.668254
C112	C	1.670308	0.671998	-0.168254
C113	C	1.113252	0.202265	-0.626545
C114	C	1.613252	0.702265	-0.126545
C115	C	1.113243	0.202259	-0.536056
C116	C	1.613243	0.702259	-0.036056
C117	C	1.113239	0.202253	-0.463934
C118	C	1.613239	0.702253	0.036066
N119	N	1.113265	0.202263	0.206554
N120	N	1.613265	0.702263	0.706554
H121	H	0.803000	0.320793	0.000012
H122	H	1.303000	0.820793	0.500012
C123	C	0.927260	0.913761	0.000025
C124	C	1.427260	1.413761	0.500025
H125	H	0.938516	0.970815	0.000016
H126	H	1.438516	1.470815	0.500016
H127	H	0.892236	0.887494	0.046260
H128	H	1.392236	1.387494	0.546260
H129	H	0.892216	0.887491	-0.046210
H130	H	1.392216	1.387491	0.453790
C131	C	0.865094	0.274770	-0.000008
C132	C	1.365094	0.774770	0.499992
H133	H	0.929055	0.281532	-0.000014
H134	H	1.429055	0.781532	0.499986
H135	H	0.853672	0.300198	0.046220
H136	H	1.353672	0.800198	0.546220
H137	H	0.853654	0.300181	-0.046251
H138	H	1.353654	0.800181	0.453749
H139	H	0.734468	0.428339	-0.000009
H140	H	1.234468	0.928339	0.499991
H141	H	0.598383	0.461996	-0.000007
H142	H	1.098383	0.961996	0.499993
C143	C	1.233043	0.138708	-0.202348
C144	C	1.733043	0.638708	0.297652
H145	H	1.267033	0.120698	-0.239145
H146	H	1.767033	0.620698	0.260855
H147	H	1.194341	0.093260	-0.169793
H148	H	1.694341	0.593260	0.330207
H149	H	1.276495	0.181650	-0.169795
H150	H	1.776495	0.681650	0.330205
C151	C	0.993403	0.265791	-0.202394
C152	C	1.493403	0.765791	0.297606
H153	H	1.001577	0.261464	-0.146716
H154	H	1.501577	0.761464	0.353284
H155	H	0.928881	0.234034	-0.216077
H156	H	1.428881	0.734034	0.283923
H157	H	1.011045	0.322419	-0.216072
H158	H	1.511045	0.822419	0.283928
H159	H	0.492002	-0.023830	0.000024
H160	H	0.992002	0.476170	0.500024
H161	H	0.420016	0.415517	0.000005
H162	H	0.920016	0.915517	0.500005
H163	H	1.271600	0.635075	0.000000
H164	H	1.771600	1.135075	0.500000
H165	H	0.628093	-0.057491	0.000024
H166	H	1.128093	0.442509	0.500024
C167	C	1.233049	0.138706	-0.377585
C168	C	1.733049	0.638706	0.122415
H169	H	1.267017	0.120676	-0.340775
H170	H	1.767017	0.620676	0.159225
H171	H	1.276506	0.181637	-0.410136
H172	H	1.776506	0.681637	0.089864
H173	H	1.194336	0.093255	-0.410141
H174	H	1.694336	0.593255	0.089859
C175	C	1.233070	0.138718	-0.622344
C176	C	1.733070	0.638718	-0.122344
H177	H	1.267061	0.120705	-0.659138
H178	H	1.767061	0.620705	-0.159138
H179	H	1.194365	0.093270	-0.589789
H180	H	1.694365	0.593270	-0.089789
H181	H	1.276522	0.181660	-0.589791
H182	H	1.776522	0.681660	-0.089791
C183	C	0.361390	0.129729	0.000013
C184	C	0.861390	0.629729	0.500013
H185	H	0.297426	0.122962	0.000008
H186	H	0.797426	0.622962	0.500008
H187	H	0.372830	0.104306	0.046242
H188	H	0.872830	0.604306	0.546242
H189	H	0.372818	0.104318	-0.046229
H190	H	0.872818	0.604318	0.453771
C191	C	0.993426	0.265801	-0.622407
C192	C	1.493426	0.765801	-0.122407
H193	H	0.959441	0.283811	-0.659220
H194	H	1.459441	0.783811	-0.159220
H195	H	1.032126	0.311250	-0.589851
H196	H	1.532126	0.811250	-0.089851
H197	H	0.949968	0.222861	-0.589858
H198	H	1.449968	0.722861	-0.089858
H199	H	0.954870	0.769424	0.000023
H200	H	1.454870	1.269424	0.500023
H201	H	1.009740	0.257158	-0.785716
H202	H	1.509740	0.757158	-0.285716
C203	C	1.233083	0.138716	-0.797587
C204	C	1.733083	0.638716	-0.297587
H205	H	1.224926	0.143056	-0.853265
H206	H	1.724926	0.643056	-0.353265
H207	H	1.215446	0.082093	-0.783908
H208	H	1.715446	0.582093	-0.283908
H209	H	1.297609	0.170478	-0.783900
H210	H	1.797609	0.670478	-0.283900
H211	H	0.959944	0.516719	0.000017
H212	H	1.459944	1.016719	0.500017
H213	H	0.962790	0.374274	0.000010
H214	H	1.462790	0.874274	0.500010
H215	H	1.009727	0.257157	-0.365721
H216	H	1.509727	0.757157	0.134279
H217	H	0.806467	-0.011026	0.000004
H218	H	1.306467	0.488974	0.500004
C219	C	1.299217	0.490747	-0.000007
C220	C	1.799217	0.990747	0.499993
H221	H	1.349675	0.544800	0.000001
H222	H	1.849675	1.044800	0.500001
H223	H	1.303399	0.461478	-0.046239
H224	H	1.803399	0.961478	0.453761
H225	H	1.303406	0.461475	0.046231
H226	H	1.803406	0.961475	0.546231
H227	H	0.423484	0.083705	0.000021
H228	H	0.923484	0.583705	0.500021
H229	H	1.266535	0.887787	0.000003
H230	H	1.766535	1.387787	0.500003
H231	H	1.263682	1.030228	0.000008
H232	H	1.763682	1.530228	0.500008
