data_functionalizedCrystal
_audit_creation_method	'MofGen! by Chris Wilmer'
_symmetry_space_group_name_H-M	'P1'
_symmetry_Int_Tables_number	1
_symmetry_cell_setting	triclinic
loop_
_symmetry_equiv_pos_as_xyz
  x,y,z
_cell_length_a	19.188905
_cell_length_b	19.188930
_cell_length_c	11.295483
_cell_angle_alpha	94.076039
_cell_angle_beta	85.901908
_cell_angle_gamma	83.139668
loop_
_atom_site_label
_atom_site_type_symbol
_atom_site_fract_x
_atom_site_fract_y
_atom_site_fract_z
O1	O	0.930883	0.082358	-0.099235
O2	O	1.264217	0.415691	0.234099
O3	O	1.597550	0.749024	0.567432
O4	O	0.727568	0.094112	-0.099196
O5	O	1.060901	0.427445	0.234138
O6	O	1.394234	0.760779	0.567471
O7	O	0.835092	-0.013420	-0.099193
O8	O	1.168425	0.319913	0.234140
O9	O	1.501758	0.653246	0.567474
O10	O	0.823359	0.189890	-0.099237
O11	O	1.156693	0.523223	0.234096
O12	O	1.490026	0.856557	0.567429
O13	O	0.825648	-0.003990	0.098857
O14	O	1.158981	0.329343	0.432191
O15	O	1.492314	0.662677	0.765524
O16	O	0.718124	0.103542	0.098855
O17	O	1.051457	0.436876	0.432188
O18	O	1.384790	0.770209	0.765521
O19	O	0.921439	0.091788	0.098816
O20	O	1.254773	0.425121	0.432149
O21	O	1.588106	0.758455	0.765483
Cu22	Cu	0.818919	0.098526	0.116919
Cu23	Cu	1.152253	0.431859	0.450252
Cu24	Cu	1.485586	0.765193	0.783586
Cu25	Cu	0.830088	0.087374	-0.117299
Cu26	Cu	1.163421	0.420707	0.216035
Cu27	Cu	1.496754	0.754040	0.549368
O28	O	0.813915	0.199320	0.098813
O29	O	1.147249	0.532654	0.432147
O30	O	1.480582	0.865987	0.765480
C31	C	0.696834	0.098450	-0.000165
C32	C	1.030167	0.431783	0.333168
C33	C	1.363501	0.765116	0.666501
C34	C	0.619328	0.097317	-0.000149
C35	C	0.952661	0.430650	0.333184
C36	C	1.285995	0.763983	0.666517
C37	C	0.588084	0.091632	-0.108110
C38	C	0.921418	0.424965	0.225224
C39	C	1.254751	0.758298	0.558557
C40	C	0.515261	0.090558	-0.108124
C41	C	0.848595	0.423891	0.225209
C42	C	1.181928	0.757225	0.558542
C43	C	0.473686	0.095156	-0.000172
C44	C	0.807020	0.428489	0.333161
C45	C	1.140353	0.761822	0.666494
C46	C	0.504938	0.100845	0.107802
C47	C	0.838271	0.434179	0.441136
C48	C	1.171604	0.767512	0.774469
C49	C	0.577758	0.101926	0.107814
C50	C	0.911092	0.435259	0.441147
C51	C	1.244425	0.768593	0.774480
N52	N	0.360835	0.057553	0.080175
N53	N	0.694168	0.390886	0.413508
N54	N	1.027501	0.724219	0.746841
N55	N	0.291659	0.056524	0.080157
N56	N	0.624992	0.389858	0.413490
N57	N	0.958325	0.723191	0.746823
C58	C	0.254281	0.091902	-0.000200
C59	C	0.587614	0.425235	0.333133
C60	C	0.920948	0.758568	0.666466
N61	N	0.288695	0.128336	-0.080557
N62	N	0.622028	0.461670	0.252777
N63	N	0.955362	0.795003	0.586110
N64	N	0.357878	0.129362	-0.080542
N65	N	0.691211	0.462695	0.252792
N66	N	1.024545	0.796028	0.586125
C67	C	0.394724	0.093985	-0.000173
C68	C	0.728057	0.427318	0.333161
C69	C	1.061391	0.760652	0.666494
C70	C	0.144075	0.085053	-0.108184
C71	C	0.477408	0.418386	0.225149
C72	C	0.810741	0.751720	0.558483
C73	C	0.071250	0.083984	-0.108194
C74	C	0.404583	0.417317	0.225139
C75	C	0.737916	0.750650	0.558473
C76	C	0.060928	0.094264	0.107736
C77	C	0.394262	0.427598	0.441069
C78	C	0.727595	0.760931	0.774402
C79	C	0.133751	0.095340	0.107743
C80	C	0.467084	0.428674	0.441076
C81	C	0.800418	0.762007	0.774409
C82	C	0.175321	0.090731	-0.000221
C83	C	0.508654	0.424064	0.333113
C84	C	0.841987	0.757398	0.666446
C85	C	0.829989	-0.034716	-0.000164
C86	C	1.163323	0.298617	0.333169
C87	C	1.496656	0.631951	0.666502
C88	C	0.828848	-0.112220	-0.000154
C89	C	1.162182	0.221113	0.333179
C90	C	1.495515	0.554447	0.666513
C91	C	0.891940	-0.157150	-0.000160
C92	C	1.225273	0.176184	0.333173
C93	C	1.558607	0.509517	0.666506
C94	C	0.890869	-0.229974	-0.000179
C95	C	1.224203	0.103359	0.333154
C96	C	1.557536	0.436692	0.666488
C97	C	0.826702	-0.257865	-0.000168
C98	C	1.160035	0.075469	0.333166
C99	C	1.493369	0.408802	0.666499
C100	C	0.763602	-0.212925	-0.000168
C101	C	1.096935	0.120408	0.333165
C102	C	1.430269	0.453741	0.666499
C103	C	0.764675	-0.140103	-0.000161
C104	C	1.098009	0.193231	0.333172
C105	C	1.431342	0.526564	0.666506
N106	N	0.774440	-0.362655	0.067242
N107	N	1.107773	-0.029322	0.400575
N108	N	1.441106	0.304011	0.733909
N109	N	0.773424	-0.431834	0.067238
N110	N	1.106758	-0.098501	0.400571
N111	N	1.440091	0.234832	0.733905
C112	C	0.823465	-0.477274	-0.000191
C113	C	1.156798	-0.143941	0.333142
C114	C	1.490132	0.189393	0.666476
N115	N	0.874569	-0.450923	-0.067601
N116	N	1.207902	-0.117589	0.265732
N117	N	1.541236	0.215744	0.599065
N118	N	0.875586	-0.381738	-0.067592
N119	N	1.208919	-0.048404	0.265741
N120	N	1.542253	0.284929	0.599075
C121	C	0.825531	-0.336827	-0.000176
C122	C	1.158865	-0.003494	0.333157
C123	C	1.492198	0.329839	0.666491
C124	C	0.885400	-0.601169	-0.000220
C125	C	1.218734	-0.267836	0.333114
C126	C	1.552067	0.065497	0.666447
C127	C	0.884327	-0.673995	-0.000246
C128	C	1.217660	-0.340662	0.333087
C129	C	1.550994	-0.007329	0.666421
C130	C	0.757057	-0.656944	-0.000223
C131	C	1.090391	-0.323611	0.333110
C132	C	1.423724	0.009723	0.666444
C133	C	0.758133	-0.584120	-0.000209
C134	C	1.091466	-0.250787	0.333125
C135	C	1.424800	0.082546	0.666458
C136	C	0.822306	-0.556237	-0.000201
C137	C	1.155639	-0.222904	0.333132
C138	C	1.488973	0.110429	0.666465
C139	C	0.952173	0.087450	-0.000217
C140	C	1.285506	0.420783	0.333116
C141	C	1.618840	0.754117	0.666449
C142	C	1.029680	0.088583	-0.000241
C143	C	1.363013	0.421916	0.333092
C144	C	1.696346	0.755249	0.666426
C145	C	0.819018	0.220616	-0.000218
C146	C	1.152351	0.553949	0.333115
C147	C	1.485684	0.887282	0.666448
C148	C	0.820159	0.298119	-0.000237
C149	C	1.153493	0.631453	0.333097
C150	C	1.486826	0.964786	0.666430
N151	N	0.811069	0.106370	0.281655
N152	N	1.144402	0.439703	0.614988
N153	N	1.477736	0.773036	0.948322
N154	N	0.837944	0.079525	-0.282035
N155	N	1.171277	0.412858	0.051298
N156	N	1.504610	0.746191	0.384632
C157	C	0.894455	0.023023	0.530947
C158	C	1.227788	0.356357	0.864280
C159	C	1.561122	0.689690	1.197613
C160	C	0.888527	0.028956	0.655610
C161	C	1.221861	0.362289	0.988943
C162	C	1.555194	0.695622	1.322277
C163	C	0.793283	0.124163	0.655648
C164	C	1.126616	0.457496	0.988981
C165	C	1.459950	0.790830	1.322314
C166	C	0.799211	0.118231	0.530984
C167	C	1.132544	0.451564	0.864318
C168	C	1.465877	0.784897	1.197651
C169	C	0.849799	0.067660	0.468638
C170	C	1.183132	0.400993	0.801971
C171	C	1.516466	0.734327	1.135305
C172	C	0.855729	0.061731	0.343972
C173	C	1.189063	0.395065	0.677306
C174	C	1.522396	0.728398	1.010639
C175	C	0.760482	0.156935	0.344012
C176	C	1.093816	0.490268	0.677346
C177	C	1.427149	0.823602	1.010679
C178	C	0.754555	0.162867	0.468676
C179	C	1.087888	0.496201	0.802009
C180	C	1.421221	0.829534	1.135342
H181	H	0.027078	0.098012	0.195632
H182	H	0.360411	0.431346	0.528966
H183	H	0.693745	0.764679	0.862299
H184	H	0.935707	-0.710578	-0.000258
H185	H	1.269040	-0.377244	0.333076
H186	H	1.602373	-0.043911	0.666409
H187	H	0.944195	-0.134453	-0.000158
H188	H	1.277528	0.198880	0.333175
H189	H	1.610862	0.532214	0.666508
H190	H	0.924890	-0.007393	0.706338
H191	H	1.258223	0.325941	1.039672
H192	H	1.591556	0.659274	1.373005
H193	H	0.159190	0.099965	0.195656
H194	H	0.492523	0.433299	0.528989
H195	H	0.825857	0.766632	0.862322
H196	H	0.706756	-0.547537	-0.000197
H197	H	1.040090	-0.214203	0.333137
H198	H	1.373423	0.119130	0.666470
H199	H	0.935650	-0.018149	0.480183
H200	H	1.268984	0.315184	0.813517
H201	H	1.602317	0.648518	1.146850
H202	H	0.752091	0.165332	0.706426
H203	H	1.085424	0.498665	1.039760
H204	H	1.418757	0.831999	1.373093
H205	H	0.603196	0.106556	0.195731
H206	H	0.936529	0.439890	0.529064
H207	H	1.269863	0.773223	0.862398
H208	H	0.713296	-0.103520	-0.000156
H209	H	1.046630	0.229813	0.333178
H210	H	1.379963	0.563147	0.666511
H211	H	0.937654	-0.578466	-0.000219
H212	H	1.270987	-0.245133	0.333114
H213	H	1.604321	0.088200	0.666447
H214	H	0.713365	0.204040	0.519452
H215	H	1.046698	0.537373	0.852786
H216	H	1.380032	0.870706	1.186119
H217	H	0.471083	0.104591	0.195698
H218	H	0.804416	0.437924	0.529031
H219	H	1.137749	0.771257	0.862364
F220	F	0.712958	0.204446	0.277687
F221	F	1.046291	0.537779	0.611020
F222	F	1.379624	0.871113	0.944354
H223	H	0.704811	-0.679652	-0.000219
H224	H	1.038145	-0.346318	0.333114
H225	H	1.371478	-0.012985	0.666447
H226	H	0.621926	0.087878	-0.196022
H227	H	0.955259	0.421212	0.137312
H228	H	1.288593	0.754545	0.470645
H229	H	0.489817	0.085929	-0.196041
H230	H	0.823151	0.419263	0.137292
H231	H	1.156484	0.752596	0.470625
H232	H	0.177921	0.081307	-0.196094
H233	H	0.511255	0.414640	0.137239
H234	H	0.844588	0.747974	0.470573
F235	F	0.695311	-0.242609	-0.000164
F236	F	1.028644	0.090724	0.333170
F237	F	1.361978	0.424057	0.666503
F238	F	0.037998	0.077938	-0.223107
F239	F	0.371331	0.411271	0.110227
F240	F	0.704664	0.744605	0.443560
H241	H	0.896923	0.020556	0.293211
H242	H	1.230256	0.353889	0.626544
H243	H	1.563589	0.687223	0.959878
F244	F	0.958023	-0.277801	-0.000188
F245	F	1.291356	0.055532	0.333146
F246	F	1.624690	0.388866	0.666479
