data_functionalizedCrystal
_audit_creation_method	'MofGen! by Chris Wilmer'
_symmetry_space_group_name_H-M	'P1'
_symmetry_Int_Tables_number	1
_symmetry_cell_setting	triclinic
loop_
_symmetry_equiv_pos_as_xyz
  x,y,z
_cell_length_a	12.759401
_cell_length_b	12.759400
_cell_length_c	12.759393
_cell_angle_alpha	89.968385
_cell_angle_beta	89.980163
_cell_angle_gamma	90.016209
loop_
_atom_site_label
_atom_site_type_symbol
_atom_site_fract_x
_atom_site_fract_y
_atom_site_fract_z
Zn1	Zn	1.606255	-0.418161	-0.594020
Zn2	Zn	1.606150	-0.593880	-0.418340
Zn3	Zn	1.430557	-0.418220	-0.418355
Zn4	Zn	1.430546	-0.593803	-0.593978
O5	O	1.518377	-0.506016	-0.506173
O6	O	1.753262	-0.441478	-0.570727
O7	O	1.582818	-0.570635	-0.271321
O8	O	1.453913	-0.271191	-0.441682
O9	O	1.753185	-0.570578	-0.441656
O10	O	1.582997	-0.271148	-0.570742
O11	O	1.453811	-0.441579	-0.271332
O12	O	1.283535	-0.441505	-0.441640
O13	O	1.453893	-0.570447	-0.741004
O14	O	1.283526	-0.570504	-0.570669
O15	O	1.582986	-0.441403	-0.741036
O16	O	1.582806	-0.740891	-0.441615
O17	O	1.453791	-0.740834	-0.570655
C18	C	1.245410	-0.506003	-0.506152
C19	C	1.128633	-0.506023	-0.506168
C20	C	1.073794	-0.573296	-0.573248
C21	C	0.964070	-0.573300	-0.573269
C22	C	0.964033	-0.438756	-0.439122
C23	C	1.073755	-0.438747	-0.439107
C24	C	1.518315	-0.778984	-0.506151
C25	C	1.518384	-0.895760	-0.506177
C26	C	1.585637	-0.950617	-0.439060
C27	C	1.585701	-1.060341	-0.439093
C28	C	1.451251	-1.060342	-0.573362
C29	C	1.451193	-0.950620	-0.573334
C30	C	1.652828	-0.895757	-0.371904
C31	C	1.720086	-0.950613	-0.304781
C32	C	1.720150	-1.060338	-0.304813
C33	C	1.652957	-1.115205	-0.371969
C34	C	1.792410	-0.506030	-0.506195
C35	C	1.909187	-0.506036	-0.506204
C36	C	1.518450	-0.505910	-0.780207
C37	C	1.518482	-0.505865	-0.896984
C38	C	1.518468	-0.231983	-0.506218
C39	C	1.518507	-0.115206	-0.506238
C40	C	1.451332	-0.438653	-0.951851
C41	C	1.451356	-0.438620	-1.061575
C42	C	1.585689	-0.573015	-1.061555
C43	C	1.585659	-0.573052	-0.951833
C44	C	1.518364	-0.506046	-0.233206
C45	C	1.518537	-0.505796	-0.116430
H46	H	1.118406	-0.383959	-0.384482
O47	O	1.127056	-0.638525	-0.638547
C48	C	1.100278	-0.615701	-0.743300
H49	H	1.070137	-0.531777	-0.748749
H50	H	1.172458	-0.624805	-0.795181
H51	H	1.036590	-0.672064	-0.770675
O52	O	1.386016	-0.897274	-0.638639
C53	C	1.445771	-0.833685	-0.706507
H54	H	1.528528	-0.866687	-0.713077
H55	H	1.407733	-0.832394	-0.787329
H56	H	1.449371	-0.750555	-0.673998
H57	H	1.653023	-1.204550	-0.371998
H58	H	1.640383	-0.627715	-1.106226
O59	O	1.386013	-1.113800	-0.638487
C60	C	1.400503	-1.222406	-0.624136
H61	H	1.434965	-1.237426	-0.543091
H62	H	1.321826	-1.264166	-0.631201
H63	H	1.456435	-1.253449	-0.686511
O64	O	1.650992	-0.638379	-0.898690
C65	C	1.710278	-0.697684	-0.970627
H66	H	1.713960	-0.654627	-1.048851
H67	H	1.793040	-0.708911	-0.938922
H68	H	1.671777	-0.777469	-0.982277
H69	H	0.919425	-0.628078	-0.627893
H70	H	1.396631	-0.383945	-0.907196
O71	O	0.910561	-0.373508	-0.374013
C72	C	0.801957	-0.387920	-0.388427
H73	H	0.786970	-0.469044	-0.422691
H74	H	0.760220	-0.380697	-0.309750
H75	H	0.770862	-0.325675	-0.444493
H76	H	1.396675	-0.383891	-1.106243
H77	H	1.652780	-0.806414	-0.371867
O78	O	1.785204	-0.897273	-0.239440
C79	C	1.725388	-0.833895	-0.171530
H80	H	1.642664	-0.867039	-0.164979
H81	H	1.763427	-0.832685	-0.090708
H82	H	1.721703	-0.750715	-0.203986
H83	H	1.774922	-1.104999	-0.250166
