data_functionalizedCrystal
_audit_creation_method	'MofGen! by Chris Wilmer'
_symmetry_space_group_name_H-M	'P1'
_symmetry_Int_Tables_number	1
_symmetry_cell_setting	triclinic
loop_
_symmetry_equiv_pos_as_xyz
  x,y,z
_cell_length_a	13.635800
_cell_length_b	15.866870
_cell_length_c	19.551833
_cell_angle_alpha	66.862825
_cell_angle_beta	78.336523
_cell_angle_gamma	102.655915
loop_
_atom_site_label
_atom_site_type_symbol
_atom_site_fract_x
_atom_site_fract_y
_atom_site_fract_z
V1	V	-2.014401	-0.133799	0.252320
O2	O	-1.996669	0.005394	0.212321
O3	O	-2.001183	-0.264306	0.284443
O4	O	-1.985613	-0.132196	0.346922
O5	O	-2.012347	-0.127631	0.149410
V6	V	-2.255386	-0.117096	0.235899
O7	O	-2.146732	-0.170438	0.288340
O8	O	-2.348153	-0.080457	0.199879
O9	O	-2.157001	0.013410	0.203775
O10	O	-2.331816	-0.256290	0.275897
O11	O	-2.316139	-0.123265	0.338808
O12	O	-2.172571	-0.118700	0.141297
V13	V	-1.514401	-0.133799	0.252320
O14	O	-1.496669	0.005394	0.212321
O15	O	-1.501183	-0.264306	0.284443
O16	O	-1.485613	-0.132196	0.346922
O17	O	-1.512347	-0.127631	0.149410
V18	V	-1.755386	-0.117096	0.235899
O19	O	-1.646732	-0.170438	0.288340
O20	O	-1.848153	-0.080457	0.199879
O21	O	-1.657001	0.013410	0.203775
O22	O	-1.831816	-0.256290	0.275897
O23	O	-1.816139	-0.123265	0.338808
O24	O	-1.672571	-0.118700	0.141297
C25	C	-1.926503	-0.296106	0.289197
C26	C	-1.956309	-0.402800	0.316092
C27	C	-1.962858	-0.683733	0.066614
C28	C	-1.990868	-0.783993	0.091910
C29	C	-2.027459	-0.811969	0.227087
C30	C	-1.999446	-0.711709	0.201802
C31	C	-1.967148	-0.647599	0.121565
C32	C	-2.003736	-0.675575	0.256753
C33	C	-1.975731	-0.575325	0.231470
C34	C	-1.943436	-0.511208	0.151236
C35	C	-1.939143	-0.547348	0.096282
C36	C	-2.036041	-0.739688	0.336990
C37	C	-2.040332	-0.703554	0.391940
C38	C	-2.012319	-0.603301	0.366658
C39	C	-1.980024	-0.539185	0.286424
C40	C	-2.016612	-0.567161	0.421612
C41	C	-1.988607	-0.466910	0.396329
C42	C	-1.952018	-0.438934	0.261142
C43	C	-1.906642	-0.127585	0.368894
C44	C	-1.923819	-0.127138	0.446454
C45	C	-2.063352	0.045205	0.199021
C46	C	-2.023166	0.151898	0.172130
C47	C	-2.083213	-0.123314	0.119322
C48	C	-2.055655	-0.123757	0.041760
C49	C	-1.426503	-0.296106	0.289197
C50	C	-1.456309	-0.402800	0.316092
C51	C	-1.406642	-0.127585	0.368894
C52	C	-1.423819	-0.127138	0.446454
C53	C	-2.023181	-0.131745	0.487688
C54	C	-2.039321	-0.131324	0.560564
C55	C	-1.956099	-0.126316	0.592210
C56	C	-1.856722	-0.121702	0.550965
C57	C	-1.840582	-0.122113	0.478087
C58	C	-1.929090	-0.178502	0.724963
C59	C	-1.945235	-0.178097	0.797843
C60	C	-2.005876	-0.125043	0.816989
C61	C	-2.050390	-0.072408	0.763253
C62	C	-2.034250	-0.072819	0.690375
C63	C	-1.973590	-0.125869	0.671234
C64	C	-2.122745	-0.129194	0.937244
C65	C	-2.138880	-0.128767	1.010119
C66	C	-1.956280	-0.119154	1.000522
C67	C	-1.940145	-0.119572	0.927645
C68	C	-2.023383	-0.124596	0.896012
C69	C	-1.563352	0.045205	0.199021
C70	C	-1.523166	0.151898	0.172130
C71	C	-1.583213	-0.123314	0.119322
C72	C	-1.555655	-0.123757	0.041760
C73	C	-1.561620	-0.457814	0.333478
C74	C	-1.589643	-0.558067	0.358761
C75	C	-1.512351	-0.603303	0.366651
C76	C	-1.407031	-0.548281	0.349265
C77	C	-1.379011	-0.448031	0.323989
C78	C	-1.523186	-0.131729	0.487675
C79	C	-1.539336	-0.131296	0.560547
C80	C	-1.456120	-0.126278	0.592199
C81	C	-1.356744	-0.121683	0.550971
C82	C	-1.340593	-0.122110	0.478098
C83	C	-1.590348	0.206912	0.154746
C84	C	-1.552597	0.307164	0.129467
C85	C	-1.447666	0.352400	0.121578
C86	C	-1.380479	0.297379	0.138962
C87	C	-1.418228	0.197129	0.164235
C88	C	-1.456639	-0.128764	0.010123
C89	C	-1.430726	-0.129168	-0.062758
C90	C	-1.503834	-0.124573	-0.104000
C91	C	-1.602858	-0.119563	-0.072360
C92	C	-1.628766	-0.119151	0.000518
H93	H	-1.925702	-0.386730	0.195804
C94	C	-2.214303	-0.134708	0.902441
N95	N	-2.283265	-0.138859	0.876228
H96	H	-1.607319	0.351948	0.115318
H97	H	-1.288995	-0.117598	0.576753
C98	C	-1.648659	-0.136357	0.605887
N99	N	-1.731002	-0.140169	0.640035
C100	C	-1.265054	0.347154	0.130280
N101	N	-1.178117	0.384647	0.123742
H102	H	-1.759665	-0.118354	0.444511
C103	C	-2.062975	-0.882500	0.315345
N104	N	-2.089717	-0.935623	0.381822
C105	C	-1.993324	-0.427160	0.456778
N106	N	-1.996881	-0.397221	0.502310
H107	H	-1.535180	-0.684934	0.387234
C108	C	-2.248187	-0.133825	1.055473
N109	N	-2.330520	-0.137634	1.089634
H110	H	-1.590957	-0.135818	0.461916
H111	H	-1.397097	-0.132505	0.043693
H112	H	-2.042922	-0.619375	0.486942
C113	C	-1.406153	0.462680	0.093768
N114	N	-1.374891	0.545745	0.072818
C115	C	-2.114742	-0.137255	0.452890
N116	N	-2.183704	-0.141400	0.426677
H117	H	-2.120238	-0.135081	0.594145
C118	C	-1.473904	-0.125810	0.672363
N119	N	-1.487305	-0.125460	0.732744
C120	C	-2.083201	-0.014910	0.631264
N121	N	-2.120067	0.028714	0.586739
C122	C	-1.646663	-0.408076	0.324809
N123	N	-1.710726	-0.370620	0.318287
C124	C	-1.705776	0.157174	0.163413
N125	N	-1.792718	0.119719	0.169934
C126	C	-1.683269	-0.114512	-0.117735
N127	N	-1.743835	-0.110713	-0.151911
C128	C	-1.344315	0.136622	0.183366
N129	N	-1.288637	0.091053	0.197775
H130	H	-1.936541	-0.631529	0.001276
C131	C	-1.737697	-0.113651	0.035313
N132	N	-1.819748	-0.109508	0.061516
H133	H	-1.344107	-0.585128	0.355694
H134	H	-1.293254	-0.403245	0.309830
H135	H	-1.675404	-0.602852	0.372911
H136	H	-1.259678	-0.118373	0.444541
H137	H	-1.920637	-0.429579	0.130653
H138	H	-1.350092	-0.133248	-0.088509
H139	H	-1.482730	-0.124921	-0.163336
H140	H	-1.912826	-0.495144	0.030944
C141	C	-2.117097	-0.014043	0.784307
N142	N	-2.167342	0.029915	0.800169
H143	H	-2.058845	-0.821317	0.357572
C144	C	-1.986140	-0.823734	0.031453
N145	N	-1.982580	-0.853668	-0.014083
H146	H	-1.888516	-0.115068	1.026284
H147	H	-2.066636	-0.755766	0.457270
H148	H	-1.859238	-0.115830	0.894075
H149	H	-1.908995	-0.220962	0.841593
H150	H	-1.788962	-0.117621	0.576735
C151	C	-1.862387	-0.236876	0.703915
N152	N	-1.812151	-0.280845	0.688063
