data_functionalizedCrystal
_audit_creation_method	'MofGen! by Chris Wilmer'
_symmetry_space_group_name_H-M	'P1'
_symmetry_Int_Tables_number	1
_symmetry_cell_setting	triclinic
loop_
_symmetry_equiv_pos_as_xyz
  x,y,z
_cell_length_a	25.639242
_cell_length_b	18.101395
_cell_length_c	18.101389
_cell_angle_alpha	90.016841
_cell_angle_beta	89.972230
_cell_angle_gamma	89.973368
loop_
_atom_site_label
_atom_site_type_symbol
_atom_site_fract_x
_atom_site_fract_y
_atom_site_fract_z
Zn1	Zn	0.799282	0.294996	-0.418915
Zn2	Zn	1.299282	0.794996	0.081085
Zn3	Zn	0.799208	0.418821	-0.295077
Zn4	Zn	1.299208	0.918821	0.204923
Zn5	Zn	0.711849	0.294988	-0.295069
Zn6	Zn	1.211849	0.794988	0.204931
Zn7	Zn	0.711815	0.418790	-0.418858
Zn8	Zn	1.211815	0.918790	0.081142
O9	O	0.755538	0.356899	-0.356980
O10	O	1.255538	0.856899	0.143020
O11	O	0.872437	0.311437	-0.402515
O12	O	1.372437	0.811437	0.097485
O13	O	0.787604	0.402405	-0.191443
O14	O	1.287604	0.902405	0.308557
O15	O	0.723493	0.191357	-0.311517
O16	O	1.223493	0.691357	0.188483
O17	O	0.872383	0.402412	-0.311531
O18	O	1.372383	0.902412	0.188469
O19	O	0.787729	0.191362	-0.402507
O20	O	1.287729	0.691362	0.097493
O21	O	0.723421	0.311425	-0.191437
O22	O	1.223421	0.811425	0.308563
O23	O	0.638679	0.311395	-0.311462
O24	O	1.138679	0.811395	0.188538
O25	O	0.723433	0.402358	-0.522498
O26	O	1.223433	0.902358	-0.022498
O27	O	0.638654	0.402352	-0.402410
O28	O	1.138654	0.902352	0.097590
O29	O	0.787695	0.311407	-0.522540
O30	O	1.287695	0.811407	-0.022540
O31	O	0.787570	0.522450	-0.311476
O32	O	1.287570	1.022450	0.188524
O33	O	0.723362	0.522427	-0.402418
O34	O	1.223362	1.022427	0.097582
C35	C	0.619696	0.356870	-0.356929
C36	C	1.119696	0.856870	0.143071
C37	C	0.561582	0.356875	-0.356925
C38	C	1.061582	0.856875	0.143075
C39	C	0.755468	0.549309	-0.356958
C40	C	1.255468	1.049309	0.143042
C41	C	0.755486	0.631624	-0.356973
C42	C	1.255486	1.131624	0.143027
C43	C	0.755569	0.356880	-0.550142
C44	C	1.255569	0.856880	-0.050142
C45	C	0.755581	0.356872	-0.632456
C46	C	1.255581	0.856872	-0.132456
C47	C	0.201214	0.404339	-0.404291
C48	C	0.701214	0.904339	0.095709
C49	C	0.146610	0.404344	-0.404303
C50	C	0.646610	0.904344	0.095697
O51	O	0.118369	0.444663	-0.444532
O52	O	0.618369	0.944663	0.055468
N53	N	0.119299	0.356919	-0.357028
N54	N	0.619299	0.856919	0.142972
C55	C	0.146596	0.309482	-0.309744
C56	C	0.646596	0.809482	0.190256
O57	O	0.118352	0.269144	-0.269534
O58	O	0.618352	0.769144	0.230466
C59	C	0.201199	0.309474	-0.309736
C60	C	0.701199	0.809474	0.190264
C61	C	0.228507	0.356907	-0.357009
C62	C	0.728507	0.856907	0.142991
C63	C	0.228522	0.451767	-0.451560
C64	C	0.728522	0.951767	0.048440
C65	C	0.283123	0.451764	-0.451547
C66	C	0.783123	0.951764	0.048453
C67	C	0.310415	0.404332	-0.404265
C68	C	0.810415	0.904332	0.095735
C69	C	0.283107	0.356903	-0.356996
C70	C	0.783107	0.856903	0.143004
C71	C	0.228495	0.262034	-0.262456
C72	C	0.728495	0.762034	0.237544
C73	C	0.283102	0.262030	-0.262453
C74	C	0.783102	0.762030	0.237547
C75	C	0.310409	0.309463	-0.309726
C76	C	0.810409	0.809463	0.190274
C77	C	0.365001	0.309467	-0.309701
C78	C	0.865001	0.809467	0.190299
N79	N	0.392311	0.356892	-0.356976
N80	N	0.892311	0.856892	0.143024
C81	C	0.365019	0.404324	-0.404258
C82	C	0.865019	0.904324	0.095742
C83	C	0.031925	0.309501	-0.309764
C84	C	0.531925	0.809501	0.190236
C85	C	-0.022677	0.309512	-0.309767
C86	C	0.477323	0.809512	0.190233
C87	C	-0.022659	0.404373	-0.404327
C88	C	0.477341	0.904373	0.095673
C89	C	0.031944	0.404365	-0.404320
C90	C	0.531944	0.904365	0.095680
C91	C	0.059236	0.356925	-0.357038
C92	C	0.559236	0.856925	0.142962
C93	C	0.479684	0.404313	-0.404227
C94	C	0.979684	0.904313	0.095773
C95	C	0.534289	0.404307	-0.404208
C96	C	1.034289	0.904307	0.095792
C97	C	0.534266	0.309444	-0.309650
C98	C	1.034266	0.809444	0.190350
C99	C	0.479666	0.309452	-0.309667
C100	C	0.979666	0.809452	0.190333
C101	C	0.452376	0.356889	-0.356961
C102	C	0.952376	0.856889	0.143039
O103	O	0.393276	0.269167	-0.269494
O104	O	0.893276	0.769167	0.230506
O105	O	0.393269	0.444648	-0.444467
O106	O	0.893269	0.944648	0.055533
C107	C	0.891911	0.356929	-0.357030
C108	C	1.391911	0.856929	0.142970
C109	C	0.950025	0.356941	-0.357052
C110	C	1.450025	0.856941	0.142948
C111	C	0.755623	0.163737	-0.357018
C112	C	1.255623	0.663737	0.142982
C113	C	0.755659	0.081423	-0.357034
C114	C	1.255659	0.581423	0.142966
C115	C	0.755601	0.930714	-0.357013
C116	C	1.255601	1.430714	0.142987
C117	C	0.715297	0.899406	-0.414373
C118	C	1.215297	1.399406	0.085627
C119	C	0.715105	0.813788	-0.414194
C120	C	1.215105	1.313788	0.085806
C121	C	0.755544	0.782332	-0.356994
C122	C	1.255544	1.282332	0.143006
C123	C	0.740627	0.813467	-0.278941
C124	C	1.240627	1.313467	0.221059
C125	C	0.740367	0.899113	-0.279284
C126	C	1.240367	1.399113	0.220716
C127	C	0.810911	0.899068	-0.377019
C128	C	1.310911	1.399068	0.122981
C129	C	0.810585	0.813417	-0.378730
C130	C	1.310585	1.313417	0.121270
C131	C	0.755513	0.698472	-0.356978
C132	C	1.255513	1.198472	0.143022
C133	C	0.755631	1.014574	-0.357023
C134	C	1.255631	1.514574	0.142977
C135	C	0.755612	0.356733	-0.931547
C136	C	1.255612	0.856733	-0.431547
C137	C	0.715041	0.413775	-0.900195
C138	C	1.215041	0.913775	-0.400195
C139	C	0.715151	0.414040	-0.814577
C140	C	1.215151	0.914040	-0.314577
C141	C	0.755596	0.356802	-0.783164
C142	C	1.255596	0.856802	-0.283164
C143	C	0.810683	0.377992	-0.814275
C144	C	1.310683	0.877992	-0.314275
C145	C	0.810456	0.378367	-0.899920
C146	C	1.310456	0.878367	-0.399920
C147	C	0.741576	0.278374	-0.899968
C148	C	1.241576	0.778374	-0.399968
C149	C	0.740350	0.278827	-0.814317
C150	C	1.240350	0.778827	-0.314317
C151	C	0.755591	0.356840	-0.699305
C152	C	1.255591	0.856840	-0.199305
C153	C	0.755621	0.356698	-1.015406
C154	C	1.255621	0.856698	-0.515406
C155	C	0.755538	0.356864	-0.164569
C156	C	1.255538	0.856864	0.335431
C157	C	0.755627	0.356663	-0.082255
C158	C	1.255627	0.856663	0.417745
H159	H	0.556521	0.442935	-0.442703
H160	H	1.056521	0.942935	0.057297
F161	F	0.777789	0.786838	-0.221554
F162	F	1.277789	1.286838	0.278446
H163	H	0.724537	0.919965	-0.472435
H164	H	1.224537	1.419965	0.027565
H165	H	-0.044891	0.442992	-0.442829
H166	H	0.455109	0.942992	0.057171
H167	H	0.700624	0.792075	-0.261692
H168	H	1.200624	1.292075	0.238308
H169	H	0.724216	0.471503	-0.921723
H170	H	1.224216	0.971503	-0.421723
H171	H	0.767744	0.234071	-0.792934
H172	H	1.267744	0.734071	-0.292934
H173	H	0.841709	0.338624	-0.920662
H174	H	1.341709	0.838624	-0.420662
F175	F	0.825290	0.786818	-0.453812
F176	F	1.325290	1.286818	0.046188
H177	H	0.841723	0.337751	-0.793931
H178	H	1.341723	0.837751	-0.293931
H179	H	0.305352	0.490387	-0.490043
H180	H	0.805352	0.990387	0.009957
F181	F	0.661759	0.396703	-0.787078
F182	F	1.161759	0.896703	-0.287078
H183	H	0.842202	0.792001	-0.339998
H184	H	1.342202	1.292001	0.160002
F185	F	0.450647	0.454801	-0.454563
F186	F	0.950647	0.954801	0.045437
F187	F	0.199483	0.502255	-0.501890
F188	F	0.699483	1.002255	-0.001890
H189	H	0.724438	0.792735	-0.472069
H190	H	1.224438	1.292735	0.027931
F191	F	0.450602	0.258980	-0.259343
F192	F	0.950602	0.758980	0.240657
F193	F	0.312144	0.211535	-0.212130
F194	F	0.812144	0.711535	0.287870
H195	H	0.822788	0.434665	-0.792836
H196	H	1.322788	0.934665	-0.292836
H197	H	-0.044907	0.270895	-0.271265
H198	H	0.455093	0.770895	0.228735
F199	F	0.687521	0.925303	-0.257136
F200	F	1.187521	1.425303	0.242864
H201	H	0.206270	0.223411	-0.223960
H202	H	0.706270	0.723411	0.276040
H203	H	0.702105	0.259070	-0.921550
H204	H	1.202105	0.759070	-0.421550
F205	F	0.850161	0.925542	-0.322422
F206	F	1.350161	1.425542	0.177578
H207	H	0.824511	0.920628	-0.432966
H208	H	1.324511	1.420628	0.067034
F209	F	0.061002	0.454848	-0.454634
F210	F	0.561002	0.954848	0.045366
H211	H	0.674069	0.400650	-0.920777
H212	H	1.174069	0.900650	-0.420777
F213	F	0.727288	0.489950	-0.787805
F214	F	1.227288	0.989950	-0.287805
F215	F	0.687360	0.257942	-0.787745
F216	F	1.187360	0.757942	-0.287745
H217	H	0.771126	0.235875	-0.920245
H218	H	1.271126	0.735875	-0.420245
H219	H	0.054143	0.270870	-0.271256
H220	H	0.554143	0.770870	0.228744
H221	H	0.556498	0.270828	-0.271152
H222	H	1.056498	0.770828	0.228848
F223	F	0.826009	0.453238	-0.926045
F224	F	1.326009	0.953238	-0.426045
H225	H	0.674549	0.920985	-0.401287
H226	H	1.174549	1.420985	0.098713
H227	H	0.674109	0.793358	-0.400941
H228	H	1.174109	1.293358	0.099059
H229	H	0.768449	0.919825	-0.235089
H230	H	1.268449	1.419825	0.264911
