data_functionalizedCrystal
_audit_creation_method	'MofGen! by Chris Wilmer'
_symmetry_space_group_name_H-M	'P1'
_symmetry_Int_Tables_number	1
_symmetry_cell_setting	triclinic
loop_
_symmetry_equiv_pos_as_xyz
  x,y,z
_cell_length_a	15.995350
_cell_length_b	15.995292
_cell_length_c	13.596369
_cell_angle_alpha	89.997204
_cell_angle_beta	89.998321
_cell_angle_gamma	83.480495
loop_
_atom_site_label
_atom_site_type_symbol
_atom_site_fract_x
_atom_site_fract_y
_atom_site_fract_z
O1	O	1.110964	0.107931	-0.081701
O2	O	0.867186	0.121259	-0.081720
O3	O	0.995764	-0.007296	-0.081712
O4	O	0.982386	0.236486	-0.081710
O5	O	0.995751	-0.007303	0.081871
O6	O	0.867173	0.121252	0.081863
O7	O	1.110951	0.107924	0.081882
Zn8	Zn	0.989060	0.114587	0.107845
Zn9	Zn	0.989077	0.114596	-0.107683
O10	O	0.982373	0.236479	0.081873
C11	C	0.835985	0.120704	0.000068
C12	C	0.743035	0.119053	0.000061
C13	C	0.405288	0.113120	0.000081
C14	C	0.452742	0.021566	0.000445
C15	C	0.549431	0.023218	0.000070
C16	C	0.572848	0.116063	0.000072
C17	C	0.531759	0.161224	-0.093338
C18	C	0.435124	0.158924	-0.093409
C19	C	0.434770	0.160808	0.092615
C20	C	0.531715	0.160787	0.093843
C21	C	0.667546	0.117731	0.000063
C22	C	0.310591	0.111455	0.000083
C23	C	0.995213	-0.038495	0.000077
C24	C	0.993581	-0.131448	0.000070
C25	C	0.987580	-0.469186	0.000078
C26	C	1.080384	-0.445874	0.000451
C27	C	1.082148	-0.349199	0.000079
C28	C	0.990557	-0.301631	0.000075
C29	C	0.944167	-0.330728	-0.093340
C30	C	0.943050	-0.427518	-0.093415
C31	C	0.941140	-0.427383	0.092610
C32	C	0.944579	-0.330891	0.093841
C33	C	0.992235	-0.206934	0.000069
C34	C	0.985899	-0.563882	0.000077
C35	C	1.142152	0.108479	0.000091
C36	C	1.235102	0.110130	0.000092
C37	C	0.982924	0.267678	0.000082
C38	C	0.984556	0.360631	0.000083
N39	N	0.989055	0.114580	0.254936
N40	N	0.989089	0.114596	-0.254775
C41	C	0.989076	0.114597	0.656227
C42	C	0.989067	0.114595	0.544576
C43	C	0.989066	0.114589	0.455585
C44	C	0.989056	0.114586	0.343927
H45	H	0.559033	0.127819	0.162947
H46	H	1.118705	-0.330791	-0.066996
C47	C	0.570098	0.118864	-0.187257
H48	H	0.544829	0.146645	-0.243392
H49	H	0.560142	0.061441	-0.188100
H50	H	0.628982	0.122386	-0.188225
H51	H	1.115961	-0.474889	-0.066159
C52	C	1.131239	-0.323497	0.090528
H53	H	1.150283	-0.372184	0.127830
H54	H	1.095510	-0.285705	0.130052
H55	H	1.178228	-0.296763	0.069498
H56	H	0.577863	-0.012281	0.067030
C57	C	0.986424	-0.463740	-0.187765
H58	H	1.004569	-0.419281	-0.225683
H59	H	0.947820	-0.491752	-0.225085
H60	H	1.033646	-0.502523	-0.170742
C61	C	0.552439	0.252254	0.101471
H62	H	0.526803	0.277704	0.158754
H63	H	0.531618	0.282791	0.044985
H64	H	0.611686	0.252695	0.105392
H65	H	0.877727	-0.297921	0.099479
H66	H	0.434222	-0.015034	0.067433
H67	H	1.116150	-0.473874	0.067443
C68	C	0.853122	-0.287673	-0.098055
H69	H	0.826234	-0.306160	-0.155085
H70	H	0.853620	-0.228391	-0.100858
H71	H	0.823337	-0.301920	-0.041133
C72	C	0.987624	-0.303524	-0.187251
H73	H	1.034041	-0.274456	-0.169731
H74	H	0.948661	-0.267456	-0.224954
H75	H	1.006977	-0.351854	-0.224997
H76	H	0.433161	-0.014860	-0.066173
C77	C	0.587087	-0.025044	-0.090550
H78	H	0.543281	-0.045731	-0.127283
H79	H	0.626068	-0.070868	-0.069726
H80	H	0.615132	0.011702	-0.130564
C81	C	0.391532	0.249723	-0.099143
H82	H	0.332233	0.248934	-0.099220
H83	H	0.408121	0.275526	-0.157835
H84	H	0.407343	0.280722	-0.043900
C85	C	0.851134	-0.447180	-0.099175
H86	H	0.814641	-0.396032	-0.101466
H87	H	0.838407	-0.478526	-0.042853
H88	H	0.843647	-0.479100	-0.156786
H89	H	0.970361	-0.455475	0.163417
H90	H	0.978358	-0.312328	0.162948
C91	C	0.410403	0.114436	-0.187732
H92	H	0.459398	0.097932	-0.225643
H93	H	0.372424	0.151846	-0.225078
H94	H	0.384151	0.066068	-0.170662
H95	H	0.872829	-0.441374	0.093236
H96	H	0.545870	0.229435	-0.096810
C97	C	0.407032	0.120373	0.188264
H98	H	0.377210	0.074022	0.172655
H99	H	0.371549	0.160775	0.224735
H100	H	0.455230	0.101355	0.226400
H101	H	0.402994	0.228311	0.093248
