data_functionalizedCrystal
_audit_creation_method	'MofGen! by Chris Wilmer'
_symmetry_space_group_name_H-M	'P1'
_symmetry_Int_Tables_number	1
_symmetry_cell_setting	triclinic
loop_
_symmetry_equiv_pos_as_xyz
  x,y,z
_cell_length_a	15.944551
_cell_length_b	15.944545
_cell_length_c	10.868271
_cell_angle_alpha	89.992762
_cell_angle_beta	90.000173
_cell_angle_gamma	83.497456
loop_
_atom_site_label
_atom_site_type_symbol
_atom_site_fract_x
_atom_site_fract_y
_atom_site_fract_z
O1	O	1.114521	0.108333	-0.102200
O2	O	1.614521	0.608333	0.397800
O3	O	0.869971	0.121689	-0.102231
O4	O	1.369971	0.621689	0.397769
O5	O	0.998927	-0.007264	-0.102200
O6	O	1.498927	0.492736	0.397800
O7	O	0.985566	0.237286	-0.102231
O8	O	1.485566	0.737286	0.397769
O9	O	0.998917	-0.007269	0.102445
O10	O	1.498917	0.492731	0.602445
O11	O	0.869961	0.121684	0.102414
O12	O	1.369961	0.621684	0.602414
O13	O	1.114511	0.108328	0.102445
O14	O	1.614511	0.608328	0.602445
Zn15	Zn	0.992234	0.115005	0.134921
Zn16	Zn	1.492234	0.615005	0.634921
Zn17	Zn	0.992248	0.115012	-0.134707
Zn18	Zn	1.492248	0.615012	0.365293
O19	O	0.985555	0.237281	0.102414
O20	O	1.485555	0.737281	0.602414
C21	C	0.838672	0.121132	0.000087
C22	C	1.338672	0.621132	0.500087
C23	C	0.745426	0.119470	0.000076
C24	C	1.245426	0.619470	0.500076
C25	C	0.998368	-0.038561	0.000123
C26	C	1.498368	0.461439	0.500123
C27	C	0.996708	-0.131807	0.000127
C28	C	1.496708	0.368193	0.500127
C29	C	0.530571	0.035565	0.000110
C30	C	1.030571	0.535565	0.500110
C31	C	0.469556	0.074530	-0.100795
C32	C	0.969556	0.574530	0.399205
C33	C	0.574700	0.116463	0.000091
C34	C	1.074700	0.616463	0.500091
C35	C	0.469567	0.074544	0.100968
C36	C	0.969567	0.574544	0.600968
C37	C	0.409788	0.113552	0.000111
C38	C	0.909788	0.613552	0.500111
C39	C	0.514913	0.155450	-0.100898
C40	C	1.014913	0.655450	0.399102
C41	C	0.514931	0.155453	0.100956
C42	C	1.014931	0.655453	0.600956
C43	C	0.453933	0.194476	0.000026
C44	C	0.953933	0.694476	0.500026
C45	C	0.669703	0.118137	0.000078
C46	C	1.169703	0.618137	0.500078
C47	C	0.314787	0.111884	0.000114
C48	C	0.814787	0.611884	0.500114
C49	C	0.911814	-0.402440	0.000091
C50	C	1.411814	0.097560	0.500091
C51	C	0.952749	-0.351852	-0.100805
C52	C	1.452749	0.148148	0.399195
C53	C	0.990787	-0.467451	0.000091
C54	C	1.490787	0.032549	0.500091
C55	C	0.952759	-0.351884	0.100959
C56	C	1.452759	0.148116	0.600959
C57	C	0.993692	-0.302537	0.000111
C58	C	1.493692	0.197463	0.500111
C59	C	1.031700	-0.418091	-0.100888
C60	C	1.531700	0.081909	0.399112
C61	C	1.031700	-0.418127	0.100966
C62	C	1.531700	0.081873	0.600966
C63	C	1.072692	-0.367571	0.000046
C64	C	1.572692	0.132429	0.500046
C65	C	0.989112	-0.562453	0.000079
C66	C	1.489112	-0.062453	0.500079
C67	C	0.995374	-0.207538	0.000114
C68	C	1.495374	0.292462	0.500114
C69	C	1.145810	0.108885	0.000124
C70	C	1.645810	0.608885	0.500124
C71	C	1.239056	0.110547	0.000127
C72	C	1.739056	0.610547	0.500127
C73	C	0.986114	0.268578	0.000088
C74	C	1.486114	0.768578	0.500088
C75	C	0.987774	0.361824	0.000076
C76	C	1.487774	0.861824	0.500076
N77	N	0.992231	0.115000	0.318935
N78	N	1.492231	0.615000	0.818935
N79	N	0.992258	0.115010	-0.318721
N80	N	1.492258	0.615010	0.181279
C81	C	0.992244	0.115010	0.569941
C82	C	1.492244	0.615010	1.069941
C83	C	0.992234	0.115007	0.430264
C84	C	1.492234	0.615007	0.930264
H85	H	0.563906	-0.031573	-0.000006
H86	H	1.063906	0.468427	0.499994
H87	H	1.140757	-0.352081	-0.000003
H88	H	1.640757	0.147919	0.499997
H89	H	0.449451	0.040316	-0.186095
H90	H	0.949451	0.540316	0.313905
H91	H	0.449478	0.040311	0.186273
H92	H	0.949478	0.540311	0.686273
H93	H	0.534904	0.189642	-0.186299
H94	H	1.034904	0.689642	0.313701
H95	H	0.420773	0.261684	-0.000039
H96	H	0.920773	0.761684	0.499961
H97	H	0.843802	-0.418092	-0.000016
H98	H	1.343802	0.081908	0.499984
H99	H	1.065018	-0.447078	0.186278
H100	H	1.565018	0.052922	0.686278
H101	H	0.919401	-0.322915	-0.186114
H102	H	1.419401	0.177085	0.313886
H103	H	1.065033	-0.446895	-0.186282
H104	H	1.565033	0.053105	0.313718
H105	H	0.919389	-0.322972	0.186256
H106	H	1.419389	0.177028	0.686256
H107	H	0.535057	0.189639	0.186260
H108	H	1.035057	0.689639	0.686260
