data_functionalizedCrystal
_audit_creation_method	'MofGen! by Chris Wilmer'
_symmetry_space_group_name_H-M	'P1'
_symmetry_Int_Tables_number	1
_symmetry_cell_setting	triclinic
loop_
_symmetry_equiv_pos_as_xyz
  x,y,z
_cell_length_a	14.853567
_cell_length_b	14.853567
_cell_length_c	13.930277
_cell_angle_alpha	90.000757
_cell_angle_beta	90.004245
_cell_angle_gamma	83.634930
loop_
_atom_site_label
_atom_site_type_symbol
_atom_site_fract_x
_atom_site_fract_y
_atom_site_fract_z
O1	O	-1.196368	-0.117704	-0.079756
O2	O	-0.933909	-0.131725	-0.079772
O3	O	-1.072149	0.006516	-0.079767
O4	O	-1.058128	-0.255944	-0.079762
O5	O	-1.072130	0.006519	0.079895
O6	O	-0.933890	-0.131722	0.079890
O7	O	-1.196349	-0.117701	0.079905
Zn8	Zn	-1.065116	-0.124711	0.105247
Zn9	Zn	-1.065142	-0.124715	-0.105114
O10	O	-1.058109	-0.255941	0.079900
C11	C	-1.071504	0.040106	0.000061
C12	C	-1.069601	0.140189	0.000053
C13	C	-0.900311	-0.131088	0.000057
C14	C	-0.800227	-0.129184	0.000051
C15	C	-1.229947	-0.118337	0.000075
C16	C	-1.330031	-0.120241	0.000075
C17	C	-0.387693	-0.039019	0.000070
C18	C	-0.366412	-0.203251	0.000073
C19	C	-0.460446	-0.205042	0.000070
C20	C	-0.518108	-0.123819	0.000066
C21	C	-0.481736	-0.040806	0.000065
C22	C	-0.496825	-0.288053	0.000061
C23	C	-0.590864	-0.289846	0.000057
C24	C	-0.648528	-0.208623	0.000060
C25	C	-0.612150	-0.125607	0.000060
C26	C	-0.669812	-0.044384	0.000056
C27	C	-0.633437	0.038633	0.000063
C28	C	-0.539399	0.040417	0.000067
C29	C	-0.742565	-0.210407	0.000055
C30	C	-0.763855	-0.046172	0.000050
C31	C	-1.058754	-0.289531	0.000070
C32	C	-1.060657	-0.389615	0.000072
N33	N	-1.065106	-0.124708	0.248814
C34	C	-0.979435	0.552723	0.000066
C35	C	-1.143668	0.574004	0.000076
C36	C	-1.145458	0.479971	0.000070
C37	C	-1.064235	0.422309	0.000064
C38	C	-0.981223	0.458680	0.000063
C39	C	-1.228469	0.443591	0.000080
C40	C	-1.230262	0.349552	0.000076
C41	C	-1.149039	0.291889	0.000063
C42	C	-1.066023	0.328266	0.000061
C43	C	-0.984800	0.270604	0.000055
C44	C	-0.901783	0.306979	0.000047
C45	C	-0.899999	0.401017	0.000050
C46	C	-1.150823	0.197851	0.000059
C47	C	-0.986588	0.176561	0.000052
N48	N	-1.065160	-0.124711	-0.248680
C49	C	-1.003926	-0.185904	0.701081
C50	C	-1.126382	-0.063519	0.701055
C51	C	-1.126371	-0.063516	0.600559
C52	C	-1.065138	-0.124709	0.550319
C53	C	-1.003916	-0.185904	0.600576
C54	C	-1.187598	-0.002328	0.550295
C55	C	-1.187591	-0.002323	0.449793
C56	C	-1.126353	-0.063512	0.399552
C57	C	-1.065127	-0.124710	0.449814
C58	C	-1.003894	-0.185902	0.399575
C59	C	-0.942664	-0.247096	0.449835
C60	C	-0.942677	-0.247094	0.550334
C61	C	-1.126339	-0.063515	0.299053
C62	C	-1.003883	-0.185903	0.299070
H63	H	-0.680397	0.104764	0.000053
H64	H	-0.772178	-0.277998	0.000051
C65	C	-0.881205	-0.205250	0.186074
C66	C	-0.936573	-0.253170	0.243850
H67	H	-0.839648	-0.246780	0.151989
H68	H	-0.917666	-0.168819	0.141761
H69	H	-0.848739	-0.167663	0.225294
H70	H	-0.969044	-0.290753	0.204629
H71	H	-0.900107	-0.289617	0.288168
C72	C	-1.249012	-0.044215	0.186040
C73	C	-1.193661	0.003729	0.243822
H74	H	-1.290585	-0.002701	0.151953
H75	H	-1.212541	-0.080634	0.141730
H76	H	-1.281459	-0.081817	0.225257
H77	H	-1.161209	0.041326	0.204604
H78	H	-1.230137	0.040163	0.288138
H79	H	-1.297860	0.319944	0.000082
H80	H	-0.509774	0.108005	0.000096
H81	H	-0.835652	0.260019	0.000048
H82	H	-0.319459	-0.269379	0.000068
H83	H	-0.358072	0.028572	0.000080
H84	H	-0.449870	-0.354180	0.000054
H85	H	-1.237447	0.047505	0.408877
C86	C	-0.775445	0.116350	0.000045
C87	C	-0.827234	0.043113	0.000041
H88	H	-0.814574	0.171469	0.000033
H89	H	-0.738330	0.113632	0.055725
H90	H	-0.738317	0.113622	-0.055631
H91	H	-0.864357	0.045837	0.055720
H92	H	-0.864364	0.045832	-0.055645
H93	H	-0.620472	-0.357443	0.000051
H94	H	-1.218414	0.168238	0.000072
H95	H	-0.892811	-0.296924	0.408919
H96	H	-1.294596	0.490546	0.000094
H97	H	-0.954071	-0.235724	0.742005
C98	C	-0.916399	0.022958	0.000042
C99	C	-0.897304	0.113181	0.000042
H100	H	-0.861278	-0.016168	0.000028
H101	H	-0.950415	0.011924	0.055721
H102	H	-0.950443	0.011929	-0.055635
H103	H	-0.863266	0.124212	0.055722
H104	H	-0.863274	0.124220	-0.055643
C105	C	-0.824339	0.535719	0.000070
C106	C	-0.808753	0.441003	0.000055
H107	H	-0.768008	0.560405	0.000082
H108	H	-0.857783	0.555501	-0.055603
H109	H	-0.857786	0.555486	0.055752
H110	H	-0.775312	0.421236	-0.055631
H111	H	-0.775295	0.421213	0.055734
H112	H	-0.911844	0.582344	0.000055
C113	C	-1.236937	0.692107	-0.081989
C114	C	-1.232944	0.637384	0.000083
H115	H	-1.292059	0.731233	-0.081986
H116	H	-1.187249	0.727224	-0.081980
H117	H	-1.234228	0.654973	-0.137663
H118	H	-1.235647	0.674517	0.055757
H119	H	-1.282646	0.602264	0.000082
H120	H	-0.892827	-0.296916	0.591263
H121	H	-1.176240	-0.013702	0.741963
H122	H	-1.237457	0.047489	0.591203
