data_functionalizedCrystal
_audit_creation_method	'MofGen! by Chris Wilmer'
_symmetry_space_group_name_H-M	'P1'
_symmetry_Int_Tables_number	1
_symmetry_cell_setting	triclinic
loop_
_symmetry_equiv_pos_as_xyz
  x,y,z
_cell_length_a	12.759401
_cell_length_b	16.120531
_cell_length_c	12.759393
_cell_angle_alpha	87.139487
_cell_angle_beta	89.979007
_cell_angle_gamma	87.068486
loop_
_atom_site_label
_atom_site_type_symbol
_atom_site_fract_x
_atom_site_fract_y
_atom_site_fract_z
Zn1	Zn	1.584932	0.331881	-0.615162
Zn2	Zn	1.575860	0.471316	-0.448364
Zn3	Zn	1.409228	0.331920	-0.439499
Zn4	Zn	1.400263	0.471253	-0.623997
O5	O	1.492571	0.401593	-0.531755
O6	O	1.730749	0.350388	-0.593048
O7	O	1.553711	0.452868	-0.300169
O8	O	1.440084	0.215250	-0.455394
O9	O	1.724083	0.452830	-0.470502
O10	O	1.569173	0.215221	-0.584453
O11	O	1.431287	0.350454	-0.293657
O12	O	1.261019	0.350393	-0.463961
O13	O	1.424805	0.452722	-0.769843
O14	O	1.254432	0.452760	-0.599510
O15	O	1.560480	0.350326	-0.763352
O16	O	1.545018	0.587973	-0.479069
O17	O	1.416008	0.587926	-0.608106
C18	C	1.219605	0.401574	-0.531733
C19	C	1.102827	0.401586	-0.531750
C20	C	0.941636	0.348233	-0.461305
C21	C	1.051361	0.348214	-0.461288
C22	C	1.044562	0.454976	-0.602241
C23	C	0.934839	0.454990	-0.602262
C24	C	1.207624	0.249836	-0.417669
C25	C	1.265885	0.196456	-0.347170
C26	C	1.231047	0.183563	-0.243869
C27	C	1.137950	0.224063	-0.211047
C28	C	1.079695	0.277449	-0.281542
C29	C	1.114532	0.290325	-0.384856
C30	C	0.778574	0.553369	-0.645870
C31	C	0.720317	0.606760	-0.716360
C32	C	0.755151	0.619661	-0.819663
C33	C	0.848251	0.579176	-0.852482
C34	C	0.906508	0.525786	-0.781991
C35	C	0.871666	0.512883	-0.678689
C36	C	1.478584	0.618200	-0.545531
C37	C	1.472697	0.710865	-0.551459
C38	C	1.461954	0.880526	-0.562304
C39	C	1.523227	0.921819	-0.501147
C40	C	1.517250	1.016224	-0.507181
C41	C	1.467930	0.786112	-0.556271
C42	C	1.766603	0.401612	-0.531778
C43	C	1.883379	0.401620	-0.531788
C44	C	1.492655	0.401513	-0.805784
C45	C	1.492690	0.401478	-0.922558
C46	C	1.506603	1.184140	-0.517930
C47	C	1.512488	1.091474	-0.511989
C48	C	1.563342	0.348153	-0.974042
C49	C	1.563362	0.348117	-1.083763
C50	C	1.422075	0.454740	-1.090509
C51	C	1.422051	0.454771	-0.980789
C52	C	1.607297	0.249755	-1.227476
C53	C	1.677965	0.196436	-1.278964
C54	C	1.781299	0.183655	-1.242558
C55	C	1.813986	0.224205	-1.154668
C56	C	1.743324	0.277530	-1.103186
C57	C	1.639976	0.290295	-1.139589
C58	C	1.378127	0.553134	-0.837075
C59	C	1.307469	0.606463	-0.785592
C60	C	1.204132	0.619253	-0.821995
C61	C	1.171448	0.578718	-0.909890
C62	C	1.242106	0.525388	-0.961373
C63	C	1.345442	0.512597	-0.924962
C64	C	1.492552	0.401612	-0.258789
C65	C	1.492735	0.401411	-0.142000
H66	H	1.003899	0.310424	-0.254818
H67	H	1.405011	0.916073	-0.619189
N68	N	1.245203	0.263738	-0.529090
H69	H	1.194171	0.303698	-0.568773
H70	H	1.249897	0.208973	-0.564382
N71	N	1.006884	0.482044	-0.817363
H72	H	1.067352	0.498644	-0.773256
H73	H	1.020046	0.498294	-0.893520
H74	H	1.086475	0.498429	-0.659616
H75	H	1.838837	0.140241	-1.284487
N76	N	0.886134	0.290673	-0.385294
H77	H	0.807784	0.298786	-0.395994
H78	H	0.904450	0.303586	-0.311056
H79	H	1.651341	0.163421	-1.350524
N80	N	1.100386	0.210170	-0.099620
H81	H	1.151416	0.170205	-0.059943
H82	H	1.028843	0.186124	-0.100111
H83	H	0.876617	0.589683	-0.936599
H84	H	1.580173	0.886270	-0.444256
N85	N	1.925446	0.210426	-1.115407
H86	H	1.965250	0.170491	-1.161355
H87	H	1.925022	0.186389	-1.040790
N88	N	1.639526	0.290675	-0.911233
H89	H	1.684285	0.256887	-0.960501
H90	H	1.599248	0.252103	-0.863252
H91	H	1.278491	0.140099	-0.186468
N92	N	1.495835	0.263516	-1.266738
H93	H	1.496161	0.287588	-1.341345
H94	H	1.456080	0.303421	-1.220717
H95	H	0.707711	0.663143	-0.877053
N96	N	0.619907	0.650436	-0.680964
H97	H	0.606672	0.634160	-0.604826
H98	H	0.559527	0.633786	-0.725151
H99	H	1.769938	0.310548	-1.031631
N100	N	1.345874	0.512204	-1.153315
H101	H	1.356605	0.504091	-1.230635
H102	H	1.358349	0.571758	-1.137927
H103	H	0.750190	0.542854	-0.561758
N104	N	1.206860	0.481667	-1.056177
H105	H	1.130674	0.497859	-1.071431
H106	H	1.215439	0.419516	-1.041767
N107	N	1.059993	0.592501	-0.949171
H108	H	1.045417	0.653427	-0.969056
H109	H	1.009941	0.574539	-0.892071
H110	H	1.146606	0.662686	-0.780074
N111	N	1.342720	0.650195	-0.690798
H112	H	1.418905	0.633999	-0.675542
H113	H	1.298589	0.633509	-0.628254
N114	N	1.489586	0.539332	-0.797805
H115	H	1.499571	0.573109	-0.734318
H116	H	1.539638	0.557227	-0.854938
H117	H	1.341685	0.163481	-0.373903
