data_functionalizedCrystal
_audit_creation_method	'MofGen! by Chris Wilmer'
_symmetry_space_group_name_H-M	'P1'
_symmetry_Int_Tables_number	1
_symmetry_cell_setting	triclinic
loop_
_symmetry_equiv_pos_as_xyz
  x,y,z
_cell_length_a	8.634740
_cell_length_b	15.995350
_cell_length_c	7.681481
_cell_angle_alpha	84.260013
_cell_angle_beta	96.618670
_cell_angle_gamma	92.031341
loop_
_atom_site_label
_atom_site_type_symbol
_atom_site_fract_x
_atom_site_fract_y
_atom_site_fract_z
O1	O	2.031482	0.279742	-0.146416
O2	O	1.582530	0.256851	-0.146420
O3	O	1.819279	0.147399	-0.146416
O4	O	1.794733	0.389194	-0.146420
O5	O	1.848418	0.133891	0.146442
O6	O	1.611670	0.243343	0.146438
O7	O	2.060622	0.266235	0.146442
Zn8	Zn	1.840772	0.252644	0.192938
Zn9	Zn	1.802379	0.270441	-0.192916
O10	O	1.823873	0.375686	0.146438
C11	C	1.539650	0.244911	0.000009
C12	C	1.368466	0.229449	0.000007
C13	C	1.832833	0.109369	0.000009
C14	C	1.829790	0.016173	-0.000001
C15	C	1.818866	-0.322456	0.000005
C16	C	1.650192	-0.288594	-0.000653
C17	C	1.653301	-0.191689	0.000007
C18	C	1.824284	-0.154458	0.000001
C19	C	1.924088	-0.196540	0.167235
C20	C	1.919866	-0.293524	0.167375
C21	C	1.890212	-0.278240	-0.165659
C22	C	1.889952	-0.181196	-0.167870
C23	C	1.827356	-0.059513	0.000005
C24	C	1.815800	-0.417402	0.000013
C25	C	2.103502	0.278174	0.000009
C26	C	2.274684	0.293637	-0.000001
C27	C	1.810318	0.413717	0.000009
C28	C	1.813360	0.506913	0.000007
N29	N	1.866986	0.240499	0.456272
N30	N	1.776178	0.282581	-0.456250
H31	H	1.325356	0.360418	0.000014
C32	C	1.300027	0.139225	0.000002
H33	H	1.381817	0.101030	0.000021
H34	H	1.227870	0.135199	-0.102126
H35	H	1.248191	0.125779	0.102139
H36	H	1.959699	0.197551	0.531479
C37	C	1.548858	-0.152944	-0.161919
H38	H	1.504137	-0.196425	-0.228694
H39	H	1.609761	-0.115908	-0.232682
H40	H	1.468205	-0.122611	-0.124267
C41	C	1.543017	-0.313510	-0.162644
H42	H	1.600169	-0.344792	-0.231326
H43	H	1.505154	-0.264260	-0.231513
H44	H	1.457613	-0.346873	-0.125021
H45	H	1.594967	-0.319101	0.118605
H46	H	1.871662	-0.322483	0.292389
C47	C	1.580562	-0.168694	0.162241
H48	H	1.549009	-0.218611	0.228009
H49	H	1.492465	-0.134811	0.124961
H50	H	1.655362	-0.138486	0.233869
H51	H	1.683482	0.325533	0.468552
H52	H	2.050324	-0.172567	0.173450
C53	C	1.791322	-0.143216	-0.335013
H54	H	1.831625	-0.159616	-0.436114
H55	H	1.795167	-0.083667	-0.338084
H56	H	1.686324	-0.162942	-0.333966
C57	C	1.798702	-0.304090	-0.336894
H58	H	1.716117	-0.342093	-0.308947
H59	H	1.866602	-0.330550	-0.402197
H60	H	1.756891	-0.255568	-0.405160
H61	H	2.044410	-0.316135	0.174959
C62	C	1.862778	-0.172264	0.335365
H63	H	1.776407	-0.136510	0.304004
H64	H	1.943153	-0.143706	0.403032
H65	H	1.830910	-0.221610	0.402771
C66	C	2.057041	-0.146232	-0.181520
H67	H	2.089088	-0.114735	-0.084578
H68	H	2.059481	-0.110911	-0.288257
H69	H	2.125653	-0.191490	-0.180101
H70	H	2.014413	-0.299920	-0.166788
