data_functionalizedCrystal
_audit_creation_method	'MofGen! by Chris Wilmer'
_symmetry_space_group_name_H-M	'P1'
_symmetry_Int_Tables_number	1
_symmetry_cell_setting	triclinic
loop_
_symmetry_equiv_pos_as_xyz
  x,y,z
_cell_length_a	16.992694
_cell_length_b	15.500258
_cell_length_c	16.992695
_cell_angle_alpha	92.989501
_cell_angle_beta	89.331777
_cell_angle_gamma	86.999165
loop_
_atom_site_label
_atom_site_type_symbol
_atom_site_fract_x
_atom_site_fract_y
_atom_site_fract_z
O1	O	1.047381	0.071836	-0.163453
O2	O	1.380715	0.405170	0.169880
O3	O	1.714048	0.738503	0.503214
O4	O	0.818980	0.071862	-0.161621
O5	O	1.152313	0.405195	0.171713
O6	O	1.485647	0.738529	0.505046
O7	O	0.932265	0.071842	-0.048337
O8	O	1.265599	0.405176	0.284996
O9	O	1.598932	0.738509	0.618330
O10	O	0.934096	0.071856	-0.276736
O11	O	1.267429	0.405189	0.056597
O12	O	1.600762	0.738523	0.389930
O13	O	0.939204	-0.072046	-0.055270
O14	O	1.272537	0.261288	0.278063
O15	O	1.605870	0.594621	0.611396
O16	O	0.825918	-0.072026	-0.168554
O17	O	1.159252	0.261307	0.164780
O18	O	1.492585	0.594640	0.498113
O19	O	1.054320	-0.072052	-0.170386
O20	O	1.387653	0.261282	0.162947
O21	O	1.720986	0.594615	0.496280
Cu22	Cu	0.940753	-0.085177	-0.170103
Cu23	Cu	1.274086	0.248156	0.163230
Cu24	Cu	1.607419	0.581490	0.496564
Cu25	Cu	0.932547	0.084987	-0.161904
Cu26	Cu	1.265880	0.418321	0.171430
Cu27	Cu	1.599214	0.751654	0.504763
O28	O	0.941034	-0.072032	-0.283670
O29	O	1.274368	0.261301	0.049664
O30	O	1.607701	0.594634	0.382997
C31	C	0.793089	-0.000079	-0.162731
C32	C	1.126422	0.333254	0.170602
C33	C	1.459756	0.666588	0.503935
C34	C	0.705604	-0.000069	-0.155702
C35	C	1.038937	0.333264	0.177631
C36	C	1.372270	0.666597	0.510965
N37	N	0.946530	-0.204862	-0.175870
N38	N	1.279863	0.128472	0.157464
N39	N	1.613196	0.461805	0.490797
C40	C	0.659613	-0.000066	-0.223520
C41	C	0.992946	0.333267	0.109813
C42	C	1.326279	0.666601	0.443147
C43	C	0.577413	-0.000078	-0.216911
C44	C	0.910746	0.333255	0.116422
C45	C	1.244079	0.666588	0.449755
C46	C	0.541205	-0.000088	-0.142484
C47	C	0.874538	0.333245	0.190849
C48	C	1.207871	0.666579	0.524182
C49	C	0.587202	-0.000094	-0.074662
C50	C	0.920535	0.333240	0.258672
C51	C	1.253869	0.666573	0.592005
C52	C	0.669401	-0.000088	-0.081271
C53	C	1.002734	0.333246	0.252062
C54	C	1.336068	0.666579	0.585396
C55	C	0.295892	-0.000113	-0.115091
C56	C	0.629225	0.333221	0.218242
C57	C	0.962558	0.666554	0.551576
C58	C	0.213687	-0.000116	-0.108487
C59	C	0.547020	0.333217	0.224847
C60	C	0.880353	0.666550	0.558180
C61	C	0.203903	-0.000102	-0.250737
C62	C	0.537236	0.333231	0.082596
C63	C	0.870569	0.666564	0.415929
C64	C	0.286103	-0.000091	-0.257340
C65	C	0.619437	0.333242	0.075993
C66	C	0.952770	0.666576	0.409327
C67	C	0.332094	-0.000102	-0.189517
C68	C	0.665427	0.333232	0.143816
C69	C	0.998760	0.666565	0.477149
N70	N	0.457183	-0.000098	-0.135728
N71	N	0.790516	0.333236	0.197606
N72	N	1.123850	0.666569	0.530939
N73	N	0.416114	-0.000098	-0.196275
N74	N	0.749448	0.333235	0.137058
N75	N	1.082781	0.666569	0.470392
C76	C	0.975324	-0.750048	-0.204711
C77	C	1.308657	-0.416714	0.128622
C78	C	1.641991	-0.083381	0.461955
C79	C	0.970959	-0.659475	-0.200345
C80	C	1.304292	-0.326142	0.132989
C81	C	1.637626	0.007191	0.466322
C82	C	0.918049	-0.614185	-0.147393
C83	C	1.251382	-0.280852	0.185940
C84	C	1.584716	0.052482	0.519274
C85	C	0.869495	-0.659472	-0.098811
C86	C	1.202829	-0.326138	0.234522
C87	C	1.536162	0.007195	0.567856
C88	C	0.873857	-0.750043	-0.103182
C89	C	1.207190	-0.416709	0.230151
C90	C	1.540524	-0.083376	0.563484
C91	C	0.902338	-0.340719	-0.131659
C92	C	1.235671	-0.007386	0.201674
C93	C	1.569005	0.325947	0.535008
C94	C	0.897981	-0.250142	-0.127290
C95	C	1.231315	0.083191	0.206044
C96	C	1.564648	0.416525	0.539377
C97	C	0.999445	-0.250152	-0.228825
C98	C	1.332778	0.083181	0.104509
C99	C	1.666111	0.416515	0.437842
C100	C	1.003805	-0.340724	-0.233188
C101	C	1.337138	-0.007391	0.100145
C102	C	1.670472	0.325942	0.433479
C103	C	0.955248	-0.386003	-0.184609
C104	C	1.288582	-0.052670	0.148725
C105	C	1.621915	0.280663	0.482058
C106	C	0.913588	-0.521605	-0.142927
C107	C	1.246921	-0.188272	0.190407
C108	C	1.580254	0.145061	0.523740
C109	C	0.959706	-0.478581	-0.189080
C110	C	1.293040	-0.145248	0.144254
C111	C	1.626373	0.188085	0.477587
C112	C	1.080211	-0.000109	-0.169275
C113	C	1.413544	0.333224	0.164058
C114	C	1.746877	0.666558	0.497391
C115	C	1.167695	-0.000113	-0.176304
C116	C	1.501029	0.333220	0.157029
C117	C	1.834362	0.666554	0.490362
C118	C	0.933379	-0.000101	-0.022443
C119	C	1.266712	0.333232	0.310890
C120	C	1.600045	0.666565	0.644223
C121	C	0.926350	-0.000100	0.065041
C122	C	1.259683	0.333233	0.398374
C123	C	1.593017	0.666566	0.731708
N124	N	0.926776	0.204672	-0.156131
N125	N	1.260109	0.538005	0.177202
N126	N	1.593442	0.871338	0.510536
C127	C	0.939921	-0.000087	-0.309563
C128	C	1.273254	0.333247	0.023770
C129	C	1.606587	0.666580	0.357103
C130	C	0.946949	-0.000082	-0.397048
C131	C	1.280283	0.333251	-0.063714
C132	C	1.613616	0.666585	0.269619
C133	C	0.994168	-0.000109	0.111032
C134	C	1.327502	0.333225	0.444365
C135	C	1.660835	0.666558	0.777698
C136	C	0.987559	-0.000100	0.193233
C137	C	1.320892	0.333233	0.526566
C138	C	1.654226	0.666567	0.859899
C139	C	0.913131	-0.000089	0.229442
C140	C	1.246464	0.333245	0.562775
C141	C	1.579797	0.666578	0.896108
C142	C	0.845307	-0.000078	0.183445
C143	C	1.178641	0.333256	0.516779
C144	C	1.511974	0.666589	0.850112
C145	C	0.851917	-0.000080	0.101246
C146	C	1.185250	0.333253	0.434579
C147	C	1.518584	0.666586	0.767913
C148	C	0.885736	-0.000074	0.474757
C149	C	1.219069	0.333260	0.808090
C150	C	1.552402	0.666593	1.141423
C151	C	0.879131	-0.000074	0.556962
C152	C	1.212464	0.333260	0.890295
C153	C	1.545798	0.666593	1.223629
C154	C	1.021383	-0.000094	0.566744
C155	C	1.354717	0.333239	0.900077
C156	C	1.688050	0.666573	1.233411
C157	C	1.027987	-0.000102	0.484542
C158	C	1.361320	0.333231	0.817876
C159	C	1.694654	0.666565	1.151209
C160	C	0.960163	-0.000087	0.438553
C161	C	1.293496	0.333247	0.771887
C162	C	1.626830	0.666580	1.105220
N163	N	0.906373	-0.000082	0.313464
N164	N	1.239707	0.333251	0.646798
N165	N	1.573040	0.666584	0.980131
N166	N	0.966921	-0.000087	0.354533
N167	N	1.300254	0.333247	0.687866
N168	N	1.633588	0.666580	1.021199
H169	H	0.689087	-0.000058	-0.284126
H170	H	1.022420	0.333276	0.049207
H171	H	1.355753	0.666609	0.382540
H172	H	0.870510	-0.484720	-0.099811
H173	H	1.203843	-0.151387	0.233522
H174	H	1.537177	0.181947	0.566855
H175	H	1.088594	-0.000111	0.455067
H176	H	1.421927	0.333222	0.788401
H177	H	1.755261	0.666555	1.121734
F178	F	1.031643	-0.798241	-0.261066
F179	F	1.364976	-0.464908	0.072268
F180	F	1.698309	-0.131574	0.405601
H181	H	0.826412	-0.622589	-0.055700
H182	H	1.159745	-0.289256	0.277633
H183	H	1.493078	0.044077	0.610967
H184	H	0.333327	-0.000122	-0.059865
H185	H	0.666661	0.333211	0.273469
H186	H	0.999994	0.666545	0.606802
H187	H	0.830508	-0.000061	0.437322
H188	H	1.163842	0.333272	0.770655
H189	H	1.497175	0.666605	1.103989
F190	F	0.324632	-0.000076	-0.336555
F191	F	0.657965	0.333257	-0.003222
F192	F	0.991299	0.666590	0.330111
H193	H	0.784706	-0.000063	0.212933
H194	H	1.118039	0.333270	0.546266
H195	H	1.451372	0.666604	0.879600
H196	H	0.557716	-0.000114	-0.014062
H197	H	0.891049	0.333219	0.319272
H198	H	1.224382	0.666553	0.652605
H199	H	0.539970	-0.000075	-0.272136
H200	H	0.873303	0.333259	0.061197
H201	H	1.206636	0.666592	0.394531
F202	F	1.093561	-0.000110	0.615694
F203	F	1.426894	0.333224	0.949028
F204	F	1.760228	0.666557	1.282361
F205	F	0.154951	-0.000093	-0.322914
F206	F	0.488285	0.333240	0.010420
F207	F	0.821618	0.666573	0.343753
H208	H	0.706846	-0.000090	-0.026046
H209	H	1.040180	0.333243	0.307287
H210	H	1.373513	0.666577	0.640620
H211	H	0.818520	-0.000078	0.586439
H212	H	1.151854	0.333255	0.919773
H213	H	1.485187	0.666588	1.253106
F214	F	0.175154	-0.000141	-0.029268
F215	F	0.508488	0.333192	0.304065
F216	F	0.841821	0.666525	0.637399
F217	F	0.822183	-0.798233	-0.051478
F218	F	1.155516	-0.464900	0.281855
F219	F	1.488850	-0.131566	0.615188
H220	H	1.010493	-0.622612	-0.239903
H221	H	1.343827	-0.289279	0.093431
H222	H	1.677160	0.044055	0.426764
H223	H	1.046891	-0.377594	-0.276305
H224	H	1.380224	-0.044260	0.057028
H225	H	1.713558	0.289073	0.390361
F226	F	1.073386	-0.000129	0.072503
F227	F	1.406719	0.333204	0.405836
F228	F	1.740053	0.666538	0.739169
H229	H	1.038975	-0.213276	-0.268376
H230	H	1.372309	0.120057	0.064957
H231	H	1.705642	0.453391	0.398291
H232	H	1.042784	-0.000109	0.230675
H233	H	1.376118	0.333225	0.564008
H234	H	1.709451	0.666558	0.897342
F235	F	0.779735	-0.000069	0.052300
F236	F	1.113068	0.333265	0.385633
F237	F	1.446402	0.666598	0.718966
H238	H	0.854891	-0.213269	-0.084171
H239	H	1.188225	0.120064	0.249163
H240	H	1.521558	0.453397	0.582496
F241	F	0.850659	-0.388897	-0.079956
F242	F	1.183993	-0.055564	0.253378
F243	F	1.517326	0.277770	0.586711
H244	H	1.002782	-0.515461	-0.232196
H245	H	1.336115	-0.182127	0.101137
H246	H	1.669449	0.151206	0.434471
