data_functionalizedCrystal
_audit_creation_method	'MofGen! by Chris Wilmer'
_symmetry_space_group_name_H-M	'P1'
_symmetry_Int_Tables_number	1
_symmetry_cell_setting	triclinic
loop_
_symmetry_equiv_pos_as_xyz
  x,y,z
_cell_length_a	13.032831
_cell_length_b	15.297327
_cell_length_c	13.032268
_cell_angle_alpha	74.619162
_cell_angle_beta	89.113023
_cell_angle_gamma	93.742008
loop_
_atom_site_label
_atom_site_type_symbol
_atom_site_fract_x
_atom_site_fract_y
_atom_site_fract_z
Zn1	Zn	1.363663	-0.605893	0.885100
Zn2	Zn	1.355662	-0.739564	0.736122
Zn3	Zn	1.221861	-0.568414	0.684891
Zn4	Zn	1.162990	-0.734713	0.885413
O5	O	1.276044	-0.662146	0.797881
O6	O	1.502581	-0.641340	0.886647
O7	O	1.359203	-0.703205	0.583060
O8	O	1.268657	-0.447848	0.689878
O9	O	1.496703	-0.739547	0.777194
O10	O	1.372838	-0.475384	0.836970
O11	O	1.260899	-0.577463	0.545420
O12	O	1.074072	-0.572759	0.690181
O13	O	1.168320	-0.731280	1.031638
O14	O	1.030820	-0.694938	0.837504
O15	O	1.315754	-0.636636	1.031408
O16	O	1.302118	-0.864458	0.777497
O17	O	1.160562	-0.860894	0.887180
C18	C	1.016151	-0.629256	0.758318
C19	C	0.904960	-0.615209	0.741421
C20	C	0.834008	-0.669477	0.806700
C21	C	0.719086	-0.654961	0.789238
C22	C	1.224108	-0.895233	0.837959
C23	C	1.201976	-0.994963	0.855153
C24	C	1.434586	-1.283427	0.675411
C25	C	1.455381	-1.189725	0.659251
C26	C	1.392032	-1.141030	0.708225
C27	C	1.307884	-1.186046	0.773362
C28	C	1.287082	-1.279756	0.789517
C29	C	1.244528	-1.137359	0.822332
C30	C	1.160380	-1.182375	0.887469
C31	C	1.139583	-1.276076	0.903621
C32	C	1.202932	-1.324771	0.854647
C33	C	1.265329	-1.043649	0.806176
C34	C	1.117825	-1.039978	0.920283
C35	C	1.097031	-1.133680	0.936443
C36	C	1.536951	-0.695165	0.837600
C37	C	1.648135	-0.709236	0.854526
C38	C	1.236363	-0.687598	1.070508
C39	C	1.219453	-0.698444	1.186686
C40	C	1.328207	-0.428155	0.757674
C41	C	1.350436	-0.328442	0.740540
C42	C	1.315643	-0.636736	0.526313
C43	C	1.332803	-0.625662	0.410122
C44	C	1.284861	-0.656451	1.238367
C45	C	1.267385	-0.667660	1.358443
H46	H	1.333843	-1.007005	0.753141
H47	H	1.523892	-1.153076	0.606215
H48	H	1.150512	-0.742686	1.231332
H49	H	0.858346	-0.726682	0.875518
H50	H	1.071054	-1.312722	0.956646
O51	O	0.689890	-0.586782	0.707149
C52	C	0.548727	-0.510108	0.614955
C53	C	0.581650	-0.587360	0.707950
H54	H	0.461214	-0.510537	0.615585
H55	H	0.577918	-0.520451	0.536396
H56	H	0.582689	-0.442098	0.624085
H57	H	0.547700	-0.655404	0.698923
H58	H	0.552473	-0.576937	0.786474
O59	O	0.677325	-0.777470	0.936553
C60	C	0.818488	-0.854089	1.028816
C61	C	0.785571	-0.776798	0.935865
H62	H	0.906006	-0.853559	1.028304
H63	H	0.784654	-0.922140	1.019685
H64	H	0.789162	-0.843748	1.107328
H65	H	0.814887	-0.787051	0.857310
H66	H	0.819392	-0.708775	0.945090
O67	O	0.875758	-0.547035	0.659337
C68	C	0.734595	-0.470361	0.567144
C69	C	0.767518	-0.547612	0.660138
H70	H	0.647083	-0.470790	0.567773
H71	H	0.763787	-0.480704	0.488584
H72	H	0.768558	-0.402351	0.576273
H73	H	0.733568	-0.615657	0.651111
H74	H	0.738342	-0.537190	0.738662
H75	H	1.198439	-0.711906	1.403086
H76	H	1.186008	-1.401072	0.867804
H77	H	1.408967	-1.064733	0.695062
H78	H	1.486151	-1.323082	0.635536
H79	H	1.066239	-1.000330	0.960160
O80	O	1.015304	-1.177545	0.999640
C81	C	0.917937	-1.320290	1.075144
C82	C	1.010510	-1.270722	1.003529
H83	H	0.914043	-1.395634	1.078330
H84	H	0.844008	-1.290079	1.041291
H85	H	0.927270	-1.311855	1.158900
H86	H	1.001277	-1.279138	0.919758
H87	H	1.084404	-1.300943	1.037470
O88	O	1.367079	-0.603729	1.184961
C89	C	1.459407	-0.544418	1.016570
C90	C	1.366262	-0.604168	1.076923
H91	H	1.458765	-0.544738	0.929206
H92	H	1.533491	-0.572365	1.052886
H93	H	1.454880	-0.471858	1.022934
H94	H	1.370689	-0.676742	1.070582
H95	H	1.292217	-0.576146	1.040592
H96	H	1.401740	-0.581404	1.365477
