data_functionalizedCrystal
_audit_creation_method	'MofGen! by Chris Wilmer'
_symmetry_space_group_name_H-M	'P1'
_symmetry_Int_Tables_number	1
_symmetry_cell_setting	triclinic
loop_
_symmetry_equiv_pos_as_xyz
  x,y,z
_cell_length_a	10.654558
_cell_length_b	10.065918
_cell_length_c	11.026607
_cell_angle_alpha	97.676876
_cell_angle_beta	96.537167
_cell_angle_gamma	99.763199
loop_
_atom_site_label
_atom_site_type_symbol
_atom_site_fract_x
_atom_site_fract_y
_atom_site_fract_z
O1	O	1.724976	0.113471	0.186857
O2	O	1.363029	0.113477	0.203117
O3	O	1.514004	0.113469	0.018080
O4	O	1.574001	0.113478	0.371894
O5	O	1.473854	-0.113519	-0.014013
O6	O	1.322879	-0.113511	0.171024
O7	O	1.684826	-0.113518	0.154764
Zn8	Zn	1.497478	-0.149554	0.157799
Zn9	Zn	1.550377	0.149513	0.200082
O10	O	1.533851	-0.113510	0.339801
C11	C	1.295897	-0.000016	0.185875
C12	C	1.155678	-0.000014	0.182297
N13	N	1.461385	-0.353659	0.128941
C14	C	0.979933	0.123718	0.194761
C15	C	1.111684	0.123719	0.198112
C16	C	1.067913	-0.123756	0.163117
C17	C	0.936164	-0.123756	0.159757
C18	C	0.935948	0.247459	0.210590
C19	C	1.023705	0.371202	0.229768
C20	C	1.155455	0.371203	0.233119
C21	C	1.199449	0.247462	0.217292
C22	C	1.510052	-0.578602	0.167829
C23	C	1.537822	-0.421435	0.190051
C24	C	1.751959	-0.000021	0.172007
C25	C	1.892179	-0.000015	0.175586
C26	C	1.482861	-0.000023	-0.043271
C27	C	1.449868	-0.000018	-0.178263
N28	N	1.586478	0.353619	0.228930
C29	C	1.540971	-0.000017	-0.251299
C30	C	1.506873	-0.000012	-0.390820
C31	C	1.564995	-0.000015	0.401152
C32	C	1.597990	-0.000011	0.536145
H33	H	0.987874	0.471947	0.242644
N34	N	1.651739	-0.344188	0.281132
H35	H	1.620865	-0.284907	0.348514
H36	H	1.698884	-0.411096	0.318762
H37	H	1.306730	0.247473	0.220016
N38	N	1.313107	-0.000031	-0.232248
H39	H	1.256992	-0.000036	-0.164339
H40	H	1.310339	0.084116	-0.272399
N41	N	1.396139	-0.655850	0.076753
H42	H	1.348950	-0.589025	0.039032
H43	H	1.427109	-0.715130	0.009443
H44	H	0.828674	0.247472	0.207866
H45	H	1.226902	0.471960	0.248723
H46	H	1.375390	-0.411979	0.060174
H47	H	1.103745	-0.224501	0.150234
N48	N	1.700390	-0.569129	0.320007
H49	H	1.669515	-0.509848	0.387389
H50	H	1.747534	-0.636038	0.357637
H51	H	0.864714	-0.224510	0.144165
N52	N	1.677728	-0.000036	-0.197323
H53	H	1.682700	-0.000046	-0.105305
H54	H	1.706073	-0.084192	-0.237248
N55	N	1.370109	0.000004	-0.444791
H56	H	1.365136	0.000009	-0.536809
H57	H	1.311974	-0.084143	-0.428676
N58	N	1.734759	-0.000004	-0.409884
H59	H	1.739736	-0.000005	-0.317865
H60	H	1.763124	-0.084151	-0.449802
