data_functionalizedCrystal
_audit_creation_method	'MofGen! by Chris Wilmer'
_symmetry_space_group_name_H-M	'P1'
_symmetry_Int_Tables_number	1
_symmetry_cell_setting	triclinic
loop_
_symmetry_equiv_pos_as_xyz
  x,y,z
_cell_length_a	16.956984
_cell_length_b	13.262975
_cell_length_c	15.455313
_cell_angle_alpha	108.568794
_cell_angle_beta	87.518126
_cell_angle_gamma	80.410903
loop_
_atom_site_label
_atom_site_type_symbol
_atom_site_fract_x
_atom_site_fract_y
_atom_site_fract_z
O1	O	1.061218	0.039205	-0.062888
O2	O	1.561218	0.539205	0.437112
O3	O	0.828758	0.076641	-0.054059
O4	O	1.328758	0.576641	0.445941
O5	O	0.952593	-0.097852	-0.095210
O6	O	1.452593	0.402148	0.404790
O7	O	0.937383	0.213698	-0.021737
O8	O	1.437383	0.713698	0.478263
O9	O	0.945512	-0.087913	0.051397
O10	O	1.445512	0.412087	0.551397
O11	O	0.821676	0.086580	0.092547
O12	O	1.321676	0.586580	0.592547
O13	O	1.054137	0.049145	0.083719
O14	O	1.554137	0.549145	0.583719
Cu15	Cu	0.937260	0.068770	0.101519
Cu16	Cu	1.437260	0.568770	0.601519
Cu17	Cu	0.945634	0.057015	-0.071859
Cu18	Cu	1.445634	0.557015	0.428141
O19	O	0.930302	0.223638	0.124869
O20	O	1.430302	0.723638	0.624869
C21	C	0.795493	0.083527	0.019696
C22	C	1.295493	0.583527	0.519696
C23	C	0.706927	0.089226	0.021040
C24	C	1.206927	0.589226	0.521040
C25	C	0.675612	-0.006062	-0.001430
C26	C	1.175612	0.493938	0.498570
C27	C	0.592394	-0.000702	-0.000172
C28	C	1.092394	0.499298	0.499828
C29	C	0.540491	0.099950	0.023563
C30	C	1.040491	0.599950	0.523563
C31	C	0.571811	0.195246	0.046032
C32	C	1.071811	0.695246	0.546032
C33	C	0.655028	0.189883	0.044768
C34	C	1.155028	0.689883	0.544768
C35	C	0.290505	0.126492	0.029817
C36	C	0.790505	0.626492	0.529817
C37	C	0.207282	0.131848	0.031082
C38	C	0.707282	0.631848	0.531082
C39	C	0.227871	-0.064100	-0.015124
C40	C	0.727871	0.435900	0.484876
C41	C	0.311089	-0.069453	-0.016381
C42	C	0.811089	0.430547	0.483619
C43	C	0.342401	0.025842	0.006083
C44	C	0.842401	0.525842	0.506083
N45	N	0.455429	0.105432	0.024852
N46	N	0.955429	0.605432	0.524852
N47	N	0.427463	0.020358	0.004788
N48	N	0.927463	0.520358	0.504788
C49	C	0.948848	-0.132561	-0.031266
C50	C	1.448848	0.367439	0.468734
C51	C	0.948231	-0.250789	-0.059153
C52	C	1.448231	0.249211	0.440847
C53	C	0.951811	-0.311727	-0.152177
C54	C	1.451811	0.188273	0.347823
C55	C	0.951241	-0.422812	-0.178399
C56	C	1.451241	0.077188	0.321601
C57	C	0.947097	-0.472971	-0.111600
C58	C	1.447097	0.027029	0.388400
C59	C	0.943522	-0.412034	-0.018575
C60	C	1.443522	0.087966	0.481425
C61	C	0.944086	-0.300937	0.007650
C62	C	1.444086	0.199063	0.507650
C63	C	0.939372	-0.462181	0.048227
C64	C	1.439372	0.037819	0.548227
C65	C	0.935798	-0.401244	0.141252
C66	C	1.435798	0.098756	0.641252
C67	C	0.936362	-0.290157	0.167473
C68	C	1.436362	0.209843	0.667473
C69	C	0.940506	-0.239998	0.100674
C70	C	1.440506	0.260002	0.600674
C71	C	0.938809	-0.573278	0.022002
C72	C	1.438809	-0.073278	0.522002
C73	C	0.931084	-0.562488	0.181829
C74	C	1.431084	-0.062488	0.681829
C75	C	0.931654	-0.451403	0.208051
C76	C	1.431654	0.048597	0.708051
C77	C	1.087401	0.042258	0.009962
C78	C	1.587401	0.542258	0.509962
C79	C	1.175968	0.036559	0.008612
C80	C	1.675968	0.536559	0.508612
C81	C	0.934046	0.258346	0.060924
C82	C	1.434046	0.758346	0.560924
C83	C	0.934664	0.376574	0.088805
C84	C	1.434664	0.876574	0.588805
N85	N	0.931376	0.077037	0.223464
N86	N	1.431376	0.577037	0.723464
N87	N	0.951525	0.048740	-0.193807
N88	N	1.451525	0.548740	0.306193
C89	C	0.984003	0.002930	0.251382
C90	C	1.484003	0.502930	0.751382
C91	C	0.979561	0.009191	0.343666
C92	C	1.479561	0.509191	0.843666
C93	C	0.922494	0.089564	0.408033
C94	C	1.422494	0.589564	0.908033
C95	C	0.869861	0.163674	0.380110
C96	C	1.369861	0.663674	0.880110
C97	C	0.874300	0.157408	0.287826
C98	C	1.374300	0.657408	0.787826
C99	C	0.903331	0.116584	0.685986
C100	C	1.403331	0.616584	1.185986
C101	C	0.898898	0.122847	0.778276
C102	C	1.398898	0.622847	1.278276
C103	C	1.008597	-0.031639	0.741826
C104	C	1.508597	0.468361	1.241826
C105	C	1.013034	-0.037894	0.649542
C106	C	1.513034	0.462106	1.149542
C107	C	0.960399	0.036213	0.621626
C108	C	1.460399	0.536213	1.121626
N109	N	0.917953	0.095968	0.502363
N110	N	1.417953	0.595968	1.002363
N111	N	0.964936	0.029803	0.527296
N112	N	1.464936	0.529803	1.027296
H113	H	0.165023	0.213815	0.050415
H114	H	0.665023	0.713815	0.550415
H115	H	0.940974	-0.149545	0.122020
H116	H	1.440974	0.350455	0.622020
Br117	Br	0.792405	0.272748	0.467460
Br118	Br	1.292405	0.772748	0.967460
Br119	Br	1.061461	-0.106146	0.164037
Br120	Br	1.561461	0.393854	0.664037
H121	H	0.955180	-0.270876	-0.206554
H122	H	1.455180	0.229124	0.293446
Br123	Br	0.831901	0.217156	0.648105
Br124	Br	1.331901	0.717156	1.148105
H125	H	0.202368	-0.141685	-0.033424
H126	H	0.702368	0.358315	0.466576
Br127	Br	1.090486	-0.146968	0.562187
Br128	Br	1.590486	0.353032	1.062187
Br129	Br	0.332990	0.255823	0.060303
Br130	Br	0.832990	0.755823	0.560303
H131	H	0.946632	-0.563422	-0.132956
H132	H	1.446632	-0.063422	0.367044
H133	H	0.529545	0.277198	0.065352
H134	H	1.029545	0.777198	0.565352
H135	H	0.927706	-0.603325	0.236222
H136	H	1.427706	-0.103325	0.736222
Br137	Br	0.931482	-0.207451	0.293723
Br138	Br	1.431482	0.292549	0.793723
H139	H	0.831445	0.217752	0.265098
H140	H	1.331445	0.717752	0.765098
Br141	Br	0.926804	-0.368691	0.334296
Br142	Br	1.426804	0.131309	0.834296
Br143	Br	0.549901	-0.130031	-0.030700
Br144	Br	1.049901	0.369969	0.469300
H145	H	1.022413	-0.051153	0.366395
H146	H	1.522413	0.448847	0.866395
H147	H	1.051449	-0.091974	0.764564
H148	H	1.551449	0.408026	1.264564
Br149	Br	0.697527	0.319209	0.075257
Br150	Br	1.197527	0.819209	0.575257
H151	H	0.941717	-0.622882	-0.053740
H152	H	1.441717	-0.122882	0.446260
H153	H	0.852424	0.188301	0.830682
H154	H	1.352424	0.688301	1.330682
H155	H	0.717867	-0.088024	-0.020754
H156	H	1.217867	0.411976	0.479246
H157	H	0.353344	-0.151414	-0.035705
H158	H	0.853344	0.348586	0.464295
H159	H	0.954153	-0.472420	-0.254140
H160	H	1.454153	0.027580	0.245860
