data_functionalizedCrystal
_audit_creation_method	'MofGen! by Chris Wilmer'
_symmetry_space_group_name_H-M	'P1'
_symmetry_Int_Tables_number	1
_symmetry_cell_setting	triclinic
loop_
_symmetry_equiv_pos_as_xyz
  x,y,z
_cell_length_a	19.188930
_cell_length_b	23.532407
_cell_length_c	17.666332
_cell_angle_alpha	90.009886
_cell_angle_beta	90.023133
_cell_angle_gamma	82.996728
loop_
_atom_site_label
_atom_site_type_symbol
_atom_site_fract_x
_atom_site_fract_y
_atom_site_fract_z
O1	O	0.925923	0.071101	0.063199
O2	O	0.722581	0.080672	0.063148
O3	O	0.830384	-0.007032	0.063161
O4	O	0.818120	0.158805	0.063186
O5	O	0.830365	-0.007035	-0.062735
O6	O	0.722562	0.080670	-0.062748
O7	O	0.925904	0.071098	-0.062697
Cu8	Cu	0.824231	0.075884	-0.074218
Cu9	Cu	0.824254	0.075887	0.074669
O10	O	0.818101	0.158803	-0.062711
C11	C	0.696561	0.080361	0.000193
C12	C	0.619060	0.079431	0.000173
C13	C	0.573972	0.130893	0.000193
C14	C	0.501151	0.130019	0.000201
C15	C	0.473421	0.077680	0.000205
C16	C	0.518519	0.026211	0.000181
C17	C	0.591339	0.027086	0.000165
N18	N	0.365575	0.037674	0.043078
N19	N	0.296399	0.036845	0.043094
C20	C	0.254021	0.075038	0.000251
N21	N	0.283431	0.114099	-0.042600
N22	N	0.352613	0.114929	-0.042614
C23	C	0.394462	0.076724	0.000222
C24	C	0.129971	0.125556	0.000278
C25	C	0.057149	0.124680	0.000282
C26	C	0.074520	0.020870	0.000269
C27	C	0.147340	0.021748	0.000258
C28	C	0.175061	0.074092	0.000266
C29	C	0.830062	-0.028250	0.000211
C30	C	0.829123	-0.091469	0.000205
C31	C	0.887029	-0.490449	0.000261
C32	C	0.886157	-0.549851	0.000267
O33	O	0.939837	-0.586482	0.000308
N34	N	0.822068	-0.572613	0.000250
C35	C	0.758848	-0.535970	0.000236
O36	O	0.704255	-0.560786	0.000223
C37	C	0.759721	-0.476569	0.000235
C38	C	0.823814	-0.453810	0.000244
C39	C	0.951117	-0.467690	0.000271
C40	C	0.951989	-0.408292	0.000264
C41	C	0.888773	-0.371653	0.000247
C42	C	0.824685	-0.394412	0.000237
C43	C	0.696501	-0.439927	0.000226
C44	C	0.697379	-0.380523	0.000227
C45	C	0.761472	-0.357764	0.000236
C46	C	0.762342	-0.298376	0.000214
N47	N	0.826430	-0.275614	0.000230
C48	C	0.889646	-0.312252	0.000247
C49	C	0.757019	-0.660717	0.000237
C50	C	0.756146	-0.720116	0.000232
C51	C	0.883455	-0.733993	0.000264
C52	C	0.884328	-0.674592	0.000264
C53	C	0.821108	-0.637954	0.000254
C54	C	0.891472	-0.187512	0.000232
C55	C	0.892339	-0.128108	0.000222
C56	C	0.765029	-0.114236	0.000193
C57	C	0.764163	-0.173634	0.000199
C58	C	0.827390	-0.210272	0.000221
O59	O	0.708690	-0.261710	0.000176
O60	O	0.944230	-0.287428	0.000270
C61	C	0.951923	0.071410	0.000259
C62	C	1.029425	0.072340	0.000284
C63	C	0.818423	0.180021	0.000241
C64	C	0.819362	0.243240	0.000252
N65	N	0.824221	0.075881	-0.178938
C66	C	0.866320	0.110340	-0.218525
C67	C	0.866331	0.110339	-0.297772
C68	C	0.824230	0.075885	-0.337430
C69	C	0.782128	0.041419	-0.297834
C70	C	0.782124	0.041417	-0.218587
N71	N	0.763086	0.074482	-0.461885
N72	N	0.763092	0.074487	-0.537166
C73	C	0.824243	0.075887	-0.576194
N74	N	0.885387	0.077293	-0.537098
N75	N	0.885380	0.077291	-0.461810
C76	C	0.824231	0.075882	-0.423359
C77	C	0.866357	0.110346	-0.701710
C78	C	0.866370	0.110340	-0.780959
C79	C	0.782161	0.041423	-0.781019
C80	C	0.782155	0.041426	-0.701771
C81	C	0.824252	0.075890	-0.662122
N82	N	0.824270	0.075885	0.179389
H83	H	0.184052	-0.020158	0.000246
H84	H	0.747840	0.013356	-0.186356
H85	H	0.596537	0.173516	0.000201
N86	N	0.632800	-0.343097	0.000232
N87	N	0.590097	-0.345078	0.053298
H88	H	0.544489	-0.318647	0.053302
H89	H	0.900613	0.138401	-0.330010
N90	N	0.455093	0.182593	0.000217
N91	N	0.479854	0.229324	0.000220
H92	H	0.447328	0.266455	0.000231
N93	N	0.957811	-0.104861	0.000217
N94	N	1.000323	-0.116154	-0.052843
H95	H	1.046562	-0.099738	-0.052847
N96	N	0.739152	0.006232	-0.661320
N97	N	0.766674	-0.031478	-0.617094
H98	H	0.736303	-0.056337	-0.588525
H99	H	0.495937	-0.016404	0.000195
H100	H	1.004180	-0.389768	0.000274
H101	H	0.628050	-0.014822	0.000150
N102	N	0.956063	-0.224921	0.000256
N103	N	1.013274	-0.204583	0.000265
H104	H	1.058892	-0.231003	0.000278
N105	N	0.158282	0.179026	0.000282
N106	N	0.118012	0.224973	0.000290
H107	H	0.138004	0.262738	0.000291
H108	H	0.051943	-0.021745	0.000319
H109	H	0.020438	0.166588	0.000293
H110	H	1.002598	-0.497516	0.000287
H111	H	0.711973	-0.192165	0.000171
N112	N	0.700461	-0.076802	0.000199
N113	N	0.657761	-0.078779	0.053269
H114	H	0.612159	-0.052339	0.053281
H115	H	0.936518	-0.656067	0.000272
N116	N	0.948038	-0.771416	0.000280
N117	N	0.990752	-0.769440	-0.052776
H118	H	1.036362	-0.795870	-0.052766
H119	H	0.705535	-0.630888	0.000222
H120	H	0.900601	0.138401	-0.186247
N121	N	0.909387	0.145539	-0.821387
N122	N	0.946969	0.176304	-0.785972
H123	H	0.977351	0.201164	-0.814524
N124	N	0.690670	-0.743350	0.000205
N125	N	0.634236	-0.710624	0.000186
H126	H	0.587991	-0.727030	0.000169
N127	N	0.631024	-0.463155	0.000219
N128	N	0.574593	-0.430425	0.000213
H129	H	0.528346	-0.446827	0.000210
H130	H	0.747850	0.013366	-0.330128
N131	N	0.739163	0.006229	-0.821530
N132	N	0.739174	0.006233	-0.892285
H133	H	0.708807	-0.018624	-0.920900
H134	H	0.900636	0.138408	-0.669425
