data_functionalizedCrystal
_audit_creation_method	'MofGen! by Chris Wilmer'
_symmetry_space_group_name_H-M	'P1'
_symmetry_Int_Tables_number	1
_symmetry_cell_setting	triclinic
loop_
_symmetry_equiv_pos_as_xyz
  x,y,z
_cell_length_a	21.395362
_cell_length_b	16.120444
_cell_length_c	21.395355
_cell_angle_alpha	87.118536
_cell_angle_beta	90.043940
_cell_angle_gamma	92.943436
loop_
_atom_site_label
_atom_site_type_symbol
_atom_site_fract_x
_atom_site_fract_y
_atom_site_fract_z
Zn1	Zn	0.945240	-0.331660	0.367218
Zn2	Zn	1.278573	0.001673	0.700552
Zn3	Zn	1.611907	0.335007	1.033885
Zn4	Zn	0.939838	-0.471059	0.267751
Zn5	Zn	1.273172	-0.137726	0.601084
Zn6	Zn	1.606505	0.195607	0.934417
Zn7	Zn	0.840453	-0.331699	0.262421
Zn8	Zn	1.173787	0.001634	0.595755
Zn9	Zn	1.507120	0.334968	0.929088
Zn10	Zn	0.835119	-0.471077	0.372456
Zn11	Zn	1.168453	-0.137743	0.705789
Zn12	Zn	1.501786	0.195590	1.039123
O13	O	0.890163	-0.401374	0.317462
O14	O	1.223496	-0.068040	0.650795
O15	O	1.556829	0.265293	0.984128
O16	O	1.032202	-0.350128	0.354062
O17	O	1.365536	-0.016795	0.687396
O18	O	1.698869	0.316538	1.020729
O19	O	0.926626	-0.452582	0.179366
O20	O	1.259960	-0.119249	0.512699
O21	O	1.593293	0.214085	0.846033
O22	O	0.858846	-0.215025	0.271900
O23	O	1.192180	0.118309	0.605234
O24	O	1.525513	0.451642	0.938567
O25	O	1.028234	-0.452544	0.280984
O26	O	1.361567	-0.119211	0.614317
O27	O	1.694900	0.214122	0.947650
O28	O	0.935833	-0.214996	0.348895
O29	O	1.269166	0.118337	0.682228
O30	O	1.602499	0.451671	1.015561
O31	O	0.853609	-0.350194	0.175451
O32	O	1.186942	-0.016861	0.508784
O33	O	1.520275	0.316472	0.842117
O34	O	0.752067	-0.350211	0.276979
O35	O	1.085400	-0.016878	0.610312
O36	O	1.418734	0.316456	0.943646
O37	O	0.849755	-0.452574	0.459439
O38	O	1.183089	-0.119240	0.792772
O39	O	1.516422	0.214093	1.126105
O40	O	0.748148	-0.452611	0.357821
O41	O	1.081481	-0.119278	0.691155
O42	O	1.414815	0.214055	1.024488
O43	O	0.930660	-0.350145	0.455591
O44	O	1.263994	-0.016812	0.788924
O45	O	1.597327	0.316522	1.122257
O46	O	0.921454	-0.587731	0.286062
O47	O	1.254788	-0.254398	0.619396
O48	O	1.588121	0.078936	0.952729
O49	O	0.844518	-0.587743	0.362989
O50	O	1.177851	-0.254410	0.696322
O51	O	1.511184	0.078923	1.029656
C52	C	0.727373	-0.401418	0.317391
C53	C	1.060707	-0.068085	0.650724
C54	C	1.394040	0.265249	0.984057
C55	C	0.657731	-0.401457	0.317376
C56	C	0.991064	-0.068123	0.650709
C57	C	1.324397	0.265210	0.984042
C58	C	0.881838	-0.617988	0.325686
C59	C	1.215171	-0.284655	0.659019
C60	C	1.548505	0.048678	0.992353
C61	C	0.878334	-0.710657	0.329225
C62	C	1.211667	-0.377323	0.662559
C63	C	1.545000	-0.043990	0.995892
C64	C	0.622991	-0.454847	0.359413
C65	C	0.956324	-0.121514	0.692746
C66	C	1.289657	0.211819	1.026080
C67	C	0.557556	-0.454827	0.359440
C68	C	0.890889	-0.121493	0.692773
C69	C	1.224223	0.211840	1.026107
C70	C	0.526864	-0.401425	0.317419
C71	C	0.860197	-0.068091	0.650753
C72	C	1.193530	0.265242	0.984086
C73	C	0.561612	-0.348024	0.275379
C74	C	0.894945	-0.014691	0.608712
C75	C	1.228279	0.318643	0.942046
C76	C	0.627045	-0.348040	0.275357
C77	C	0.960379	-0.014707	0.608690
C78	C	1.293712	0.318627	0.942024
C79	C	0.423394	-0.394708	0.260758
C80	C	0.756728	-0.061375	0.594092
C81	C	1.090061	0.271958	0.927425
C82	C	0.357962	-0.394698	0.260779
C83	C	0.691295	-0.061365	0.594112
C84	C	1.024628	0.271969	0.927446
C85	C	0.325045	-0.401370	0.317486
C86	C	0.658378	-0.068037	0.650820
C87	C	0.991712	0.265296	0.984153
C88	C	0.357568	-0.408070	0.374175
C89	C	0.690901	-0.074737	0.707508
C90	C	1.024235	0.258596	1.040842
C91	C	0.423002	-0.408086	0.374153
C92	C	0.756335	-0.074753	0.707487
C93	C	1.089668	0.258580	1.040820
C94	C	0.455912	-0.401401	0.317438
C95	C	0.789245	-0.068068	0.650772
C96	C	1.122579	0.265266	0.984105
C97	C	0.219353	-0.454741	0.359556
C98	C	0.552686	-0.121408	0.692890
C99	C	0.886020	0.211925	1.026223
C100	C	0.153918	-0.454715	0.359584
C101	C	0.487251	-0.121382	0.692918
C102	C	0.820584	0.211952	1.026251
C103	C	0.157975	-0.347917	0.275518
C104	C	0.491308	-0.014583	0.608851
C105	C	0.824641	0.318750	0.942184
C106	C	0.223409	-0.347939	0.275495
C107	C	0.556742	-0.014605	0.608828
C108	C	0.890076	0.318728	0.942162
C109	C	0.254094	-0.401355	0.317514
C110	C	0.587428	-0.068022	0.650847
C111	C	0.920761	0.265311	0.984180
C112	C	0.908494	-0.921578	0.299236
C113	C	1.241827	-0.588245	0.632569
C114	C	1.575160	-0.254912	0.965902
C115	C	0.871948	-0.880318	0.335694
C116	C	1.205281	-0.546985	0.669027
C117	C	1.538615	-0.213651	1.002361
C118	C	0.875502	-0.785910	0.332094
C119	C	1.208835	-0.452576	0.665427
C120	C	1.542169	-0.119243	0.998760
C121	C	0.904940	-1.015995	0.302835
C122	C	1.238274	-0.682662	0.636168
C123	C	1.571607	-0.349329	0.969502
C124	C	1.053588	-0.401330	0.317533
C125	C	1.386921	-0.067997	0.650867
C126	C	1.720254	0.265337	0.984200
C127	C	1.123230	-0.401312	0.317564
C128	C	1.456563	-0.067978	0.650897
C129	C	1.789896	0.265355	0.984230
C130	C	0.890215	-0.401357	0.480884
C131	C	1.223549	-0.068024	0.814218
C132	C	1.556882	0.265310	1.147551
C133	C	0.890238	-0.401350	0.550525
C134	C	1.223571	-0.068016	0.883859
C135	C	1.556904	0.265317	1.217192
C136	C	0.898537	-0.183914	0.309219
C137	C	1.231870	0.149420	0.642552
C138	C	1.565204	0.482753	0.975885
C139	C	0.902106	-0.091245	0.305706
C140	C	1.235439	0.242088	0.639040
C141	C	1.568772	0.575422	0.972373
C142	C	0.890149	-0.401330	0.154672
C143	C	1.223482	-0.067997	0.488006
C144	C	1.556815	0.265336	0.821339
C145	C	0.890257	-0.401103	0.085023
C146	C	1.223590	-0.067769	0.418356
C147	C	1.556923	0.265564	0.751689
C148	C	0.932363	-0.348013	0.581236
C149	C	1.265697	-0.014679	0.914569
C150	C	1.599030	0.318654	1.247902
C151	C	0.932364	-0.347977	0.646670
C152	C	1.265697	-0.014644	0.980003
C153	C	1.599031	0.318690	1.313336
C154	C	0.890245	-0.401293	0.681392
C155	C	1.223578	-0.067960	1.014725
C156	C	1.556912	0.265374	1.348058
C157	C	0.848111	-0.454633	0.650673
C158	C	1.181445	-0.121300	0.984007
C159	C	1.514778	0.212033	1.317340
C160	C	0.848108	-0.454662	0.585240
C161	C	1.181441	-0.121329	0.918574
C162	C	1.514774	0.212005	1.251907
C163	C	0.882412	-0.476364	0.787915
C164	C	1.215746	-0.143031	1.121248
C165	C	1.549079	0.190303	1.454581
C166	C	0.882420	-0.476337	0.853347
C167	C	1.215754	-0.143004	1.186680
C168	C	1.549087	0.190330	1.520013
C169	C	0.890252	-0.401205	0.883209
C170	C	1.223585	-0.067871	1.216542
C171	C	1.556919	0.265462	1.549876
C172	C	0.898089	-0.326097	0.847631
C173	C	1.231423	0.007236	1.180965
C174	C	1.564756	0.340570	1.514298
C175	C	0.898086	-0.326126	0.782198
C176	C	1.231419	0.007208	1.115531
C177	C	1.564752	0.340541	1.448865
C178	C	0.890244	-0.401268	0.752343
C179	C	1.223577	-0.067934	1.085676
C180	C	1.556910	0.265399	1.419010
C181	C	0.932381	-0.347825	0.984870
C182	C	1.265714	-0.014491	1.318204
C183	C	1.599047	0.318842	1.651537
C184	C	0.932377	-0.347787	1.050306
C185	C	1.265710	-0.014454	1.383639
C186	C	1.599043	0.318879	1.716972
C187	C	0.848127	-0.454451	1.054308
C188	C	1.181460	-0.121118	1.387642
C189	C	1.514794	0.212215	1.720975
C190	C	0.848128	-0.454481	0.988874
C191	C	1.181461	-0.121148	1.322207
C192	C	1.514795	0.212186	1.655541
C193	C	0.890258	-0.401169	0.954159
C194	C	1.223591	-0.067836	1.287492
C195	C	1.556925	0.265498	1.620826
H196	H	0.647970	-0.498342	0.393629
H197	H	0.981304	-0.165009	0.726962
H198	H	1.314637	0.168324	1.060295
Br199	Br	0.815348	-0.939613	0.392224
Br200	Br	1.148681	-0.606280	0.725557
Br201	Br	1.482015	-0.272946	1.058891
H202	H	0.813816	-0.498041	0.678948
H203	H	1.147149	-0.164708	1.012281
H204	H	1.480482	0.168626	1.345615
Br205	Br	0.965088	-0.862282	0.242707
Br206	Br	1.298421	-0.528948	0.576041
Br207	Br	1.631755	-0.195615	0.909374
Br208	Br	0.989537	-0.275658	0.534125
Br209	Br	1.322871	0.057676	0.867458
Br210	Br	1.656204	0.391009	1.200792
H211	H	0.813801	-0.498094	0.560236
H212	H	1.147134	-0.164761	0.893570
H213	H	1.480468	0.168573	1.226903
Br214	Br	0.989524	-0.275565	0.688357
Br215	Br	1.322857	0.057768	1.021691
Br216	Br	1.656191	0.391101	1.355024
H217	H	0.904465	-0.264970	0.753233
H218	H	1.237799	0.068363	1.086566
H219	H	1.571132	0.401696	1.419900
Br220	Br	0.790957	-0.526800	1.101423
Br221	Br	1.124290	-0.193466	1.434756
Br222	Br	1.457623	0.139867	1.768090
H223	H	0.132986	-0.304432	0.241306
H224	H	0.466319	0.028902	0.574640
H225	H	0.799652	0.362235	0.907973
H226	H	0.904468	-0.264917	0.871943
H227	H	1.237801	0.068416	1.205277
H228	H	1.571134	0.401749	1.538610
Br229	Br	0.989554	-0.275472	0.937753
Br230	Br	1.322887	0.057862	1.271087
Br231	Br	1.656220	0.391195	1.604420
H232	H	0.655331	-0.304561	0.241125
H233	H	0.988664	0.028773	0.574459
H234	H	1.321997	0.362106	0.907792
Br235	Br	0.510399	-0.527289	0.416496
Br236	Br	0.843732	-0.193955	0.749829
Br237	Br	1.177065	0.139378	1.083162
H238	H	0.330769	-0.413502	0.420352
H239	H	0.664102	-0.080169	0.753685
H240	H	0.997435	0.253165	1.087018
Br241	Br	0.270560	-0.275476	0.218441
Br242	Br	0.603893	0.057857	0.551775
Br243	Br	0.937226	0.391190	0.885108
Br244	Br	0.989562	-0.275407	1.091986
Br245	Br	1.322895	0.057926	1.425319
Br246	Br	1.656228	0.391259	1.758653
H247	H	0.876043	-0.537494	0.882309
H248	H	1.209376	-0.204161	1.215643
H249	H	1.542709	0.129172	1.548976
H250	H	0.449479	-0.413539	0.420311
H251	H	0.782813	-0.080206	0.753645
H252	H	1.116146	0.253127	1.086978
H253	H	0.813828	-0.497919	0.963870
H254	H	1.147161	-0.164585	1.297203
H255	H	1.480495	0.168748	1.630536
H256	H	0.244339	-0.498232	0.393774
H257	H	0.577672	-0.164899	0.727107
H258	H	0.911005	0.168434	1.060440
Br259	Br	0.871801	-0.578341	0.747395
Br260	Br	1.205135	-0.245008	1.080728
Br261	Br	1.538468	0.088326	1.414061
H262	H	0.331486	-0.389248	0.214620
H263	H	0.664820	-0.055914	0.547953
H264	H	0.998153	0.277419	0.881286
Br265	Br	0.106769	-0.527173	0.416645
Br266	Br	0.440102	-0.193840	0.749979
Br267	Br	0.773435	0.139494	1.083312
H268	H	0.536618	-0.304542	0.241166
H269	H	0.869951	0.028791	0.574500
H270	H	1.203285	0.362125	0.907833
Br271	Br	0.468061	-0.385653	0.183791
Br272	Br	0.801394	-0.052320	0.517124
Br273	Br	1.134727	0.281013	0.850458
