data_functionalizedCrystal
_audit_creation_method	'MofGen! by Chris Wilmer'
_symmetry_space_group_name_H-M	'P1'
_symmetry_Int_Tables_number	1
_symmetry_cell_setting	triclinic
loop_
_symmetry_equiv_pos_as_xyz
  x,y,z
_cell_length_a	6.817900
_cell_length_b	11.102291
_cell_length_c	14.858572
_cell_angle_alpha	93.467503
_cell_angle_beta	104.524003
_cell_angle_gamma	108.605753
loop_
_atom_site_label
_atom_site_type_symbol
_atom_site_fract_x
_atom_site_fract_y
_atom_site_fract_z
V1	V	-4.064548	-0.176639	-0.289961
O2	O	-4.024474	0.007665	-0.284440
O3	O	-4.041647	-0.349454	-0.287978
O4	O	-4.020838	-0.174283	-0.416422
O5	O	-4.045427	-0.168718	-0.155107
V6	V	-4.544264	-0.154551	-0.273831
O7	O	-4.334157	-0.225090	-0.325343
O8	O	-4.724852	-0.106101	-0.238449
O9	O	-4.343959	0.018263	-0.275814
O10	O	-4.701735	-0.338856	-0.279352
O11	O	-4.680782	-0.162472	-0.408685
O12	O	-4.364768	-0.156907	-0.147370
C13	C	-3.892700	-0.391571	-0.283404
C14	C	-3.955293	-0.532852	-0.282626
C15	C	-3.866154	-0.168122	-0.447246
C16	C	-3.911869	-0.167339	-0.550629
C17	C	-4.089859	-0.750358	-0.366699
C18	C	-4.031066	-0.617610	-0.367429
C19	C	-3.938335	-0.580849	-0.197090
C20	C	-3.997142	-0.713595	-0.196362
C21	C	-4.165611	-0.835109	-0.451507
C22	C	-4.182578	-0.787122	-0.537044
C23	C	-4.123785	-0.654374	-0.537773
C24	C	-4.048025	-0.569613	-0.452965
C25	C	-4.079186	-0.164478	-0.929197
C26	C	-4.032625	-0.165274	-0.823868
C27	C	-3.995529	-0.165910	-0.739917
C28	C	-3.948965	-0.166704	-0.634581
C29	C	-4.156249	0.060374	-0.280385
C30	C	-4.072894	0.201654	-0.281169
C31	C	-4.182794	-0.163073	-0.116541
C32	C	-4.116317	-0.163849	-0.013157
H33	H	-4.213482	-0.943201	-0.450922
O34	O	-3.864599	-0.498335	-0.114796
C35	C	-3.816379	-0.370881	-0.133781
H36	H	-3.784554	-0.366298	-0.205464
H37	H	-3.958782	-0.338047	-0.134034
C38	C	-3.653422	-0.287832	0.030699
C39	C	-3.614316	-0.282200	-0.057341
H40	H	-3.528786	-0.233127	0.077852
H41	H	-3.685915	-0.373699	0.043491
H42	H	-3.772097	-0.260472	0.030474
H43	H	-3.495661	-0.309575	-0.057119
H44	H	-3.581798	-0.196335	-0.070131
O45	O	-3.980833	-0.760080	-0.113228
C46	C	-4.112418	-0.722660	-0.066011
H47	H	-4.140949	-0.633553	-0.092218
H48	H	-4.273872	-0.804235	-0.080502
C49	C	-3.964470	-0.801398	0.072731
C50	C	-3.999498	-0.691949	0.040549
H51	H	-3.894823	-0.782460	0.138463
H52	H	-3.875825	-0.826614	0.040920
H53	H	-4.099027	-0.869368	0.060647
H54	H	-3.864942	-0.623988	0.052622
H55	H	-4.088118	-0.666721	0.072365
O56	O	-4.255879	-0.869314	-0.619476
C57	C	-4.095581	-0.841909	-0.667047
H58	H	-3.981653	-0.738244	-0.641889
H59	H	-4.000318	-0.909753	-0.651746
C60	C	-4.342993	-0.987684	-0.804569
C61	C	-4.203074	-0.860357	-0.773674
H62	H	-4.409297	-0.999069	-0.870341
H63	H	-4.450988	-1.006152	-0.772518
H64	H	-4.263586	-1.044206	-0.791809
H65	H	-4.282487	-0.803839	-0.786423
H66	H	-4.095095	-0.841880	-0.805729
H67	H	-4.000174	-0.461523	-0.453567
O68	O	-4.140600	-0.607710	-0.620845
C69	C	-4.283452	-0.538171	-0.630767
H70	H	-4.396558	-0.572055	-0.585298
H71	H	-4.187072	-0.431231	-0.607445
C72	C	-4.277984	-0.519283	-0.790375
C73	C	-4.416915	-0.560907	-0.734536
H74	H	-4.360305	-0.533301	-0.854385
H75	H	-4.181735	-0.566128	-0.783691
H76	H	-4.197676	-0.430169	-0.770929
H77	H	-4.497200	-0.650023	-0.753974
H78	H	-4.513181	-0.514077	-0.741226
