data_functionalizedCrystal
_audit_creation_method	'MofGen! by Chris Wilmer'
_symmetry_space_group_name_H-M	'P1'
_symmetry_Int_Tables_number	1
_symmetry_cell_setting	triclinic
loop_
_symmetry_equiv_pos_as_xyz
  x,y,z
_cell_length_a	17.699077
_cell_length_b	17.699083
_cell_length_c	9.130313
_cell_angle_alpha	89.997869
_cell_angle_beta	90.000329
_cell_angle_gamma	83.281795
loop_
_atom_site_label
_atom_site_type_symbol
_atom_site_fract_x
_atom_site_fract_y
_atom_site_fract_z
O1	O	1.004074	0.095686	-0.121783
O2	O	0.783695	0.108144	-0.121790
O3	O	0.900111	-0.008274	-0.121773
O4	O	0.887659	0.212104	-0.121800
O5	O	0.900110	-0.008271	0.121825
O6	O	0.783694	0.108147	0.121808
O7	O	1.004073	0.095689	0.121816
Cu8	Cu	0.893883	0.101918	0.144055
Cu9	Cu	0.893885	0.101915	-0.144029
O10	O	0.887657	0.212107	0.121799
C11	C	0.755498	0.107700	0.000008
C12	C	0.671479	0.106363	0.000006
C13	C	0.632011	0.105735	0.132793
C14	C	0.553069	0.104466	0.132795
C15	C	0.513595	0.103832	0.000008
C16	C	0.553069	0.104458	-0.132790
C17	C	0.632011	0.105721	-0.132790
C18	C	0.234706	0.099364	-0.132792
C19	C	0.155758	0.098104	-0.132782
C20	C	0.155763	0.098110	0.132793
C21	C	0.234705	0.099373	0.132793
C22	C	0.274173	0.099995	-0.000004
C23	C	0.359772	0.101369	-0.000004
C24	C	0.427997	0.102464	0.000006
C25	C	0.899664	-0.036470	0.000026
C26	C	0.898326	-0.120488	0.000027
C27	C	0.966659	-0.169110	0.000031
C28	C	0.965397	-0.248054	0.000018
C29	C	0.895800	-0.278373	0.000011
C30	C	0.827461	-0.229744	0.000002
C31	C	0.828724	-0.150803	0.000005
C32	C	0.822366	-0.548107	-0.000010
C33	C	0.821108	-0.627055	-0.000008
C34	C	0.959039	-0.645358	0.000004
C35	C	0.960302	-0.566417	0.000006
C36	C	0.891963	-0.517795	-0.000010
C37	C	0.893333	-0.432196	0.000001
C38	C	0.894430	-0.363971	0.000010
C39	C	1.032271	0.096133	0.000014
C40	C	1.116289	0.097470	0.000007
C41	C	0.888104	0.240303	-0.000004
C42	C	0.889443	0.324321	-0.000014
N43	N	0.893888	0.101920	0.346677
N44	N	0.893887	0.101907	-0.346652
C45	C	0.945450	0.050388	0.423337
C46	C	0.945448	0.050379	0.576674
C47	C	0.842319	0.153442	0.576678
C48	C	0.842318	0.153446	0.423344
C49	C	1.004992	-0.009112	0.423336
C50	C	1.004990	-0.009121	0.576672
H51	H	0.266840	0.099893	0.240922
C52	C	1.034213	-0.698841	0.000005
H53	H	1.075841	-0.669476	0.000026
H54	H	1.036593	-0.730014	-0.084944
H55	H	1.036585	-0.730018	0.084963
C56	C	1.036857	-0.533069	0.000007
H57	H	1.077375	-0.573334	-0.000006
H58	H	1.040219	-0.502655	0.084953
H59	H	1.040213	-0.502655	-0.084954
H60	H	0.764431	-0.651737	-0.000011
H61	H	0.664144	0.106234	-0.240919
C62	C	0.509650	0.103762	-0.278853
H63	H	0.456981	0.102928	-0.259837
H64	H	0.528441	0.059849	-0.333413
H65	H	0.516733	0.148093	-0.333414
C66	C	1.083376	0.007571	0.632912
H67	H	1.083373	0.007557	0.736965
H68	H	1.093643	0.055938	0.598248
H69	H	1.121471	-0.030496	0.598235
H70	H	0.664144	0.106257	0.240924
H71	H	1.059754	0.008742	0.375777
H72	H	0.766721	-0.508528	-0.000023
H73	H	0.800332	0.195392	0.639117
C74	C	1.043217	-0.135766	0.000039
H75	H	1.083732	-0.176033	0.000026
H76	H	1.046578	-0.105353	0.084987
H77	H	1.046576	-0.105351	-0.084921
H78	H	0.770794	-0.254436	-0.000012
C79	C	0.753558	-0.097318	0.000004
H80	H	0.711927	-0.126680	0.000012
H81	H	0.751185	-0.066140	-0.084944
H82	H	0.751182	-0.066145	0.084963
C83	C	0.988357	-0.087517	0.367108
H84	H	0.981508	-0.119764	0.448036
H85	H	1.029865	-0.109462	0.309305
H86	H	0.943419	-0.081692	0.309308
H87	H	1.021041	-0.287639	0.000025
H88	H	0.987180	-0.063906	0.624225
C89	C	0.785596	0.210127	0.339023
H90	H	0.754890	0.240816	0.406647
H91	H	0.754147	0.182939	0.279205
H92	H	0.812761	0.241608	0.279212
H93	H	0.123620	0.097600	0.240922
C94	C	0.509656	0.103781	0.278861
H95	H	0.544470	0.104351	0.357943
H96	H	0.484717	0.059170	0.284399
H97	H	0.473005	0.147414	0.284366
H98	H	0.123621	0.097587	-0.240920
H99	H	0.266831	0.099868	-0.240923
