data_functionalizedCrystal
_audit_creation_method	'MofGen! by Chris Wilmer'
_symmetry_space_group_name_H-M	'P1'
_symmetry_Int_Tables_number	1
_symmetry_cell_setting	triclinic
loop_
_symmetry_equiv_pos_as_xyz
  x,y,z
_cell_length_a	19.805407
_cell_length_b	19.805405
_cell_length_c	19.805399
_cell_angle_alpha	90.026615
_cell_angle_beta	90.019573
_cell_angle_gamma	90.026726
loop_
_atom_site_label
_atom_site_type_symbol
_atom_site_fract_x
_atom_site_fract_y
_atom_site_fract_z
Zn1	Zn	1.034734	-0.269479	0.382724
Zn2	Zn	1.534734	0.230521	0.882724
Zn3	Zn	1.034648	-0.382667	0.269538
Zn4	Zn	1.534648	0.117333	0.769538
Zn5	Zn	0.921549	-0.269498	0.269549
Zn6	Zn	1.421549	0.230502	0.769549
Zn7	Zn	0.921512	-0.382631	0.382685
Zn8	Zn	1.421512	0.117369	0.882685
O9	O	0.978111	-0.326069	0.326124
O10	O	1.478111	0.173931	0.826124
O11	O	1.129439	-0.284501	0.367722
O12	O	1.629439	0.215499	0.867722
O13	O	1.019625	-0.367678	0.174823
O14	O	1.519625	0.132322	0.674823
O15	O	0.936615	-0.174778	0.284583
O16	O	1.436615	0.325222	0.784583
O17	O	1.129376	-0.367660	0.284564
O18	O	1.629376	0.132340	0.784564
O19	O	1.019771	-0.174765	0.367732
O20	O	1.519771	0.325235	0.867732
O21	O	0.936531	-0.284533	0.174831
O22	O	1.436531	0.215467	0.674831
O23	O	0.826827	-0.284498	0.284544
O24	O	1.326827	0.215502	0.784544
O25	O	0.936551	-0.367598	0.477406
O26	O	1.436551	0.132402	0.977406
O27	O	0.826800	-0.367617	0.367665
O28	O	1.326800	0.132383	0.867665
O29	O	1.019735	-0.284466	0.477436
O30	O	1.519735	0.215534	0.977436
O31	O	1.019589	-0.477379	0.284526
O32	O	1.519589	0.022621	0.784526
O33	O	0.936468	-0.477353	0.367654
O34	O	1.436468	0.022647	0.867654
C35	C	0.802255	-0.326056	0.326102
C36	C	1.302255	0.173944	0.826102
C37	C	0.727023	-0.326067	0.326109
C38	C	1.227023	0.173933	0.826109
C39	C	0.691682	-0.369412	0.369319
C40	C	1.191682	0.130588	0.869319
C41	C	0.620994	-0.369413	0.369329
C42	C	1.120994	0.130587	0.869329
C43	C	0.585647	-0.326072	0.326124
C44	C	1.085647	0.173928	0.826124
C45	C	0.620993	-0.282722	0.282911
C46	C	1.120993	0.217278	0.782911
C47	C	0.691680	-0.282718	0.282906
C48	C	1.191680	0.217282	0.782906
C49	C	0.335920	-0.282737	0.282934
C50	C	0.835920	0.217263	0.782934
C51	C	0.265227	-0.282746	0.282941
C52	C	0.765227	0.217254	0.782941
C53	C	0.265233	-0.369432	0.369357
C54	C	0.765233	0.130568	0.869357
C55	C	0.335920	-0.369428	0.369351
C56	C	0.835920	0.130572	0.869351
C57	C	0.371260	-0.326076	0.326142
C58	C	0.871260	0.173924	0.826142
C59	C	0.447908	-0.326074	0.326133
C60	C	0.947908	0.173926	0.826133
C61	C	0.509000	-0.326076	0.326129
C62	C	1.009000	0.173924	0.826129
C63	C	0.978034	-0.501925	0.326099
C64	C	1.478034	-0.001925	0.826099
C65	C	0.978063	-0.577157	0.326112
C66	C	1.478063	-0.077157	0.826112
C67	C	1.021337	-0.612436	0.369441
C68	C	1.521337	-0.112436	0.869441
C69	C	1.021361	-0.683124	0.369454
C70	C	1.521361	-0.183124	0.869454
C71	C	0.978114	-0.718532	0.326133
C72	C	1.478114	-0.218532	0.826133
C73	C	0.934835	-0.683249	0.282801
C74	C	1.434835	-0.183249	0.782801
C75	C	0.934808	-0.612561	0.282792
C76	C	1.434808	-0.112561	0.782792
C77	C	0.934944	-0.968322	0.282836
C78	C	1.434944	-0.468322	0.782836
C79	C	0.934976	-1.039014	0.282846
C80	C	1.434976	-0.539014	0.782846
C81	C	1.021497	-1.038884	0.369497
C82	C	1.521497	-0.538884	0.869497
C83	C	1.021470	-0.968197	0.369489
C84	C	1.521470	-0.468197	0.869489
C85	C	0.978189	-0.932920	0.326160
C86	C	1.478189	-0.432920	0.826160
C87	C	0.978162	-0.856271	0.326147
C88	C	1.478162	-0.356271	0.826147
C89	C	0.978144	-0.795179	0.326141
C90	C	1.478144	-0.295179	0.826141
C91	C	1.154653	-0.326082	0.326146
C92	C	1.654653	0.173918	0.826146
C93	C	1.229885	-0.326088	0.326156
C94	C	1.729885	0.173912	0.826156
C95	C	0.978149	-0.326026	0.502667
C96	C	1.478149	0.173974	1.002667
C97	C	0.978165	-0.326008	0.577899
C98	C	1.478165	0.173992	1.077899
C99	C	0.978207	-0.149526	0.326163
C100	C	1.478207	0.350474	0.826163
C101	C	0.978248	-0.074294	0.326180
C102	C	1.478248	0.425706	0.826180
C103	C	0.978112	-0.326062	0.150268
C104	C	1.478112	0.173938	0.650268
C105	C	0.978227	-0.325890	0.075036
C106	C	1.478227	0.174110	0.575036
C107	C	1.021480	-0.282719	0.613259
C108	C	1.521480	0.217281	1.113259
C109	C	1.021487	-0.282699	0.683948
C110	C	1.521487	0.217301	1.183948
C111	C	0.978182	-0.325973	0.719274
C112	C	1.478182	0.174027	1.219274
C113	C	0.934862	-0.369264	0.683909
C114	C	1.434862	0.130736	1.183909
C115	C	0.934852	-0.369279	0.613222
C116	C	1.434852	0.130721	1.113222
C117	C	0.934900	-0.369201	0.968982
C118	C	1.434900	0.130799	1.468982
C119	C	0.934915	-0.369183	1.039675
C120	C	1.434915	0.130817	1.539675
C121	C	1.021535	-0.282620	1.039708
C122	C	1.521535	0.217380	1.539708
C123	C	1.021525	-0.282636	0.969021
C124	C	1.521525	0.217364	1.469021
C125	C	0.978203	-0.325924	0.933662
C126	C	1.478203	0.174076	1.433662
C127	C	0.978195	-0.325944	0.857013
C128	C	1.478195	0.174056	1.357013
C129	C	0.978193	-0.325957	0.795922
C130	C	1.478193	0.174043	1.295922
H131	H	0.236451	-0.404729	0.404543
H132	H	0.736451	0.095271	0.904543
H133	H	1.056737	-1.067616	0.404780
H134	H	1.556737	-0.567616	0.904780
H135	H	0.236450	-0.247448	0.247758
H136	H	0.736450	0.252552	0.747758
H137	H	0.899574	-0.404523	0.584432
H138	H	1.399574	0.095477	1.084432
N139	N	1.068251	-0.235923	1.077853
N140	N	1.568251	0.264077	1.577853
H141	H	1.057764	-0.187565	1.065557
H142	H	1.557764	0.312435	1.565557
H143	H	1.116586	-0.246499	1.065547
H144	H	1.616586	0.253501	1.565547
N145	N	0.582868	-0.235988	0.236301
N146	N	1.082868	0.264012	0.736301
H147	H	0.553555	-0.204660	0.263855
H148	H	1.053555	0.295340	0.763855
H149	H	0.553563	-0.263519	0.204903
H150	H	1.053563	0.236481	0.704903
H151	H	1.056746	-0.247482	0.584501
H152	H	1.556746	0.252518	1.084501
H153	H	1.056791	-0.247400	0.940261
H154	H	1.556791	0.252600	1.440261
H155	H	0.899756	-1.067841	0.247568
H156	H	1.399756	-0.567841	0.747568
H157	H	1.056605	-0.711845	0.404732
H158	H	1.556605	-0.211845	0.904732
N159	N	0.888195	-0.721438	0.236071
N160	N	1.388195	-0.221438	0.736071
H161	H	0.860776	-0.688360	0.208621
H162	H	1.360776	-0.188360	0.708621
H163	H	0.856867	-0.750779	0.263595
H164	H	1.356867	-0.250779	0.763595
H165	H	1.056760	-0.247450	0.712735
H166	H	1.556760	0.252550	1.212735
H167	H	0.720456	-0.404707	0.404500
H168	H	1.220456	0.095293	0.904500
N169	N	0.888204	-0.415852	1.077786
N170	N	1.388204	0.084148	1.577786
H171	H	0.898679	-0.464219	1.065478
H172	H	1.398679	0.035781	1.565478
H173	H	0.839865	-0.405275	1.065469
H174	H	1.339865	0.094725	1.565469
N175	N	0.582875	-0.416173	0.415925
N176	N	1.082875	0.083827	0.915925
H177	H	0.615993	-0.443635	0.443287
H178	H	1.115993	0.056365	0.943287
H179	H	0.553527	-0.447455	0.388308
H180	H	1.053527	0.052545	0.888308
H181	H	1.056688	-0.939370	0.404762
H182	H	1.556688	-0.439370	0.904762
N183	N	0.374031	-0.235970	0.236342
N184	N	0.874031	0.264030	0.736342
H185	H	0.340911	-0.208514	0.208976
H186	H	0.840911	0.291486	0.708976
H187	H	0.403343	-0.263465	0.204962
H188	H	0.903343	0.236535	0.704962
H189	H	0.720453	-0.247418	0.247723
H190	H	1.220453	0.252582	0.747723
N191	N	0.374044	-0.416178	0.415946
N192	N	0.874044	0.083822	0.915946
H193	H	0.340929	-0.443638	0.443323
H194	H	0.840929	0.056362	0.943323
H195	H	0.403398	-0.388666	0.447315
H196	H	0.903398	0.111334	0.947315
N197	N	0.888271	-0.930277	0.236098
N198	N	1.388271	-0.430277	0.736098
H199	H	0.860884	-0.963437	0.208653
H200	H	1.360884	-0.463437	0.708653
H201	H	0.915834	-0.900946	0.204799
H202	H	1.415834	-0.400946	0.704799
N203	N	0.888150	-0.415942	0.721999
N204	N	1.388150	0.084058	1.221999
H205	H	0.839795	-0.405425	0.709686
H206	H	1.339795	0.094575	1.209686
H207	H	0.894781	-0.409351	0.772134
H208	H	1.394781	0.090649	1.272134
H209	H	1.056556	-0.583611	0.404715
H210	H	1.556556	-0.083611	0.904715
N211	N	0.888132	-0.574507	0.236060
N212	N	1.388132	-0.074507	0.736060
H213	H	0.860740	-0.607663	0.208617
H214	H	1.360740	-0.107663	0.708617
H215	H	0.915689	-0.545172	0.204760
H216	H	1.415689	-0.045172	0.704760
H217	H	0.899635	-0.404459	0.940201
H218	H	1.399635	0.095541	1.440201
