data_functionalizedCrystal
_audit_creation_method	'MofGen! by Chris Wilmer'
_symmetry_space_group_name_H-M	'P1'
_symmetry_Int_Tables_number	1
_symmetry_cell_setting	triclinic
loop_
_symmetry_equiv_pos_as_xyz
  x,y,z
_cell_length_a	17.699083
_cell_length_b	13.330367
_cell_length_c	17.699092
_cell_angle_alpha	90.002963
_cell_angle_beta	83.284691
_cell_angle_gamma	90.001523
loop_
_atom_site_label
_atom_site_type_symbol
_atom_site_fract_x
_atom_site_fract_y
_atom_site_fract_z
O1	O	1.004082	0.083279	0.095710
O2	O	0.783704	0.083312	0.108163
O3	O	0.900116	0.083292	-0.008252
O4	O	0.887670	0.083299	0.212125
O5	O	0.900099	-0.083555	-0.008255
O6	O	0.783687	-0.083536	0.108160
O7	O	1.004065	-0.083568	0.095708
Cu8	Cu	0.893875	-0.098786	0.101934
Cu9	Cu	0.893895	0.098530	0.101937
O10	O	0.887653	-0.083549	0.212123
C11	C	0.755499	-0.000108	0.107715
C12	C	0.671480	-0.000095	0.106377
N13	N	0.893866	-0.237568	0.101931
C14	C	0.622862	-0.000094	0.174710
C15	C	0.543918	-0.000107	0.173448
C16	C	0.513595	-0.000114	0.103851
C17	C	0.562220	-0.000119	0.035513
C18	C	0.641162	-0.000113	0.036776
C19	C	0.243857	-0.000144	0.030418
C20	C	0.164909	-0.000147	0.029160
C21	C	0.146613	-0.000138	0.167089
C22	C	0.225555	-0.000132	0.168352
C23	C	0.274173	-0.000142	0.100014
C24	C	0.359772	-0.000129	0.101384
C25	C	0.427998	-0.000119	0.102481
C26	C	0.842345	-0.710182	0.153465
C27	C	0.945464	-0.710167	0.050402
C28	C	0.945456	-0.605149	0.050400
C29	C	0.893892	-0.552642	0.101932
C30	C	0.842337	-0.605154	0.153466
C31	C	0.997015	-0.552629	-0.001128
C32	C	0.997009	-0.447605	-0.001132
C33	C	0.945441	-0.395096	0.050397
C34	C	0.893883	-0.447614	0.101933
C35	C	0.842319	-0.395108	0.153464
C36	C	0.790757	-0.447624	0.204997
C37	C	0.790768	-0.552645	0.204995
C38	C	0.945430	-0.290074	0.050399
C39	C	0.842311	-0.290079	0.153465
C40	C	1.032271	-0.000146	0.096155
C41	C	1.116289	-0.000152	0.097494
C42	C	0.899661	-0.000130	-0.036450
C43	C	0.898319	-0.000125	-0.120468
N44	N	0.893909	0.237311	0.101933
C45	C	0.897700	0.090825	-0.159934
C46	C	0.896435	0.090826	-0.238877
C47	C	0.895795	-0.000123	-0.278353
C48	C	0.896412	-0.091080	-0.238881
C49	C	0.897671	-0.091080	-0.159939
C50	C	0.891332	-0.091081	-0.557247
C51	C	0.890074	-0.091073	-0.636195
C52	C	0.890096	0.090826	-0.636184
C53	C	0.891355	0.090825	-0.557242
C54	C	0.891968	-0.000131	-0.517777
C55	C	0.893338	-0.000131	-0.432178
C56	C	0.894430	-0.000124	-0.363952
C57	C	0.888109	-0.000124	0.240321
C58	C	0.889450	-0.000123	0.324339
H59	H	0.504335	-0.000104	0.229091
H60	H	0.987415	-0.247320	0.008446
O61	O	0.895893	-0.179494	-0.277155
C62	C	0.961061	-0.334951	-0.310039
C63	C	0.961732	-0.234867	-0.266648
H64	H	1.014293	-0.379739	-0.301572
H65	H	0.908393	-0.379864	-0.287486
H66	H	0.960020	-0.319309	-0.373232
H67	H	0.962799	-0.250418	-0.203448
H68	H	1.014394	-0.189985	-0.289263
O69	O	0.254884	-0.000170	0.236024
C70	C	0.228402	-0.000110	0.372703
C71	C	0.195088	-0.000085	0.296118
H72	H	0.180074	-0.000020	0.421309
H73	H	0.264877	-0.069950	0.376791
H74	H	0.264929	0.069701	0.376703
H75	H	0.158527	-0.069849	0.292066
H76	H	0.158657	0.069801	0.292062
O77	O	0.652439	-0.000038	0.242251
C78	C	0.765940	-0.000081	0.305331
C79	C	0.732548	-0.000118	0.228787
H80	H	0.830712	-0.000166	0.294472
H81	H	0.745957	0.069762	0.339103
H82	H	0.745863	-0.069889	0.339091
H83	H	0.752610	0.069643	0.194965
H84	H	0.752527	-0.070007	0.195073
H85	H	1.038993	-0.404852	-0.043092
O86	O	0.889310	-0.179455	-0.674487
C87	C	0.823371	-0.334932	-0.689920
C88	C	0.824134	-0.234873	-0.646508
H89	H	0.770690	-0.379775	-0.667305
H90	H	0.822318	-0.319370	-0.753124
H91	H	0.876579	-0.379760	-0.681433
H92	H	0.770935	-0.189995	-0.654933
H93	H	0.825226	-0.250506	-0.583320
H94	H	0.748777	-0.404861	0.246958
H95	H	1.039001	-0.595384	-0.043080
O96	O	0.792155	-0.761147	0.203445
C97	C	0.660475	-0.793245	0.247982
C98	C	0.717232	-0.735481	0.191328
H99	H	0.599888	-0.772500	0.238216
H100	H	0.669268	-0.877338	0.239130
H101	H	0.670260	-0.772606	0.308586
H102	H	0.707482	-0.756036	0.130701
H103	H	0.708426	-0.651402	0.200246
O104	O	0.740584	-0.603618	0.254975
C105	C	0.608909	-0.635746	0.299515
C106	C	0.665656	-0.577970	0.242860
H107	H	0.548318	-0.615016	0.289751
H108	H	0.617713	-0.719838	0.290662
H109	H	0.618692	-0.615106	0.360119
H110	H	0.655907	-0.598526	0.182234
H111	H	0.656839	-0.493892	0.251781
H112	H	0.898226	0.164886	-0.127799
H113	H	0.895934	0.164886	-0.271007
O114	O	0.892041	-0.179362	-0.518842
C115	C	0.959028	-0.284952	-0.438445
C116	C	0.958308	-0.184926	-0.481897
H117	H	1.012607	-0.289492	-0.408577
H118	H	0.906708	-0.289510	-0.394416
H119	H	0.958323	-0.349944	-0.480225
H120	H	0.959039	-0.119877	-0.440175
H121	H	1.010623	-0.180455	-0.525937
O122	O	0.891941	0.179263	-0.519008
C123	C	0.891868	0.359689	-0.527337
C124	C	0.891189	0.259605	-0.570727
H125	H	0.891277	0.424671	-0.569135
H126	H	0.839498	0.364310	-0.483375
H127	H	0.945392	0.364174	-0.497378
H128	H	0.837700	0.255053	-0.600732
H129	H	0.943595	0.255026	-0.614646
O130	O	0.995513	-0.761063	0.000241
C131	C	1.040053	-0.793264	-0.131424
C132	C	0.983346	-0.735536	-0.074694
H133	H	1.030225	-0.772662	-0.192022
H134	H	1.100671	-0.772592	-0.121713
H135	H	1.031208	-0.877340	-0.122529
H136	H	0.992121	-0.651447	-0.083555
H137	H	0.922748	-0.756291	-0.084420
H138	H	0.107018	-0.000135	0.222733
O139	O	0.898165	-0.179490	-0.121665
C140	C	0.832946	-0.334910	-0.088776
C141	C	0.832310	-0.234833	-0.132173
H142	H	0.779701	-0.379674	-0.097243
H143	H	0.885601	-0.379852	-0.111322
H144	H	0.833988	-0.319256	-0.025582
H145	H	0.831242	-0.250395	-0.195372
H146	H	0.779661	-0.189922	-0.109564
H147	H	0.140224	-0.000154	-0.027517
H148	H	0.283433	-0.000153	-0.025227
H149	H	0.537525	-0.000139	-0.021154
O150	O	0.688285	-0.000065	-0.029673
C151	C	0.698107	-0.000131	-0.166618
C152	C	0.644655	-0.000158	-0.091420
H153	H	0.662854	-0.000227	-0.216560
H154	H	0.735508	0.069713	-0.169527
H155	H	0.735540	-0.069937	-0.169434
H156	H	0.607175	0.069602	-0.088554
H157	H	0.607306	-0.070048	-0.088543
H158	H	0.889593	0.164886	-0.668326
H159	H	0.800318	-0.247335	0.195426
