data_functionalizedCrystal
_audit_creation_method	'MofGen! by Chris Wilmer'
_symmetry_space_group_name_H-M	'P1'
_symmetry_Int_Tables_number	1
_symmetry_cell_setting	triclinic
loop_
_symmetry_equiv_pos_as_xyz
  x,y,z
_cell_length_a	6.817900
_cell_length_b	11.102188
_cell_length_c	16.015572
_cell_angle_alpha	76.744489
_cell_angle_beta	104.485554
_cell_angle_gamma	108.603875
loop_
_atom_site_label
_atom_site_type_symbol
_atom_site_fract_x
_atom_site_fract_y
_atom_site_fract_z
V1	V	-3.999218	-0.051261	-0.269393
O2	O	-3.960398	0.130656	-0.264265
O3	O	-3.976753	-0.224933	-0.267551
O4	O	-3.927020	0.005776	-0.386885
O5	O	-4.010476	-0.101650	-0.144105
V6	V	-4.482569	-0.036148	-0.254407
O7	O	-4.260853	-0.084413	-0.302265
O8	O	-4.671130	-0.002996	-0.221536
O9	O	-4.281826	0.137524	-0.256250
O10	O	-4.638785	-0.218065	-0.259536
O11	O	-4.588707	0.014242	-0.379696
O12	O	-4.331560	-0.093185	-0.136916
C13	C	-3.828834	-0.269028	-0.263301
C14	C	-3.891595	-0.410645	-0.262578
C15	C	-3.893896	-0.495618	-0.183115
C16	C	-3.952889	-0.628682	-0.182438
C17	C	-4.007269	-0.591787	-0.340695
C18	C	-3.948291	-0.458726	-0.341371
C19	C	-3.765392	0.025266	-0.415522
C20	C	-3.787818	0.070751	-0.511572
C21	C	-4.136743	-0.332975	-0.889205
C22	C	-4.157813	-0.290193	-0.979454
C23	C	-4.047772	-0.068856	-0.954747
C24	C	-4.026681	-0.111619	-0.864494
C25	C	-4.071173	-0.243680	-0.831730
C26	C	-3.961112	-0.022324	-0.807019
C27	C	-3.940034	-0.065084	-0.716774
C28	C	-3.984527	-0.197139	-0.684003
C29	C	-4.050096	-0.286440	-0.741485
C30	C	-3.916635	0.109736	-0.839785
C31	C	-3.851065	0.199031	-0.782310
C32	C	-3.829972	0.156271	-0.692063
C33	C	-3.874465	0.024216	-0.659292
C34	C	-3.764403	0.245572	-0.634581
C35	C	-3.743326	0.202812	-0.544335
C36	C	-3.853387	-0.018544	-0.569047
C37	C	-4.093090	0.181611	-0.260497
C38	C	-4.009566	0.323230	-0.261226
C39	C	-4.156531	-0.112681	-0.108274
C40	C	-4.113344	-0.158160	-0.012223
H41	H	-4.053434	-0.630952	-0.404846
O42	O	-3.838473	-0.448843	-0.106592
C43	C	-3.629625	-0.368703	-0.098153
H44	H	-3.541811	-0.395358	-0.139988
H45	H	-3.546814	-0.382089	-0.026801
H46	H	-3.631368	-0.263863	-0.120846
O47	O	-3.954914	-0.711042	-0.105169
C48	C	-3.892280	-0.640066	-0.035775
H49	H	-3.794921	-0.538255	-0.057959
H50	H	-3.793256	-0.689031	0.022056
H51	H	-4.038009	-0.635519	-0.015308
O52	O	-3.946077	-0.376351	-0.418641
C53	C	-4.008797	-0.447319	-0.488042
H54	H	-3.979580	-0.546023	-0.462872
H55	H	-3.913724	-0.393582	-0.541283
H56	H	-4.183797	-0.459736	-0.516092
O57	O	-4.092599	-0.414708	-0.709636
C58	C	-3.957740	-0.467220	-0.735006
H59	H	-3.900161	-0.403391	-0.795731
H60	H	-4.047242	-0.568076	-0.750159
H61	H	-3.816768	-0.472655	-0.679645
H62	H	-3.889590	-0.126080	-0.542369
O63	O	-3.964245	-0.238535	-0.596328
C64	C	-4.100146	-0.196240	-0.563574
H65	H	-4.137866	-0.108335	-0.609753
H66	H	-4.020065	-0.169523	-0.496184
H67	H	-4.252394	-0.276657	-0.558298
O68	O	-4.179541	-0.461294	-0.857504
C69	C	-4.241553	-0.530939	-0.927574
H70	H	-4.304331	-0.469711	-0.989780
H71	H	-4.370427	-0.623256	-0.912393
H72	H	-4.100052	-0.556167	-0.937209
H73	H	-3.814852	0.306555	-0.808999
O74	O	-4.004885	0.059382	-0.986691
C75	C	-4.186888	0.086652	-1.042307
H76	H	-4.295538	-0.004401	-1.067941
H77	H	-4.139496	0.164478	-1.099603
H78	H	-4.272801	0.121929	-1.004352
O79	O	-4.221565	-0.376772	-1.035410
C80	C	-4.230577	-0.310717	-1.122089
H81	H	-4.249437	-0.211256	-1.125323
H82	H	-4.370757	-0.367445	-1.166617
H83	H	-4.078829	-0.300036	-1.144416
H84	H	-3.933769	0.144548	-0.913268
O85	O	-3.721533	0.373809	-0.666526
C86	C	-3.903552	0.401063	-0.722139
H87	H	-4.012190	0.310004	-0.747769
H88	H	-3.856180	0.478890	-0.779437
H89	H	-3.989471	0.436333	-0.684181
H90	H	-3.689933	0.275525	-0.497538
