data_functionalizedCrystal
_audit_creation_method	'MofGen! by Chris Wilmer'
_symmetry_space_group_name_H-M	'P1'
_symmetry_Int_Tables_number	1
_symmetry_cell_setting	triclinic
loop_
_symmetry_equiv_pos_as_xyz
  x,y,z
_cell_length_a	10.654554
_cell_length_b	14.853559
_cell_length_c	9.730223
_cell_angle_alpha	90.000855
_cell_angle_beta	89.999646
_cell_angle_gamma	84.059099
loop_
_atom_site_label
_atom_site_type_symbol
_atom_site_fract_x
_atom_site_fract_y
_atom_site_fract_z
O1	O	1.666510	0.126642	-0.114287
O2	O	1.300906	0.138702	-0.114288
O3	O	1.493479	0.001494	-0.114286
O4	O	1.473936	0.263850	-0.114289
O5	O	1.493477	0.001497	0.114293
O6	O	1.300904	0.138705	0.114292
O7	O	1.666507	0.126645	0.114292
Zn8	Zn	1.483705	0.132676	0.150584
Zn9	Zn	1.483708	0.132671	-0.150580
O10	O	1.473934	0.263853	0.114291
C11	C	1.254116	0.137817	0.000001
C12	C	1.114701	0.135165	0.000001
C13	C	1.492595	-0.032098	0.000001
C14	C	1.489947	-0.132196	-0.000007
C15	C	0.903376	0.213462	-0.000003
C16	C	1.034371	0.215955	-0.000003
C17	C	1.064030	0.051878	-0.000009
C18	C	0.933036	0.049387	-0.000019
C19	C	0.886254	0.308191	0.000006
C20	C	1.017249	0.310683	0.000006
C21	C	1.478715	-0.555433	-0.124606
C22	C	1.478713	-0.555424	0.124601
C23	C	1.481211	-0.461378	0.124602
C24	C	1.482459	-0.414354	-0.000003
C25	C	1.481210	-0.461378	-0.124609
C26	C	1.482448	-0.414346	0.249206
C27	C	1.484945	-0.320294	0.249212
C28	C	1.486202	-0.273269	0.124606
C29	C	1.484954	-0.320299	-0.000005
C30	C	1.486203	-0.273275	-0.124610
C31	C	1.484963	-0.320304	-0.249222
C32	C	1.482467	-0.414354	-0.249215
C33	C	1.488698	-0.179220	0.124598
C34	C	1.488697	-0.179220	-0.124613
C35	C	1.713297	0.127530	-0.000000
C36	C	1.852712	0.130182	-0.000009
C37	C	1.474819	0.297445	0.000000
C38	C	1.477467	0.397543	-0.000001
N39	N	1.483712	0.132678	0.356120
N40	N	1.483711	0.132662	-0.356116
C41	C	1.569006	0.071944	0.428047
C42	C	1.569002	0.071933	0.571930
C43	C	1.398409	0.193399	0.571947
C44	C	1.398407	0.193405	0.428066
C45	C	1.667500	0.001818	0.428039
C46	C	1.667497	0.001807	0.571922
H47	H	0.891793	-0.018428	-0.000041
C48	C	1.481137	-0.466084	-0.386275
H49	H	1.482263	-0.424614	-0.460488
H50	H	1.407000	-0.496366	-0.391481
H51	H	1.553361	-0.509184	-0.391420
H52	H	1.046223	0.347718	0.095677
C53	C	0.829343	0.356405	-0.129213
H54	H	0.740450	0.354720	-0.129205
H55	H	0.864442	0.326676	-0.208934
H56	H	0.848011	0.417575	-0.129202
H57	H	1.477711	-0.593729	-0.226062
C58	C	0.824169	0.346858	0.133320
H59	H	0.887166	0.365806	0.192692
H60	H	0.782162	0.301502	0.177613
H61	H	0.764886	0.397137	0.111898
C62	C	1.064973	0.351471	-0.133289
H63	H	1.153994	0.351807	-0.128739
H64	H	1.026538	0.411688	-0.143792
H65	H	1.043848	0.316070	-0.209566
H66	H	1.477688	-0.593716	0.226048
C67	C	1.627223	-0.086657	0.632206
H68	H	1.609295	-0.126047	0.559488
H69	H	1.553947	-0.073419	0.687163
H70	H	1.693603	-0.115090	0.687144
C71	C	1.797648	0.022678	0.624687
H72	H	1.851173	0.031278	0.548749
H73	H	1.833900	-0.026479	0.678915
H74	H	1.788161	0.076128	0.678934
H75	H	1.129445	-0.013902	-0.000019
H76	H	1.758455	0.023777	0.383413
C77	C	1.481086	-0.466072	0.386257
H78	H	1.479442	-0.528821	0.368408
H79	H	1.408320	-0.444248	0.437464
H80	H	1.554681	-0.457073	0.437445
C81	C	1.486325	-0.268572	0.386276
H82	H	1.485233	-0.310049	0.460484
H83	H	1.414129	-0.225458	0.391464
H84	H	1.560489	-0.238310	0.391449
H85	H	1.489720	-0.140940	-0.226082
C86	C	1.490058	-0.127492	0.261653
H87	H	1.488960	-0.168968	0.335862
H88	H	1.417858	-0.084381	0.266825
H89	H	1.564219	-0.097226	0.266837
H90	H	1.485971	-0.282004	-0.350675
H91	H	1.328944	0.242852	0.369505
C92	C	1.304588	0.260198	0.651091
H93	H	1.316808	0.251500	0.747084
H94	H	1.220763	0.249849	0.627509
H95	H	1.318332	0.320464	0.627521
H96	H	1.646780	-0.067477	0.388986
