data_functionalizedCrystal
_audit_creation_method	'MofGen! by Chris Wilmer'
_symmetry_space_group_name_H-M	'P1'
_symmetry_Int_Tables_number	1
_symmetry_cell_setting	triclinic
loop_
_symmetry_equiv_pos_as_xyz
  x,y,z
_cell_length_a	19.805407
_cell_length_b	17.640280
_cell_length_c	19.805399
_cell_angle_alpha	101.223110
_cell_angle_beta	90.019573
_cell_angle_gamma	78.800112
loop_
_atom_site_label
_atom_site_type_symbol
_atom_site_fract_x
_atom_site_fract_y
_atom_site_fract_z
Zn1	Zn	1.089281	-0.314680	0.328317
Zn2	Zn	1.112106	-0.446853	0.192279
Zn3	Zn	0.976099	-0.314701	0.215138
Zn4	Zn	0.998962	-0.446811	0.305433
O5	O	1.044112	-0.380761	0.260292
O6	O	1.187026	-0.332221	0.310282
O7	O	1.094048	-0.429350	0.100590
O8	O	0.971992	-0.204095	0.249296
O9	O	1.203796	-0.429329	0.210335
O10	O	1.055146	-0.204079	0.332448
O11	O	0.994125	-0.332258	0.117385
O12	O	0.884414	-0.332218	0.227105
O13	O	1.010958	-0.429257	0.403190
O14	O	0.901211	-0.429278	0.293444
O15	O	1.077315	-0.332180	0.420003
O16	O	1.116217	-0.557452	0.188145
O17	O	1.033091	-0.557421	0.271278
C18	C	0.868253	-0.380746	0.260272
C19	C	0.793023	-0.380759	0.260277
C20	C	0.766456	-0.431374	0.294736
C21	C	0.695768	-0.431376	0.294746
C22	C	0.651649	-0.380765	0.260291
C23	C	0.678220	-0.330144	0.225831
C24	C	0.748906	-0.330139	0.225826
C25	C	0.393149	-0.330161	0.225850
C26	C	0.322459	-0.330172	0.225856
C27	C	0.340012	-0.431398	0.294770
C28	C	0.410698	-0.431393	0.294765
C29	C	0.437262	-0.380770	0.260308
C30	C	0.513910	-0.380768	0.260299
C31	C	0.575003	-0.380770	0.260295
C32	C	1.079630	-0.586114	0.224762
C33	C	1.094887	-0.673965	0.209586
C34	C	0.928484	-0.962953	0.375835
C35	C	0.942822	-1.045502	0.361553
C36	C	1.029435	-1.045469	0.275073
C37	C	1.015107	-0.962918	0.289351
C38	C	0.964630	-0.921667	0.339732
C39	C	1.051253	-0.921632	0.253247
C40	C	1.036924	-0.839088	0.267522
C41	C	0.986448	-0.797831	0.317899
C42	C	0.950301	-0.839123	0.354006
C43	C	1.101726	-0.962885	0.202863
C44	C	1.137872	-0.921598	0.166760
C45	C	1.123546	-0.839053	0.181037
C46	C	1.073071	-0.797796	0.231415
C47	C	1.159693	-0.797761	0.144930
C48	C	1.145364	-0.715217	0.159204
C49	C	1.058741	-0.715252	0.245689
C50	C	1.220657	-0.380777	0.260311
C51	C	1.295890	-0.380784	0.260320
C52	C	1.044141	-0.380712	0.436843
C53	C	1.044154	-0.380690	0.512079
C54	C	1.008473	-0.174606	0.295974
C55	C	0.993286	-0.086756	0.311180
C56	C	1.044112	-0.380754	0.084437
C57	C	1.044192	-0.380553	0.009240
C58	C	1.078706	-0.330140	0.556179
C59	C	1.078709	-0.330117	0.626872
C60	C	1.044163	-0.380649	0.653462
C61	C	1.009606	-0.431202	0.609356
C62	C	1.009600	-0.431220	0.538666
C63	C	1.009632	-0.431128	0.894442
C64	C	1.009643	-0.431107	0.965138
C65	C	1.078741	-0.330025	0.982648
C66	C	1.078735	-0.330043	0.911958
C67	C	1.044175	-0.380593	0.867859
C68	C	1.044171	-0.380616	0.791206
C69	C	1.044171	-0.380631	0.730112
H70	H	0.802375	-0.472590	0.322791
H71	H	1.106847	-0.288956	0.662776
Br72	Br	0.303957	-0.500105	0.341533
H73	H	0.981455	-0.472375	0.502760
Br74	Br	0.962728	-0.499729	0.834603
H75	H	1.106868	-0.288898	0.890312
Br76	Br	0.618343	-0.261449	0.179078
Br77	Br	1.125644	-0.261420	1.042501
H78	H	0.981509	-0.472258	0.986784
Br79	Br	1.206374	-0.977589	0.098388
Br80	Br	0.659715	-0.500069	0.341516
H81	H	0.981475	-0.472343	0.631011
H82	H	1.070531	-1.079067	0.234051
Br83	Br	0.784961	-0.261439	0.179062
H84	H	0.446618	-0.472609	0.322819
Br85	Br	0.429192	-0.261453	0.179091
Br86	Br	0.262582	-0.261481	0.179092
Br87	Br	0.990245	-0.659260	0.314073
Br88	Br	0.881804	-0.783131	0.422390
H89	H	1.113393	-1.030097	0.191244
Br90	Br	0.893750	-1.101533	0.410546
Br91	Br	1.228188	-0.853754	0.076552
Br92	Br	0.859988	-0.906961	0.444219
H93	H	0.974777	-0.730618	0.329515
Br94	Br	1.125599	-0.261563	0.520099
Br95	Br	1.194410	-0.659180	0.110198
