data_functionalizedCrystal
_audit_creation_method	'MofGen! by Chris Wilmer'
_symmetry_space_group_name_H-M	'P1'
_symmetry_Int_Tables_number	1
_symmetry_cell_setting	triclinic
loop_
_symmetry_equiv_pos_as_xyz
  x,y,z
_cell_length_a	19.805407
_cell_length_b	21.295416
_cell_length_c	19.805399
_cell_angle_alpha	89.971630
_cell_angle_beta	90.019573
_cell_angle_gamma	89.969669
loop_
_atom_site_label
_atom_site_type_symbol
_atom_site_fract_x
_atom_site_fract_y
_atom_site_fract_z
Zn1	Zn	1.034717	0.250624	0.382716
Zn2	Zn	1.284717	0.500624	0.632716
Zn3	Zn	1.534717	0.750624	0.882716
Zn4	Zn	1.784717	1.000624	1.132716
Zn5	Zn	1.034624	0.355893	0.269526
Zn6	Zn	1.284624	0.605893	0.519526
Zn7	Zn	1.534624	0.855893	0.769526
Zn8	Zn	1.784624	1.105893	1.019526
Zn9	Zn	0.921532	0.250641	0.269541
Zn10	Zn	1.171532	0.500641	0.519541
Zn11	Zn	1.421532	0.750641	0.769541
Zn12	Zn	1.671532	1.000641	1.019541
Zn13	Zn	0.921488	0.355859	0.382673
Zn14	Zn	1.171488	0.605859	0.632673
Zn15	Zn	1.421488	0.855859	0.882673
Zn16	Zn	1.671488	1.105859	1.132673
O17	O	0.978090	0.303254	0.326114
O18	O	1.228090	0.553254	0.576114
O19	O	1.478090	0.803254	0.826114
O20	O	1.728090	1.053254	1.076114
O21	O	1.129421	0.264595	0.367713
O22	O	1.379421	0.514595	0.617713
O23	O	1.629421	0.764595	0.867713
O24	O	1.879421	1.014595	1.117713
O25	O	1.019602	0.341952	0.174811
O26	O	1.269602	0.591952	0.424811
O27	O	1.519602	0.841952	0.674811
O28	O	1.769602	1.091952	0.924811
O29	O	0.936604	0.162549	0.284578
O30	O	1.186604	0.412549	0.534578
O31	O	1.436604	0.662549	0.784578
O32	O	1.686604	0.912549	1.034578
O33	O	1.129353	0.341935	0.284553
O34	O	1.379353	0.591935	0.534553
O35	O	1.629353	0.841935	0.784553
O36	O	1.879353	1.091935	1.034553
O37	O	1.019760	0.162537	0.367727
O38	O	1.269760	0.412537	0.617727
O39	O	1.519760	0.662537	0.867727
O40	O	1.769760	0.912537	1.117727
O41	O	0.936513	0.264624	0.174822
O42	O	1.186513	0.514624	0.424822
O43	O	1.436513	0.764624	0.674822
O44	O	1.686513	1.014624	0.924822
O45	O	0.826809	0.264592	0.284536
O46	O	1.076809	0.514592	0.534536
O47	O	1.326809	0.764592	0.784536
O48	O	1.576809	1.014592	1.034536
O49	O	0.936528	0.341878	0.477395
O50	O	1.186528	0.591878	0.727395
O51	O	1.436528	0.841878	0.977395
O52	O	1.686528	1.091878	1.227395
O53	O	0.826777	0.341895	0.367654
O54	O	1.076777	0.591895	0.617654
O55	O	1.326777	0.841895	0.867654
O56	O	1.576777	1.091895	1.117654
O57	O	1.019717	0.264562	0.477427
O58	O	1.269717	0.514562	0.727427
O59	O	1.519717	0.764562	0.977427
O60	O	1.769717	1.014562	1.227427
O61	O	1.019559	0.443977	0.284511
O62	O	1.269559	0.693977	0.534511
O63	O	1.519559	0.943977	0.784511
O64	O	1.769559	1.193977	1.034511
O65	O	0.936438	0.443953	0.367640
O66	O	1.186438	0.693953	0.617640
O67	O	1.436438	0.943953	0.867640
O68	O	1.686438	1.193953	1.117640
C69	C	0.802234	0.303242	0.326092
C70	C	1.052234	0.553242	0.576092
C71	C	1.302234	0.803242	0.826092
C72	C	1.552234	1.053242	1.076092
C73	C	0.727002	0.303252	0.326099
C74	C	0.977002	0.553252	0.576099
C75	C	1.227002	0.803252	0.826099
C76	C	1.477002	1.053252	1.076099
C77	C	0.978002	0.466806	0.326084
C78	C	1.228002	0.716806	0.576084
C79	C	1.478002	0.966806	0.826084
C80	C	1.728002	1.216806	1.076084
C81	C	0.978026	0.536774	0.326094
C82	C	1.228026	0.786774	0.576094
C83	C	1.478026	1.036774	0.826094
C84	C	1.728026	1.286774	1.076094
C85	C	0.691659	0.343564	0.369308
C86	C	0.941659	0.593564	0.619308
C87	C	1.191659	0.843564	0.869308
C88	C	1.441659	1.093564	1.119308
C89	C	0.620970	0.343566	0.369318
C90	C	0.870970	0.593566	0.619318
C91	C	1.120970	0.843566	0.869318
C92	C	1.370970	1.093566	1.119318
C93	C	0.585627	0.303257	0.326114
C94	C	0.835627	0.553257	0.576114
C95	C	1.085627	0.803257	0.826114
C96	C	1.335627	1.053257	1.076114
C97	C	0.620975	0.262940	0.282903
C98	C	0.870975	0.512940	0.532903
C99	C	1.120975	0.762940	0.782903
C100	C	1.370975	1.012940	1.032903
C101	C	0.691662	0.262936	0.282897
C102	C	0.941662	0.512936	0.532897
C103	C	1.191662	0.762936	0.782897
C104	C	1.441662	1.012936	1.032897
C105	C	0.335902	0.262954	0.282925
C106	C	0.585902	0.512954	0.532925
C107	C	0.835902	0.762954	0.782925
C108	C	1.085902	1.012954	1.032925
C109	C	0.265210	0.262962	0.282932
C110	C	0.515210	0.512962	0.532932
C111	C	0.765210	0.762962	0.782932
C112	C	1.015210	1.012962	1.032932
C113	C	0.265210	0.343583	0.369346
C114	C	0.515210	0.593583	0.619346
C115	C	0.765210	0.843583	0.869346
C116	C	1.015210	1.093583	1.119346
C117	C	0.335897	0.343579	0.369340
C118	C	0.585897	0.593579	0.619340
C119	C	0.835897	0.843579	0.869340
C120	C	1.085897	1.093579	1.119340
C121	C	0.371239	0.303261	0.326132
C122	C	0.621239	0.553261	0.576132
C123	C	0.871239	0.803261	0.826132
C124	C	1.121239	1.053261	1.076132
C125	C	0.447888	0.303259	0.326123
C126	C	0.697888	0.553259	0.576123
C127	C	0.947888	0.803259	0.826123
C128	C	1.197888	1.053259	1.076123
C129	C	0.508980	0.303261	0.326119
C130	C	0.758980	0.553261	0.576119
C131	C	1.008980	0.803261	0.826119
C132	C	1.258980	1.053261	1.076119
C133	C	1.021346	0.569632	0.282855
C134	C	1.271346	0.819632	0.532855
C135	C	1.521346	1.069632	0.782855
C136	C	1.771346	1.319632	1.032855
C137	C	1.021378	0.635375	0.282873
C138	C	1.271378	0.885375	0.532873
C139	C	1.521378	1.135375	0.782873
C140	C	1.771378	1.385375	1.032873
C141	C	0.978078	0.668256	0.326123
C142	C	1.228078	0.918256	0.576123
C143	C	1.478078	1.168256	0.826123
C144	C	1.728078	1.418256	1.076123
C145	C	0.934755	0.635390	0.369371
C146	C	1.184755	0.885390	0.619371
C147	C	1.434755	1.135390	0.869371
C148	C	1.684755	1.385390	1.119371
C149	C	0.934729	0.569649	0.369356
C150	C	1.184729	0.819649	0.619356
C151	C	1.434729	1.069649	0.869356
C152	C	1.684729	1.319649	1.119356
N153	N	0.918868	0.771522	0.331281
N154	N	1.168868	1.021522	0.581281
N155	N	1.418868	1.271522	0.831281
N156	N	1.668868	1.521522	1.081281
N157	N	0.918895	0.833974	0.331291
N158	N	1.168895	1.083974	0.581291
N159	N	1.418895	1.333974	0.831291
N160	N	1.668895	1.583974	1.081291
C161	C	0.978155	0.866331	0.326171
C162	C	1.228155	1.116331	0.576171
C163	C	1.478155	1.366331	0.826171
C164	C	1.728155	1.616331	1.076171
N165	N	1.037388	0.833878	0.321028
N166	N	1.287388	1.083878	0.571028
N167	N	1.537388	1.333878	0.821028
N168	N	1.787388	1.583878	1.071028
N169	N	1.037361	0.771421	0.321015
N170	N	1.287361	1.021421	0.571015
N171	N	1.537361	1.271421	0.821015
N172	N	1.787361	1.521421	1.071015
C173	C	0.978102	0.739542	0.326144
C174	C	1.228102	0.989542	0.576144
C175	C	1.478102	1.239542	0.826144
C176	C	1.728102	1.489542	1.076144
C177	C	1.021513	0.970475	0.282950
C178	C	1.271513	1.220475	0.532950
C179	C	1.521513	1.470475	0.782950
C180	C	1.771513	1.720475	1.032950
C181	C	1.021546	1.036219	0.282973
C182	C	1.271546	1.286219	0.532973
C183	C	1.521546	1.536219	0.782973
C184	C	1.771546	1.786219	1.032973
C185	C	0.934917	1.036233	0.369467
C186	C	1.184917	1.286233	0.619467
C187	C	1.434917	1.536233	0.869467
C188	C	1.684917	1.786233	1.119467
C189	C	0.934890	0.970490	0.369447
C190	C	1.184890	1.220490	0.619447
C191	C	1.434890	1.470490	0.869447
C192	C	1.684890	1.720490	1.119447
C193	C	0.978187	0.937615	0.326185
C194	C	1.228187	1.187615	0.576185
C195	C	1.478187	1.437615	0.826185
C196	C	1.728187	1.687615	1.076185
C197	C	1.154633	0.303267	0.326136
C198	C	1.404633	0.553267	0.576136
C199	C	1.654633	0.803267	0.826136
C200	C	1.904633	1.053267	1.076136
C201	C	1.229865	0.303272	0.326146
C202	C	1.479865	0.553272	0.576146
C203	C	1.729865	0.803272	0.826146
C204	C	1.979865	1.053272	1.076146
C205	C	0.978128	0.303214	0.502657
C206	C	1.228128	0.553214	0.752657
C207	C	1.478128	0.803214	1.002657
C208	C	1.728128	1.053214	1.252657
C209	C	0.978144	0.303198	0.577889
C210	C	1.228144	0.553198	0.827889
C211	C	1.478144	0.803198	1.077889
C212	C	1.728144	1.053198	1.327889
C213	C	0.978198	1.139064	0.326170
C214	C	1.228198	1.389064	0.576170
C215	C	1.478198	1.639064	0.826170
C216	C	1.728198	1.889064	1.076170
C217	C	0.978246	1.069096	0.326224
C218	C	1.228246	1.319096	0.576224
C219	C	1.478246	1.569096	0.826224
C220	C	1.728246	1.819096	1.076224
C221	C	0.978091	0.303248	0.150258
C222	C	1.228091	0.553248	0.400258
C223	C	1.478091	0.803248	0.650258
C224	C	1.728091	1.053248	0.900258
C225	C	0.978206	0.303088	0.075026
C226	C	1.228206	0.553088	0.325026
C227	C	1.478206	0.803088	0.575026
C228	C	1.728206	1.053088	0.825026
C229	C	1.021462	0.262937	0.613250
C230	C	1.271462	0.512937	0.863250
C231	C	1.521462	0.762937	1.113250
C232	C	1.771462	1.012937	1.363250
C233	C	1.021469	0.262919	0.683939
C234	C	1.271469	0.512919	0.933939
C235	C	1.521469	0.762919	1.183939
C236	C	1.771469	1.012919	1.433939
C237	C	0.978161	0.303165	0.719264
C238	C	1.228161	0.553165	0.969264
C239	C	1.478161	0.803165	1.219264
C240	C	1.728161	1.053165	1.469264
C241	C	0.934839	0.343427	0.683898
C242	C	1.184839	0.593427	0.933898
C243	C	1.434839	0.843427	1.183898
C244	C	1.684839	1.093427	1.433898
C245	C	0.934829	0.343442	0.613210
C246	C	1.184829	0.593442	0.863210
C247	C	1.434829	0.843442	1.113210
C248	C	1.684829	1.093442	1.363210
C249	C	0.934877	0.343368	0.968971
C250	C	1.184877	0.593368	1.218971
C251	C	1.434877	0.843368	1.468971
C252	C	1.684877	1.093368	1.718971
C253	C	0.934892	0.343352	1.039663
C254	C	1.184892	0.593352	1.289663
C255	C	1.434892	0.843352	1.539663
C256	C	1.684892	1.093352	1.789663
C257	C	1.021517	0.262846	1.039700
C258	C	1.271517	0.512846	1.289700
C259	C	1.521517	0.762846	1.539700
C260	C	1.771517	1.012846	1.789700
C261	C	1.021507	0.262860	0.969012
C262	C	1.271507	0.512860	1.219012
C263	C	1.521507	0.762860	1.469012
C264	C	1.771507	1.012860	1.719012
C265	C	0.978183	0.303120	0.933652
C266	C	1.228183	0.553120	1.183652
C267	C	1.478183	0.803120	1.433652
C268	C	1.728183	1.053120	1.683652
C269	C	0.978175	0.303138	0.857003
C270	C	1.228175	0.553138	1.107003
C271	C	1.478175	0.803138	1.357003
C272	C	1.728175	1.053138	1.607003
C273	C	0.978172	0.303150	0.795912
C274	C	1.228172	0.553150	1.045912
C275	C	1.478172	0.803150	1.295912
C276	C	1.728172	1.053150	1.545912
H277	H	0.720431	0.376391	0.404487
H278	H	0.970431	0.626391	0.654487
H279	H	1.220431	0.876391	0.904487
H280	H	1.470431	1.126391	1.154487
H281	H	0.592197	0.376393	0.404502
H282	H	0.842197	0.626393	0.654502
H283	H	1.092197	0.876393	0.904502
H284	H	1.342197	1.126393	1.154502
H285	H	1.056730	0.230166	0.584493
H286	H	1.306730	0.480166	0.834493
H287	H	1.556730	0.730166	1.084493
H288	H	1.806730	0.980166	1.334493
Br289	Br	1.080115	0.525019	0.224151
Br290	Br	1.330115	0.775019	0.474151
Br291	Br	1.580115	1.025019	0.724151
Br292	Br	1.830115	1.275019	0.974151
Br293	Br	1.080291	0.208307	0.731928
Br294	Br	1.330291	0.458307	0.981928
Br295	Br	1.580291	0.708307	1.231928
Br296	Br	1.830291	0.958307	1.481928
Br297	Br	1.080269	0.925855	0.224236
Br298	Br	1.330269	1.175855	0.474236
Br299	Br	1.580269	1.425855	0.724236
Br300	Br	1.830269	1.675855	0.974236
Br301	Br	0.217242	0.398304	0.427986
Br302	Br	0.467242	0.648304	0.677986
Br303	Br	0.717242	0.898304	0.927986
Br304	Br	0.967242	1.148304	1.177986
Br305	Br	0.383857	0.208232	0.224289
Br306	Br	0.633857	0.458232	0.474289
Br307	Br	0.883857	0.708232	0.724289
Br308	Br	1.133857	0.958232	0.974289
Br309	Br	0.217243	0.208255	0.224294
Br310	Br	0.467243	0.458255	0.474294
Br311	Br	0.717243	0.708255	0.724294
Br312	Br	0.967243	0.958255	0.974294
H313	H	1.056775	0.230090	0.940254
H314	H	1.306775	0.480090	1.190254
H315	H	1.556775	0.730090	1.440254
H316	H	1.806775	0.980090	1.690254
Br317	Br	0.876094	0.925893	0.428131
Br318	Br	1.126094	1.175893	0.678131
Br319	Br	1.376094	1.425893	0.928131
Br320	Br	1.626094	1.675893	1.178131
H321	H	0.899622	0.376126	1.068423
H322	H	1.149622	0.626126	1.318423
H323	H	1.399622	0.876126	1.568423
H324	H	1.649622	1.126126	1.818423
H325	H	1.056792	0.230062	1.068499
H326	H	1.306792	0.480062	1.318499
H327	H	1.556792	0.730062	1.568499
H328	H	1.806792	0.980062	1.818499
H329	H	0.899548	0.376219	0.584420
H330	H	1.149548	0.626219	0.834420
H331	H	1.399548	0.876219	1.084420
H332	H	1.649548	1.126219	1.334420
H333	H	1.056826	1.062971	0.247764
H334	H	1.306826	1.312971	0.497764
H335	H	1.556826	1.562971	0.747764
H336	H	1.806826	1.812971	0.997764
H337	H	0.592192	0.230118	0.247728
H338	H	0.842192	0.480118	0.497728
H339	H	1.092192	0.730118	0.747728
H340	H	1.342192	0.980118	0.997728
Br341	Br	0.739629	0.208221	0.224257
Br342	Br	0.989629	0.458221	0.474257
Br343	Br	1.239629	0.708221	0.724257
Br344	Br	1.489629	0.958221	0.974257
Br345	Br	0.876059	0.398043	0.731839
Br346	Br	1.126059	0.648043	0.981839
Br347	Br	1.376059	0.898043	1.231839
Br348	Br	1.626059	1.148043	1.481839
Br349	Br	0.383860	0.398290	0.427972
Br350	Br	0.633860	0.648290	0.677972
Br351	Br	0.883860	0.898290	0.927972
Br352	Br	1.133860	1.148290	1.177972
Br353	Br	0.875996	0.680013	0.428073
Br354	Br	1.125996	0.930013	0.678073
Br355	Br	1.375996	1.180013	0.928073
Br356	Br	1.625996	1.430013	1.178073
Br357	Br	1.080173	0.679979	0.224187
Br358	Br	1.330173	0.929979	0.474187
Br359	Br	1.580173	1.179979	0.724187
Br360	Br	1.830173	1.429979	0.974187
H361	H	0.899609	0.376159	0.940189
H362	H	1.149609	0.626159	1.190189
H363	H	1.399609	0.876159	1.440189
H364	H	1.649609	1.126159	1.690189
H365	H	0.899453	0.542895	0.404567
H366	H	1.149453	0.792895	0.654567
H367	H	1.399453	1.042895	0.904567
H368	H	1.649453	1.292895	1.154567
Br369	Br	0.876159	1.080850	0.428172
Br370	Br	1.126159	1.330850	0.678172
Br371	Br	1.376159	1.580850	0.928172
Br372	Br	1.626159	1.830850	1.178172
