data_functionalizedCrystal
_audit_creation_method	'MofGen! by Chris Wilmer'
_symmetry_space_group_name_H-M	'P1'
_symmetry_Int_Tables_number	1
_symmetry_cell_setting	triclinic
loop_
_symmetry_equiv_pos_as_xyz
  x,y,z
_cell_length_a	18.101398
_cell_length_b	18.101395
_cell_length_c	18.101389
_cell_angle_alpha	89.983159
_cell_angle_beta	90.009745
_cell_angle_gamma	89.973339
loop_
_atom_site_label
_atom_site_type_symbol
_atom_site_fract_x
_atom_site_fract_y
_atom_site_fract_z
Zn1	Zn	1.132121	0.294995	0.418559
Zn2	Zn	1.632121	0.794995	0.918559
Zn3	Zn	1.132017	0.418821	0.294721
Zn4	Zn	1.632017	0.918821	0.794721
Zn5	Zn	1.008280	0.294988	0.294751
Zn6	Zn	1.508280	0.794988	0.794751
Zn7	Zn	1.008231	0.418790	0.418541
Zn8	Zn	1.508231	0.918790	0.918541
O9	O	1.070162	0.356898	0.356643
O10	O	1.570162	0.856898	0.856643
O11	O	1.235740	0.311437	0.402126
O12	O	1.735740	0.811437	0.902126
O13	O	1.115580	0.402404	0.191092
O14	O	1.615580	0.902404	0.691092
O15	O	1.024772	0.191356	0.311195
O16	O	1.524772	0.691356	0.811195
O17	O	1.235663	0.402411	0.311143
O18	O	1.735663	0.902411	0.811143
O19	O	1.115757	0.191361	0.402156
O20	O	1.615757	0.691361	0.902156
O21	O	1.024671	0.311425	0.191114
O22	O	1.524671	0.811425	0.691114
O23	O	0.904640	0.311395	0.311178
O24	O	1.404640	0.811395	0.811178
O25	O	1.024688	0.402358	0.522176
O26	O	1.524688	0.902358	1.022176
O27	O	0.904604	0.402351	0.402125
O28	O	1.404604	0.902351	0.902125
O29	O	1.115710	0.311407	0.522189
O30	O	1.615710	0.811407	1.022189
O31	O	1.115532	0.522450	0.311125
O32	O	1.615532	1.022450	0.811125
O33	O	1.024587	0.522427	0.402095
O34	O	1.524587	1.022427	0.902095
C35	C	0.877751	0.356869	0.356653
C36	C	1.377751	0.856869	0.856653
C37	C	0.795437	0.356875	0.356675
C38	C	1.295437	0.856875	0.856675
C39	C	1.070063	0.549309	0.356621
C40	C	1.570063	1.049309	0.856621
C41	C	1.070088	0.631623	0.356637
C42	C	1.570088	1.131623	0.856637
C43	C	1.070205	0.356880	0.549805
C44	C	1.570205	0.856880	1.049805
C45	C	1.070223	0.356872	0.632119
C46	C	1.570223	0.856872	1.132119
C47	C	0.496346	0.356918	0.356644
C48	C	0.996346	0.856918	0.856644
C49	C	0.527674	0.414422	0.413583
C50	C	1.027674	0.914422	0.913583
C51	C	0.613292	0.414242	0.413817
C52	C	1.113292	0.914242	0.913817
C53	C	0.644729	0.356897	0.356660
C54	C	1.144729	0.856897	0.856660
C55	C	0.613675	0.278899	0.377985
C56	C	1.113675	0.778899	0.877985
C57	C	0.528029	0.279244	0.378390
C58	C	1.028029	0.779244	0.878390
C59	C	0.527894	0.376725	0.278242
C60	C	1.027894	0.876725	0.778242
C61	C	0.613544	0.378437	0.278661
C62	C	1.113544	0.878437	0.778661
C63	C	0.728588	0.356881	0.356667
C64	C	1.228588	0.856881	0.856667
C65	C	0.412487	0.356930	0.356639
C66	C	0.912487	0.856930	0.856639
C67	C	1.263324	0.356928	0.356633
C68	C	1.763324	0.856928	0.856633
C69	C	1.345638	0.356941	0.356629
C70	C	1.845638	0.856941	0.856629
C71	C	1.070282	0.163736	0.356681
C72	C	1.570282	0.663736	0.856681
C73	C	1.070333	0.081422	0.356697
C74	C	1.570333	0.581422	0.856697
C75	C	1.070251	0.930714	0.356676
C76	C	1.570251	1.430714	0.856676
C77	C	1.013163	0.899405	0.414054
C78	C	1.513163	1.399405	0.914054
C79	C	1.012892	0.813787	0.413875
C80	C	1.512892	1.313787	0.913875
C81	C	1.070170	0.782331	0.356657
C82	C	1.570170	1.282331	0.856657
C83	C	1.049041	0.813467	0.278611
C84	C	1.549041	1.313467	0.778611
C85	C	1.048673	0.899112	0.278955
C86	C	1.548673	1.399112	0.778955
C87	C	1.148592	0.899067	0.376658
C88	C	1.648592	1.399067	0.876658
C89	C	1.148132	0.813417	0.378369
C90	C	1.648132	1.313417	0.878369
C91	C	1.070126	0.698472	0.356642
C92	C	1.570126	1.198472	0.856642
C93	C	1.070293	1.014573	0.356687
C94	C	1.570293	1.514573	0.856687
C95	C	1.070162	0.356864	0.164232
C96	C	1.570162	0.856864	0.664232
C97	C	1.070287	0.356663	0.081919
C98	C	1.570287	0.856663	0.581919
C99	C	1.070266	0.356733	0.931210
C100	C	1.570266	0.856733	1.431210
C101	C	1.012801	0.413775	0.899877
C102	C	1.512801	0.913775	1.399877
C103	C	1.012956	0.414040	0.814258
C104	C	1.512956	0.914040	1.314258
C105	C	1.070244	0.356802	0.782827
C106	C	1.570244	0.856802	1.282827
C107	C	1.148270	0.377992	0.813914
C108	C	1.648270	0.877992	1.313914
C109	C	1.147949	0.378366	0.899559
C110	C	1.647949	0.878366	1.399559
C111	C	1.050385	0.278374	0.899637
C112	C	1.550385	0.778374	1.399637
C113	C	1.048649	0.278826	0.813987
C114	C	1.548649	0.778826	1.313987
C115	C	1.070236	0.356839	0.698968
C116	C	1.570236	0.856839	1.198968
C117	C	1.070279	0.356697	1.015070
C118	C	1.570279	0.856697	1.515070
H119	H	0.634287	0.472083	0.400452
H120	H	1.134287	0.972083	0.900452
Cl121	Cl	1.172736	0.781997	0.467049
Cl122	Cl	1.672736	1.281997	0.967049
Cl123	Cl	0.923237	0.782239	0.393445
Cl124	Cl	1.423237	1.282239	0.893445
Cl125	Cl	1.178334	0.932352	0.463026
Cl126	Cl	1.678334	1.432352	0.963026
H127	H	1.026251	0.919965	0.472113
H128	H	1.526251	1.419965	0.972113
Cl129	Cl	1.217278	0.780348	0.318553
Cl130	Cl	1.717278	1.280348	0.818553
Cl131	Cl	0.497207	0.253307	0.466881
Cl132	Cl	0.997207	0.753307	0.966881
Cl133	Cl	0.494513	0.463029	0.248313
Cl134	Cl	0.994513	0.963029	0.748313
Cl135	Cl	0.960257	0.930049	0.252821
Cl136	Cl	1.460257	1.430049	0.752821
Cl137	Cl	0.644952	0.394009	0.503506
Cl138	Cl	1.144952	0.894009	1.003506
H139	H	1.165415	0.434665	0.792469
H140	H	1.665415	0.934665	1.292469
H141	H	1.025796	0.471503	0.921400
H142	H	1.525796	0.971503	1.421400
Cl143	Cl	1.110075	0.931094	0.210695
Cl144	Cl	1.610075	1.431094	0.710695
H145	H	0.994478	0.259069	0.921237
H146	H	1.494478	0.759069	1.421237
Cl147	Cl	1.214263	0.930340	0.312149
Cl148	Cl	1.714263	1.430340	0.812149
H149	H	1.164804	0.435648	0.919540
H150	H	1.664804	0.935648	1.419540
H151	H	0.507308	0.234865	0.338820
H152	H	1.007308	0.734865	0.838820
H153	H	0.507058	0.472452	0.400367
H154	H	1.007058	0.972452	0.900367
Cl155	Cl	1.216255	0.316966	0.931565
Cl156	Cl	1.716255	0.816966	1.431565
H157	H	1.087450	0.234070	0.792592
H158	H	1.587450	0.734070	1.292592
H159	H	0.506163	0.401485	0.471339
H160	H	1.006163	0.901485	0.971339
H161	H	0.954768	0.400650	0.920477
H162	H	1.454768	0.900650	1.420477
H163	H	1.192236	0.337751	0.793556
H164	H	1.692236	0.837751	1.293556
Cl165	Cl	1.033264	0.503705	0.782627
Cl166	Cl	1.533264	1.003705	1.282627
Cl167	Cl	0.923627	0.393563	0.781804
Cl168	Cl	1.423627	0.893563	1.281804
Cl169	Cl	0.924056	0.932738	0.393895
Cl170	Cl	1.424056	1.432738	0.893895
H171	H	0.991229	0.262847	0.793669
H172	H	1.491229	0.762847	1.293669
H173	H	1.092240	0.235875	0.919901
H174	H	1.592240	0.735875	1.419901
H175	H	0.634039	0.234893	0.337807
H176	H	1.134039	0.734893	0.837807
Cl177	Cl	0.646810	0.252488	0.465515
Cl178	Cl	1.146810	0.752488	0.965515
H179	H	0.992380	0.792075	0.261380
H180	H	1.492380	1.292075	0.761380
H181	H	0.507635	0.334839	0.235817
H182	H	1.007635	0.834839	0.735817
Cl183	Cl	0.644879	0.467057	0.253832
Cl184	Cl	1.144879	0.967057	0.753832
H185	H	0.634944	0.339594	0.233959
H186	H	1.134944	0.839594	0.733959
H187	H	1.089313	0.793092	0.234695
H188	H	1.589313	1.293092	0.734695
Cl189	Cl	1.033298	0.781280	0.503224
Cl190	Cl	1.533298	1.281280	1.003224
