data_functionalizedCrystal
_audit_creation_method	'MofGen! by Chris Wilmer'
_symmetry_space_group_name_H-M	'P1'
_symmetry_Int_Tables_number	1
_symmetry_cell_setting	triclinic
loop_
_symmetry_equiv_pos_as_xyz
  x,y,z
_cell_length_a	10.489741
_cell_length_b	17.699083
_cell_length_c	16.776229
_cell_angle_alpha	90.001114
_cell_angle_beta	89.993659
_cell_angle_gamma	96.088906
loop_
_atom_site_label
_atom_site_type_symbol
_atom_site_fract_x
_atom_site_fract_y
_atom_site_fract_z
O1	O	0.161296	-1.005134	-0.066176
O2	O	0.661296	-0.505134	0.433824
O3	O	0.182281	-0.784893	-0.066202
O4	O	0.682281	-0.284893	0.433798
O5	O	-0.013903	-0.900025	-0.066184
O6	O	0.486097	-0.400025	0.433816
O7	O	0.357479	-0.890002	-0.066194
O8	O	0.857479	-0.390002	0.433806
O9	O	-0.013915	-0.900009	0.066393
O10	O	0.486085	-0.400009	0.566393
O11	O	0.182269	-0.784877	0.066375
O12	O	0.682269	-0.284877	0.566375
O13	O	0.161284	-1.005118	0.066401
O14	O	0.661284	-0.505118	0.566401
Zn15	Zn	0.171774	-0.894995	0.087437
Zn16	Zn	0.671774	-0.394995	0.587437
Zn17	Zn	0.171790	-0.895016	-0.087238
Zn18	Zn	0.671790	-0.395016	0.412762
O19	O	0.357467	-0.889986	0.066382
O20	O	0.857467	-0.389986	0.566382
C21	C	0.181523	-0.756683	0.000083
C22	C	0.681523	-0.256683	0.500083
C23	C	0.179267	-0.672650	0.000073
C24	C	0.679267	-0.172650	0.500073
C25	C	-0.061427	-0.899260	0.000104
C26	C	0.438573	-0.399260	0.500104
C27	C	-0.203014	-0.896995	0.000102
C28	C	0.296986	-0.396995	0.500102
N29	N	0.171763	-0.894987	0.206648
N30	N	0.671763	-0.394987	0.706648
C31	C	-0.269793	-0.823740	0.000088
C32	C	0.230207	-0.323740	0.500088
C33	C	-0.362564	-0.858337	0.065459
C34	C	0.137436	-0.358337	0.565459
C35	C	-0.362527	-0.858370	-0.065251
C36	C	0.137473	-0.358370	0.434749
C37	C	-0.293920	-0.931623	0.065528
C38	C	0.206080	-0.431623	0.565528
C39	C	-0.293874	-0.931645	-0.065241
C40	C	0.206126	-0.431645	0.434759
C41	C	-0.386619	-0.966296	0.000146
C42	C	0.113381	-0.466296	0.500146
C43	C	0.404991	-0.890751	0.000093
C44	C	0.904991	-0.390751	0.500093
C45	C	0.546578	-0.893016	0.000089
C46	C	1.046578	-0.393016	0.500089
C47	C	0.162042	-1.033328	0.000114
C48	C	0.662042	-0.533328	0.500114
C49	C	0.164297	-1.117361	0.000119
C50	C	0.664297	-0.617361	0.500119
C51	C	0.294422	-0.624782	0.000070
C52	C	0.794422	-0.124782	0.500070
C53	C	0.292295	-0.545825	0.000080
C54	C	0.792295	-0.045825	0.500080
C55	C	0.175011	-0.514737	0.000088
C56	C	0.675011	-0.014737	0.500088
C57	C	0.059847	-0.562611	0.000094
C58	C	0.559847	-0.062611	0.500094
C59	C	0.061975	-0.641567	0.000089
C60	C	0.561975	-0.141567	0.500089
C61	C	0.051260	-0.244192	0.000114
C62	C	0.551260	0.255808	0.500114
C63	C	0.049140	-0.165230	0.000116
C64	C	0.549140	0.334770	0.500116
C65	C	0.281580	-0.148450	0.000105
C66	C	0.781580	0.351550	0.500105
C67	C	0.283709	-0.227406	0.000100
C68	C	0.783709	0.272594	0.500100
C69	C	0.168545	-0.275273	0.000110
C70	C	0.668545	0.224727	0.500110
C71	C	0.170853	-0.360887	0.000100
C72	C	0.670853	0.139113	0.500100
C73	C	0.172702	-0.429124	0.000092
C74	C	0.672702	0.070876	0.500092
N75	N	0.171791	-0.895030	-0.206450
N76	N	0.671791	-0.395030	0.293550
C77	C	0.084928	-0.945983	0.248373
C78	C	0.584928	-0.445983	0.748373
C79	C	0.084927	-0.945987	0.331826
C80	C	0.584927	-0.445987	0.831826
C81	C	0.171767	-0.894998	0.373551
C82	C	0.671767	-0.394998	0.873551
C83	C	0.258606	-0.843996	0.331820
C84	C	0.758606	-0.343996	0.831820
C85	C	0.258600	-0.843989	0.248369
C86	C	0.758600	-0.343989	0.748369
C87	C	0.258631	-0.844024	0.668367
C88	C	0.758631	-0.344024	1.168367
C89	C	0.258633	-0.844037	0.751824
C90	C	0.758633	-0.344037	1.251824
C91	C	0.084958	-0.946022	0.751823
C92	C	0.584958	-0.446022	1.251823
C93	C	0.084952	-0.946015	0.668373
C94	C	0.584952	-0.446015	1.168373
C95	C	0.171786	-0.895011	0.626649
C96	C	0.671786	-0.395011	1.126649
C97	C	0.171784	-0.895006	0.536161
C98	C	0.671784	-0.395006	1.036161
C99	C	0.171776	-0.895006	0.464038
C100	C	0.671776	-0.395006	0.964038
H101	H	-0.393005	-0.827335	0.120719
H102	H	0.106995	-0.327335	0.620719
H103	H	-0.031796	-0.680540	0.000091
H104	H	0.468204	-0.180540	0.500091
N105	N	-0.453592	-1.046142	0.000205
N106	N	0.046408	-0.546142	0.500205
H107	H	-0.508427	-1.054251	-0.049167
H108	H	-0.008427	-0.554251	0.450833
H109	H	-0.387558	-1.083722	0.000732
H110	H	0.112442	-0.583722	0.500732
H111	H	0.014219	-0.987512	0.365798
H112	H	0.514219	-0.487512	0.865798
N113	N	0.410202	-0.260942	0.000097
N114	N	0.910202	0.239058	0.500097
H115	H	0.416269	-0.293325	-0.049051
H116	H	0.916269	0.206675	0.450949
H117	H	0.482763	-0.218597	0.000129
H118	H	0.982763	0.281403	0.500129
H119	H	-0.263669	-0.962585	0.120856
H120	H	0.236331	-0.462585	0.620856
H121	H	0.375352	-0.109467	0.000101
H122	H	0.875352	0.390533	0.500101
H123	H	0.389929	-0.650088	0.000063
H124	H	0.889929	-0.150088	0.500063
H125	H	-0.046372	-0.139922	0.000123
H126	H	0.453628	0.360078	0.500123
H127	H	-0.263400	-0.962621	-0.120504
H128	H	0.236600	-0.462621	0.379496
N129	N	0.416498	-0.494196	0.000167
N130	N	0.916498	0.005804	0.500167
H131	H	0.491119	-0.525871	0.000186
H132	H	0.991119	-0.025871	0.500186
H133	H	0.420777	-0.461026	-0.048948
H134	H	0.920777	0.038974	0.451052
N135	N	-0.008711	-1.001031	0.796825
N136	N	0.491289	-0.501031	1.296825
H137	H	0.005878	-1.054821	0.782294
H138	H	0.505878	-0.554821	1.282294
H139	H	0.004511	-0.993234	0.856008
H140	H	0.504511	-0.493234	1.356008
H141	H	-0.392910	-0.827371	-0.120523
H142	H	0.107090	-0.327371	0.379477
N143	N	-0.008729	-1.000984	0.203372
N144	N	0.491271	-0.500984	0.703372
H145	H	-0.063739	-1.033289	0.242471
H146	H	0.436261	-0.533289	0.742471
H147	H	-0.065059	-0.971703	0.168756
H148	H	0.434941	-0.471703	0.668756
H149	H	0.014243	-0.987537	0.634402
H150	H	0.514243	-0.487537	1.134402
H151	H	-0.042514	-0.283156	0.000122
H152	H	0.457486	0.216844	0.500122
N153	N	0.352264	-0.788985	0.203369
N154	N	0.852264	-0.288985	0.703369
H155	H	0.408676	-0.818205	0.168733
H156	H	0.908676	-0.318205	0.668733
H157	H	0.303496	-0.755221	0.168803
H158	H	0.803496	-0.255221	0.668803
N159	N	-0.066655	-0.529085	0.000115
N160	N	0.433345	-0.029085	0.500115
H161	H	-0.050533	-0.471803	0.000117
H162	H	0.449467	0.028197	0.500117
H163	H	-0.117040	-0.546549	-0.049029
H164	H	0.382960	-0.046549	0.450971
H165	H	0.329309	-0.802476	0.365798
H166	H	0.829309	-0.302476	0.865798
H167	H	0.329351	-0.802512	0.785795
H168	H	0.829351	-0.302512	1.285795
N169	N	0.352276	-0.789011	0.623371
N170	N	0.852276	-0.289011	1.123371
H171	H	0.407288	-0.756713	0.662469
H172	H	0.907288	-0.256713	1.162469
H173	H	0.408606	-0.818279	0.588733
H174	H	0.908606	-0.318279	1.088733
H175	H	-0.219023	-0.763510	0.000147
H176	H	0.280977	-0.263510	0.500147
