data_functionalizedCrystal
_audit_creation_method	'MofGen! by Chris Wilmer'
_symmetry_space_group_name_H-M	'P1'
_symmetry_Int_Tables_number	1
_symmetry_cell_setting	triclinic
loop_
_symmetry_equiv_pos_as_xyz
  x,y,z
_cell_length_a	19.188905
_cell_length_b	19.188930
_cell_length_c	17.666332
_cell_angle_alpha	90.006765
_cell_angle_beta	90.013693
_cell_angle_gamma	83.139668
loop_
_atom_site_label
_atom_site_type_symbol
_atom_site_fract_x
_atom_site_fract_y
_atom_site_fract_z
O1	O	0.926158	0.087081	0.063081
O2	O	0.722845	0.098833	0.063057
O3	O	0.830369	-0.008699	0.063055
O4	O	0.818634	0.194613	0.063083
O5	O	0.830355	-0.008695	-0.062842
O6	O	0.722830	0.098837	-0.062840
O7	O	0.926144	0.087085	-0.062815
Cu8	Cu	0.824486	0.092961	-0.074323
Cu9	Cu	0.824503	0.092957	0.074565
O10	O	0.818620	0.194617	-0.062814
C11	C	0.696826	0.098458	0.000105
C12	C	0.619321	0.097324	0.000095
C13	C	0.829982	-0.034708	0.000104
C14	C	0.828841	-0.112213	0.000098
C15	C	0.582937	0.096777	0.068723
C16	C	0.510113	0.095704	0.068732
C17	C	0.473678	0.095164	0.000110
C18	C	0.510070	0.095714	-0.068528
C19	C	0.582892	0.096794	-0.068535
N20	N	0.364652	0.053737	-0.050966
N21	N	0.295475	0.052709	-0.050954
C22	C	0.254272	0.091911	0.000127
N23	N	0.284859	0.132171	0.051208
N24	N	0.354043	0.133195	0.051199
C25	C	0.394716	0.093993	0.000110
C26	C	0.138924	0.090202	0.068770
C27	C	0.066098	0.089133	0.068777
C28	C	0.066058	0.089136	-0.068485
C29	C	0.138881	0.090212	-0.068490
C30	C	0.175310	0.090742	0.000140
C31	C	0.891933	-0.157142	0.000102
C32	C	0.890861	-0.229966	0.000114
C33	C	0.826694	-0.257857	0.000107
C34	C	0.763594	-0.212917	0.000107
C35	C	0.764668	-0.140095	0.000102
N36	N	0.777641	-0.365856	-0.042744
N37	N	0.776626	-0.435035	-0.042742
C38	C	0.823456	-0.477265	0.000122
N39	N	0.871350	-0.447705	0.042973
N40	N	0.872368	-0.378520	0.042967
C41	C	0.825523	-0.336819	0.000112
C42	C	0.885390	-0.601159	0.000140
C43	C	0.884315	-0.673984	0.000156
C44	C	0.757047	-0.656933	0.000142
C45	C	0.758123	-0.584110	0.000133
C46	C	0.822296	-0.556228	0.000128
C47	C	0.952163	0.087460	0.000138
C48	C	1.029668	0.088594	0.000153
C49	C	0.819007	0.220626	0.000139
C50	C	0.820148	0.298131	0.000150
N51	N	0.824479	0.092964	-0.179042
C52	C	0.866730	0.135181	-0.781080
C53	C	0.866723	0.135188	-0.701832
C54	C	0.824509	0.092950	-0.662224
C55	C	0.782286	0.050715	-0.701869
C56	C	0.782289	0.050715	-0.781116
N57	N	0.822819	0.031789	-0.537808
N58	N	0.822820	0.031792	-0.462528
C59	C	0.824497	0.092950	-0.423460
N60	N	0.826186	0.154106	-0.462516
N61	N	0.826189	0.154103	-0.537804
C62	C	0.824501	0.092946	-0.576295
C63	C	0.866706	0.135193	-0.297895
C64	C	0.866694	0.135201	-0.218646
C65	C	0.782261	0.050722	-0.218684
C66	C	0.782269	0.050720	-0.297932
C67	C	0.824495	0.092954	-0.337532
N68	N	0.824515	0.092949	0.179284
H69	H	0.612593	0.097209	0.124607
H70	H	0.706747	-0.547527	0.000125
H71	H	0.935694	-0.710565	0.000164
Br72	Br	0.924010	0.192510	-0.351643
Br73	Br	0.188367	0.090926	0.161908
Br74	Br	0.460624	0.094989	-0.161660
Br75	Br	0.016717	0.088401	0.161924
H76	H	0.704801	-0.679641	0.000140
H77	H	0.901069	0.169596	-0.186375
Br78	Br	0.676510	-0.250767	0.000107
Br79	Br	0.632274	0.097538	-0.161681
Br80	Br	0.188263	0.090952	-0.161634
Br81	Br	0.924032	0.192502	-0.834820
Br82	Br	0.460723	0.094964	0.161877
H83	H	0.944187	-0.134445	0.000101
H84	H	0.747914	0.016326	-0.669615
Br85	Br	0.924029	0.192495	-0.648029
Br86	Br	0.016617	0.088413	-0.161619
H87	H	0.942239	-0.266555	0.000120
H88	H	0.713289	-0.103513	0.000099
H89	H	0.747897	0.016327	-0.330204
H90	H	0.747886	0.016336	-0.186436
Br91	Br	0.972480	-0.563314	0.000126
Br92	Br	0.724992	-0.006603	-0.834911
