data_functionalizedCrystal
_audit_creation_method	'MofGen! by Chris Wilmer'
_symmetry_space_group_name_H-M	'P1'
_symmetry_Int_Tables_number	1
_symmetry_cell_setting	triclinic
loop_
_symmetry_equiv_pos_as_xyz
  x,y,z
_cell_length_a	19.805407
_cell_length_b	12.645330
_cell_length_c	19.805399
_cell_angle_alpha	90.021721
_cell_angle_beta	90.019573
_cell_angle_gamma	90.017692
loop_
_atom_site_label
_atom_site_type_symbol
_atom_site_fract_x
_atom_site_fract_y
_atom_site_fract_z
Zn1	Zn	1.034777	-0.422064	0.382747
Zn2	Zn	1.534777	0.077936	0.882747
Zn3	Zn	1.034709	-0.599342	0.269571
Zn4	Zn	1.534709	-0.099342	0.769571
Zn5	Zn	0.921591	-0.422093	0.269572
Zn6	Zn	1.421591	0.077907	0.769572
Zn7	Zn	0.921572	-0.599286	0.382717
Zn8	Zn	1.421572	-0.099286	0.882717
O9	O	0.978162	-0.510696	0.326152
O10	O	1.478162	-0.010696	0.826152
O11	O	1.129484	-0.445592	0.367746
O12	O	1.629484	0.054408	0.867746
O13	O	1.019683	-0.575865	0.174854
O14	O	1.519683	-0.075865	0.674854
O15	O	0.936642	-0.273742	0.284598
O16	O	1.436642	0.226258	0.784598
O17	O	1.129434	-0.575837	0.284596
O18	O	1.629434	-0.075837	0.784596
O19	O	1.019799	-0.273721	0.367747
O20	O	1.519799	0.226279	0.867747
O21	O	0.936576	-0.445641	0.174855
O22	O	1.436576	0.054359	0.674855
O23	O	0.826872	-0.445587	0.284569
O24	O	1.326872	0.054413	0.784569
O25	O	0.936609	-0.575741	0.477438
O26	O	1.436609	-0.075741	0.977438
O27	O	0.826858	-0.575769	0.367696
O28	O	1.326858	-0.075769	0.867696
O29	O	1.019780	-0.445537	0.477460
O30	O	1.519780	0.054463	0.977460
O31	O	1.019664	-0.747682	0.284567
O32	O	1.519664	-0.247682	0.784567
O33	O	0.936543	-0.747641	0.367695
O34	O	1.436543	-0.247641	0.867695
C35	C	0.802306	-0.510676	0.326130
C36	C	1.302306	-0.010676	0.826130
C37	C	0.727074	-0.510693	0.326137
C38	C	1.227074	-0.010693	0.826137
C39	C	0.978113	-0.786126	0.326142
C40	C	1.478113	-0.286126	0.826142
C41	C	0.978154	-0.903956	0.326161
C42	C	1.478154	-0.403956	0.826161
C43	C	0.691740	-0.578581	0.369351
C44	C	1.191740	-0.078581	0.869351
C45	C	0.621052	-0.578583	0.369361
C46	C	1.121052	-0.078583	0.869361
C47	C	0.585699	-0.510701	0.326152
C48	C	1.085699	-0.010701	0.826152
C49	C	0.621037	-0.442805	0.282935
C50	C	1.121037	0.057195	0.782935
C51	C	0.691725	-0.442799	0.282930
C52	C	1.191725	0.057201	0.782930
C53	C	0.335964	-0.442829	0.282958
C54	C	0.835964	0.057171	0.782958
C55	C	0.265272	-0.442843	0.282965
C56	C	0.765272	0.057157	0.782965
C57	C	0.265292	-0.578613	0.369388
C58	C	0.765292	-0.078613	0.869388
C59	C	0.335979	-0.578606	0.369383
C60	C	0.835979	-0.078606	0.869383
C61	C	0.371311	-0.510707	0.326169
C62	C	0.871311	-0.010707	0.826169
C63	C	0.447960	-0.510705	0.326160
C64	C	0.947960	-0.010705	0.826160
C65	C	0.509051	-0.510708	0.326157
C66	C	1.009051	-0.010708	0.826157
C67	C	0.926078	-1.071538	0.378618
C68	C	1.426078	-0.571538	0.878618
C69	C	0.925811	-0.948979	0.378450
C70	C	1.425811	-0.448979	0.878450
C71	C	0.958847	-0.948544	0.254828
C72	C	1.458847	-0.448544	0.754828
C73	C	0.958530	-1.071142	0.255147
C74	C	1.458530	-0.571142	0.755147
C75	C	1.049854	-1.071047	0.344457
C76	C	1.549854	-0.571047	0.844457
C77	C	1.049415	-0.948440	0.346017
C78	C	1.549415	-0.448440	0.846017
C79	C	1.154705	-0.510717	0.326174
C80	C	1.654705	-0.010717	0.826174
C81	C	1.229937	-0.510726	0.326184
C82	C	1.729937	-0.010726	0.826184
C83	C	0.978200	-0.510629	0.502695
C84	C	1.478200	-0.010629	1.002695
C85	C	0.978216	-0.510601	0.577927
C86	C	1.478216	-0.010601	1.077927
C87	C	0.978230	-0.234191	0.326176
C88	C	1.478230	0.265809	0.826176
C89	C	0.978259	-0.116361	0.326186
C90	C	1.478259	0.383639	0.826186
C91	C	0.978163	-0.510686	0.150296
C92	C	1.478163	-0.010686	0.650296
C93	C	0.978278	-0.510416	0.075064
C94	C	1.478278	-0.010416	0.575064
C95	C	1.021524	-0.442800	0.613283
C96	C	1.521524	0.057200	1.113283
C97	C	1.021531	-0.442770	0.683972
C98	C	1.521531	0.057230	1.183972
C99	C	0.978233	-0.510546	0.719302
C100	C	1.478233	-0.010546	1.219302
C101	C	0.934920	-0.578349	0.683941
C102	C	1.434920	-0.078349	1.183941
C103	C	0.934910	-0.578374	0.613253
C104	C	1.434910	-0.078374	1.113253
C105	C	0.934958	-0.578250	0.969014
C106	C	1.434958	-0.078250	1.469014
C107	C	0.934973	-0.578223	1.039706
C108	C	1.434973	-0.078223	1.539706
C109	C	1.021579	-0.442646	1.039732
C110	C	1.521579	0.057354	1.539732
C111	C	1.021570	-0.442671	0.969045
C112	C	1.521570	0.057329	1.469045
C113	C	0.978255	-0.510470	0.933690
C114	C	1.478255	-0.010470	1.433690
C115	C	0.978247	-0.510501	0.857041
C116	C	1.478247	-0.010501	1.357041
C117	C	0.978244	-0.510521	0.795949
C118	C	1.478244	-0.010521	1.295949
H119	H	0.592286	-0.633865	0.404549
H120	H	1.092286	-0.133865	0.904549
O121	O	0.370394	-0.644397	0.411392
O122	O	0.870394	-0.144397	0.911392
C123	C	0.450204	-0.658821	0.502783
C124	C	0.950204	-0.158821	1.002783
C125	C	0.411286	-0.584199	0.455236
C126	C	0.911286	-0.084199	0.955236
H127	H	0.483264	-0.610180	0.538252
H128	H	0.983264	-0.110180	1.038252
H129	H	0.483324	-0.714171	0.471686
H130	H	0.983324	-0.214171	0.971686
H131	H	0.412793	-0.707365	0.533641
H132	H	0.912793	-0.207365	1.033641
H133	H	0.448648	-0.535587	0.424367
H134	H	0.948648	-0.035587	0.924367
H135	H	0.378156	-0.528919	0.486371
H136	H	0.878156	-0.028919	0.986371
H137	H	1.056799	-0.387562	0.712756
H138	H	1.556799	0.112438	1.212756
O139	O	0.230903	-0.377051	0.240913
O140	O	0.730903	0.122949	0.740913
C141	C	0.151038	-0.362624	0.149570
C142	C	0.651038	0.137376	0.649570
C143	C	0.189928	-0.437242	0.197142
C144	C	0.689928	0.062758	0.697142
H145	H	0.117889	-0.411257	0.114179
H146	H	0.617889	0.088743	0.614179
H147	H	0.188407	-0.314117	0.118635
H148	H	0.688407	0.185883	0.618635
H149	H	0.117989	-0.307240	0.180716
H150	H	0.617989	0.192760	0.680716
H151	H	0.222977	-0.492690	0.166049
H152	H	0.722977	0.007310	0.666049
H153	H	0.152522	-0.485674	0.228080
H154	H	0.652522	0.014326	0.728080
O155	O	0.230864	-0.644464	0.411351
O156	O	0.730864	-0.144464	0.911351
C157	C	0.121976	-0.704699	0.449641
C158	C	0.621976	-0.204699	0.949641
C159	C	0.160878	-0.630051	0.402099
C160	C	0.660878	-0.130051	0.902099
H161	H	0.065386	-0.693087	0.442167
H162	H	0.565386	-0.193087	0.942167
H163	H	0.135853	-0.686196	0.504252
H164	H	0.635853	-0.186196	1.004252
H165	H	0.135896	-0.790140	0.437665
H166	H	0.635896	-0.290140	0.937665
H167	H	0.146979	-0.544584	0.414014
H168	H	0.646979	-0.044584	0.914014
H169	H	0.146998	-0.648645	0.347502
H170	H	0.646998	-0.148645	0.847502
H171	H	0.720492	-0.387512	0.247744
H172	H	1.220492	0.112488	0.747744
H173	H	1.056830	-0.387484	0.940283
H174	H	1.556830	0.112516	1.440283
H175	H	0.364723	-0.387549	0.247765
H176	H	0.864723	0.112451	0.747765
O177	O	1.063490	-0.376906	0.578893
O178	O	1.563490	0.123094	1.078893
C179	C	1.072613	-0.233757	0.499139
C180	C	1.572613	0.266243	0.999139
C181	C	1.025013	-0.308340	0.538028
C182	C	1.525013	0.191660	1.038028
H183	H	1.041523	-0.178288	0.466101
H184	H	1.541523	0.321712	0.966101
H185	H	1.107980	-0.282377	0.466000
H186	H	1.607980	0.217623	0.966000
H187	H	1.103579	-0.185341	0.536569
H188	H	1.603579	0.314659	1.036569
H189	H	0.994003	-0.356772	0.500646
H190	H	1.494003	0.143228	1.000646
H191	H	0.989690	-0.259658	0.571176
H192	H	1.489690	0.240342	1.071176
H193	H	1.056846	-0.387437	1.068527
H194	H	1.556846	0.112563	1.568527
H195	H	0.907057	-0.917931	0.239071
H196	H	1.407057	-0.417931	0.739071
H197	H	0.899664	-0.633530	0.712712
H198	H	1.399664	-0.133530	1.212712
O199	O	0.893005	-0.644176	1.074056
O200	O	1.393005	-0.144176	1.574056
C201	C	0.883875	-0.787231	1.153878
C202	C	1.383875	-0.287231	1.653878
C203	C	0.931475	-0.712625	1.115008
C204	C	1.431475	-0.212625	1.615008
H205	H	0.914958	-0.842576	1.187008
H206	H	1.414958	-0.342576	1.687008
H207	H	0.852926	-0.835770	1.116496
H208	H	1.352926	-0.335770	1.616496
H209	H	0.848491	-0.738520	1.186943
H210	H	1.348491	-0.238520	1.686943
H211	H	0.966900	-0.761254	1.081942
H212	H	1.466900	-0.261254	1.581942
H213	H	0.962376	-0.664083	1.152427
H214	H	1.462376	-0.164083	1.652427
O215	O	0.586593	-0.376959	0.240987
O216	O	1.086593	0.123041	0.740987
C217	C	0.477689	-0.316741	0.202725
C218	C	0.977689	0.183259	0.702725
C219	C	0.516611	-0.391385	0.250255
C220	C	1.016611	0.108615	0.750255
H221	H	0.421102	-0.328363	0.210212
H222	H	0.921102	0.171637	0.710212
H223	H	0.491510	-0.335237	0.148111
H224	H	0.991510	0.164763	0.648111
H225	H	0.491648	-0.231297	0.214700
H226	H	0.991648	0.268703	0.714700
H227	H	0.502673	-0.476853	0.238342
H228	H	1.002673	0.023147	0.738342
H229	H	0.502787	-0.372798	0.304856
H230	H	1.002787	0.127202	0.804856
O231	O	1.070904	-1.107660	0.405489
O232	O	1.570904	-0.607660	0.905489
C233	C	1.105364	-1.063352	0.518719
C234	C	1.605364	-0.563352	1.018719
C235	C	1.081555	-1.021743	0.449627
C236	C	1.581555	-0.521743	0.949627
H237	H	1.113969	-0.993911	0.554427
H238	H	1.613969	-0.493911	1.054427
H239	H	1.154538	-1.109062	0.512187
H240	H	1.654538	-0.609062	1.012187
H241	H	1.065161	-1.117906	0.540706
H242	H	1.565161	-0.617906	1.040706
H243	H	1.121711	-0.967148	0.427602
H244	H	1.621711	-0.467148	0.927602
H245	H	1.032365	-0.976094	0.456202
H246	H	1.532365	-0.476094	0.956202
O247	O	0.892854	-0.644195	0.934780
O248	O	1.392854	-0.144195	1.434780
C249	C	0.806897	-0.778586	0.942220
C250	C	1.306897	-0.278586	1.442220
C251	C	0.854566	-0.703983	0.981077
C252	C	1.354566	-0.203983	1.481077
H253	H	0.775919	-0.826929	0.979635
H254	H	1.275919	-0.326929	1.479635
H255	H	0.837903	-0.834114	0.909135
H256	H	1.337903	-0.334114	1.409135
H257	H	0.771545	-0.729882	0.909117
H258	H	1.271545	-0.229882	1.409117
H259	H	0.889928	-0.752602	1.014218
H260	H	1.389928	-0.252602	1.514218
H261	H	0.823519	-0.648452	1.014120
H262	H	1.323519	-0.148452	1.514120
H263	H	0.995649	-0.919382	0.214695
H264	H	1.495649	-0.419382	0.714695
O265	O	1.098285	-0.912059	0.303765
O266	O	1.598285	-0.412059	0.803765
C267	C	1.185007	-0.956825	0.223385
C268	C	1.685007	-0.456825	0.723385
C269	C	1.129697	-0.998168	0.271231
C270	C	1.629697	-0.498168	0.771231
H271	H	1.210409	-1.026422	0.197058
H272	H	1.710409	-0.526422	0.697058
H273	H	1.224212	-0.910828	0.253652
H274	H	1.724212	-0.410828	0.753652
H275	H	1.161309	-0.902601	0.183988
H276	H	1.661309	-0.402601	0.683988
H277	H	1.153335	-1.052434	0.310637
H278	H	1.653335	-0.552434	0.810637
H279	H	1.090499	-1.044105	0.240919
H280	H	1.590499	-0.544105	0.740919
H281	H	0.937890	-0.918829	0.431342
H282	H	1.437890	-0.418829	0.931342
O283	O	0.940272	-1.106495	0.441975
O284	O	1.440272	-0.606495	0.941975
C285	C	0.908762	-1.104756	0.559476
C286	C	1.408762	-0.604756	1.059476
C287	C	0.892618	-1.065063	0.487760
C288	C	1.392618	-0.565063	0.987760
H289	H	0.870235	-1.071293	0.596510
H290	H	1.370235	-0.571293	1.096510
H291	H	0.961545	-1.077610	0.574584
H292	H	1.461545	-0.577610	1.074584
H293	H	0.906434	-1.194824	0.560416
H294	H	1.406434	-0.694824	1.060416
H295	H	0.894909	-0.974998	0.486765
H296	H	1.394909	-0.474998	0.986765
H297	H	0.839844	-1.092289	0.472681
H298	H	1.339844	-0.592289	0.972681
H299	H	0.873332	-1.102438	0.366668
H300	H	1.373332	-0.602438	0.866668
H301	H	0.899638	-0.633574	0.584467
H302	H	1.399638	-0.133574	1.084467
O303	O	0.862463	-0.914270	0.363964
O304	O	1.362463	-0.414270	0.863964
C305	C	0.747618	-0.962257	0.337891
C306	C	1.247618	-0.462257	0.837891
C307	C	0.819335	-1.001708	0.354279
C308	C	1.319335	-0.501708	0.854279
H309	H	0.712726	-1.032930	0.330070
H310	H	1.212726	-0.532930	0.830070
H311	H	0.748898	-0.912475	0.289929
H312	H	1.248898	-0.412475	0.789929
H313	H	0.728127	-0.912148	0.381593
H314	H	1.228127	-0.412148	0.881593
H315	H	0.838869	-1.051860	0.310620
H316	H	1.338869	-0.551860	0.810620
H317	H	0.818013	-1.051433	0.402263
H318	H	1.318013	-0.551433	0.902263
O319	O	1.096236	-1.105806	0.298959
O320	O	1.596236	-0.605806	0.798959
C321	C	1.151069	-1.256463	0.248540
C322	C	1.651069	-0.756463	0.748540
C323	C	1.098540	-1.217234	0.300102
C324	C	1.598540	-0.717234	0.800102
H325	H	1.152939	-1.346557	0.249437
H326	H	1.652939	-0.846557	0.749437
H327	H	1.202884	-1.223382	0.262097
H328	H	1.702884	-0.723382	0.762097
H329	H	1.136236	-1.228484	0.195873
H330	H	1.636236	-0.728484	0.695873
H331	H	1.113310	-1.245199	0.352787
H332	H	1.613310	-0.745199	0.852787
H333	H	1.046738	-1.250306	0.286487
H334	H	1.546738	-0.750306	0.786487
H335	H	0.994887	-1.100796	0.214749
H336	H	1.494887	-0.600796	0.714749
O337	O	0.725975	-0.644556	0.411389
O338	O	1.225975	-0.144556	0.911389
C339	C	0.718525	-0.779264	0.497089
C340	C	1.218525	-0.279264	0.997089
C341	C	0.679674	-0.704587	0.449523
C342	C	1.179674	-0.204587	0.949523
H343	H	0.681108	-0.827834	0.527922
H344	H	1.181108	-0.327834	1.027922
H345	H	0.751623	-0.730714	0.532575
H346	H	1.251623	-0.230714	1.032575
H347	H	0.751616	-0.834585	0.465942
H348	H	1.251616	-0.334585	0.965942
H349	H	0.646546	-0.649251	0.480615
H350	H	1.146546	-0.149251	0.980615
H351	H	0.646619	-0.753203	0.414034
H352	H	1.146619	-0.253203	0.914034
H353	H	0.906193	-1.099832	0.239669
H354	H	1.406193	-0.599832	0.739669
H355	H	1.063974	-0.919294	0.398514
H356	H	1.563974	-0.419294	0.898514
