data_functionalizedCrystal
_audit_creation_method	'MofGen! by Chris Wilmer'
_symmetry_space_group_name_H-M	'P1'
_symmetry_Int_Tables_number	1
_symmetry_cell_setting	triclinic
loop_
_symmetry_equiv_pos_as_xyz
  x,y,z
_cell_length_a	11.792241
_cell_length_b	17.699083
_cell_length_c	16.176319
_cell_angle_alpha	90.007696
_cell_angle_beta	90.003197
_cell_angle_gamma	83.738215
loop_
_atom_site_label
_atom_site_type_symbol
_atom_site_fract_x
_atom_site_fract_y
_atom_site_fract_z
O1	O	-1.505670	-0.103738	-0.068668
O2	O	-1.175201	-0.114429	-0.068688
O3	O	-1.349772	0.001056	-0.068670
O4	O	-1.331099	-0.219223	-0.068686
O5	O	-1.349748	0.001063	0.068823
O6	O	-1.175177	-0.114422	0.068806
O7	O	-1.505646	-0.103731	0.068825
Cu8	Cu	-1.340409	-0.109075	0.081370
Cu9	Cu	-1.340437	-0.109084	-0.081232
O10	O	-1.331075	-0.219216	0.068808
C11	C	-1.349091	0.029260	0.000077
C12	C	-1.347083	0.113289	0.000077
C13	C	-1.132906	-0.113754	0.000057
C14	C	-1.006916	-0.111744	0.000049
C15	C	-1.547941	-0.104406	0.000079
C16	C	-1.673930	-0.106416	0.000081
C17	C	-0.776248	-0.108048	0.000073
C18	C	-0.904609	-0.110101	0.000060
C19	C	-1.331756	-0.247420	0.000059
C20	C	-1.333763	-0.331449	0.000053
N21	N	-1.340397	-0.109069	0.195735
C22	C	-1.449553	0.161364	0.000084
C23	C	-1.447660	0.240317	0.000077
C24	C	-1.343297	0.271194	0.000068
C25	C	-1.240819	0.223113	0.000058
C26	C	-1.242713	0.144161	0.000060
C27	C	-1.233178	0.541517	0.000051
C28	C	-1.231292	0.620475	0.000052
C29	C	-1.438126	0.637673	0.000068
C30	C	-1.440020	0.558721	0.000070
C31	C	-1.337543	0.510647	0.000055
C32	C	-1.339596	0.425037	0.000062
C33	C	-1.341242	0.356803	0.000067
N34	N	-1.340458	-0.109085	-0.195597
C35	C	-1.417721	-0.057953	0.239007
C36	C	-1.417727	-0.057952	0.325554
C37	C	-1.340413	-0.109071	0.368827
C38	C	-1.263082	-0.160189	0.325549
C39	C	-1.263072	-0.160186	0.239004
C40	C	-1.263121	-0.160204	0.674578
C41	C	-1.263139	-0.160205	0.761129
C42	C	-1.417776	-0.057970	0.761128
C43	C	-1.417765	-0.057967	0.674582
C44	C	-1.340430	-0.109082	0.631312
C45	C	-1.340424	-0.109081	0.537468
C46	C	-1.340425	-0.109076	0.462670
H47	H	-1.531101	0.279457	0.000084
H48	H	-1.200177	-0.201834	0.796361
H49	H	-1.200154	-0.201825	0.639354
O50	O	-1.541369	0.528691	0.000222
C51	C	-1.663508	0.449503	0.071429
C52	C	-1.548700	0.483474	0.071374
H53	H	-1.669462	0.412925	0.128940
H54	H	-1.736470	0.497396	0.071483
H55	H	-1.669552	0.412996	0.013861
H56	H	-1.542545	0.519973	0.128931
H57	H	-1.475793	0.435545	0.071276
O58	O	-1.188021	-0.209949	0.367489
C59	C	-1.121179	-0.341255	0.393982
C60	C	-1.206233	-0.284984	0.346424
H61	H	-1.135890	-0.401933	0.376981
H62	H	-1.030284	-0.331042	0.376960
H63	H	-1.134449	-0.332443	0.463268
H64	H	-1.193068	-0.293763	0.277126
H65	H	-1.297098	-0.295212	0.363515
O66	O	-1.143205	0.097427	-0.000091
C67	C	-1.025352	-0.001736	-0.071309
C68	C	-1.138077	0.051158	-0.071245
H69	H	-1.021179	-0.039169	-0.128822
H70	H	-0.950388	0.033854	-0.071368
H71	H	-1.021070	-0.039089	-0.013743
H72	H	-1.142469	0.088522	-0.128801
H73	H	-1.212987	0.015523	-0.071144
O74	O	-1.492867	-0.008222	0.197103
C75	C	-1.646293	0.093156	0.206246
C76	C	-1.561235	0.036886	0.253801
H77	H	-1.701606	0.129630	0.252066
H78	H	-1.597457	0.131241	0.165763
H79	H	-1.702841	0.060212	0.165692
H80	H	-1.504665	0.069768	0.294400
H81	H	-1.610141	-0.001199	0.294232
O82	O	-1.492690	-0.008225	0.367621
C83	C	-1.517184	0.095007	0.465377
C84	C	-1.432157	0.038742	0.417778
H85	H	-1.468276	0.132983	0.505954
H86	H	-1.572426	0.131591	0.419615
H87	H	-1.573809	0.062057	0.505847
H88	H	-1.375458	0.071631	0.377307
H89	H	-1.376995	0.002158	0.463585
O90	O	-1.139412	0.253070	-0.000099
C91	C	-0.962034	0.262481	-0.071320
C92	C	-1.076850	0.228521	-0.071257
H93	H	-0.911410	0.242634	-0.128836
H94	H	-0.978214	0.327172	-0.071371
H95	H	-0.911441	0.242735	-0.013757
H96	H	-1.127501	0.248208	-0.128809
H97	H	-1.060588	0.163835	-0.071163
H98	H	-1.480724	-0.016343	0.639351
O99	O	-1.492841	-0.008204	0.803073
C100	C	-1.559670	0.123103	0.829605
C101	C	-1.474616	0.066830	0.782038
H102	H	-1.544949	0.183781	0.812629
H103	H	-1.650565	0.112896	0.812564
H104	H	-1.546410	0.114286	0.898890
H105	H	-1.487772	0.075614	0.712742
H106	H	-1.383752	0.077052	0.799147
H107	H	-1.534538	0.136230	0.000096
H108	H	-1.200106	-0.201809	0.203773
H109	H	-1.521567	0.676825	0.000075
H110	H	-1.149735	0.502384	0.000040
O111	O	-1.129808	0.650344	0.000000
C112	C	-0.924849	0.624959	0.000018
C113	C	-1.039690	0.591030	0.000057
H114	H	-0.851958	0.577020	0.000082
H115	H	-0.918738	0.661461	-0.057536
H116	H	-0.918838	0.661524	0.057545
H117	H	-1.045778	0.554431	-0.057431
H118	H	-1.045751	0.554572	0.057650
