data_functionalizedCrystal
_audit_creation_method	'MofGen! by Chris Wilmer'
_symmetry_space_group_name_H-M	'P1'
_symmetry_Int_Tables_number	1
_symmetry_cell_setting	triclinic
loop_
_symmetry_equiv_pos_as_xyz
  x,y,z
_cell_length_a	11.792241
_cell_length_b	11.792241
_cell_length_c	13.330367
_cell_angle_alpha	90.004769
_cell_angle_beta	90.002703
_cell_angle_gamma	84.193416
loop_
_atom_site_label
_atom_site_type_symbol
_atom_site_fract_x
_atom_site_fract_y
_atom_site_fract_z
O1	O	-1.506914	-0.155567	-0.083311
O2	O	-1.176573	-0.171600	-0.083338
O3	O	-1.349760	0.001587	-0.083317
O4	O	-1.333727	-0.328754	-0.083333
O5	O	-1.349734	0.001591	0.083530
O6	O	-1.176547	-0.171596	0.083509
O7	O	-1.506889	-0.155563	0.083536
Cu8	Cu	-1.341716	-0.163579	0.098757
Cu9	Cu	-1.341746	-0.163584	-0.098559
O10	O	-1.333702	-0.328750	0.083515
C11	C	-1.134269	-0.170591	0.000082
C12	C	-1.008255	-0.167576	0.000072
C13	C	-1.348740	0.043880	0.000106
C14	C	-1.345726	0.169894	0.000105
C15	C	-0.777543	-0.162034	0.000099
C16	C	-0.905928	-0.165113	0.000084
C17	C	-0.549192	-0.156572	0.000111
C18	C	-0.675206	-0.159587	0.000107
C19	C	-1.334721	-0.371043	0.000089
C20	C	-1.337736	-0.497057	0.000084
N21	N	-1.341703	-0.163575	0.237538
C22	C	-1.340183	0.400606	0.000088
C23	C	-1.343262	0.272221	0.000097
N24	N	-1.341767	-0.163579	-0.237341
C25	C	-1.265055	-0.240241	0.710152
C26	C	-1.418467	-0.086918	0.710138
C27	C	-1.418454	-0.086915	0.605120
C28	C	-1.341742	-0.163577	0.552613
C29	C	-1.265042	-0.240242	0.605124
C30	C	-1.495160	-0.010259	0.552601
C31	C	-1.495151	-0.010253	0.447576
C32	C	-1.418432	-0.086910	0.395067
C33	C	-1.341729	-0.163578	0.447585
C34	C	-1.265016	-0.240239	0.395077
C35	C	-1.188306	-0.316902	0.447593
C36	C	-1.188323	-0.316899	0.552615
C37	C	-1.418415	-0.086913	0.290046
C38	C	-1.265003	-0.240240	0.290049
H39	H	-1.202530	-0.302664	0.247304
H40	H	-1.480929	-0.024508	0.752893
Br41	Br	-1.599277	0.093769	0.623857
Br42	Br	-1.084226	-0.420936	0.623887
Br43	Br	-1.160945	-0.344273	0.781415
Br44	Br	-1.084211	-0.420951	0.376322
H45	H	-1.557611	0.052171	0.404825
H46	H	-1.480876	-0.024501	0.247292
