data_functionalizedCrystal
_audit_creation_method	'MofGen! by Chris Wilmer'
_symmetry_space_group_name_H-M	'P1'
_symmetry_Int_Tables_number	1
_symmetry_cell_setting	triclinic
loop_
_symmetry_equiv_pos_as_xyz
  x,y,z
_cell_length_a	13.897449
_cell_length_b	12.759400
_cell_length_c	12.759393
_cell_angle_alpha	90.025504
_cell_angle_beta	89.976287
_cell_angle_gamma	89.997846
loop_
_atom_site_label
_atom_site_type_symbol
_atom_site_fract_x
_atom_site_fract_y
_atom_site_fract_z
Zn1	Zn	-1.474814	-0.418220	0.594134
Zn2	Zn	-1.474749	-0.593936	0.418470
Zn3	Zn	-1.313501	-0.418271	0.418461
Zn4	Zn	-1.313528	-0.593857	0.594099
O5	O	-1.394148	-0.506071	0.506291
O6	O	-1.609787	-0.441541	0.570851
O7	O	-1.453320	-0.570687	0.271448
O8	O	-1.334915	-0.271243	0.441776
O9	O	-1.609739	-0.570638	0.441791
O10	O	-1.453431	-0.271206	0.570842
O11	O	-1.334852	-0.441627	0.271441
O12	O	-1.178523	-0.441551	0.441741
O13	O	-1.334962	-0.570504	0.741124
O14	O	-1.178543	-0.570553	0.570781
O15	O	-1.453458	-0.441465	0.741151
O16	O	-1.453347	-0.740946	0.441756
O17	O	-1.334898	-0.740888	0.570790
C18	C	-1.143533	-0.506050	0.506257
C19	C	-1.036319	-0.506066	0.506267
C20	C	-1.394145	-0.779038	0.506293
C21	C	-1.394231	-0.895815	0.506329
C22	C	-1.394220	-0.505970	0.780324
C23	C	-1.394251	-0.505927	0.897101
C24	C	-0.840024	-0.506065	0.506287
C25	C	-0.949257	-0.506062	0.506273
C26	C	-0.645741	-0.506086	0.506316
C27	C	-0.752955	-0.506074	0.506300
C28	C	-1.394177	-0.232038	0.506312
C29	C	-1.394190	-0.115261	0.506321
C30	C	-1.332553	0.049366	0.573507
C31	C	-1.332529	-0.060358	0.573501
C32	C	-1.455871	-0.060434	0.439135
C33	C	-1.455889	0.049288	0.439137
C34	C	-1.394131	-0.506096	0.233324
C35	C	-1.394287	-0.505843	0.116547
C36	C	-1.455956	-0.438725	0.951979
C37	C	-1.455972	-0.438680	1.061703
C38	C	-1.332575	-0.573047	1.061662
C39	C	-1.332555	-0.573086	0.951940
H40	H	-1.282345	0.094062	0.628218
F41	F	-1.521654	-0.367161	1.120102
H42	H	-1.506190	-0.384037	0.907332
H43	H	-1.282300	-0.627809	0.907258
H44	H	-1.506072	-0.105145	0.384431
F45	F	-1.266882	-0.118695	0.645002
F46	F	-1.521538	0.107633	0.367630
H47	H	-1.282347	-0.627728	1.106326
