data_functionalizedCrystal
_audit_creation_method	'MofGen! by Chris Wilmer'
_symmetry_space_group_name_H-M	'P1'
_symmetry_Int_Tables_number	1
_symmetry_cell_setting	triclinic
loop_
_symmetry_equiv_pos_as_xyz
  x,y,z
_cell_length_a	18.215407
_cell_length_b	13.897441
_cell_length_c	13.897447
_cell_angle_alpha	90.028354
_cell_angle_beta	89.983027
_cell_angle_gamma	89.982568
loop_
_atom_site_label
_atom_site_type_symbol
_atom_site_fract_x
_atom_site_fract_y
_atom_site_fract_z
Zn1	Zn	1.125100	-0.545360	0.384059
Zn2	Zn	1.125020	-0.384065	0.545378
Zn3	Zn	1.002032	-0.384081	0.384092
Zn4	Zn	1.002010	-0.545321	0.545307
O5	O	1.063540	-0.464707	0.464709
O6	O	1.228073	-0.523973	0.405475
O7	O	1.108681	-0.249085	0.524027
O8	O	1.018400	-0.405499	0.249106
O9	O	1.228014	-0.405470	0.523995
O10	O	1.108818	-0.523989	0.249082
O11	O	1.018323	-0.249097	0.405530
O12	O	0.899045	-0.405461	0.405461
O13	O	1.018362	-0.680307	0.523873
O14	O	0.899028	-0.523922	0.523905
O15	O	1.108796	-0.680336	0.405406
O16	O	1.108659	-0.405432	0.680350
O17	O	1.018284	-0.523906	0.680298
C18	C	0.872334	-0.464690	0.464679
C19	C	0.790535	-0.464705	0.464690
C20	C	0.602371	-0.526507	0.403103
C21	C	0.525512	-0.526510	0.403112
C22	C	0.525462	-0.402923	0.526342
C23	C	0.602319	-0.402916	0.526328
C24	C	0.640772	-0.464713	0.464710
C25	C	0.487056	-0.464724	0.464732
C26	C	0.403722	-0.464727	0.464742
C27	C	0.724111	-0.464709	0.464699
C28	C	1.063585	-0.716300	0.464628
C29	C	1.063605	-0.823514	0.464593
C30	C	1.063620	-0.910584	0.464566
C31	C	1.063641	-1.019816	0.464523
C32	C	1.255493	-0.464724	0.464739
C33	C	1.337292	-0.464732	0.464752
C34	C	1.063480	-0.464684	0.715323
C35	C	1.063522	-0.464707	0.822537
C36	C	1.063538	-0.214092	0.464720
C37	C	1.063661	-0.106879	0.464483
C38	C	1.063620	-0.464750	0.213116
C39	C	1.063655	-0.464769	0.105902
C40	C	1.063558	-0.464729	0.909607
C41	C	1.063609	-0.464754	1.018839
H42	H	0.633586	-0.352590	0.576496
C43	C	0.643988	-0.593632	0.336096
C44	C	0.593903	-0.647730	0.282128
C45	C	0.632211	-0.709566	0.220379
H46	H	0.673979	-0.635682	0.372932
H47	H	0.673949	-0.556823	0.293967
H48	H	0.563954	-0.684536	0.324252
H49	H	0.563910	-0.605705	0.245273
H50	H	0.662173	-0.672758	0.178250
H51	H	0.662201	-0.751610	0.257223
H52	H	0.598235	-0.746273	0.183749
C53	C	0.483727	-0.593662	0.336383
C54	C	0.439598	-0.655380	0.391081
C55	C	0.401088	-0.717247	0.329640
H56	H	0.517553	-0.630555	0.299665
H57	H	0.453698	-0.556867	0.294327
H58	H	0.469624	-0.692172	0.433120
H59	H	0.405757	-0.618514	0.427797
H60	H	0.371060	-0.680451	0.287584
H61	H	0.434920	-0.754132	0.292926
H62	H	0.371137	-0.759123	0.366743
C63	C	0.483579	-0.335943	0.593208
C64	C	0.408051	-0.349194	0.580056
C65	C	0.369447	-0.287519	0.641650
H66	H	0.496067	-0.271116	0.579075
H67	H	0.496130	-0.349960	0.658053
H68	H	0.395505	-0.335170	0.515226
H69	H	0.395540	-0.414008	0.594197
H70	H	0.381998	-0.301536	0.706495
H71	H	0.381942	-0.222695	0.627511
H72	H	0.318198	-0.296507	0.632741
