data_functionalizedCrystal
_audit_creation_method	'MofGen! by Chris Wilmer'
_symmetry_space_group_name_H-M	'P1'
_symmetry_Int_Tables_number	1
_symmetry_cell_setting	triclinic
loop_
_symmetry_equiv_pos_as_xyz
  x,y,z
_cell_length_a	19.077105
_cell_length_b	16.120484
_cell_length_c	19.076919
_cell_angle_alpha	95.046610
_cell_angle_beta	90.076224
_cell_angle_gamma	90.738523
loop_
_atom_site_label
_atom_site_type_symbol
_atom_site_fract_x
_atom_site_fract_y
_atom_site_fract_z
Zn1	Zn	1.040337	-0.403262	-0.456942
Zn2	Zn	1.540337	0.096738	0.043058
Zn3	Zn	1.039017	-0.537287	-0.344927
Zn4	Zn	1.539017	-0.037287	0.155073
Zn5	Zn	0.928051	-0.392095	-0.334278
Zn6	Zn	1.428051	0.107905	0.165722
Zn7	Zn	0.916861	-0.536784	-0.457659
Zn8	Zn	1.416861	-0.036784	0.042341
O9	O	0.981066	-0.467357	-0.398451
O10	O	1.481066	0.032643	0.101549
O11	O	1.138276	-0.425924	-0.446240
O12	O	1.638276	0.074076	0.053760
O13	O	1.028428	-0.513564	-0.245000
O14	O	1.528428	-0.013564	0.255000
O15	O	0.948182	-0.276934	-0.345793
O16	O	1.448182	0.223066	0.154207
O17	O	1.137306	-0.524392	-0.363943
O18	O	1.637306	-0.024392	0.136057
O19	O	1.030678	-0.285138	-0.435913
O20	O	1.530678	0.214862	0.064087
O21	O	0.946902	-0.406892	-0.237176
O22	O	1.446902	0.093108	0.262824
O23	O	0.828452	-0.406405	-0.346488
O24	O	1.328452	0.093595	0.153512
O25	O	0.929109	-0.523535	-0.556078
O26	O	1.429109	-0.023535	-0.056078
O27	O	0.820230	-0.512707	-0.437136
O28	O	1.320230	-0.012707	0.062864
O29	O	1.019827	-0.425436	-0.555551
O30	O	1.519827	0.074564	-0.055551
O31	O	1.017576	-0.653863	-0.364638
O32	O	1.517576	-0.153863	0.135362
O33	O	0.927829	-0.653494	-0.447462
O34	O	1.427829	-0.153494	0.052538
C35	C	0.798901	-0.458290	-0.390734
C36	C	1.298901	0.041710	0.109266
C37	C	0.720969	-0.454433	-0.387451
C38	C	1.220969	0.045567	0.112549
C39	C	0.680093	-0.508043	-0.433036
C40	C	1.180093	-0.008043	0.066964
C41	C	0.606867	-0.504408	-0.429953
C42	C	1.106867	-0.004408	0.070047
C43	C	0.574519	-0.447165	-0.381281
C44	C	1.074519	0.052835	0.118719
C45	C	0.615400	-0.393548	-0.335694
C46	C	1.115400	0.106452	0.164306
C47	C	0.688624	-0.397180	-0.338781
C48	C	1.188624	0.102820	0.161219
C49	C	0.355979	-0.430354	-0.367000
C50	C	0.855979	0.069646	0.133000
C51	C	0.282749	-0.426728	-0.363916
C52	C	0.782749	0.073272	0.136084
C53	C	0.274222	-0.537586	-0.458176
C54	C	0.774222	-0.037586	0.041824
C55	C	0.347448	-0.541217	-0.461255
C56	C	0.847448	-0.041217	0.038745
C57	C	0.388323	-0.487598	-0.415670
C58	C	0.888323	0.012402	0.084330
N59	N	0.499670	-0.443449	-0.378128
N60	N	0.999670	0.056551	0.121872
N61	N	0.463169	-0.491310	-0.418828
N62	N	0.963169	0.008690	0.081172
C63	C	0.971363	-0.683924	-0.407299
C64	C	1.471363	-0.183924	0.092701
C65	C	0.967276	-0.776577	-0.411111
C66	C	1.467276	-0.276577	0.088889
C67	C	0.959816	-0.946215	-0.418084
C68	C	1.459816	-0.446215	0.081916
C69	C	1.002442	-0.987665	-0.378836
C70	C	1.502442	-0.487665	0.121164
C71	C	0.998291	-1.082058	-0.382716
C72	C	1.498291	-0.582058	0.117284
C73	C	0.963966	-0.851814	-0.414205
C74	C	1.463966	-0.351814	0.085795
C75	C	1.163943	-0.476459	-0.406199
C76	C	1.663943	0.023541	0.093801
C77	C	1.241874	-0.480338	-0.409501
C78	C	1.741874	0.019662	0.090499
C79	C	0.973367	-0.475675	-0.582072
C80	C	1.473367	0.024325	-0.082072
C81	C	0.970086	-0.479220	-0.660321
C82	C	1.470086	0.020780	-0.160321
C83	C	0.990826	-0.249946	-0.389585
C84	C	1.490826	0.250054	0.110415
C85	C	0.994984	-0.157298	-0.385807
C86	C	1.494984	0.342702	0.114193
C87	C	1.015774	-0.429813	-0.696809
C88	C	1.515774	0.070187	-0.196809
C89	C	1.012683	-0.433140	-0.770331
C90	C	1.512683	0.066860	-0.270331
C91	C	0.963906	-0.485879	-0.807364
C92	C	1.463906	0.014121	-0.307364
C93	C	0.918214	-0.535288	-0.770871
C94	C	1.418214	-0.035288	-0.270871
C95	C	0.921302	-0.531956	-0.697350
C96	C	1.421302	-0.031956	-0.197350
C97	C	0.949602	-0.501317	-1.027278
C98	C	1.449602	-0.001317	-0.527278
C99	C	0.946518	-0.504647	-1.100804
C100	C	1.446518	-0.004647	-0.600804
C101	C	1.040987	-0.402498	-1.100259
C102	C	1.540987	0.097502	-0.600259
C103	C	1.044074	-0.399174	-1.026737
C104	C	1.544074	0.100826	-0.526737
C105	C	0.998378	-0.448580	-0.990250
C106	C	1.498378	0.051420	-0.490250
N107	N	0.960747	-0.489283	-0.882516
N108	N	1.460747	0.010717	-0.382516
N109	N	1.001535	-0.445171	-0.915099
N110	N	1.501535	0.054829	-0.415099
C111	C	0.988779	-0.459013	-0.215544
C112	C	1.488779	0.040987	0.284456
C113	C	0.992206	-0.455240	-0.137292
C114	C	1.492206	0.044760	0.362708
H115	H	0.589056	-0.346936	-0.296068
H116	H	1.089056	0.153064	0.203932
H117	H	0.884091	-0.572180	-0.667641
H118	H	1.384091	-0.072180	-0.167641
C119	C	0.400391	-0.372053	-0.317621
C120	C	0.900391	0.127947	0.182379
C121	C	0.443138	-0.322578	-0.357147
C122	C	0.943138	0.177422	0.142853
C123	C	0.484058	-0.268853	-0.311681
C124	C	0.984058	0.231147	0.188319
H125	H	0.428876	-0.403813	-0.289394
H126	H	0.928876	0.096187	0.210606
H127	H	0.370663	-0.337396	-0.288201
H128	H	0.870663	0.162604	0.211799
H129	H	0.472863	-0.357230	-0.386555
H130	H	0.972863	0.142770	0.113445
H131	H	0.414672	-0.290800	-0.385372
H132	H	0.914672	0.209200	0.114628
H133	H	0.454330	-0.234196	-0.282260
H134	H	0.954330	0.265804	0.217740
H135	H	0.512538	-0.300620	-0.283456
H136	H	1.012538	0.199380	0.216544
H137	H	0.513061	-0.235272	-0.338492
H138	H	1.013061	0.264728	0.161508
C139	C	0.732885	-0.338938	-0.289200
C140	C	1.232885	0.161062	0.210800
C141	C	0.688885	-0.288046	-0.245899
C142	C	1.188885	0.211954	0.254101
C143	C	0.729631	-0.234388	-0.200210
C144	C	1.229631	0.265612	0.299790
H145	H	0.761958	-0.305230	-0.315819
H146	H	1.261958	0.194770	0.184181
H147	H	0.761292	-0.370774	-0.260948
H148	H	1.261292	0.129226	0.239052
H149	H	0.660489	-0.256212	-0.274148
H150	H	1.160489	0.243788	0.225852
H151	H	0.659811	-0.321731	-0.219265
H152	H	1.159811	0.178269	0.280735
H153	H	0.758039	-0.266224	-0.171958
H154	H	1.258039	0.233776	0.328042
H155	H	0.758703	-0.200686	-0.226835
H156	H	1.258703	0.299314	0.273165
H157	H	0.699783	-0.199857	-0.170821
H158	H	1.199783	0.300143	0.329179
C159	C	1.055183	-0.940311	-0.330155
C160	C	1.555183	-0.440311	0.169845
C161	C	1.048847	-0.854743	-0.335913
C162	C	1.548847	-0.354743	0.164087
C163	C	1.097408	-0.811090	-0.291072
C164	C	1.597408	-0.311090	0.208928
H165	H	1.101277	-0.957177	-0.343007
H166	H	1.601277	-0.457177	0.156993
H167	H	1.046317	-0.951869	-0.282972
H168	H	1.546317	-0.451869	0.217028
H169	H	1.057717	-0.843190	-0.383086
H170	H	1.557717	-0.343190	0.116914
H171	H	1.002763	-0.837852	-0.323055
H172	H	1.502763	-0.337852	0.176945
H173	H	1.088543	-0.822648	-0.243889
H174	H	1.588543	-0.322648	0.256111
H175	H	1.143499	-0.827963	-0.303928
H176	H	1.643499	-0.327963	0.196072
H177	H	1.093112	-0.753027	-0.294968
H178	H	1.593112	-0.253027	0.205032
C179	C	0.865144	-0.592438	-0.811029
C180	C	1.365144	-0.092438	-0.311029
C181	C	0.797338	-0.570010	-0.789475
C182	C	1.297338	-0.070010	-0.289475
C183	C	0.748433	-0.622635	-0.826457
C184	C	1.248433	-0.122635	-0.326457
H185	H	0.873302	-0.648434	-0.801723
H186	H	1.373302	-0.148434	-0.301723
H187	H	0.869801	-0.587341	-0.860046
H188	H	1.369801	-0.087341	-0.360046
H189	H	0.792684	-0.575115	-0.740469
H190	H	1.292684	-0.075115	-0.240469
H191	H	0.789158	-0.514023	-0.798781
H192	H	1.289158	-0.014023	-0.298781
H193	H	0.753090	-0.617538	-0.875475
H194	H	1.253090	-0.117538	-0.375475
H195	H	0.756598	-0.678627	-0.817149
H196	H	1.256598	-0.178627	-0.317149
H197	H	0.702422	-0.607420	-0.811843
H198	H	1.202422	-0.107420	-0.311843
C199	C	1.062172	-0.379381	-0.809968
C200	C	1.562172	0.120619	-0.309968
C201	C	1.023096	-0.325870	-0.848290
C202	C	1.523096	0.174130	-0.348290
C203	C	1.068661	-0.276319	-0.884801
C204	C	1.568661	0.223681	-0.384801
H205	H	1.090104	-0.413983	-0.841304
H206	H	1.590104	0.086017	-0.341304
H207	H	1.091650	-0.347450	-0.777397
H208	H	1.591650	0.152550	-0.277397
H209	H	0.993630	-0.357798	-0.880857
H210	H	1.493630	0.142202	-0.380857
H211	H	0.995165	-0.291251	-0.816971
H212	H	1.495165	0.208749	-0.316971
H213	H	1.098139	-0.244388	-0.852230
H214	H	1.598139	0.255612	-0.352230
H215	H	1.096590	-0.310928	-0.916133
H216	H	1.596590	0.189072	-0.416133
H217	H	1.042154	-0.240001	-0.910802
H218	H	1.542154	0.259999	-0.410802
C219	C	0.907020	-0.993563	-0.466697
C220	C	1.407020	-0.493563	0.033303
C221	C	0.913333	-1.079127	-0.460904
C222	C	1.413333	-0.579127	0.039096
C223	C	0.864702	-1.122780	-0.505665
C224	C	1.364702	-0.622780	-0.005665
H225	H	0.915816	-0.982064	-0.513898
H226	H	1.415816	-0.482064	-0.013898
H227	H	0.860948	-0.976640	-0.453779
H228	H	1.360948	-0.476640	0.046221
H229	H	0.959395	-1.096045	-0.473827
H230	H	1.459395	-0.596045	0.026173
H231	H	0.904531	-1.090651	-0.413713
H232	H	1.404531	-0.590651	0.086287
H233	H	0.818630	-1.105856	-0.492746
H234	H	1.318630	-0.605856	0.007254
H235	H	0.873502	-1.111274	-0.552863
H236	H	1.373502	-0.611274	-0.052863
H237	H	0.868974	-1.180839	-0.501736
H238	H	1.368974	-0.680839	-0.001736
H239	H	0.573589	-0.548064	-0.467073
H240	H	1.073589	-0.048064	0.032927
C241	C	0.715080	-0.570223	-0.485954
C242	C	1.215080	-0.070223	0.014046
C243	C	0.663606	-0.616377	-0.525229
C244	C	1.163606	-0.116377	-0.025229
C245	C	0.695807	-0.673655	-0.573994
C246	C	1.195807	-0.173655	-0.073994
H247	H	0.743143	-0.606765	-0.461744
H248	H	1.243143	-0.106765	0.038256
H249	H	0.743770	-0.541220	-0.516613
H250	H	1.243770	-0.041220	-0.016613
H251	H	0.634928	-0.645378	-0.494574
H252	H	1.134928	-0.145378	0.005426
H253	H	0.635540	-0.579857	-0.549455
H254	H	1.135540	-0.079857	-0.049455
H255	H	0.724497	-0.644653	-0.604653
H256	H	1.224497	-0.144653	-0.104653
H257	H	0.723869	-0.710192	-0.549777
H258	H	1.223869	-0.210192	-0.049777
H259	H	0.660887	-0.704973	-0.600652
H260	H	1.160887	-0.204973	-0.100652
H261	H	1.055495	-0.386870	-0.666662
H262	H	1.555495	0.113130	-0.166662
C263	C	1.090507	-0.348887	-1.139999
C264	C	1.590507	0.151113	-0.639999
C265	C	1.077354	-0.363072	-1.212311
C266	C	1.577354	0.136928	-0.712311
C267	C	1.122952	-0.313687	-1.248940
C268	C	1.622952	0.186313	-0.748940
H269	H	1.137602	-0.362834	-1.130531
H270	H	1.637602	0.137166	-0.630531
H271	H	1.083255	-0.291809	-1.125269
H272	H	1.583255	0.208191	-0.625269
H273	H	1.084611	-0.420137	-1.227036
H274	H	1.584611	0.079863	-0.727036
H275	H	1.030267	-0.349120	-1.221801
H276	H	1.530267	0.150880	-0.721801
H277	H	1.115700	-0.256610	-1.234210
H278	H	1.615700	0.243390	-0.734210
H279	H	1.170044	-0.327639	-1.239465
H280	H	1.670044	0.172361	-0.739465
H281	H	1.114029	-0.323300	-1.298006
H282	H	1.614029	0.176700	-0.798006
H283	H	1.083794	-0.356231	-0.996590
H284	H	1.583794	0.143769	-0.496590
H285	H	0.373781	-0.587832	-0.500887
H286	H	0.873781	-0.087832	-0.000887
H287	H	0.240934	-0.581239	-0.495289
H288	H	0.740934	-0.081239	0.004711
C289	C	0.893594	-0.562037	-1.140935
C290	C	1.393594	-0.062037	-0.640935
C291	C	0.905888	-0.644459	-1.127050
C292	C	1.405888	-0.144459	-0.627050
C293	C	0.857148	-0.697344	-1.164001
C294	C	1.357148	-0.197344	-0.664001
H295	H	0.898256	-0.557054	-1.189959
H296	H	1.398256	-0.057054	-0.689959
H297	H	0.847525	-0.546991	-1.126381
H298	H	1.347525	-0.046991	-0.626381
H299	H	0.951946	-0.659500	-1.141608
H300	H	1.451946	-0.159500	-0.641608
H301	H	0.901221	-0.649468	-1.078033
H302	H	1.401221	-0.149468	-0.578033
H303	H	0.811078	-0.682298	-1.149447
H304	H	1.311078	-0.182298	-0.649447
H305	H	0.861813	-0.692354	-1.213023
H306	H	1.361813	-0.192354	-0.713023
H307	H	0.865479	-0.753272	-1.154580
H308	H	1.365479	-0.253272	-0.654580
C309	C	0.247758	-0.364486	-0.311046
C310	C	0.747758	0.135514	0.188954
C311	C	0.299226	-0.318290	-0.271797
C312	C	0.799226	0.181710	0.228203
C313	C	0.267018	-0.260943	-0.223096
C314	C	0.767018	0.239057	0.276904
H315	H	0.219056	-0.393411	-0.280357
H316	H	0.719056	0.106589	0.219643
H317	H	0.219706	-0.327983	-0.335326
H318	H	0.719706	0.172017	0.164674
H319	H	0.327266	-0.354787	-0.247518
H320	H	0.827266	0.145213	0.252482
H321	H	0.327931	-0.289346	-0.302467
H322	H	0.827931	0.210654	0.197533
H323	H	0.238967	-0.224440	-0.247376
H324	H	0.738967	0.275560	0.252624
H325	H	0.238317	-0.289876	-0.192412
H326	H	0.738317	0.210124	0.307588
H327	H	0.301934	-0.229587	-0.196464
H328	H	0.801934	0.270413	0.303536
H329	H	0.912403	-0.541559	-0.997580
H330	H	1.412403	-0.041559	-0.497580
