data_functionalizedCrystal
_audit_creation_method	'MofGen! by Chris Wilmer'
_symmetry_space_group_name_H-M	'P1'
_symmetry_Int_Tables_number	1
_symmetry_cell_setting	triclinic
loop_
_symmetry_equiv_pos_as_xyz
  x,y,z
_cell_length_a	15.995350
_cell_length_b	19.188930
_cell_length_c	15.072220
_cell_angle_alpha	89.993728
_cell_angle_beta	89.991149
_cell_angle_gamma	83.318578
loop_
_atom_site_label
_atom_site_type_symbol
_atom_site_fract_x
_atom_site_fract_y
_atom_site_fract_z
O1	O	1.110666	0.089991	-0.073718
O2	O	0.866850	0.101105	-0.073737
O3	O	0.995794	-0.006090	-0.073709
O4	O	0.981722	0.197186	-0.073745
O5	O	0.995763	-0.006084	0.073856
O6	O	0.866819	0.101111	0.073828
O7	O	1.110634	0.089997	0.073848
Zn8	Zn	0.988721	0.095555	0.097267
Zn9	Zn	0.988763	0.095547	-0.097156
O10	O	0.981690	0.197192	0.073820
C11	C	0.835641	0.100648	0.000043
C12	C	0.742696	0.099271	0.000037
C13	C	0.404967	0.094324	0.000056
C14	C	0.452680	0.017982	0.000398
C15	C	0.549365	0.019360	0.000059
C16	C	0.572518	0.096778	0.000047
C17	C	0.531311	0.134429	-0.084223
C18	C	0.434683	0.132511	-0.084287
C19	C	0.434302	0.134095	0.083522
C20	C	0.531247	0.134077	0.084629
C21	C	0.667211	0.098169	0.000039
C22	C	0.310274	0.092936	0.000058
C23	C	0.995323	-0.032099	0.000076
C24	C	0.993955	-0.109607	0.000083
C25	C	1.069615	-0.154338	0.000093
C26	C	1.068330	-0.227165	0.000079
C27	C	0.991380	-0.255258	0.000072
C28	C	0.915710	-0.210517	0.000057
C29	C	0.916997	-0.137691	0.000062
N30	N	0.932550	-0.363410	0.050287
N31	N	0.931333	-0.432592	0.050284
C32	C	0.987497	-0.474676	0.000054
N33	N	1.044937	-0.444966	-0.050161
N34	N	1.046158	-0.375779	-0.050154
C35	C	0.989976	-0.334224	0.000066
C36	C	1.061769	-0.598375	0.000048
C37	C	1.060480	-0.671204	0.000028
C38	C	0.907859	-0.654553	0.000015
C39	C	0.909149	-0.581727	0.000025
C40	C	0.986106	-0.553643	0.000046
C41	C	1.141843	0.090454	0.000065
C42	C	1.234789	0.091831	0.000066
C43	C	0.982162	0.223201	0.000033
C44	C	0.983530	0.300709	0.000019
N45	N	0.988699	0.095560	0.229956
N46	N	0.988792	0.095537	-0.229845
C47	C	0.988762	0.095544	0.589157
C48	C	0.919536	0.152710	0.551535
C49	C	0.919693	0.152918	0.448710
C50	C	0.988730	0.095552	0.410953
C51	C	1.076036	0.111464	0.448248
C52	C	1.075648	0.111870	0.551106
C53	C	0.971460	0.022298	0.551269
C54	C	0.969454	0.022787	0.448405
C55	C	0.988717	0.095555	0.310240
C56	C	0.988780	0.095543	0.689871
H57	H	0.402334	0.190382	0.084082
C58	C	1.220344	-0.178117	0.000110
C59	C	1.154205	-0.123469	0.000107
H60	H	1.272566	-0.159056	0.000112
H61	H	1.216654	-0.206177	0.051564
H62	H	1.216673	-0.206171	-0.051355
H63	H	1.157873	-0.095417	0.051575
H64	H	1.157897	-0.095396	-0.051353
H65	H	0.909194	0.006998	0.577257
C66	C	0.757132	-0.630776	-0.000001
C67	C	0.823272	-0.685423	0.000003
H68	H	0.704911	-0.649838	-0.000016
H69	H	0.760796	-0.602727	0.051459
H70	H	0.760827	-0.602710	-0.051460
H71	H	0.819580	-0.713486	0.051466
H72	H	0.819606	-0.713484	-0.051462
H73	H	1.128756	0.071875	0.575991
H74	H	0.905232	0.010712	0.424030
H75	H	1.129943	-0.263592	0.000084
C76	C	1.147599	-0.762740	-0.075834
C77	C	1.143655	-0.720374	0.000032
H78	H	1.198951	-0.793092	-0.075833
H79	H	1.101594	-0.789891	-0.075840
H80	H	1.144940	-0.733967	-0.127282
H81	H	1.146307	-0.749147	0.051481
H82	H	1.189673	-0.693220	0.000046
C83	C	0.822073	-0.490167	-0.075834
C84	C	0.825978	-0.532555	0.000022
H85	H	0.770721	-0.459815	-0.075839
H86	H	0.868079	-0.463017	-0.075820
H87	H	0.824757	-0.518926	-0.127288
H88	H	0.823301	-0.503796	0.051477
H89	H	0.779960	-0.559708	0.000017
C90	C	0.442661	0.030302	0.173541
C91	C	0.406835	0.100382	0.169796
H92	H	0.425749	0.009480	0.226816
H93	H	0.424271	0.005518	0.124035
H94	H	0.502263	0.028382	0.172327
H95	H	0.347233	0.102302	0.171004
H96	H	0.425221	0.125173	0.219316
H97	H	1.124432	-0.575508	0.000060
C98	C	0.637269	0.213157	-0.092211
C99	C	0.550101	0.211210	-0.088480
H100	H	0.648867	0.260559	-0.094843
H101	H	0.662748	0.191386	-0.040770
H102	H	0.659303	0.188857	-0.143560
H103	H	0.528067	0.235506	-0.037127
H104	H	0.524611	0.232991	-0.139925
H105	H	0.854788	0.143438	0.423496
C106	C	0.829923	-0.046128	-0.075799
C107	C	0.833825	-0.088518	0.000055
H108	H	0.778572	-0.015774	-0.075804
H109	H	0.875930	-0.018979	-0.075782
H110	H	0.832606	-0.074884	-0.127255
H111	H	0.831148	-0.059762	0.051511
H112	H	0.787805	-0.115669	0.000046
H113	H	0.558651	0.106592	0.146972
C114	C	0.532407	0.133268	-0.243518
C115	C	0.569764	0.099130	-0.168880
H116	H	0.556154	0.111477	-0.295778
H117	H	0.473546	0.130328	-0.242647
H118	H	0.542201	0.181151	-0.242751
H119	H	0.559965	0.051248	-0.169643
H120	H	0.628640	0.102063	-0.169751
C121	C	0.845972	-0.314761	0.000057
C122	C	0.831125	-0.241393	0.000053
H123	H	0.793750	-0.333821	0.000057
H124	H	0.877120	-0.330108	-0.051396
H125	H	0.877104	-0.330113	0.051523
H126	H	0.799998	-0.226041	-0.051416
H127	H	0.799964	-0.226040	0.051512
H128	H	0.854420	0.143386	0.576294
H129	H	0.546404	0.190533	0.089710
H130	H	1.128769	0.070935	0.423790
H131	H	0.930403	0.206759	0.577365
H132	H	1.090935	0.165288	0.575079
H133	H	0.577890	-0.010236	0.060468
H134	H	1.016620	-0.021746	0.422708
H135	H	0.930714	0.207273	0.424087
H136	H	0.434257	-0.012531	0.060832
C137	C	1.106483	0.227583	0.485184
C138	C	1.097182	0.182756	0.413462
H139	H	1.119540	0.271594	0.463709
H140	H	1.055502	0.234163	0.518044
H141	H	1.150728	0.207394	0.522433
H142	H	1.052933	0.202941	0.376217
H143	H	1.148170	0.176176	0.380588
H144	H	1.021947	-0.020242	0.575598
H145	H	0.433211	-0.012395	-0.059692
H146	H	0.577345	-0.010441	-0.060444
H147	H	0.416488	0.105049	-0.147272
H148	H	0.402230	0.188560	-0.088121
