data_functionalizedCrystal
_audit_creation_method	'MofGen! by Chris Wilmer'
_symmetry_space_group_name_H-M	'P1'
_symmetry_Int_Tables_number	1
_symmetry_cell_setting	triclinic
loop_
_symmetry_equiv_pos_as_xyz
  x,y,z
_cell_length_a	16.625548
_cell_length_b	11.169416
_cell_length_c	11.169409
_cell_angle_alpha	90.030816
_cell_angle_beta	89.976108
_cell_angle_gamma	89.988592
loop_
_atom_site_label
_atom_site_type_symbol
_atom_site_fract_x
_atom_site_fract_y
_atom_site_fract_z
Zn1	Zn	1.232775	0.477676	-0.678662
Zn2	Zn	1.732775	0.977676	-0.178662
Zn3	Zn	1.232699	0.678417	-0.477984
Zn4	Zn	1.732699	1.178417	0.022016
Zn5	Zn	1.097929	0.477750	-0.477984
Zn6	Zn	1.597929	0.977750	0.022016
Zn7	Zn	1.097936	0.678320	-0.678617
Zn8	Zn	1.597936	1.178320	-0.178617
O9	O	1.165335	0.578041	-0.578312
O10	O	1.665335	1.078041	-0.078312
O11	O	1.345597	0.504315	-0.652060
O12	O	1.845597	1.004315	-0.152060
O13	O	1.214787	0.651869	-0.310034
O14	O	1.714787	1.151869	0.189966
O15	O	1.115845	0.309791	-0.504624
O16	O	1.615845	0.809791	-0.004624
O17	O	1.345541	0.651798	-0.504622
O18	O	1.845541	1.151798	-0.004622
O19	O	1.214916	0.309736	-0.652060
O20	O	1.714916	0.809736	-0.152060
O21	O	1.115772	0.504440	-0.310034
O22	O	1.615772	1.004440	0.189966
O23	O	0.985097	0.504346	-0.504580
O24	O	1.485097	1.004346	-0.004580
O25	O	1.115857	0.651633	-0.846573
O26	O	1.615857	1.151633	-0.346573
O27	O	0.985102	0.651704	-0.651984
O28	O	1.485102	1.151704	-0.151984
O29	O	1.214923	0.504221	-0.846605
O30	O	1.714923	1.004221	-0.346605
O31	O	1.214793	0.846354	-0.504579
O32	O	1.714793	1.346354	-0.004579
O33	O	1.115783	0.846282	-0.651983
O34	O	1.615783	1.346282	-0.151983
C35	C	1.165303	0.889865	-0.578302
C36	C	1.665303	1.389865	-0.078302
C37	C	1.165363	1.023265	-0.578339
C38	C	1.665363	1.523265	-0.078339
C39	C	0.955844	0.578024	-0.578278
C40	C	1.455844	1.078024	-0.078278
C41	C	0.866223	0.578045	-0.578292
C42	C	1.366223	1.078045	-0.078292
C43	C	1.165399	0.577908	-0.891354
C44	C	1.665399	1.077908	-0.391354
C45	C	1.165427	0.577851	-1.024754
C46	C	1.665427	1.077851	-0.524754
C47	C	0.538047	0.578053	-0.578343
C48	C	1.038047	1.078053	-0.078343
C49	C	0.629355	0.578048	-0.578325
C50	C	1.129355	1.078048	-0.078325
C51	C	0.702132	0.578050	-0.578317
C52	C	1.202132	1.078050	-0.078317
C53	C	0.793446	0.578043	-0.578301
C54	C	1.293446	1.078043	-0.078301
C55	C	1.375643	0.578059	-0.578346
C56	C	1.875643	1.078059	-0.078346
C57	C	1.465265	0.578067	-0.578361
C58	C	1.965265	1.078067	-0.078361
C59	C	1.165389	0.264998	-0.578347
C60	C	1.665389	0.764998	-0.078347
C61	C	1.165412	0.131598	-0.578362
C62	C	1.665412	0.631598	-0.078362
C63	C	1.165317	0.578087	-0.266487
C64	C	1.665317	1.078087	0.233513
C65	C	1.165445	0.577805	-0.133087
C66	C	1.665445	1.077805	0.366913
