data_functionalizedCrystal
_audit_creation_method	'MofGen! by Chris Wilmer'
_symmetry_space_group_name_H-M	'P1'
_symmetry_Int_Tables_number	1
_symmetry_cell_setting	triclinic
loop_
_symmetry_equiv_pos_as_xyz
  x,y,z
_cell_length_a	22.610064
_cell_length_b	23.532407
_cell_length_c	23.532407
_cell_angle_alpha	82.848678
_cell_angle_beta	90.000603
_cell_angle_gamma	90.002839
loop_
_atom_site_label
_atom_site_type_symbol
_atom_site_fract_x
_atom_site_fract_y
_atom_site_fract_z
O1	O	-0.049117	-0.755263	-0.069127
O2	O	0.284217	-0.421930	0.264206
O3	O	0.617550	-0.088597	0.597540
O4	O	-0.049135	-0.589400	-0.079130
O5	O	0.284198	-0.256067	0.254203
O6	O	0.617532	0.077267	0.587536
O7	O	-0.049114	-0.677333	0.008803
O8	O	0.284219	-0.344000	0.342136
O9	O	0.617552	-0.010667	0.675470
O10	O	-0.049137	-0.667330	-0.157060
O11	O	0.284196	-0.333997	0.176273
O12	O	0.617529	-0.000664	0.509606
O13	O	0.049255	-0.677318	0.008790
O14	O	0.382588	-0.343985	0.342124
O15	O	0.715921	-0.010651	0.675457
O16	O	0.049234	-0.589385	-0.079143
O17	O	0.382568	-0.256051	0.254190
O18	O	0.715901	0.077282	0.587524
O19	O	0.049252	-0.755248	-0.069140
O20	O	0.382586	-0.421915	0.264193
O21	O	0.715919	-0.088581	0.597527
Zn22	Zn	0.064862	-0.672314	-0.074144
Zn23	Zn	0.398195	-0.338980	0.259190
Zn24	Zn	0.731528	-0.005647	0.592523
Zn25	Zn	-0.064744	-0.672334	-0.074127
Zn26	Zn	0.268589	-0.339001	0.259207
Zn27	Zn	0.601923	-0.005668	0.592540
O28	O	0.049232	-0.667315	-0.157073
O29	O	0.382565	-0.333981	0.176260
O30	O	0.715899	-0.000648	0.509593
C31	C	0.000048	-0.568176	-0.078882
C32	C	0.333381	-0.234843	0.254451
C33	C	0.666714	0.098490	0.587785
C34	C	0.000041	-0.504959	-0.078116
C35	C	0.333374	-0.171626	0.255217
C36	C	0.666708	0.161707	0.588551
N37	N	0.153314	-0.672304	-0.074155
N38	N	0.486647	-0.338971	0.259179
N39	N	0.819981	-0.005637	0.592512
N40	N	-0.153196	-0.672349	-0.074111
N41	N	0.180137	-0.339015	0.259222
N42	N	0.513470	-0.005682	0.592556
C43	C	0.561965	-0.711273	-0.035196
C44	C	0.895298	-0.377940	0.298138
C45	C	1.228631	-0.044606	0.631471
C46	C	0.623884	-0.711276	-0.035192
C47	C	0.957218	-0.377942	0.298142
C48	C	1.290551	-0.044609	0.631475
O49	O	0.655911	-0.744384	-0.002076
O50	O	0.989244	-0.411051	0.331258
O51	O	1.322578	-0.077718	0.664591
N52	N	0.654851	-0.672334	-0.074115
N53	N	0.988185	-0.339001	0.259219
N54	N	1.321518	-0.005667	0.592552
C55	C	0.623895	-0.633383	-0.113041
C56	C	0.957228	-0.300049	0.220292
C57	C	1.290562	0.033284	0.553626
O58	O	0.655920	-0.600259	-0.146147
O59	O	0.989254	-0.266926	0.187186
O60	O	1.322587	0.066407	0.520519
C61	C	0.561976	-0.633377	-0.113042
C62	C	0.895309	-0.300044	0.220291
C63	C	1.228643	0.033289	0.553625
C64	C	0.531013	-0.672326	-0.074120
C65	C	0.864346	-0.338992	0.259213
C66	C	1.197679	-0.005659	0.592547
C67	C	0.531001	-0.750218	0.003724
C68	C	0.864334	-0.416884	0.337057
C69	C	1.197668	-0.083551	0.670390
C70	C	0.469085	-0.750215	0.003719
C71	C	0.802419	-0.416882	0.337052
C72	C	1.135752	-0.083549	0.670385
C73	C	0.438133	-0.711268	-0.035206
C74	C	0.771467	-0.377935	0.298128
C75	C	1.104800	-0.044601	0.631461
C76	C	0.469097	-0.672323	-0.074125
C77	C	0.802430	-0.338990	0.259208
C78	C	1.135764	-0.005657	0.592542
C79	C	0.531021	-0.594424	-0.151965
C80	C	0.864354	-0.261091	0.181369
C81	C	1.197688	0.072243	0.514702
C82	C	0.469098	-0.594422	-0.151962
C83	C	0.802431	-0.261089	0.181371
C84	C	1.135765	0.072245	0.514705
C85	C	0.438134	-0.633370	-0.113040
C86	C	0.771468	-0.300037	0.220293
C87	C	1.104801	0.033296	0.553626
C88	C	0.376229	-0.633374	-0.113054
C89	C	0.709563	-0.300041	0.220279
C90	C	1.042896	0.033293	0.553613
N91	N	0.345262	-0.672316	-0.074131
N92	N	0.678596	-0.338983	0.259202
N93	N	1.011929	-0.005649	0.592536
C94	C	0.376214	-0.711263	-0.035207
C95	C	0.709548	-0.377930	0.298127
C96	C	1.042881	-0.044596	0.631460
C97	C	0.753928	-0.633396	-0.113035
C98	C	1.087262	-0.300063	0.220298
C99	C	1.420595	0.033271	0.553631
C100	C	0.815846	-0.633403	-0.113037
C101	C	1.149179	-0.300070	0.220296
C102	C	1.482513	0.033263	0.553629
C103	C	0.815831	-0.711296	-0.035187
C104	C	1.149165	-0.377962	0.298146
C105	C	1.482498	-0.044629	0.631479
C106	C	0.753913	-0.711291	-0.035188
C107	C	1.087246	-0.377957	0.298145
C108	C	1.420579	-0.044624	0.631479
C109	C	0.722962	-0.672338	-0.074112
C110	C	1.056295	-0.339004	0.259221
C111	C	1.389628	-0.005671	0.592555
C112	C	0.246187	-0.711255	-0.035220
C113	C	0.579520	-0.377922	0.298113
C114	C	0.912854	-0.044589	0.631446
C115	C	0.184266	-0.711251	-0.035230
C116	C	0.517599	-0.377918	0.298103
C117	C	0.850933	-0.044584	0.631436
C118	C	0.184286	-0.633357	-0.113078
C119	C	0.517619	-0.300023	0.220255
C120	C	0.850953	0.033310	0.553588
C121	C	0.246202	-0.633363	-0.113071
C122	C	0.579535	-0.300029	0.220263
C123	C	0.912869	0.033304	0.553596
C124	C	0.277151	-0.672314	-0.074137
C125	C	0.610484	-0.338981	0.259196
C126	C	0.943818	-0.005648	0.592530
O127	O	0.344163	-0.600281	-0.146152
O128	O	0.677497	-0.266948	0.187182
O129	O	1.010830	0.066386	0.520515
O130	O	0.344182	-0.744376	-0.002101
O131	O	0.677515	-0.411042	0.331233
O132	O	1.010848	-0.077709	0.664566
C133	C	0.000072	-0.677071	0.030013
C134	C	0.333405	-0.343738	0.363346
C135	C	0.666738	-0.010404	0.696679
C136	C	0.000076	-0.676305	0.093230
C137	C	0.333409	-0.342972	0.426563
C138	C	0.666743	-0.009638	0.759896
C139	C	0.000069	-0.776472	-0.069388
C140	C	0.333402	-0.443138	0.263945
C141	C	0.666735	-0.109805	0.597278
C142	C	0.000071	-0.839689	-0.070154
C143	C	0.333405	-0.506355	0.263179
C144	C	0.666738	-0.173022	0.596513
C145	C	0.000061	-0.105856	-0.125350
C146	C	0.333395	0.227477	0.207984
C147	C	0.666728	0.560810	0.541317
C148	C	0.000065	-0.046456	-0.124638
C149	C	0.333398	0.286877	0.208695
C150	C	0.666732	0.620211	0.542029
O151	O	0.000081	-0.009711	-0.168424
O152	O	0.333414	0.323622	0.164909
O153	O	0.666747	0.656955	0.498243
N154	N	0.000071	-0.023830	-0.072362
N155	N	0.333405	0.309504	0.260972
N156	N	0.666738	0.642837	0.594305
C157	C	0.000080	-0.060607	-0.020794
C158	C	0.333413	0.272726	0.312540
C159	C	0.666746	0.606059	0.645873
O160	O	0.000086	-0.035908	0.023737
O161	O	0.333419	0.297426	0.357070
O162	O	0.666753	0.630759	0.690404
C163	C	0.000080	-0.120006	-0.021506
C164	C	0.333414	0.213327	0.311828
C165	C	0.666747	0.546660	0.645161
C166	C	0.000068	-0.142629	-0.073785
C167	C	0.333401	0.190704	0.259548
C168	C	0.666735	0.524038	0.592881
C169	C	0.000050	-0.128479	-0.177625
C170	C	0.333383	0.204854	0.155708
C171	C	0.666716	0.538187	0.489042
C172	C	0.000045	-0.187876	-0.178336
C173	C	0.333378	0.145458	0.154997
C174	C	0.666712	0.478791	0.488330
C175	C	0.000052	-0.224649	-0.126772
C176	C	0.333385	0.108685	0.206561
C177	C	0.666718	0.442018	0.539895
C178	C	0.000063	-0.202025	-0.074497
C179	C	0.333397	0.131308	0.258837
C180	C	0.666730	0.464641	0.592170
C181	C	0.000093	-0.156783	0.030062
C182	C	0.333426	0.176550	0.363395
C183	C	0.666760	0.509884	0.696729
C184	C	0.000094	-0.216185	0.029345
C185	C	0.333427	0.117148	0.362679
C186	C	0.666761	0.450481	0.696012
C187	C	0.000082	-0.238808	-0.022934
C188	C	0.333415	0.094525	0.310399
C189	C	0.666748	0.427859	0.643732
C190	C	0.000065	-0.298194	-0.023643
C191	C	0.333398	0.035139	0.309690
C192	C	0.666732	0.368472	0.643023
N193	N	0.000059	-0.320820	-0.075920
N194	N	0.333392	0.012513	0.257414
N195	N	0.666726	0.345846	0.590747
C196	C	0.000052	-0.284048	-0.127484
C197	C	0.333386	0.049286	0.205849
C198	C	0.666719	0.382619	0.539183
C199	C	0.000080	0.064135	-0.019302
C200	C	0.333413	0.397468	0.314031
C201	C	0.666746	0.730802	0.647365
C202	C	0.000075	0.123533	-0.018589
C203	C	0.333408	0.456866	0.314744
C204	C	0.666742	0.790200	0.648077
C205	C	0.000061	0.137680	-0.122434
C206	C	0.333395	0.471014	0.210899
C207	C	0.666728	0.804347	0.544232
C208	C	0.000062	0.078281	-0.123146
C209	C	0.333395	0.411615	0.210187
C210	C	0.666729	0.744948	0.543520
C211	C	0.000074	0.041509	-0.071578
C212	C	0.333407	0.374842	0.261755
C213	C	0.666740	0.708176	0.595088
C214	C	0.000042	-0.408784	-0.128974
C215	C	0.333375	-0.075451	0.204360
C216	C	0.666708	0.257882	0.537693
C217	C	0.000034	-0.468186	-0.129680
C218	C	0.333368	-0.134853	0.203653
C219	C	0.666701	0.198480	0.536986
C220	C	0.000051	-0.482329	-0.025836
C221	C	0.333384	-0.148995	0.307497
C222	C	0.666718	0.184338	0.640831
C223	C	0.000055	-0.422932	-0.025129
C224	C	0.333389	-0.089598	0.308204
C225	C	0.666722	0.243735	0.641538
C226	C	0.000052	-0.386160	-0.076702
C227	C	0.333386	-0.052827	0.256631
C228	C	0.666719	0.280506	0.589964
O229	O	0.000052	-0.334974	0.020119
O230	O	0.333385	-0.001640	0.353453
O231	O	0.666719	0.331693	0.686786
O232	O	0.000054	-0.308755	-0.172007
O233	O	0.333387	0.024578	0.161326
O234	O	0.666721	0.357911	0.494660
C235	C	0.000045	-0.667577	-0.178283
C236	C	0.333378	-0.334244	0.155051
C237	C	0.666711	-0.000910	0.488384
C238	C	0.000036	-0.668343	-0.241500
C239	C	0.333370	-0.335010	0.091833
C240	C	0.666703	-0.001676	0.425167
C241	C	0.000049	-0.723539	0.492333
C242	C	0.333382	-0.390205	0.825666
C243	C	0.666716	-0.056872	1.158999
C244	C	0.000044	-0.722827	0.551733
C245	C	0.333378	-0.389494	0.885066
C246	C	0.666711	-0.056160	1.218400
O247	O	0.000027	-0.766613	0.588478
O248	O	0.333361	-0.433280	0.921811
O249	O	0.666694	-0.099946	1.255144
N250	N	0.000039	-0.670551	0.574359
N251	N	0.333372	-0.337217	0.907693
N252	N	0.666706	-0.003884	1.241026
C253	C	0.000032	-0.618983	0.537582
C254	C	0.333366	-0.285649	0.870915
C255	C	0.666699	0.047684	1.204248
O256	O	0.000027	-0.574452	0.562281
O257	O	0.333360	-0.241119	0.895615
O258	O	0.666693	0.092215	1.228948
C259	C	0.000033	-0.619695	0.478182
C260	C	0.333366	-0.286361	0.811516
C261	C	0.666699	0.046972	1.144849
C262	C	0.000044	-0.671974	0.455560
C263	C	0.333377	-0.338641	0.788893
C264	C	0.666711	-0.005308	1.122227
C265	C	0.000060	-0.775814	0.469710
C266	C	0.333393	-0.442481	0.803043
C267	C	0.666726	-0.109147	1.136376
C268	C	0.000065	-0.776525	0.410313
C269	C	0.333399	-0.443192	0.743647
C270	C	0.666732	-0.109859	1.076980
C271	C	0.000060	-0.724961	0.373540
C272	C	0.333394	-0.391628	0.706874
C273	C	0.666727	-0.058294	1.040207
C274	C	0.000050	-0.672685	0.396164
C275	C	0.333383	-0.339352	0.729497
C276	C	0.666716	-0.006019	1.062830
C277	C	0.000022	-0.568127	0.441406
C278	C	0.333355	-0.234794	0.774739
C279	C	0.666688	0.098540	1.108073
C280	C	0.000021	-0.568844	0.382004
C281	C	0.333355	-0.235510	0.715337
C282	C	0.666688	0.097823	1.048670
C283	C	0.000033	-0.621123	0.359381
C284	C	0.333366	-0.287790	0.692714
C285	C	0.666699	0.045543	1.026048
C286	C	0.000050	-0.621832	0.299995
C287	C	0.333384	-0.288499	0.633328
C288	C	0.666717	0.044834	0.966661
N289	N	0.000056	-0.674109	0.277368
N290	N	0.333389	-0.340775	0.610702
N291	N	0.666722	-0.007442	0.944035
C292	C	0.000061	-0.725673	0.314141
C293	C	0.333394	-0.392340	0.647475
C294	C	0.666727	-0.059006	0.980808
C295	C	0.000031	-0.617491	0.662324
C296	C	0.333364	-0.284158	0.995657
C297	C	0.666697	0.049176	1.328991
C298	C	0.000034	-0.616778	0.721722
C299	C	0.333368	-0.283445	1.055055
C300	C	0.666701	0.049888	1.388389
C301	C	0.000045	-0.720623	0.735869
C302	C	0.333379	-0.387290	1.069203
C303	C	0.666712	-0.053957	1.402536
C304	C	0.000046	-0.721335	0.676470
C305	C	0.333379	-0.388002	1.009804
C306	C	0.666712	-0.054669	1.343137
C307	C	0.000036	-0.669767	0.639698
C308	C	0.333369	-0.336434	0.973031
C309	C	0.666702	-0.003101	1.306365
C310	C	0.000073	-0.727163	0.189405
C311	C	0.333406	-0.393829	0.522738
C312	C	0.666740	-0.060496	0.856071
C313	C	0.000081	-0.727869	0.130003
C314	C	0.333414	-0.394536	0.463336
C315	C	0.666748	-0.061203	0.796669
C316	C	0.000067	-0.624025	0.115860
C317	C	0.333400	-0.290692	0.449194
C318	C	0.666734	0.042642	0.782527
C319	C	0.000062	-0.623318	0.175257
C320	C	0.333395	-0.289985	0.508591
C321	C	0.666729	0.043349	0.841924
C322	C	0.000063	-0.674891	0.212029
C323	C	0.333396	-0.341558	0.545362
C324	C	0.666730	-0.008225	0.878695
O325	O	0.000065	-0.578070	0.263215
O326	O	0.333398	-0.244736	0.596549
O327	O	0.666732	0.088597	0.929882
O328	O	0.000058	-0.770196	0.289433
O329	O	0.333392	-0.436863	0.622767
O330	O	0.666725	-0.103529	0.956100
H331	H	0.159057	-0.742969	-0.003535
H332	H	0.492391	-0.409636	0.329798
H333	H	0.825724	-0.076303	0.663131
N334	N	0.720548	-0.591382	-0.155022
N335	N	1.053881	-0.258048	0.178312
N336	N	1.387214	0.075285	0.511645
H337	H	0.749565	-0.566716	-0.179676
H338	H	1.082898	-0.233382	0.153657
H339	H	1.416231	0.099951	0.486990
H340	H	0.694854	-0.613035	-0.180093
H341	H	1.028187	-0.279702	0.153241
H342	H	1.361521	0.053632	0.486574
N343	N	0.150896	-0.591351	-0.155060
N344	N	0.484230	-0.258018	0.178274
N345	N	0.817563	0.075316	0.511607
H346	H	0.106973	-0.597261	-0.149151
H347	H	0.440307	-0.263928	0.184183
H348	H	0.773640	0.069406	0.517516
H349	H	0.161722	-0.550991	-0.148680
H350	H	0.495056	-0.217657	0.184653
H351	H	0.828389	0.115676	0.517987
H352	H	0.556223	-0.562709	-0.183658
H353	H	0.889556	-0.229375	0.149675
H354	H	1.222889	0.103958	0.483008
H355	H	0.841052	-0.601694	-0.144737
H356	H	1.174386	-0.268361	0.188596
H357	H	1.507719	0.064973	0.521930
N358	N	0.000096	-0.784261	0.105606
N359	N	0.333429	-0.450927	0.438940
N360	N	0.666762	-0.117594	0.772273
H361	H	-0.036368	-0.806842	0.119034
H362	H	0.296965	-0.473508	0.452368
H363	H	0.630299	-0.140175	0.785701
H364	H	0.000123	-0.776844	0.062401
H365	H	0.333456	-0.443511	0.395734
H366	H	0.666789	-0.110177	0.729068
N367	N	0.000052	-0.566933	0.199663
N368	N	0.333385	-0.233600	0.532996
N369	N	0.666719	0.099734	0.866329
H370	H	0.036513	-0.564315	0.223997
H371	H	0.369846	-0.230982	0.557330
H372	H	0.703180	0.102351	0.890664
H373	H	0.000029	-0.534409	0.167321
H374	H	0.333363	-0.201076	0.500654
H375	H	0.666696	0.132258	0.833987
N376	N	0.000025	-0.561868	0.622664
N377	N	0.333358	-0.228535	0.955997
N378	N	0.666692	0.104799	1.289330
H379	H	0.000023	-0.528647	0.646015
H380	H	0.333356	-0.195314	0.979349
H381	H	0.666689	0.138020	1.312682
H382	H	0.036492	-0.559894	0.597711
H383	H	0.369826	-0.226560	0.931044
H384	H	0.703159	0.106773	1.264378
N385	N	0.000061	-0.568417	0.076183
N386	N	0.333394	-0.235084	0.409517
N387	N	0.666727	0.098249	0.742850
H388	H	-0.036409	-0.545599	0.083420
H389	H	0.296924	-0.212266	0.416753
H390	H	0.630257	0.121067	0.750087
H391	H	0.036546	-0.545628	0.083439
H392	H	0.369879	-0.212295	0.416773
H393	H	0.703212	0.121039	0.750106
H394	H	0.271379	-0.742973	-0.003516
H395	H	0.604712	-0.409639	0.329817
H396	H	0.938046	-0.076306	0.663150
N397	N	0.435718	-0.552410	-0.193950
N398	N	0.769051	-0.219077	0.139383
N399	N	1.102384	0.114256	0.472717
H400	H	0.391793	-0.558315	-0.188050
H401	H	0.725126	-0.224981	0.145284
H402	H	1.058460	0.108352	0.478617
H403	H	0.446546	-0.512050	-0.187572
H404	H	0.779879	-0.178717	0.145761
H405	H	1.113212	0.154617	0.479095
N406	N	0.564377	-0.792235	0.045705
N407	N	0.897710	-0.458902	0.379038
N408	N	1.231043	-0.125568	0.712372
H409	H	0.608302	-0.786338	0.039806
H410	H	0.941636	-0.453005	0.373140
H411	H	1.274969	-0.119671	0.706473
H412	H	0.553552	-0.785890	0.086074
H413	H	0.886885	-0.452556	0.419408
H414	H	1.220219	-0.119223	0.752741
H415	H	0.271413	-0.601653	-0.144770
H416	H	0.604746	-0.268320	0.188563
H417	H	0.938080	0.065014	0.521897
H418	H	0.443878	-0.781929	0.035414
H419	H	0.777212	-0.448595	0.368747
H420	H	1.110545	-0.115262	0.702080
N421	N	0.000079	0.024472	0.036319
N422	N	0.333413	0.357806	0.369653
N423	N	0.666746	0.691139	0.702986
H424	H	0.036545	-0.000486	0.038339
H425	H	0.369878	0.332847	0.371673
H426	H	0.703211	0.666180	0.705006
H427	H	0.000059	0.047862	0.069509
H428	H	0.333393	0.381195	0.402843
H429	H	0.666726	0.714529	0.736176
H430	H	0.000071	-0.769159	0.219337
H431	H	0.333405	-0.435826	0.552671
H432	H	0.666738	-0.102492	0.886004
H433	H	0.000056	-0.404512	0.017441
H434	H	0.333390	-0.071178	0.350775
H435	H	0.666723	0.262155	0.684108
N436	N	0.000015	-0.492586	-0.186070
N437	N	0.333349	-0.159253	0.147264
N438	N	0.666682	0.174080	0.480597
H439	H	0.000012	-0.460274	-0.218626
H440	H	0.333346	-0.126941	0.114707
H441	H	0.666679	0.206393	0.448041
H442	H	0.036478	-0.516924	-0.188636
H443	H	0.369811	-0.183591	0.144698
H444	H	0.703145	0.149742	0.478031
H445	H	0.728706	-0.743005	-0.003494
H446	H	1.062039	-0.409672	0.329839
H447	H	1.395372	-0.076339	0.663172
H448	H	0.000041	-0.378851	-0.170970
H449	H	0.333375	-0.045518	0.162363
H450	H	0.666708	0.287815	0.495697
H451	H	0.000055	0.059867	-0.165717
H452	H	0.333389	0.393200	0.167616
H453	H	0.666722	0.726533	0.500950
H454	H	0.000061	-0.817806	0.499645
H455	H	0.333395	-0.484473	0.832978
H456	H	0.666728	-0.151140	1.166312
N457	N	0.000002	-0.511742	0.465802
N458	N	0.333335	-0.178409	0.799136
N459	N	0.666668	0.154925	1.132469
H460	H	0.036464	-0.509118	0.490133
H461	H	0.369798	-0.175784	0.823466
H462	H	0.703131	0.157549	1.156799
H463	H	-0.000028	-0.479220	0.433458
H464	H	0.333305	-0.145886	0.766792
H465	H	0.666638	0.187447	1.100125
N466	N	0.849221	-0.753305	0.006797
N467	N	1.182555	-0.419971	0.340131
N468	N	1.515888	-0.086638	0.673464
H469	H	0.893144	-0.747393	0.000890
H470	H	1.226477	-0.414060	0.334223
H471	H	1.559811	-0.080727	0.667557
H472	H	0.838400	-0.746956	0.047167
H473	H	1.171734	-0.413622	0.380500
H474	H	1.505067	-0.080289	0.713833
N475	N	0.000029	-0.212272	-0.234724
N476	N	0.333362	0.121062	0.098610
N477	N	0.666696	0.454395	0.431943
H478	H	0.000025	-0.179956	-0.267277
H479	H	0.333358	0.153377	0.066057
H480	H	0.666692	0.486711	0.399390
H481	H	0.036494	-0.236607	-0.237292
H482	H	0.369827	0.096726	0.096042
H483	H	0.703160	0.430060	0.429375
N484	N	0.000099	0.177351	-0.178051
N485	N	0.333432	0.510684	0.155282
N486	N	0.666766	0.844017	0.488616
H487	H	0.000106	0.154010	-0.211280
H488	H	0.333439	0.487343	0.122053
H489	H	0.666773	0.820676	0.455387
H490	H	-0.036354	0.202321	-0.180036
H491	H	0.296979	0.535654	0.153298
H492	H	0.630312	0.868988	0.486631
H493	H	0.000046	-0.098544	-0.219617
H494	H	0.333380	0.234789	0.113716
H495	H	0.666713	0.568123	0.447049
N496	N	0.000061	-0.521994	0.029779
N497	N	0.333395	-0.188661	0.363112
N498	N	0.666728	0.144673	0.696446
H499	H	-0.036403	-0.546958	0.031805
H500	H	0.296931	-0.213625	0.365138
H501	H	0.630264	0.119708	0.698472
H502	H	0.036553	-0.546913	0.031752
H503	H	0.369886	-0.213579	0.365085
H504	H	0.703219	0.119754	0.698419
N505	N	0.000077	0.147930	0.037797
N506	N	0.333411	0.481263	0.371131
N507	N	0.666744	0.814597	0.704464
H508	H	0.000081	0.115616	0.070352
H509	H	0.333414	0.448950	0.403685
H510	H	0.666747	0.782283	0.737019
H511	H	0.036546	0.172266	0.040353
H512	H	0.369879	0.505600	0.373686
H513	H	0.703213	0.838933	0.707020
H514	H	0.000103	-0.138375	0.072634
H515	H	0.333437	0.194959	0.405967
H516	H	0.666770	0.528292	0.739300
H517	H	0.000104	-0.246123	0.071339
H518	H	0.333437	0.087210	0.404673
H519	H	0.666771	0.420543	0.738006
H520	H	0.000013	-0.526850	0.352066
H521	H	0.333346	-0.193516	0.685399
H522	H	0.666679	0.139817	1.018732
H523	H	0.000072	-0.819097	0.391900
H524	H	0.333405	-0.485763	0.725233
H525	H	0.666739	-0.152430	1.058567
N526	N	0.000058	-0.777722	0.652072
N527	N	0.333392	-0.444388	0.985405
N528	N	0.666725	-0.111055	1.318739
H529	H	0.000063	-0.810276	0.684386
H530	H	0.333397	-0.476943	1.017719
H531	H	0.666730	-0.143610	1.351053
H532	H	-0.036408	-0.780289	0.627737
H533	H	0.296925	-0.446955	0.961070
H534	H	0.630258	-0.113622	1.294404
H535	H	0.000047	-0.762610	0.765821
H536	H	0.333380	-0.429276	1.099154
H537	H	0.666714	-0.095943	1.432488
N538	N	0.000038	-0.560392	0.746119
N539	N	0.333372	-0.227058	1.079452
N540	N	0.666705	0.106275	1.412786
H541	H	0.000038	-0.527837	0.713805
H542	H	0.333371	-0.194504	1.047139
H543	H	0.666705	0.138830	1.380472
H544	H	-0.036429	-0.557833	0.770454
H545	H	0.296904	-0.224500	1.103788
H546	H	0.630238	0.108833	1.437121
