data_functionalizedCrystal
_audit_creation_method	'MofGen! by Chris Wilmer'
_symmetry_space_group_name_H-M	'P1'
_symmetry_Int_Tables_number	1
_symmetry_cell_setting	triclinic
loop_
_symmetry_equiv_pos_as_xyz
  x,y,z
_cell_length_a	9.065218
_cell_length_b	12.376457
_cell_length_c	9.065218
_cell_angle_alpha	101.447695
_cell_angle_beta	94.984115
_cell_angle_gamma	101.462611
loop_
_atom_site_label
_atom_site_type_symbol
_atom_site_fract_x
_atom_site_fract_y
_atom_site_fract_z
O1	O	1.988321	0.094003	-0.188453
O2	O	1.559036	0.094005	-0.206199
O3	O	1.782551	0.094002	0.017316
O4	O	1.764806	0.094006	-0.411968
O5	O	1.726692	-0.094010	-0.038486
O6	O	1.503177	-0.094007	-0.262001
O7	O	1.932461	-0.094008	-0.244255
Zn8	Zn	1.708950	-0.123858	-0.261988
Zn9	Zn	1.782548	0.123855	-0.188466
O10	O	1.708946	-0.094005	-0.467770
C11	C	1.476120	-0.000001	-0.232394
C12	C	1.312277	-0.000000	-0.227295
N13	N	1.658733	-0.292916	-0.312163
C14	C	1.949347	-0.647905	-0.021777
C15	C	1.984486	-0.529565	0.013342
C16	C	1.903050	-0.470397	-0.068031
C17	C	1.786470	-0.529580	-0.184529
C18	C	1.751336	-0.647931	-0.219659
C19	C	1.705039	-0.470423	-0.265913
C20	C	1.588459	-0.529606	-0.382411
C21	C	1.553329	-0.647945	-0.417534
C22	C	1.634765	-0.707114	-0.336161
C23	C	1.740174	-0.352072	-0.230784
C24	C	1.542162	-0.352099	-0.428666
C25	C	1.507023	-0.470438	-0.463784
C26	C	2.015378	0.000000	-0.218059
C27	C	2.179223	0.000007	-0.223156
C28	C	1.752916	-0.000002	0.044402
C29	C	1.747818	0.000003	0.208246
N30	N	1.832777	0.292913	-0.138279
C31	C	1.738582	0.000001	-0.494855
C32	C	1.743682	0.000003	-0.658697
H33	H	1.835094	-0.303896	-0.135931
H34	H	2.015649	-0.696087	0.044459
H35	H	1.412101	-0.518639	-0.558640
C36	C	1.452571	-0.287026	-0.518184
C37	C	1.491211	-0.156851	-0.479541
C38	C	1.401632	-0.091770	-0.569053
C39	C	1.273413	-0.156862	-0.697208
C40	C	1.234766	-0.287044	-0.735858
C41	C	1.324345	-0.352125	-0.646345
H42	H	1.586132	-0.108660	-0.384667
H43	H	1.430242	0.004599	-0.540442
H44	H	1.207101	-0.108685	-0.763471
H45	H	1.139845	-0.335236	-0.830732
H46	H	1.295736	-0.448495	-0.674957
H47	H	1.606152	-0.803475	-0.364750
H48	H	1.931666	-0.374040	-0.039432
H49	H	2.079406	-0.481383	0.108191
H50	H	1.458415	-0.696132	-0.512405
