data_functionalizedCrystal
_audit_creation_method	'MofGen! by Chris Wilmer'
_symmetry_space_group_name_H-M	'P1'
_symmetry_Int_Tables_number	1
_symmetry_cell_setting	triclinic
loop_
_symmetry_equiv_pos_as_xyz
  x,y,z
_cell_length_a	12.759401
_cell_length_b	12.759399
_cell_length_c	11.169409
_cell_angle_alpha	90.030593
_cell_angle_beta	90.022504
_cell_angle_gamma	90.014466
loop_
_atom_site_label
_atom_site_type_symbol
_atom_site_fract_x
_atom_site_fract_y
_atom_site_fract_z
Zn1	Zn	-1.606265	0.418211	-0.678643
Zn2	Zn	-1.606152	0.593937	-0.477966
Zn3	Zn	-1.430562	0.418269	-0.477968
Zn4	Zn	-1.430553	0.593845	-0.678602
O5	O	-1.518383	0.506066	-0.578295
O6	O	-1.753271	0.441535	-0.652039
O7	O	-1.582816	0.570697	-0.310016
O8	O	-1.453921	0.271240	-0.504606
O9	O	-1.753188	0.570640	-0.504603
O10	O	-1.583009	0.271198	-0.652041
O11	O	-1.453811	0.441634	-0.310018
O12	O	-1.283540	0.441546	-0.504566
O13	O	-1.453905	0.570484	-0.846557
O14	O	-1.283533	0.570541	-0.651971
O15	O	-1.582999	0.441447	-0.846587
O16	O	-1.582807	0.740946	-0.504563
O17	O	-1.453795	0.740878	-0.651969
C18	C	-1.245416	0.506040	-0.578265
C19	C	-1.128639	0.506055	-0.578280
C20	C	-1.518317	0.779033	-0.578287
C21	C	-1.518384	0.895810	-0.578324
C22	C	-1.073737	0.573171	-0.501404
C23	C	-0.964013	0.573186	-0.501422
C24	C	-0.964102	0.438961	-0.655196
C25	C	-1.073824	0.438952	-0.655183
C26	C	-1.128552	0.640274	-0.424501
C27	C	-1.073651	0.707395	-0.347617
C28	C	-0.963926	0.707410	-0.347635
C29	C	-0.909104	0.640305	-0.424537
C30	C	-0.792416	0.506086	-0.578318
C31	C	-0.909193	0.506080	-0.578311
C32	C	-1.585635	0.950672	-0.501658
C33	C	-1.585697	1.060396	-0.501702
C34	C	-1.451251	1.060386	-0.655081
C35	C	-1.451194	0.950664	-0.655042
C36	C	-1.652825	0.895817	-0.424940
C37	C	-1.720080	0.950680	-0.348266
C38	C	-1.720143	1.060404	-0.348310
C39	C	-1.652951	1.115265	-0.425028
C40	C	-1.518464	0.505949	-0.891337
C41	C	-1.518498	0.505899	-1.024737
C42	C	-1.518474	1.232032	-0.578345
C43	C	-1.518504	1.115256	-0.578407
C44	C	-1.518363	0.506106	-0.266470
C45	C	-1.518532	0.505860	-0.133071
H46	H	-1.217895	0.640267	-0.424475
H47	H	-1.118294	0.762036	-0.285015
H48	H	-0.919457	0.384326	-0.717804
H49	H	-1.652778	0.806475	-0.424892
H50	H	-1.118526	0.384297	-0.717780
H51	H	-0.919228	0.762070	-0.285041
N52	N	-1.378774	1.119547	-0.737815
H53	H	-1.421466	1.165000	-0.793493
H54	H	-1.330145	1.165080	-0.688919
H55	H	-1.774791	0.906005	-0.285812
N56	N	-1.792685	1.119580	-0.265629
H57	H	-1.835238	1.068177	-0.217026
H58	H	-1.749966	1.165181	-0.210063
H59	H	-0.819759	0.640331	-0.424553
H60	H	-1.653016	1.204610	-0.425067
H61	H	-1.396434	0.905995	-0.717472
