data_functionalizedCrystal
_audit_creation_method	'MofGen! by Chris Wilmer'
_symmetry_space_group_name_H-M	'P1'
_symmetry_Int_Tables_number	1
_symmetry_cell_setting	triclinic
loop_
_symmetry_equiv_pos_as_xyz
  x,y,z
_cell_length_a	16.120484
_cell_length_b	16.959455
_cell_length_c	16.120728
_cell_angle_alpha	92.881112
_cell_angle_beta	84.367400
_cell_angle_gamma	87.079026
loop_
_atom_site_label
_atom_site_type_symbol
_atom_site_fract_x
_atom_site_fract_y
_atom_site_fract_z
Zn1	Zn	-0.357027	-1.167594	0.489646
Zn2	Zn	-0.489673	-1.167521	0.356954
Zn3	Zn	-0.349904	-1.042501	0.349870
Zn4	Zn	-0.496746	-1.028320	0.496657
O5	O	-0.423337	-1.101484	0.423282
O6	O	-0.374643	-1.278193	0.472074
O7	O	-0.465191	-1.156841	0.239051
O8	O	-0.233882	-1.065060	0.362512
O9	O	-0.472097	-1.278139	0.374586
O10	O	-0.239115	-1.156966	0.465205
O11	O	-0.362503	-1.064989	0.233847
O12	O	-0.369362	-0.930011	0.369311
O13	O	-0.484153	-1.040891	0.612690
O14	O	-0.477246	-0.919592	0.477155
O15	O	-0.381502	-1.143215	0.607539
O16	O	-0.607577	-1.143090	0.381385
O17	O	-0.612774	-1.040819	0.484024
C18	C	-0.423299	-0.896122	0.423225
C19	C	-0.423304	-0.808265	0.423222
C20	C	-0.474000	-0.436754	0.372448
C21	C	-0.372695	-0.436815	0.474137
C22	C	-0.372683	-0.519362	0.474122
C23	C	-0.423332	-0.560609	0.423269
C24	C	-0.473992	-0.519309	0.372433
C25	C	-0.322030	-0.560668	0.524963
C26	C	-0.322018	-0.643220	0.524950
C27	C	-0.372662	-0.684469	0.474093
C28	C	-0.423324	-0.643164	0.423254
C29	C	-0.473973	-0.684410	0.372401
C30	C	-0.524631	-0.643107	0.321557
C31	C	-0.524637	-0.560557	0.321575
C32	C	-0.372656	-0.767018	0.474074
C33	C	-0.473965	-0.766965	0.372386
C34	C	-0.640505	-1.090428	0.434252
C35	C	-0.733411	-1.085770	0.438973
C36	C	-0.903513	-1.077268	0.447610
C37	C	-0.942321	-1.125841	0.398967
C38	C	-1.036972	-1.121110	0.403772
C39	C	-0.808854	-1.081997	0.442806
C40	C	-0.205323	-1.112603	0.412286
C41	C	-0.112418	-1.117341	0.407601
C42	C	-0.434411	-1.090479	0.641289
C43	C	-0.439130	-1.085790	0.734191
C44	C	-0.423366	-0.307649	0.423323
C45	C	-0.423352	-0.395507	0.423301
C46	C	-0.447727	-1.077200	0.904283
C47	C	-0.399028	-1.125739	0.943136
C48	C	-0.403811	-1.120960	1.037781
C49	C	-0.442945	-1.081978	0.809629
C50	C	-0.412329	-1.112445	1.206123
C51	C	-0.407622	-1.117152	1.113222
H52	H	-0.565873	-0.676701	0.280158
H53	H	-0.565880	-0.526921	0.280180
N54	N	-0.894839	-1.182450	0.342169
N55	N	-0.900643	-1.180664	0.265525
H56	H	-0.867109	-1.220640	0.225407
N57	N	-0.951014	-1.020652	0.504376
N58	N	-1.028949	-1.016846	0.508243
H59	H	-1.062506	-0.976861	0.548332
H60	H	-0.353742	-1.170884	0.905319
H61	H	-0.515242	-0.403121	0.331050
N62	N	-0.504521	-1.020561	0.951723
N63	N	-0.477508	-0.969287	0.998946
H64	H	-0.517617	-0.929286	1.032462
N65	N	-0.525700	-0.809083	0.320427
N66	N	-0.570919	-0.772195	0.275036
H67	H	-0.607456	-0.801940	0.238338
H68	H	-0.280800	-0.527078	0.566370
H69	H	-0.280768	-0.676842	0.566350
H70	H	-0.331464	-0.403226	0.515544
H71	H	-0.331413	-0.800644	0.515473
