data_functionalizedCrystal
_audit_creation_method	'MofGen! by Chris Wilmer'
_symmetry_space_group_name_H-M	'P1'
_symmetry_Int_Tables_number	1
_symmetry_cell_setting	triclinic
loop_
_symmetry_equiv_pos_as_xyz
  x,y,z
_cell_length_a	20.299480
_cell_length_b	20.298645
_cell_length_c	20.294903
_cell_angle_alpha	60.007695
_cell_angle_beta	60.015306
_cell_angle_gamma	59.991039
loop_
_atom_site_label
_atom_site_type_symbol
_atom_site_fract_x
_atom_site_fract_y
_atom_site_fract_z
O1	O	0.091305	-0.962534	0.804873
O2	O	0.034397	-0.749399	0.648508
O3	O	0.169355	-0.884263	0.648401
O4	O	-0.043654	-0.827670	0.804979
O5	O	0.214132	-0.839502	0.693072
O6	O	0.079173	-0.704639	0.693178
O7	O	0.136081	-0.917774	0.849544
Zn8	Zn	0.114736	-0.804099	0.778453
Zn9	Zn	0.055742	-0.863073	0.719598
O10	O	0.001122	-0.782910	0.849650
N11	N	0.155000	-0.763857	0.818624
N12	N	0.015485	-0.903322	0.679427
C13	C	0.179343	-0.615641	0.842971
C14	C	0.179443	-0.739552	0.966834
C15	C	0.303264	-0.739536	0.842917
C16	C	0.179356	-0.739528	0.842952
C17	C	0.210353	-0.708565	0.873918
C18	C	-0.132622	-0.927446	0.654695
C19	C	-0.008595	-0.927622	0.530981
C20	C	-0.008820	-1.051459	0.654914
C21	C	-0.008800	-0.927618	0.654995
C22	C	-0.039709	-0.958538	0.623897
N23	N	0.376268	-0.763873	0.818558
O24	O	0.652281	-0.777347	0.619856
O25	O	0.652556	-0.934198	0.832777
O26	O	0.652445	-0.933836	0.697731
O27	O	0.652392	-0.777709	0.754902
O28	O	0.518259	-0.889182	0.742556
O29	O	0.518369	-0.889544	0.877602
O30	O	0.518095	-0.732693	0.664680
Zn31	Zn	0.496927	-0.804029	0.778258
Zn32	Zn	0.673724	-0.862862	0.719200
O33	O	0.518205	-0.733055	0.799726
N34	N	0.794383	-0.903019	0.678891
N35	N	0.154981	-0.542636	0.818657
O36	O	-0.043628	-0.266455	0.805024
O37	O	0.169291	-0.266451	0.648191
O38	O	0.034217	-0.266468	0.648577
O39	O	0.091446	-0.266438	0.804638
O40	O	0.078998	-0.400670	0.693303
O41	O	0.214071	-0.400653	0.692918
O42	O	0.001152	-0.400657	0.849750
Zn43	Zn	0.114722	-0.421963	0.778435
Zn44	Zn	0.055722	-0.245145	0.719506
O45	O	0.136226	-0.400640	0.849364
N46	N	0.015453	-0.124472	0.679286
N47	N	0.155155	-0.763898	1.039838
O48	O	0.141555	-0.962488	1.315987
O49	O	-0.015254	-0.749480	1.316022
O50	O	-0.014890	-0.884527	1.315962
O51	O	0.141192	-0.827441	1.316047
O52	O	0.029815	-0.839777	1.181768
O53	O	0.029452	-0.704730	1.181828
O54	O	0.186261	-0.917739	1.181793
Zn55	Zn	0.114954	-0.804130	1.160504
Zn56	Zn	0.056053	-0.863089	1.337311
O57	O	0.185897	-0.782692	1.181853
N58	N	0.015850	-0.903330	1.457977
C59	C	0.051451	-0.700162	0.649301
C60	C	0.218580	-0.867175	0.649169
C61	C	0.119026	-0.967011	0.848750
C62	C	-0.048103	-0.799998	0.848882
C63	C	0.585495	-0.933471	0.882014
C64	C	0.585361	-0.933023	0.714775
C65	C	0.585151	-0.733419	0.615444
C66	C	0.585291	-0.733869	0.782682
C67	C	0.218449	-0.333386	0.648902
C68	C	0.051232	-0.333573	0.649435
C69	C	-0.048061	-0.333556	0.848984
C70	C	0.119212	-0.333537	0.848507
C71	C	-0.014496	-0.700269	1.248929
C72	C	-0.014037	-0.867500	1.248828
C73	C	0.185503	-0.966949	1.248886
C74	C	0.185054	-0.799709	1.248957
H75	H	0.039295	-0.638935	0.600193
O76	O	0.584940	-0.674692	0.542502
C77	C	0.515247	-0.589363	0.445423
C78	C	0.515397	-0.655886	0.528034
H79	H	0.459019	-0.574126	0.433706
H80	H	0.571340	-0.611504	0.396080
H81	H	0.515249	-0.533164	0.445348
H82	H	0.515366	-0.712108	0.528188
H83	H	0.459308	-0.633679	0.577341
O84	O	0.133909	-0.333682	0.907029
C85	C	0.215877	-0.403193	0.991817
C86	C	0.199309	-0.403132	0.925549
H87	H	0.268763	-0.459328	1.006799
H88	H	0.159972	-0.403249	1.048218
H89	H	0.231195	-0.347004	0.969450
H90	H	0.184011	-0.459311	0.947840
H91	H	0.255227	-0.403034	0.869162
H92	H	0.585565	-0.982710	0.943168
O93	O	0.291277	-0.332901	0.590087
C94	C	0.423989	-0.332276	0.552352
C95	C	0.341543	-0.332807	0.619024
H96	H	0.464658	-0.332217	0.575729
H97	H	0.415212	-0.275978	0.497499
H98	H	0.453154	-0.388303	0.534484
H99	H	0.312334	-0.276818	0.636960
H100	H	0.350373	-0.389142	0.673833
O101	O	0.291507	-0.881439	0.590404
C102	C	0.374296	-0.828309	0.454397
C103	C	0.291665	-0.812054	0.520869
H104	H	0.374457	-0.772218	0.398167
H105	H	0.386086	-0.881061	0.439178
H106	H	0.423542	-0.843672	0.476663
H107	H	0.242367	-0.796657	0.498658
H108	H	0.279944	-0.759325	0.536078
H109	H	-0.063051	-0.879692	1.248749
O110	O	-0.121011	-0.333444	0.907756
C111	C	-0.239409	-0.263877	0.995952
C112	C	-0.156802	-0.263915	0.929408
H113	H	-0.268378	-0.207661	1.013466
H114	H	-0.230938	-0.319996	1.051025
H115	H	-0.280094	-0.263924	0.972586
H116	H	-0.116075	-0.263840	0.952699
H117	H	-0.165335	-0.207802	0.874348
H118	H	0.131184	-1.028235	0.897860
O119	O	0.585276	-0.991566	0.700316
C120	C	0.515812	-1.079608	0.739106
C121	C	0.515817	-1.013325	0.755580
H122	H	0.459652	-1.097208	0.783765
H123	H	0.571974	-1.134703	0.746322
H124	H	0.515784	-1.055939	0.674986
H125	H	0.515817	-1.036918	0.819696
H126	H	0.459661	-0.958243	0.748310
H127	H	0.038975	-0.333574	0.600406
H128	H	-0.063726	-0.639093	1.248939
H129	H	0.234736	-1.028122	1.248866
O130	O	0.243480	-0.785000	1.248939
C131	C	0.280366	-0.689169	1.249031
C132	C	0.214134	-0.705712	1.249032
H133	H	0.256658	-0.625072	1.249123
H134	H	0.335428	-0.696335	1.192856
H135	H	0.298030	-0.733884	1.305177
H136	H	0.196401	-0.661013	1.192925
H137	H	0.159116	-0.698574	1.305244
O138	O	-0.121121	-0.785467	0.907468
C139	C	-0.254003	-0.689867	0.944756
C140	C	-0.171344	-0.706210	0.878342
H141	H	-0.294638	-0.625794	0.921226
H142	H	-0.245593	-0.697090	0.999783
H143	H	-0.282993	-0.734648	0.962411
H144	H	-0.142309	-0.661443	0.860618
H145	H	-0.179807	-0.699015	0.823358
H146	H	0.585279	-0.684826	0.794916
