data_functionalizedCrystal
_audit_creation_method	'MofGen! by Chris Wilmer'
_symmetry_space_group_name_H-M	'P1'
_symmetry_Int_Tables_number	1
_symmetry_cell_setting	triclinic
loop_
_symmetry_equiv_pos_as_xyz
  x,y,z
_cell_length_a	10.723024
_cell_length_b	14.044220
_cell_length_c	9.198806
_cell_angle_alpha	89.995861
_cell_angle_beta	89.996352
_cell_angle_gamma	88.828373
loop_
_atom_site_label
_atom_site_type_symbol
_atom_site_fract_x
_atom_site_fract_y
_atom_site_fract_z
O1	O	1.670498	0.133040	-0.120888
O2	O	2.170498	0.633040	0.379112
O3	O	1.308620	0.145774	-0.120893
O4	O	1.808620	0.645774	0.379107
O5	O	1.484127	0.001387	-0.120876
O6	O	1.984127	0.501387	0.379124
O7	O	1.494991	0.277427	-0.120905
O8	O	1.994991	0.777427	0.379095
O9	O	1.484112	0.001387	0.120909
O10	O	1.984112	0.501387	0.620909
O11	O	1.308604	0.145774	0.120892
O12	O	1.808604	0.645774	0.620892
O13	O	1.670483	0.133039	0.120898
O14	O	2.170483	0.633039	0.620898
Cu15	Cu	1.489542	0.139407	0.142972
Cu16	Cu	1.989542	0.639407	0.642972
Cu17	Cu	1.489560	0.139407	-0.142967
Cu18	Cu	1.989560	0.639407	0.357033
O19	O	1.494975	0.277427	0.120881
O20	O	1.994975	0.777427	0.620881
C21	C	1.262020	0.144847	-0.000001
C22	C	1.762020	0.644847	0.499999
C23	C	1.123188	0.142075	-0.000003
C24	C	1.623188	0.642075	0.499997
C25	C	1.056288	0.222866	-0.000012
C26	C	1.556288	0.722866	0.499988
C27	C	0.912798	0.220002	-0.000013
C28	C	1.412798	0.720002	0.499987
C29	C	1.479364	-0.033958	0.000017
C30	C	1.979364	0.466042	0.500017
C31	C	1.465180	-0.139276	0.000019
C32	C	1.965180	0.360724	0.500019
C33	C	1.439248	-0.332106	-0.000003
C34	C	1.939248	0.167894	0.499997
C35	C	1.539849	-0.389085	-0.000006
C36	C	2.039849	0.110915	0.499994
C37	C	1.525420	-0.496383	-0.000017
C38	C	2.025420	0.003617	0.499983
C39	C	1.453675	-0.224799	0.000009
C40	C	1.953675	0.275201	0.500009
C41	C	1.717083	0.133966	0.000002
C42	C	2.217083	0.633966	0.500002
C43	C	1.855914	0.136739	-0.000006
C44	C	2.355914	0.636739	0.499994
C45	C	1.499738	0.312772	-0.000016
C46	C	1.999738	0.812772	0.499984
C47	C	1.513923	0.418090	-0.000027
C48	C	2.013923	0.918090	0.499973
N49	N	1.489539	0.139406	0.344086
N50	N	1.989539	0.639406	0.844086
N51	N	1.489573	0.139401	-0.344081
N52	N	1.989573	0.639401	0.155919
C53	C	1.563202	0.078514	0.416290
C54	C	2.063202	0.578514	0.916290
C55	C	1.563221	0.078511	0.583702
C56	C	2.063221	0.578511	1.083702
H57	H	0.855286	0.289166	-0.000027
H58	H	1.355286	0.789166	0.499973
H59	H	0.913420	0.067571	-0.000007
H60	H	1.413420	0.567571	0.499993
N61	N	1.668291	-0.346968	0.000033
N62	N	2.168291	0.153032	0.500033
H63	H	1.733422	-0.399946	0.000036
H64	H	2.233422	0.100054	0.500036
H65	H	1.678659	-0.306345	-0.089590
H66	H	2.178659	0.193655	0.410410
H67	H	1.626293	0.026383	0.645795
H68	H	2.126293	0.526383	1.145795
N69	N	1.058348	0.047643	0.000020
N70	N	1.558348	0.547643	0.500020
H71	H	1.004455	0.042767	-0.089607
H72	H	1.504455	0.542767	0.410393
H73	H	1.122778	-0.005827	0.000084
H74	H	1.622778	0.494173	0.500084
N75	N	1.310812	-0.374221	-0.000007
N76	N	1.810812	0.125779	0.499993
H77	H	1.318582	-0.446013	-0.000010
H78	H	1.818582	0.053987	0.499990
H79	H	1.263972	-0.352374	0.089633
H80	H	1.763972	0.147626	0.589633
H81	H	1.626251	0.026381	0.354170
H82	H	2.126251	0.526381	0.854170
N83	N	1.406023	0.208465	0.573704
N84	N	1.906023	0.708465	1.073704
H85	H	1.458608	0.250646	0.510537
H86	H	1.958608	0.750646	1.010537
H87	H	1.346617	0.171856	0.510652
H88	H	1.846617	0.671856	1.010652
N89	N	1.121117	0.317303	-0.000012
N90	N	1.621117	0.817303	0.499988
H91	H	1.214432	0.305962	-0.000009
H92	H	1.714432	0.805962	0.499991
H93	H	1.096086	0.354564	-0.089650
H94	H	1.596086	0.854564	0.410350
N95	N	1.406013	0.208456	0.426366
N96	N	1.906013	0.708456	0.926366
H97	H	1.428103	0.275848	0.399947
H98	H	1.928103	0.775848	0.899947
H99	H	1.316134	0.197039	0.399939
H100	H	1.816134	0.697039	0.899939
