data_functionalizedCrystal
_audit_creation_method	'MofGen! by Chris Wilmer'
_symmetry_space_group_name_H-M	'P1'
_symmetry_Int_Tables_number	1
_symmetry_cell_setting	triclinic
loop_
_symmetry_equiv_pos_as_xyz
  x,y,z
_cell_length_a	23.532407
_cell_length_b	23.532407
_cell_length_c	22.610064
_cell_angle_alpha	89.999397
_cell_angle_beta	89.997161
_cell_angle_gamma	82.848678
loop_
_atom_site_label
_atom_site_type_symbol
_atom_site_fract_x
_atom_site_fract_y
_atom_site_fract_z
O1	O	0.755263	0.069127	-0.049117
O2	O	0.589400	0.079130	-0.049135
O3	O	0.677333	-0.008803	-0.049114
O4	O	0.667330	0.157060	-0.049137
O5	O	0.677318	-0.008790	0.049255
O6	O	0.589385	0.079143	0.049234
O7	O	0.755248	0.069140	0.049252
Zn8	Zn	0.672314	0.074144	0.064862
Zn9	Zn	0.672334	0.074127	-0.064744
O10	O	0.667315	0.157073	0.049232
C11	C	0.568176	0.078882	0.000048
C12	C	0.504959	0.078116	0.000041
C13	C	0.677071	-0.030013	0.000072
C14	C	0.676305	-0.093230	0.000076
C15	C	0.105856	0.125350	0.000061
C16	C	0.046456	0.124638	0.000065
O17	O	0.009711	0.168424	0.000081
N18	N	0.023830	0.072362	0.000071
C19	C	0.060607	0.020794	0.000080
O20	O	0.035908	-0.023737	0.000086
C21	C	0.120006	0.021506	0.000080
C22	C	0.142629	0.073785	0.000068
C23	C	0.128479	0.177625	0.000050
C24	C	0.187876	0.178336	0.000045
C25	C	0.224649	0.126772	0.000052
C26	C	0.202025	0.074497	0.000063
C27	C	0.156783	-0.030062	0.000093
C28	C	0.216185	-0.029345	0.000094
C29	C	0.238808	0.022934	0.000082
C30	C	0.298194	0.023643	0.000065
N31	N	0.320820	0.075920	0.000059
C32	C	0.284048	0.127484	0.000052
C33	C	-0.064135	0.019302	0.000080
C34	C	-0.123533	0.018589	0.000075
C35	C	-0.137680	0.122434	0.000061
C36	C	-0.078281	0.123146	0.000062
C37	C	-0.041509	0.071578	0.000074
C38	C	0.408784	0.128974	0.000042
C39	C	0.468186	0.129680	0.000034
C40	C	0.482329	0.025836	0.000051
C41	C	0.422932	0.025129	0.000055
C42	C	0.386160	0.076702	0.000052
O43	O	0.334974	-0.020119	0.000052
O44	O	0.308755	0.172007	0.000054
C45	C	0.723539	-0.492333	0.000049
C46	C	0.722827	-0.551733	0.000044
O47	O	0.766613	-0.588478	0.000027
N48	N	0.670551	-0.574359	0.000039
C49	C	0.618983	-0.537582	0.000032
O50	O	0.574452	-0.562281	0.000027
C51	C	0.619695	-0.478182	0.000033
C52	C	0.671974	-0.455560	0.000044
C53	C	0.775814	-0.469710	0.000060
C54	C	0.776525	-0.410313	0.000065
C55	C	0.724961	-0.373540	0.000060
C56	C	0.672685	-0.396164	0.000050
C57	C	0.568127	-0.441406	0.000022
C58	C	0.568844	-0.382004	0.000021
C59	C	0.621123	-0.359381	0.000033
C60	C	0.621832	-0.299995	0.000050
N61	N	0.674109	-0.277368	0.000056
C62	C	0.725673	-0.314141	0.000061
C63	C	0.617491	-0.662324	0.000031
C64	C	0.616778	-0.721722	0.000034
C65	C	0.720623	-0.735869	0.000045
C66	C	0.721335	-0.676470	0.000046
C67	C	0.669767	-0.639698	0.000036
C68	C	0.727163	-0.189405	0.000073
C69	C	0.727869	-0.130003	0.000081
C70	C	0.624025	-0.115860	0.000067
C71	C	0.623318	-0.175257	0.000062
C72	C	0.674891	-0.212029	0.000063
O73	O	0.578070	-0.263215	0.000065
O74	O	0.770196	-0.289433	0.000058
C75	C	0.776472	0.069388	0.000069
C76	C	0.839689	0.070154	0.000071
C77	C	0.667577	0.178283	0.000045
C78	C	0.668343	0.241500	0.000036
N79	N	0.672304	0.074155	0.153314
N80	N	0.672349	0.074111	-0.153196
C81	C	0.711273	0.035196	0.561965
C82	C	0.711276	0.035192	0.623884
O83	O	0.744384	0.002076	0.655911
N84	N	0.672334	0.074115	0.654851
C85	C	0.633383	0.113041	0.623895
O86	O	0.600259	0.146147	0.655920
C87	C	0.633377	0.113042	0.561976
C88	C	0.672326	0.074120	0.531013
C89	C	0.750218	-0.003724	0.531001
C90	C	0.750215	-0.003719	0.469085
C91	C	0.711268	0.035206	0.438133
C92	C	0.672323	0.074125	0.469097
C93	C	0.594424	0.151965	0.531021
C94	C	0.594422	0.151962	0.469098
C95	C	0.633370	0.113040	0.438134
C96	C	0.633374	0.113054	0.376229
N97	N	0.672316	0.074131	0.345262
C98	C	0.711263	0.035207	0.376214
C99	C	0.633396	0.113035	0.753928
C100	C	0.633403	0.113037	0.815846
C101	C	0.711296	0.035187	0.815831
C102	C	0.711291	0.035188	0.753913
C103	C	0.672338	0.074112	0.722962
C104	C	0.711255	0.035220	0.246187
C105	C	0.711251	0.035230	0.184266
C106	C	0.633357	0.113078	0.184286
C107	C	0.633363	0.113071	0.246202
C108	C	0.672314	0.074137	0.277151
O109	O	0.600281	0.146152	0.344163
O110	O	0.744376	0.002101	0.344182
H111	H	0.486602	0.172255	0.000024
H112	H	0.601653	0.144770	0.271413
O113	O	0.827295	-0.388313	0.000173
C114	C	0.830810	-0.354366	0.051111
H115	H	0.801128	-0.368247	0.086720
H116	H	0.876739	-0.359956	0.068211
H117	H	0.817407	-0.307447	0.039591
O118	O	0.749143	-0.002678	0.723929
C119	C	0.783528	-0.037019	0.764533
H120	H	0.760185	-0.037540	0.808673
H121	H	0.792476	-0.082548	0.746648
H122	H	0.825728	-0.018740	0.771112
H123	H	0.525555	-0.459814	0.000009
O124	O	0.373151	0.179124	0.000009
C125	C	0.405867	0.225410	0.000011
H126	H	0.450282	0.210684	-0.018610
H127	H	0.383764	0.261514	-0.028557
H128	H	0.410009	0.241460	0.047199
O129	O	0.595518	0.150872	0.845829
C130	C	0.561155	0.185236	0.805224
H131	H	0.560648	0.161888	0.761087
H132	H	0.515625	0.194155	0.823114
H133	H	0.579405	0.227450	0.798638
O134	O	0.595545	0.150831	0.154122
C135	C	0.603907	0.142491	0.092832
H136	H	0.625457	0.097105	0.084379
H137	H	0.560743	0.149037	0.069301
H138	H	0.632280	0.174586	0.075256
H139	H	0.138375	-0.072634	0.000103
H140	H	-0.141947	-0.023982	0.000076
O141	O	0.209752	0.229171	0.000067
C142	C	0.164549	0.274524	0.000049
H143	H	0.124283	0.258788	0.018672
H144	H	0.176754	0.311047	0.028607
H145	H	0.156057	0.290410	-0.047145
H146	H	0.770443	-0.111587	0.000092
O147	O	0.825960	-0.505345	0.000093
C148	C	0.872245	-0.472627	0.000086
H149	H	0.857517	-0.428212	0.018704
H150	H	0.908350	-0.494728	0.028654
H151	H	0.888296	-0.468485	-0.047103
H152	H	0.404512	-0.017441	0.000056
O153	O	0.517974	-0.024304	0.000031
C154	C	0.485275	-0.070602	0.000057
H155	H	0.440858	-0.055898	-0.018568
H156	H	0.507391	-0.106713	-0.028496
H157	H	0.481134	-0.086634	0.047253
O158	O	0.777313	-0.225038	0.000102
C159	C	0.823599	-0.192322	0.000099
H160	H	0.808873	-0.147908	0.018722
H161	H	0.859704	-0.214428	0.028663
H162	H	0.839648	-0.188175	-0.047091
O163	O	0.092706	0.227682	-0.000039
C164	C	0.057942	0.230379	-0.050997
H165	H	0.055177	0.185191	-0.067970
H166	H	0.013180	0.251867	-0.039548
H167	H	0.077355	0.256261	-0.086677
H168	H	0.763906	-0.658056	0.000054
O169	O	0.788111	-0.041558	0.560970
C170	C	0.822467	-0.075913	0.520351
H171	H	0.822962	-0.052560	0.476216
H172	H	0.868002	-0.084831	0.538225
H173	H	0.804220	-0.118129	0.513768
O174	O	0.770662	-0.771678	0.000017
C175	C	0.758817	-0.828954	0.000025
H176	H	0.714098	-0.830978	-0.018599
H177	H	0.791705	-0.856049	-0.028537
H178	H	0.761072	-0.846150	0.047216
H179	H	0.574207	-0.740136	0.000035
H180	H	0.582043	-0.085909	0.000065
O181	O	0.567342	-0.626686	0.000056
C182	C	0.521054	-0.659400	0.000036
H183	H	0.535773	-0.703815	0.018659
H184	H	0.484941	-0.637295	0.028594
H185	H	0.505020	-0.663543	-0.047158
O186	O	0.518696	-0.346365	0.000038
C187	C	0.472406	-0.379075	0.000012
H188	H	0.487119	-0.423491	0.018635
H189	H	0.436290	-0.356968	0.028565
H190	H	0.456378	-0.383216	-0.047185
O191	O	0.572571	-0.197306	-0.000023
C192	C	0.569056	-0.231222	-0.050983
H193	H	0.614032	-0.246260	-0.067964
H194	H	0.546579	-0.269999	-0.039535
H195	H	0.543713	-0.204833	-0.086657
H196	H	0.742969	0.003535	0.159057
O197	O	0.749147	-0.002621	0.276154
C198	C	0.783505	-0.036977	0.235537
H199	H	0.784008	-0.013621	0.191403
H200	H	0.829037	-0.045901	0.253416
H201	H	0.765254	-0.079190	0.228946
H202	H	0.781929	-0.035414	0.443878
H203	H	0.743008	0.003492	0.841044
H204	H	0.601677	0.144736	0.728731
H205	H	0.562709	0.183658	0.556223
O206	O	0.556639	0.189854	0.439060
C207	C	0.565564	0.246184	0.454207
H208	H	0.611159	0.246231	0.471222
H209	H	0.558846	0.274805	0.413491
H210	H	0.533906	0.263066	0.490154
O211	O	-0.056377	0.173966	-0.000025
C212	C	-0.075183	0.205363	-0.050984
H213	H	-0.116294	0.190074	-0.067969
H214	H	-0.083696	0.252839	-0.039534
H215	H	-0.040767	0.198566	-0.086656
O216	O	-0.173351	0.172562	0.000138
C217	C	-0.163156	0.204323	0.051088
H218	H	-0.118016	0.190085	0.068072
H219	H	-0.167604	0.251845	0.039626
H220	H	-0.195604	0.196722	0.086765
H221	H	-0.034198	-0.022693	0.000084
H222	H	0.246123	-0.071339	0.000104
