data_functionalizedCrystal
_audit_creation_method	'MofGen! by Chris Wilmer'
_symmetry_space_group_name_H-M	'P1'
_symmetry_Int_Tables_number	1
_symmetry_cell_setting	triclinic
loop_
_symmetry_equiv_pos_as_xyz
  x,y,z
_cell_length_a	8.497367
_cell_length_b	8.497374
_cell_length_c	16.625548
_cell_angle_alpha	90.003540
_cell_angle_beta	90.032406
_cell_angle_gamma	90.038609
loop_
_atom_site_label
_atom_site_type_symbol
_atom_site_fract_x
_atom_site_fract_y
_atom_site_fract_z
Zn1	Zn	0.628285	0.892549	1.232858
Zn2	Zn	1.128285	1.392549	1.732858
Zn3	Zn	0.892031	0.628968	1.232933
Zn4	Zn	1.392031	1.128968	1.732933
Zn5	Zn	0.628264	0.628768	1.098060
Zn6	Zn	1.128264	1.128768	1.598060
Zn7	Zn	0.892022	0.892691	1.098122
Zn8	Zn	1.392022	1.392691	1.598122
O9	O	0.760151	0.760744	1.165494
O10	O	1.260151	1.260744	1.665494
O11	O	0.663285	0.857608	1.345701
O12	O	1.163285	1.357608	1.845701
O13	O	0.857037	0.408179	1.215048
O14	O	1.357037	0.908179	1.715048
O15	O	0.407504	0.663615	1.115884
O16	O	0.907504	1.163615	1.615884
O17	O	0.857058	0.663957	1.345756
O18	O	1.357058	1.163957	1.845756
O19	O	0.407520	0.857414	1.214920
O20	O	0.907520	1.357414	1.714920
O21	O	0.663248	0.408032	1.115957
O22	O	1.163248	0.908032	1.615957
O23	O	0.663239	0.663753	0.985236
O24	O	1.163239	1.163753	1.485236
O25	O	0.857042	1.113434	1.115990
O26	O	1.357042	1.613434	1.615990
O27	O	0.857021	0.857657	0.985282
O28	O	1.357021	1.357657	1.485282
O29	O	0.663276	1.113330	1.214980
O30	O	1.163276	1.613330	1.714980
O31	O	1.112793	0.664095	1.215108
O32	O	1.612793	1.164095	1.715108
O33	O	1.112786	0.857851	1.116063
O34	O	1.612786	1.357851	1.616063
C35	C	0.760128	0.760700	0.956003
C36	C	1.260128	1.260700	1.456003
C37	C	0.760156	0.760718	0.866382
C38	C	1.260156	1.260718	1.366382
C39	C	1.348670	0.760598	1.165438
C40	C	1.848670	1.260598	1.665438
C41	C	1.170027	0.760886	1.165539
C42	C	1.670027	1.260886	1.665539
C43	C	0.760153	1.172224	1.165488
C44	C	1.260153	1.672224	1.665488
C45	C	0.760170	1.350868	1.165489
C46	C	1.260170	1.850868	1.665489
C47	C	0.760167	0.760786	0.538206
C48	C	1.260167	1.260786	1.038206
C49	C	0.760160	0.760762	0.629514
C50	C	1.260160	1.260762	1.129514
C51	C	0.760162	0.760751	0.702291
C52	C	1.260162	1.260751	1.202291
C53	C	0.760154	0.760729	0.793605
C54	C	1.260154	1.260729	1.293605
C55	C	0.760174	0.760789	1.375802
C56	C	1.260174	1.260789	1.875802
C57	C	0.760185	0.760808	1.465424
C58	C	1.260185	1.260808	1.965424
