data_functionalizedCrystal
_audit_creation_method	'MofGen! by Chris Wilmer'
_symmetry_space_group_name_H-M	'P1'
_symmetry_Int_Tables_number	1
_symmetry_cell_setting	triclinic
loop_
_symmetry_equiv_pos_as_xyz
  x,y,z
_cell_length_a	19.188928
_cell_length_b	19.288865
_cell_length_c	18.366186
_cell_angle_alpha	89.988521
_cell_angle_beta	90.025748
_cell_angle_gamma	96.859972
loop_
_atom_site_label
_atom_site_type_symbol
_atom_site_fract_x
_atom_site_fract_y
_atom_site_fract_z
O1	O	-0.926144	0.086710	-0.060840
O2	O	-0.722831	0.098385	-0.060780
O3	O	-0.830362	-0.008582	-0.060797
O4	O	-0.818613	0.193677	-0.060823
O5	O	-0.830344	-0.008588	0.060302
O6	O	-0.722813	0.098380	0.060319
O7	O	-0.926126	0.086705	0.060260
Zn8	Zn	-0.824467	0.092542	0.079517
Zn9	Zn	-0.824491	0.092548	-0.080037
O10	O	-0.818595	0.193672	0.060277
C11	C	-0.696811	0.098005	-0.000223
C12	C	-0.619307	0.096871	-0.000200
C13	C	-0.574378	0.159636	-0.000217
C14	C	-0.501554	0.158570	-0.000221
C15	C	-0.473662	0.094736	-0.000223
C16	C	-0.518601	0.031963	-0.000201
C17	C	-0.591423	0.033030	-0.000190
N18	N	-0.365692	0.045945	-0.041455
N19	N	-0.296513	0.044936	-0.041468
C20	C	-0.254254	0.091517	-0.000255
N21	N	-0.283785	0.139156	0.040961
N22	N	-0.352970	0.140167	0.040970
C23	C	-0.394700	0.093572	-0.000234
C24	C	-0.130361	0.153130	-0.000276
C25	C	-0.057536	0.152062	-0.000276
C26	C	-0.074584	0.025453	-0.000263
C27	C	-0.147407	0.026523	-0.000256
C28	C	-0.175291	0.090364	-0.000266
C29	C	-0.829975	-0.034461	-0.000245
C30	C	-0.828840	-0.111565	-0.000239
C31	C	-0.891935	-0.156257	-0.000253
C32	C	-0.890868	-0.228704	-0.000265
C33	C	-0.826704	-0.256456	-0.000246
C34	C	-0.763602	-0.211754	-0.000236
C35	C	-0.764670	-0.139309	-0.000232
C36	C	-0.776258	-0.364749	0.042187
C37	C	-0.775192	-0.437193	0.042187
C38	C	-0.823408	-0.479902	-0.000262
C39	C	-0.872700	-0.450159	-0.042702
C40	C	-0.873768	-0.377713	-0.042698
C41	C	-0.825539	-0.335010	-0.000251
C42	C	-0.885350	-0.603150	-0.000290
C43	C	-0.884281	-0.675598	-0.000305
C44	C	-0.757013	-0.658646	-0.000269
C45	C	-0.758084	-0.586200	-0.000261
C46	C	-0.822254	-0.558456	-0.000268
C47	C	0.047855	0.087087	-0.000286
C48	C	-0.029649	0.088228	-0.000276
C49	C	-0.818982	0.219551	-0.000277
C50	C	-0.820117	0.296655	-0.000288
N51	N	-0.824455	0.092536	0.188408
N52	N	-0.824507	0.092548	-0.188928
C53	C	-0.872085	0.045194	0.226501
C54	C	-0.872090	0.045191	0.302728
C55	C	-0.824471	0.092542	0.340860
C56	C	-0.776832	0.139888	0.302758
C57	C	-0.776824	0.139885	0.226532
C58	C	-0.815124	0.155829	0.461614
C59	C	-0.815137	0.155833	0.537839
C60	C	-0.824491	0.092551	0.575968
C61	C	-0.833847	0.029262	0.537862
C62	C	-0.833839	0.029259	0.461636
C63	C	-0.824474	0.092550	0.423515
C64	C	-0.872128	0.045201	0.696716
C65	C	-0.872128	0.045197	0.772945
C66	C	-0.776873	0.139900	0.772973
C67	C	-0.776870	0.139898	0.696746
C68	C	-0.824501	0.092549	0.658621
H69	H	-0.944187	-0.133674	-0.000261
Br70	Br	-0.940659	-0.337348	-0.100296
Br71	Br	-0.802448	0.241723	0.589547
H72	H	-0.597076	0.211619	-0.000226
H73	H	-0.713289	-0.102919	-0.000219
Br74	Br	-0.036739	-0.061180	-0.000253
Br75	Br	-0.936724	-0.019065	0.174760
H76	H	-0.911962	-0.484931	-0.077269
H77	H	-0.464966	0.209682	-0.000233
H78	H	-0.910911	0.006645	0.665674
Br79	Br	-0.936736	-0.019065	0.354435
Br80	Br	-0.652402	-0.052158	-0.000165
H81	H	-0.841455	-0.022273	0.430613
Br82	Br	-0.802499	0.241722	0.409876
H83	H	-0.153065	0.205113	-0.000273
H84	H	-0.020955	0.203175	-0.000285
Br85	Br	-0.712177	0.204139	0.174830
Br86	Br	-0.672451	-0.525542	-0.000240
H87	H	-0.735052	-0.461404	0.076741
H88	H	-0.937602	-0.580560	-0.000299
H89	H	-0.183990	-0.024587	-0.000246
Br90	Br	-0.969917	-0.736255	-0.000333
H91	H	-0.736993	-0.329980	0.076758
H92	H	-0.942249	-0.265100	-0.000280
H93	H	-0.841463	-0.022269	0.568905
Br94	Br	-0.669931	-0.696301	-0.000252
H95	H	-0.711359	-0.234354	-0.000222
Br96	Br	-0.936768	-0.019063	0.824647
Br97	Br	-0.712200	0.204146	0.354506
H98	H	-0.738098	0.178451	0.804020
H99	H	-0.495887	-0.020011	-0.000212
Br100	Br	-0.712228	0.204153	0.645042
