data_functionalizedCrystal
_audit_creation_method	'MofGen! by Chris Wilmer'
_symmetry_space_group_name_H-M	'P1'
_symmetry_Int_Tables_number	1
_symmetry_cell_setting	triclinic
loop_
_symmetry_equiv_pos_as_xyz
  x,y,z
_cell_length_a	29.019771
_cell_length_b	29.019011
_cell_length_c	29.015668
_cell_angle_alpha	60.004890
_cell_angle_beta	60.009825
_cell_angle_gamma	59.993818
loop_
_atom_site_label
_atom_site_type_symbol
_atom_site_fract_x
_atom_site_fract_y
_atom_site_fract_z
O1	O	0.063866	-0.673289	0.563007
O2	O	0.563866	-0.173289	1.063007
O3	O	0.024059	-0.524205	0.453633
O4	O	0.524059	-0.024205	0.953633
O5	O	0.118464	-0.618532	0.453552
O6	O	0.618464	-0.118532	0.953552
O7	O	-0.030540	-0.578962	0.563088
O8	O	0.469460	-0.078962	1.063088
O9	O	0.149785	-0.587215	0.484789
O10	O	0.649785	-0.087215	0.984789
O11	O	0.055379	-0.492888	0.484869
O12	O	0.555379	0.007112	0.984869
O13	O	0.095186	-0.641972	0.594244
O14	O	0.595186	-0.141972	1.094244
Cu15	Cu	0.078143	-0.564571	0.542409
Cu16	Cu	0.578143	-0.064571	1.042409
Cu17	Cu	0.041102	-0.601606	0.505468
Cu18	Cu	0.541102	-0.101606	1.005468
O19	O	0.000781	-0.547645	0.594325
O20	O	0.500781	-0.047645	1.094325
N21	N	0.104196	-0.538525	0.568394
N22	N	0.604196	-0.038525	1.068394
N23	N	0.015054	-0.627656	0.479483
N24	N	0.515054	-0.127656	0.979483
C25	C	0.143783	-0.499167	0.850823
C26	C	0.643783	0.000833	1.350823
C27	C	0.386758	-0.499111	0.607645
C28	C	0.886758	0.000889	1.107645
C29	C	0.143618	-0.499136	0.607763
C30	C	0.643618	0.000864	1.107763
C31	C	0.143598	-0.256029	0.607770
C32	C	0.643598	0.243971	1.107770
C33	C	0.182748	-0.373362	0.646852
C34	C	0.682748	0.126638	1.146852
C35	C	0.182758	-0.460025	0.646847
C36	C	0.682758	0.039975	1.146847
C37	C	0.204440	-0.438361	0.668500
C38	C	0.704440	0.061639	1.168500
C39	C	0.298958	-0.422064	0.618723
C40	C	0.798958	0.077936	1.118723
C41	C	0.358043	-0.441753	0.599006
C42	C	0.858043	0.058247	1.099006
C43	C	0.358069	-0.537354	0.635461
C44	C	0.858069	-0.037354	1.135461
C45	C	0.298985	-0.517664	0.655180
C46	C	0.798985	-0.017664	1.155180
C47	C	0.196983	-0.343808	0.588767
C48	C	0.696983	0.156192	1.088767
C49	C	0.177262	-0.284720	0.569090
C50	C	0.677262	0.215280	1.069090
C51	C	0.129075	-0.284743	0.665586
C52	C	0.629075	0.215257	1.165586
C53	C	0.148797	-0.343831	0.685263
C54	C	0.648797	0.156169	1.185263
C55	C	0.124666	-0.445760	0.661149
C56	C	0.624666	0.054240	1.161149
C57	C	0.104961	-0.465454	0.641458
C58	C	0.604961	0.034546	1.141458
C59	C	0.201435	-0.513678	0.593176
C60	C	0.701435	-0.013678	1.093176
C61	C	0.221143	-0.493984	0.612860
C62	C	0.721143	0.006016	1.112860
C63	C	0.124738	-0.445777	0.763064
C64	C	0.624738	0.054223	1.263064
C65	C	0.105085	-0.465488	0.822151
C66	C	0.605085	0.034512	1.322151
C67	C	0.201594	-0.513722	0.822097
C68	C	0.701594	-0.013722	1.322097
C69	C	0.221247	-0.494012	0.763009
C70	C	0.721247	0.005988	1.263009
C71	C	0.182817	-0.460038	0.733494
C72	C	0.682817	0.039962	1.233494
C73	C	0.269432	-0.460018	0.646809
C74	C	0.769432	0.039982	1.146809
C75	C	0.121399	-0.520450	0.915812
C76	C	0.621399	-0.020450	1.415812
C77	C	0.451745	-0.520012	0.585655
C78	C	0.951745	-0.020012	1.085655
C79	C	0.121177	-0.520429	0.586502
C80	C	0.621177	-0.020429	1.086502
C81	C	0.121544	-0.191035	0.586883
C82	C	0.621544	0.308965	1.086883
C83	C	-0.110592	-0.666601	0.440035
C84	C	0.389408	-0.166601	0.940035
C85	C	-0.023978	-0.666709	0.440231
C86	C	0.476022	-0.166709	0.940231
C87	C	-0.045598	-0.688342	0.418486
C88	C	0.454402	-0.188342	0.918486
C89	C	-0.061967	-0.782825	0.468184
C90	C	0.438033	-0.282825	0.968184
C91	C	-0.042323	-0.841914	0.487907
C92	C	0.457677	-0.341914	0.987907
C93	C	0.053280	-0.842025	0.451623
C94	C	0.553280	-0.342025	0.951623
C95	C	0.033634	-0.782937	0.431899
C96	C	0.533634	-0.282937	0.931899
C97	C	-0.140218	-0.680832	0.498102
C98	C	0.359782	-0.180832	0.998102
C99	C	-0.199302	-0.661065	0.517690
C100	C	0.300698	-0.161065	1.017690
C101	C	-0.199129	-0.612843	0.421140
C102	C	0.300871	-0.112843	0.921140
C103	C	-0.140045	-0.632610	0.401552
C104	C	0.359955	-0.132610	0.901552
C105	C	-0.038209	-0.608622	0.425941
C106	C	0.461791	-0.108622	0.925941
C107	C	-0.018555	-0.588961	0.445716
C108	C	0.481445	-0.088961	0.945716
C109	C	0.029562	-0.685470	0.494059
C110	C	0.529562	-0.185470	0.994059
C111	C	0.009908	-0.705133	0.474291
C112	C	0.509908	-0.205133	0.974291
C113	C	-0.038037	-0.608631	0.323917
C114	C	0.461963	-0.108631	0.823917
C115	C	-0.018247	-0.588973	0.264830
C116	C	0.481753	-0.088973	0.764830
C117	C	0.029955	-0.685489	0.264893
C118	C	0.529955	-0.185489	0.764893
C119	C	0.010165	-0.705145	0.323981
C120	C	0.510165	-0.205145	0.823981
C121	C	-0.023833	-0.666715	0.353492
C122	C	0.476167	-0.166715	0.853492
C123	C	-0.023990	-0.753339	0.440182
C124	C	0.476010	-0.253339	0.940182
N125	N	0.504925	-0.538487	0.568205
N126	N	1.004925	-0.038487	1.068205
O127	O	0.685342	-0.543679	0.433426
O128	O	1.185342	-0.043679	0.933426
O129	O	0.685533	-0.653395	0.582361
O130	O	1.185533	-0.153395	1.082361
O131	O	0.685457	-0.653145	0.487904
O132	O	1.185457	-0.153145	0.987904
O133	O	0.685418	-0.543929	0.527882
O134	O	1.185418	-0.043929	1.027882
O135	O	0.591592	-0.621921	0.519268
O136	O	1.091592	-0.121921	1.019268
O137	O	0.591667	-0.622171	0.613725
O138	O	1.091667	-0.122171	1.113725
O139	O	0.591477	-0.512455	0.464790
O140	O	1.091477	-0.012455	0.964790
Cu141	Cu	0.583001	-0.564462	0.542121
Cu142	Cu	1.083001	-0.064462	1.042121
Cu143	Cu	0.694008	-0.601388	0.505029
Cu144	Cu	1.194008	-0.101388	1.005029
O145	O	0.591553	-0.512705	0.559246
O146	O	1.091553	-0.012705	1.059246
N147	N	0.772084	-0.627363	0.478939
N148	N	1.272084	-0.127363	0.978939
N149	N	0.104168	-0.137853	0.568408
N150	N	0.604168	0.362147	1.068408
O151	O	-0.030538	0.042663	0.563097
O152	O	0.469462	0.542663	1.063097
O153	O	0.118403	0.042683	0.453379
O154	O	0.618403	0.542683	0.953379
O155	O	0.023918	0.042657	0.453664
O156	O	0.523918	0.542657	0.953664
O157	O	0.063947	0.042689	0.562813
O158	O	0.563947	0.542689	1.062813
O159	O	0.055242	-0.051215	0.484950
O160	O	0.555242	0.448785	0.984950
O161	O	0.149727	-0.051189	0.484666
O162	O	0.649727	0.448811	0.984666
O163	O	0.000787	-0.051210	0.594384
O164	O	0.500787	0.448790	1.094384
Cu165	Cu	0.078117	-0.059771	0.542381
Cu166	Cu	0.578117	0.440229	1.042381
Cu167	Cu	0.041072	0.051244	0.505382
Cu168	Cu	0.541072	0.551244	1.005382
O169	O	0.095272	-0.051184	0.594099
O170	O	0.595272	0.448816	1.094099
N171	N	0.015015	0.129326	0.479356
N172	N	0.515015	0.629326	0.979356
N173	N	0.104469	-0.538576	0.968995
N174	N	0.604469	-0.038576	1.468995
O175	O	0.099171	-0.673268	1.149499
O176	O	0.599171	-0.173268	1.649499
O177	O	-0.010519	-0.524279	1.149527
O178	O	0.489481	-0.024279	1.649527
O179	O	-0.010265	-0.618748	1.149494
O180	O	0.489735	-0.118748	1.649494
O181	O	0.098916	-0.578799	1.149533
O182	O	0.598916	-0.078799	1.649533
O183	O	0.021008	-0.587443	1.055625
O184	O	0.521008	-0.087443	1.555625
O185	O	0.020753	-0.492974	1.055659
O186	O	0.520753	0.007026	1.555659
O187	O	0.130444	-0.641963	1.055630
O188	O	0.630444	-0.141963	1.555630
Cu189	Cu	0.078454	-0.564610	1.047074
Cu190	Cu	0.578454	-0.064610	1.547074
Cu191	Cu	0.041470	-0.601632	1.158084
Cu192	Cu	0.541470	-0.101632	1.658084
O193	O	0.130189	-0.547494	1.055664
O194	O	0.630189	-0.047494	1.555664
N195	N	0.015455	-0.627672	1.236163
N196	N	0.515455	-0.127672	1.736163
C197	C	0.035988	-0.489761	0.454182
C198	C	0.535988	0.010239	0.954182
C199	C	0.152897	-0.606574	0.454082
C200	C	0.652897	-0.106574	0.954082
C201	C	0.083257	-0.676417	0.593694
C202	C	0.583257	-0.176417	1.093694
C203	C	-0.033653	-0.559604	0.593794
C204	C	0.466347	-0.059604	1.093794
C205	C	0.638623	-0.652892	0.616806
C206	C	1.138623	-0.152892	1.116806
C207	C	0.638531	-0.652583	0.499833
C208	C	1.138531	-0.152583	0.999833
C209	C	0.638384	-0.512957	0.430345
C210	C	1.138384	-0.012957	0.930345
C211	C	0.638480	-0.513267	0.547317
C212	C	1.138480	-0.013267	1.047317
C213	C	0.152789	-0.004135	0.453875
C214	C	0.652789	0.495865	0.953875
C215	C	0.035820	-0.004282	0.454266
C216	C	0.535820	0.495718	0.954266
C217	C	-0.033639	-0.004275	0.593849
C218	C	0.466361	0.495725	1.093849
C219	C	0.083370	-0.004245	0.593498
C220	C	0.583370	0.495755	1.093498
C221	C	-0.009989	-0.489856	1.102597
C222	C	0.490011	0.010144	1.602597
C223	C	-0.009667	-0.606839	1.102536
C224	C	0.490333	-0.106839	1.602536
C225	C	0.129914	-0.676386	1.102561
C226	C	0.629914	-0.176386	1.602561
C227	C	0.129599	-0.559396	1.102601
C228	C	0.629599	-0.059396	1.602601
H229	H	0.057789	-0.453866	0.846219
H230	H	0.557789	0.046134	1.346219
H231	H	0.638547	-0.686893	0.491276
H232	H	1.138547	-0.186893	0.991276
O233	O	-0.050552	-0.617105	1.102550
O234	O	0.449448	-0.117105	1.602550
C235	C	-0.063541	-0.662804	1.151146
C236	C	0.436459	-0.162804	1.651146
H237	H	-0.026251	-0.689840	1.167385
H238	H	0.473749	-0.189840	1.667385
H239	H	-0.072543	-0.689456	1.140165
H240	H	0.427457	-0.189456	1.640165
H241	H	-0.102330	-0.646069	1.185182
H242	H	0.397670	-0.146069	1.685182
O243	O	-0.084710	-0.004174	0.634893
O244	O	0.415290	0.495826	1.134893
C245	C	-0.127274	0.044432	0.615595
C246	C	0.372726	0.544432	1.115595
H247	H	-0.108051	0.078410	0.580439
H248	H	0.391949	0.578410	1.080439
H249	H	-0.160951	0.060760	0.651978
H250	H	0.339049	0.560760	1.151978
H251	H	-0.147238	0.033431	0.598766
H252	H	0.352762	0.533431	1.098766
O253	O	0.203734	-0.003789	0.412730
O254	O	0.703734	0.496211	0.912730
C255	C	0.238843	-0.003683	0.432999
C256	C	0.738843	0.496317	0.932999
H257	H	0.211697	0.013904	0.469361
H258	H	0.711697	0.513904	0.969361
H259	H	0.265660	0.023791	0.397555
H260	H	0.765660	0.523791	0.897555
H261	H	0.267561	-0.048657	0.448469
H262	H	0.767561	0.451343	0.948469
O263	O	0.093535	-0.004140	0.634392
O264	O	0.593535	0.495860	1.134392
C265	C	0.054839	0.044467	0.649598
C266	C	0.554839	0.544467	1.149598
H267	H	0.038268	0.078446	0.613449
H268	H	0.538268	0.578446	1.113449
H269	H	0.076845	0.060792	0.658728
H270	H	0.576845	0.560792	1.158728
H271	H	0.018115	0.033468	0.688910
H272	H	0.518115	0.533468	1.188910
O273	O	-0.051022	-0.438787	1.102631
O274	O	0.448978	0.061213	1.602631
C275	C	-0.030702	-0.403661	1.102633
C276	C	0.469298	0.096339	1.602633
H277	H	0.005532	-0.430805	1.120405
H278	H	0.505532	0.069195	1.620405
H279	H	-0.066170	-0.376621	1.129892
H280	H	0.433830	0.123379	1.629892
H281	H	-0.015038	-0.375156	1.057604
H282	H	0.484962	0.124844	1.557604
O283	O	0.170931	-0.727471	1.102574
O284	O	0.670931	-0.227471	1.602574
C285	C	0.150622	-0.762585	1.102539
C286	C	0.650622	-0.262585	1.602539
H287	H	0.102547	-0.747297	1.120311
H288	H	0.602547	-0.247297	1.620311
H289	H	0.167934	-0.807803	1.129781
H290	H	0.667934	-0.307803	1.629781
H291	H	0.164962	-0.761050	1.057500
H292	H	0.664962	-0.261050	1.557500
O293	O	0.203991	-0.616716	0.413114
O294	O	0.703991	-0.116716	0.913114
C295	C	0.239060	-0.672181	0.433509
C296	C	0.739060	-0.172181	0.933509
H297	H	0.223745	-0.687128	0.481584
H298	H	0.723745	-0.187128	0.981584
H299	H	0.284286	-0.672896	0.416225
H300	H	0.784286	-0.172896	0.916225
H301	H	0.237508	-0.701369	0.419212
H302	H	0.737508	-0.201369	0.919212
H303	H	0.091761	-0.719242	0.628046
H304	H	0.591761	-0.219242	1.128046
H305	H	0.638322	-0.478510	0.387573
H306	H	1.138322	0.021490	0.887573
H307	H	0.163899	-0.550848	1.102605
H308	H	0.663899	-0.050848	1.602605
H309	H	0.027485	-0.446933	0.419832
H310	H	0.527485	0.053067	0.919832
O311	O	-0.084730	-0.549445	0.634779
O312	O	0.415270	-0.049445	1.134779
C313	C	-0.119809	-0.493990	0.614373
C314	C	0.380191	0.006010	1.114373
H315	H	-0.092633	-0.467187	0.578123
H316	H	0.407367	0.032813	1.078123
H317	H	-0.146845	-0.475092	0.649792
H318	H	0.353155	0.024908	1.149792
H319	H	-0.148317	-0.494850	0.598704
H320	H	0.351683	0.005150	1.098704
H321	H	0.027247	-0.004286	0.419974
H322	H	0.527247	0.495714	0.919974
H323	H	0.093440	-0.418108	0.739036
H324	H	0.593440	0.081892	1.239036
H325	H	0.638671	-0.687334	0.659583
H326	H	1.138671	-0.187334	1.159583
O327	O	0.638439	-0.472388	0.557620
O328	O	1.138439	0.027612	1.057620
C329	C	0.638514	-0.492956	0.613084
C330	C	1.138514	0.007044	1.113084
H331	H	0.620786	-0.529208	0.639791
H332	H	1.120786	-0.029208	1.139791
H333	H	0.611256	-0.457617	0.632093
H334	H	1.111256	0.042383	1.132093
H335	H	0.683559	-0.508673	0.612217
H336	H	1.183559	-0.008673	1.112217
H337	H	0.268542	-0.505632	0.738936
H338	H	0.768542	-0.005632	1.238936
O339	O	0.239002	-0.546728	0.850676
O340	O	0.739002	-0.046728	1.350676
C341	C	0.294478	-0.555071	0.811904
C342	C	0.794478	-0.055071	1.311904
H343	H	0.294342	-0.548466	0.769794
H344	H	0.794342	-0.048466	1.269794
H345	H	0.322556	-0.599882	0.828953
H346	H	0.822556	-0.099882	1.328953
H347	H	0.311396	-0.523614	0.805611
H348	H	0.811396	-0.023614	1.305611
H349	H	0.057658	-0.453826	0.653091
H350	H	0.557658	0.046174	1.153091
O351	O	0.087303	-0.412757	0.694134
O352	O	0.587303	0.087243	1.194134
C353	C	0.031805	-0.404399	0.702541
C354	C	0.531805	0.095601	1.202541
H355	H	0.031887	-0.410992	0.666922
H356	H	0.531887	0.089008	1.166922
H357	H	0.003745	-0.359589	0.702868
H358	H	0.503745	0.140411	1.202868
H359	H	0.014904	-0.435857	0.744632
H360	H	0.514904	0.064143	1.244632
H361	H	0.232695	-0.541333	0.565509
H362	H	0.732695	-0.041333	1.065509
H363	H	0.268446	-0.505593	0.601208
H364	H	0.768446	-0.005593	1.101208
H365	H	0.274946	-0.548573	0.678050
H366	H	0.774946	-0.048573	1.178050
H367	H	0.382082	-0.410845	0.576135
H368	H	0.882082	0.089155	1.076135
O369	O	0.386693	-0.593373	0.643654
O370	O	0.886693	-0.093373	1.143654
C371	C	0.347963	-0.622650	0.672657
C372	C	0.847963	-0.122650	1.172657
H373	H	0.305852	-0.596880	0.696884
H374	H	0.805852	-0.096880	1.196884
H375	H	0.365062	-0.665261	0.703489
H376	H	0.865062	-0.165261	1.203489
H377	H	0.341656	-0.629484	0.641053
H378	H	0.841656	-0.129484	1.141053
H379	H	0.274901	-0.375125	0.611905
H380	H	0.774901	0.124875	1.111905
O381	O	0.229934	-0.372409	0.551381
O382	O	0.729934	0.127591	1.051381
C383	C	0.238274	-0.333651	0.495892
C384	C	0.738274	0.166349	0.995892
H385	H	0.202642	-0.291536	0.496019
H386	H	0.702642	0.208464	0.996019
H387	H	0.238561	-0.350718	0.467847
H388	H	0.738561	0.149282	0.967847
H389	H	0.280361	-0.327358	0.478942
H390	H	0.780361	0.172642	0.978942
H391	H	0.101438	-0.260698	0.696864
H392	H	0.601438	0.239302	1.196864
O393	O	0.191014	-0.255920	0.512682
O394	O	0.691014	0.244080	1.012682
C395	C	0.166342	-0.197435	0.503550
C396	C	0.666342	0.302565	1.003550
H397	H	0.128430	-0.189377	0.542334
H398	H	0.628430	0.310623	1.042334
H399	H	0.151980	-0.174971	0.465267
H400	H	0.651980	0.325029	0.965267
H401	H	0.198663	-0.180663	0.495665
H402	H	0.698663	0.319337	0.995665
O403	O	0.134938	-0.372456	0.741709
O404	O	0.634938	0.127544	1.241709
C405	C	0.100728	-0.333721	0.771391
C406	C	0.600728	0.166279	1.271391
H407	H	0.108246	-0.291594	0.743215
H408	H	0.608246	0.208406	1.243215
H409	H	0.111829	-0.350800	0.810812
H410	H	0.611829	0.149200	1.310812
H411	H	0.054449	-0.327446	0.784148
H412	H	0.554449	0.172554	1.284148
H413	H	-0.065723	-0.577332	0.347941
H414	H	0.434277	-0.077332	0.847941
O415	O	-0.032129	-0.532528	0.236194
O416	O	0.467871	-0.032528	0.736194
C417	C	-0.066368	-0.502829	0.274915
C418	C	0.433632	-0.002829	0.774915
H419	H	-0.087906	-0.530975	0.317009
H420	H	0.412094	-0.030975	0.817009
H421	H	-0.099750	-0.463375	0.257773
H422	H	0.400250	0.036625	0.757773
H423	H	-0.039137	-0.490120	0.281271
H424	H	0.460863	0.009880	0.781271
H425	H	0.057627	-0.716785	0.240872
H426	H	0.557627	-0.216785	0.740872
H427	H	-0.065797	-0.577331	0.398207
H428	H	0.434203	-0.077331	0.898207
O429	O	0.023996	-0.761590	0.352621
O430	O	0.523996	-0.261590	0.852621
C431	C	0.058254	-0.791290	0.313902
C432	C	0.558254	-0.291290	0.813902
H433	H	0.050793	-0.763111	0.271742
H434	H	0.550793	-0.263111	0.771742
H435	H	0.047150	-0.830692	0.330944
H436	H	0.547150	-0.330692	0.830944
H437	H	0.104519	-0.804085	0.307712
H438	H	0.604519	-0.304085	0.807712
H439	H	0.057158	-0.716762	0.521784
H440	H	0.557158	-0.216762	1.021784
O441	O	-0.032296	-0.532531	0.431734
O442	O	0.467704	-0.032531	0.931734
C443	C	-0.011993	-0.508040	0.372555
C444	C	0.488007	-0.008040	0.872555
H445	H	0.024445	-0.541727	0.353567
H446	H	0.524445	-0.041727	0.853567
H447	H	0.003379	-0.473251	0.361285
H448	H	0.503379	0.026749	0.861285
H449	H	-0.047386	-0.489338	0.354962
H450	H	0.452614	0.010662	0.854962
O451	O	0.023805	-0.761578	0.488199
O452	O	0.523805	-0.261578	0.988199
C453	C	0.057917	-0.791278	0.522511
C454	C	0.557917	-0.291278	1.022511
H455	H	0.079401	-0.763135	0.515032
H456	H	0.579401	-0.263135	1.015032
H457	H	0.091343	-0.830736	0.511480
H458	H	0.591343	-0.330736	1.011480
H459	H	0.030593	-0.803980	0.568766
H460	H	0.530593	-0.303980	1.068766
H461	H	0.100203	-0.866125	0.444882
H462	H	0.600203	-0.366125	0.944882
O463	O	0.070600	-0.754381	0.404731
O464	O	0.570600	-0.254381	0.904731
C465	C	0.125674	-0.793178	0.401642
C466	C	0.625674	-0.293178	0.901642
H467	H	0.123367	-0.835278	0.436543
H468	H	0.623367	-0.335278	0.936543
H469	H	0.149907	-0.776139	0.407057
H470	H	0.649907	-0.276139	0.907057
H471	H	0.148283	-0.799490	0.358829
H472	H	0.648283	-0.299490	0.858829
O473	O	-0.079205	-0.870556	0.515040
O474	O	0.420795	-0.370556	1.015040
C475	C	-0.064457	-0.904760	0.485111
C476	C	0.435543	-0.404760	0.985111
H477	H	-0.038849	-0.887024	0.439189
H478	H	0.461151	-0.387024	0.939189
H479	H	-0.104424	-0.905351	0.487140
H480	H	0.395576	-0.405351	0.987140
H481	H	-0.038173	-0.949564	0.504803
H482	H	0.461827	-0.449564	1.004803
O483	O	-0.117955	-0.754163	0.476237
O484	O	0.382045	-0.254163	0.976237
C485	C	-0.147260	-0.792863	0.505187
C486	C	0.352740	-0.292863	1.005187
H487	H	-0.116937	-0.835008	0.498420
H488	H	0.383063	-0.335008	0.998420
H489	H	-0.182828	-0.775766	0.488353
H490	H	0.317172	-0.275766	0.988353
H491	H	-0.165712	-0.799109	0.552194
H492	H	0.334288	-0.299109	1.052194
H493	H	-0.116238	-0.708516	0.529438
H494	H	0.383762	-0.208516	1.029438
H495	H	-0.223425	-0.672650	0.564976
H496	H	0.276575	-0.172650	1.064976
H497	H	-0.223112	-0.585171	0.389803
H498	H	0.276888	-0.085171	0.889803
H499	H	-0.115923	-0.621016	0.354266
H500	H	0.384077	-0.121016	0.854266
