data_functionalizedCrystal
_audit_creation_method	'MofGen! by Chris Wilmer'
_symmetry_space_group_name_H-M	'P1'
_symmetry_Int_Tables_number	1
_symmetry_cell_setting	triclinic
loop_
_symmetry_equiv_pos_as_xyz
  x,y,z
_cell_length_a	20.919309
_cell_length_b	17.052862
_cell_length_c	17.052862
_cell_angle_alpha	61.493325
_cell_angle_beta	90.671054
_cell_angle_gamma	67.963449
loop_
_atom_site_label
_atom_site_type_symbol
_atom_site_fract_x
_atom_site_fract_y
_atom_site_fract_z
Zr1	Zr	0.759003	0.754975	-0.160100
O2	O	0.686680	0.888750	-0.292074
O3	O	0.765250	0.603746	-0.105577
O4	O	0.800343	0.718696	-0.264523
O5	O	0.642019	0.808505	-0.023748
O6	O	0.908116	0.709933	-0.258792
O7	O	0.651587	0.773800	-0.133127
O8	O	0.845341	0.504309	0.025535
O9	O	0.704793	1.014129	-0.308075
O10	O	0.867582	0.665874	-0.095040
O11	O	0.780012	0.698313	-0.017689
O12	O	0.821329	0.833652	-0.204828
O13	O	0.733759	0.866091	-0.127477
Zr14	Zr	0.915627	0.796351	0.023488
Zr15	Zr	0.930888	0.741001	-0.150959
Zr16	Zr	0.743742	0.810326	0.014347
Zr17	Zr	0.787891	0.954941	-0.185619
Zr18	Zr	0.886738	0.596385	0.049007
O19	O	0.909380	0.947580	-0.031036
O20	O	0.931078	0.868879	-0.279076
O21	O	0.664981	0.967451	-0.044033
O22	O	0.987950	0.662576	0.155462
O23	O	1.009648	0.583875	-0.092579
O24	O	0.743552	0.682447	0.142464
O25	O	1.032611	0.742821	-0.112864
O26	O	0.874287	0.832630	0.127911
O27	O	0.766514	0.841393	0.122180
O28	O	1.023043	0.777526	-0.003485
O29	O	0.841419	1.003021	-0.300809
O30	O	0.833211	0.548305	0.164197
O31	O	0.969837	0.537197	0.171462
O32	O	0.981967	0.493201	0.032800
O33	O	0.692663	1.058125	-0.169413
O34	O	0.829289	1.047017	-0.162147
O35	O	0.853301	0.717674	0.068216
O36	O	0.940871	0.685235	-0.009135
O37	O	0.894618	0.853013	-0.118923
O38	O	0.807048	0.885452	-0.041572
C39	C	0.801180	0.525537	-0.036385
C40	C	0.788916	0.440646	-0.025551
C41	C	0.937188	0.133627	-0.156531
C42	C	0.948709	0.213389	-0.166716
C43	C	0.908762	0.270207	-0.131425
C44	C	0.857291	0.247256	-0.085949
C45	C	0.845765	0.167491	-0.075769
C46	C	0.817339	0.304070	-0.050663
C47	C	0.765868	0.281119	-0.005187
C48	C	0.754344	0.201361	0.004992
C49	C	0.794291	0.144544	-0.030299
C50	C	0.828865	0.383835	-0.060843
C51	C	0.737442	0.417699	0.019919
C52	C	0.725921	0.337937	0.030104
C53	C	0.622313	0.793143	-0.079740
C54	C	0.549343	0.799076	-0.083621
C55	C	0.539204	0.714286	-0.028140
C56	C	0.470640	0.719867	-0.031789
C57	C	0.412216	0.810236	-0.090924
C58	C	0.422358	0.895033	-0.146407
C59	C	0.490921	0.889453	-0.142752
C60	C	0.203991	0.831467	-0.104820
C61	C	0.135426	0.837040	-0.108472
C62	C	0.183713	0.661873	0.006147
C63	C	0.252275	0.656300	0.009792
C64	C	0.262411	0.741098	-0.045687
C65	C	0.342131	0.815942	-0.094657
C66	C	0.332494	0.735393	-0.041948
C67	C	1.052317	0.758183	-0.056872
C68	C	1.125287	0.752250	-0.052992
C69	C	0.856403	0.706428	-0.286512
C70	C	0.862882	0.682931	-0.360570
C71	C	0.873450	1.025789	-0.100227
C72	C	0.885714	1.110680	-0.111061
C73	C	0.784558	0.967017	-0.798564
C74	C	0.778467	0.989098	-0.728986
C75	C	0.799570	0.912558	-0.636879
C76	C	0.826766	0.813934	-0.614356
C77	C	0.832852	0.791851	-0.683941
C78	C	0.847864	0.737392	-0.522256
C79	C	0.875059	0.638768	-0.499733
C80	C	0.881145	0.616690	-0.569313
C81	C	0.860042	0.693229	-0.661420
C82	C	0.841778	0.759475	-0.452671
C83	C	0.890072	0.584309	-0.338048
C84	C	0.896163	0.562228	-0.407626
C85	C	0.818226	0.844898	0.149900
C86	C	0.811748	0.868395	0.223958
C87	C	1.016181	0.508056	-0.024951
C88	C	1.076887	0.417233	-0.010237
C89	C	0.782091	0.594771	0.181821
C90	C	0.763349	0.533378	0.266712
C91	C	0.997093	0.577291	0.193255
C92	C	1.051320	0.509965	0.282027
C93	C	0.677537	0.974035	-0.329867
C94	C	0.623310	1.041361	-0.418639
C95	C	0.658448	1.043270	-0.111661
C96	C	0.597743	1.134093	-0.126375
C97	C	0.892539	0.956555	-0.318433
C98	C	0.911281	1.017948	-0.403324
C99	C	1.067140	0.364473	-0.048176
C100	C	1.124176	0.279141	-0.034368
C101	C	1.190957	0.246567	0.017384
C102	C	1.200704	0.299336	0.055323
C103	C	1.143670	0.384670	0.041510
C104	C	0.792802	0.514656	0.351427
C105	C	0.775190	0.456984	0.431196
C106	C	0.728127	0.418030	0.426250
C107	C	0.698670	0.436758	0.341525
C108	C	0.716279	0.494435	0.261757
C109	C	1.122504	0.461415	0.283339
C110	C	1.173465	0.398164	0.366741
C111	C	1.153240	0.383459	0.448831
C112	C	1.082049	0.432017	0.447516
C113	C	1.031091	0.495272	0.364114
C114	C	0.552127	1.089921	-0.419952
C115	C	0.501170	1.153197	-0.503358
C116	C	0.521396	1.167906	-0.585449
C117	C	0.592585	1.119342	-0.584133
C118	C	0.643542	1.056073	-0.500729
C119	C	0.607492	1.186859	-0.088445
C120	C	0.550461	1.272207	-0.102274
C121	C	0.483680	1.304783	-0.154029
C122	C	0.473932	1.252012	-0.191965
C123	C	0.530964	1.166670	-0.178141
C124	C	0.958346	1.056884	-0.398348
C125	C	0.975970	1.114560	-0.478103
C126	C	0.946525	1.133303	-0.562835
C127	C	0.899458	1.094360	-0.567809
C128	C	0.881838	1.036679	-0.488054
H129	H	0.918146	0.335152	-0.139721
Cl130	Cl	0.348909	1.008643	-0.220742
Cl131	Cl	0.661219	0.309071	0.087277
Cl132	Cl	0.411680	1.214232	-0.504990
H133	H	0.704912	0.463963	0.048652
H134	H	0.586771	0.640699	0.020018
H135	H	0.713795	0.371068	0.491209
H136	H	0.870773	0.402515	-0.097871
H137	H	0.819634	0.839776	-0.471018
H138	H	1.138985	0.473376	0.216506
Cl139	Cl	0.691440	1.145930	-0.023382
H140	H	0.660350	0.405033	0.337511
H141	H	0.523015	1.123710	-0.209027
Cl142	Cl	0.457326	1.247446	-0.690293
H143	H	0.462390	0.650822	0.013391
H144	H	0.558410	1.315161	-0.071376
Cl145	Cl	0.411989	1.412072	-0.171398
H146	H	0.175452	0.592836	0.051316
H147	H	0.973130	0.534795	0.363059
Cl148	Cl	0.995374	1.033333	-0.291838
Cl149	Cl	0.679249	0.517956	0.155263
H150	H	1.151615	0.427619	0.072412
Cl151	Cl	0.503665	0.996052	-0.212499
H152	H	0.907253	0.521984	-0.263051
Cl153	Cl	1.262955	0.337126	0.368374
Cl154	Cl	1.035136	1.163513	-0.471830
H155	H	1.237392	0.177081	0.028626
H156	H	1.012770	0.390989	-0.090328
H157	H	0.419552	1.278548	-0.234105
H158	H	0.831123	0.546368	0.355472
Cl159	Cl	1.111906	0.212818	-0.082066
H160	H	1.194741	0.331950	0.516737
Cl161	Cl	0.325719	0.542688	0.084136
Cl162	Cl	0.061977	0.950653	-0.182828
Cl163	Cl	0.618000	1.137840	-0.687341
H164	H	0.799183	0.441743	0.500174
H165	H	0.918305	0.481928	-0.389300
Cl166	Cl	0.968680	1.205822	-0.663092
H167	H	0.701501	1.016533	-0.499670
Cl168	Cl	1.056635	0.413519	0.550724
H169	H	0.535645	1.077949	-0.353118
H170	H	0.875487	1.109630	-0.636808
Cl171	Cl	0.822661	0.987747	-0.494327
H172	H	0.380065	0.661815	0.006203
H173	H	0.990616	0.232074	-0.203744
H174	H	0.969705	0.087367	-0.185267
H175	H	0.784916	0.079589	-0.022004
Cl176	Cl	0.268680	0.929546	-0.168996
Cl177	Cl	0.216725	0.938070	-0.174569
Cl178	Cl	0.791916	0.940318	-0.549409
Cl179	Cl	0.689629	0.172520	0.062150
H180	H	0.767374	1.029325	-0.873558
Cl181	Cl	0.744256	1.113079	-0.757304
Cl182	Cl	0.867698	0.665475	-0.748897
H183	H	0.903282	0.536384	-0.550968
H184	H	1.255085	0.272801	0.097460
