data_functionalizedCrystal
_audit_creation_method	'MofGen! by Chris Wilmer'
_symmetry_space_group_name_H-M	'P1'
_symmetry_Int_Tables_number	1
_symmetry_cell_setting	triclinic
loop_
_symmetry_equiv_pos_as_xyz
  x,y,z
_cell_length_a	13.897449
_cell_length_b	13.897447
_cell_length_c	12.759393
_cell_angle_alpha	90.032074
_cell_angle_beta	90.020530
_cell_angle_gamma	90.020810
loop_
_atom_site_label
_atom_site_type_symbol
_atom_site_fract_x
_atom_site_fract_y
_atom_site_fract_z
Zn1	Zn	1.474688	-0.383925	0.594035
Zn2	Zn	1.474578	-0.545254	0.418353
Zn3	Zn	1.313378	-0.383979	0.418368
Zn4	Zn	1.313354	-0.545183	0.593988
O5	O	1.394000	-0.464585	0.506186
O6	O	1.609655	-0.405333	0.570743
O7	O	1.453158	-0.523913	0.271334
O8	O	1.334833	-0.248990	0.441696
O9	O	1.609574	-0.523861	0.441671
O10	O	1.453347	-0.248951	0.570758
O11	O	1.334725	-0.405425	0.271345
O12	O	1.178393	-0.405356	0.441651
O13	O	1.334792	-0.523740	0.741016
O14	O	1.178376	-0.523792	0.570679
O15	O	1.453323	-0.405264	0.741050
O16	O	1.453135	-0.680227	0.441626
O17	O	1.334684	-0.680174	0.570665
C18	C	1.143385	-0.464573	0.506162
C19	C	1.036171	-0.464590	0.506177
C20	C	0.839876	-0.464594	0.506204
C21	C	0.949109	-0.464589	0.506186
C22	C	1.393921	-0.715200	0.506162
C23	C	1.393976	-0.822414	0.506186
C24	C	1.394022	-0.909483	0.506210
C25	C	1.394090	-1.018716	0.506237
C26	C	1.645592	-0.464599	0.506211
C27	C	1.752806	-0.464605	0.506221
C28	C	1.394067	-0.464488	0.780220
C29	C	1.394096	-0.464447	0.896996
C30	C	1.394105	-0.212992	0.506233
C31	C	1.394149	-0.105778	0.506254
C32	C	1.393988	-0.464613	0.233219
C33	C	1.394146	-0.464382	0.116443
C34	C	1.455824	-0.402750	0.951878
C35	C	1.455847	-0.402716	1.061602
C36	C	1.332411	-0.526081	1.061553
C37	C	1.332384	-0.526111	0.951831
C38	C	1.517536	-0.341086	0.897043
C39	C	1.579269	-0.279386	0.951924
C40	C	1.579292	-0.279351	1.061648
C41	C	1.517581	-0.341017	1.116491
H42	H	1.517526	-0.341110	0.807700
H43	H	1.629506	-0.229174	0.907264
F44	F	1.644994	-0.213686	1.120054
F45	F	1.266685	-0.591774	0.893419
F46	F	1.517597	-0.340964	1.233270
H47	H	1.282169	-0.576286	1.106215
