data_functionalizedCrystal
_audit_creation_method	'MofGen! by Chris Wilmer'
_symmetry_space_group_name_H-M	'P1'
_symmetry_Int_Tables_number	1
_symmetry_cell_setting	triclinic
loop_
_symmetry_equiv_pos_as_xyz
  x,y,z
_cell_length_a	19.121063
_cell_length_b	19.077241
_cell_length_c	19.076919
_cell_angle_alpha	90.113904
_cell_angle_beta	94.606347
_cell_angle_gamma	85.144908
loop_
_atom_site_label
_atom_site_type_symbol
_atom_site_fract_x
_atom_site_fract_y
_atom_site_fract_z
Zn1	Zn	-0.255845	-1.046918	-0.451026
Zn2	Zn	0.244155	-0.546918	0.048974
Zn3	Zn	-0.368787	-1.046538	-0.338137
Zn4	Zn	0.131213	-0.546538	0.161863
Zn5	Zn	-0.255474	-0.934150	-0.328788
Zn6	Zn	0.244526	-0.434150	0.171212
Zn7	Zn	-0.378188	-0.923939	-0.451257
Zn8	Zn	0.121812	-0.423939	0.048743
O9	O	-0.314574	-0.987886	-0.392302
O10	O	0.185426	-0.487886	0.107698
O11	O	-0.267049	-1.145369	-0.439867
O12	O	0.232951	-0.645369	0.060133
O13	O	-0.349667	-1.035743	-0.238399
O14	O	0.150333	-0.535743	0.261601
O15	O	-0.156900	-0.953541	-0.340994
O16	O	0.343100	-0.453541	0.159006
O17	O	-0.350027	-1.145090	-0.356928
O18	O	0.149973	-0.645090	0.143072
O19	O	-0.157173	-1.036392	-0.430801
O20	O	0.342827	-0.536392	0.069199
O21	O	-0.266416	-0.953173	-0.231530
O22	O	0.233584	-0.453173	0.268470
O23	O	-0.275531	-0.834294	-0.341218
O24	O	0.224469	-0.334294	0.158782
O25	O	-0.366048	-0.936138	-0.549724
O26	O	0.133952	-0.436138	-0.049724
O27	O	-0.365688	-0.826792	-0.431195
O28	O	0.134312	-0.326792	0.068805
O29	O	-0.276164	-1.026490	-0.549554
O30	O	0.223836	-0.526490	-0.049554
O31	O	-0.468657	-1.025842	-0.357152
O32	O	0.031343	-0.525842	0.142848
O33	O	-0.475563	-0.935770	-0.440260
O34	O	0.024437	-0.435770	0.059740
C35	C	-0.321590	-0.805003	-0.385218
C36	C	0.178410	-0.305003	0.114782
C37	C	-0.324609	-0.726763	-0.382204
C38	C	0.175391	-0.226763	0.117796
C39	C	-0.282899	-0.690146	-0.424042
C40	C	0.217101	-0.190146	0.075958
C41	C	-0.285733	-0.616631	-0.421205
C42	C	0.214267	-0.116631	0.078795
C43	C	-0.330279	-0.579735	-0.376533
C44	C	0.169721	-0.079735	0.123467
C45	C	-0.371990	-0.616358	-0.334690
C46	C	0.128010	-0.116358	0.165310
C47	C	-0.369153	-0.689871	-0.337524
C48	C	0.130847	-0.189871	0.162476
C49	C	-0.343387	-0.359859	-0.363414
C50	C	0.156613	0.140141	0.136586
C51	C	-0.346222	-0.286341	-0.360585
C52	C	0.153778	0.213659	0.139415
C53	C	-0.259963	-0.286620	-0.447099
C54	C	0.240037	0.213380	0.052901
C55	C	-0.257133	-0.360134	-0.449932
C56	C	0.242867	0.139866	0.050068
C57	C	-0.298841	-0.396750	-0.408087
C58	C	0.201159	0.103250	0.091913
N59	N	-0.333178	-0.504592	-0.373633
N60	N	0.166822	-0.004592	0.126367
N61	N	-0.295938	-0.471893	-0.410983
N62	N	0.204062	0.028107	0.089017
C63	C	-0.497682	-0.979675	-0.399762
C64	C	0.002318	-0.479675	0.100238
C65	C	-0.576015	-0.976226	-0.402979
C66	C	-0.076015	-0.476226	0.097021
C67	C	-0.609197	-1.021534	-0.361259
C68	C	-0.109197	-0.521534	0.138741
C69	C	-0.682800	-1.018294	-0.364289
C70	C	-0.182800	-0.518294	0.135711
C71	C	-0.723218	-0.969741	-0.409036
C72	C	-0.223218	-0.469741	0.090964
C73	C	-0.690031	-0.924431	-0.450761
C74	C	-0.190031	-0.424431	0.049239
C75	C	-0.616430	-0.927675	-0.447734
C76	C	-0.116430	-0.427675	0.052266
C77	C	-0.945627	-0.957602	-0.420342
C78	C	-0.445627	-0.457602	0.079658
C79	C	-1.019233	-0.954360	-0.423365
C80	C	-0.519233	-0.454360	0.076635
C81	C	-1.011996	-1.048225	-0.336893
C82	C	-0.511996	-0.548225	0.163107
C83	C	-0.938394	-1.051462	-0.333867
C84	C	-0.438394	-0.551462	0.166133
C85	C	-0.905214	-1.006153	-0.375595
C86	C	-0.405214	-0.506153	0.124405
C87	C	-0.798452	-0.966427	-0.412133
C88	C	-0.298452	-0.466427	0.087867
C89	C	-0.829981	-1.009472	-0.372501
C90	C	-0.329981	-0.509472	0.127499
C91	C	-0.130750	-0.996148	-0.384829
C92	C	0.369250	-0.496148	0.115171
C93	C	-0.052416	-0.999669	-0.381645
C94	C	0.447584	-0.499669	0.118355
C95	C	-0.322196	-0.980218	-0.575893
C96	C	0.177804	-0.480218	-0.075893
C97	C	-0.325444	-0.976950	-0.654128
C98	C	0.174556	-0.476950	-0.154128
C99	C	-0.307526	-0.171484	-0.399409
C100	C	0.192474	0.328516	0.100591
C101	C	-0.304513	-0.249724	-0.402422
C102	C	0.195487	0.250276	0.097578
C103	C	-0.280174	-1.022454	-0.690796
C104	C	0.219826	-0.522454	-0.190796
C105	C	-0.283224	-1.019375	-0.764306
C106	C	0.216776	-0.519375	-0.264306
C107	C	-0.331547	-0.970795	-0.801147
C108	C	0.168453	-0.470795	-0.301147
C109	C	-0.376819	-0.925286	-0.764474
C110	C	0.123181	-0.425286	-0.264474
C111	C	-0.373766	-0.928362	-0.690965
C112	C	0.126234	-0.428362	-0.190965
C113	C	-0.345695	-0.956548	-1.021005
C114	C	0.154305	-0.456548	-0.521005
C115	C	-0.348746	-0.953477	-1.094519
C116	C	0.151254	-0.453477	-0.594519
C117	C	-0.255150	-1.047565	-1.094346
C118	C	0.244850	-0.547565	-0.594346
C119	C	-0.252103	-1.050639	-1.020836
C120	C	0.247897	-0.550639	-0.520836
C121	C	-0.297373	-1.005128	-0.984169
C122	C	0.202627	-0.505128	-0.484169
N123	N	-0.334667	-0.967648	-0.876286
N124	N	0.165333	-0.467648	-0.376286
N125	N	-0.294249	-1.008272	-0.909031
N126	N	0.205751	-0.508272	-0.409031
C127	C	-0.306928	-0.995567	-0.209425
C128	C	0.193072	-0.495567	0.290575
C129	C	-0.303477	-0.998980	-0.131187
C130	C	0.196523	-0.498980	0.368813
H131	H	-0.246627	-0.720181	-0.460421
H132	H	0.253373	-0.220181	0.039579
C133	C	-0.785518	-1.062877	-0.323279
C134	C	-0.285518	-0.562877	0.176721
N135	N	-0.752022	-1.103100	-0.286202
N136	N	-0.252022	-0.603100	0.213798
C137	C	-0.415038	-0.730149	-0.291501
C138	C	0.084962	-0.230149	0.208499
N139	N	-0.449599	-0.760486	-0.256833
N140	N	0.050401	-0.260486	0.243167
H141	H	-0.408258	-0.586311	-0.298313
H142	H	0.091742	-0.086311	0.201687
C143	C	-0.564743	-1.074945	-0.312032
C144	C	-0.064743	-0.574945	0.187968
N145	N	-0.531261	-1.115178	-0.274954
N146	N	-0.031261	-0.615178	0.225046
C147	C	-0.239851	-0.576356	-0.467232
C148	C	0.260149	-0.076356	0.032768
N149	N	-0.205291	-0.546020	-0.501902
N150	N	0.294709	-0.046020	-0.001902
H151	H	-0.388099	-0.913915	-1.124513
H152	H	0.111901	-0.413915	-0.624513
C153	C	-0.893938	-1.104856	-0.284623
C154	C	-0.393938	-0.604856	0.215377
N155	N	-0.860454	-1.145066	-0.247523
N156	N	-0.360454	-0.645066	0.252477
C157	C	-0.389270	-0.400128	-0.317386
C158	C	0.110730	0.099872	0.182614
N159	N	-0.423833	-0.430460	-0.282716
N160	N	0.076167	0.069540	0.217284
C161	C	-0.842920	-0.913012	-0.461346
C162	C	-0.342920	-0.413012	0.038654
N163	N	-0.876416	-0.872779	-0.498411
N164	N	-0.376416	-0.372779	0.001589
H165	H	-0.722946	-0.884901	-0.487198
H166	H	-0.222946	-0.384901	0.012802
C167	C	-1.048501	-1.098063	-0.290999
C168	C	-0.548501	-0.598063	0.209001
N169	N	-1.075997	-1.135604	-0.256430
N170	N	-0.575997	-0.635604	0.243570
H171	H	-0.709813	-1.055189	-0.330316
H172	H	-0.209813	-0.555189	0.169684
H173	H	-0.382501	-0.256302	-0.324207
H174	H	0.117499	0.243698	0.175793
H175	H	-0.220861	-0.390170	-0.486312
H176	H	0.279139	0.109830	0.013688
C177	C	-0.233424	-1.069434	-0.804638
C178	C	0.266576	-0.569434	-0.304638
N179	N	-0.195913	-1.107141	-0.835015
N180	N	0.304087	-0.607141	-0.335015
H181	H	-0.212755	-1.090200	-0.990845
H182	H	0.287245	-0.590200	-0.490845
H183	H	-0.382566	-0.919499	-0.991160
H184	H	0.117434	-0.419499	-0.491160
C185	C	-0.214075	-0.246337	-0.493113
C186	C	0.285925	0.253663	0.006887
N187	N	-0.179505	-0.215996	-0.527767
N188	N	0.320495	0.284004	-0.027767
C189	C	-1.063693	-0.900950	-0.472597
C190	C	-0.563693	-0.400950	0.027403
N191	N	-1.097180	-0.860724	-0.509677
N192	N	-0.597180	-0.360724	-0.009677
C193	C	-0.579931	-0.877832	-0.493630
C194	C	-0.079931	-0.377832	0.006370
N195	N	-0.552440	-0.840290	-0.528202
N196	N	-0.052440	-0.340290	-0.028202
H197	H	-0.918618	-0.920709	-0.454317
H198	H	-0.418618	-0.420709	0.045683
H199	H	-0.240826	-1.062015	-0.660805
H200	H	0.259174	-0.562015	-0.160805
H201	H	-0.416163	-0.885729	-0.794476
H202	H	0.083837	-0.385729	-0.294476
C203	C	-0.423567	-0.878306	-0.650631
C204	C	0.076433	-0.378306	-0.150631
N205	N	-0.461078	-0.840600	-0.620252
N206	N	0.038922	-0.340600	-0.120252
C207	C	-0.205349	-1.097615	-1.134685
C208	C	0.294651	-0.597615	-0.634685
N209	N	-0.167833	-1.135312	-1.165068
N210	N	0.332167	-0.635312	-0.665068
