data_functionalizedCrystal
_audit_creation_method	'MofGen! by Chris Wilmer'
_symmetry_space_group_name_H-M	'P1'
_symmetry_Int_Tables_number	1
_symmetry_cell_setting	triclinic
loop_
_symmetry_equiv_pos_as_xyz
  x,y,z
_cell_length_a	14.853566
_cell_length_b	19.188924
_cell_length_c	13.330367
_cell_angle_alpha	89.993282
_cell_angle_beta	89.995295
_cell_angle_gamma	83.388189
loop_
_atom_site_label
_atom_site_type_symbol
_atom_site_fract_x
_atom_site_fract_y
_atom_site_fract_z
O1	O	1.195860	0.091151	-0.083362
O2	O	1.695860	0.591151	0.416638
O3	O	0.933339	0.102011	-0.083379
O4	O	1.433339	0.602011	0.416621
O5	O	1.072179	-0.005050	-0.083358
O6	O	1.572179	0.494950	0.416642
O7	O	1.057021	0.198212	-0.083383
O8	O	1.557021	0.698212	0.416617
O9	O	1.072159	-0.005052	0.083489
O10	O	1.572159	0.494948	0.583489
O11	O	0.933319	0.102009	0.083468
O12	O	1.433319	0.602009	0.583468
O13	O	1.195840	0.091149	0.083485
O14	O	1.695840	0.591149	0.583485
Cu15	Cu	1.064578	0.096578	0.098711
Cu16	Cu	1.564578	0.596578	0.598711
Cu17	Cu	1.064601	0.096581	-0.098605
Cu18	Cu	1.564601	0.596581	0.401395
O19	O	1.057001	0.198209	0.083464
O20	O	1.557001	0.698209	0.583464
C21	C	0.899743	0.101518	0.000042
C22	C	1.399743	0.601518	0.500042
C23	C	0.799668	0.100044	0.000036
C24	C	1.299668	0.600044	0.500036
C25	C	0.376529	0.093810	-0.090894
C26	C	0.876529	0.593810	0.409106
C27	C	0.376528	0.093808	0.091010
C28	C	0.876528	0.593808	0.591010
C29	C	0.470555	0.095192	0.091006
C30	C	0.970555	0.595192	0.591006
C31	C	0.517572	0.095887	0.000052
C32	C	1.017572	0.595887	0.500052
C33	C	0.470564	0.095197	-0.090900
C34	C	0.970564	0.595197	0.409100
C35	C	0.517569	0.095889	0.181956
C36	C	1.017569	0.595889	0.681956
C37	C	0.611601	0.097275	0.181956
C38	C	1.111601	0.597275	0.681956
C39	C	0.658621	0.097964	0.091001
C40	C	1.158621	0.597964	0.591001
C41	C	0.611607	0.097273	0.000046
C42	C	1.111607	0.597273	0.500046
C43	C	0.658624	0.097967	-0.090909
C44	C	1.158624	0.597967	0.409091
C45	C	0.611613	0.097272	-0.181865
C46	C	1.111613	0.597272	0.318135
C47	C	0.517584	0.095886	-0.181855
C48	C	1.017584	0.595886	0.318145
C49	C	0.752650	0.099349	0.090991
C50	C	1.252650	0.599349	0.590991
C51	C	0.752659	0.099354	-0.090915
C52	C	1.252659	0.599354	0.409085
C53	C	1.071679	-0.031064	0.000066
C54	C	1.571679	0.468936	0.500066
C55	C	1.070208	-0.108573	0.000069
C56	C	1.570208	0.391427	0.500069
C57	C	1.069533	-0.144973	-0.090880
C58	C	1.569533	0.355027	0.409120
C59	C	1.068139	-0.217800	-0.090888
C60	C	1.568139	0.282200	0.409112
C61	C	1.067438	-0.254227	0.000059
C62	C	1.567438	0.245773	0.500059
C63	C	1.068108	-0.217818	0.091019
C64	C	1.568108	0.282182	0.591019
C65	C	1.069493	-0.144991	0.091024
C66	C	1.569493	0.355009	0.591024
N67	N	1.116558	-0.373728	0.067751
N68	N	1.616558	0.126272	0.567751
N69	N	1.115244	-0.442910	0.067740
N70	N	1.615244	0.057090	0.567740
C71	C	1.063262	-0.473650	0.000049
C72	C	1.563262	0.026350	0.500049
N73	N	1.012655	-0.432595	-0.067646
N74	N	1.512655	0.067405	0.432354
N75	N	1.013973	-0.363406	-0.067638
N76	N	1.513973	0.136594	0.432362
C77	C	1.065935	-0.333195	0.000063
C78	C	1.565935	0.166805	0.500063
C79	C	1.061073	-0.589018	-0.090915
C80	C	1.561073	-0.089018	0.409085
C81	C	1.059673	-0.661846	-0.090919
C82	C	1.559673	-0.161846	0.409081
C83	C	1.059652	-0.661863	0.090991
C84	C	1.559652	-0.161863	0.590991
C85	C	1.061043	-0.589035	0.090992
C86	C	1.561043	-0.089035	0.590992
C87	C	1.061758	-0.552617	0.000037
C88	C	1.561758	-0.052617	0.500037
C89	C	1.229436	0.091642	0.000061
C90	C	1.729436	0.591642	0.500061
C91	C	1.329511	0.093116	0.000061
C92	C	1.829511	0.593116	0.500061
C93	C	1.057500	0.224223	0.000038
C94	C	1.557500	0.724223	0.500038
C95	C	1.058971	0.301733	0.000028
C96	C	1.558971	0.801733	0.500028
N97	N	1.064568	0.096576	0.237493
N98	N	1.564568	0.596576	0.737493
N99	N	1.064619	0.096578	-0.237386
N100	N	1.564619	0.596578	0.262614
C101	C	1.003121	0.143969	0.710106
C102	C	1.503121	0.643969	1.210106
C103	C	1.126106	0.049188	0.710093
C104	C	1.626106	0.549188	1.210093
C105	C	1.126096	0.049186	0.605074
C106	C	1.626096	0.549186	1.105074
C107	C	1.064598	0.096577	0.552567
C108	C	1.564598	0.596577	1.052567
C109	C	1.003111	0.143970	0.605078
C110	C	1.503111	0.643970	1.105078
C111	C	1.187589	0.001798	0.552555
C112	C	1.687589	0.501798	1.052555
C113	C	1.187582	0.001795	0.447531
C114	C	1.687582	0.501795	0.947531
C115	C	1.126079	0.049183	0.395021
C116	C	1.626079	0.549183	0.895021
C117	C	1.064588	0.096577	0.447539
C118	C	1.564588	0.596577	0.947539
C119	C	1.003090	0.143968	0.395032
C120	C	1.503090	0.643968	0.895032
C121	C	0.941594	0.191360	0.447547
C122	C	1.441594	0.691360	0.947547
C123	C	0.941608	0.191358	0.552569
C124	C	1.441608	0.691358	1.052569
C125	C	1.126065	0.049185	0.290000
C126	C	1.626065	0.549185	0.790000
C127	C	1.003080	0.143969	0.290004
C128	C	1.503080	0.643969	0.790004
H129	H	0.479280	0.095329	0.256006
H130	H	0.979280	0.595329	0.756006
N131	N	1.058947	-0.699052	0.183901
N132	N	1.558947	-0.199052	0.683901
N133	N	1.059560	-0.666540	0.265101
N134	N	1.559560	-0.166540	0.765101
H135	H	1.059060	-0.692807	0.330723
H136	H	1.559060	-0.192807	0.830723
N137	N	0.328516	0.093107	0.183920
N138	N	0.828516	0.593107	0.683920
N139	N	0.330513	0.142436	0.244814
N140	N	0.830513	0.642436	0.744814
H141	H	0.296602	0.141941	0.310437
H142	H	0.796602	0.641941	0.810437
N143	N	1.061773	-0.551811	-0.183820
N144	N	1.561773	-0.051811	0.316180
N145	N	0.999013	-0.504795	-0.204113
N146	N	1.499013	-0.004795	0.295887
H147	H	0.999504	-0.478520	-0.269728
H148	H	1.499504	0.021480	0.230272
H149	H	0.338248	0.093241	-0.164948
H150	H	0.838248	0.593241	0.335052
H151	H	0.790922	0.099923	0.165046
H152	H	1.290922	0.599923	0.665046
N153	N	0.940260	0.192389	0.236389
N154	N	1.440260	0.692389	0.736389
N155	N	0.941233	0.256926	0.248117
N156	N	1.441233	0.756926	0.748117
H157	H	0.896866	0.291124	0.210253
H158	H	1.396866	0.791124	0.710253
H159	H	1.061600	-0.559399	0.165053
H160	H	1.561600	-0.059399	0.665053
N161	N	0.800671	0.100055	-0.183835
N162	N	1.300671	0.600055	0.316165
N163	N	0.758684	0.099430	-0.265030
N164	N	1.258684	0.599430	0.234970
H165	H	0.792591	0.099924	-0.330656
H166	H	1.292591	0.599924	0.169344
N167	N	0.878791	0.239769	0.393892
N168	N	1.378791	0.739769	0.893892
N169	N	0.878805	0.239763	0.300123
N170	N	1.378805	0.739763	0.800123
H171	H	0.834453	0.273951	0.262224
H172	H	1.334453	0.773951	0.762224
H173	H	0.891541	0.229943	0.595334
H174	H	1.391541	0.729943	1.095334
N175	N	0.940307	0.192367	0.763758
N176	N	1.440307	0.692367	1.263758
N177	N	0.940316	0.192360	0.857527
N178	N	1.440316	0.692360	1.357527
H179	H	0.895953	0.226541	0.895421
H180	H	1.395953	0.726541	1.395421
N181	N	1.070180	-0.107794	0.183922
N182	N	1.570180	0.392206	0.683922
N183	N	1.007418	-0.060779	0.204207
N184	N	1.507418	0.439221	0.704207
H185	H	1.007903	-0.034506	0.269816
H186	H	1.507903	0.465494	0.769816
H187	H	0.649870	0.097840	0.256018
H188	H	1.149870	0.597840	0.756018
N189	N	1.067410	-0.255024	0.183919
N190	N	1.567410	0.244976	0.683919
N191	N	1.131091	-0.253272	0.244824
N192	N	1.631091	0.246728	0.744824
H193	H	1.130596	-0.279548	0.310438
H194	H	1.630596	0.220452	0.810438
N195	N	1.070261	-0.107785	-0.183794
N196	N	1.570261	0.392215	0.316206
N197	N	1.069655	-0.140300	-0.264994
N198	N	1.569655	0.359700	0.235006
H199	H	1.070168	-0.114035	-0.330617
H200	H	1.570168	0.385965	0.169383
H201	H	1.176180	0.010607	0.752847
H202	H	1.676180	0.510607	1.252847
N203	N	0.469561	0.095194	-0.274758
N204	N	0.969561	0.595194	0.225242
N205	N	0.471559	0.144528	-0.335660
N206	N	0.971559	0.644528	0.164340
H207	H	0.437640	0.144041	-0.401273
H208	H	0.937640	0.644041	0.098727
N209	N	1.067446	-0.254981	-0.183802
N210	N	1.567446	0.245019	0.316198
N211	N	1.068080	-0.222457	-0.265002
N212	N	1.568080	0.277543	0.234998
H213	H	1.067591	-0.248713	-0.330625
H214	H	1.567591	0.251287	0.169375
N215	N	1.058972	-0.699018	-0.183835
N216	N	1.558972	-0.199018	0.316165
N217	N	1.059607	-0.666490	-0.265032
N218	N	1.559607	-0.166490	0.234968
H219	H	1.059111	-0.692742	-0.330657
H220	H	1.559111	-0.192742	0.169343
N221	N	1.250433	-0.046574	0.606204
N222	N	1.750433	0.453426	1.106204
N223	N	1.250448	-0.046552	0.699973
N224	N	1.750448	0.453448	1.199973
H225	H	1.294844	-0.080708	0.737868
H226	H	1.794844	0.419292	1.237868
H227	H	1.237654	-0.036794	0.404779
H228	H	1.737654	0.463206	0.904779
N229	N	1.188785	0.000738	0.236317
N230	N	1.688785	0.500738	0.736317
N231	N	1.187715	-0.063790	0.248065
N232	N	1.687715	0.436210	0.748065
H233	H	1.231980	-0.098023	0.210132
H234	H	1.731980	0.401977	0.710132
N235	N	0.659660	0.097974	-0.274762
N236	N	1.159660	0.597974	0.225238
N237	N	0.720644	0.049574	-0.295038
N238	N	1.220644	0.549574	0.204962
H239	H	0.754582	0.050070	-0.360644
H240	H	1.254582	0.550070	0.139356
