data_functionalizedCrystal
_audit_creation_method	'MofGen! by Chris Wilmer'
_symmetry_space_group_name_H-M	'P1'
_symmetry_Int_Tables_number	1
_symmetry_cell_setting	triclinic
loop_
_symmetry_equiv_pos_as_xyz
  x,y,z
_cell_length_a	16.053802
_cell_length_b	23.532350
_cell_length_c	23.532407
_cell_angle_alpha	82.837000
_cell_angle_beta	87.461127
_cell_angle_gamma	92.558867
loop_
_atom_site_label
_atom_site_type_symbol
_atom_site_fract_x
_atom_site_fract_y
_atom_site_fract_z
O1	O	-0.069338	-0.757694	-0.066570
O2	O	0.430662	-0.257694	0.433430
O3	O	-0.069366	-0.591827	-0.076607
O4	O	0.430634	-0.091827	0.423393
O5	O	-0.069324	-0.679761	0.011343
O6	O	0.430676	-0.179761	0.511343
O7	O	-0.069381	-0.669760	-0.154520
O8	O	0.430619	-0.169760	0.345480
O9	O	0.069533	-0.674921	0.006522
O10	O	0.569533	-0.174921	0.506522
O11	O	0.069490	-0.586987	-0.081428
O12	O	0.569490	-0.086987	0.418572
O13	O	0.069518	-0.752854	-0.071391
O14	O	0.569518	-0.252854	0.428609
Zn15	Zn	0.091551	-0.669152	-0.077175
Zn16	Zn	0.591551	-0.169152	0.422825
Zn17	Zn	-0.091399	-0.675529	-0.070823
Zn18	Zn	0.408601	-0.175529	0.429177
O19	O	0.069476	-0.664920	-0.159341
O20	O	0.569476	-0.164920	0.340659
C21	C	0.000059	-0.568190	-0.078767
C22	C	0.500059	-0.068190	0.421233
C23	C	0.000049	-0.504972	-0.078014
C24	C	0.500049	-0.004972	0.421986
N25	N	0.216409	-0.664804	-0.081510
N26	N	0.716409	-0.164804	0.418490
C27	C	0.075779	-0.110317	-0.075913
C28	C	0.575779	0.389683	0.424087
C29	C	0.075783	-0.050918	-0.075197
C30	C	0.575783	0.449082	0.424803
O31	O	0.140155	-0.017955	-0.077042
O32	O	0.640155	0.482045	0.422958
N33	N	0.000093	-0.023847	-0.072213
N34	N	0.500093	0.476153	0.427787
C35	C	-0.075606	-0.056181	-0.069940
C36	C	0.424394	0.443819	0.430060
O37	O	-0.139986	-0.027701	-0.067337
O38	O	0.360014	0.472299	0.432663
C39	C	-0.075609	-0.115580	-0.070653
C40	C	0.424391	0.384420	0.429347
C41	C	0.000086	-0.142646	-0.073642
C42	C	0.500086	0.357354	0.426358
C43	C	0.151468	-0.137384	-0.078901
C44	C	0.651468	0.362616	0.421099
C45	C	0.151464	-0.196779	-0.079618
C46	C	0.651464	0.303221	0.420382
C47	C	0.075771	-0.229108	-0.077347
C48	C	0.575771	0.270892	0.422653
C49	C	0.000082	-0.202042	-0.074359
C50	C	0.500082	0.297958	0.425641
C51	C	-0.151307	-0.147913	-0.068375
C52	C	0.348693	0.352087	0.431625
C53	C	-0.151304	-0.207316	-0.069087
C54	C	0.348696	0.292684	0.430913
C55	C	-0.075608	-0.234382	-0.072076
C56	C	0.424392	0.265618	0.427924
C57	C	-0.075615	-0.293766	-0.072805
C58	C	0.424385	0.206234	0.427195
N59	N	0.000075	-0.320836	-0.075788
N60	N	0.500075	0.179164	0.424212
C61	C	0.075768	-0.288507	-0.078059
C62	C	0.575768	0.211493	0.421941
C63	C	-0.075594	0.068562	-0.068444
C64	C	0.424406	0.568562	0.431556
C65	C	-0.075592	0.127960	-0.067736
C66	C	0.424408	0.627960	0.432264
C67	C	0.075797	0.133219	-0.072991
C68	C	0.575797	0.633219	0.427009
C69	C	0.075794	0.073820	-0.073703
C70	C	0.575794	0.573820	0.426297
C71	C	0.000096	0.041491	-0.071427
C72	C	0.500096	0.541491	0.428573
C73	C	0.075753	-0.413242	-0.079565
C74	C	0.575753	0.086758	0.420435
C75	C	0.075743	-0.472643	-0.080285
C76	C	0.575743	0.027357	0.419715
C77	C	-0.075646	-0.477897	-0.075027
C78	C	0.424354	0.022103	0.424973
C79	C	-0.075636	-0.418501	-0.074310
C80	C	0.424364	0.081499	0.425690
C81	C	0.000071	-0.386175	-0.076578
C82	C	0.500071	0.113825	0.423422
O83	O	-0.139954	-0.326765	-0.070959
O84	O	0.360046	0.173235	0.429041
O85	O	0.140137	-0.316996	-0.080655
O86	O	0.640137	0.183004	0.419345
N87	N	-0.216257	-0.679881	-0.066484
N88	N	0.283743	-0.179881	0.433516
C89	C	0.260121	-0.702234	-0.044100
C90	C	0.760121	-0.202234	0.455900
C91	C	0.347526	-0.699197	-0.047138
C92	C	0.847526	-0.199197	0.452862
C93	C	0.391218	-0.658734	-0.087588
C94	C	0.891218	-0.158734	0.412412
C95	C	0.347500	-0.621300	-0.125000
C96	C	0.847500	-0.121300	0.375000
C97	C	0.260096	-0.624334	-0.121959
C98	C	0.760096	-0.124334	0.378041
C99	C	0.652621	-0.645482	-0.100854
C100	C	1.152621	-0.145482	0.399146
C101	C	0.740031	-0.642452	-0.103893
C102	C	1.240031	-0.142452	0.396107
C103	C	0.740052	-0.720348	-0.026031
C104	C	1.240052	-0.220348	0.473969
C105	C	0.652646	-0.723381	-0.022996
C106	C	1.152646	-0.223381	0.477004
C107	C	0.608936	-0.685945	-0.060405
C108	C	1.108936	-0.185945	0.439595
N109	N	0.480560	-0.655631	-0.090695
N110	N	0.980560	-0.155631	0.409305
N111	N	0.519595	-0.689046	-0.057295
N112	N	1.019595	-0.189046	0.442705
C113	C	0.000110	-0.677086	0.030148
C114	C	0.500110	-0.177086	0.530148
C115	C	0.000126	-0.676320	0.093365
C116	C	0.500126	-0.176320	0.593365
C117	C	0.000093	0.223510	-0.069236
C118	C	0.500093	0.723510	0.430764
C119	C	0.000102	0.160294	-0.070004
C120	C	0.500102	0.660294	0.429996
C121	C	0.000078	-0.621124	0.359522
C122	C	0.500078	-0.121124	0.859522
C123	C	0.000081	-0.621836	0.300122
C124	C	0.500081	-0.121836	0.800122
O125	O	0.000046	-0.578050	0.263370
O126	O	0.500046	-0.078050	0.763370
N127	N	0.000098	-0.674113	0.277506
N128	N	0.500098	-0.174113	0.777506
C129	C	0.000104	-0.725682	0.314294
C130	C	0.500104	-0.225682	0.814294
O131	O	0.000118	-0.770214	0.289603
O132	O	0.500118	-0.270214	0.789603
C133	C	0.000094	-0.724971	0.373693
C134	C	0.500094	-0.224971	0.873693
C135	C	0.000085	-0.672690	0.396306
C136	C	0.500085	-0.172690	0.896306
C137	C	0.000068	-0.568848	0.382135
C138	C	0.500068	-0.068848	0.882135
C139	C	0.000066	-0.568137	0.441531
C140	C	0.500066	-0.068137	0.941531
C141	C	0.000074	-0.619702	0.478315
C142	C	0.500074	-0.119702	0.978315
C143	C	0.000083	-0.671979	0.455702
C144	C	0.500083	-0.171979	0.955702
C145	C	0.000093	-0.776540	0.410481
C146	C	0.500093	-0.276540	0.910481
C147	C	0.000083	-0.775823	0.469883
C148	C	0.500083	-0.275823	0.969883
C149	C	0.000074	-0.723543	0.492495
C150	C	0.500074	-0.223543	0.992495
C151	C	0.000089	-0.722833	0.551881
C152	C	0.500089	-0.222833	1.051881
N153	N	0.000072	-0.670556	0.574497
N154	N	0.500072	-0.170556	1.074497
C155	C	0.000064	-0.618990	0.537714
C156	C	0.500064	-0.118990	1.037714
C157	C	0.000122	-0.727173	0.189551
C158	C	0.500122	-0.227173	0.689551
C159	C	0.000138	-0.727885	0.130153
C160	C	0.500138	-0.227885	0.630153
C161	C	0.000114	-0.624038	0.115985
C162	C	0.500114	-0.124038	0.615985
C163	C	0.000104	-0.623327	0.175384
C164	C	0.500104	-0.123327	0.675384
C165	C	0.000105	-0.674896	0.212167
C166	C	0.500105	-0.174896	0.712167
C167	C	0.000061	-0.617501	0.662450
C168	C	0.500061	-0.117501	1.162450
C169	C	0.000062	-0.616794	0.721852
C170	C	0.500062	-0.116794	1.221852
C171	C	0.000082	-0.720641	0.736015
C172	C	0.500082	-0.220641	1.236015
C173	C	0.000085	-0.721348	0.676618
C174	C	0.500085	-0.221348	1.176618
C175	C	0.000071	-0.669773	0.639837
C176	C	0.500071	-0.169773	1.139837
O177	O	0.000121	-0.766596	0.588668
O178	O	0.500121	-0.266596	1.088668
O179	O	0.000039	-0.574467	0.562414
O180	O	0.500039	-0.074467	1.062414
C181	C	0.000053	-0.667594	0.821853
C182	C	0.500053	-0.167594	1.321853
C183	C	0.000070	-0.668359	0.758636
C184	C	0.500070	-0.168359	1.258636
H185	H	0.137385	-0.494677	-0.082721
H186	H	0.637385	0.005323	0.417279
O187	O	0.224948	-0.105912	-0.081180
O188	O	0.724948	0.394088	0.418820
C189	C	0.229479	-0.064674	-0.130264
C190	C	0.729479	0.435326	0.369736
H191	H	0.163756	-0.055808	-0.144321
H192	H	0.663756	0.444192	0.355679
H193	H	0.261532	-0.023308	-0.119783
H194	H	0.761532	0.476692	0.380217
H195	H	0.266811	-0.081559	-0.166379
H196	H	0.766811	0.418441	0.333621
O197	O	0.000086	-0.566055	0.743911
O198	O	0.500086	-0.066055	1.243911
C199	C	0.000064	-0.576480	0.804226
C200	C	0.500064	-0.076480	1.304226
H201	H	0.026365	-0.620087	0.817523
H202	H	0.526365	-0.120087	1.317523
H203	H	0.040366	-0.541641	0.820881
H204	H	0.540366	-0.041641	1.320881
H205	H	-0.066555	-0.576140	0.823047
H206	H	0.433445	-0.076140	1.323047
O207	O	0.000121	-0.770780	0.771670
O208	O	0.500121	-0.270780	1.271670
C209	C	0.000105	-0.817081	0.738980
C210	C	0.500105	-0.317081	1.238980
H211	H	0.026402	-0.801459	0.693654
H212	H	0.526402	-0.301459	1.193654
H213	H	0.040415	-0.851787	0.759714
H214	H	0.540415	-0.351787	1.259714
H215	H	-0.066511	-0.835437	0.737141
H216	H	0.433489	-0.335437	1.237141
O217	O	0.389892	-0.735543	-0.010721
O218	O	0.889892	-0.235543	0.489279
C219	C	0.368578	-0.727349	0.046353
C220	C	0.868578	-0.227349	0.546353
H221	H	0.305124	-0.707594	0.048376
H222	H	0.805124	-0.207594	0.548376
H223	H	0.365585	-0.770425	0.074722
H224	H	0.865585	-0.270425	0.574722
H225	H	0.417787	-0.697401	0.062112
H226	H	0.917787	-0.197401	0.562112
O227	O	0.000193	-0.517361	0.463517
O228	O	0.500193	-0.017361	0.963517
C229	C	0.072088	-0.511330	0.494983
C230	C	0.572088	-0.011330	0.994983
H231	H	0.122369	-0.539254	0.479374
H232	H	0.622369	-0.039254	0.979374
H233	H	0.096208	-0.464556	0.488552
H234	H	0.596208	0.035444	0.988552
H235	H	0.055825	-0.525302	0.542466
H236	H	0.555825	-0.025302	1.042466
O237	O	0.000051	-0.572493	0.197254
O238	O	0.500051	-0.072493	0.697254
C239	C	0.000070	-0.527136	0.152043
C240	C	0.500070	-0.027136	0.652043
H241	H	-0.026204	-0.543787	0.112687
H242	H	0.473796	-0.043787	0.612687
H243	H	-0.040256	-0.492020	0.165634
H244	H	0.459744	0.007980	0.665634
H245	H	0.066685	-0.508924	0.141250
H246	H	0.566685	-0.008924	0.641250
H247	H	0.000079	-0.817819	0.499830
H248	H	0.500079	-0.317819	0.999830
O249	O	0.149240	-0.381775	-0.081844
O250	O	0.649240	0.118225	0.418156
C251	C	0.153768	-0.340534	-0.130926
C252	C	0.653768	0.159466	0.369074
H253	H	0.088044	-0.331667	-0.144981
H254	H	0.588044	0.168333	0.355019
H255	H	0.185822	-0.299169	-0.120443
H256	H	0.685822	0.200831	0.379557
H257	H	0.191099	-0.357416	-0.167043
H258	H	0.691099	0.142584	0.332957
H259	H	0.617074	-0.756330	0.009942
H260	H	1.117074	-0.256330	0.509942
H261	H	0.775649	-0.750826	0.004427
H262	H	1.275649	-0.250826	0.504427
H263	H	0.137431	0.159552	-0.074840
H264	H	0.637431	0.659552	0.425160
O265	O	0.217761	-0.587950	-0.158360
O266	O	0.717761	-0.087950	0.341640
C267	C	0.275064	-0.551576	-0.194706
C268	C	0.775064	-0.051576	0.305294
H269	H	0.337364	-0.572759	-0.197395
H270	H	0.837364	-0.072759	0.302605
H271	H	0.249787	-0.543504	-0.239355
H272	H	0.749787	-0.043504	0.260645
H273	H	0.284378	-0.509053	-0.176759
H274	H	0.784378	-0.009053	0.323241
O275	O	0.000118	-0.778722	0.108287
O276	O	0.500118	-0.278722	0.608287
C277	C	0.000147	-0.824077	0.153496
C278	C	0.500147	-0.324077	0.653496
H279	H	-0.026146	-0.809260	0.194667
H280	H	0.473854	-0.309260	0.694667
H281	H	-0.040158	-0.862005	0.142687
H282	H	0.459842	-0.362005	0.642687
H283	H	0.066767	-0.837643	0.159692
H284	H	0.566767	-0.337643	0.659692
H285	H	0.000108	-0.582051	0.086025
H286	H	0.500108	-0.082051	0.586025
O287	O	0.000245	-0.777230	0.225334
O288	O	0.500245	-0.277230	0.725334
C289	C	0.072167	-0.777427	0.257625
C290	C	0.572167	-0.277427	0.757625
H291	H	0.096130	-0.731404	0.259551
H292	H	0.596130	-0.231404	0.759551
H293	H	0.055993	-0.799472	0.302950
H294	H	0.555993	-0.299472	0.802950
H295	H	0.122535	-0.801564	0.236488
H296	H	0.622535	-0.301564	0.736488
O297	O	-0.000017	-0.827295	0.388463
O298	O	0.499983	-0.327295	0.888463
C299	C	-0.071942	-0.833329	0.357027
C300	C	0.428058	-0.333329	0.857027
H301	H	-0.095916	-0.789189	0.342793
H302	H	0.404084	-0.289189	0.842793
H303	H	-0.055769	-0.855253	0.317705
H304	H	0.444231	-0.355253	0.817705
H305	H	-0.122301	-0.860421	0.385161
H306	H	0.377699	-0.360421	0.885161
H307	H	0.775601	-0.609500	-0.136835
H308	H	1.275601	-0.109500	0.363165
H309	H	0.000059	-0.526855	0.352192
H310	H	0.500059	-0.026855	0.852192
O311	O	0.610126	-0.609072	-0.137119
O312	O	1.110126	-0.109072	0.362881
C313	C	0.559571	-0.575872	-0.105052
C314	C	1.059571	-0.075872	0.394948
H315	H	0.585932	-0.574244	-0.061059
H316	H	1.085932	-0.074244	0.438941
H317	H	0.558572	-0.530511	-0.128499
H318	H	1.058572	-0.030511	0.371501
H319	H	0.493329	-0.596015	-0.099667
H320	H	0.993329	-0.096015	0.400333
H321	H	0.000104	-0.763918	0.658206
H322	H	0.500104	-0.263918	1.158206
H323	H	-0.137231	0.149993	-0.065311
H324	H	0.362769	0.649993	0.434689
O325	O	0.225069	-0.222981	-0.082492
O326	O	0.725069	0.277019	0.417508
C327	C	0.291869	-0.181698	-0.084356
C328	C	0.791869	0.318302	0.415644
H329	H	0.269675	-0.142591	-0.065045
H330	H	0.769675	0.357409	0.434955
H331	H	0.344820	-0.200788	-0.058744
H332	H	0.844820	0.299212	0.441256
H333	H	0.315130	-0.168333	-0.130783
H334	H	0.815130	0.331667	0.369217
H335	H	-0.137241	0.042243	-0.066596
H336	H	0.362759	0.542243	0.433404
H337	H	0.137432	0.051787	-0.076138
H338	H	0.637432	0.551787	0.423862
O339	O	-0.224819	-0.238756	-0.066779
O340	O	0.275181	0.261244	0.433221
C341	C	-0.229328	-0.280018	-0.017714
C342	C	0.270672	0.219982	0.482286
H343	H	-0.186357	-0.265336	0.015490
H344	H	0.313643	0.234664	0.515490
H345	H	-0.296268	-0.285275	0.001162
H346	H	0.203732	0.214725	0.501162
H347	H	-0.209006	-0.322807	-0.030117
H348	H	0.290994	0.177193	0.469883
H349	H	-0.212946	-0.125886	-0.065941
H350	H	0.287054	0.374114	0.434059
O351	O	0.000088	-0.567348	0.626806
O352	O	0.500088	-0.067348	1.126806
C353	C	0.000058	-0.521062	0.659513
C354	C	0.500058	-0.021062	1.159513
H355	H	0.026345	-0.534869	0.703023
H356	H	0.526345	-0.034869	1.203023
H357	H	0.040368	-0.483546	0.636010
H358	H	0.540368	0.016454	1.136010
H359	H	-0.066561	-0.507342	0.665955
H360	H	0.433439	-0.007342	1.165955
H361	H	-0.137273	-0.396462	-0.071886
H362	H	0.362727	0.103538	0.428114
H363	H	-0.137274	-0.504230	-0.073180
H364	H	0.362726	-0.004230	0.426820
H365	H	0.224553	-0.735186	-0.011164
H366	H	0.724553	-0.235186	0.488836
H367	H	0.383079	-0.588351	-0.157933
H368	H	0.883079	-0.088351	0.342067
