data_functionalizedCrystal
_audit_creation_method	'MofGen! by Chris Wilmer'
_symmetry_space_group_name_H-M	'P1'
_symmetry_Int_Tables_number	1
_symmetry_cell_setting	triclinic
loop_
_symmetry_equiv_pos_as_xyz
  x,y,z
_cell_length_a	9.065215
_cell_length_b	17.666332
_cell_length_c	9.065218
_cell_angle_alpha	90.004557
_cell_angle_beta	85.015291
_cell_angle_gamma	90.008789
loop_
_atom_site_label
_atom_site_type_symbol
_atom_site_fract_x
_atom_site_fract_y
_atom_site_fract_z
O1	O	1.960414	0.062936	0.216339
O2	O	1.531129	0.062939	0.234090
O3	O	1.754645	0.062936	0.010572
O4	O	1.736898	0.062939	0.439857
O5	O	1.754605	-0.062961	0.010559
O6	O	1.531089	-0.062957	0.234077
O7	O	1.960374	-0.062961	0.216327
Cu8	Cu	1.745728	-0.074454	0.225201
Cu9	Cu	1.745775	0.074433	0.225216
O10	O	1.736858	-0.062957	0.439844
C11	C	1.476122	-0.000009	0.232379
C12	C	1.312279	-0.000007	0.227281
N13	N	1.745705	-0.179174	0.225190
C14	C	1.844711	-0.218785	0.126265
C15	C	1.844720	-0.298033	0.126258
C16	C	1.745737	-0.337666	0.225201
C17	C	1.646712	-0.298045	0.324133
C18	C	1.646696	-0.218799	0.324127
N19	N	1.728699	-0.462084	0.355514
N20	N	1.728722	-0.537364	0.355515
C21	C	1.745776	-0.576430	0.225222
N22	N	1.762834	-0.537372	0.094925
N23	N	1.762818	-0.462084	0.094925
C24	C	1.745742	-0.423595	0.225218
C25	C	1.844797	-0.701970	0.126282
C26	C	1.844795	-0.781220	0.126273
C27	C	1.646794	-0.781231	0.324161
C28	C	1.646789	-0.701983	0.324157
C29	C	1.745798	-0.662358	0.225219
C30	C	2.015381	-0.000011	0.218038
C31	C	2.179224	-0.000007	0.223136
C32	C	1.752919	-0.000011	-0.044421
C33	C	1.747819	-0.000007	-0.208264
N34	N	1.745809	0.179153	0.225215
C35	C	1.738584	-0.000009	0.494837
C36	C	1.743683	-0.000007	0.658680
H37	H	1.925327	-0.186524	0.045701
H38	H	1.925412	-0.669706	0.045717
C39	C	1.537824	-0.341644	0.432964
N40	N	1.455800	-0.374482	0.514933
H41	H	1.566194	-0.813500	0.404716
H42	H	1.925345	-0.330290	0.045699
H43	H	1.566072	-0.186547	0.404684
H44	H	1.925413	-0.813472	0.045709
H45	H	1.566175	-0.669730	0.404716
