data_functionalizedCrystal
_audit_creation_method	'MofGen! by Chris Wilmer'
_symmetry_space_group_name_H-M	'P1'
_symmetry_Int_Tables_number	1
_symmetry_cell_setting	triclinic
loop_
_symmetry_equiv_pos_as_xyz
  x,y,z
_cell_length_a	11.026607
_cell_length_b	16.992694
_cell_length_c	16.053802
_cell_angle_alpha	92.750953
_cell_angle_beta	93.134017
_cell_angle_gamma	80.372880
loop_
_atom_site_label
_atom_site_type_symbol
_atom_site_fract_x
_atom_site_fract_y
_atom_site_fract_z
O1	O	0.256038	-1.079834	-0.069317
O2	O	0.253175	-0.851145	-0.069342
O3	O	0.076115	-0.946536	-0.069328
O4	O	0.433098	-0.984443	-0.069330
O5	O	0.085818	-0.941279	0.069530
O6	O	0.262878	-0.845889	0.069516
O7	O	0.265741	-1.074577	0.069541
Zn8	Zn	0.265850	-0.959398	0.091575
Zn9	Zn	0.253066	-0.966324	-0.091376
O10	O	0.442801	-0.979186	0.069528
C11	C	0.254344	-0.818785	0.000084
C12	C	0.243357	-0.730190	0.000075
C13	C	0.035078	-0.936914	0.000099
C14	C	-0.101658	-0.916068	0.000094
N15	N	0.274575	-0.954677	0.216435
C16	C	-0.169881	-0.973629	0.000099
C17	C	-0.311205	-0.952085	0.000093
C18	C	0.483838	-0.988808	0.000099
C19	C	0.620574	-1.009655	0.000098
C20	C	0.264572	-1.106937	0.000113
C21	C	0.275558	-1.195532	0.000117
C22	C	0.349355	-0.694911	0.000075
C23	C	0.339026	-0.611666	0.000086
C24	C	0.222698	-0.563702	0.000092
C25	C	0.116693	-0.598986	0.000094
C26	C	0.127024	-0.682229	0.000089
C27	C	0.179883	-0.314060	0.000114
C28	C	0.169561	-0.230811	0.000117
C29	C	0.391895	-0.243497	0.000111
C30	C	0.402215	-0.326741	0.000100
C31	C	0.296210	-0.362018	0.000107
N32	N	0.212138	-0.478612	0.000101
N33	N	0.306772	-0.447107	0.000104
N34	N	0.244332	-0.971050	-0.216236
C35	C	0.199266	-0.995289	0.260135
C36	C	0.205382	-0.991996	0.347541
C37	C	0.286813	-0.948095	0.391246
C38	C	0.362124	-0.907478	0.347540
C39	C	0.356002	-0.910767	0.260136
C40	C	0.313521	-0.933722	0.652654
C41	C	0.319641	-0.930438	0.740065
C42	C	0.162896	-1.014955	0.740059
C43	C	0.156786	-1.018244	0.652653
C44	C	0.232093	-0.977624	0.608955
N45	N	0.293068	-0.944729	0.480589
N46	N	0.225830	-0.980985	0.519613
H47	H	-0.357419	-0.886850	0.000081
H48	H	-0.123663	-1.038860	0.000111
C49	C	0.507123	-0.205347	0.000069
C50	C	0.611206	-0.265171	0.000043
C51	C	0.717380	-0.230059	-0.000005
H52	H	0.511274	-0.171320	0.048480
H53	H	0.504400	-0.174985	-0.048372
H54	H	0.613929	-0.295519	0.048478
H55	H	0.607096	-0.299203	-0.048365
H56	H	0.714657	-0.199697	-0.048445
H57	H	0.721518	-0.196032	0.048408
H58	H	0.788011	-0.270644	-0.000030
C59	C	0.528400	-0.378954	0.000019
C60	C	0.514756	-0.459408	-0.000026
C61	C	0.630969	-0.507530	-0.000133
H62	H	0.575909	-0.366211	0.048417
H63	H	0.568973	-0.369775	-0.048436
H64	H	0.474202	-0.468583	0.048423
H65	H	0.467268	-0.472175	-0.048421
H66	H	0.671542	-0.498350	-0.048588
H67	H	0.678469	-0.494780	0.048265
H68	H	0.621727	-0.562123	-0.000172
C69	C	0.450341	-0.859742	0.395098
C70	C	0.383554	-0.799952	0.445308
C71	C	0.464783	-0.755971	0.489137
H72	H	0.494351	-0.835948	0.356650
H73	H	0.506730	-0.894263	0.429234
H74	H	0.327188	-0.765437	0.411175
H75	H	0.339549	-0.823724	0.483772
H76	H	0.521171	-0.790491	0.523273
H77	H	0.508788	-0.732182	0.450683
H78	H	0.419481	-0.715403	0.523215
H79	H	0.385957	-0.894687	0.775645
H80	H	0.144059	-1.025064	0.383121
H81	H	0.101583	-1.048025	0.775646
C82	C	-0.317588	-1.096592	0.000149
C83	C	-0.189708	-1.100680	0.000172
C84	C	-0.132703	-1.180751	0.000229
H85	H	-0.344966	-1.124227	-0.048258
H86	H	-0.338274	-1.120498	0.048594
H87	H	-0.169032	-1.076785	-0.048268
H88	H	-0.162296	-1.073062	0.048575
H89	H	-0.153388	-1.204656	0.048674
H90	H	-0.160090	-1.208379	-0.048179
H91	H	-0.045930	-1.183534	0.000252
H92	H	0.374842	-0.900649	0.617082
H93	H	0.425341	-0.582946	0.000085
C94	C	0.437915	-0.866655	0.212838
C95	C	0.510564	-0.827522	0.269818
C96	C	0.586047	-0.786882	0.226279
H97	H	0.388163	-0.828541	0.178747
H98	H	0.489610	-0.903754	0.178750
H99	H	0.458875	-0.790426	0.303891
H100	H	0.560341	-0.865617	0.303911
H101	H	0.637742	-0.823981	0.192192
H102	H	0.536286	-0.748773	0.192190
H103	H	0.635357	-0.760332	0.264934
H104	H	-0.147877	-0.850837	0.000081
H105	H	0.444081	-0.733959	0.000069
H106	H	0.074828	-0.191760	0.000121
H107	H	0.093566	-0.342772	0.000121
C108	C	0.111021	-1.043034	0.212621
C109	C	0.177762	-1.102853	0.162420
C110	C	0.096493	-1.146838	0.118640
H111	H	0.054620	-1.008546	0.178480
H112	H	0.067033	-1.066796	0.251124
H113	H	0.221729	-1.079092	0.123921
H114	H	0.234158	-1.137359	0.196540
H115	H	0.052505	-1.170599	0.157143
H116	H	0.040096	-1.112344	0.084503
H117	H	0.141765	-1.187434	0.084579
H118	H	0.021977	-0.559926	0.000111
C119	C	0.011790	-0.720386	0.000041
C120	C	-0.092299	-0.660567	0.000023
C121	C	-0.198477	-0.695686	-0.000029
H122	H	0.014408	-0.750764	0.048449
H123	H	0.007745	-0.754401	-0.048404
H124	H	-0.088255	-0.626566	0.048463
H125	H	-0.094957	-0.630185	-0.048381
H126	H	-0.202521	-0.729701	-0.048474
H127	H	-0.195847	-0.726063	0.048379
H128	H	-0.269114	-0.655105	-0.000049
H129	H	0.090478	-1.053992	0.617070
