data_functionalizedCrystal
_audit_creation_method	'MofGen! by Chris Wilmer'
_symmetry_space_group_name_H-M	'P1'
_symmetry_Int_Tables_number	1
_symmetry_cell_setting	triclinic
loop_
_symmetry_equiv_pos_as_xyz
  x,y,z
_cell_length_a	12.594517
_cell_length_b	16.959454
_cell_length_c	16.959447
_cell_angle_alpha	90.021714
_cell_angle_beta	89.997816
_cell_angle_gamma	90.005370
loop_
_atom_site_label
_atom_site_type_symbol
_atom_site_fract_x
_atom_site_fract_y
_atom_site_fract_z
Zn1	Zn	-1.627320	-0.314800	0.446700
Zn2	Zn	-1.127320	0.185200	0.946700
Zn3	Zn	-1.627275	-0.446993	0.314541
Zn4	Zn	-1.127275	0.053007	0.814541
Zn5	Zn	-1.449341	-0.314817	0.314565
Zn6	Zn	-0.949341	0.185183	0.814565
Zn7	Zn	-1.449353	-0.446926	0.446708
Zn8	Zn	-0.949353	0.053074	0.946708
O9	O	-1.538322	-0.380884	0.380629
O10	O	-1.038322	0.119116	0.880629
O11	O	-1.776260	-0.332356	0.429155
O12	O	-1.276260	0.167644	0.929155
O13	O	-1.603648	-0.429494	0.203934
O14	O	-1.103648	0.070506	0.703934
O15	O	-1.472964	-0.204204	0.332100
O16	O	-0.972964	0.295796	0.832100
O17	O	-1.776227	-0.429478	0.332059
O18	O	-1.276227	0.070522	0.832059
O19	O	-1.603725	-0.204192	0.429179
O20	O	-1.103725	0.295808	0.929179
O21	O	-1.472921	-0.332386	0.203951
O22	O	-0.972921	0.167614	0.703951
O23	O	-1.300397	-0.332321	0.332108
O24	O	-0.800397	0.167679	0.832108
O25	O	-1.472984	-0.429364	0.557318
O26	O	-0.972984	0.070636	1.057318
O27	O	-1.300405	-0.429381	0.429192
O28	O	-0.800405	0.070619	0.929192
O29	O	-1.603736	-0.332292	0.557312
O30	O	-1.103736	0.167708	1.057312
O31	O	-1.603659	-0.557595	0.332067
O32	O	-1.103659	-0.057595	0.832067
O33	O	-1.472941	-0.557546	0.429169
O34	O	-0.972941	-0.057546	0.929169
C35	C	-1.261781	-0.380846	0.380654
C36	C	-0.761781	0.119154	0.880654
C37	C	-1.143476	-0.380849	0.380684
C38	C	-0.643476	0.119151	0.880684
C39	C	-1.074258	-0.433741	0.433389
C40	C	-0.574258	0.066259	0.933389
C41	C	-1.003422	-0.361670	0.452826
C42	C	-0.503422	0.138330	0.952826
C43	C	-1.003513	-0.452973	0.361239
C44	C	-0.503513	0.047027	0.861239
C45	C	-1.074197	-0.308740	0.400158
C46	C	-0.574197	0.191260	0.900158
C47	C	-1.074295	-0.400091	0.308538
C48	C	-0.574295	0.099909	0.808538
C49	C	-1.003491	-0.327971	0.327947
C50	C	-0.503491	0.172029	0.827947
C51	C	-1.538325	-0.586250	0.380633
C52	C	-1.038325	-0.086250	0.880633
C53	C	-1.538424	-0.674107	0.380662
C54	C	-1.038424	-0.174107	0.880662
C55	C	-0.815943	-0.380915	0.380616
C56	C	-0.315943	0.119085	0.880616
C57	C	-0.934248	-0.380910	0.380641
C58	C	-0.434248	0.119090	0.880641
C59	C	-1.538366	-0.380819	0.586797
C60	C	-1.038366	0.119181	1.086797
C61	C	-1.538385	-0.380791	0.674654
C62	C	-1.038385	0.119209	1.174654
C63	C	-1.538348	-0.174716	0.380641
C64	C	-1.038348	0.325284	0.880641
C65	C	-1.538359	-0.086859	0.380647
C66	C	-1.038359	0.413141	0.880647
C67	C	-1.606499	0.284625	0.431205
C68	C	-1.106499	0.784625	0.931205
C69	C	-1.470337	0.284607	0.330116
C70	C	-0.970337	0.784607	0.830116
C71	C	-1.470322	0.202062	0.330113
C72	C	-0.970322	0.702062	0.830113
C73	C	-1.538397	0.160794	0.380656
C74	C	-1.038397	0.660794	0.880656
C75	C	-1.606488	0.202072	0.431202
C76	C	-1.106488	0.702072	0.931202
C77	C	-1.402240	0.160777	0.279562
C78	C	-0.902240	0.660777	0.779562
C79	C	-1.402223	0.078226	0.279557
C80	C	-0.902223	0.578226	0.779557
C81	C	-1.470293	0.036957	0.330104
C82	C	-0.970293	0.536957	0.830104
C83	C	-1.538386	0.078240	0.380653
C84	C	-1.038386	0.578240	0.880653
C85	C	-1.606461	0.036973	0.431196
C86	C	-1.106461	0.536973	0.931196
C87	C	-1.674549	0.078254	0.481749
C88	C	-1.174549	0.578254	0.981749
C89	C	-1.674559	0.160803	0.481749
C90	C	-1.174559	0.660803	0.981749
C91	C	-1.470284	-0.045591	0.330104
C92	C	-0.970284	0.454409	0.830104
C93	C	-1.606450	-0.045581	0.431193
C94	C	-1.106450	0.454419	0.931193
C95	C	-1.538339	-0.380892	0.175262
C96	C	-1.038339	0.119108	0.675262
C97	C	-1.538527	-0.380697	0.087406
C98	C	-1.038527	0.119303	0.587406
C99	C	-1.470436	-0.431248	1.046135
C100	C	-0.970436	0.068752	1.546135
C101	C	-1.606589	-0.330166	1.046124
C102	C	-1.106589	0.169834	1.546124
C103	C	-1.606561	-0.330183	0.963578
C104	C	-1.106561	0.169817	1.463578
C105	C	-1.538470	-0.380734	0.922307
C106	C	-1.038470	0.119266	1.422307
C107	C	-1.470408	-0.431268	0.963581
C108	C	-0.970408	0.068732	1.463581
C109	C	-1.674629	-0.279655	0.922297
C110	C	-1.174629	0.220345	1.422297
C111	C	-1.674604	-0.279671	0.839746
C112	C	-1.174604	0.220329	1.339746
C113	C	-1.606508	-0.330218	0.798473
C114	C	-1.106508	0.169782	1.298473
C115	C	-1.538442	-0.380754	0.839753
C116	C	-1.038442	0.119246	1.339753
C117	C	-1.470351	-0.431305	0.798482
C118	C	-0.970351	0.068695	1.298482
C119	C	-1.402279	-0.481837	0.839760
C120	C	-0.902279	0.018163	1.339760
C121	C	-1.402311	-0.481816	0.922308
C122	C	-0.902311	0.018184	1.422308
C123	C	-1.606476	-0.330240	0.715925
C124	C	-1.106476	0.169760	1.215925
C125	C	-1.470323	-0.431325	0.715928
C126	C	-0.970323	0.068675	1.215928
H127	H	-0.972458	-0.513941	0.344813
H128	H	-0.472458	-0.013941	0.844813
H129	H	-1.729981	0.044643	0.522897
H130	H	-1.229981	0.544643	1.022897
C131	C	-1.749512	-0.224045	0.967700
C132	C	-1.249512	0.275955	1.467700
N133	N	-1.805910	-0.182152	1.001902
N134	N	-1.305910	0.317848	1.501902
H135	H	-1.661878	-0.079175	0.472357
H136	H	-1.161878	0.420825	0.972357
C137	C	-1.327433	-0.537392	0.967720
C138	C	-0.827433	-0.037392	1.467720
N139	N	-1.271035	-0.579251	1.001928
N140	N	-0.771035	-0.079251	1.501928
C141	C	-1.327382	-0.537441	0.794351
C142	C	-0.827382	-0.037441	1.294351
N143	N	-1.270970	-0.579320	0.760145
N144	N	-0.770970	-0.079320	1.260145
C145	C	-1.681395	0.330035	0.486808
C146	C	-1.181395	0.830035	0.986808
N147	N	-1.737809	0.364239	0.528688
N148	N	-1.237809	0.864239	1.028688
C149	C	-1.749458	0.206219	0.537345
C150	C	-1.249458	0.706219	1.037345
N151	N	-1.805876	0.240429	0.579217
N152	N	-1.305876	0.740429	1.079217
C153	C	-1.395459	0.330005	0.274521
C154	C	-0.895459	0.830005	0.774521
N155	N	-1.339055	0.364201	0.232647
N156	N	-0.839055	0.864201	0.732647
C157	C	-1.116388	-0.422079	0.226161
C158	C	-0.616388	0.077921	0.726161
N159	N	-1.148094	-0.438650	0.164114
N160	N	-0.648094	0.061350	0.664114
C161	C	-1.395414	-0.486935	0.670536
C162	C	-0.895414	0.013065	1.170536
N163	N	-1.338993	-0.528821	0.636348
N164	N	-0.838993	-0.028821	1.136348
C165	C	-1.395393	-0.090997	0.274499
C166	C	-0.895393	0.409003	0.774499
N167	N	-1.338978	-0.125196	0.232615
N168	N	-0.838978	0.374804	0.732615
H169	H	-1.661902	-0.289099	0.682320
H170	H	-1.161902	0.210901	1.182320
C171	C	-1.327363	0.206176	0.223969
C172	C	-0.827363	0.706176	0.723969
N173	N	-1.270959	0.240375	0.182096
N174	N	-0.770959	0.740375	0.682096
C175	C	-1.327317	0.032824	0.223954
C176	C	-0.827317	0.532824	0.723954
N177	N	-1.270893	-0.001374	0.182076
N178	N	-0.770893	0.498626	0.682076
C179	C	-1.115965	-0.226351	0.422454
C180	C	-0.615965	0.273649	0.922454
N181	N	-1.147427	-0.164298	0.439250
N182	N	-0.647427	0.335702	0.939250
C183	C	-1.395553	-0.486826	1.091541
C184	C	-0.895553	0.013174	1.591541
N185	N	-1.339148	-0.528685	1.125742
N186	N	-0.839148	-0.028685	1.625742
H187	H	-1.662031	-0.289014	1.079732
H188	H	-1.162031	0.210986	1.579732
H189	H	-1.730032	-0.238524	0.806144
H190	H	-1.230032	0.261476	1.306144
H191	H	-1.105333	-0.478386	0.478013
H192	H	-0.605333	0.021614	0.978013
H193	H	-0.972291	-0.345416	0.513820
H194	H	-0.472291	0.154584	1.013820
H195	H	-0.972614	-0.283216	0.283358
H196	H	-0.472614	0.216784	0.783358
