data_functionalizedCrystal
_audit_creation_method	'MofGen! by Chris Wilmer'
_symmetry_space_group_name_H-M	'P1'
_symmetry_Int_Tables_number	1
_symmetry_cell_setting	triclinic
loop_
_symmetry_equiv_pos_as_xyz
  x,y,z
_cell_length_a	12.759395
_cell_length_b	12.759394
_cell_length_c	12.759387
_cell_angle_alpha	89.968340
_cell_angle_beta	90.020509
_cell_angle_gamma	89.983626
loop_
_atom_site_label
_atom_site_type_symbol
_atom_site_fract_x
_atom_site_fract_y
_atom_site_fract_z
Zn1	Zn	1.606268	0.418168	0.593999
Zn2	Zn	1.606158	0.593885	0.418317
Zn3	Zn	1.430566	0.418225	0.418336
Zn4	Zn	1.430558	0.593810	0.593956
O5	O	1.518387	0.506022	0.506152
O6	O	1.753274	0.441485	0.570704
O7	O	1.582823	0.570639	0.271298
O8	O	1.453922	0.271197	0.441664
O9	O	1.753194	0.570583	0.441631
O10	O	1.583010	0.271155	0.570723
O11	O	1.453816	0.441582	0.271312
O12	O	1.283544	0.441510	0.441622
O13	O	1.453909	0.570456	0.740983
O14	O	1.283538	0.570511	0.570649
O15	O	1.583002	0.441412	0.741014
O16	O	1.582815	0.740896	0.441590
O17	O	1.453802	0.740841	0.570631
C18	C	1.245420	0.506009	0.506134
C19	C	1.128643	0.506029	0.506151
C20	C	1.518324	0.778990	0.506126
C21	C	1.518393	0.895766	0.506151
C22	C	1.128676	0.640576	0.640290
C23	C	1.073831	0.707857	0.707362
C24	C	0.964109	0.707870	0.707375
C25	C	0.909230	0.640592	0.640310
C26	C	0.964074	0.573310	0.573238
C27	C	1.073799	0.573307	0.573230
C28	C	0.964042	0.438760	0.439106
C29	C	1.073764	0.438751	0.439086
C30	C	0.909162	0.371482	0.372042
C31	C	0.964007	0.304204	0.304962
C32	C	1.073735	0.304195	0.304951
C33	C	1.128608	0.371469	0.372014
C34	C	1.518467	0.505919	0.780185
C35	C	1.518500	0.505875	0.896962
C36	C	1.792421	0.506036	0.506170
C37	C	1.909197	0.506042	0.506178
C38	C	1.518479	0.231989	0.506200
C39	C	1.518518	0.115212	0.506221
C40	C	1.652835	0.895770	0.371881
C41	C	1.720083	0.950633	0.304758
C42	C	1.720145	1.060354	0.304786
C43	C	1.652953	1.115216	0.371947
C44	C	1.585705	1.060353	0.439070
C45	C	1.585648	0.950629	0.439032
C46	C	1.451270	1.060349	0.573343
C47	C	1.451202	0.950628	0.573311
C48	C	1.384079	1.115211	0.640504
C49	C	1.316823	1.060348	0.707623
C50	C	1.316764	0.950620	0.707591
C51	C	1.383954	0.895765	0.640434
C52	C	1.518369	0.506049	0.233184
C53	C	1.518538	0.505797	0.116408
C54	C	1.652934	0.371511	0.897015
C55	C	1.720166	0.304313	0.951902
C56	C	1.720192	0.304275	1.061624
C57	C	1.652976	0.371439	1.116461
C58	C	1.585744	0.438637	1.061574
C59	C	1.585728	0.438671	0.951849
C60	C	1.451307	0.572995	1.061521
C61	C	1.451285	0.573040	0.951799
C62	C	1.384091	0.640159	1.116358
C63	C	1.316863	0.707364	1.061471
C64	C	1.316841	0.707400	0.951742
C65	C	1.384053	0.640238	0.896912
H66	H	1.218017	0.640580	0.640278
C67	C	1.794094	0.230431	0.891585
H68	H	1.834129	0.190398	0.939990
H69	H	1.839846	0.270634	0.848777
H70	H	1.753904	0.184659	0.848792
H71	H	1.652994	0.371393	1.205802
H72	H	0.819889	0.640599	0.640336
C73	C	0.903773	0.781874	0.781151
H74	H	0.830568	0.772236	0.771555
H75	H	0.921731	0.852444	0.765650
H76	H	0.921786	0.766577	0.851773
H77	H	1.652930	0.371545	0.807674
C78	C	1.134056	0.230181	0.231173
H79	H	1.085654	0.190122	0.191235
H80	H	1.176889	0.184454	0.271442
H81	H	1.176827	0.270310	0.185309
C82	C	1.384120	0.640120	1.237048
H83	H	1.433794	0.590489	1.261886
H84	H	1.316336	0.621934	1.261868
H85	H	1.402269	0.707919	1.261850
C86	C	1.249299	0.371459	0.372001
H87	H	1.274106	0.321759	0.322448
H88	H	1.274153	0.353380	0.439831
H89	H	1.274095	0.439236	0.353698
C90	C	1.652766	0.775080	0.371841
H91	H	1.702415	0.750264	0.322236
H92	H	1.584960	0.750331	0.353617
H93	H	1.670901	0.750186	0.439649
H94	H	1.774792	0.905955	0.250078
H95	H	0.919315	0.249426	0.250369
H96	H	1.774909	1.105023	0.250135
H97	H	0.819821	0.371492	0.372061
C98	C	1.384143	1.235901	0.640534
H99	H	1.433808	1.260720	0.590933
H100	H	1.402294	1.260656	0.708352
H101	H	1.316359	1.260786	0.622315
H102	H	1.383905	0.806424	0.640394
C103	C	1.794146	0.230362	1.122002
H104	H	1.834178	0.190371	1.073633
H105	H	1.753987	0.184569	1.164813
H106	H	1.839916	0.270557	1.164798
C107	C	1.242939	0.781236	1.121791
H108	H	1.252584	0.771590	1.194997
H109	H	1.172350	0.765864	1.103799
H110	H	1.258293	0.851840	1.103803
H111	H	1.653018	1.204557	0.371973
C112	C	1.242923	1.120695	0.781489
H113	H	1.252591	1.193898	0.771892
H114	H	1.258252	1.102638	0.852087
H115	H	1.172324	1.102792	0.766041
C116	C	1.242792	0.890279	0.781430
H117	H	1.202786	0.938670	0.821424
H118	H	1.282939	0.847402	0.827224
H119	H	1.197000	0.847552	0.741190
H120	H	1.262082	0.762110	0.907060
H121	H	1.118526	0.762632	0.761966
C122	C	1.384026	0.640276	0.776221
H123	H	1.334364	0.689918	0.751383
H124	H	1.365887	0.572482	0.751416
H125	H	1.451815	0.658471	0.751407
