data_functionalizedCrystal
_audit_creation_method	'MofGen! by Chris Wilmer'
_symmetry_space_group_name_H-M	'P1'
_symmetry_Int_Tables_number	1
_symmetry_cell_setting	triclinic
loop_
_symmetry_equiv_pos_as_xyz
  x,y,z
_cell_length_a	29.999520
_cell_length_b	29.998686
_cell_length_c	29.995014
_cell_angle_alpha	60.005185
_cell_angle_beta	60.010401
_cell_angle_gamma	59.993433
loop_
_atom_site_label
_atom_site_type_symbol
_atom_site_fract_x
_atom_site_fract_y
_atom_site_fract_z
O1	O	0.061772	-0.651300	0.544623
O2	O	0.023267	-0.507084	0.438819
O3	O	0.114589	-0.598332	0.438743
O4	O	-0.029550	-0.560051	0.544699
O5	O	0.144886	-0.568039	0.468961
O6	O	0.053564	-0.476791	0.469038
O7	O	0.092069	-0.621007	0.574841
Zn8	Zn	0.077627	-0.544089	0.526737
Zn9	Zn	0.037709	-0.584002	0.486923
O10	O	0.000748	-0.529758	0.574918
N11	N	0.104871	-0.516854	0.553912
N12	N	0.010470	-0.611242	0.459748
C13	C	0.143162	-0.478782	0.827124
C14	C	0.378203	-0.478734	0.591892
C15	C	0.143005	-0.478752	0.591997
C16	C	0.142986	-0.243586	0.592008
C17	C	0.180857	-0.357087	0.629814
C18	C	0.180866	-0.440920	0.629807
C19	C	0.201840	-0.419964	0.650755
C20	C	0.293272	-0.404201	0.602606
C21	C	0.350426	-0.423248	0.583534
C22	C	0.350451	-0.515727	0.618798
C23	C	0.293297	-0.496678	0.637872
C24	C	0.194628	-0.328499	0.573626
C25	C	0.175551	-0.271340	0.554591
C26	C	0.128936	-0.271362	0.647935
C27	C	0.148014	-0.328521	0.666970
C28	C	0.124672	-0.427119	0.643641
C29	C	0.105611	-0.446170	0.624592
C30	C	0.198934	-0.492820	0.577889
C31	C	0.217998	-0.473770	0.596931
C32	C	0.124740	-0.427136	0.742229
C33	C	0.105728	-0.446202	0.799386
C34	C	0.199085	-0.492863	0.799337
C35	C	0.218096	-0.473798	0.742178
C36	C	0.180923	-0.440933	0.713626
C37	C	0.264710	-0.440915	0.629773
C38	C	0.121509	-0.499370	0.889991
C39	C	0.441068	-0.498953	0.570621
C40	C	0.121297	-0.499349	0.571429
C41	C	0.121653	-0.180715	0.571802
C42	C	-0.111071	-0.648912	0.421584
C43	C	-0.027286	-0.649018	0.421777
C44	C	-0.048200	-0.669944	0.400740
C45	C	-0.064036	-0.761340	0.448814
C46	C	-0.045033	-0.818500	0.467893
C47	C	0.047447	-0.818609	0.432797
C48	C	0.028444	-0.761451	0.413717
C49	C	-0.139731	-0.662677	0.477755
C50	C	-0.196885	-0.643554	0.496701
C51	C	-0.196717	-0.596907	0.403303
C52	C	-0.139562	-0.616030	0.384357
C53	C	-0.041053	-0.592827	0.407952
C54	C	-0.022041	-0.573809	0.427083
C55	C	0.024504	-0.667167	0.473848
C56	C	0.005492	-0.686188	0.454725
C57	C	-0.040886	-0.592836	0.309259
C58	C	-0.021740	-0.573821	0.252102
C59	C	0.024886	-0.667185	0.252163
C60	C	0.005743	-0.686199	0.309322
C61	C	-0.027145	-0.649023	0.337868
C62	C	-0.027299	-0.732818	0.421728
N63	N	0.492511	-0.516826	0.553742
O64	O	0.679283	-0.525926	0.419277
O65	O	0.679465	-0.632059	0.563349
O66	O	0.679393	-0.631817	0.471975
O67	O	0.679355	-0.526168	0.510650
O68	O	0.588593	-0.601610	0.502313
O69	O	0.588665	-0.601852	0.593686
O70	O	0.588483	-0.495720	0.449614
Zn71	Zn	0.574158	-0.543990	0.526467
Zn72	Zn	0.693790	-0.583788	0.486496
O73	O	0.588555	-0.495962	0.540987
N74	N	0.775436	-0.610952	0.459215
N75	N	0.104844	-0.129269	0.553931
O76	O	-0.029548	0.057600	0.544709
O77	O	0.114530	0.057617	0.438578
O78	O	0.023130	0.057594	0.438850
O79	O	0.061852	0.057623	0.544437
O80	O	0.053431	-0.033213	0.469115
O81	O	0.144831	-0.033190	0.468843
O82	O	0.000753	-0.033207	0.574974
Zn83	Zn	0.077603	-0.047616	0.526714
Zn84	Zn	0.037680	0.072026	0.486838
O85	O	0.092153	-0.033184	0.574702
N86	N	0.010432	0.153679	0.459622
N87	N	0.105130	-0.516904	0.941437
O88	O	0.095923	-0.651280	1.128292
O89	O	-0.010184	-0.507155	1.128318
O90	O	-0.009938	-0.598539	1.128284
O91	O	0.095677	-0.559897	1.128326
O92	O	0.020315	-0.568257	1.037481
O93	O	0.020068	-0.476874	1.037515
O94	O	0.126176	-0.620999	1.037489
Zn95	Zn	0.077925	-0.544128	1.023085
Zn96	Zn	0.038066	-0.584026	1.142722
O97	O	0.125929	-0.529616	1.037523
N98	N	0.010860	-0.611256	1.224371
C99	C	0.034807	-0.473765	0.439352
C100	C	0.147897	-0.586765	0.439257
C101	C	0.080529	-0.654326	0.574308
C102	C	-0.032561	-0.541326	0.574403
C103	C	0.634087	-0.631571	0.596668
C104	C	0.633999	-0.631272	0.483513
C105	C	0.633858	-0.496206	0.416295
C106	C	0.633949	-0.496507	0.529449
C107	C	0.147793	0.012327	0.439058
C108	C	0.034644	0.012187	0.439432
C109	C	-0.032548	0.012195	0.574457
C110	C	0.080639	0.012222	0.574120
C111	C	-0.009670	-0.473857	1.082920
C112	C	-0.009359	-0.587018	1.082860
C113	C	0.125662	-0.654297	1.082887
C114	C	0.125358	-0.541129	1.082927
H115	H	0.059977	-0.434960	0.822668
H116	H	-0.073925	0.012190	0.607776
H117	H	0.088756	-0.695753	0.607538
O118	O	0.634126	-0.671376	0.646007
C119	C	0.634172	-0.718386	0.645979
H120	H	0.616948	-0.706288	0.613666
H121	H	0.607856	-0.738841	0.687841
H122	H	0.677747	-0.748040	0.636411
O123	O	-0.081973	-0.531654	0.614084
C124	C	-0.106174	-0.569156	0.628793
H125	H	-0.088115	-0.585087	0.593769
H126	H	-0.152109	-0.547966	0.637765
H127	H	-0.097869	-0.604741	0.666738
H128	H	-0.116227	-0.604815	0.338615
H129	H	0.633941	-0.463320	0.537725
O130	O	0.165475	-0.703638	1.082855
C131	C	0.212459	-0.703638	1.082882
H132	H	0.211808	-0.659841	1.065704
H133	H	0.250460	-0.727913	1.056515
H134	H	0.213104	-0.723158	1.126447
H135	H	0.088930	0.012231	0.607291
O136	O	0.633991	-0.670800	0.473562
C137	C	0.633950	-0.650914	0.419899
H138	H	0.616719	-0.604408	0.405552
H139	H	0.607596	-0.667558	0.419126
H140	H	0.677500	-0.664696	0.391626
O141	O	-0.049363	-0.424455	1.082952
C142	C	-0.029707	-0.390477	1.082955
H143	H	0.005343	-0.416735	1.100148
H144	H	-0.064017	-0.364320	1.109324
H145	H	-0.014554	-0.362903	1.039397
O146	O	0.633812	-0.456519	0.366898
C147	C	0.633781	-0.476171	0.332928
H148	H	0.651017	-0.522679	0.347690
H149	H	0.660094	-0.459404	0.289183
H150	H	0.590208	-0.462323	0.334442
H151	H	-0.042525	-0.595273	1.082811
O152	O	0.024746	0.012271	0.399812
C153	C	0.030796	0.059291	0.353761
H154	H	0.024889	0.092172	0.366814
H155	H	-0.001027	0.075064	0.334413
H156	H	0.073417	0.048660	0.322819
O157	O	0.164959	-0.531211	1.082837
C158	C	0.177476	-0.486988	1.035824
H159	H	0.165478	-0.482684	1.002951
H160	H	0.223155	-0.494681	1.020039
H161	H	0.153919	-0.447841	1.046467
O162	O	0.088553	-0.395236	0.714578
C163	C	0.034887	-0.387132	0.752081
H164	H	0.035019	-0.421597	0.792816
H165	H	0.007734	-0.386832	0.735583
H166	H	0.018512	-0.346417	0.758168
O167	O	0.064061	-0.733659	0.387374
C168	C	0.035335	-0.677069	0.372261
H169	H	-0.004776	-0.669218	0.369719
H170	H	0.061053	-0.655386	0.330777
H171	H	0.026500	-0.660842	0.404064
O172	O	0.235271	-0.524793	0.826984
C173	C	0.288935	-0.532864	0.789479
H174	H	0.288804	-0.526475	0.748744
H175	H	0.316096	-0.576212	0.805972
H176	H	0.305301	-0.502435	0.783392
O177	O	0.272663	-0.487107	0.714335
C178	C	0.286454	-0.439079	0.681284
H179	H	0.248775	-0.403164	0.672742
H180	H	0.319581	-0.444184	0.641081
H181	H	0.302160	-0.431051	0.703301
H182	H	0.189085	0.012584	0.405656
O183	O	0.088580	-0.395129	0.675492
C184	C	0.055499	-0.347195	0.646657
H185	H	0.077544	-0.339238	0.600926
H186	H	0.046858	-0.311194	0.656889
H187	H	0.015345	-0.352391	0.658839
H188	H	0.189295	-0.594927	0.405983
O189	O	0.188994	-0.243650	0.499989
C190	C	0.222061	-0.281121	0.471276
H191	H	0.242866	-0.321868	0.498520
H192	H	0.254377	-0.264595	0.433124
H193	H	0.195681	-0.287200	0.458966
H194	H	0.059853	-0.434921	0.635844
H195	H	0.263756	-0.485001	0.585661
O196	O	0.235079	-0.524709	0.545943
C197	C	0.288763	-0.532815	0.537836
H198	H	0.288660	-0.498356	0.544225
H199	H	0.315877	-0.533105	0.494481
H200	H	0.305163	-0.573536	0.568245
O201	O	0.265635	-0.532414	0.664229
C202	C	0.303126	-0.585718	0.667294
H203	H	0.343853	-0.583540	0.633524
H204	H	0.286606	-0.609178	0.662126
H205	H	0.309234	-0.607540	0.708707
H206	H	0.373728	-0.561133	0.625383
H207	H	0.270000	-0.358795	0.596010
O208	O	0.378089	-0.387508	0.557132
C209	C	0.340600	-0.334206	0.554085
H210	H	0.299852	-0.331982	0.557845
H211	H	0.357092	-0.303998	0.513233
H212	H	0.334542	-0.323538	0.588712
H213	H	0.221368	-0.351757	0.543370
H214	H	0.102202	-0.248101	0.678192
O215	O	0.101579	-0.846450	0.425116
C216	C	0.109258	-0.879519	0.476177
H217	H	0.073042	-0.862256	0.509095
H218	H	0.148330	-0.880214	0.474661
H219	H	0.112612	-0.922825	0.486065
H220	H	0.026581	-0.432337	0.406123
O221	O	0.134607	-0.356210	0.721572
C222	C	0.101515	-0.318739	0.750285
H223	H	0.108787	-0.277989	0.723029
H224	H	0.112252	-0.335261	0.788420
H225	H	0.056747	-0.312669	0.762625
O226	O	-0.035193	-0.519231	0.224342
C227	C	-0.092432	-0.495439	0.238218
H228	H	-0.110869	-0.527953	0.253885
H229	H	-0.103305	-0.461744	0.200589
H230	H	-0.109405	-0.477383	0.271398
O231	O	0.056838	-0.703372	0.224522
C232	C	0.064844	-0.757041	0.262033
H233	H	0.058394	-0.756926	0.302798
H234	H	0.108191	-0.784227	0.245592
H235	H	0.034422	-0.773368	0.268041
O236	O	-0.072746	-0.556704	0.336970
C237	C	-0.043874	-0.523701	0.323061
H238	H	0.001851	-0.545820	0.307419
H239	H	-0.054146	-0.515056	0.360666
H240	H	-0.055981	-0.483542	0.289852
H241	H	0.016937	-0.731954	0.332612
H242	H	-0.033252	-0.528055	0.415829
O243	O	-0.072974	-0.556696	0.376033
C244	C	-0.120922	-0.523596	0.404828
H245	H	-0.128944	-0.545650	0.450568
H246	H	-0.156887	-0.514910	0.394515
H247	H	-0.115705	-0.483462	0.392686
H248	H	0.016700	-0.731943	0.465981
O249	O	0.056403	-0.703329	0.505786
C250	C	0.104363	-0.736414	0.476985
H251	H	0.096757	-0.736964	0.443663
H252	H	0.116357	-0.779758	0.506343
H253	H	0.138756	-0.719274	0.457658
O254	O	-0.080805	-0.846122	0.494279
C255	C	-0.134083	-0.808593	0.497282
H256	H	-0.136266	-0.767844	0.493477
H257	H	-0.164313	-0.825040	0.538137
H258	H	-0.144752	-0.802549	0.462661
H259	H	-0.116534	-0.689457	0.508068
O260	O	-0.224644	-0.656999	0.551287
C261	C	-0.187241	-0.690113	0.580081
H262	H	-0.146475	-0.710931	0.552875
H263	H	-0.203816	-0.722422	0.618200
H264	H	-0.181187	-0.663765	0.592453
O265	O	-0.224312	-0.564958	0.367069
C266	C	-0.186760	-0.556930	0.313426
H267	H	-0.146039	-0.563364	0.313612
H268	H	-0.203210	-0.513580	0.286246
H269	H	-0.180667	-0.587355	0.297042
O270	O	-0.118159	-0.733461	0.456491
C271	C	-0.125828	-0.700417	0.405424
H272	H	-0.086496	-0.691915	0.373641
H273	H	-0.160124	-0.660193	0.408663
H274	H	-0.137067	-0.722422	0.392672
