data_functionalizedCrystal
_audit_creation_method	'MofGen! by Chris Wilmer'
_symmetry_space_group_name_H-M	'P1'
_symmetry_Int_Tables_number	1
_symmetry_cell_setting	triclinic
loop_
_symmetry_equiv_pos_as_xyz
  x,y,z
_cell_length_a	21.395362
_cell_length_b	10.685194
_cell_length_c	21.395355
_cell_angle_alpha	94.385537
_cell_angle_beta	90.043940
_cell_angle_gamma	94.391346
loop_
_atom_site_label
_atom_site_type_symbol
_atom_site_fract_x
_atom_site_fract_y
_atom_site_fract_z
Zn1	Zn	0.938850	-0.502024	0.335480
Zn2	Zn	0.930763	-0.713028	0.222672
Zn3	Zn	0.834063	-0.502082	0.230679
Zn4	Zn	0.826044	-0.713054	0.327376
O5	O	0.882430	-0.607547	0.279052
O6	O	1.025457	-0.529978	0.320556
O7	O	0.917907	-0.685060	0.136056
O8	O	0.854704	-0.325476	0.251323
O9	O	1.019515	-0.685003	0.237677
O10	O	0.931691	-0.325433	0.328320
O11	O	0.846862	-0.530079	0.141938
O12	O	0.745320	-0.530104	0.243465
O13	O	0.841036	-0.685047	0.416129
O14	O	0.739428	-0.685104	0.314508
O15	O	0.923915	-0.530004	0.422083
O16	O	0.910131	-0.889630	0.229819
O17	O	0.833194	-0.889649	0.306744
C18	C	0.719640	-0.607614	0.278976
C19	C	0.649996	-0.607673	0.278958
C20	C	0.614228	-0.688488	0.315886
C21	C	0.548794	-0.688457	0.315915
C22	C	0.519130	-0.607624	0.279004
C23	C	0.554907	-0.526793	0.242074
C24	C	0.620340	-0.526817	0.242051
C25	C	0.415790	-0.597458	0.222986
C26	C	0.350358	-0.597442	0.223008
C27	C	0.317312	-0.607542	0.279077
C28	C	0.349706	-0.617683	0.335124
C29	C	0.415140	-0.617708	0.335101
C30	C	0.448179	-0.607588	0.279026
C31	C	0.210592	-0.688328	0.316039
C32	C	0.145157	-0.688288	0.316070
C33	C	0.151272	-0.526631	0.242223
C34	C	0.216706	-0.526664	0.242199
C35	C	0.246362	-0.607519	0.279106
C36	C	0.869932	-0.935430	0.266547
C37	C	0.864643	-1.075699	0.261218
C38	C	1.045856	-0.607481	0.279127
C39	C	1.115498	-0.607453	0.279160
C40	C	0.882483	-0.607522	0.442476
C41	C	0.882506	-0.607511	0.512118
C42	C	0.894994	-0.278384	0.291619
C43	C	0.900348	-0.138115	0.296974
C44	C	0.882417	-0.607482	0.116266
C45	C	0.882529	-0.607137	0.046639
C46	C	0.925659	-0.526776	0.547932
C47	C	0.925660	-0.526722	0.613370
C48	C	0.882514	-0.607425	0.642989
C49	C	0.839353	-0.688165	0.607167
C50	C	0.839348	-0.688208	0.541731
C51	C	0.873235	-0.721058	0.742328
C52	C	0.873244	-0.721017	0.807763
C53	C	0.882523	-0.607291	0.844815
C54	C	0.891807	-0.493603	0.816425
C55	C	0.891803	-0.493646	0.750989
C56	C	0.882513	-0.607386	0.713943
C57	C	0.925680	-0.526491	0.951585
C58	C	0.925677	-0.526435	1.017024
C59	C	0.839372	-0.687889	1.010819
C60	C	0.839372	-0.687934	0.945382
C61	C	0.882529	-0.607237	0.915769
H62	H	0.649463	-0.461004	0.211980
H63	H	0.322802	-0.625905	0.380781
C64	C	0.932340	-1.097133	0.404648
C65	C	0.947081	-1.065393	0.343808
H66	H	0.961189	-1.052225	0.433561
H67	H	0.934799	-1.185007	0.407086
H68	H	0.891036	-1.075673	0.414561
H69	H	0.988384	-1.086862	0.333894
H70	H	0.944628	-0.977500	0.341368
H71	H	0.960818	-0.460776	0.927473
C72	C	0.774824	-1.224266	0.246826
C73	C	0.817903	-1.148424	0.214385
H74	H	0.745972	-1.269168	0.217913
H75	H	0.752764	-1.172869	0.276018
H76	H	0.796521	-1.282213	0.268541
H77	H	0.796207	-1.090471	0.192673
H78	H	0.839966	-1.199826	0.185182
H79	H	0.865688	-0.813589	0.830873
H80	H	0.960800	-0.461065	0.523825
H81	H	0.530751	-0.460976	0.212023
H82	H	0.804235	-0.753586	1.034935
C83	C	1.010980	-0.367162	0.612936
C84	C	0.973101	-0.437981	0.652747
H85	H	1.040270	-0.312385	0.637245
H86	H	0.985526	-0.318907	0.589234
H87	H	1.032841	-0.422169	0.585335
H88	H	0.951236	-0.382973	0.680345
H89	H	0.998558	-0.486239	0.676459
H90	H	0.442691	-0.589228	0.177325
C91	C	0.854736	-0.290474	0.738535
C92	C	0.901997	-0.368687	0.719781
H93	H	0.861026	-0.213332	0.719265
H94	H	0.856073	-0.274170	0.782803
H95	H	0.815056	-0.330872	0.726246
H96	H	0.941677	-0.328293	0.732074
H97	H	0.900666	-0.384989	0.675504
C98	C	0.326663	-0.687379	0.118613
C99	C	0.314759	-0.586299	0.161399
H100	H	0.304691	-0.680493	0.080575
H101	H	0.313008	-0.764251	0.135652
H102	H	0.370364	-0.685929	0.110586
H103	H	0.271058	-0.587754	0.169429
H104	H	0.328410	-0.509407	0.144356
C105	C	0.549315	-0.848259	0.388902
C106	C	0.509467	-0.777291	0.356511
H107	H	0.525036	-0.903103	0.413962
H108	H	0.576969	-0.793360	0.414998
H109	H	0.572958	-0.896462	0.359712
H110	H	0.485827	-0.729082	0.385702
H111	H	0.481801	-0.832198	0.330414
H112	H	0.960816	-0.460684	1.046183
C113	C	0.849677	-0.352247	0.895331
C114	C	0.901995	-0.368573	0.857138
H115	H	0.855964	-0.275055	0.920463
H116	H	0.844159	-0.419928	0.921606
H117	H	0.813427	-0.350665	0.869825
H118	H	0.938245	-0.370164	0.882644
H119	H	0.907520	-0.300874	0.830860
H120	H	0.234740	-0.754159	0.346095
H121	H	0.865512	-0.813643	0.712167
H122	H	0.441512	-0.625962	0.380737
C123	C	0.754069	-0.847518	0.945824
C124	C	0.791940	-0.776691	0.906010
H125	H	0.724787	-0.902317	0.921515
H126	H	0.732204	-0.792527	0.973419
H127	H	0.779533	-0.895762	0.969530
H128	H	0.766477	-0.728440	0.882306
H129	H	0.813807	-0.831689	0.878403
C130	C	0.754044	-0.847750	0.594463
C131	C	0.791925	-0.776876	0.639721
H132	H	0.724760	-0.902509	0.614562
H133	H	0.779497	-0.896026	0.567124
H134	H	0.732177	-0.792776	0.571015
H135	H	0.813796	-0.831850	0.663165
H136	H	0.766468	-0.728596	0.667070
C137	C	0.687216	-0.706297	0.399451
C138	C	0.646825	-0.777348	0.356462
H139	H	0.707343	-0.761156	0.424499
H140	H	0.663820	-0.651385	0.425559
H141	H	0.717885	-0.658180	0.377446
H142	H	0.616153	-0.825459	0.378467
H143	H	0.670223	-0.832282	0.330350
C144	C	0.145689	-0.848109	0.389045
C145	C	0.105837	-0.777134	0.356662
H146	H	0.121412	-0.902965	0.414100
H147	H	0.173342	-0.793215	0.415144
H148	H	0.169332	-0.896298	0.359849
H149	H	0.082197	-0.728937	0.385857
H150	H	0.078173	-0.832035	0.330561
C151	C	0.824165	-0.858008	0.461676
C152	C	0.791916	-0.776963	0.502356
H153	H	0.794881	-0.912797	0.437365
H154	H	0.849614	-0.906250	0.485390
H155	H	0.849862	-0.809937	0.434678
H156	H	0.766222	-0.825034	0.529357
H157	H	0.766456	-0.728717	0.478640
C158	C	0.078302	-0.508866	0.158640
C159	C	0.118684	-0.437795	0.201630
H160	H	0.058188	-0.454022	0.133573
H161	H	0.047628	-0.556958	0.180640
H162	H	0.101707	-0.563804	0.132545
H163	H	0.095278	-0.382863	0.227728
H164	H	0.149363	-0.389682	0.179628
H165	H	0.245829	-0.460861	0.212125
