data_functionalizedCrystal
_audit_creation_method	'MofGen! by Chris Wilmer'
_symmetry_space_group_name_H-M	'P1'
_symmetry_Int_Tables_number	1
_symmetry_cell_setting	triclinic
loop_
_symmetry_equiv_pos_as_xyz
  x,y,z
_cell_length_a	14.853567
_cell_length_b	14.519709
_cell_length_c	13.330367
_cell_angle_alpha	89.994415
_cell_angle_beta	89.995418
_cell_angle_gamma	83.657538
loop_
_atom_site_label
_atom_site_type_symbol
_atom_site_fract_x
_atom_site_fract_y
_atom_site_fract_z
O1	O	1.196416	0.120405	-0.083357
O2	O	0.933962	0.134748	-0.083374
O3	O	1.072147	-0.006665	-0.083356
O4	O	1.058230	0.261818	-0.083375
O5	O	1.072127	-0.006668	0.083491
O6	O	0.933942	0.134745	0.083473
O7	O	1.196395	0.120402	0.083491
Cu8	Cu	1.065167	0.127573	0.098716
Cu9	Cu	1.065190	0.127577	-0.098600
O10	O	1.058210	0.261814	0.083472
C11	C	0.900363	0.134096	0.000047
C12	C	0.800278	0.132149	0.000041
C13	C	0.387709	0.039914	0.000070
C14	C	0.366493	0.207916	0.000057
C15	C	0.460527	0.209747	0.000054
C16	C	0.518157	0.126660	0.000057
C17	C	0.481752	0.041743	0.000064
C18	C	0.496939	0.294663	0.000037
C19	C	0.590979	0.296498	0.000033
C20	C	0.648610	0.213410	0.000043
C21	C	0.612200	0.128489	0.000051
C22	C	0.669830	0.045403	0.000054
C23	C	0.633422	-0.039520	0.000069
C24	C	0.539383	-0.041345	0.000074
C25	C	0.742649	0.215235	0.000038
C26	C	0.763873	0.047231	0.000048
C27	C	1.071488	-0.041026	0.000068
C28	C	1.069545	-0.143407	0.000068
C29	C	1.062390	-0.518299	0.000042
C30	C	1.064377	-0.413992	0.000050
C31	C	1.065967	-0.330856	0.000056
C32	C	1.067955	-0.226543	0.000062
C33	C	1.229994	0.121053	0.000067
C34	C	1.330079	0.123001	0.000067
C35	C	1.058869	0.296175	0.000046
C36	C	1.060812	0.398556	0.000039
N37	N	1.065157	0.127570	0.237498
N38	N	1.065208	0.127572	-0.237381
C39	C	1.003999	0.190170	0.710113
C40	C	1.126406	0.064976	0.710097
C41	C	1.126396	0.064974	0.605078
C42	C	1.065187	0.127571	0.552572
C43	C	1.003989	0.190170	0.605085
C44	C	1.187599	0.002381	0.552558
C45	C	1.187592	0.002376	0.447534
C46	C	1.126378	0.064970	0.395026
C47	C	1.065177	0.127572	0.447544
C48	C	1.003968	0.190169	0.395038
C49	C	0.942762	0.252767	0.447555
C50	C	0.942775	0.252764	0.552577
C51	C	1.126365	0.064973	0.290004
C52	C	1.003958	0.190170	0.290010
H53	H	0.319566	0.275561	0.000046
O54	O	0.440832	0.375282	0.000080
C55	C	0.286553	0.446913	0.000040
C56	C	0.349996	0.355540	0.000010
H57	H	0.213099	0.430984	-0.000038
H58	H	0.299744	0.488706	0.069877
H59	H	0.299857	0.488700	-0.069774
H60	H	0.336729	0.313679	0.069777
H61	H	0.336792	0.313817	-0.069873
H62	H	0.954111	0.241141	0.247266
H63	H	1.237438	-0.048579	0.595312
O64	O	1.247073	-0.058522	0.396679
C65	C	1.368520	-0.182665	0.407756
C66	C	1.301195	-0.113759	0.465475
H67	H	1.412308	-0.227329	0.463352
H68	H	1.329565	-0.228875	0.358634
H69	H	1.413571	-0.142749	0.358541
H70	H	1.256127	-0.153599	0.514745
H71	H	1.340206	-0.067550	0.514534
H72	H	0.892929	0.303738	0.404792
H73	H	0.892944	0.303730	0.595342
H74	H	0.954163	0.241134	0.752874
O75	O	0.689278	-0.120314	0.000024
C76	C	0.700421	-0.287144	0.000098
C77	C	0.637057	-0.195719	0.000128
H78	H	0.658225	-0.348134	0.000203
H79	H	0.744955	-0.290545	-0.069752
H80	H	0.745001	-0.290432	0.069899
H81	H	0.592420	-0.192370	-0.069626
H82	H	0.592584	-0.192356	0.070023
H83	H	0.509731	-0.110484	0.000110
O84	O	0.819889	-0.033457	0.000227
C85	C	0.938416	-0.128872	0.086628
C86	C	0.875017	-0.037470	0.086562
H87	H	0.983017	-0.132138	0.156412
H88	H	0.896283	-0.189912	0.086704
H89	H	0.982928	-0.132204	0.016765
H90	H	0.830492	-0.034047	0.156414
H91	H	0.917204	0.023527	0.086434
O92	O	0.626192	0.379066	0.000071
C93	C	0.595217	0.545510	0.000005
C94	C	0.555216	0.452067	-0.000020
H95	H	0.537851	0.604556	-0.000090
H96	H	0.638674	0.550627	0.069847
H97	H	0.638749	0.550521	-0.069804
H98	H	0.511642	0.446994	0.069741
H99	H	0.511811	0.446990	-0.069909
O100	O	1.185848	0.004085	0.239145
C101	C	1.307307	-0.120044	0.250218
C102	C	1.239975	-0.051149	0.307939
H103	H	1.351099	-0.164706	0.305813
H104	H	1.268359	-0.166258	0.201093
H105	H	1.352354	-0.080120	0.201005
H106	H	1.194912	-0.090997	0.357206
H107	H	1.278979	-0.004935	0.357001
H108	H	1.176245	0.014016	0.752851
O109	O	0.352198	-0.042495	0.000039
C110	C	0.216736	-0.119779	0.000126
C111	C	0.256832	-0.026387	0.000137
H112	H	0.139628	-0.106787	0.000227
H113	H	0.240392	-0.160856	-0.069714
H114	H	0.240516	-0.160840	0.069937
H115	H	0.233070	0.014750	-0.069626
H116	H	0.233180	0.014620	0.070024
H117	H	0.772288	0.284378	0.000027
