data_functionalizedCrystal
_audit_creation_method	'MofGen! by Chris Wilmer'
_symmetry_space_group_name_H-M	'P1'
_symmetry_Int_Tables_number	1
_symmetry_cell_setting	triclinic
loop_
_symmetry_equiv_pos_as_xyz
  x,y,z
_cell_length_a	19.121102
_cell_length_b	21.295417
_cell_length_c	19.121175
_cell_angle_alpha	92.410242
_cell_angle_beta	85.212968
_cell_angle_gamma	87.584620
loop_
_atom_site_label
_atom_site_type_symbol
_atom_site_fract_x
_atom_site_fract_y
_atom_site_fract_z
Zn1	Zn	1.092589	-0.309425	-0.443646
Zn2	Zn	1.425922	0.023909	-0.110312
Zn3	Zn	1.759255	0.357242	0.223021
Zn4	Zn	1.087478	-0.410000	-0.325971
Zn5	Zn	1.420812	-0.076666	0.007362
Zn6	Zn	1.754145	0.256667	0.340696
Zn7	Zn	0.969914	-0.300055	-0.320984
Zn8	Zn	1.303248	0.033278	0.012349
Zn9	Zn	1.636581	0.366611	0.345682
Zn10	Zn	0.974878	-0.409958	-0.438583
Zn11	Zn	1.308212	-0.076625	-0.105250
Zn12	Zn	1.641545	0.256708	0.228084
O13	O	1.031215	-0.357359	-0.382296
O14	O	1.364548	-0.024026	-0.048963
O15	O	1.697882	0.309307	0.284371
O16	O	1.190374	-0.326704	-0.432242
O17	O	1.523707	0.006629	-0.098908
O18	O	1.857040	0.339962	0.234425
O19	O	1.067667	-0.391512	-0.226847
O20	O	1.401001	-0.058178	0.106487
O21	O	1.734334	0.275155	0.439820
O22	O	0.986249	-0.213212	-0.337287
O23	O	1.319582	0.120121	-0.003954
O24	O	1.652915	0.453454	0.329379
O25	O	1.186619	-0.400597	-0.345786
O26	O	1.519953	-0.067263	-0.012453
O27	O	1.853286	0.266070	0.320880
O28	O	1.076377	-0.220096	-0.427406
O29	O	1.409710	0.113237	-0.094073
O30	O	1.743043	0.446571	0.239260
O31	O	0.981293	-0.310736	-0.223183
O32	O	1.314627	0.022597	0.110150
O33	O	1.647960	0.355931	0.443484
O34	O	0.872110	-0.310696	-0.332378
O35	O	1.205443	0.022637	0.000955
O36	O	1.538776	0.355971	0.334288
O37	O	0.994709	-0.400526	-0.537717
O38	O	1.328042	-0.067193	-0.204384
O39	O	1.661375	0.266141	0.128949
O40	O	0.875757	-0.391441	-0.418778
O41	O	1.209090	-0.058108	-0.085444
O42	O	1.542423	0.275226	0.247889
O43	O	1.081190	-0.326664	-0.541437
O44	O	1.414523	0.006669	-0.208104
O45	O	1.747857	0.340002	0.125230
O46	O	1.072481	-0.498080	-0.340877
O47	O	1.405814	-0.164747	-0.007544
O48	O	1.739147	0.168587	0.325789
O49	O	0.989754	-0.498050	-0.423613
O50	O	1.323087	-0.164716	-0.090280
O51	O	1.656420	0.168617	0.243054
C52	C	0.848403	-0.350048	-0.374488
C53	C	1.181736	-0.016714	-0.041154
C54	C	1.515069	0.316619	0.292179
C55	C	0.770196	-0.346936	-0.371164
C56	C	1.103529	-0.013602	-0.037831
C57	C	1.436862	0.319731	0.295503
C58	C	0.735368	-0.387571	-0.414515
C59	C	1.068701	-0.054238	-0.081182
C60	C	1.402035	0.279096	0.252151
C61	C	0.661884	-0.384639	-0.411396
C62	C	0.995218	-0.051305	-0.078063
C63	C	1.328551	0.282028	0.255271
C64	C	0.623229	-0.341073	-0.364921
C65	C	0.956563	-0.007740	-0.031588
C66	C	1.289896	0.325593	0.301746
C67	C	0.658062	-0.300434	-0.321568
C68	C	0.991396	0.032900	0.011765
C69	C	1.324729	0.366233	0.345099
C70	C	0.731545	-0.303363	-0.324691
C71	C	1.064878	0.029970	0.008642
C72	C	1.398211	0.363303	0.341975
C73	C	0.401264	-0.330118	-0.353246
C74	C	0.734597	0.003215	-0.019913
C75	C	1.067931	0.336548	0.313421
C76	C	0.327776	-0.327193	-0.350124
C77	C	0.661110	0.006140	-0.016791
C78	C	0.994443	0.339474	0.316542
C79	C	0.331603	-0.411398	-0.439954
C80	C	0.664937	-0.078064	-0.106620
C81	C	0.998270	0.255269	0.226713
C82	C	0.405087	-0.414326	-0.443070
C83	C	0.738420	-0.080993	-0.109737
C84	C	1.071754	0.252341	0.223597
C85	C	0.439914	-0.373684	-0.399720
C86	C	0.773247	-0.040351	-0.066386
C87	C	1.106580	0.292983	0.266947
C88	C	0.548117	-0.338076	-0.361730
C89	C	0.881450	-0.004743	-0.028396
C90	C	1.214784	0.328590	0.304937
C91	C	0.515025	-0.376679	-0.402915
C92	C	0.848358	-0.043345	-0.069582
C93	C	1.181691	0.289988	0.263752
C94	C	1.031121	-0.520906	-0.382253
C95	C	1.364454	-0.187573	-0.048920
C96	C	1.697788	0.145761	0.284414
C97	C	1.031146	-0.590875	-0.382261
C98	C	1.364479	-0.257542	-0.048928
C99	C	1.697813	0.075791	0.284406
C100	C	1.074264	-0.623740	-0.339228
C101	C	1.407597	-0.290407	-0.005895
C102	C	1.740931	0.042926	0.327438
C103	C	1.074298	-0.689485	-0.339246
C104	C	1.407631	-0.356151	-0.005912
C105	C	1.740964	-0.022818	0.327421
C106	C	1.031201	-0.722361	-0.382288
C107	C	1.364534	-0.389028	-0.048954
C108	C	1.697867	-0.055694	0.284379
C109	C	0.988080	-0.689488	-0.425329
C110	C	1.321413	-0.356155	-0.091995
C111	C	1.654747	-0.022821	0.241338
C112	C	0.988053	-0.623745	-0.425316
C113	C	1.321386	-0.290412	-0.091982
C114	C	1.654719	0.042921	0.241351
N115	N	0.969877	-0.823383	-0.385023
N116	N	1.303210	-0.490049	-0.051689
N117	N	1.636543	-0.156716	0.281644
N118	N	0.969904	-0.885836	-0.385031
N119	N	1.303238	-0.552502	-0.051698
N120	N	1.636571	-0.219169	0.281636
C121	C	1.031281	-0.920440	-0.382331
C122	C	1.364614	-0.587107	-0.048998
C123	C	1.697948	-0.253774	0.284335
N124	N	1.092630	-0.890232	-0.379609
N125	N	1.425963	-0.556899	-0.046275
N126	N	1.759297	-0.223566	0.287058
N127	N	1.092601	-0.827774	-0.379596
N128	N	1.425935	-0.494440	-0.046263
N129	N	1.759268	-0.161107	0.287070
C130	C	1.031226	-0.793648	-0.382307
C131	C	1.364559	-0.460315	-0.048974
C132	C	1.697892	-0.126981	0.284360
C133	C	1.074439	-1.024593	-0.339315
C134	C	1.407772	-0.691260	-0.005982
C135	C	1.741106	-0.357926	0.327352
C136	C	1.074474	-1.090339	-0.339337
C137	C	1.407807	-0.757006	-0.006004
C138	C	1.741141	-0.423672	0.327329
C139	C	0.988250	-1.090341	-0.425416
C140	C	1.321583	-0.757007	-0.092083
C141	C	1.654917	-0.423674	0.241250
C142	C	0.988222	-1.024596	-0.425398
C143	C	1.321555	-0.691263	-0.092065
C144	C	1.654888	-0.357930	0.241268
C145	C	1.031315	-0.991726	-0.382344
C146	C	1.364648	-0.658393	-0.049010
C147	C	1.697982	-0.325060	0.284323
C148	C	1.214741	-0.364700	-0.390135
C149	C	1.548074	-0.031367	-0.056802
C150	C	1.881407	0.301966	0.276532
C151	C	1.292949	-0.367828	-0.393476
C152	C	1.626282	-0.034495	-0.060142
C153	C	1.959615	0.298838	0.273191
C154	C	1.039073	-0.364636	-0.565821
C155	C	1.372406	-0.031302	-0.232488
C156	C	1.705740	0.302031	0.100845
C157	C	1.042422	-0.367736	-0.644029
C158	C	1.375755	-0.034403	-0.310696
C159	C	1.709088	0.298930	0.022638
C160	C	1.031329	-0.193176	-0.382355
C161	C	1.364662	0.140158	-0.049022
C162	C	1.697996	0.473491	0.284311
C163	C	1.031378	-0.123211	-0.382381
C164	C	1.364711	0.210123	-0.049047
C165	C	1.698044	0.543456	0.284286
C166	C	0.999027	-0.327138	-0.678863
C167	C	1.332360	0.006195	-0.345530
C168	C	1.665693	0.339528	-0.012196
C169	C	1.002171	-0.330057	-0.752347
C170	C	1.335504	0.003277	-0.419014
C171	C	1.668837	0.336610	-0.085681
C172	C	1.048713	-0.373571	-0.790996
C173	C	1.382047	-0.040237	-0.457663
C174	C	1.715380	0.293096	-0.124329
C175	C	1.092110	-0.414173	-0.756157
C176	C	1.425444	-0.080840	-0.422824
C177	C	1.758777	0.252494	-0.089490
C178	C	1.088962	-0.411257	-0.682674
C179	C	1.422296	-0.077924	-0.349341
C180	C	1.755629	0.255410	-0.016007
C181	C	1.060464	-0.384482	-1.012963
C182	C	1.393798	-0.051148	-0.679629
C183	C	1.727131	0.282185	-0.346296
C184	C	1.063610	-0.387393	-1.086451
C185	C	1.396944	-0.054060	-0.753118
C186	C	1.730277	0.279273	-0.419784
C187	C	0.973669	-0.303277	-1.082636
C188	C	1.307003	0.030056	-0.749303
C189	C	1.640336	0.363389	-0.415969
C190	C	0.970529	-0.300363	-1.009152
C191	C	1.303862	0.032970	-0.675819
C192	C	1.637195	0.366304	-0.342485
C193	C	1.013923	-0.340967	-0.974319
C194	C	1.347256	-0.007634	-0.640986
C195	C	1.680589	0.325699	-0.307652
C196	C	1.051930	-0.376554	-0.866109
C197	C	1.385263	-0.043220	-0.532776
C198	C	1.718596	0.290113	-0.199442
C199	C	1.010703	-0.337987	-0.899207
C200	C	1.344036	-0.004654	-0.565874
C201	C	1.677369	0.328680	-0.232541
C202	C	1.023428	-0.350068	-0.199486
C203	C	1.356761	-0.016735	0.133847
C204	C	1.690094	0.316599	0.467180
C205	C	1.020215	-0.346795	-0.121285
C206	C	1.353549	-0.013462	0.212048
C207	C	1.686882	0.319871	0.545382
H208	H	0.303240	-0.444485	-0.475248
H209	H	0.636573	-0.111152	-0.141915
H210	H	0.969906	0.222181	0.191419
H211	H	0.952940	-0.596986	-0.460359
H212	H	1.286274	-0.263653	-0.127025
H213	H	1.619607	0.069681	0.206308
H214	H	0.633531	-0.417729	-0.446697
H215	H	0.966864	-0.084396	-0.113363
H216	H	1.300198	0.248938	0.219970
H217	H	1.109590	-1.117097	-0.304297
H218	H	1.442924	-0.783763	0.029037
H219	H	1.776257	-0.450430	0.362370
C220	C	0.940844	-1.126501	-0.472765
C221	C	1.274177	-0.793167	-0.139431
C222	C	1.607511	-0.459834	0.193902
N223	N	0.905138	-1.153740	-0.508430
N224	N	1.238471	-0.820406	-0.175097
N225	N	1.571804	-0.487073	0.158237
C226	C	0.954440	-0.285389	-0.790662
C227	C	1.287773	0.047944	-0.457328
C228	C	1.621106	0.381277	-0.123995
N229	N	0.918488	-0.251742	-0.819520
N230	N	1.251822	0.081592	-0.486186
N231	N	1.585155	0.414925	-0.152853
H232	H	0.938340	-0.270220	-1.111005
H233	H	1.271673	0.063113	-0.777672
H234	H	1.605006	0.396446	-0.444338
H235	H	1.109531	-0.997829	-0.304260
H236	H	1.442864	-0.664496	0.029074
H237	H	1.776197	-0.331163	0.362407
H238	H	0.953108	-0.997836	-0.460436
H239	H	1.286441	-0.664502	-0.127103
H240	H	1.619774	-0.331169	0.206230
H241	H	0.972805	-0.302560	-0.867736
H242	H	1.306139	0.030773	-0.534403
H243	H	1.639472	0.364106	-0.201070
C244	C	1.108239	-0.429115	-0.974658
C245	C	1.441572	-0.095781	-0.641325
C246	C	1.774906	0.237552	-0.307991
N247	N	1.144239	-0.462723	-0.945805
N248	N	1.477572	-0.129389	-0.612472
N249	N	1.810906	0.203944	-0.279138
C250	C	1.136704	-0.455916	-0.644357
C251	C	1.470037	-0.122582	-0.311024
C252	C	1.803370	0.210751	0.022310
N253	N	1.172663	-0.489554	-0.615498
N254	N	1.505997	-0.156221	-0.282164
N255	N	1.839330	0.177112	0.051169
C256	C	0.505589	-0.290157	-0.310606
C257	C	0.838923	0.043176	0.022727
C258	C	1.172256	0.376509	0.356061
N259	N	0.473555	-0.254064	-0.272100
N260	N	0.806889	0.079269	0.061233
N261	N	1.140222	0.412602	0.394566
H262	H	1.101514	-0.422828	-1.117917
H263	H	1.434847	-0.089495	-0.784584
H264	H	1.768181	0.243838	-0.451250
C265	C	1.143148	-0.462175	-0.798666
C266	C	1.476481	-0.128842	-0.465333
C267	C	1.809815	0.204492	-0.132000
N268	N	1.181535	-0.498379	-0.830681
N269	N	1.514869	-0.165045	-0.497348
N270	N	1.848202	0.168288	-0.164015
C271	C	0.919327	-0.252495	-0.966643
C272	C	1.252660	0.080838	-0.633310
C273	C	1.585993	0.414171	-0.299977
N274	N	0.880761	-0.216440	-0.934626
N275	N	1.214095	0.116893	-0.601292
N276	N	1.547428	0.450227	-0.267959
C277	C	0.947825	-0.279269	-0.636356
C278	C	1.281159	0.054064	-0.303022
C279	C	1.614492	0.387397	0.030311
N280	N	0.909257	-0.243215	-0.604341
N281	N	1.242590	0.090119	-0.271008
N282	N	1.575923	0.423452	0.062325
H283	H	1.089824	-0.411983	-0.897585
H284	H	1.423158	-0.078650	-0.564252
H285	H	1.756491	0.254683	-0.230918
H286	H	0.766836	-0.423049	-0.452358
H287	H	1.100169	-0.089715	-0.119025
H288	H	1.433502	0.243618	0.214309
H289	H	0.296306	-0.291710	-0.312283
H290	H	0.629639	0.041624	0.021050
H291	H	0.962972	0.374957	0.354384
C292	C	0.615539	-0.252510	-0.270447
C293	C	0.948873	0.080824	0.062887
C294	C	1.282206	0.414157	0.396220
N295	N	0.583512	-0.216414	-0.231939
N296	N	0.916845	0.116920	0.101394
N297	N	1.250178	0.450253	0.434727
C298	C	0.447602	-0.462254	-0.494193
C299	C	0.780935	-0.128921	-0.160859
C300	C	1.114269	0.204412	0.172474
N301	N	0.479624	-0.498357	-0.532696
N302	N	0.812957	-0.165024	-0.199363
N303	N	1.146291	0.168310	0.133971
C304	C	0.769855	-0.258662	-0.277000
C305	C	1.103188	0.074671	0.056333
C306	C	1.436521	0.408004	0.389667
N307	N	0.798709	-0.224991	-0.241078
N308	N	1.132042	0.108342	0.092255
N309	N	1.465375	0.441676	0.425588
H310	H	0.546501	-0.412147	-0.440758
H311	H	0.879834	-0.078813	-0.107424
H312	H	1.213167	0.254520	0.225909
C313	C	1.121660	-0.587586	-0.291859
C314	C	1.454994	-0.254253	0.041474
C315	C	1.788327	0.079080	0.374808
N316	N	1.157357	-0.560354	-0.256177
N317	N	1.490690	-0.227021	0.077156
N318	N	1.824023	0.106313	0.410490
H319	H	0.429611	-0.297029	-0.317942
H320	H	0.762944	0.036304	0.015392
H321	H	1.096277	0.369637	0.348725
H322	H	1.109412	-0.716249	-0.304204
H323	H	1.442745	-0.382915	0.029130
H324	H	1.776078	-0.049582	0.362463
H325	H	0.952991	-0.716260	-0.460375
H326	H	1.286325	-0.382927	-0.127042
H327	H	1.619658	-0.049593	0.206292
