data_functionalizedCrystal
_audit_creation_method	'MofGen! by Chris Wilmer'
_symmetry_space_group_name_H-M	'P1'
_symmetry_Int_Tables_number	1
_symmetry_cell_setting	triclinic
loop_
_symmetry_equiv_pos_as_xyz
  x,y,z
_cell_length_a	11.026607
_cell_length_b	10.654562
_cell_length_c	9.130313
_cell_angle_alpha	89.996930
_cell_angle_beta	90.000037
_cell_angle_gamma	96.538060
loop_
_atom_site_label
_atom_site_type_symbol
_atom_site_fract_x
_atom_site_fract_y
_atom_site_fract_z
O1	O	0.170837	1.704908	-0.121893
O2	O	0.187091	1.342960	-0.121875
O3	O	0.002057	1.493936	-0.121877
O4	O	0.355871	1.553932	-0.121891
O5	O	0.002062	1.493935	0.121721
O6	O	0.187096	1.342959	0.121724
O7	O	0.170842	1.704907	0.121705
Cu8	Cu	0.178969	1.523933	0.143957
Cu9	Cu	0.178964	1.523934	-0.144127
O10	O	0.355876	1.553931	0.121708
C11	C	0.185897	1.295902	-0.000073
C12	C	0.182316	1.155682	-0.000066
C13	C	0.180649	1.089788	0.132708
C14	C	0.177295	0.958038	0.132684
C15	C	0.177280	0.958087	-0.132901
C16	C	0.180626	1.089835	-0.132875
C17	C	0.180663	1.089759	0.286042
C18	C	0.177309	0.958009	0.286017
C19	C	-0.043245	1.482867	-0.000079
C20	C	-0.178238	1.449873	-0.000083
C21	C	-0.251273	1.540976	-0.000089
C22	C	-0.390796	1.506877	-0.000093
C23	C	0.401178	1.564999	-0.000094
C24	C	0.536171	1.597994	-0.000100
C25	C	0.172036	1.751965	-0.000100
C26	C	0.175617	1.892185	-0.000116
N27	N	0.178973	1.523941	0.346580
N28	N	0.178951	1.523934	-0.346749
C29	C	0.097068	1.590821	0.423231
C30	C	0.097053	1.590814	0.576567
C31	C	0.260859	1.457045	0.576589
C32	C	0.260867	1.457045	0.423255
C33	C	0.002500	1.668056	0.423219
C34	C	0.002485	1.668049	0.576556
H35	H	0.088638	0.909173	0.333600
H36	H	0.261336	0.929962	0.344879
O37	O	0.080330	1.122979	0.356269
C38	C	-0.105760	1.051148	0.484373
C39	C	0.007792	1.013350	0.404853
H40	H	-0.164426	0.962537	0.523702
H41	H	-0.160970	1.105559	0.405951
H42	H	-0.075899	1.113352	0.582434
H43	H	-0.021962	0.951104	0.306796
H44	H	0.062975	0.959005	0.483372
O45	O	0.286489	1.147811	0.342904
C46	C	0.482000	1.121943	0.449528
C47	C	0.362197	1.056035	0.385203
H48	H	0.543253	1.047773	0.483715
H49	H	0.460800	1.180195	0.549114
H50	H	0.530675	1.186673	0.363268
H51	H	0.313462	0.991243	0.471355
H52	H	0.383478	0.997862	0.285585
O53	O	-0.439209	1.383636	-0.000156
C54	C	-0.399276	1.165936	-0.000056
C55	C	-0.344286	1.305449	-0.000019
H56	H	-0.322558	1.102682	0.000086
H57	H	-0.457951	1.145857	-0.102029
H58	H	-0.458046	1.145988	0.101862
H59	H	-0.285461	1.325495	-0.101868
H60	H	-0.285682	1.325457	0.102022
O61	O	0.182021	1.153883	-0.261812
C62	C	0.080672	1.293162	-0.415853
C63	C	0.078928	1.220667	-0.269791
H64	H	-0.002655	1.347197	-0.422339
H65	H	0.078815	1.223518	-0.510835
H66	H	0.167212	1.362514	-0.422474
H67	H	-0.007597	1.151315	-0.263027
H68	H	0.080851	1.290385	-0.174879
H69	H	-0.423071	1.701243	-0.000215
H70	H	-0.219003	1.346631	-0.000087
O71	O	0.340453	1.391958	0.650847
C72	C	0.502972	1.259334	0.634683
C73	C	0.412877	1.332971	0.550409
H74	H	0.561567	1.211645	0.553515
H75	H	0.449961	1.184536	0.706423
H76	H	0.564145	1.327392	0.706518
H77	H	0.351681	1.265011	0.478494
H78	H	0.465964	1.407785	0.478761
H79	H	0.175904	0.904458	-0.241029
H80	H	0.032116	1.765668	0.375655
H81	H	0.327550	1.402573	0.360847
O82	O	-0.109034	1.618188	0.373806
C83	C	-0.312314	1.527483	0.437827
C84	C	-0.186056	1.583905	0.493986
H85	H	-0.374629	1.499774	0.534963
H86	H	-0.302092	1.440308	0.368522
H87	H	-0.353716	1.600690	0.368400
H88	H	-0.144583	1.510792	0.563472
H89	H	-0.196356	1.671105	0.563211
O90	O	-0.102875	1.608973	0.633491
C91	C	-0.279039	1.627764	0.784644
C92	C	-0.159744	1.694806	0.720275
H93	H	-0.325065	1.697137	0.854797
H94	H	-0.257657	1.544679	0.855030
H95	H	-0.342758	1.591855	0.691657
H96	H	-0.095969	1.730795	0.813168
H97	H	-0.181218	1.777831	0.649849
O98	O	-0.202452	1.664082	-0.000029
C99	C	-0.018881	1.810313	-0.000120
C100	C	-0.074002	1.670842	-0.000155
H101	H	0.084978	1.815824	-0.000254
H102	H	-0.050333	1.859213	0.101847
H103	H	-0.050493	1.859160	-0.102044
H104	H	-0.042416	1.621887	0.101700
H105	H	-0.042555	1.622036	-0.102190
H106	H	0.023321	1.769083	0.618167
