data_functionalizedCrystal
_audit_creation_method	'MofGen! by Chris Wilmer'
_symmetry_space_group_name_H-M	'P1'
_symmetry_Int_Tables_number	1
_symmetry_cell_setting	triclinic
loop_
_symmetry_equiv_pos_as_xyz
  x,y,z
_cell_length_a	12.759401
_cell_length_b	25.639239
_cell_length_c	12.759393
_cell_angle_alpha	90.037052
_cell_angle_beta	90.018496
_cell_angle_gamma	90.038847
loop_
_atom_site_label
_atom_site_type_symbol
_atom_site_fract_x
_atom_site_fract_y
_atom_site_fract_z
Zn1	Zn	1.606080	-0.208118	0.593941
Zn2	Zn	1.605901	-0.295564	0.418245
Zn3	Zn	1.430382	-0.208145	0.418281
Zn4	Zn	1.430297	-0.295524	0.593886
O5	O	1.518165	-0.251838	0.506088
O6	O	1.753078	-0.219723	0.570643
O7	O	1.582579	-0.283996	0.271228
O8	O	1.453799	-0.134976	0.441621
O9	O	1.752946	-0.283970	0.441559
O10	O	1.582884	-0.134956	0.570678
O11	O	1.453626	-0.219770	0.271255
O12	O	1.283350	-0.219731	0.441567
O13	O	1.453655	-0.283901	0.740914
O14	O	1.283288	-0.283928	0.570584
O15	O	1.582802	-0.219684	0.740955
O16	O	1.582496	-0.368724	0.441505
O17	O	1.453481	-0.368695	0.570549
C18	C	1.245198	-0.251828	0.506074
C19	C	1.128421	-0.251837	0.506093
C20	C	1.073554	-0.285318	0.573160
C21	C	0.963830	-0.285324	0.573172
C22	C	0.963850	-0.218368	0.439039
C23	C	1.073572	-0.218359	0.439033
C24	C	1.128404	-0.318796	0.640220
C25	C	1.073536	-0.352280	0.707292
C26	C	0.963812	-0.352286	0.707303
C27	C	0.908955	-0.318809	0.640242
C28	C	1.517989	-0.387680	0.506040
C29	C	1.518009	-0.445795	0.506055
C30	C	1.585519	-0.806160	0.439010
C31	C	1.585560	-0.860765	0.439024
O32	O	1.642775	-0.889004	0.381967
N33	N	1.518350	-0.888077	0.506158
C34	C	1.451103	-0.860782	0.573289
O35	O	1.393940	-0.889027	0.630394
C36	C	1.451068	-0.806179	0.573280
C37	C	1.518275	-0.778869	0.506134
C38	C	1.652721	-0.778851	0.371870
C39	C	1.652678	-0.724250	0.371855
C40	C	1.585434	-0.696959	0.438980
C41	C	1.518232	-0.724269	0.506119
C42	C	1.383827	-0.778885	0.640416
C43	C	1.383799	-0.724278	0.640401
C44	C	1.451005	-0.696968	0.573256
C45	C	1.450946	-0.642377	0.573228
N46	N	1.518155	-0.615065	0.506094
C47	C	1.585399	-0.642356	0.438970
C48	C	1.451182	-0.975453	0.573306
C49	C	1.451210	-1.030055	0.573311
C50	C	1.585669	-1.030034	0.439046
C51	C	1.585634	-0.975430	0.439037
C52	C	1.518391	-0.948140	0.506172
C53	C	1.585305	-0.527691	0.438943
C54	C	1.585253	-0.473086	0.438930
C55	C	1.450799	-0.473111	0.573198
C56	C	1.450846	-0.527712	0.573207
C57	C	1.518108	-0.555000	0.506076
O58	O	1.393762	-0.614103	0.630258
O59	O	1.642562	-0.614104	0.381885
C60	C	1.792198	-0.251848	0.506103
C61	C	1.908975	-0.251852	0.506109
C62	C	1.518239	-0.251785	0.780122
C63	C	1.518270	-0.251763	0.896898
C64	C	1.518371	-0.115465	0.506159
C65	C	1.518459	-0.057351	0.506190
C66	C	1.518152	-0.251853	0.233121
C67	C	1.518325	-0.251728	0.116345
C68	C	1.585526	-0.218322	0.951783
C69	C	1.585551	-0.218303	1.061507
C70	C	1.451061	-0.285170	1.061452
C71	C	1.451032	-0.285186	0.951730
C72	C	1.652765	-0.184898	0.896952
C73	C	1.720027	-0.151455	0.951837
C74	C	1.720052	-0.151436	1.061561
C75	C	1.652815	-0.184860	1.116400
H76	H	1.639981	-0.450852	0.384249
H77	H	1.652754	-0.184911	0.807609
H78	H	0.819611	-0.318813	0.640266
H79	H	1.774763	-0.124238	0.907179
F80	F	1.791638	-0.115843	1.119971
F81	F	1.652832	-0.184832	1.233179
F82	F	1.657164	-0.946371	0.367572
H83	H	1.396319	-0.312383	1.106111
F84	F	1.379449	-0.320777	0.893314
H85	H	0.919177	-0.191112	0.384440
H86	H	1.707485	-0.801065	0.317210
H87	H	1.118246	-0.191092	0.384429
H88	H	1.217746	-0.318795	0.640216
F89	F	1.657235	-1.059089	0.367605
H90	H	1.396046	-0.450883	0.627847
H91	H	1.329043	-0.702061	0.695074
H92	H	1.707407	-0.702018	0.317183
F93	F	1.131920	-0.387904	0.778664
F94	F	1.656891	-0.556726	0.367494
F95	F	1.379668	-1.059114	0.644764
F96	F	0.905422	-0.387918	0.778694
F97	F	1.379601	-0.946413	0.644758
F98	F	1.312304	-0.807938	0.711892
H99	H	1.396125	-0.549949	0.627886
