data_functionalizedCrystal
_audit_creation_method	'MofGen! by Chris Wilmer'
_symmetry_space_group_name_H-M	'P1'
_symmetry_Int_Tables_number	1
_symmetry_cell_setting	triclinic
loop_
_symmetry_equiv_pos_as_xyz
  x,y,z
_cell_length_a	14.853563
_cell_length_b	14.853567
_cell_length_c	13.330367
_cell_angle_alpha	89.999156
_cell_angle_beta	90.007342
_cell_angle_gamma	96.365933
loop_
_atom_site_label
_atom_site_type_symbol
_atom_site_fract_x
_atom_site_fract_y
_atom_site_fract_z
O1	O	-1.196371	0.117685	-0.083410
O2	O	-0.933911	0.131711	-0.083412
O3	O	-1.072152	-0.006532	-0.083414
O4	O	-1.058130	0.255928	-0.083408
O5	O	-1.072132	-0.006535	0.083433
O6	O	-0.933891	0.131708	0.083435
O7	O	-1.196351	0.117682	0.083437
Cu8	Cu	-1.065119	0.124695	0.098671
Cu9	Cu	-1.065143	0.124698	-0.098645
O10	O	-1.058110	0.255925	0.083439
C11	C	-0.900312	0.131074	0.000011
C12	C	-0.800228	0.129172	0.000010
C13	C	-0.753219	0.128282	-0.090942
C14	C	-0.753196	0.128268	0.090961
C15	C	-0.659162	0.126475	0.090964
C16	C	-0.612153	0.125585	0.000012
C17	C	-0.659177	0.126487	-0.090943
C18	C	-0.612132	0.125564	0.181916
C19	C	-0.518093	0.123771	0.181922
C20	C	-0.471081	0.122887	0.090969
C21	C	-0.518111	0.123790	0.000011
C22	C	-0.471102	0.122900	-0.090941
C23	C	-0.518130	0.123809	-0.181900
C24	C	-0.612166	0.125603	-0.181896
C25	C	-0.377045	0.121093	0.090964
C26	C	-0.377060	0.121105	-0.090942
C27	C	-1.071507	-0.040122	0.000007
C28	C	-1.069603	-0.140206	-0.000002
C29	C	-0.979437	-0.552738	0.000016
C30	C	-1.143670	-0.574022	0.000018
C31	C	-1.145460	-0.479988	0.000012
C32	C	-1.064237	-0.422325	0.000010
C33	C	-0.981224	-0.458695	0.000014
C34	C	-1.228471	-0.443610	0.000018
C35	C	-1.230265	-0.349571	0.000013
C36	C	-1.149041	-0.291906	0.000004
C37	C	-1.066025	-0.328282	0.000007
C38	C	-0.984802	-0.270619	0.000005
C39	C	-0.901785	-0.306993	0.000000
C40	C	-0.900001	-0.401030	0.000004
C41	C	-1.150825	-0.197869	0.000000
C42	C	-0.986590	-0.176576	0.000002
C43	C	-0.229950	0.118314	0.000013
C44	C	-0.330036	0.120203	0.000013
C45	C	-1.058756	0.289515	0.000016
C46	C	-1.060660	0.389599	0.000018
N47	N	-1.065109	0.124692	0.237452
N48	N	-1.065160	0.124694	-0.237427
C49	C	-1.003927	0.185888	0.710076
C50	C	-1.126383	0.063502	0.710042
C51	C	-1.126373	0.063499	0.605024
C52	C	-1.065140	0.124693	0.552527
C53	C	-1.003917	0.185889	0.605048
C54	C	-1.187600	0.002310	0.552495
C55	C	-1.187593	0.002305	0.447470
C56	C	-1.126355	0.063495	0.394971
C57	C	-1.065130	0.124693	0.447499
C58	C	-1.003897	0.185887	0.395001
C59	C	-0.942666	0.247082	0.447527
C60	C	-0.942679	0.247079	0.552549
C61	C	-1.126342	0.063498	0.289949
C62	C	-1.003886	0.185888	0.289973
H63	H	-0.338759	0.120361	0.165022
C64	C	-1.193686	-0.003807	0.232175
H65	H	-1.230154	-0.040253	0.278482
H66	H	-1.231244	0.028693	0.191191
H67	H	-1.161204	-0.041403	0.191221
H68	H	-0.920447	-0.129632	-0.000004
C69	C	-0.812446	-0.243558	-0.000004
H70	H	-0.825406	-0.182346	-0.000008
H71	H	-0.778399	-0.254593	0.058176
H72	H	-0.778423	-0.254591	-0.058198
H73	H	-1.176241	0.013684	0.752789
H74	H	-1.218417	-0.168257	0.000010
H75	H	-0.892828	0.296902	0.595322
H76	H	-0.832412	-0.430655	0.000002
C77	C	-0.466370	0.122783	0.281970
H78	H	-0.507835	0.123577	0.336136
H79	H	-0.436492	0.069556	0.285752
H80	H	-0.422878	0.174625	0.285751
H81	H	-1.237459	-0.047508	0.595241
H82	H	-0.650415	0.126281	0.255964
H83	H	-1.294598	-0.490566	0.000029
H84	H	-0.338792	0.120385	-0.165007
C85	C	-0.466413	0.122830	-0.281941
H86	H	-0.403674	0.121634	-0.268907
H87	H	-0.488640	0.070599	-0.319323
H88	H	-0.475007	0.175668	-0.319302
C89	C	-0.663899	0.126589	-0.281938
H90	H	-0.726637	0.127772	-0.268909
H91	H	-0.641687	0.178826	-0.319312
H92	H	-0.655302	0.073756	-0.319306
H93	H	-0.954071	0.235710	0.752845
H94	H	-1.237450	-0.047523	0.404710
H95	H	-0.791513	0.129026	-0.164998
C96	C	-0.804903	0.129248	0.190999
H97	H	-0.867642	0.130451	0.177973
H98	H	-0.796299	0.076423	0.228370
H99	H	-0.782676	0.181492	0.228369
H100	H	-0.911846	-0.582358	0.000009
C101	C	-1.233007	-0.637447	0.000022
H102	H	-1.220053	-0.698662	0.000020
H103	H	-1.267036	-0.626406	0.058203
H104	H	-1.267044	-0.626414	-0.058171
C105	C	-1.321578	-0.309567	0.000005
H106	H	-1.369693	-0.357378	-0.000001
H107	H	-1.325688	-0.273318	0.058181
H108	H	-1.325691	-0.273333	-0.058192
H109	H	-0.892813	0.296910	0.404772
C110	C	-0.936530	0.253204	0.232234
H111	H	-0.900074	0.289650	0.278560
H112	H	-0.898963	0.220708	0.191270
H113	H	-0.969008	0.290799	0.191262
