data_functionalizedCrystal
_audit_creation_method	'MofGen! by Chris Wilmer'
_symmetry_space_group_name_H-M	'P1'
_symmetry_Int_Tables_number	1
_symmetry_cell_setting	triclinic
loop_
_symmetry_equiv_pos_as_xyz
  x,y,z
_cell_length_a	14.809374
_cell_length_b	14.809436
_cell_length_c	18.878441
_cell_angle_alpha	67.425296
_cell_angle_beta	89.998868
_cell_angle_gamma	60.797024
loop_
_atom_site_label
_atom_site_type_symbol
_atom_site_fract_x
_atom_site_fract_y
_atom_site_fract_z
Zr1	Zr	-0.203729	0.955247	0.782392
O2	O	-0.350888	1.113167	0.695618
O3	O	-0.145649	0.777477	0.796712
O4	O	-0.332193	0.926629	0.825684
O5	O	-0.031946	0.993512	0.657764
O6	O	-0.332198	0.926633	0.942252
O7	O	-0.164344	0.964016	0.666646
O8	O	0.001496	0.659829	0.890427
O9	O	-0.365640	1.260316	0.709589
O10	O	-0.136550	0.857951	0.904651
O11	O	-0.037739	0.879960	0.811028
O12	O	-0.257371	1.055567	0.845139
O13	O	-0.158561	1.077576	0.751516
Zr14	Zr	0.007422	1.002296	0.954139
Zr15	Zr	-0.203737	0.955254	0.968306
Zr16	Zr	0.007430	1.002289	0.768225
Zr17	Zr	-0.227257	1.189933	0.804674
Zr18	Zr	0.030950	0.767610	0.931857
O19	O	-0.050658	1.180065	0.939820
O20	O	-0.350899	1.113177	0.959963
O21	O	-0.050647	1.180056	0.675475
O22	O	0.154581	0.844376	1.040913
O23	O	-0.145660	0.777487	1.061057
O24	O	0.154593	0.844366	0.776568
O25	O	-0.164361	0.964031	1.078768
O26	O	0.135886	1.030914	0.910848
O27	O	0.135891	1.030910	0.794279
O28	O	-0.031963	0.993527	1.069885
O29	O	-0.365646	1.260322	0.857365
O30	O	0.169339	0.697221	0.879166
O31	O	0.169333	0.697227	1.026942
O32	O	0.001490	0.659834	1.038203
O33	O	-0.197797	1.297709	0.698328
O34	O	-0.197803	1.297714	0.846104
O35	O	0.061064	0.901976	0.891393
O36	O	-0.037746	0.879967	0.985016
O37	O	-0.158568	1.077582	0.925503
O38	O	-0.059757	1.099592	0.831880
C39	C	-0.068724	0.685215	0.840395
C40	C	-0.058736	0.585585	0.830935
C41	C	-0.093002	0.427292	0.863375
C42	C	-0.103311	0.530252	0.873162
C43	C	-0.362281	0.919928	0.885986
C44	C	-0.451924	0.899958	0.892001
C45	C	-0.551825	0.989085	0.865160
C46	C	-0.644477	0.968446	0.871375
C47	C	0.165974	1.037615	0.850545
C48	C	0.255617	1.057585	0.844531
C49	C	-0.098143	0.978763	0.635716
C50	C	-0.098140	0.978760	0.556791
C51	C	-0.127583	1.272328	0.896137
C52	C	-0.137571	1.371958	0.905596
C53	C	-0.035076	0.875607	0.550775
C54	C	-0.035076	0.875611	0.476614
C55	C	-0.098146	0.978769	0.408471
C56	C	-0.161212	1.081930	0.414490
C57	C	-0.161206	1.081926	0.488649
C58	C	-0.161223	1.081931	0.259921
C59	C	-0.161231	1.081936	0.185756
C60	C	-0.035093	0.875617	0.247886
C61	C	-0.035086	0.875613	0.322045
C62	C	-0.098154	0.978774	0.328059
C63	C	-0.098163	0.978780	1.100815
C64	C	-0.098167	0.978783	1.179740
C65	C	-0.068734	0.685224	1.072944
C66	C	-0.058749	0.585596	1.142410
C67	C	0.195404	0.744058	0.822674
C68	C	0.295034	0.664399	0.807201
C69	C	0.195394	0.744067	1.055223
C70	C	0.295021	0.664410	1.118675
C71	C	-0.391701	1.213476	0.681308
C72	C	-0.491328	1.293133	0.617856
C73	C	-0.127573	1.272319	0.663587
C74	C	-0.137558	1.371947	0.594121
C75	C	-0.391711	1.213484	0.913857
C76	C	-0.491341	1.293144	0.929331
C77	C	-0.105644	0.527316	1.133083
C78	C	-0.096283	0.433714	1.198349
C79	C	-0.040021	0.398389	1.272941
C80	C	0.006873	0.456679	1.282267
C81	C	-0.002494	0.550284	1.217002
C82	C	0.393405	0.638484	0.841883
C83	C	0.487025	0.563650	0.827341
C84	C	0.482273	0.514727	0.778122
C85	C	0.383892	0.540649	0.743435
C86	C	0.290273	0.615487	0.757972
C87	C	0.290229	0.615514	1.197351
C88	C	0.383830	0.540680	1.256979
C89	C	0.482223	0.514736	1.237930
C90	C	0.487012	0.563641	1.159247
C91	C	0.393411	0.638481	1.099620
C92	C	-0.486537	1.342040	0.539182
C93	C	-0.580141	1.416904	0.479556
C94	C	-0.678534	1.442852	0.498606
C95	C	-0.683323	1.393941	0.577289
C96	C	-0.589721	1.319085	0.636913
C97	C	-0.090673	1.430234	0.603450
C98	C	-0.100060	1.523857	0.538188
C99	C	-0.156324	1.559185	0.463597
C100	C	-0.203215	1.500892	0.454270
C101	C	-0.193834	1.407276	0.519532
C102	C	-0.486555	1.342045	0.978554
C103	C	-0.580159	1.416883	0.993109
C104	C	-0.678549	1.442825	0.958434
C105	C	-0.683333	1.393915	0.909208
C106	C	-0.589729	1.319072	0.894659
H107	H	-0.183356	0.400805	0.948992
H108	H	-0.754743	1.503806	0.450048
H109	H	-0.593642	1.279264	0.854574
O110	O	-0.244394	1.344401	0.509465
H111	H	-0.285081	1.384694	0.446631
O112	O	-0.779504	1.523567	0.974119
H113	H	-0.775838	1.487656	1.038328
H114	H	-0.627533	0.876855	0.898960
H115	H	-0.568761	1.080669	0.837583
H116	H	0.016287	0.791605	0.606255
H117	H	0.379912	0.500867	1.321042
H118	H	-0.134472	0.386265	1.190740
H119	H	-0.763446	1.415078	0.592791
O120	O	-0.766846	1.178915	0.807988
H121	H	-0.690551	1.176090	0.808832
H122	H	0.210122	0.636624	1.212876
O123	O	-0.163975	0.568465	0.930641
H124	H	-0.126314	0.496570	0.990993
H125	H	0.397328	0.678283	1.035560
H126	H	-0.163955	1.635414	0.410462
O127	O	-0.429471	0.778636	0.928534
H128	H	-0.505767	0.781464	0.927676
O129	O	-0.263894	1.539005	0.373813
H130	H	-0.294933	1.482757	0.378282
O131	O	-0.594891	1.266319	0.721769
H132	H	-0.679037	1.296934	0.724989
H133	H	-0.406450	1.320937	1.006794
O134	O	0.001920	0.547392	0.773447
H135	H	0.000493	0.472523	0.774774
O136	O	0.583177	0.434002	1.302243
H137	H	0.563305	0.404353	1.360149
H138	H	-0.044850	1.401480	0.664179
H139	H	0.016279	0.791614	0.471722
O140	O	-0.789458	1.421911	0.871801
H141	H	-0.853735	1.482183	0.890184
O142	O	-0.029916	0.297426	1.343332
H143	H	0.010911	0.219323	1.333013
H144	H	0.210180	0.636575	0.729730
H145	H	-0.576244	1.456700	1.033190
O146	O	-0.032350	0.389093	0.805890
H147	H	-0.033779	0.314224	0.807218
H148	H	0.016261	0.791611	0.377529
O149	O	0.067566	0.418565	1.362719
H150	H	0.066206	0.343674	1.406525
O151	O	-0.574948	1.469628	0.394697
H152	H	-0.621174	1.564893	0.370943
H153	H	0.567136	0.542507	1.143747
O154	O	0.048112	0.613119	1.227069
H155	H	-0.014288	0.704786	1.208764
O156	O	-0.380419	1.314069	0.518627
H157	H	-0.392832	1.360675	0.453900
O158	O	-0.049466	1.586708	0.548253
H159	H	-0.008749	1.546393	0.611083
O160	O	0.378797	0.487850	0.690362
H161	H	0.330040	0.557289	0.630762
H162	H	0.016253	0.791617	0.242988
O163	O	-0.229241	1.193197	0.112254
H164	H	-0.273080	1.264935	0.128892
H165	H	0.397294	0.678312	0.881961
H166	H	-0.212547	1.165926	0.493542
H167	H	0.567122	0.542555	0.855593
O168	O	-0.229251	1.193194	0.266413
H169	H	-0.273120	1.264925	0.206571
H170	H	-0.151470	0.556073	1.072354
O171	O	-0.229248	1.193190	0.340993
H172	H	-0.177737	1.210276	0.302049
H173	H	0.558512	0.453790	0.766291
