data_functionalizedCrystal
_audit_creation_method	'MofGen! by Chris Wilmer'
_symmetry_space_group_name_H-M	'P1'
_symmetry_Int_Tables_number	1
_symmetry_cell_setting	triclinic
loop_
_symmetry_equiv_pos_as_xyz
  x,y,z
_cell_length_a	19.077105
_cell_length_b	13.897441
_cell_length_c	19.077432
_cell_angle_alpha	87.670530
_cell_angle_beta	85.334714
_cell_angle_gamma	87.683003
loop_
_atom_site_label
_atom_site_type_symbol
_atom_site_fract_x
_atom_site_fract_y
_atom_site_fract_z
Zn1	Zn	1.088991	-0.587458	-0.324000
Zn2	Zn	1.588991	-0.087458	0.176000
Zn3	Zn	1.093637	-0.419923	-0.441894
Zn4	Zn	1.593637	0.080077	0.058106
Zn5	Zn	0.971104	-0.419950	-0.319286
Zn6	Zn	1.471104	0.080050	0.180714
Zn7	Zn	0.975802	-0.574955	-0.437106
Zn8	Zn	1.475802	-0.074955	0.062894
O9	O	1.032383	-0.500571	-0.380571
O10	O	1.532383	-0.000571	0.119429
O11	O	1.188258	-0.570455	-0.343616
O12	O	1.688258	-0.070455	0.156384
O13	O	1.077361	-0.284942	-0.425661
O14	O	1.577361	0.215058	0.074339
O15	O	0.982832	-0.447414	-0.221264
O16	O	1.482832	0.052586	0.278736
O17	O	1.191671	-0.447368	-0.430232
O18	O	1.691671	0.052632	0.069768
O19	O	1.069443	-0.570481	-0.224728
O20	O	1.569443	-0.070481	0.275272
O21	O	0.987336	-0.284961	-0.335581
O22	O	1.487336	0.215039	0.164419
O23	O	0.873077	-0.435290	-0.330938
O24	O	1.373077	0.064710	0.169062
O25	O	0.990838	-0.711598	-0.422071
O26	O	1.490838	-0.211598	0.077929
O27	O	0.876528	-0.549172	-0.417500
O28	O	1.376528	-0.049172	0.082500
O29	O	1.073998	-0.720784	-0.338973
O30	O	1.573998	-0.220784	0.161027
O31	O	1.081916	-0.435244	-0.539906
O32	O	1.581916	0.064756	-0.039906
O33	O	0.995343	-0.549146	-0.536388
O34	O	1.495343	-0.049146	-0.036388
C35	C	0.849223	-0.490878	-0.373188
C36	C	1.349223	0.009122	0.126812
C37	C	0.770867	-0.486753	-0.370046
C38	C	1.270867	0.013247	0.129954
C39	C	0.735874	-0.544007	-0.413707
C40	C	1.235874	-0.044007	0.086293
C41	C	0.662249	-0.540136	-0.410745
C42	C	1.162249	-0.040136	0.089255
C43	C	0.623620	-0.479006	-0.364127
C44	C	1.123620	0.020994	0.135873
C45	C	0.658619	-0.421750	-0.320462
C46	C	1.158619	0.078250	0.179538
C47	C	0.732242	-0.425626	-0.323420
C48	C	1.232242	0.074374	0.176580
C49	C	0.403237	-0.461070	-0.350436
C50	C	0.903237	0.038930	0.149564
C51	C	0.329609	-0.457196	-0.347483
C52	C	0.829609	0.042804	0.152517
C53	C	0.333244	-0.575584	-0.437766
C54	C	0.833244	-0.075584	0.062234
C55	C	0.406868	-0.579451	-0.440723
C56	C	0.906868	-0.079451	0.059277
C57	C	0.441861	-0.522199	-0.397055
C58	C	0.941861	-0.022199	0.102945
N59	N	0.548365	-0.475046	-0.361101
N60	N	1.048365	0.024954	0.138899
N61	N	0.517115	-0.526165	-0.400078
N62	N	1.017115	-0.026165	0.099922
C63	C	1.032424	-0.752170	-0.380514
C64	C	1.532424	-0.252170	0.119486
C65	C	1.032442	-0.859386	-0.380490
C66	C	1.532442	-0.359386	0.119510
C67	C	1.032455	-0.946458	-0.380470
C68	C	1.532455	-0.446458	0.119530
C69	C	1.032474	-1.055693	-0.380439
C70	C	1.532474	-0.555693	0.119561
C71	C	1.216259	-0.510303	-0.387984
C72	C	1.716259	-0.010303	0.112016
C73	C	1.294615	-0.514450	-0.391143
C74	C	1.794615	-0.014450	0.108857
C75	C	1.039662	-0.490858	-0.563726
C76	C	1.539662	0.009142	-0.063726
C77	C	1.042840	-0.486738	-0.642083
C78	C	1.542840	0.013262	-0.142083
C79	C	1.032381	-0.249957	-0.380579
C80	C	1.532381	0.250043	0.119421
C81	C	1.032493	-0.142758	-0.380411
C82	C	1.532493	0.357242	0.119589
C83	C	0.999229	-0.544052	-0.677088
C84	C	1.499229	-0.044052	-0.177088
C85	C	1.002218	-0.540178	-0.750712
C86	C	1.502218	-0.040178	-0.250712
C87	C	1.048823	-0.478993	-0.789331
C88	C	1.548823	0.021007	-0.289331
C89	C	1.092437	-0.421672	-0.754321
C90	C	1.592437	0.078328	-0.254321
C91	C	1.089443	-0.425542	-0.680697
C92	C	1.589443	0.074458	-0.180697
C93	C	1.062610	-0.461059	-1.009715
C94	C	1.562610	0.038941	-0.509715
C95	C	1.065601	-0.457195	-1.083344
C96	C	1.565601	0.042805	-0.583344
C97	C	0.975382	-0.575700	-1.079730
C98	C	1.475382	-0.075700	-0.579730
C99	C	0.972395	-0.579570	-1.006106
C100	C	1.472395	-0.079570	-0.506106
C101	C	1.016006	-0.522245	-0.971102
C102	C	1.516006	-0.022245	-0.471102
N103	N	1.051882	-0.475033	-0.864587
N104	N	1.551882	0.024967	-0.364587
N105	N	1.012944	-0.526201	-0.895847
N106	N	1.512944	-0.026201	-0.395847
C107	C	1.025096	-0.510345	-0.196703
C108	C	1.525096	-0.010345	0.303297
C109	C	1.021990	-0.514510	-0.118349
C110	C	1.521990	-0.014510	0.381651
H111	H	0.760733	-0.379009	-0.287864
H112	H	1.260733	0.120991	0.212136
H113	H	0.633761	-0.586758	-0.446299
H114	H	1.133761	-0.086758	0.053701
H115	H	0.431719	-0.414444	-0.314884
H116	H	0.931719	0.085556	0.185116
C117	C	0.954241	-0.603228	-0.789214
C118	C	1.454241	-0.103228	-0.289214
N119	N	0.918102	-0.650719	-0.818213
N120	N	1.418102	-0.150719	-0.318213
H121	H	0.961281	-0.593880	-0.645649
H122	H	1.461281	-0.093880	-0.145649
C123	C	1.137420	-0.362493	-0.642192
C124	C	1.637420	0.137507	-0.142192
N125	N	1.173557	-0.314999	-0.613191
N126	N	1.673557	0.185001	-0.113191
H127	H	1.098121	-0.414385	-0.981221
H128	H	1.598121	0.085615	-0.481221
H129	H	1.103557	-0.407372	-1.114785
H130	H	1.603557	0.092628	-0.614785
H131	H	0.298159	-0.407423	-0.309513
H132	H	0.798159	0.092577	0.190487
C133	C	0.778359	-0.611255	-0.464991
C134	C	1.278359	-0.111255	0.035009
N135	N	0.810357	-0.661912	-0.503618
N136	N	1.310357	-0.161912	-0.003618
H137	H	0.438315	-0.629228	-0.478686
H138	H	0.938315	-0.129228	0.021314
C139	C	0.921171	-0.646941	-0.963632
C140	C	1.421171	-0.146941	-0.463632
N141	N	0.882605	-0.697712	-0.931642
N142	N	1.382605	-0.197712	-0.431642
H143	H	0.304746	-0.622197	-0.473316
H144	H	0.804746	-0.122197	0.026684
C145	C	0.616125	-0.354509	-0.269179
C146	C	1.116125	0.145491	0.230821
N147	N	0.584118	-0.303858	-0.230554
N148	N	1.084118	0.196142	0.269446
C149	C	0.927406	-0.638743	-1.118240
C150	C	1.427406	-0.138743	-0.618240
N151	N	0.891266	-0.686225	-1.147246
N152	N	1.391266	-0.186225	-0.647246
C153	C	1.143698	-0.354361	-0.796804
C154	C	1.643698	0.145639	-0.296804
N155	N	1.182310	-0.303662	-0.828801
N156	N	1.682310	0.196338	-0.328801
