data_functionalizedCrystal
_audit_creation_method	'MofGen! by Chris Wilmer'
_symmetry_space_group_name_H-M	'P1'
_symmetry_Int_Tables_number	1
_symmetry_cell_setting	triclinic
loop_
_symmetry_equiv_pos_as_xyz
  x,y,z
_cell_length_a	18.101398
_cell_length_b	18.101389
_cell_length_c	12.759394
_cell_angle_alpha	90.015689
_cell_angle_beta	89.987011
_cell_angle_gamma	89.985654
loop_
_atom_site_label
_atom_site_type_symbol
_atom_site_fract_x
_atom_site_fract_y
_atom_site_fract_z
Zn1	Zn	1.132205	-0.418656	0.418429
Zn2	Zn	1.132136	-0.294820	0.594097
Zn3	Zn	1.008364	-0.294838	0.418426
Zn4	Zn	1.008349	-0.418630	0.594060
O5	O	1.070263	-0.356736	0.506253
O6	O	1.235828	-0.402232	0.441747
O7	O	1.115694	-0.191189	0.570808
O8	O	1.024826	-0.311281	0.271406
O9	O	1.235778	-0.311250	0.570810
O10	O	1.115812	-0.402249	0.271407
O11	O	1.024759	-0.191203	0.441744
O12	O	0.904729	-0.311257	0.441709
O13	O	1.024802	-0.522266	0.570748
O14	O	0.904718	-0.402206	0.570746
O15	O	1.115798	-0.522285	0.441712
O16	O	1.115680	-0.311225	0.741113
O17	O	1.024735	-0.402188	0.741086
C18	C	0.877853	-0.356731	0.506224
C19	C	0.795539	-0.356746	0.506237
C20	C	0.644830	-0.356745	0.506257
C21	C	0.613495	-0.413879	0.587568
C22	C	0.527877	-0.413710	0.587897
C23	C	0.496448	-0.356745	0.506276
C24	C	0.527506	-0.278604	0.535803
C25	C	0.613151	-0.278935	0.536382
C26	C	0.613287	-0.377069	0.395216
C27	C	0.527637	-0.378790	0.395825
C28	C	0.412588	-0.356740	0.506285
C29	C	0.728690	-0.356745	0.506250
C30	C	1.070306	-0.549898	0.506226
C31	C	1.070324	-0.632212	0.506215
C32	C	1.070368	-0.931303	0.506018
C33	C	1.012918	-0.899966	0.586946
C34	C	1.013074	-0.814348	0.587321
C35	C	1.070345	-0.782921	0.506116
C36	C	1.148377	-0.814014	0.536173
C37	C	1.148057	-0.899659	0.536704
C38	C	1.050464	-0.899727	0.394854
C39	C	1.048728	-0.814077	0.395496
C40	C	1.070338	-0.699061	0.506169
C41	C	1.070380	-1.015163	0.505967
C42	C	1.263425	-0.356742	0.506283
C43	C	1.345739	-0.356744	0.506295
C44	C	1.070219	-0.356718	0.779220
C45	C	1.070268	-0.356735	0.895997
C46	C	1.070263	-0.164325	0.506204
C47	C	1.070389	-0.082012	0.505919
C48	C	1.070328	-0.356770	0.232220
C49	C	1.070356	-0.356785	0.115443
C50	C	1.165040	-0.262087	0.895971
C51	C	1.212445	-0.214771	0.950819
C52	C	1.212489	-0.214791	1.060541
C53	C	1.165123	-0.262134	1.115417
C54	C	1.117718	-0.309449	1.060569
C55	C	1.117678	-0.309422	0.950845
C56	C	1.022950	-0.404100	1.060595
C57	C	1.022902	-0.404078	0.950873
C58	C	0.975585	-0.451443	1.115471
C59	C	0.928174	-0.498756	1.060623
C60	C	0.928132	-0.498733	0.950895
C61	C	0.975497	-0.451393	0.896025
H62	H	0.634112	-0.471990	0.569366
H63	H	1.165000	-0.262056	0.806630
H64	H	1.192313	-0.920390	0.480319
Cl65	Cl	1.164866	-0.261844	1.253352
H66	H	0.634907	-0.433089	0.368235
Cl67	Cl	1.271991	-0.155261	0.881828
Cl68	Cl	0.494367	-0.251625	0.659730
Cl69	Cl	0.964137	-0.933063	0.352577
H70	H	1.192331	-0.793658	0.479081
Cl71	Cl	0.960064	-0.782710	0.360503
Cl72	Cl	0.646696	-0.393319	0.713886
Cl73	Cl	0.923309	-0.931756	0.558201
H74	H	0.507340	-0.436298	0.373550
H75	H	0.975627	-0.451459	1.204812
Cl76	Cl	1.174876	-0.780912	0.660303
H77	H	1.087516	-0.792684	0.331999
Cl78	Cl	1.272088	-0.155312	1.129496
H79	H	0.633552	-0.335460	0.334640
H80	H	0.889617	-0.537301	1.105312
H81	H	0.506243	-0.340244	0.332046
Cl82	Cl	0.923738	-0.781886	0.558277
H83	H	1.025930	-0.921492	0.668842
H84	H	1.026216	-0.793866	0.669720
Cl85	Cl	1.115065	-0.931016	0.301762
H86	H	0.507371	-0.400226	0.670185
Cl87	Cl	1.174101	-0.930515	0.662167
H88	H	0.889532	-0.537266	0.906243
Cl89	Cl	0.975663	-0.451576	0.758089
H90	H	0.506878	-0.471641	0.569480
H91	H	0.633110	-0.261756	0.617536
H92	H	0.507148	-0.234866	0.478394
Cl93	Cl	0.645158	-0.210935	0.448889
