data_functionalizedCrystal
_audit_creation_method	'MofGen! by Chris Wilmer'
_symmetry_space_group_name_H-M	'P1'
_symmetry_Int_Tables_number	1
_symmetry_cell_setting	triclinic
loop_
_symmetry_equiv_pos_as_xyz
  x,y,z
_cell_length_a	14.044220
_cell_length_b	14.044202
_cell_length_c	9.730223
_cell_angle_alpha	90.013999
_cell_angle_beta	90.000816
_cell_angle_gamma	86.809210
loop_
_atom_site_label
_atom_site_type_symbol
_atom_site_fract_x
_atom_site_fract_y
_atom_site_fract_z
O1	O	1.277175	-0.230170	-0.114189
O2	O	1.000504	-0.221865	-0.114222
O3	O	1.134682	-0.087681	-0.114168
O4	O	1.142997	-0.364354	-0.114242
O5	O	1.134670	-0.087672	0.114411
O6	O	1.000491	-0.221855	0.114358
O7	O	1.277163	-0.230161	0.114391
Zn8	Zn	1.138825	-0.226006	0.150667
Zn9	Zn	1.138841	-0.226019	-0.150497
O10	O	1.142985	-0.364344	0.114338
C11	C	0.964875	-0.218224	0.000064
C12	C	0.858732	-0.207379	0.000053
C13	C	1.131039	-0.052054	0.000128
C14	C	1.120191	0.054089	0.000146
C15	C	1.177289	0.299547	0.000118
C16	C	1.100373	0.248422	0.000114
C17	C	1.111402	0.140285	0.000132
C18	C	1.166262	0.407694	0.000100
C19	C	0.664394	-0.187553	0.000086
C20	C	0.613267	-0.264468	0.000071
C21	C	0.505130	-0.253436	0.000089
C22	C	0.772540	-0.198583	0.000068
C23	C	1.312791	-0.233801	0.000102
C24	C	1.418934	-0.244646	0.000104
N25	N	1.138821	-0.225997	0.356203
C26	C	1.146626	0.600029	0.000057
C27	C	1.157468	0.493886	0.000086
N28	N	1.138852	-0.226021	-0.356034
C29	C	1.076047	-0.163182	0.572075
C30	C	1.076033	-0.163168	0.428192
C31	C	1.201633	-0.288839	0.428104
C32	C	1.201651	-0.288848	0.571985
H33	H	1.026241	0.285865	0.000100
H34	H	0.650708	-0.338601	0.000045
Br35	Br	1.300843	0.237142	0.000147
Br36	Br	0.990791	-0.077886	0.330630
H37	H	0.626955	-0.113425	0.000113
Br38	Br	0.990824	-0.077915	0.669760
Br39	Br	1.286853	-0.374103	0.330407
H40	H	1.252800	-0.340020	0.630520
