data_functionalizedCrystal
_audit_creation_method	'MofGen! by Chris Wilmer'
_symmetry_space_group_name_H-M	'P1'
_symmetry_Int_Tables_number	1
_symmetry_cell_setting	triclinic
loop_
_symmetry_equiv_pos_as_xyz
  x,y,z
_cell_length_a	16.109301
_cell_length_b	16.109301
_cell_length_c	15.186229
_cell_angle_alpha	89.994833
_cell_angle_beta	89.999362
_cell_angle_gamma	83.461481
loop_
_atom_site_label
_atom_site_type_symbol
_atom_site_fract_x
_atom_site_fract_y
_atom_site_fract_z
O1	O	1.103131	0.106866	-0.073176
O2	O	0.861069	0.120165	-0.073190
O3	O	0.988749	-0.007515	-0.073174
O4	O	0.975450	0.234547	-0.073192
O5	O	0.988741	-0.007517	0.073284
O6	O	0.861060	0.120164	0.073267
O7	O	1.103122	0.106864	0.073282
Zn8	Zn	0.982090	0.113514	0.096528
Zn9	Zn	0.982101	0.113516	-0.096436
O10	O	0.975441	0.234545	0.073265
C11	C	0.830090	0.119626	0.000037
C12	C	0.737794	0.118011	0.000032
C13	C	0.515522	0.190018	0.000036
C14	C	0.428801	0.188494	0.000042
C15	C	0.448676	0.037006	0.000050
C16	C	0.535394	0.038530	0.000051
C17	C	0.568815	0.115039	0.000039
C18	C	0.395376	0.111990	0.000045
C19	C	0.301350	0.110337	0.000051
C20	C	0.662847	0.116693	0.000035
C21	C	0.988206	-0.038491	0.000056
C22	C	0.986591	-0.130786	0.000057
C23	C	1.058599	-0.353059	0.000047
C24	C	1.057075	-0.439779	0.000040
C25	C	0.905586	-0.419905	0.000034
C26	C	0.907111	-0.333186	0.000035
C27	C	0.983620	-0.299766	0.000046
C28	C	0.980571	-0.473205	0.000038
C29	C	0.978918	-0.567231	0.000030
C30	C	0.985273	-0.205734	0.000052
C31	C	1.134101	0.107404	0.000053
C32	C	1.226397	0.109019	0.000052
C33	C	0.975984	0.265521	0.000034
C34	C	0.977600	0.357816	0.000027
N35	N	0.982088	0.113511	0.228220
N36	N	0.982109	0.113512	-0.228129
C37	C	1.038644	0.056994	0.453950
C38	C	1.038647	0.056992	0.546140
C39	C	0.925547	0.170032	0.546135
C40	C	0.925541	0.170030	0.453947
C41	C	0.982094	0.113511	0.407857
C42	C	0.982103	0.113512	0.592235
C43	C	0.982105	0.113510	0.692191
C44	C	0.982091	0.113512	0.307894
H45	H	0.385413	0.249550	0.000041
C46	C	0.594024	-0.043952	0.000054
C47	C	0.689411	-0.042273	0.000060
C48	C	0.748041	-0.124751	0.000068
C49	C	0.711284	-0.208908	0.000070
C50	C	0.615892	-0.210590	0.000065
C51	C	0.557262	-0.128112	0.000056
H52	H	0.716626	0.020028	0.000058
H53	H	0.818657	-0.123505	0.000072
H54	H	0.754685	-0.269963	0.000076
H55	H	0.588678	-0.272891	0.000066
H56	H	0.486647	-0.129358	0.000052
C57	C	0.552287	0.274175	0.000032
C58	C	0.609172	0.296050	0.076081
C59	C	0.645934	0.380209	0.076080
C60	C	0.625811	0.442493	0.000028
C61	C	0.568922	0.420619	-0.076027
C62	C	0.532160	0.336460	-0.076025
H63	H	0.624072	0.249942	0.132384
H64	H	0.688047	0.396401	0.132381
H65	H	0.653024	0.504792	0.000027
H66	H	0.554023	0.466727	-0.132329
H67	H	0.490047	0.320269	-0.132326
H68	H	0.846050	-0.289792	0.000032
C69	C	1.139553	-0.498402	0.000046
C70	C	1.137883	-0.593790	0.000039
C71	C	1.220366	-0.652413	0.000045
C72	C	1.304518	-0.615648	0.000057
C73	C	1.306192	-0.520255	0.000063
C74	C	1.223709	-0.461632	0.000058
H75	H	1.075585	-0.621010	0.000031
H76	H	1.219126	-0.723029	0.000040
H77	H	1.365577	-0.659044	0.000061
H78	H	1.368489	-0.493034	0.000072
H79	H	1.224949	-0.391015	0.000063
C80	C	1.100855	-0.005176	0.596844
C81	C	1.163066	-0.067335	0.546145
C82	C	1.225276	-0.129506	0.596849
C83	C	1.225275	-0.129519	0.698253
C84	C	1.163062	-0.067358	0.748957
C85	C	1.100852	-0.005187	0.698253
H86	H	1.163069	-0.067327	0.471075
H87	H	1.271331	-0.175522	0.559314
H88	H	1.271326	-0.175542	0.735787
H89	H	1.163059	-0.067365	0.824027
H90	H	1.054797	0.040829	0.735789
H91	H	1.120897	-0.325851	0.000054
H92	H	0.421454	-0.025285	0.000065
C93	C	1.100845	-0.005181	0.403251
C94	C	1.099474	-0.099858	0.415940
C95	C	1.161674	-0.162037	0.365244
C96	C	1.225246	-0.129539	0.301860
C97	C	1.226620	-0.034858	0.289168
C98	C	1.164420	0.027321	0.339864
H99	H	1.052411	-0.123919	0.462864
H100	H	1.160657	-0.232126	0.374640
H101	H	1.271291	-0.175568	0.264332
H102	H	1.273683	-0.010797	0.242244
H103	H	1.165437	0.097410	0.330468
H104	H	0.879487	0.216053	0.416415
C105	C	0.863346	0.232207	0.596834
C106	C	0.863394	0.232263	0.698237
C107	C	0.801193	0.294442	0.748933
C108	C	0.738945	0.356565	0.698225
C109	C	0.738895	0.356512	0.596817
C110	C	0.801096	0.294333	0.546121
H111	H	0.909475	0.186273	0.735778
H112	H	0.801230	0.294481	0.824002
H113	H	0.692900	0.402593	0.735754
H114	H	0.692813	0.402501	0.559275
H115	H	0.801059	0.294294	0.471051
H116	H	0.843295	-0.447127	0.000027
