data_functionalizedCrystal
_audit_creation_method	'MofGen! by Chris Wilmer'
_symmetry_space_group_name_H-M	'P1'
_symmetry_Int_Tables_number	1
_symmetry_cell_setting	triclinic
loop_
_symmetry_equiv_pos_as_xyz
  x,y,z
_cell_length_a	8.559649
_cell_length_b	10.654550
_cell_length_c	9.730223
_cell_angle_alpha	89.999758
_cell_angle_beta	90.001220
_cell_angle_gamma	102.868203
loop_
_atom_site_label
_atom_site_type_symbol
_atom_site_fract_x
_atom_site_fract_y
_atom_site_fract_z
O1	O	0.224181	-1.644682	0.114181
O2	O	0.245540	-1.276997	0.114206
O3	O	0.002618	-1.493233	0.114190
O4	O	0.467104	-1.428446	0.114197
O5	O	0.002618	-1.493219	-0.114390
O6	O	0.245540	-1.276984	-0.114374
O7	O	0.224181	-1.644669	-0.114398
Zn8	Zn	0.234861	-1.460824	-0.150678
Zn9	Zn	0.234861	-1.460842	0.150486
O10	O	0.467104	-1.428433	-0.114383
C11	C	0.243972	-1.230355	-0.000081
C12	C	0.239280	-1.091396	-0.000071
C13	C	-0.056858	-1.498136	-0.000097
C14	C	-0.234076	-1.512750	-0.000091
N15	N	0.234860	-1.460821	-0.356214
C16	C	0.526579	-1.423530	-0.000092
C17	C	0.703797	-1.408915	-0.000089
C18	C	0.225750	-1.691311	-0.000109
C19	C	0.230442	-1.830270	-0.000109
C20	C	0.382309	-0.997136	-0.000073
C21	C	0.377890	-0.866571	-0.000097
C22	C	0.087402	-0.924541	-0.000112
C23	C	0.091822	-1.055103	-0.000097
C24	C	0.332569	-1.527559	-0.428139
C25	C	0.332560	-1.527581	-0.572022
C26	C	0.137129	-1.394116	-0.572043
C27	C	0.137130	-1.394102	-0.428163
N28	N	0.234849	-1.460856	0.356022
H29	H	-0.213815	-1.308837	-0.000087
H30	H	0.502378	-1.026680	-0.000062
C31	C	-0.056041	-1.262162	-0.442624
C32	C	0.029724	-1.320733	-0.349092
H33	H	-0.122340	-1.216867	-0.393805
H34	H	-0.120763	-1.326201	-0.498734
H35	H	0.016821	-1.203678	-0.498749
H36	H	-0.043138	-1.379225	-0.292973
H37	H	0.094451	-1.256687	-0.292958
C38	C	-0.154423	-1.144721	0.117410
C39	C	-0.065407	-1.158728	-0.000090
H40	H	-0.251479	-1.208700	0.117412
H41	H	-0.178162	-1.061781	0.117390
H42	H	-0.094005	-1.154204	0.197115
H43	H	-0.125820	-1.149236	-0.079796
H44	H	-0.041672	-1.241688	-0.000083
C45	C	-0.315910	-1.714898	-0.117613
C46	C	-0.345296	-1.647865	-0.000107
H47	H	-0.384582	-1.798306	-0.117624
H48	H	-0.207425	-1.722468	-0.117593
H49	H	-0.335823	-1.669387	-0.197314
H50	H	-0.325373	-1.693371	0.079594
H51	H	-0.453807	-1.640300	-0.000114
H52	H	0.057563	-1.339794	-0.630641
H53	H	0.494359	-0.789827	-0.000101
H54	H	-0.032654	-0.894975	-0.000141
C55	C	0.600545	-1.551013	-0.383841
C56	C	0.439980	-1.600907	-0.349055
H57	H	0.666851	-1.596306	-0.335026
H58	H	0.629177	-1.462340	-0.360262
H59	H	0.614502	-1.560577	-0.479829
H60	H	0.426021	-1.591334	-0.253069
H61	H	0.411339	-1.689602	-0.372626
C62	C	0.397748	-1.731651	-0.616273
C63	C	0.439972	-1.600939	-0.651077
H64	H	0.464070	-1.776939	-0.665072
H65	H	0.288827	-1.765493	-0.639859
H66	H	0.411737	-1.741168	-0.520282
H67	H	0.425971	-1.591422	-0.747067
H68	H	0.548919	-1.567088	-0.627501
