data_functionalizedCrystal
_audit_creation_method	'MofGen! by Chris Wilmer'
_symmetry_space_group_name_H-M	'P1'
_symmetry_Int_Tables_number	1
_symmetry_cell_setting	triclinic
loop_
_symmetry_equiv_pos_as_xyz
  x,y,z
_cell_length_a	12.645331
_cell_length_b	21.395362
_cell_length_c	21.395355
_cell_angle_alpha	90.017337
_cell_angle_beta	90.017800
_cell_angle_gamma	90.027616
loop_
_atom_site_label
_atom_site_type_symbol
_atom_site_fract_x
_atom_site_fract_y
_atom_site_fract_z
Zn1	Zn	1.620674	-0.249524	0.354154
Zn2	Zn	2.120674	0.250476	0.854154
Zn3	Zn	1.620516	-0.354284	0.249378
Zn4	Zn	2.120516	0.145716	0.749378
Zn5	Zn	1.443382	-0.249523	0.249403
Zn6	Zn	1.943382	0.250477	0.749403
Zn7	Zn	1.443337	-0.354266	0.354131
Zn8	Zn	1.943337	0.145734	0.854131
O9	O	1.531977	-0.301899	0.301766
O10	O	2.031977	0.198101	0.801766
O11	O	1.769000	-0.263428	0.340254
O12	O	2.269000	0.236572	0.840254
O13	O	1.596972	-0.340394	0.161704
O14	O	2.096972	0.159606	0.661704
O15	O	1.466985	-0.161845	0.263318
O16	O	1.966985	0.338155	0.763318
O17	O	1.768884	-0.340395	0.263276
O18	O	2.268884	0.159605	0.763276
O19	O	1.597241	-0.161846	0.340278
O20	O	2.097241	0.338154	0.840278
O21	O	1.466832	-0.263426	0.161722
O22	O	1.966832	0.236574	0.661722
O23	O	1.295029	-0.263409	0.263296
O24	O	1.795029	0.236591	0.763296
O25	O	1.466909	-0.340365	0.441812
O26	O	1.966909	0.159635	0.941812
O27	O	1.294996	-0.340364	0.340239
O28	O	1.794996	0.159636	0.840239
O29	O	1.597197	-0.263411	0.441829
O30	O	2.097197	0.236589	0.941829
O31	O	1.596928	-0.441959	0.263254
O32	O	2.096928	0.058041	0.763254
O33	O	1.466756	-0.441946	0.340215
O34	O	1.966756	0.058054	0.840215
C35	C	1.531849	-0.464687	0.301743
C36	C	2.031849	0.035313	0.801743
C37	C	1.531891	-0.534328	0.301754
C38	C	2.031891	-0.034328	0.801754
C39	C	1.256548	-0.301885	0.301768
C40	C	1.756548	0.198115	0.801768
C41	C	1.138718	-0.301894	0.301784
C42	C	1.638718	0.198106	0.801784
C43	C	1.599933	-1.036072	0.341920
C44	C	2.099933	-0.536072	0.841920
C45	C	1.599902	-0.970636	0.341910
C46	C	2.099902	-0.470636	0.841910
C47	C	1.532122	-0.937966	0.301806
C48	C	2.032122	-0.437966	0.801806
C49	C	1.464386	-0.970737	0.261697
C50	C	1.964386	-0.470737	0.761697
C51	C	1.464427	-1.036171	0.261703
C52	C	1.964427	-0.536171	0.761703
C53	C	1.436552	-0.834349	0.296802
C54	C	1.936552	-0.334349	0.796802
C55	C	1.436509	-0.768916	0.296800
C56	C	1.936509	-0.268916	0.796800
C57	C	1.531997	-0.736146	0.301782
C58	C	2.031997	-0.236146	0.801782
C59	C	1.627530	-0.768816	0.306779
C60	C	2.127530	-0.268816	0.806779
C61	C	1.627571	-0.834250	0.306785
C62	C	2.127571	-0.334250	0.806785
C63	C	1.532071	-0.867014	0.301794
C64	C	2.032071	-0.367014	0.801794
C65	C	1.599700	-0.632430	0.341874
C66	C	2.099700	-0.132430	0.841874
C67	C	1.599670	-0.566993	0.341860
C68	C	2.099670	-0.066993	0.841860
C69	C	1.464145	-0.567096	0.261650
C70	C	1.964145	-0.067096	0.761650
C71	C	1.464184	-0.632531	0.261661
C72	C	1.964184	-0.132531	0.761661
C73	C	1.531960	-0.665194	0.301776
C74	C	2.031960	-0.165194	0.801776
C75	C	0.971168	-0.350571	0.349936
C76	C	1.471168	0.149429	0.849936
C77	C	1.093728	-0.350414	0.350138
C78	C	1.593728	0.149586	0.850138
C79	C	1.094261	-0.235906	0.319828
C80	C	1.594261	0.264094	0.819828
C81	C	0.971663	-0.236203	0.320168
C82	C	1.471663	0.263797	0.820168
C83	C	0.971463	-0.318673	0.235433
C84	C	1.471463	0.181327	0.735433
C85	C	1.094068	-0.320116	0.235791
C86	C	1.594068	0.179884	0.735791
C87	C	1.808483	-0.301914	0.301765
C88	C	2.308483	0.198086	0.801765
C89	C	1.926313	-0.301920	0.301765
C90	C	2.426313	0.198080	0.801765
C91	C	1.532065	-0.301886	0.465190
C92	C	2.032065	0.198114	0.965190
C93	C	1.532103	-0.301881	0.534831
C94	C	2.032103	0.198119	1.034831
C95	C	1.532135	-0.138476	0.301803
C96	C	2.032135	0.361524	0.801803
C97	C	1.532203	-0.068835	0.301819
C98	C	2.032203	0.431165	0.801819
C99	C	1.531951	-0.301867	0.138979
C100	C	2.031951	0.198133	0.638979
C101	C	1.532119	-0.301695	0.069338
C102	C	2.032119	0.198305	0.569338
C103	C	1.599941	-0.261810	0.567554
C104	C	2.099941	0.238190	1.067554
C105	C	1.599940	-0.261783	0.632989
C106	C	2.099940	0.238217	1.132989
C107	C	1.532111	-0.301838	0.665699
C108	C	2.032111	0.198162	1.165699
C109	C	1.464260	-0.341913	0.632969
C110	C	1.964260	0.158087	1.132969
C111	C	1.464255	-0.341934	0.567534
C112	C	1.964255	0.158066	1.067534
C113	C	1.523696	-0.358254	0.769367
C114	C	2.023696	0.141746	1.269367
C115	C	1.523707	-0.358233	0.834800
C116	C	2.023707	0.141767	1.334800
C117	C	1.532118	-0.301772	0.867520
C118	C	2.032118	0.198228	1.367520
C119	C	1.540539	-0.245330	0.834800
C120	C	2.040539	0.254670	1.334800
C121	C	1.540534	-0.245351	0.769366
C122	C	2.040534	0.254649	1.269366
C123	C	1.532108	-0.301819	0.736652
C124	C	2.032108	0.198181	1.236652
C125	C	1.599958	-0.261668	0.971196
C126	C	2.099958	0.238332	1.471196
C127	C	1.599949	-0.261640	1.036632
C128	C	2.099949	0.238360	1.536632
C129	C	1.464275	-0.341776	1.036610
C130	C	1.964275	0.158224	1.536610
C131	C	1.464278	-0.341798	0.971175
C132	C	1.964278	0.158202	1.471175
C133	C	1.532125	-0.301745	0.938472
C134	C	2.032125	0.198255	1.438472
H135	H	1.655130	-1.062662	0.374580
H136	H	2.155130	-0.562662	0.874580
F137	F	0.934320	-0.217630	0.383549
F138	F	1.434320	0.282370	0.883549
H139	H	1.123135	-0.368673	0.222182
H140	H	1.623135	0.131327	0.722182
H141	H	1.409036	-0.374383	1.063242
H142	H	1.909036	0.125617	1.563242
H143	H	1.124693	-0.287250	0.197974
H144	H	1.624693	0.212750	0.697974
F145	F	1.671841	-0.667195	0.384562
F146	F	2.171841	-0.167195	0.884562
H147	H	1.654831	-0.540317	0.374513
H148	H	2.154831	-0.040317	0.874513
H149	H	1.409030	-0.374524	0.659605
H150	H	1.909030	0.125476	1.159605
H151	H	1.655059	-0.943956	0.374566
H152	H	2.155059	-0.443956	0.874566
H153	H	1.547389	-0.199353	0.861439
H154	H	2.047389	0.300647	1.361439
F155	F	1.392015	-0.532330	0.218963
F156	F	1.892015	-0.032330	0.718963
H157	H	1.123404	-0.198673	0.285839
H158	H	1.623404	0.301327	0.785839
F159	F	1.392089	-0.667401	0.218983
F160	F	1.892089	-0.167401	0.718983
H161	H	1.124994	-0.221436	0.367794
H162	H	1.624994	0.278564	0.867794
H163	H	1.409271	-1.062846	0.229047
H164	H	1.909271	-0.562846	0.729047
F165	F	0.933545	-0.272355	0.188519
F166	F	1.433545	0.227645	0.688519
H167	H	1.705357	-0.860848	0.310853
H168	H	2.205357	-0.360848	0.810853
H169	H	1.123784	-0.399348	0.338828
H170	H	1.623784	0.100652	0.838828
H171	H	1.655187	-0.229195	0.540931
H172	H	2.155187	0.270805	1.040931
F173	F	1.514768	-0.418353	0.734549
F174	F	2.014768	0.081647	1.234549
F175	F	1.672162	-0.219038	0.936388
F176	F	2.172162	0.280962	1.436388
F177	F	1.672128	-0.219121	0.667822
F178	F	2.172128	0.280879	1.167822
F179	F	0.932594	-0.414745	0.335321
F180	F	1.432594	0.085255	0.835321
F181	F	0.932877	-0.187219	0.276310
F182	F	1.432877	0.312781	0.776310
H183	H	1.358723	-0.742318	0.292735
H184	H	1.858723	-0.242318	0.792735
H185	H	1.655190	-0.229005	1.063274
H186	H	2.155190	0.270995	1.563274
H187	H	1.547388	-0.199393	0.742727
H188	H	2.047388	0.300607	1.242727
H189	H	1.358788	-0.861025	0.292748
H190	H	1.858788	-0.361025	0.792748
F191	F	1.392253	-0.935967	0.219013
F192	F	1.892253	-0.435967	0.719013
H193	H	1.409043	-0.374432	0.944532
H194	H	1.909043	0.125568	1.444532
H195	H	1.516857	-0.404192	0.861436
H196	H	2.016857	0.095808	1.361436
F197	F	0.930913	-0.336280	0.413802
F198	F	1.430913	0.163720	0.913802
F199	F	1.132103	-0.335925	0.414379
F200	F	1.632103	0.164075	0.914379
F201	F	1.392049	-0.384585	0.532707
F202	F	1.892049	0.115415	1.032707
H203	H	0.940525	-0.365969	0.219033
H204	H	1.440525	0.134031	0.719033
H205	H	1.705285	-0.742135	0.310837
H206	H	2.205285	-0.242135	0.810837
