data_functionalizedCrystal
_audit_creation_method	'MofGen! by Chris Wilmer'
_symmetry_space_group_name_H-M	'P1'
_symmetry_Int_Tables_number	1
_symmetry_cell_setting	triclinic
loop_
_symmetry_equiv_pos_as_xyz
  x,y,z
_cell_length_a	14.971486
_cell_length_b	14.971486
_cell_length_c	14.048226
_cell_angle_alpha	90.003819
_cell_angle_beta	89.999893
_cell_angle_gamma	83.614129
loop_
_atom_site_label
_atom_site_type_symbol
_atom_site_fract_x
_atom_site_fract_y
_atom_site_fract_z
O1	O	1.186945	0.116561	0.079052
O2	O	0.926545	0.130520	0.079078
O3	O	1.063725	-0.006660	0.079057
O4	O	1.049766	0.253741	0.079072
O5	O	1.063712	-0.006661	-0.079264
O6	O	0.926532	0.130519	-0.079244
O7	O	1.186932	0.116560	-0.079270
Zn8	Zn	1.056730	0.123539	-0.104394
Zn9	Zn	1.056747	0.123541	0.104202
O10	O	1.049753	0.253739	-0.079249
C11	C	0.893214	0.129895	-0.000080
C12	C	0.793917	0.128024	-0.000070
C13	C	0.736692	0.208614	-0.000067
C14	C	0.643392	0.206850	-0.000081
C15	C	0.607320	0.124497	-0.000092
C16	C	0.664552	0.043902	-0.000098
C17	C	0.757850	0.045666	-0.000090
C18	C	0.470090	0.040231	-0.000111
C19	C	0.376786	0.038466	-0.000117
C20	C	0.355632	0.201415	-0.000102
C21	C	0.448930	0.203179	-0.000094
C22	C	0.506156	0.122584	-0.000099
C23	C	1.063094	-0.039985	-0.000103
C24	C	1.061223	-0.139282	-0.000102
C25	C	1.141812	-0.196507	-0.000111
C26	C	1.140049	-0.289807	-0.000101
C27	C	1.057696	-0.325879	-0.000089
C28	C	0.977101	-0.268646	-0.000078
C29	C	0.978865	-0.175349	-0.000081
C30	C	0.973430	-0.463109	-0.000074
C31	C	0.971665	-0.556413	-0.000073
C32	C	1.134614	-0.577567	-0.000094
C33	C	1.136378	-0.484269	-0.000097
C34	C	1.055782	-0.427043	-0.000088
C35	C	1.220263	0.117185	-0.000110
C36	C	1.319561	0.119056	-0.000114
C37	C	1.050384	0.287065	-0.000087
C38	C	1.052254	0.386362	-0.000082
N39	N	1.056725	0.123538	-0.246754
C40	C	1.111027	0.177879	-0.296571
C41	C	1.111039	0.177875	-0.396228
C42	C	1.056742	0.123534	-0.446068
C43	C	1.002438	0.069187	-0.396245
C44	C	1.002432	0.069186	-0.296589
C45	C	1.002453	0.069193	-0.603959
C46	C	1.002457	0.069194	-0.703621
C47	C	1.111060	0.177881	-0.703598
C48	C	1.111054	0.177881	-0.603943
C49	C	1.056748	0.123535	-0.554126
N50	N	1.056760	0.123535	0.246562
H51	H	1.208874	-0.167145	-0.000126
O52	O	0.587844	0.285161	0.000095
C53	C	0.604218	0.335159	0.082089
H54	H	0.636046	0.287967	0.139396
H55	H	0.538063	0.370959	0.109609
H56	H	0.651784	0.386980	0.063565
H57	H	0.907800	-0.416517	-0.000064
O58	O	0.897158	-0.303791	0.000061
C59	C	0.891261	-0.357104	0.082069
H60	H	0.961737	-0.380263	0.109398
H61	H	0.855538	-0.418235	0.063631
H62	H	0.851739	-0.315924	0.139490
O63	O	1.163688	0.230643	-0.248013
C64	C	1.152057	0.218978	-0.149371
H65	H	1.084287	0.193366	-0.135765
H66	H	1.154376	0.286024	-0.111493
H67	H	1.208101	0.168113	-0.121090
O68	O	1.216398	-0.449271	0.000057
C69	C	1.265551	-0.478514	0.082036
H70	H	1.217403	-0.497970	0.139354
H71	H	1.303667	-0.421952	0.109551
H72	H	1.315329	-0.539265	0.063493
O73	O	1.163807	0.230750	-0.444472
C74	C	1.211740	0.278701	-0.379113
H75	H	1.174713	0.283855	-0.308078
H76	H	1.217353	0.349049	-0.407900
H77	H	1.281911	0.241976	-0.368511
O78	O	0.299920	0.279625	-0.000139
C79	C	0.209837	0.260413	-0.000127
H80	H	0.206187	0.190157	-0.030117
H81	H	0.167626	0.311783	-0.046083
H82	H	0.182856	0.263765	0.075827
O83	O	1.218417	-0.345267	-0.000158
C84	C	1.291481	-0.293423	-0.000154
H85	H	1.268846	-0.223818	-0.030125
H86	H	1.347945	-0.327781	-0.046130
H87	H	1.316734	-0.286747	0.075795
H88	H	0.904606	-0.585780	-0.000079
H89	H	0.516682	-0.025399	-0.000116
O90	O	0.813478	-0.032595	-0.000258
C91	C	0.868098	-0.036441	-0.082239
H92	H	0.833982	0.009262	-0.139548
H93	H	0.878515	-0.108479	-0.109767
H94	H	0.935964	-0.013216	-0.063694
O95	O	0.900497	-0.119885	-0.000115
C96	C	0.827431	-0.171727	-0.000079
H97	H	0.850053	-0.241335	-0.030059
H98	H	0.770952	-0.137371	-0.046033
H99	H	0.802203	-0.178394	0.075880
H100	H	1.200238	-0.624165	-0.000099
H101	H	1.155262	0.222134	-0.563366
H102	H	0.958233	0.024937	-0.436832
O103	O	0.484085	0.283117	-0.000195
C104	C	0.537416	0.289026	-0.082190
H105	H	0.560568	0.218555	-0.109545
H106	H	0.598552	0.324731	-0.063726
H107	H	0.496255	0.328572	-0.139603
H108	H	1.155274	0.222136	-0.744164
H109	H	0.347419	-0.028593	-0.000127
H110	H	0.958243	0.024946	-0.744198
O111	O	0.949616	0.016378	-0.555713
C112	C	0.901707	-0.031599	-0.621070
H113	H	0.896531	0.005420	-0.692106
H114	H	0.831367	-0.037260	-0.592282
H115	H	0.938480	-0.101750	-0.631670
O116	O	0.629619	-0.036152	0.000020
C117	C	0.658832	-0.085274	0.082026
H118	H	0.723564	-0.060828	0.109366
H119	H	0.671702	-0.159748	0.063582
H120	H	0.604855	-0.074970	0.139442
O121	O	0.949545	0.016505	-0.248237
C122	C	0.858788	0.041121	-0.272609
H123	H	0.850214	0.113240	-0.299998
H124	H	0.814778	0.035834	-0.207075
H125	H	0.837984	-0.005805	-0.330461
O126	O	0.771770	0.288591	0.000115
C127	C	0.825114	0.294480	0.082105
H128	H	0.802999	0.247713	0.139409
H129	H	0.816809	0.366558	0.109634
H130	H	0.898667	0.273932	0.063572
