data_functionalizedCrystal
_audit_creation_method	'MofGen! by Chris Wilmer'
_symmetry_space_group_name_H-M	'P1'
_symmetry_Int_Tables_number	1
_symmetry_cell_setting	triclinic
loop_
_symmetry_equiv_pos_as_xyz
  x,y,z
_cell_length_a	13.339070
_cell_length_b	13.339070
_cell_length_c	12.376457
_cell_angle_alpha	75.601917
_cell_angle_beta	75.589755
_cell_angle_gamma	64.370706
loop_
_atom_site_label
_atom_site_type_symbol
_atom_site_fract_x
_atom_site_fract_y
_atom_site_fract_z
O1	O	1.511964	-0.535384	-0.094035
O2	O	1.197153	-0.463125	-0.094030
O3	O	1.318428	-0.341851	-0.094029
O4	O	1.390689	-0.656659	-0.094037
O5	O	1.288108	-0.372116	0.093983
O6	O	1.166834	-0.493391	0.093982
O7	O	1.481644	-0.565650	0.093976
Zn8	Zn	1.319425	-0.534326	0.123830
Zn9	Zn	1.359372	-0.494450	-0.123884
O10	O	1.360369	-0.686924	0.093975
C11	C	1.140878	-0.466052	-0.000024
C12	C	1.018364	-0.429669	-0.000022
C13	C	0.732980	-0.712564	-0.000047
C14	C	0.848090	-0.746750	-0.000052
C15	C	0.890664	-0.667483	-0.000044
C16	C	0.818117	-0.554023	-0.000031
C17	C	0.702998	-0.519831	-0.000035
C18	C	0.860682	-0.474751	-0.000032
C19	C	0.788135	-0.361291	-0.000020
C20	C	0.673027	-0.327105	-0.000022
C21	C	0.630453	-0.406372	-0.000030
C22	C	0.975801	-0.508942	-0.000029
C23	C	0.945819	-0.316210	-0.000017
C24	C	0.830709	-0.282023	-0.000012
C25	C	1.291062	-0.315868	-0.000024
C26	C	1.254679	-0.193353	-0.000028
C27	C	1.537920	-0.562723	-0.000033
C28	C	1.660435	-0.599105	-0.000042
C29	C	1.387736	-0.712907	-0.000032
C30	C	1.424120	-0.835420	-0.000035
N31	N	1.292170	-0.561541	0.292888
C32	C	1.537579	0.092035	-0.000032
C33	C	1.571765	-0.023075	-0.000022
C34	C	1.492496	-0.065651	-0.000024
C35	C	1.379036	0.006896	-0.000035
C36	C	1.344845	0.122016	-0.000037
C37	C	1.299763	-0.035669	-0.000028
C38	C	1.186303	0.036877	-0.000040
C39	C	1.152118	0.151986	-0.000042
C40	C	1.231386	0.194561	-0.000040
C41	C	1.333954	-0.150790	-0.000027
C42	C	1.141220	-0.120808	-0.000031
C43	C	1.107034	-0.005698	-0.000042
N44	N	1.386634	-0.467227	-0.292942
C45	C	1.449896	-0.404029	0.647875
C46	C	1.468966	-0.384979	0.529535
C47	C	1.424768	-0.429117	0.470367
C48	C	1.361498	-0.492310	0.529551
C49	C	1.342434	-0.511370	0.647902
C50	C	1.317306	-0.536458	0.470395
C51	C	1.254035	-0.599651	0.529579
C52	C	1.234974	-0.618707	0.647918
C53	C	1.279171	-0.574568	0.707086
C54	C	1.336370	-0.517399	0.352044
C55	C	1.228907	-0.624740	0.352071
C56	C	1.209837	-0.643790	0.470411
H57	H	0.980482	-0.251662	-0.000015
F58	F	1.454702	-0.227986	-0.000015
F59	F	0.753487	-0.161273	0.000001
H60	H	1.192920	-0.660684	0.303898
F61	F	1.142502	-0.711044	0.533411
H62	H	1.034857	-0.601322	-0.000035
H63	H	1.520338	-0.159380	-0.000016
H64	H	1.520481	-0.333529	0.481352
F65	F	1.258870	-0.594838	0.833039
H66	H	1.664144	-0.082135	-0.000012
F67	F	1.621925	0.137352	-0.000013
F68	F	1.167650	-0.685976	0.710906
H69	H	0.984393	-0.695324	-0.000051
F70	F	1.195025	0.317093	-0.000157
H71	H	0.698306	-0.777089	-0.000063
F72	F	0.925291	-0.867497	-0.000070
H73	H	0.536722	-0.378543	-0.000025
F74	F	1.056849	-0.166114	-0.000027
H75	H	0.613963	-0.234717	-0.000025
H76	H	1.014653	0.053385	-0.000050
F77	F	1.496939	-0.357070	0.710848
F78	F	1.403704	-0.450146	0.289070
H79	H	1.059730	0.211050	-0.000042
H80	H	1.440298	-0.413604	0.374010
