data_functionalizedCrystal
_audit_creation_method	'MofGen! by Chris Wilmer'
_symmetry_space_group_name_H-M	'P1'
_symmetry_Int_Tables_number	1
_symmetry_cell_setting	triclinic
loop_
_symmetry_equiv_pos_as_xyz
  x,y,z
_cell_length_a	18.050591
_cell_length_b	18.050590
_cell_length_c	19.805399
_cell_angle_alpha	89.972574
_cell_angle_beta	89.975361
_cell_angle_gamma	90.014558
loop_
_atom_site_label
_atom_site_type_symbol
_atom_site_fract_x
_atom_site_fract_y
_atom_site_fract_z
Zn1	Zn	1.135370	-0.295756	-0.382812
Zn2	Zn	1.135293	-0.419948	-0.269624
Zn3	Zn	1.011181	-0.295768	-0.269626
Zn4	Zn	1.011158	-0.419900	-0.382761
O5	O	1.073250	-0.357843	-0.326206
O6	O	1.239284	-0.312245	-0.367818
O7	O	1.118807	-0.403500	-0.174908
O8	O	1.027696	-0.191841	-0.284663
O9	O	1.239228	-0.403489	-0.284659
O10	O	1.118937	-0.191833	-0.367820
O11	O	1.027622	-0.312265	-0.174909
O12	O	0.907253	-0.312219	-0.284614
O13	O	1.027657	-0.403407	-0.477484
O14	O	0.907236	-0.403418	-0.367733
O15	O	1.118915	-0.312199	-0.477522
O16	O	1.118785	-0.523866	-0.284609
O17	O	1.027583	-0.523831	-0.367730
C18	C	0.880298	-0.357815	-0.326168
C19	C	0.797752	-0.357821	-0.326168
C20	C	0.598289	-0.308169	-0.281072
C21	C	0.548880	-0.375907	-0.264415
C22	C	0.646622	-0.357844	-0.326199
C23	C	0.548950	-0.290130	-0.342855
C24	C	0.500637	-0.357859	-0.326227
C25	C	0.598300	-0.425616	-0.309509
C26	C	0.598374	-0.339794	-0.387978
C27	C	0.548987	-0.407578	-0.371344
C28	C	0.730720	-0.357834	-0.326181
C29	C	0.416541	-0.357877	-0.326245
C30	C	1.073193	-0.550795	-0.326179
C31	C	1.073237	-0.633341	-0.326190
C32	C	1.122936	-0.832784	-0.281052
C33	C	1.141075	-0.882119	-0.342828
C34	C	1.073279	-0.784471	-0.326217
C35	C	1.055215	-0.882218	-0.264468
C36	C	1.073321	-0.930456	-0.326237
C37	C	1.091454	-0.832719	-0.388026
C38	C	1.005561	-0.832813	-0.309624
C39	C	1.023676	-0.882126	-0.371443
C40	C	1.073257	-0.700373	-0.326204
C41	C	1.073343	-1.014553	-0.326257
C42	C	1.266956	-0.357871	-0.326244
C43	C	1.349502	-0.357883	-0.326260
C44	C	1.073292	-0.357796	-0.502748
C45	C	1.073310	-0.357776	-0.577981
C46	C	1.073328	-0.164137	-0.326248
C47	C	1.073361	-0.081591	-0.326265
C48	C	1.120829	-0.310282	-0.613345
C49	C	1.120836	-0.310260	-0.684034
C50	C	1.073328	-0.357737	-0.719356
C51	C	1.025804	-0.405234	-0.683986
C52	C	1.025793	-0.405251	-0.613299
C53	C	1.025846	-0.405165	-0.969060
C54	C	1.025862	-0.405145	-1.039752
C55	C	1.120889	-0.310174	-1.039794
C56	C	1.120878	-0.310191	-0.969107
C57	C	1.073352	-0.357684	-0.933744
C58	C	1.073343	-0.357706	-0.857095
C59	C	1.073340	-0.357720	-0.796003
C60	C	1.073252	-0.357836	-0.150350
C61	C	1.073378	-0.357646	-0.075118
H62	H	0.619937	-0.266207	-0.242869
H63	H	0.987172	-0.443808	-1.068510
H64	H	0.527233	-0.232866	-0.356907
H65	H	1.164943	-0.811117	-0.242896
H66	H	1.106693	-0.811069	-0.440299
H67	H	0.987158	-0.443847	-0.940275
H68	H	0.981701	-0.903655	-0.409691
H69	H	1.198361	-0.903778	-0.356875
H70	H	1.039919	-0.903960	-0.212240
H71	H	1.159585	-0.271500	-1.068596
H72	H	0.527475	-0.449641	-0.409518
H73	H	0.948293	-0.811138	-0.295558
H74	H	1.159567	-0.271533	-0.940351
H75	H	0.527141	-0.391185	-0.212181
H76	H	0.619887	-0.482905	-0.295375
H77	H	0.620131	-0.324495	-0.440196
H78	H	1.159518	-0.271622	-0.584591
H79	H	1.159533	-0.271587	-0.712825
H80	H	0.987119	-0.443888	-0.712751
H81	H	0.987091	-0.443918	-0.584506
