data_functionalizedCrystal
_audit_creation_method	'MofGen! by Chris Wilmer'
_symmetry_space_group_name_H-M	'P1'
_symmetry_Int_Tables_number	1
_symmetry_cell_setting	triclinic
loop_
_symmetry_equiv_pos_as_xyz
  x,y,z
_cell_length_a	18.101398
_cell_length_b	18.101389
_cell_length_c	12.759394
_cell_angle_alpha	90.015689
_cell_angle_beta	89.987011
_cell_angle_gamma	89.985654
loop_
_atom_site_label
_atom_site_type_symbol
_atom_site_fract_x
_atom_site_fract_y
_atom_site_fract_z
Zn1	Zn	1.132205	-0.418656	0.418429
Zn2	Zn	1.632205	0.081344	0.918429
Zn3	Zn	1.132136	-0.294820	0.594097
Zn4	Zn	1.632136	0.205180	1.094097
Zn5	Zn	1.008364	-0.294838	0.418426
Zn6	Zn	1.508364	0.205162	0.918426
Zn7	Zn	1.008349	-0.418630	0.594060
Zn8	Zn	1.508349	0.081370	1.094060
O9	O	1.070263	-0.356736	0.506253
O10	O	1.570263	0.143264	1.006253
O11	O	1.235828	-0.402232	0.441747
O12	O	1.735828	0.097768	0.941747
O13	O	1.115694	-0.191189	0.570808
O14	O	1.615694	0.308811	1.070808
O15	O	1.024826	-0.311281	0.271406
O16	O	1.524826	0.188719	0.771406
O17	O	1.235778	-0.311250	0.570810
O18	O	1.735778	0.188750	1.070810
O19	O	1.115812	-0.402249	0.271407
O20	O	1.615812	0.097751	0.771407
O21	O	1.024759	-0.191203	0.441744
O22	O	1.524759	0.308797	0.941744
O23	O	0.904729	-0.311257	0.441709
O24	O	1.404729	0.188743	0.941709
O25	O	1.024802	-0.522266	0.570748
O26	O	1.524802	-0.022266	1.070748
O27	O	0.904718	-0.402206	0.570746
O28	O	1.404718	0.097794	1.070746
O29	O	1.115798	-0.522285	0.441712
O30	O	1.615798	-0.022285	0.941712
O31	O	1.115680	-0.311225	0.741113
O32	O	1.615680	0.188775	1.241113
O33	O	1.024735	-0.402188	0.741086
O34	O	1.524735	0.097812	1.241086
C35	C	0.877853	-0.356731	0.506224
C36	C	1.377853	0.143269	1.006224
C37	C	0.795539	-0.356746	0.506237
C38	C	1.295539	0.143254	1.006237
C39	C	0.644830	-0.356745	0.506257
C40	C	1.144830	0.143255	1.006257
C41	C	0.613495	-0.413879	0.587568
C42	C	1.113495	0.086121	1.087568
C43	C	0.527877	-0.413710	0.587897
C44	C	1.027877	0.086290	1.087897
C45	C	0.496448	-0.356745	0.506276
C46	C	0.996448	0.143255	1.006276
C47	C	0.527506	-0.278604	0.535803
C48	C	1.027506	0.221396	1.035803
C49	C	0.613151	-0.278935	0.536382
C50	C	1.113151	0.221065	1.036382
C51	C	0.613287	-0.377069	0.395216
C52	C	1.113287	0.122931	0.895216
C53	C	0.527637	-0.378790	0.395825
C54	C	1.027637	0.121210	0.895825
C55	C	0.412588	-0.356740	0.506285
C56	C	0.912588	0.143260	1.006285
C57	C	0.728690	-0.356745	0.506250
C58	C	1.228690	0.143255	1.006250
C59	C	1.070306	-0.549898	0.506226
C60	C	1.570306	-0.049898	1.006226
C61	C	1.070324	-0.632212	0.506215
C62	C	1.570324	-0.132212	1.006215
C63	C	1.070368	-0.931303	0.506018
C64	C	1.570368	-0.431303	1.006018
C65	C	1.012918	-0.899966	0.586946
C66	C	1.512918	-0.399966	1.086946
C67	C	1.013074	-0.814348	0.587321
C68	C	1.513074	-0.314348	1.087321
C69	C	1.070345	-0.782921	0.506116
C70	C	1.570345	-0.282921	1.006116
C71	C	1.148377	-0.814014	0.536173
C72	C	1.648377	-0.314014	1.036173
C73	C	1.148057	-0.899659	0.536704
C74	C	1.648057	-0.399659	1.036704
C75	C	1.050464	-0.899727	0.394854
C76	C	1.550464	-0.399727	0.894854
C77	C	1.048728	-0.814077	0.395496
C78	C	1.548728	-0.314077	0.895496
C79	C	1.070338	-0.699061	0.506169
C80	C	1.570338	-0.199061	1.006169
C81	C	1.070380	-1.015163	0.505967
C82	C	1.570380	-0.515163	1.005967
C83	C	1.263425	-0.356742	0.506283
C84	C	1.763425	0.143258	1.006283
C85	C	1.345739	-0.356744	0.506295
C86	C	1.845739	0.143256	1.006295
C87	C	1.070219	-0.356718	0.779220
C88	C	1.570219	0.143282	1.279220
C89	C	1.070268	-0.356735	0.895997
C90	C	1.570268	0.143265	1.395997
C91	C	1.070263	-0.164325	0.506204
C92	C	1.570263	0.335675	1.006204
C93	C	1.070389	-0.082012	0.505919
C94	C	1.570389	0.417988	1.005919
C95	C	1.070328	-0.356770	0.232220
C96	C	1.570328	0.143230	0.732220
C97	C	1.070356	-0.356785	0.115443
C98	C	1.570356	0.143215	0.615443
C99	C	1.165040	-0.262087	0.895971
C100	C	1.665040	0.237913	1.395971
C101	C	1.212445	-0.214771	0.950819
C102	C	1.712445	0.285229	1.450819
C103	C	1.212489	-0.214791	1.060541
C104	C	1.712489	0.285209	1.560541
C105	C	1.165123	-0.262134	1.115417
C106	C	1.665123	0.237866	1.615417
C107	C	1.117718	-0.309449	1.060569
C108	C	1.617718	0.190551	1.560569
C109	C	1.117678	-0.309422	0.950845
C110	C	1.617678	0.190578	1.450845
C111	C	1.022950	-0.404100	1.060595
C112	C	1.522950	0.095900	1.560595
C113	C	1.022902	-0.404078	0.950873
C114	C	1.522902	0.095922	1.450873
C115	C	0.975585	-0.451443	1.115471
C116	C	1.475585	0.048557	1.615471
C117	C	0.928174	-0.498756	1.060623
C118	C	1.428174	0.001244	1.560623
C119	C	0.928132	-0.498733	0.950895
C120	C	1.428132	0.001267	1.450895
C121	C	0.975497	-0.451393	0.896025
C122	C	1.475497	0.048607	1.396025
H123	H	0.634112	-0.471990	0.569366
H124	H	1.134112	0.028010	1.069366
H125	H	1.165000	-0.262056	0.806630
H126	H	1.665000	0.237944	1.306630
H127	H	1.192313	-0.920390	0.480319
H128	H	1.692313	-0.420390	0.980319
Cl129	Cl	1.164866	-0.261844	1.253352
Cl130	Cl	1.664866	0.238156	1.753352
H131	H	0.634907	-0.433089	0.368235
H132	H	1.134907	0.066911	0.868235
Cl133	Cl	1.271991	-0.155261	0.881828
Cl134	Cl	1.771991	0.344739	1.381828
Cl135	Cl	0.494367	-0.251625	0.659730
Cl136	Cl	0.994367	0.248375	1.159730
Cl137	Cl	0.964137	-0.933063	0.352577
Cl138	Cl	1.464137	-0.433063	0.852577
H139	H	1.192331	-0.793658	0.479081
H140	H	1.692331	-0.293658	0.979081
Cl141	Cl	0.960064	-0.782710	0.360503
Cl142	Cl	1.460064	-0.282710	0.860503
Cl143	Cl	0.646696	-0.393319	0.713886
Cl144	Cl	1.146696	0.106681	1.213886
Cl145	Cl	0.923309	-0.931756	0.558201
Cl146	Cl	1.423309	-0.431756	1.058201
H147	H	0.507340	-0.436298	0.373550
H148	H	1.007340	0.063702	0.873550
H149	H	0.975627	-0.451459	1.204812
H150	H	1.475627	0.048541	1.704812
Cl151	Cl	1.174876	-0.780912	0.660303
Cl152	Cl	1.674876	-0.280912	1.160303
H153	H	1.087516	-0.792684	0.331999
H154	H	1.587516	-0.292684	0.831999
Cl155	Cl	1.272088	-0.155312	1.129496
Cl156	Cl	1.772088	0.344688	1.629496
H157	H	0.633552	-0.335460	0.334640
H158	H	1.133552	0.164540	0.834640
H159	H	0.889617	-0.537301	1.105312
H160	H	1.389617	-0.037301	1.605312
H161	H	0.506243	-0.340244	0.332046
H162	H	1.006243	0.159756	0.832046
Cl163	Cl	0.923738	-0.781886	0.558277
Cl164	Cl	1.423738	-0.281886	1.058277
H165	H	1.025930	-0.921492	0.668842
H166	H	1.525930	-0.421492	1.168842
H167	H	1.026216	-0.793866	0.669720
H168	H	1.526216	-0.293866	1.169720
Cl169	Cl	1.115065	-0.931016	0.301762
Cl170	Cl	1.615065	-0.431016	0.801762
H171	H	0.507371	-0.400226	0.670185
H172	H	1.007371	0.099774	1.170185
Cl173	Cl	1.174101	-0.930515	0.662167
Cl174	Cl	1.674101	-0.430515	1.162167
H175	H	0.889532	-0.537266	0.906243
H176	H	1.389532	-0.037266	1.406243
Cl177	Cl	0.975663	-0.451576	0.758089
Cl178	Cl	1.475663	0.048424	1.258089
H179	H	0.506878	-0.471641	0.569480
H180	H	1.006878	0.028359	1.069480
H181	H	0.633110	-0.261756	0.617536
H182	H	1.133110	0.238244	1.117536
H183	H	0.507148	-0.234866	0.478394
H184	H	1.007148	0.265134	0.978394
Cl185	Cl	0.645158	-0.210935	0.448889
Cl186	Cl	1.145158	0.289065	0.948889
