data_functionalizedCrystal
_audit_creation_method	'MofGen! by Chris Wilmer'
_symmetry_space_group_name_H-M	'P1'
_symmetry_Int_Tables_number	1
_symmetry_cell_setting	triclinic
loop_
_symmetry_equiv_pos_as_xyz
  x,y,z
_cell_length_a	18.215407
_cell_length_b	12.759400
_cell_length_c	12.759393
_cell_angle_alpha	90.031564
_cell_angle_beta	89.978169
_cell_angle_gamma	89.984868
loop_
_atom_site_label
_atom_site_type_symbol
_atom_site_fract_x
_atom_site_fract_y
_atom_site_fract_z
Zn1	Zn	1.125139	0.418192	-0.594075
Zn2	Zn	1.125065	0.593911	-0.418395
Zn3	Zn	1.002067	0.418248	-0.418404
Zn4	Zn	1.002059	0.593831	-0.594026
O5	O	1.063582	0.506045	-0.506225
O6	O	1.228113	0.441511	-0.570787
O7	O	1.108721	0.570665	-0.271375
O8	O	1.018427	0.271219	-0.441731
O9	O	1.228059	0.570611	-0.441716
O10	O	1.108847	0.271178	-0.570796
O11	O	1.018355	0.441607	-0.271382
O12	O	0.899082	0.441529	-0.441684
O13	O	1.018413	0.570475	-0.741054
O14	O	0.899076	0.570529	-0.570713
O15	O	1.108840	0.441434	-0.741090
O16	O	1.108713	0.740921	-0.441669
O17	O	1.018342	0.740862	-0.570704
C18	C	0.872376	0.506027	-0.506195
C19	C	0.790577	0.506045	-0.506207
C20	C	1.063539	0.779013	-0.506203
C21	C	1.063587	0.895789	-0.506229
C22	C	1.063634	0.505939	-0.780258
C23	C	1.063656	0.505894	-0.897035
C24	C	0.602399	0.573321	-0.573308
C25	C	0.525541	0.573324	-0.573321
C26	C	0.525517	0.438789	-0.439165
C27	C	0.602375	0.438781	-0.439158
C28	C	0.640814	0.506053	-0.506228
C29	C	0.487098	0.506064	-0.506248
C30	C	0.403764	0.506067	-0.506262
C31	C	0.724153	0.506049	-0.506216
C32	C	1.255535	0.506064	-0.506256
C33	C	1.337334	0.506072	-0.506269
C34	C	1.063646	0.232012	-0.506270
C35	C	1.063673	0.115235	-0.506289
C36	C	1.110696	0.950647	-0.439114
C37	C	1.110741	1.060371	-0.439147
C38	C	1.016563	1.060370	-0.573411
C39	C	1.016522	0.950648	-0.573383
C40	C	1.165067	0.950648	-0.361595
C41	C	1.165112	1.060372	-0.361627
C42	C	1.110747	0.438696	-0.951918
C43	C	1.110765	0.438658	-1.061642
C44	C	1.016597	0.573025	-1.061591
C45	C	1.016577	0.573057	-0.951869
C46	C	1.165116	0.361123	-0.951947
C47	C	1.165134	0.361085	-1.061672
C48	C	1.063573	0.506075	-0.233258
C49	C	1.063694	0.505824	-0.116482
H50	H	0.633694	0.628095	-0.627923
H51	H	0.978169	0.905984	-0.628042
C52	C	0.483289	0.647334	-0.647105
N53	N	0.451465	0.703084	-0.702679
C54	C	0.644633	0.364777	-0.365361
N55	N	0.676461	0.309039	-0.309780
H56	H	1.219262	1.094317	-0.390843
H57	H	0.494211	0.384020	-0.384558
H58	H	0.978244	1.105049	-0.628087
H59	H	0.978228	0.627773	-0.907188
C60	C	1.238246	0.400498	-0.905967
N61	N	1.293329	0.430149	-0.871334
C62	C	1.242041	0.910306	-0.391123
N63	N	1.300016	0.879921	-0.413365
H64	H	1.149868	0.279759	-0.922190
C65	C	1.137490	0.904782	-0.257138
N66	N	1.116711	0.870235	-0.178465
C67	C	1.137618	0.256628	-1.107672
N68	N	1.116902	0.177949	-1.142321
C69	C	0.964812	0.646899	-1.121919
N70	N	0.925806	0.702543	-1.167357
C71	C	1.242131	0.390535	-1.101912
N72	N	1.300123	0.412720	-1.132221
H73	H	1.149886	1.090235	-0.280245
