data_functionalizedCrystal
_audit_creation_method	'MofGen! by Chris Wilmer'
_symmetry_space_group_name_H-M	'P1'
_symmetry_Int_Tables_number	1
_symmetry_cell_setting	triclinic
loop_
_symmetry_equiv_pos_as_xyz
  x,y,z
_cell_length_a	17.699083
_cell_length_b	14.853567
_cell_length_c	16.176319
_cell_angle_alpha	89.996997
_cell_angle_beta	89.998611
_cell_angle_gamma	83.458972
loop_
_atom_site_label
_atom_site_type_symbol
_atom_site_fract_x
_atom_site_fract_y
_atom_site_fract_z
O1	O	1.004375	0.114008	-0.068624
O2	O	0.784035	0.128841	-0.068650
O3	O	0.900090	-0.009827	-0.068639
O4	O	0.888319	0.252676	-0.068635
O5	O	0.900074	-0.009836	0.068855
O6	O	0.784019	0.128832	0.068843
O7	O	1.004359	0.113999	0.068869
Cu8	Cu	0.894187	0.121415	0.081411
Cu9	Cu	0.894206	0.121425	-0.081191
O10	O	0.888303	0.252667	0.068858
C11	C	0.755828	0.128305	0.000093
C12	C	0.671806	0.126711	0.000083
C13	C	0.623396	0.208106	0.000084
C14	C	0.544449	0.206602	0.000095
C15	C	0.513913	0.123703	0.000098
C16	C	0.562329	0.042301	0.000099
C17	C	0.641275	0.043806	0.000095
C18	C	0.243950	0.036232	0.000120
C19	C	0.164999	0.034734	0.000122
C20	C	0.147125	0.199028	0.000120
C21	C	0.226070	0.200533	0.000115
C22	C	0.274479	0.119132	0.000121
C23	C	0.360083	0.120763	0.000111
C24	C	0.428311	0.122070	0.000102
C25	C	0.899549	-0.043418	0.000106
C26	C	0.897951	-0.143496	0.000098
C27	C	0.822255	-0.555751	0.000105
C28	C	0.960131	-0.577539	0.000121
C29	C	0.961634	-0.483511	0.000117
C30	C	0.893446	-0.425598	0.000107
C31	C	0.823756	-0.461714	0.000103
C32	C	1.031324	-0.447389	0.000129
C33	C	1.032829	-0.353355	0.000126
C34	C	0.964641	-0.295441	0.000111
C35	C	0.894947	-0.331561	0.000105
C36	C	0.826759	-0.273648	0.000096
C37	C	0.757065	-0.309767	0.000084
C38	C	0.755567	-0.403799	0.000088
C39	C	0.966139	-0.201409	0.000107
C40	C	0.828260	-0.179611	0.000094
C41	C	1.032565	0.114535	0.000125
C42	C	1.116587	0.116130	0.000129
C43	C	0.888844	0.286258	0.000112
C44	C	0.890443	0.386336	0.000114
N45	N	0.894179	0.121407	0.195776
N46	N	0.894220	0.121426	-0.195556
C47	C	0.945584	0.060030	0.239045
C48	C	0.945588	0.060029	0.325592
C49	C	0.894190	0.121410	0.368868
C50	C	0.842780	0.182790	0.325593
C51	C	0.842773	0.182786	0.239048
C52	C	0.842806	0.182807	0.674621
C53	C	0.842818	0.182808	0.761173
C54	C	0.945621	0.060050	0.761166
C55	C	0.945614	0.060046	0.674620
C56	C	0.894201	0.121422	0.631353
C57	C	0.894197	0.121422	0.537508
C58	C	0.894198	0.121416	0.462711
H59	H	0.772732	-0.132463	0.000082
H60	H	0.107700	0.265309	0.000120
C61	C	0.786884	0.249345	0.808118
C62	C	0.712499	0.234807	0.787099
C63	C	0.660956	0.296070	0.830337
H64	H	0.795051	0.309544	0.793965
H65	H	0.794204	0.240551	0.865866
H66	H	0.705181	0.243607	0.729364
H67	H	0.704307	0.174619	0.801254
H68	H	0.668276	0.287277	0.888084
H69	H	0.669131	0.356266	0.816180
H70	H	0.610480	0.286209	0.816087
H71	H	0.701546	-0.262602	0.000083
H72	H	0.987482	0.010071	0.796404
C73	C	0.787080	0.249598	0.627701
C74	C	0.799464	0.338169	0.648735
C75	C	0.748148	0.399726	0.605519
H76	H	0.736529	0.240006	0.641862
H77	H	0.794431	0.240873	0.569951
H78	H	0.792106	0.346890	0.706473
H79	H	0.850004	0.347789	0.634571
H80	H	0.755500	0.391001	0.547768
H81	H	0.697601	0.390126	0.619683
H82	H	0.756549	0.459828	0.619778
H83	H	0.648252	0.275612	0.000081
H84	H	0.800927	0.232765	0.360834
H85	H	0.765511	-0.585163	0.000092
H86	H	0.800913	0.232764	0.203819
H87	H	0.987442	0.010050	0.203815
C88	C	0.679981	-0.443190	0.000127
C89	C	0.693264	-0.537934	0.000158
C90	C	0.623654	-0.574254	0.000209
H91	H	0.651845	-0.423407	-0.047810
H92	H	0.651891	-0.423351	0.048090
H93	H	0.721342	-0.557764	-0.047800
H94	H	0.721389	-0.557741	0.048091
H95	H	0.595564	-0.554416	0.048173
H96	H	0.595523	-0.554466	-0.047728
H97	H	0.632657	-0.638541	0.000239
H98	H	1.015647	-0.624697	0.000135
H99	H	1.086839	-0.494548	0.000145
H100	H	0.140140	-0.032777	0.000126
H101	H	0.987470	0.010067	0.639387
C102	C	0.492016	0.295073	0.000053
C103	C	0.535655	0.367994	0.000023
C104	C	0.487380	0.449510	-0.000025
H105	H	0.460834	0.298030	0.047991
H106	H	0.460855	0.297952	-0.047909
H107	H	0.566803	0.365116	0.047980
H108	H	0.566835	0.365066	-0.047911
H109	H	0.456219	0.452389	-0.047988
H110	H	0.456201	0.452458	0.047913
H111	H	0.516982	0.498996	-0.000053
C112	C	1.108571	-0.314319	0.000089
C113	C	1.167964	-0.385164	0.000078
C114	C	1.237747	-0.349238	0.000031
H115	H	1.112127	-0.278101	0.048020
H116	H	1.112068	-0.278120	-0.047880
H117	H	1.164469	-0.421349	0.048043
H118	H	1.164433	-0.421389	-0.047849
H119	H	1.241244	-0.313038	-0.047938
H120	H	1.241295	-0.313020	0.047963
H121	H	1.278053	-0.397300	0.000016
H122	H	1.022883	-0.172005	0.000122
H123	H	0.987445	0.010051	0.360821
H124	H	0.250928	0.268038	0.000109
H125	H	0.537461	-0.025197	0.000114
C126	C	0.296462	-0.052174	-0.000051
C127	C	0.282659	-0.102083	-0.070799
C128	C	0.331028	-0.183527	-0.070991
H129	H	0.287237	-0.086283	0.047839
H130	H	0.347866	-0.039454	-0.000096
H131	H	0.231267	-0.114806	-0.070747
H132	H	0.291889	-0.068002	-0.118701
H133	H	0.382432	-0.170807	-0.071035
H134	H	0.321799	-0.217628	-0.023097
H135	H	0.321674	-0.217397	-0.118996
H136	H	0.680690	-0.022475	0.000093
