data_functionalizedCrystal
_audit_creation_method	'MofGen! by Chris Wilmer'
_symmetry_space_group_name_H-M	'P1'
_symmetry_Int_Tables_number	1
_symmetry_cell_setting	triclinic
loop_
_symmetry_equiv_pos_as_xyz
  x,y,z
_cell_length_a	16.109302
_cell_length_b	8.597304
_cell_length_c	15.186229
_cell_angle_alpha	82.296375
_cell_angle_beta	89.994701
_cell_angle_gamma	84.402578
loop_
_atom_site_label
_atom_site_type_symbol
_atom_site_fract_x
_atom_site_fract_y
_atom_site_fract_z
O1	O	1.104799	0.201736	-0.088570
O2	O	0.862945	0.226840	-0.090468
O3	O	0.988632	-0.014182	-0.072183
O4	O	0.979113	0.442757	-0.106854
O5	O	0.988623	-0.014185	0.074274
O6	O	0.862937	0.226836	0.055990
O7	O	1.104791	0.201732	0.057887
Zn8	Zn	0.983862	0.214284	0.080192
Zn9	Zn	0.983874	0.214288	-0.112772
O10	O	0.979104	0.442754	0.039603
C11	C	0.831958	0.225821	-0.017161
C12	C	0.739637	0.222771	-0.016927
C13	C	0.527233	0.215719	0.063434
C14	C	0.440489	0.212837	0.063649
C15	C	0.440509	0.212849	-0.096027
C16	C	0.527252	0.215719	-0.096241
C17	C	0.570611	0.217162	-0.016509
C18	C	0.397124	0.211410	-0.016079
C19	C	0.303073	0.208285	-0.015846
C20	C	0.664669	0.220284	-0.016741
C21	C	0.987605	-0.072654	0.005480
C22	C	0.984548	-0.246880	0.018695
C23	C	1.135778	0.202751	-0.015422
C24	C	1.228099	0.205800	-0.015661
C25	C	0.980131	0.501226	-0.038062
C26	C	0.983188	0.675451	-0.051283
N27	N	0.983861	0.214280	0.211885
N28	N	0.983882	0.214280	-0.244464
C29	C	1.039534	0.107591	0.445701
C30	C	1.039537	0.107588	0.537891
C31	C	0.928202	0.320973	0.521713
C32	C	0.928196	0.320968	0.429525
C33	C	0.983867	0.214279	0.391522
C34	C	0.983875	0.214280	0.575899
C35	C	0.983878	0.214277	0.675855
C36	C	0.983864	0.214280	0.291559
H37	H	0.405174	0.211662	0.128746
H38	H	0.882861	0.407847	0.385408
O39	O	1.093635	0.003797	0.408932
C40	C	1.204093	-0.207797	0.434710
C41	C	1.142856	-0.090353	0.476464
H42	H	1.243916	-0.283926	0.489288
H43	H	1.167601	-0.286330	0.397541
H44	H	1.246138	-0.139991	0.386372
H45	H	1.100797	-0.158031	0.524840
H46	H	1.179399	-0.011821	0.513577
O47	O	0.983111	-0.326304	0.102302
C48	C	0.983452	-0.309386	0.259406
C49	C	0.985064	-0.219240	0.164773
H50	H	0.985048	-0.222868	0.309941
H51	H	0.924061	-0.371588	0.268129
H52	H	1.040120	-0.400473	0.270206
H53	H	0.928437	-0.128077	0.153909
H54	H	1.044492	-0.157146	0.156096
O55	O	0.569528	0.217062	-0.173819
C56	C	0.703167	0.221585	-0.244914
C57	C	0.655395	0.220038	-0.156999
H58	H	0.772597	0.224025	-0.231348
H59	H	0.692899	0.111233	-0.275928
H60	H	0.679353	0.330766	-0.292567
H61	H	0.679179	0.110930	-0.109281
H62	H	0.665662	0.330462	-0.126057
H63	H	0.562534	0.216894	0.128357
H64	H	0.984358	-0.257756	-0.121308
H65	H	0.405195	0.211675	-0.160943
O66	O	1.093498	0.003799	0.590572
C67	C	1.109467	-0.210474	0.710951
C68	C	1.048262	-0.093040	0.651339
H69	H	1.072918	-0.288777	0.760109
H70	H	1.149240	-0.286837	0.667999
H71	H	1.151565	-0.142657	0.748920
H72	H	1.006111	-0.160729	0.613360
H73	H	1.008547	-0.016677	0.694340
O74	O	0.874212	0.424556	0.558771
C75	C	0.824848	0.519081	0.693625
C76	C	0.886048	0.401707	0.651774
H77	H	0.834385	0.500626	0.768824
H78	H	0.836703	0.644825	0.666015
H79	H	0.758101	0.498612	0.677013
H80	H	0.952819	0.422032	0.668369
H81	H	0.874121	0.276004	0.679384
