data_functionalizedCrystal
_audit_creation_method	'MofGen! by Chris Wilmer'
_symmetry_space_group_name_H-M	'P1'
_symmetry_Int_Tables_number	1
_symmetry_cell_setting	triclinic
loop_
_symmetry_equiv_pos_as_xyz
  x,y,z
_cell_length_a	19.805407
_cell_length_b	16.625546
_cell_length_c	19.805399
_cell_angle_alpha	89.972133
_cell_angle_beta	89.980427
_cell_angle_gamma	90.022468
loop_
_atom_site_label
_atom_site_type_symbol
_atom_site_fract_x
_atom_site_fract_y
_atom_site_fract_z
Zn1	Zn	1.034754	-0.321020	-0.382718
Zn2	Zn	1.284754	-0.071020	-0.132718
Zn3	Zn	1.534754	0.178980	0.117282
Zn4	Zn	1.784754	0.428980	0.367282
Zn5	Zn	1.034677	-0.455857	-0.269529
Zn6	Zn	1.284677	-0.205857	-0.019529
Zn7	Zn	1.534677	0.044143	0.230471
Zn8	Zn	1.784677	0.294143	0.480471
Zn9	Zn	0.921569	-0.321043	-0.269543
Zn10	Zn	1.171569	-0.071043	-0.019543
Zn11	Zn	1.421569	0.178957	0.230457
Zn12	Zn	1.671569	0.428957	0.480457
Zn13	Zn	0.921540	-0.455815	-0.382676
Zn14	Zn	1.171540	-0.205815	-0.132676
Zn15	Zn	1.421540	0.044185	0.117324
Zn16	Zn	1.671540	0.294185	0.367324
O17	O	0.978135	-0.388434	-0.326117
O18	O	1.228135	-0.138434	-0.076117
O19	O	1.478135	0.111566	0.173883
O20	O	1.728135	0.361566	0.423883
O21	O	1.129461	-0.338915	-0.367716
O22	O	1.379461	-0.088915	-0.117716
O23	O	1.629461	0.161085	0.132284
O24	O	1.879461	0.411085	0.382284
O25	O	1.019652	-0.438001	-0.174815
O26	O	1.269652	-0.188001	0.075185
O27	O	1.519652	0.061999	0.325185
O28	O	1.769652	0.311999	0.575185
O29	O	0.936628	-0.208207	-0.284579
O30	O	1.186628	0.041793	-0.034579
O31	O	1.436628	0.291793	0.215421
O32	O	1.686628	0.541793	0.465421
O33	O	1.129404	-0.437980	-0.284556
O34	O	1.379404	-0.187980	-0.034556
O35	O	1.629404	0.062020	0.215444
O36	O	1.879404	0.312020	0.465444
O37	O	1.019784	-0.208191	-0.367729
O38	O	1.269784	0.041809	-0.117729
O39	O	1.519784	0.291809	0.132271
O40	O	1.769784	0.541809	0.382271
O41	O	0.936553	-0.338953	-0.174825
O42	O	1.186553	-0.088953	0.075175
O43	O	1.436553	0.161047	0.325175
O44	O	1.686553	0.411047	0.575175
O45	O	0.826848	-0.338912	-0.284538
O46	O	1.076848	-0.088912	-0.034538
O47	O	1.326848	0.161088	0.215462
O48	O	1.576848	0.411088	0.465462
O49	O	0.936579	-0.437907	-0.477398
O50	O	1.186579	-0.187907	-0.227398
O51	O	1.436579	0.062093	0.022602
O52	O	1.686579	0.312093	0.272602
O53	O	0.826827	-0.437928	-0.367657
O54	O	1.076827	-0.187928	-0.117657
O55	O	1.326827	0.062072	0.132343
O56	O	1.576827	0.312072	0.382343
O57	O	1.019756	-0.338874	-0.477429
O58	O	1.269756	-0.088874	-0.227429
O59	O	1.519756	0.161126	0.022571
O60	O	1.769756	0.411126	0.272571
O61	O	1.019625	-0.568684	-0.284515
O62	O	1.269625	-0.318684	-0.034515
O63	O	1.519625	-0.068684	0.215485
O64	O	1.769625	0.181316	0.465485
O65	O	0.936504	-0.568653	-0.367644
O66	O	1.186504	-0.318653	-0.117644
O67	O	1.436504	-0.068653	0.132356
O68	O	1.686504	0.181347	0.382356
C69	C	0.802279	-0.388418	-0.326095
C70	C	1.052279	-0.138418	-0.076095
C71	C	1.302279	0.111582	0.173905
C72	C	1.552279	0.361582	0.423905
C73	C	0.727047	-0.388431	-0.326102
C74	C	0.977047	-0.138431	-0.076102
C75	C	1.227047	0.111569	0.173898
C76	C	1.477047	0.361569	0.423898
C77	C	0.691710	-0.440067	-0.369311
C78	C	0.941710	-0.190067	-0.119311
C79	C	1.191710	0.059933	0.130689
C80	C	1.441710	0.309933	0.380689
C81	C	0.621021	-0.440068	-0.369321
C82	C	0.871021	-0.190068	-0.119321
C83	C	1.121021	0.059932	0.130679
C84	C	1.371021	0.309932	0.380679
C85	C	0.585671	-0.388437	-0.326117
C86	C	0.835671	-0.138437	-0.076117
C87	C	1.085671	0.111563	0.173883
C88	C	1.335671	0.361563	0.423883
C89	C	0.621014	-0.336796	-0.282905
C90	C	0.871014	-0.086796	-0.032905
C91	C	1.121014	0.163204	0.217095
C92	C	1.371014	0.413204	0.467095
C93	C	0.691701	-0.336791	-0.282899
C94	C	0.941701	-0.086791	-0.032899
C95	C	1.191701	0.163209	0.217101
C96	C	1.441701	0.413209	0.467101
C97	C	0.335941	-0.336814	-0.282927
C98	C	0.585941	-0.086814	-0.032927
C99	C	0.835941	0.163186	0.217073
C100	C	1.085941	0.413186	0.467073
C101	C	0.265248	-0.336825	-0.282935
C102	C	0.515248	-0.086825	-0.032935
C103	C	0.765248	0.163175	0.217065
C104	C	1.015248	0.413175	0.467065
C105	C	0.265261	-0.440091	-0.369349
C106	C	0.515261	-0.190091	-0.119349
C107	C	0.765261	0.059909	0.130651
C108	C	1.015261	0.309909	0.380651
C109	C	0.335948	-0.440086	-0.369343
C110	C	0.585948	-0.190086	-0.119343
C111	C	0.835948	0.059914	0.130657
C112	C	1.085948	0.309914	0.380657
C113	C	0.371284	-0.388442	-0.326134
C114	C	0.621284	-0.138442	-0.076134
C115	C	0.871284	0.111558	0.173866
C116	C	1.121284	0.361558	0.423866
C117	C	0.447932	-0.388440	-0.326125
C118	C	0.697932	-0.138440	-0.076125
C119	C	0.947932	0.111560	0.173875
C120	C	1.197932	0.361560	0.423875
C121	C	0.509024	-0.388443	-0.326122
C122	C	0.759024	-0.138443	-0.076122
C123	C	1.009024	0.111557	0.173878
C124	C	1.259024	0.361557	0.423878
C125	C	0.978071	-0.597925	-0.326088
C126	C	1.228071	-0.347925	-0.076088
C127	C	1.478071	-0.097925	0.173912
C128	C	1.728071	0.152075	0.423912
C129	C	0.978105	-0.687546	-0.326099
C130	C	1.228105	-0.437546	-0.076099
C131	C	1.478105	-0.187546	0.173901
C132	C	1.728105	0.062454	0.423901
C133	C	0.978224	-1.015721	-0.326169
C134	C	1.228224	-0.765721	-0.076169
C135	C	1.478224	-0.515721	0.173831
C136	C	1.728224	-0.265721	0.423831
C137	C	0.978189	-0.924413	-0.326152
C138	C	1.228189	-0.674413	-0.076152
C139	C	1.478189	-0.424413	0.173848
C140	C	1.728189	-0.174413	0.423848
C141	C	0.978164	-0.851636	-0.326134
C142	C	1.228164	-0.601636	-0.076134
C143	C	1.478164	-0.351636	0.173866
C144	C	1.728164	-0.101636	0.423866
C145	C	0.978130	-0.760322	-0.326117
C146	C	1.228130	-0.510322	-0.076117
C147	C	1.478130	-0.260322	0.173883
C148	C	1.728130	-0.010322	0.423883
C149	C	1.154678	-0.388450	-0.326139
C150	C	1.404678	-0.138450	-0.076139
C151	C	1.654678	0.111550	0.173861
C152	C	1.904678	0.361550	0.423861
C153	C	1.229910	-0.388457	-0.326149
C154	C	1.479910	-0.138457	-0.076149
C155	C	1.729910	0.111543	0.173851
C156	C	1.979910	0.361543	0.423851
C157	C	0.978173	-0.388383	-0.502660
C158	C	1.228173	-0.138383	-0.252660
C159	C	1.478173	0.111617	-0.002660
C160	C	1.728173	0.361617	0.247340
C161	C	0.978189	-0.388361	-0.577892
C162	C	1.228189	-0.138361	-0.327892
C163	C	1.478189	0.111639	-0.077892
C164	C	1.728189	0.361639	0.172108
C165	C	0.978218	-0.178125	-0.326160
C166	C	1.228218	0.071875	-0.076160
C167	C	1.478218	0.321875	0.173840
C168	C	1.728218	0.571875	0.423840
C169	C	0.978253	-0.088504	-0.326178
C170	C	1.228253	0.161496	-0.076178
C171	C	1.478253	0.411496	0.173822
C172	C	1.728253	0.661496	0.423822
C173	C	1.021501	-0.336792	-0.613253
C174	C	1.271501	-0.086792	-0.363253
C175	C	1.521501	0.163208	-0.113253
C176	C	1.771501	0.413208	0.136747
C177	C	1.021508	-0.336769	-0.683941
C178	C	1.271508	-0.086769	-0.433941
C179	C	1.521508	0.163231	-0.183941
C180	C	1.771508	0.413231	0.066059
C181	C	0.978206	-0.388319	-0.719267
C182	C	1.228206	-0.138319	-0.469267
C183	C	1.478206	0.111681	-0.219267
C184	C	1.728206	0.361681	0.030733
C185	C	0.934889	-0.439890	-0.683901
C186	C	1.184889	-0.189890	-0.433901
C187	C	1.434889	0.060110	-0.183901
C188	C	1.684889	0.310110	0.066099
C189	C	0.934880	-0.439909	-0.613214
C190	C	1.184880	-0.189909	-0.363214
C191	C	1.434880	0.060091	-0.113214
C192	C	1.684880	0.310091	0.136786
C193	C	0.934928	-0.439815	-0.968974
C194	C	1.184928	-0.189815	-0.718974
C195	C	1.434928	0.060185	-0.468974
C196	C	1.684928	0.310185	-0.218974
C197	C	0.934942	-0.439794	-1.039667
C198	C	1.184942	-0.189794	-0.789667
C199	C	1.434942	0.060206	-0.539667
C200	C	1.684942	0.310206	-0.289667
C201	C	1.021556	-0.336675	-1.039702
C202	C	1.271556	-0.086675	-0.789702
C203	C	1.521556	0.163325	-0.539702
C204	C	1.771556	0.413325	-0.289702
C205	C	1.021546	-0.336694	-0.969015
C206	C	1.271546	-0.086694	-0.719015
C207	C	1.521546	0.163306	-0.469015
C208	C	1.771546	0.413306	-0.219015
C209	C	0.978227	-0.388262	-0.933655
C210	C	1.228227	-0.138262	-0.683655
C211	C	1.478227	0.111738	-0.433655
C212	C	1.728227	0.361738	-0.183655
C213	C	0.978219	-0.388285	-0.857006
C214	C	1.228219	-0.138285	-0.607006
C215	C	1.478219	0.111715	-0.357006
C216	C	1.728219	0.361715	-0.107006
C217	C	0.978217	-0.388300	-0.795914
C218	C	1.228217	-0.138300	-0.545914
C219	C	1.478217	0.111700	-0.295914
C220	C	1.728217	0.361700	-0.045914
C221	C	0.978136	-0.388426	-0.150261
C222	C	1.228136	-0.138426	0.099739
C223	C	1.478136	0.111574	0.349739
C224	C	1.728136	0.361574	0.599739
C225	C	0.978251	-0.388221	-0.075029
C226	C	1.228251	-0.138221	0.174971
C227	C	1.478251	0.111779	0.424971
C228	C	1.728251	0.361779	0.674971
H229	H	0.720472	-0.294740	-0.247717
H230	H	0.970472	-0.044740	0.002283
H231	H	1.220472	0.205260	0.252283
H232	H	1.470472	0.455260	0.502283
H233	H	0.364726	-0.482132	-0.404522
H234	H	0.614726	-0.232132	-0.154522
H235	H	0.864726	0.017868	0.095478
H236	H	1.114726	0.267868	0.345478
H237	H	1.056826	-0.294683	-1.068501
H238	H	1.306826	-0.044683	-0.818501
H239	H	1.556826	0.205317	-0.568501
H240	H	1.806826	0.455317	-0.318501
H241	H	1.056764	-0.294817	-0.584496
H242	H	1.306764	-0.044817	-0.334496
H243	H	1.556764	0.205183	-0.084496
H244	H	1.806764	0.455183	0.165504
Br245	Br	1.080322	-0.266817	-0.731929
Br246	Br	1.330322	-0.016817	-0.481929
Br247	Br	1.580322	0.233183	-0.231929
Br248	Br	1.830322	0.483183	0.018071
H249	H	0.899604	-0.481894	-0.584423
H250	H	1.149604	-0.231894	-0.334423
H251	H	1.399604	0.018106	-0.084423
H252	H	1.649604	0.268106	0.165577
Br253	Br	0.876172	-0.509761	-1.087609
Br254	Br	1.126172	-0.259761	-0.837609
Br255	Br	1.376172	-0.009761	-0.587609
Br256	Br	1.626172	0.240239	-0.337609
H257	H	0.899665	-0.481817	-0.940193
H258	H	1.149665	-0.231817	-0.690193
H259	H	1.399665	0.018183	-0.440193
H260	H	1.649665	0.268183	-0.190193
Br261	Br	0.217301	-0.510182	-0.427990
Br262	Br	0.467301	-0.260182	-0.177990
Br263	Br	0.717301	-0.010182	0.072010
Br264	Br	0.967301	0.239818	0.322010
H265	H	0.236469	-0.294776	-0.247753
H266	H	0.486469	-0.044776	0.002247
H267	H	0.736469	0.205224	0.252247
H268	H	0.986469	0.455224	0.502247
H269	H	0.592253	-0.482116	-0.404506
H270	H	0.842253	-0.232116	-0.154506
H271	H	1.092253	0.017884	0.095494
H272	H	1.342253	0.267884	0.345494
H273	H	0.364703	-0.294769	-0.247739
H274	H	0.614703	-0.044769	0.002261
H275	H	0.864703	0.205231	0.252261
H276	H	1.114703	0.455231	0.502261
Br277	Br	0.573040	-0.266717	-0.224276
Br278	Br	0.823040	-0.016717	0.025724
Br279	Br	1.073040	0.233283	0.275724
Br280	Br	1.323040	0.483283	0.525724
H281	H	0.899630	-0.481861	-0.712669
H282	H	1.149630	-0.231861	-0.462669
H283	H	1.399630	0.018139	-0.212669
H284	H	1.649630	0.268139	0.037331
Br285	Br	0.739677	-0.510147	-0.427944
Br286	Br	0.989677	-0.260147	-0.177944
Br287	Br	1.239677	-0.010147	0.072056
Br288	Br	1.489677	0.239853	0.322056
Br289	Br	1.080318	-0.266735	-0.921076
Br290	Br	1.330318	-0.016735	-0.671076
Br291	Br	1.580318	0.233265	-0.421076
Br292	Br	1.830318	0.483265	-0.171076
