data_functionalizedCrystal
_audit_creation_method	'MofGen! by Chris Wilmer'
_symmetry_space_group_name_H-M	'P1'
_symmetry_Int_Tables_number	1
_symmetry_cell_setting	triclinic
loop_
_symmetry_equiv_pos_as_xyz
  x,y,z
_cell_length_a	9.065218
_cell_length_b	10.489716
_cell_length_c	7.540329
_cell_angle_alpha	90.000850
_cell_angle_beta	89.996101
_cell_angle_gamma	84.772511
loop_
_atom_site_label
_atom_site_type_symbol
_atom_site_fract_x
_atom_site_fract_y
_atom_site_fract_z
O1	O	1.959478	0.187044	-0.147469
O2	O	1.530117	0.202386	-0.147470
O3	O	1.754586	0.009151	-0.147476
O4	O	1.735009	0.380280	-0.147463
O5	O	1.754569	0.009150	0.147489
O6	O	1.530100	0.202385	0.147495
O7	O	1.959460	0.187043	0.147496
Cu8	Cu	1.744778	0.194714	0.174428
Cu9	Cu	1.744799	0.194715	-0.174402
O10	O	1.734991	0.380279	0.147502
C11	C	1.475129	0.200911	0.000012
C12	C	1.311308	0.196503	0.000011
C13	C	1.753106	-0.038387	0.000001
C14	C	1.748706	-0.180034	-0.000015
C15	C	1.886357	-0.277211	0.000002
C16	C	1.813627	-0.354834	-0.145427
C17	C	1.813578	-0.354799	0.145385
C18	C	1.676033	-0.255792	-0.145564
C19	C	1.676005	-0.255751	0.145379
C20	C	1.603174	-0.333325	-0.000085
C21	C	2.014448	0.188518	0.000010
C22	C	2.178269	0.192927	-0.000001
C23	C	1.736471	0.427817	0.000021
C24	C	1.740872	0.569464	0.000025
N25	N	1.744775	0.194713	0.419777
N26	N	1.744801	0.194713	0.580249
H27	H	2.006090	-0.252102	-0.000146
C28	C	1.892131	-0.413321	-0.311514
H29	H	1.992672	-0.394482	-0.311342
H30	H	1.844236	-0.378092	-0.414794
H31	H	1.887945	-0.503484	-0.310843
C32	C	1.597614	-0.197588	-0.311861
H33	H	1.600975	-0.107333	-0.310894
H34	H	1.497338	-0.217141	-0.312289
H35	H	1.646181	-0.232370	-0.415004
H36	H	1.483351	-0.358188	-0.000164
C37	C	1.597551	-0.197246	0.311474
H38	H	1.516226	-0.139138	0.276543
H39	H	1.665330	-0.153010	0.378775
H40	H	1.562674	-0.263509	0.381571
H41	H	1.871708	-0.398061	0.268331
