data_functionalizedCrystal
_audit_creation_method	'MofGen! by Chris Wilmer'
_symmetry_space_group_name_H-M	'P1'
_symmetry_Int_Tables_number	1
_symmetry_cell_setting	triclinic
loop_
_symmetry_equiv_pos_as_xyz
  x,y,z
_cell_length_a	12.827893
_cell_length_b	12.827892
_cell_length_c	18.215399
_cell_angle_alpha	89.973563
_cell_angle_beta	89.985304
_cell_angle_gamma	90.015552
loop_
_atom_site_label
_atom_site_type_symbol
_atom_site_fract_x
_atom_site_fract_y
_atom_site_fract_z
Zn1	Zn	1.597622	-0.416014	-0.416094
Zn2	Zn	2.097622	0.083986	0.083906
Zn3	Zn	1.597530	-0.590781	-0.293036
Zn4	Zn	2.097530	-0.090781	0.206964
Zn5	Zn	1.422878	-0.416055	-0.293046
Zn6	Zn	1.922878	0.083945	0.206954
Zn7	Zn	1.422849	-0.590715	-0.416066
Zn8	Zn	1.922849	-0.090715	0.083934
O9	O	1.510220	-0.503391	-0.354561
O10	O	2.010220	-0.003391	0.145439
O11	O	1.743846	-0.439208	-0.399778
O12	O	2.243846	0.060792	0.100222
O13	O	1.574336	-0.567648	-0.190053
O14	O	2.074336	-0.067648	0.309947
O15	O	1.446108	-0.269814	-0.309385
O16	O	1.946108	0.230186	0.190615
O17	O	1.743779	-0.567609	-0.309368
O18	O	2.243779	-0.067609	0.190632
O19	O	1.574493	-0.269784	-0.399788
O20	O	2.074493	0.230216	0.100212
O21	O	1.446019	-0.439278	-0.190060
O22	O	1.946019	0.060722	0.309940
O23	O	1.276638	-0.439213	-0.309357
O24	O	1.776638	0.060787	0.190643
O25	O	1.446060	-0.567495	-0.519054
O26	O	1.946060	-0.067495	-0.019054
O27	O	1.276617	-0.567535	-0.399739
O28	O	1.776617	-0.067535	0.100261
O29	O	1.574465	-0.439144	-0.519075
O30	O	2.074465	0.060856	-0.019075
O31	O	1.574308	-0.737008	-0.309340
O32	O	2.074308	-0.237008	0.190660
O33	O	1.445970	-0.736960	-0.399730
O34	O	1.945970	-0.236960	0.100270
C35	C	1.238710	-0.503372	-0.354547
C36	C	1.738710	-0.003372	0.145453
C37	C	1.122557	-0.503389	-0.354558
C38	C	1.622557	-0.003389	0.145442
C39	C	0.950695	-0.566844	-0.309774
C40	C	1.450695	-0.066844	0.190226
C41	C	1.070745	-0.566828	-0.309761
C42	C	1.570745	-0.066828	0.190239
C43	C	1.510155	-0.774901	-0.354547
C44	C	2.010155	-0.274901	0.145453
C45	C	1.510222	-0.891054	-0.354566
C46	C	2.010222	-0.391054	0.145434
C47	C	1.573722	-0.942741	-0.399340
C48	C	2.073722	-0.442741	0.100660
C49	C	1.573794	-1.062791	-0.399361
C50	C	2.073794	-0.562791	0.100639
C51	C	1.782790	-0.503411	-0.354575
C52	C	2.282790	-0.003411	0.145425
C53	C	1.898943	-0.503420	-0.354581
C54	C	2.398943	-0.003420	0.145419
C55	C	1.510269	-0.503308	-0.546514
C56	C	2.010269	-0.003308	-0.046514
C57	C	1.510290	-0.503272	-0.628313
C58	C	2.010290	-0.003272	-0.128313
C59	C	1.510314	-0.230821	-0.354590
C60	C	2.010314	0.269179	0.145410
C61	C	1.510354	-0.114668	-0.354603
C62	C	2.010354	0.385332	0.145397
C63	C	1.443532	-0.436385	-0.816511
C64	C	1.943532	0.063615	-0.316511
C65	C	1.443550	-0.436364	-0.893370
C66	C	1.943550	0.063636	-0.393370
C67	C	1.577173	-0.570035	-0.893352
C68	C	2.077173	-0.070035	-0.393352
C69	C	1.577149	-0.570061	-0.816494
C70	C	2.077149	-0.070061	-0.316494
C71	C	1.510330	-0.503230	-0.778076
C72	C	2.010330	-0.003230	-0.278076
C73	C	1.510372	-0.503183	-0.931792
C74	C	2.010372	-0.003183	-0.431792
C75	C	1.510393	-0.503161	-1.015126
C76	C	2.010393	-0.003161	-0.515126
C77	C	1.510308	-0.503253	-0.694737
C78	C	2.010308	-0.003253	-0.194737
C79	C	1.510231	-0.503399	-0.163354
C80	C	2.010231	-0.003399	0.336646
C81	C	1.510412	-0.503140	-0.081556
C82	C	2.010412	-0.003140	0.418444
H83	H	0.943514	-0.449104	-0.392930
H84	H	1.443514	0.050896	0.107070
O85	O	1.438343	-1.055801	-0.303817
O86	O	1.938343	-0.555801	0.196183
H87	H	1.391891	-1.112071	-0.271029
H88	H	1.891891	-0.612071	0.228971
O89	O	1.438287	-0.950159	-0.303800
O90	O	1.938287	-0.450159	0.196200
H91	H	1.385169	-0.999911	-0.336741
H92	H	1.885169	-0.499911	0.163259
H93	H	1.115250	-0.621133	-0.271404
H94	H	1.615250	-0.121133	0.228596
H95	H	1.389156	-0.381933	-0.924660
H96	H	1.889156	0.118067	-0.424660
O97	O	1.645676	-0.883645	-0.450098
O98	O	2.145676	-0.383645	0.049902
H99	H	1.634336	-0.798626	-0.442112
H100	H	2.134336	-0.298626	0.057888
O101	O	1.063622	-0.431456	-0.405379
O102	O	1.563622	0.068544	0.094621
H103	H	1.084523	-0.349397	-0.392868
H104	H	1.584523	0.150603	0.107132
H105	H	1.631576	-0.624446	-0.924641
H106	H	2.131576	-0.124446	-0.424641
H107	H	1.631546	-0.624498	-0.785200
H108	H	2.131546	-0.124498	-0.285200
H109	H	0.906124	-0.621151	-0.271419
H110	H	1.406124	-0.121151	0.228581
H111	H	1.628163	-1.107241	-0.437691
H112	H	2.128163	-0.607241	0.062309
H113	H	1.389124	-0.381967	-0.785233
H114	H	1.889124	0.118033	-0.285233
