data_functionalizedCrystal
_audit_creation_method	'MofGen! by Chris Wilmer'
_symmetry_space_group_name_H-M	'P1'
_symmetry_Int_Tables_number	1
_symmetry_cell_setting	triclinic
loop_
_symmetry_equiv_pos_as_xyz
  x,y,z
_cell_length_a	21.395362
_cell_length_b	18.050589
_cell_length_c	21.395355
_cell_angle_alpha	89.987098
_cell_angle_beta	89.956060
_cell_angle_gamma	90.044101
loop_
_atom_site_label
_atom_site_type_symbol
_atom_site_fract_x
_atom_site_fract_y
_atom_site_fract_z
Zn1	Zn	0.957870	-0.295431	-0.354610
Zn2	Zn	1.291204	0.037903	-0.021277
Zn3	Zn	1.624537	0.371236	0.312057
Zn4	Zn	0.957777	-0.419603	-0.249843
Zn5	Zn	1.291111	-0.086269	0.083491
Zn6	Zn	1.624444	0.247064	0.416824
Zn7	Zn	0.853085	-0.295465	-0.249811
Zn8	Zn	1.186419	0.037868	0.083522
Zn9	Zn	1.519752	0.371201	0.416855
Zn10	Zn	0.853059	-0.419618	-0.354548
Zn11	Zn	1.186392	-0.086285	-0.021214
Zn12	Zn	1.519726	0.247049	0.312119
O13	O	0.905448	-0.357529	-0.302203
O14	O	1.238781	-0.024196	0.031130
O15	O	1.572115	0.309138	0.364464
O16	O	1.045536	-0.311882	-0.340752
O17	O	1.378869	0.021452	-0.007418
O18	O	1.712203	0.354785	0.325915
O19	O	0.943862	-0.403144	-0.162161
O20	O	1.277195	-0.069810	0.171173
O21	O	1.610528	0.263523	0.504506
O22	O	0.867035	-0.191536	-0.263726
O23	O	1.200368	0.141797	0.069607
O24	O	1.533702	0.475131	0.402941
O25	O	1.045468	-0.403110	-0.263780
O26	O	1.378801	-0.069777	0.069554
O27	O	1.712134	0.263557	0.402887
O28	O	0.944020	-0.191511	-0.340721
O29	O	1.277354	0.141823	-0.007388
O30	O	1.610687	0.475156	0.325945
O31	O	0.866945	-0.311940	-0.162138
O32	O	1.200278	0.021393	0.171196
O33	O	1.533612	0.354726	0.504529
O34	O	0.765404	-0.311955	-0.263665
O35	O	1.098737	0.021378	0.069668
O36	O	1.432071	0.354711	0.403001
O37	O	0.866990	-0.403136	-0.442234
O38	O	1.200324	-0.069803	-0.108900
O39	O	1.533657	0.263531	0.224433
O40	O	0.765385	-0.403170	-0.340615
O41	O	1.098718	-0.069836	-0.007281
O42	O	1.432051	0.263497	0.326052
O43	O	0.943995	-0.311896	-0.442280
O44	O	1.277328	0.021437	-0.108946
O45	O	1.610661	0.354770	0.224387
O46	O	0.943836	-0.523529	-0.263719
O47	O	1.277170	-0.190196	0.069614
O48	O	1.610503	0.143137	0.402948
O49	O	0.866900	-0.523540	-0.340645
O50	O	1.200234	-0.190207	-0.007312
O51	O	1.533567	0.143126	0.326021
C52	C	0.742660	-0.357568	-0.302130
C53	C	1.075994	-0.024235	0.031203
C54	C	1.409327	0.309098	0.364536
C55	C	0.673019	-0.357603	-0.302114
C56	C	1.006352	-0.024270	0.031219
C57	C	1.339686	0.309064	0.364553
C58	C	0.905372	-0.550481	-0.302192
C59	C	1.238706	-0.217148	0.031141
C60	C	1.572039	0.116185	0.364474
C61	C	0.905397	-0.633027	-0.302209
C62	C	1.238731	-0.299694	0.031124
C63	C	1.572064	0.033640	0.364458
C64	C	0.640312	-0.405161	-0.342121
C65	C	0.973646	-0.071828	-0.008788
C66	C	1.306979	0.261505	0.324545
C67	C	0.574877	-0.405143	-0.342149
C68	C	0.908210	-0.071810	-0.008816
C69	C	1.241544	0.261524	0.324517
C70	C	0.542151	-0.357574	-0.302159
C71	C	0.875484	-0.024241	0.031175
C72	C	1.208817	0.309092	0.364508
C73	C	0.574865	-0.310007	-0.262148
C74	C	0.908199	0.023326	0.071185
C75	C	1.241532	0.356660	0.404518
C76	C	0.640300	-0.310021	-0.262126
C77	C	0.973633	0.023312	0.071207
C78	C	1.306966	0.356645	0.404541
C79	C	0.438426	-0.351592	-0.245753
C80	C	0.771759	-0.018258	0.087580
C81	C	1.105092	0.315075	0.420914
C82	C	0.372993	-0.351583	-0.245774
C83	C	0.706326	-0.018249	0.087559
C84	C	1.039660	0.315084	0.420893
C85	C	0.340330	-0.357526	-0.302228
C86	C	0.673663	-0.024193	0.031106
C87	C	1.006997	0.309141	0.364439
C88	C	0.373108	-0.363494	-0.358662
C89	C	0.706442	-0.030161	-0.025329
C90	C	1.039775	0.303173	0.308005
C91	C	0.438542	-0.363508	-0.358640
C92	C	0.771876	-0.030175	-0.025306
C93	C	1.105209	0.303158	0.308027
C94	C	0.471198	-0.357553	-0.302179
C95	C	0.804532	-0.024220	0.031155
C96	C	1.137865	0.309113	0.364488
C97	C	0.236671	-0.405067	-0.342269
C98	C	0.570004	-0.071734	-0.008936
C99	C	0.903337	0.261600	0.324398
C100	C	0.171234	-0.405044	-0.342298
C101	C	0.504568	-0.071710	-0.008965
C102	C	0.837901	0.261623	0.324369
C103	C	0.171224	-0.309911	-0.262291
C104	C	0.504557	0.023422	0.071042
C105	C	0.837891	0.356755	0.404375
C106	C	0.236659	-0.309931	-0.262268
C107	C	0.569993	0.023402	0.071065
C108	C	0.903326	0.356736	0.404399
C109	C	0.269379	-0.357513	-0.302256
C110	C	0.602712	-0.024179	0.031077
C111	C	0.936045	0.309154	0.364411
C112	C	0.863601	-0.832511	-0.344027
C113	C	1.196934	-0.499177	-0.010693
C114	C	1.530267	-0.165844	0.322640
C115	C	0.848322	-0.881943	-0.286848
C116	C	1.181656	-0.548610	0.046485
C117	C	1.514989	-0.215277	0.379818
C118	C	0.905459	-0.784157	-0.302217
C119	C	1.238792	-0.450824	0.031116
C120	C	1.572126	-0.117491	0.364449
C121	C	0.920768	-0.881806	-0.359402
C122	C	1.254101	-0.548473	-0.026069
C123	C	1.587435	-0.215140	0.307265
C124	C	0.905517	-0.930142	-0.302230
C125	C	1.238850	-0.596809	0.031103
C126	C	1.572184	-0.263476	0.364437
C127	C	0.890151	-0.832503	-0.245009
C128	C	1.223484	-0.499170	0.088325
C129	C	1.556817	-0.165836	0.421658
C130	C	0.962623	-0.832361	-0.317601
C131	C	1.295956	-0.499028	0.015733
C132	C	1.629289	-0.165695	0.349066
C133	C	0.947366	-0.881772	-0.260383
C134	C	1.280700	-0.548438	0.072950
C135	C	1.614033	-0.215105	0.406284
C136	C	0.905424	-0.700059	-0.302211
C137	C	1.238757	-0.366726	0.031123
C138	C	1.572090	-0.033392	0.364456
C139	C	0.905552	-1.014239	-0.302230
C140	C	1.238886	-0.680906	0.031103
C141	C	1.572219	-0.347572	0.364436
C142	C	1.068871	-0.357490	-0.302276
C143	C	1.402205	-0.024157	0.031057
C144	C	1.735538	0.309176	0.364390
C145	C	1.138513	-0.357474	-0.302307
C146	C	1.471846	-0.024140	0.031026
C147	C	1.805179	0.309193	0.364359
C148	C	0.905500	-0.357514	-0.465626
C149	C	1.238833	-0.024181	-0.132293
C150	C	1.572167	0.309153	0.201040
C151	C	0.905522	-0.357508	-0.535268
C152	C	1.238856	-0.024174	-0.201934
C153	C	1.572189	0.309159	0.131399
C154	C	0.905541	-0.163823	-0.302227
C155	C	1.238874	0.169510	0.031106
C156	C	1.572208	0.502843	0.364440
C157	C	0.905581	-0.081278	-0.302237
C158	C	1.238914	0.252056	0.031096
C159	C	1.572247	0.585389	0.364429
C160	C	0.945617	-0.309997	-0.568006
C161	C	1.278950	0.023336	-0.234672
C162	C	1.612283	0.356670	0.098661
C163	C	0.945616	-0.309965	-0.633441
C164	C	1.278949	0.023368	-0.300108
C165	C	1.612282	0.356701	0.033226
C166	C	0.905527	-0.357457	-0.666136
C167	C	1.238860	-0.024124	-0.332803
C168	C	1.572194	0.309210	0.000531
C169	C	0.865425	-0.404971	-0.633390
C170	C	1.198758	-0.071638	-0.300057
C171	C	1.532091	0.261696	0.033277
C172	C	0.865422	-0.404996	-0.567956
C173	C	1.198756	-0.071663	-0.234622
C174	C	1.532089	0.261670	0.098711
C175	C	0.900554	-0.424328	-0.769805
C176	C	1.233887	-0.090994	-0.436472
C177	C	1.567220	0.242339	-0.103139
C178	C	0.900560	-0.424304	-0.835238
C179	C	1.233894	-0.090970	-0.501905
C180	C	1.567227	0.242363	-0.168572
C181	C	0.905531	-0.357379	-0.867957
C182	C	1.238864	-0.024045	-0.534623
C183	C	1.572198	0.309288	-0.201290
C184	C	0.910508	-0.290475	-0.835234
C185	C	1.243841	0.042858	-0.501901
C186	C	1.577174	0.376191	-0.168568
C187	C	0.910505	-0.290501	-0.769800
C188	C	1.243839	0.042833	-0.436467
C189	C	1.577172	0.376166	-0.103133
C190	C	0.905525	-0.357435	-0.737088
C191	C	1.238858	-0.024101	-0.403755
C192	C	1.572192	0.309232	-0.070422
C193	C	0.945627	-0.309829	-0.971647
C194	C	1.278960	0.023504	-0.638314
C195	C	1.612293	0.356837	-0.304981
C196	C	0.945621	-0.309796	-1.037084
C197	C	1.278955	0.023537	-0.703751
C198	C	1.612288	0.356870	-0.370417
C199	C	0.865434	-0.404809	-1.037032
C200	C	1.198767	-0.071475	-0.703698
C201	C	1.532100	0.261858	-0.370365
C202	C	0.865436	-0.404835	-0.971596
C203	C	1.198769	-0.071502	-0.638263
C204	C	1.532102	0.261832	-0.304930
C205	C	0.905535	-0.357347	-0.938908
C206	C	1.238869	-0.024013	-0.605575
C207	C	1.572202	0.309320	-0.272241
C208	C	0.905432	-0.357490	-0.139415
C209	C	1.238766	-0.024157	0.193918
C210	C	1.572099	0.309176	0.527251
C211	C	0.905531	-0.357288	-0.069774
C212	C	1.238865	-0.023954	0.263559
C213	C	1.572198	0.309379	0.596892
H214	H	0.666948	-0.443905	-0.374684
H215	H	1.000282	-0.110572	-0.041350
H216	H	1.333615	0.222762	0.291983
H217	H	0.548216	-0.271275	-0.229589
H218	H	0.881549	0.062058	0.103745
H219	H	1.214882	0.395392	0.437078
N220	N	0.991797	-0.908757	-0.215986
N221	N	1.325130	-0.575424	0.117347
N222	N	1.658463	-0.242090	0.450680
N223	N	0.999323	-0.976933	-0.209080
N224	N	1.332656	-0.643600	0.124253
N225	N	1.665989	-0.310266	0.457587
H226	H	1.030699	-0.995994	-0.177723
H227	H	1.364033	-0.662661	0.155610
H228	H	1.697366	-0.329328	0.488943
H229	H	0.832786	-0.443470	-1.063651
H230	H	1.166120	-0.110137	-0.730318
H231	H	1.499453	0.223197	-0.396985
N232	N	0.270063	-0.261348	-0.221395
N233	N	0.603396	0.071985	0.111938
N234	N	0.936729	0.405319	0.445272
N235	N	0.240838	-0.218876	-0.185693
N236	N	0.574172	0.114457	0.147641
N237	N	0.907505	0.447790	0.480974
H238	H	0.264429	-0.184560	-0.156825
H239	H	0.597762	0.148773	0.176508
H240	H	0.931095	0.482106	0.509842
N241	N	0.873858	-0.805442	-0.184335
N242	N	1.207191	-0.472108	0.148998
N243	N	1.540525	-0.138775	0.482332
N244	N	0.871176	-0.737251	-0.174545
N245	N	1.204510	-0.403918	0.158788
N246	N	1.537843	-0.070584	0.492122
H247	H	0.859664	-0.718136	-0.131697
H248	H	1.192997	-0.384803	0.201637
H249	H	1.526331	-0.051470	0.534970
H250	H	0.548242	-0.443870	-0.374731
H251	H	0.881575	-0.110537	-0.041397
H252	H	1.214908	0.222796	0.291936
H253	H	0.978268	-0.271327	-0.541395
H254	H	1.311602	0.062006	-0.208062
H255	H	1.644935	0.395339	0.125272
H256	H	1.010926	-0.810569	-0.330628
H257	H	1.344259	-0.477235	0.002705
H258	H	1.677593	-0.143902	0.336039
H259	H	0.978264	-0.271272	-0.660102
H260	H	1.311598	0.062061	-0.326768
H261	H	1.644931	0.395394	0.006565
H262	H	0.896512	-0.478780	-0.861876
H263	H	1.229845	-0.145447	-0.528543
H264	H	1.563178	0.187886	-0.195209
H265	H	0.914556	-0.236026	-0.743160
H266	H	1.247889	0.097307	-0.409827
H267	H	1.581223	0.430641	-0.076493
N268	N	0.270107	-0.453649	-0.383122
N269	N	0.603441	-0.120315	-0.049788
N270	N	0.936774	0.213018	0.283545
N271	N	0.328530	-0.453655	-0.383097
N272	N	0.661863	-0.120322	-0.049763
N273	N	0.995197	0.213011	0.283570
H274	H	0.352144	-0.487965	-0.411950
H275	H	0.685478	-0.154631	-0.078617
H276	H	1.018811	0.178702	0.254716
N277	N	0.936974	-0.908977	-0.420064
N278	N	1.270307	-0.575644	-0.086731
N279	N	1.603641	-0.242311	0.246603
N280	N	0.903694	-0.893189	-0.466167
N281	N	1.237027	-0.559856	-0.132834
N282	N	1.570360	-0.226523	0.200500
H283	H	0.915134	-0.912377	-0.509011
H284	H	1.248467	-0.579044	-0.175678
H285	H	1.581800	-0.245710	0.157656
N286	N	0.824478	-0.453490	-0.666780
N287	N	1.157811	-0.120157	-0.333447
N288	N	1.491145	0.213177	-0.000114
N289	N	0.828593	-0.522020	-0.659480
N290	N	1.161927	-0.188687	-0.326147
N291	N	1.495260	0.144647	0.007187
H292	H	0.799670	-0.556286	-0.683060
H293	H	1.133003	-0.222952	-0.349727
H294	H	1.466336	0.110381	-0.016393
H295	H	0.914556	-0.235979	-0.861872
H296	H	1.247890	0.097355	-0.528539
H297	H	1.581223	0.430688	-0.195205
N298	N	0.986586	-0.261316	-0.938262
N299	N	1.319920	0.072017	-0.604929
N300	N	1.653253	0.405351	-0.271596
N301	N	1.022378	-0.218891	-0.967504
N302	N	1.355712	0.114443	-0.634171
N303	N	1.689045	0.447776	-0.300837
H304	H	1.051306	-0.184626	-0.943928
H305	H	1.384640	0.148707	-0.610595
H306	H	1.717973	0.482040	-0.277261
H307	H	0.978270	-0.271103	-1.063738
H308	H	1.311603	0.062230	-0.730405
H309	H	1.644937	0.395564	-0.397072
H310	H	0.896338	-0.478812	-0.743171
H311	H	1.229672	-0.145479	-0.409838
H312	H	1.563005	0.187854	-0.076505
N313	N	0.824476	-0.453373	-0.938161
N314	N	1.157810	-0.120039	-0.604828
N315	N	1.491143	0.213294	-0.271495
N316	N	0.788683	-0.495771	-0.967358
N317	N	1.122016	-0.162438	-0.634024
N318	N	1.455350	0.170896	-0.300691
H319	H	0.759752	-0.530052	-0.943745
H320	H	1.093085	-0.196718	-0.610411
H321	H	1.426418	0.136615	-0.277078
H322	H	0.828150	-0.810879	-0.379334
H323	H	1.161484	-0.477546	-0.046000
H324	H	1.494817	-0.144213	0.287333
N325	N	0.673713	-0.261432	-0.221264
N326	N	1.007046	0.071902	0.112069
N327	N	1.340379	0.405235	0.445402
N328	N	0.666469	-0.192909	-0.225525
N329	N	0.999802	0.140424	0.107809
N330	N	1.333136	0.473757	0.441142
H331	H	0.690068	-0.158592	-0.196666
H332	H	1.023402	0.174741	0.136668
H333	H	1.356735	0.508075	0.470001
H334	H	0.800008	-0.903738	-0.273849
H335	H	1.133341	-0.570405	0.059485
H336	H	1.466675	-0.237071	0.392818
N337	N	0.472015	-0.369605	-0.416286
N338	N	0.805348	-0.036271	-0.082953
N339	N	1.138682	0.297062	0.250381
N340	N	0.442851	-0.374914	-0.466689
N341	N	0.776185	-0.041581	-0.133356
N342	N	1.109518	0.291752	0.199977
H343	H	0.466491	-0.379218	-0.507404
H344	H	0.799824	-0.045885	-0.174070
H345	H	1.133158	0.287449	0.159263
N346	N	0.824459	-0.453532	-0.534521
N347	N	1.157792	-0.120198	-0.201188
N348	N	1.491126	0.213135	0.132146
N349	N	0.788663	-0.495928	-0.563716
N350	N	1.121996	-0.162595	-0.230383
N351	N	1.455329	0.170739	0.102950
H352	H	0.759732	-0.530208	-0.540103
H353	H	1.093065	-0.196875	-0.206769
H354	H	1.426398	0.136459	0.126564
H355	H	0.346516	-0.368333	-0.404632
H356	H	0.679849	-0.034999	-0.071299
H357	H	1.013182	0.298334	0.262035
H358	H	0.144605	-0.443770	-0.374881
H359	H	0.477939	-0.110437	-0.041547
H360	H	0.811272	0.222897	0.291786
H361	H	0.144579	-0.271177	-0.229733
H362	H	0.477912	0.062157	0.103600
H363	H	0.811246	0.395490	0.436934
H364	H	0.465014	-0.346749	-0.199778
H365	H	0.798348	-0.013415	0.133555
H366	H	1.131681	0.319918	0.466888
N367	N	0.339524	-0.345497	-0.188125
N368	N	0.672857	-0.012164	0.145208
N369	N	1.006190	0.321170	0.478542
N370	N	0.368692	-0.340183	-0.137725
N371	N	0.702025	-0.006850	0.195609
N372	N	1.035358	0.326483	0.528942
H373	H	0.345056	-0.335887	-0.097008
H374	H	0.678389	-0.002554	0.236326
H375	H	1.011723	0.330780	0.569659
