data_functionalizedCrystal
_audit_creation_method	'MofGen! by Chris Wilmer'
_symmetry_space_group_name_H-M	'P1'
_symmetry_Int_Tables_number	1
_symmetry_cell_setting	triclinic
loop_
_symmetry_equiv_pos_as_xyz
  x,y,z
_cell_length_a	23.096457
_cell_length_b	23.096457
_cell_length_c	18.760492
_cell_angle_alpha	59.999917
_cell_angle_beta	89.995950
_cell_angle_gamma	59.998275
loop_
_atom_site_label
_atom_site_type_symbol
_atom_site_fract_x
_atom_site_fract_y
_atom_site_fract_z
Zr1	Zr	0.557755	0.633761	-0.093553
O2	O	0.465308	0.754549	-0.207362
O3	O	0.586096	0.512971	-0.058666
O4	O	0.586099	0.633761	-0.207370
O5	O	0.465301	0.633759	0.058645
O6	O	0.681379	0.633763	-0.207374
O7	O	0.465305	0.633759	-0.058658
O8	O	0.681375	0.417691	0.058630
O9	O	0.465306	0.849830	-0.207360
O10	O	0.669288	0.562655	-0.043788
O11	O	0.598179	0.562654	0.043757
O12	O	0.598182	0.704869	-0.131323
O13	O	0.527072	0.704867	-0.043778
Zr14	Zr	0.709709	0.633763	0.093525
Zr15	Zr	0.709716	0.633763	-0.093559
Zr16	Zr	0.557748	0.633761	0.093532
Zr17	Zr	0.557751	0.785723	-0.093549
Zr18	Zr	0.709712	0.481801	0.093521
O19	O	0.681368	0.754553	0.058638
O20	O	0.681377	0.754553	-0.207372
O21	O	0.465298	0.754549	0.058648
O22	O	0.802156	0.512975	0.207334
O23	O	0.802166	0.512975	-0.058676
O24	O	0.586087	0.512971	0.207344
O25	O	0.802163	0.633765	-0.058673
O26	O	0.681365	0.633763	0.207342
O27	O	0.586085	0.633761	0.207347
O28	O	0.802159	0.633765	0.058630
O29	O	0.586095	0.849832	-0.207365
O30	O	0.681369	0.417692	0.207337
O31	O	0.802158	0.417694	0.207332
O32	O	0.802164	0.417694	0.058625
O33	O	0.465300	0.849830	-0.058653
O34	O	0.586089	0.849832	-0.058658
O35	O	0.669282	0.562655	0.131295
O36	O	0.740392	0.562656	0.043750
O37	O	0.669285	0.704870	-0.043785
O38	O	0.598176	0.704869	0.043760
C39	C	0.633736	0.443680	-0.000018
C40	C	0.633737	0.379168	-0.000020
C41	C	0.670852	-0.081350	-0.045697
C42	C	0.670850	-0.020730	-0.045705
C43	C	0.633733	0.009582	-0.000007
C44	C	0.596599	-0.020716	0.045684
C45	C	0.596596	-0.081329	0.045683
N46	N	0.638883	0.071976	0.074359
N47	N	0.638889	0.129555	0.074357
C48	C	0.633738	0.192208	-0.000005
N49	N	0.628594	0.195100	-0.074364
N50	N	0.628591	0.137513	-0.074361
C51	C	0.633731	0.075308	-0.000002
C52	C	0.670863	0.288234	-0.045706
C53	C	0.670856	0.348859	-0.045717
C54	C	0.596610	0.348866	0.045680
C55	C	0.596612	0.288248	0.045682
C56	C	0.633743	0.257933	-0.000009
C57	C	0.443652	0.633759	-0.000005
C58	C	0.379140	0.633758	-0.000002
C59	C	0.385951	0.559526	0.045682
C60	C	0.325336	0.559525	0.045685
C61	C	0.257910	0.633760	-0.000012
C62	C	0.251101	0.708001	-0.045698
C63	C	0.311716	0.708000	-0.045693
N64	N	0.135115	0.689016	-0.074384
N65	N	0.077536	0.689012	-0.074386
C66	C	0.075277	0.633767	-0.000027
N67	N	0.132779	0.578513	0.074334
N68	N	0.190365	0.578515	0.074335
C69	C	0.192178	0.633769	-0.000022
C70	C	0.016364	0.559529	0.045665
C71	C	-0.044254	0.559531	0.045671
C72	C	-0.118489	0.708009	-0.045721
C73	C	-0.057871	0.708005	-0.045719
C74	C	0.009553	0.633763	-0.000028
C75	C	0.823812	0.633765	-0.000022
C76	C	0.888324	0.633766	-0.000025
C77	C	0.633740	0.633762	-0.234028
C78	C	0.633743	0.633762	-0.313450
C79	C	0.633728	0.823844	-0.000009
C80	C	0.633727	0.888356	-0.000008
C81	C	0.670841	0.559525	-0.603571
C82	C	0.596605	0.707998	-0.694955
C83	C	0.596609	0.708000	-0.620335
C84	C	0.633730	0.633762	-0.537328
C85	C	0.670846	0.559524	-0.528943
C86	C	0.559489	0.782237	-0.628714
C87	C	0.559491	0.782241	-0.554091
C88	C	0.596616	0.708003	-0.471082
C89	C	0.633734	0.633761	-0.462699
C90	C	0.670854	0.559524	-0.379693
C91	C	0.707977	0.485282	-0.371308
C92	C	0.707971	0.485286	-0.445934
C93	C	0.596623	0.707999	-0.396456
C94	C	0.670859	0.559523	-0.305064
C95	C	0.633724	0.633762	0.234000
C96	C	0.633721	0.633762	0.313422
C97	C	0.823816	0.443683	-0.000027
C98	C	0.888329	0.379172	-0.000031
C99	C	0.633728	0.443680	0.233996
C100	C	0.633726	0.379168	0.313416
C101	C	0.823808	0.443683	0.233987
C102	C	0.888318	0.379172	0.313405
C103	C	0.443656	0.823841	-0.234015
C104	C	0.379146	0.888352	-0.313433
C105	C	0.443648	0.823841	-0.000001
C106	C	0.379135	0.888352	0.000003
C107	C	0.633736	0.823844	-0.234023
C108	C	0.633738	0.888356	-0.313444
C109	C	0.881510	0.348876	-0.045735
C110	C	0.942121	0.288270	-0.045757
C111	C	1.009550	0.257956	-0.000069
C112	C	1.016368	0.288258	0.045637
C113	C	0.955758	0.348867	0.045653
C114	C	0.670841	0.348873	0.396415
C115	C	0.670837	0.288266	0.471046
C116	C	0.633722	0.257950	0.462677
C117	C	0.596603	0.288251	0.379669
C118	C	0.596603	0.348861	0.305040
C119	C	0.955738	0.348878	0.305003
C120	C	1.016358	0.288271	0.379617
C121	C	1.009556	0.257956	0.462633
C122	C	0.942130	0.288257	0.471033
C123	C	0.881511	0.348866	0.396419
C124	C	0.311726	0.918653	-0.305030
C125	C	0.251106	0.979279	-0.379645
C126	C	0.257908	1.009597	-0.462660
C127	C	0.325334	0.979293	-0.471061
C128	C	0.385953	0.918673	-0.396447
C129	C	0.385954	0.918654	0.045700
C130	C	0.325343	0.979277	0.045701
C131	C	0.257914	1.009593	0.000010
C132	C	0.251096	0.979289	-0.045692
C133	C	0.311706	0.918671	-0.045697
C134	C	0.670860	0.918652	-0.305047
C135	C	0.670875	0.979260	-0.379664
C136	C	0.633763	1.009575	-0.462677
C137	C	0.596640	0.979272	-0.471073
C138	C	0.596630	0.918661	-0.396457
H139	H	0.566376	0.003970	0.082889
Br140	Br	-0.209990	0.808759	-0.107730
Br141	Br	0.721236	0.389983	-0.107740
Br142	Br	-0.067114	0.808754	-0.107725
Br143	Br	0.509101	0.882996	-0.565475
H144	H	0.701089	0.499069	-0.237479
Br145	Br	1.107886	0.247106	0.107641
H146	H	0.566385	0.263559	0.372868
H147	H	-0.038701	0.499080	0.082879
Br148	Br	0.932851	0.247157	-0.107788
H149	H	0.633727	0.208597	0.523452
H150	H	0.701065	0.373549	0.403246
Br151	Br	0.965026	0.389971	0.107691
H152	H	0.566397	0.894001	-0.403306
H153	H	0.566384	0.373549	0.082883
Br154	Br	0.334574	0.458775	0.107687
Br155	Br	0.721218	0.247155	0.583688
Br156	Br	0.477458	0.877527	0.107713
H157	H	0.738196	0.424838	-0.303715
Br158	Br	0.546231	0.389965	0.192401
Br159	Br	0.964988	0.390011	0.192348
H160	H	1.071254	0.263607	0.372762
H161	H	0.566363	-0.105994	0.082889
H162	H	0.208567	1.058952	0.000022
H163	H	1.058922	0.208604	0.523380
Br164	Br	0.175632	1.091868	-0.563914
Br165	Br	0.721260	0.247082	-0.107706
H166	H	0.936603	0.263565	0.538634
H167	H	0.529266	0.842677	-0.696301
Br168	Br	0.790016	0.389969	0.407838
Br169	Br	0.721223	0.458772	-0.592191
H170	H	0.071265	0.499076	0.082888
Br171	Br	0.302476	0.877518	-0.192376
Br172	Br	0.159608	1.020391	-0.368224
Br173	Br	0.758341	0.384538	-0.434564
H174	H	0.701104	1.003926	-0.372811
Br175	Br	0.334552	1.020446	-0.583732
H176	H	0.440847	0.894001	-0.403299
Br177	Br	0.159578	1.020439	-0.107694
H178	H	0.330909	1.003941	0.082920
Br179	Br	0.302472	0.808751	-0.107697
Br180	Br	0.302438	0.877550	-0.107716
Br181	Br	0.159595	0.808749	-0.107708
H182	H	0.566380	0.768439	-0.762541
Br183	Br	0.721231	0.877525	-0.192395
H184	H	0.701084	-0.106028	-0.082904
Br185	Br	0.633784	1.091835	-0.563934
H186	H	0.566393	0.768446	-0.403286
H187	H	0.566425	1.003964	-0.538673
H188	H	0.440847	0.499072	0.082881
Br189	Br	0.546228	0.247128	0.107696
Br190	Br	0.721238	0.020393	-0.107715
H191	H	0.826611	0.373557	-0.082951
H192	H	1.058897	0.208603	-0.000088
