data_functionalizedCrystal
_audit_creation_method	'MofGen! by Chris Wilmer'
_symmetry_space_group_name_H-M	'P1'
_symmetry_Int_Tables_number	1
_symmetry_cell_setting	triclinic
loop_
_symmetry_equiv_pos_as_xyz
  x,y,z
_cell_length_a	14.519709
_cell_length_b	16.109302
_cell_length_c	12.996460
_cell_angle_alpha	89.991849
_cell_angle_beta	89.998766
_cell_angle_gamma	83.570963
loop_
_atom_site_label
_atom_site_type_symbol
_atom_site_fract_x
_atom_site_fract_y
_atom_site_fract_z
O1	O	0.118538	1.103339	-0.085615
O2	O	0.368538	1.353339	0.164385
O3	O	0.618538	1.603339	0.414385
O4	O	0.868538	1.853339	0.664385
O5	O	0.133289	0.861303	-0.085607
O6	O	0.383289	1.111303	0.164393
O7	O	0.633289	1.361303	0.414393
O8	O	0.883289	1.611303	0.664393
O9	O	-0.008338	0.988738	-0.085602
O10	O	0.241662	1.238738	0.164398
O11	O	0.491662	1.488738	0.414398
O12	O	0.741662	1.738738	0.664398
O13	O	0.260166	0.975904	-0.085620
O14	O	0.510166	1.225904	0.164380
O15	O	0.760166	1.475904	0.414380
O16	O	1.010166	1.725904	0.664380
O17	O	-0.008330	0.988722	0.085532
O18	O	0.241670	1.238722	0.335532
O19	O	0.491670	1.488722	0.585532
O20	O	0.741670	1.738722	0.835532
O21	O	0.133298	0.861287	0.085526
O22	O	0.383298	1.111287	0.335526
O23	O	0.633298	1.361287	0.585526
O24	O	0.883298	1.611287	0.835526
O25	O	0.118546	1.103323	0.085519
O26	O	0.368546	1.353323	0.335519
O27	O	0.618546	1.603323	0.585519
O28	O	0.868546	1.853323	0.835519
Cu29	Cu	0.125923	0.982303	0.101148
Cu30	Cu	0.375923	1.232303	0.351148
Cu31	Cu	0.625923	1.482303	0.601148
Cu32	Cu	0.875923	1.732303	0.851148
Cu33	Cu	0.125913	0.982323	-0.101237
Cu34	Cu	0.375913	1.232323	0.148763
Cu35	Cu	0.625913	1.482323	0.398763
Cu36	Cu	0.875913	1.732323	0.648763
O37	O	0.260174	0.975888	0.085513
O38	O	0.510174	1.225888	0.335513
O39	O	0.760174	1.475888	0.585513
O40	O	1.010174	1.725888	0.835513
C41	C	0.132696	0.830319	-0.000039
C42	C	0.382696	1.080319	0.249961
C43	C	0.632696	1.330319	0.499961
C44	C	0.882696	1.580319	0.749961
C45	C	0.130904	0.738021	-0.000036
C46	C	0.380904	0.988021	0.249964
C47	C	0.630904	1.238021	0.499964
C48	C	0.880904	1.488021	0.749964
C49	C	-0.042693	0.988132	-0.000035
C50	C	0.207307	1.238132	0.249965
C51	C	0.457307	1.488132	0.499965
C52	C	0.707307	1.738132	0.749965
C53	C	-0.145070	0.986340	-0.000035
C54	C	0.104930	1.236340	0.249965
C55	C	0.354930	1.486340	0.499965
C56	C	0.604930	1.736340	0.749965
C57	C	0.126765	0.525664	0.093239
C58	C	0.376765	0.775664	0.343239
C59	C	0.626765	1.025664	0.593239
C60	C	0.876765	1.275664	0.843239
C61	C	0.125072	0.438941	0.093235
C62	C	0.375072	0.688941	0.343235
C63	C	0.625072	0.938941	0.593235
C64	C	0.875072	1.188941	0.843235
C65	C	0.125068	0.438969	-0.093344
C66	C	0.375068	0.688969	0.156656
C67	C	0.625068	0.938969	0.406656
C68	C	0.875068	1.188969	0.656656
C69	C	0.126754	0.525691	-0.093339
C70	C	0.376754	0.775691	0.156661
C71	C	0.626754	1.025691	0.406661
C72	C	0.876754	1.275691	0.656661
C73	C	0.127608	0.569036	-0.000045
C74	C	0.377608	0.819036	0.249955
C75	C	0.627608	1.069036	0.499955
C76	C	0.877608	1.319036	0.749955
C77	C	0.124228	0.395590	-0.000053
C78	C	0.374228	0.645590	0.249947
C79	C	0.624228	0.895590	0.499947
C80	C	0.874228	1.145590	0.749947
C81	C	0.122391	0.301562	-0.000057
C82	C	0.372391	0.551562	0.249943
C83	C	0.622391	0.801562	0.499943
C84	C	0.872391	1.051562	0.749943
C85	C	0.129442	0.663071	-0.000040
C86	C	0.379442	0.913071	0.249960
C87	C	0.629442	1.163071	0.499960
C88	C	0.879442	1.413071	0.749960
C89	C	-0.519952	0.979741	-0.000061
C90	C	-0.269952	1.229741	0.249939
C91	C	-0.019952	1.479741	0.499939
C92	C	0.230048	1.729741	0.749939
C93	C	-0.415648	0.981574	-0.000053
C94	C	-0.165648	1.231574	0.249947
C95	C	0.084352	1.481574	0.499947
C96	C	0.334352	1.731574	0.749947
C97	C	-0.332514	0.983040	-0.000047
C98	C	-0.082514	1.233040	0.249953
C99	C	0.167486	1.483040	0.499953
C100	C	0.417486	1.733040	0.749953
C101	C	-0.228204	0.984873	-0.000041
C102	C	0.021796	1.234873	0.249959
C103	C	0.271796	1.484873	0.499959
C104	C	0.521796	1.734873	0.749959
C105	C	0.294528	0.976494	-0.000056
C106	C	0.544528	1.226494	0.249944
C107	C	0.794528	1.476494	0.499944
C108	C	1.044528	1.726494	0.749944
C109	C	0.396906	0.978286	-0.000063
C110	C	0.646906	1.228286	0.249937
C111	C	0.896906	1.478286	0.499937
C112	C	1.146906	1.728286	0.749937
C113	C	0.119140	1.134307	-0.000052
C114	C	0.369140	1.384307	0.249948
C115	C	0.619140	1.634307	0.499948
C116	C	0.869140	1.884307	0.749948
C117	C	0.120932	1.226605	-0.000062
C118	C	0.370932	1.476605	0.249938
C119	C	0.620932	1.726605	0.499938
C120	C	0.870932	1.976605	0.749938
N121	N	0.125929	0.982296	0.243495
N122	N	0.375929	1.232296	0.493495
N123	N	0.625929	1.482296	0.743495
N124	N	0.875929	1.732296	0.993495
N125	N	0.125899	0.982337	-0.243584
N126	N	0.375899	1.232337	0.006416
N127	N	0.625899	1.482337	0.256416
N128	N	0.875899	1.732337	0.506416
C129	C	0.125931	0.982300	0.336601
C130	C	0.375931	1.232300	0.586601
C131	C	0.625931	1.482300	0.836601
C132	C	0.875931	1.732300	1.086601
C133	C	0.125925	0.982307	0.453407
C134	C	0.375925	1.232307	0.703407
C135	C	0.625925	1.482307	0.953407
C136	C	0.875925	1.732307	1.203407
C137	C	0.125915	0.982318	0.546505
C138	C	0.375915	1.232318	0.796505
C139	C	0.625915	1.482318	1.046505
C140	C	0.875915	1.732318	1.296505
C141	C	0.125910	0.982326	0.663317
C142	C	0.375910	1.232326	0.913317
C143	C	0.625910	1.482326	1.163317
C144	C	0.875910	1.732326	1.413317
H145	H	0.127460	0.560952	0.169205
H146	H	0.377460	0.810952	0.419205
H147	H	0.627460	1.060952	0.669205
H148	H	0.877460	1.310952	0.919205
H149	H	0.127438	0.561006	-0.169307
H150	H	0.377438	0.811006	0.080693
H151	H	0.627438	1.061006	0.330693
H152	H	0.877438	1.311006	0.580693
Br153	Br	0.123927	0.380081	0.219841
Br154	Br	0.373927	0.630081	0.469841
Br155	Br	0.623927	0.880081	0.719841
Br156	Br	0.873927	1.130081	0.969841
Br157	Br	0.123881	0.380142	-0.219952
Br158	Br	0.373881	0.630142	0.030048
Br159	Br	0.623881	0.880142	0.280048
Br160	Br	0.873881	1.130142	0.530048
