data_functionalizedCrystal
_audit_creation_method	'MofGen! by Chris Wilmer'
_symmetry_space_group_name_H-M	'P1'
_symmetry_Int_Tables_number	1
_symmetry_cell_setting	triclinic
loop_
_symmetry_equiv_pos_as_xyz
  x,y,z
_cell_length_a	14.971486
_cell_length_b	19.288865
_cell_length_c	13.448316
_cell_angle_alpha	89.988163
_cell_angle_beta	89.998199
_cell_angle_gamma	83.375189
loop_
_atom_site_label
_atom_site_type_symbol
_atom_site_fract_x
_atom_site_fract_y
_atom_site_fract_z
O1	O	1.186458	0.090517	-0.082589
O2	O	1.519791	0.423851	0.250744
O3	O	1.853125	0.757184	0.584077
O4	O	0.925999	0.101357	-0.082618
O5	O	1.259333	0.434690	0.250715
O6	O	1.592666	0.768024	0.584049
O7	O	1.063755	-0.005169	-0.082583
O8	O	1.397088	0.328165	0.250750
O9	O	1.730421	0.661498	0.584084
O10	O	1.048703	0.197043	-0.082624
O11	O	1.382036	0.530376	0.250709
O12	O	1.715369	0.863710	0.584043
O13	O	1.063737	-0.005175	0.082801
O14	O	1.397071	0.328158	0.416134
O15	O	1.730404	0.661492	0.749467
O16	O	0.925982	0.101350	0.082766
O17	O	1.259315	0.434684	0.416099
O18	O	1.592649	0.768017	0.749433
O19	O	1.186441	0.090511	0.082794
O20	O	1.519774	0.423844	0.416128
O21	O	1.853107	0.757178	0.749461
Cu22	Cu	1.056210	0.095930	0.097881
Cu23	Cu	1.389543	0.429263	0.431214
Cu24	Cu	1.722877	0.762597	0.764548
Cu25	Cu	1.056230	0.095938	-0.097704
Cu26	Cu	1.389564	0.429271	0.235629
Cu27	Cu	1.722897	0.762604	0.568962
O28	O	1.048685	0.197036	0.082760
O29	O	1.382019	0.530370	0.416093
O30	O	1.715352	0.863703	0.749426
C31	C	0.892669	0.100869	0.000071
C32	C	1.226002	0.434202	0.333404
C33	C	1.559335	0.767536	0.666737
C34	C	0.793379	0.099416	0.000061
C35	C	1.126713	0.432750	0.333394
C36	C	1.460046	0.766083	0.666727
C37	C	0.735816	0.161997	0.000049
C38	C	1.069149	0.495330	0.333383
C39	C	1.402482	0.828664	0.666716
C40	C	0.642524	0.160628	0.000065
C41	C	0.975857	0.493961	0.333398
C42	C	1.309190	0.827295	0.666731
C43	C	0.606797	0.096677	0.000084
C44	C	0.940130	0.430011	0.333417
C45	C	1.273464	0.763344	0.666750
C46	C	0.664368	0.034092	0.000098
C47	C	0.997701	0.367425	0.333431
C48	C	1.331035	0.700758	0.666765
C49	C	0.757658	0.035461	0.000090
C50	C	1.090992	0.368795	0.333423
C51	C	1.424325	0.702128	0.666757
C52	C	0.469921	0.031241	0.000112
C53	C	0.803254	0.364574	0.333446
C54	C	1.136588	0.697908	0.666779
C55	C	0.376624	0.029871	0.000118
C56	C	0.709958	0.363204	0.333452
C57	C	1.043291	0.696537	0.666785
C58	C	0.354786	0.156407	0.000087
C59	C	0.688120	0.489741	0.333420
C60	C	1.021453	0.823074	0.666753
C61	C	0.448077	0.157777	0.000079
C62	C	0.781410	0.491111	0.333412
C63	C	1.114743	0.824444	0.666745
C64	C	0.505641	0.095191	0.000091
C65	C	0.838974	0.428525	0.333425
C66	C	1.172308	0.761858	0.666758
C67	C	1.063262	-0.031050	0.000112
C68	C	1.396595	0.302283	0.333445
C69	C	1.729928	0.635617	0.666778
C70	C	1.061808	-0.108158	0.000120
C71	C	1.395141	0.225175	0.333454
C72	C	1.728475	0.558508	0.666787
C73	C	1.142636	-0.152591	0.000134
C74	C	1.475970	0.180742	0.333467
C75	C	1.809303	0.514076	0.666801
C76	C	1.141271	-0.225043	0.000118
C77	C	1.474604	0.108291	0.333451
C78	C	1.807937	0.441624	0.666785
C79	C	1.059071	-0.253058	0.000109
C80	C	1.392405	0.080275	0.333442
C81	C	1.725738	0.413609	0.666775
C82	C	0.978232	-0.208615	0.000089
C83	C	1.311566	0.124718	0.333423
C84	C	1.644899	0.458051	0.666756
C85	C	0.979600	-0.136166	0.000095
C86	C	1.312934	0.197168	0.333428
C87	C	1.646267	0.530501	0.666762
C88	C	0.994447	-0.361558	0.058032
C89	C	1.327781	-0.028225	0.391365
C90	C	1.661114	0.305108	0.724698
C91	C	0.993083	-0.434007	0.058032
C92	C	1.326416	-0.100674	0.391365
C93	C	1.659749	0.232659	0.724699
C94	C	1.054848	-0.476517	0.000086
C95	C	1.388181	-0.143184	0.333419
C96	C	1.721515	0.190149	0.666752
C97	C	1.117994	-0.446571	-0.057848
C98	C	1.451327	-0.113238	0.275486
C99	C	1.784660	0.220096	0.608819
C100	C	1.119362	-0.374121	-0.057842
C101	C	1.452695	-0.040788	0.275491
C102	C	1.786029	0.292545	0.608825
C103	C	1.057579	-0.331617	0.000101
C104	C	1.390912	0.001716	0.333435
C105	C	1.724245	0.335050	0.666768
C106	C	1.134201	-0.599511	0.000081
C107	C	1.467535	-0.266178	0.333414
C108	C	1.800868	0.067156	0.666748
C109	C	1.132832	-0.671963	0.000059
C110	C	1.466165	-0.338630	0.333392
C111	C	1.799499	-0.005297	0.666726
C112	C	0.969791	-0.655535	0.000040
C113	C	1.303125	-0.322201	0.333373
C114	C	1.636458	0.011132	0.666707
C115	C	0.971163	-0.583084	0.000052
C116	C	1.304496	-0.249751	0.333385
C117	C	1.637830	0.083583	0.666719
C118	C	1.053370	-0.555077	0.000077
C119	C	1.386704	-0.221743	0.333410
C120	C	1.720037	0.111590	0.666744
C121	C	1.219771	0.090999	0.000104
C122	C	1.553105	0.424332	0.333437
C123	C	1.886438	0.757666	0.666770
C124	C	1.319061	0.092452	0.000107
C125	C	1.652394	0.425785	0.333441
C126	C	1.985727	0.759118	0.666774
C127	C	1.049178	0.222918	0.000063
C128	C	1.382512	0.556251	0.333396
C129	C	1.715845	0.889584	0.666729
C130	C	1.050632	0.300026	0.000048
C131	C	1.383966	0.633359	0.333381
C132	C	1.717299	0.966693	0.666714
N133	N	1.056202	0.095924	0.235445
N134	N	1.389535	0.429257	0.568779
N135	N	1.722869	0.762591	0.902112
N136	N	1.056245	0.095938	-0.235269
N137	N	1.389578	0.429272	0.098065
N138	N	1.722912	0.762605	0.431398
C139	C	1.117219	0.048774	0.287501
C140	C	1.450552	0.382107	0.620834
C141	C	1.783886	0.715441	0.954168
C142	C	1.117224	0.048773	0.391604
C143	C	1.450558	0.382107	0.724938
C144	C	1.783891	0.715440	1.058271
C145	C	1.056217	0.095927	0.443650
C146	C	1.389550	0.429260	0.776983
C147	C	1.722883	0.762594	1.110317
C148	C	0.995193	0.143079	0.391587
C149	C	1.328527	0.476413	0.724920
C150	C	1.661860	0.809746	1.058254
C151	C	0.995184	0.143076	0.287486
C152	C	1.328518	0.476409	0.620819
C153	C	1.661851	0.809743	0.954152
C154	C	0.995218	0.143084	0.608567
C155	C	1.328552	0.476417	0.941900
C156	C	1.661885	0.809751	1.275234
C157	C	0.995228	0.143088	0.712675
C158	C	1.328562	0.476422	1.046009
C159	C	1.661895	0.809755	1.379342
C160	C	1.117258	0.048781	0.712686
C161	C	1.450592	0.382115	1.046019
C162	C	1.783925	0.715448	1.379352
C163	C	1.117249	0.048778	0.608584
C164	C	1.450583	0.382111	0.941918
C165	C	1.783916	0.715445	1.275251
C166	C	1.056227	0.095932	0.556529
C167	C	1.389560	0.429265	0.889862
C168	C	1.722893	0.762598	1.223195
H169	H	0.516788	-0.019723	0.000124
H170	H	0.850122	0.313610	0.333457
H171	H	1.183455	0.646943	0.666791
H172	H	1.201139	-0.576706	0.000097
H173	H	1.534473	-0.243373	0.333430
H174	H	1.867806	0.089960	0.666764
H175	H	0.945549	0.181485	0.755046
H176	H	1.278882	0.514818	1.088379
H177	H	1.612215	0.848151	1.421712
F178	F	0.930239	0.193258	0.232085
F179	F	1.263572	0.526591	0.565419
F180	F	1.596906	0.859925	0.898752
H181	H	0.635272	-0.017978	0.000128
H182	H	0.968606	0.315355	0.333461
H183	H	1.301939	0.648688	0.666795
F184	F	0.293521	0.223017	0.000075
F185	F	0.626854	0.556350	0.333409
F186	F	0.960188	0.889683	0.666742
H187	H	1.166908	0.010380	0.433988
H188	H	1.500242	0.343713	0.767321
H189	H	1.833575	0.677047	1.100654
F190	F	0.581263	0.227235	0.000048
F191	F	0.914597	0.560569	0.333381
F192	F	1.247930	0.893902	0.666715
H193	H	0.477162	0.209852	0.000054
H194	H	0.810495	0.543185	0.333387
H195	H	1.143828	0.876518	0.666720
F196	F	0.338604	-0.038193	0.000165
F197	F	0.671937	0.295141	0.333498
F198	F	1.005270	0.628474	0.666831
H199	H	1.166945	0.010388	0.755076
H200	H	1.500278	0.343721	1.088409
H201	H	1.833611	0.677054	1.421742
H202	H	0.945524	0.181479	0.566187
H203	H	1.278858	0.514812	0.899520
H204	H	1.612191	0.848146	1.232853
H205	H	0.913778	-0.099988	0.000084
H206	H	1.247111	0.233346	0.333418
H207	H	1.580445	0.566679	0.666751
F208	F	0.930259	0.193261	0.446978
F209	F	1.263592	0.526594	0.780312
F210	F	1.596926	0.859928	1.113645
H211	H	0.764896	0.214073	0.000033
H212	H	1.098230	0.547407	0.333366
H213	H	1.431563	0.880740	0.666700
F214	F	0.928704	-0.316322	0.119712
F215	F	1.262038	0.017011	0.453045
F216	F	1.595371	0.350344	0.786379
F217	F	0.890750	-0.238432	0.000073
F218	F	1.224083	0.094901	0.333406
F219	F	1.557417	0.428234	0.666739
H220	H	0.902863	-0.678344	0.000027
H221	H	1.236197	-0.345011	0.333360
H222	H	1.569530	-0.011678	0.666694
F223	F	1.182157	-0.001411	0.232120
F224	F	1.515491	0.331922	0.565453
F225	F	1.848824	0.665256	0.898787
F226	F	1.182185	-0.001403	0.553193
F227	F	1.515518	0.331930	0.886526
F228	F	1.848851	0.665264	1.219860
F229	F	1.186560	-0.342252	-0.119502
F230	F	1.519894	-0.008919	0.213832
F231	F	1.853227	0.324414	0.547165
H232	H	0.905343	-0.546906	0.000046
H233	H	1.238677	-0.213572	0.333380
H234	H	1.572010	0.119761	0.666713
H235	H	1.209576	-0.129793	0.000151
H236	H	1.542909	0.203541	0.333484
H237	H	1.876243	0.536874	0.666818
F238	F	0.818922	-0.031146	0.000106
F239	F	1.152255	0.302188	0.333439
F240	F	1.485589	0.635521	0.666772
H241	H	1.168289	-0.481182	-0.105034
H242	H	1.501622	-0.147848	0.228300
H243	H	1.834956	0.185485	0.561633
H244	H	0.941662	-0.458383	0.105199
H245	H	1.274995	-0.125050	0.438533
H246	H	1.608328	0.208283	0.771866
F247	F	1.227303	-0.272340	0.000131
F248	F	1.560636	0.060993	0.333465
F249	F	1.893969	0.394327	0.666798
H250	H	1.198655	-0.708141	0.000065
H251	H	1.531989	-0.374807	0.333398
H252	H	1.865322	-0.041474	0.666731
