data_functionalizedCrystal
_audit_creation_method	'MofGen! by Chris Wilmer'
_symmetry_space_group_name_H-M	'P1'
_symmetry_Int_Tables_number	1
_symmetry_cell_setting	triclinic
loop_
_symmetry_equiv_pos_as_xyz
  x,y,z
_cell_length_a	18.215407
_cell_length_b	12.759400
_cell_length_c	18.215399
_cell_angle_alpha	90.021909
_cell_angle_beta	90.017368
_cell_angle_gamma	90.011727
loop_
_atom_site_label
_atom_site_type_symbol
_atom_site_fract_x
_atom_site_fract_y
_atom_site_fract_z
Zn1	Zn	1.125126	-0.418349	0.416098
Zn2	Zn	1.625126	0.081651	0.916098
Zn3	Zn	1.125057	-0.594046	0.293045
Zn4	Zn	1.625057	-0.094046	0.793045
Zn5	Zn	1.002059	-0.418374	0.293051
Zn6	Zn	1.502059	0.081626	0.793051
Zn7	Zn	1.002047	-0.593978	0.416075
Zn8	Zn	1.502047	-0.093978	0.916075
O9	O	1.063572	-0.506187	0.354567
O10	O	1.563572	-0.006187	0.854567
O11	O	1.228101	-0.441673	0.399782
O12	O	1.728101	0.058327	0.899782
O13	O	1.108717	-0.570782	0.190062
O14	O	1.608717	-0.070782	0.690062
O15	O	1.018417	-0.271350	0.309386
O16	O	1.518417	0.228650	0.809386
O17	O	1.228051	-0.570757	0.309376
O18	O	1.728051	-0.070757	0.809376
O19	O	1.108835	-0.271331	0.399788
O20	O	1.608835	0.228669	0.899788
O21	O	1.018351	-0.441716	0.190066
O22	O	1.518351	0.058284	0.690066
O23	O	0.899073	-0.441650	0.309363
O24	O	1.399073	0.058350	0.809363
O25	O	1.018398	-0.570642	0.519063
O26	O	1.518398	-0.070642	1.019063
O27	O	0.899065	-0.570666	0.399749
O28	O	1.399065	-0.070666	0.899749
O29	O	1.108824	-0.441608	0.519080
O30	O	1.608824	0.058392	1.019080
O31	O	1.108706	-0.741058	0.309353
O32	O	1.608706	-0.241058	0.809353
O33	O	1.018331	-0.741008	0.399743
O34	O	1.518331	-0.241008	0.899743
C35	C	0.872366	-0.506154	0.354555
C36	C	1.372366	-0.006154	0.854555
C37	C	0.790567	-0.506166	0.354566
C38	C	1.290567	-0.006166	0.854566
C39	C	0.602399	-0.439090	0.401716
C40	C	1.102399	0.060910	0.901716
C41	C	0.525540	-0.439099	0.401718
C42	C	1.025540	0.060901	0.901718
C43	C	0.525498	-0.573313	0.307432
C44	C	1.025498	-0.073313	0.807432
C45	C	0.602355	-0.573298	0.307427
C46	C	1.102355	-0.073298	0.807427
C47	C	0.640804	-0.506188	0.354572
C48	C	1.140804	-0.006188	0.854572
C49	C	0.487088	-0.506212	0.354581
C50	C	0.987088	-0.006212	0.854581
C51	C	0.403754	-0.506222	0.354583
C52	C	0.903754	-0.006222	0.854583
C53	C	0.724143	-0.506176	0.354569
C54	C	1.224143	-0.006176	0.854569
C55	C	1.063530	-0.779154	0.354561
C56	C	1.563530	-0.279154	0.854561
C57	C	1.063579	-0.895931	0.354583
C58	C	1.563579	-0.395931	0.854583
C59	C	1.016511	-0.950805	0.401611
C60	C	1.516511	-0.450805	0.901611
C61	C	1.016550	-1.060529	0.401618
C62	C	1.516550	-0.560529	0.901618
C63	C	1.110732	-1.060495	0.307566
C64	C	1.610732	-0.560495	0.807566
C65	C	1.110689	-0.950773	0.307556
C66	C	1.610689	-0.450773	0.807556
C67	C	0.969402	-0.895963	0.448638
C68	C	1.469402	-0.395963	0.948638
C69	C	0.922330	-0.950838	0.495672
C70	C	1.422330	-0.450838	0.995672
C71	C	0.922369	-1.060562	0.495679
C72	C	1.422369	-0.560562	0.995679
C73	C	0.969480	-1.115411	0.448652
C74	C	1.469480	-0.615411	0.948652
C75	C	1.255525	-0.506220	0.354581
C76	C	1.755525	-0.006220	0.854581
C77	C	1.337324	-0.506234	0.354586
C78	C	1.837324	-0.006234	0.854586
C79	C	1.063617	-0.506114	0.546520
C80	C	1.563617	-0.006114	1.046520
C81	C	1.063636	-0.506083	0.628319
C82	C	1.563636	-0.006083	1.128319
C83	C	1.063635	-0.232154	0.354590
C84	C	1.563635	0.267846	0.854590
C85	C	1.063662	-0.115377	0.354600
C86	C	1.563662	0.384623	0.854600
C87	C	1.063570	-0.506183	0.163361
C88	C	1.563570	-0.006183	0.663361
C89	C	1.063694	-0.505918	0.081563
C90	C	1.563694	-0.005918	0.581563
C91	C	1.110738	-0.438832	0.816523
C92	C	1.610738	0.061168	1.316523
C93	C	1.110747	-0.438802	0.893382
C94	C	1.610747	0.061198	1.393382
C95	C	1.016587	-0.573172	0.893353
C96	C	1.516587	-0.073172	1.393353
C97	C	1.016575	-0.573197	0.816496
C98	C	1.516575	-0.073197	1.316496
C99	C	1.063655	-0.506028	0.778083
C100	C	1.563655	-0.006028	1.278083
C101	C	1.063675	-0.505973	0.931799
C102	C	1.563675	-0.005973	1.431799
C103	C	1.063684	-0.505940	1.015133
C104	C	1.563684	-0.005940	1.515133
C105	C	1.063645	-0.506059	0.694744
C106	C	1.563645	-0.006059	1.194744
H107	H	0.494184	-0.627952	0.269048
H108	H	0.994184	-0.127952	0.769048
O109	O	0.969365	-0.777619	0.448622
O110	O	1.469365	-0.277619	0.948622
H111	H	0.954515	-0.748755	0.393095
H112	H	1.454515	-0.248755	0.893095
H113	H	1.149085	-0.384083	0.924677
H114	H	1.649085	0.115917	1.424677
O115	O	0.871518	-0.891675	0.546383
O116	O	1.371518	-0.391675	1.046383
H117	H	0.813774	-0.912795	0.533704
H118	H	1.313774	-0.412795	1.033704
H119	H	0.633701	-0.384442	0.440103
H120	H	1.133701	0.115558	0.940103
O121	O	1.161472	-0.891592	0.256842
O122	O	1.661472	-0.391592	0.756842
H123	H	1.198869	-0.841542	0.289819
H124	H	1.698869	-0.341542	0.789819
H125	H	0.978229	-0.627915	0.785197
H126	H	1.478229	-0.127915	1.285197
O127	O	0.871602	-1.119754	0.546402
O128	O	1.371602	-0.619754	1.046402
H129	H	0.838843	-1.063181	0.579102
H130	H	1.338843	-0.563181	1.079102
O131	O	0.484114	-0.366732	0.452566
O132	O	0.984114	0.133268	0.952566
H133	H	0.523765	-0.320072	0.485349
H134	H	1.023765	0.179928	0.985349
O135	O	0.969522	-1.233758	0.448650
O136	O	1.469522	-0.733758	0.948650
H137	H	0.984380	-1.262641	0.504169
H138	H	1.484380	-0.762641	1.004169
O139	O	0.643787	-0.645667	0.256575
O140	O	1.143787	-0.145667	0.756575
H141	H	0.604141	-0.692344	0.223799
H142	H	1.104141	-0.192344	0.723799
O143	O	1.161562	-1.119646	0.256867
O144	O	1.661562	-0.619646	0.756867
H145	H	1.153695	-1.205162	0.264786
H146	H	1.653695	-0.705162	0.764786
H147	H	1.149071	-0.384137	0.785250
H148	H	1.649071	0.115863	1.285250
O149	O	0.965810	-0.645618	0.934783
O150	O	1.465810	-0.145618	1.434783
H151	H	0.973731	-0.634319	0.994685
H152	H	1.473731	-0.134319	1.494685
