data_functionalizedCrystal
_audit_creation_method	'MofGen! by Chris Wilmer'
_symmetry_space_group_name_H-M	'P1'
_symmetry_Int_Tables_number	1
_symmetry_cell_setting	triclinic
loop_
_symmetry_equiv_pos_as_xyz
  x,y,z
_cell_length_a	12.811415
_cell_length_b	27.731993
_cell_length_c	26.210047
_cell_angle_alpha	89.989972
_cell_angle_beta	95.450797
_cell_angle_gamma	83.336213
loop_
_atom_site_label
_atom_site_type_symbol
_atom_site_fract_x
_atom_site_fract_y
_atom_site_fract_z
O1	O	0.124639	0.641620	0.048058
O2	O	0.143688	0.500927	0.048970
O3	O	-0.018692	0.574813	0.041438
O4	O	0.287019	0.567734	0.055590
O5	O	-0.018745	0.574814	-0.043422
O6	O	0.143635	0.500927	-0.035890
O7	O	0.124586	0.641621	-0.036803
Cu8	Cu	0.134106	0.571274	-0.044095
Cu9	Cu	0.134168	0.571273	0.056263
O10	O	0.286966	0.567734	-0.029271
C11	C	0.143271	0.482917	0.006526
C12	C	0.142093	0.429255	0.006483
C13	C	0.133587	0.046048	0.052321
C14	C	0.138076	0.247730	0.052542
O15	O	0.138638	0.273806	0.091908
N16	N	0.138608	0.272953	0.006312
C17	C	0.138012	0.247754	-0.039977
O18	O	0.138557	0.273836	-0.079295
C19	C	0.133516	0.046073	-0.040199
C20	C	0.132994	0.020851	0.006035
C21	C	0.133064	0.020826	0.098551
C22	C	0.131948	-0.029592	0.098495
C23	C	0.131355	-0.054788	0.052210
C24	C	0.131878	-0.029566	0.005980
C25	C	0.132913	0.020875	-0.086488
C26	C	0.131786	-0.029548	-0.086539
C27	C	0.131264	-0.054770	-0.040306
C28	C	0.130169	-0.105180	-0.040362
N29	N	0.129636	-0.130404	0.005869
C30	C	0.130229	-0.105208	0.052154
C31	C	0.140374	0.353639	-0.039858
C32	C	0.141500	0.404058	-0.039803
C33	C	0.141562	0.404031	0.052717
C34	C	0.140443	0.353610	0.052662
C35	C	0.139842	0.328415	0.006373
C36	C	0.127886	-0.211089	0.052034
C37	C	0.126774	-0.261511	0.051975
C38	C	0.126707	-0.261479	-0.040545
C39	C	0.127824	-0.211061	-0.040486
C40	C	0.128410	-0.185867	0.005808
O41	O	0.129594	-0.131287	-0.079708
O42	O	0.129660	-0.131297	0.091465
C43	C	0.134704	0.096466	0.052376
C44	C	0.135227	0.121687	0.006146
C45	C	0.134634	0.096491	-0.040139
C46	C	0.136353	0.172107	0.006202
C47	C	0.136946	0.197303	0.052487
C48	C	0.136413	0.172080	0.098718
C49	C	0.135297	0.121662	0.098662
C50	C	0.135167	0.121714	-0.086370
C51	C	0.136284	0.172132	-0.086310
C52	C	0.136877	0.197328	-0.040025
C53	C	-0.057817	0.574417	-0.002800
C54	C	-0.174319	0.573229	-0.008189
C55	C	-0.393168	0.570988	0.074211
C56	C	-0.502632	0.569873	0.069150
C57	C	-0.502710	0.569878	-0.023371
C58	C	-0.393247	0.570994	-0.018310
C59	C	-0.338480	0.571550	0.030482
C60	C	-0.229015	0.572669	0.035543
C61	C	-0.229095	0.572671	-0.056977
C62	C	-0.338558	0.571555	-0.062038
C63	C	0.326091	0.568130	0.014969
C64	C	0.442593	0.569318	0.020361
C65	C	0.125003	0.659630	0.005643
C66	C	0.126181	0.713293	0.005689
N67	N	0.134205	0.571273	0.126848
N68	N	0.134061	0.571278	-0.114681
C69	C	0.070771	0.541900	0.476432
C70	C	0.070738	0.541901	0.690089
O71	O	0.016830	0.516932	0.715222
N72	N	0.134080	0.571279	0.719736
C73	C	0.197431	0.600661	0.695965
O74	O	0.251298	0.625652	0.726084
C75	C	0.197457	0.600662	0.482309
C76	C	0.134118	0.571279	0.452665
C77	C	0.007436	0.512520	0.446789
C78	C	0.007449	0.512518	0.393378
C79	C	0.070797	0.541897	0.369611
C80	C	0.134131	0.571277	0.399254
C81	C	0.260801	0.630047	0.458539
C82	C	0.260800	0.630045	0.405121
C83	C	0.197461	0.600662	0.375477
C84	C	0.197492	0.600654	0.322076
N85	N	0.134149	0.571276	0.292430
C86	C	0.070802	0.541898	0.316197
C87	C	0.197414	0.600657	0.808138
C88	C	0.197409	0.600656	0.861552
C89	C	0.070714	0.541897	0.855672
C90	C	0.070726	0.541896	0.802258
C91	C	0.134071	0.571279	0.778491
C92	C	0.070835	0.541896	0.204030
C93	C	0.070857	0.541895	0.150615
C94	C	0.197547	0.600656	0.156499
C95	C	0.197529	0.600655	0.209910
C96	C	0.134165	0.571273	0.233674
O97	O	0.251363	0.625614	0.296910
O98	O	0.016924	0.516918	0.286069
C99	C	0.070757	0.541902	0.529843
C100	C	0.134092	0.571283	0.559487
C101	C	0.197439	0.600661	0.535720
C102	C	0.134087	0.571282	0.612901
C103	C	0.070739	0.541903	0.636668
C104	C	0.007397	0.512525	0.607021
C105	C	0.007410	0.512524	0.553610
C106	C	0.260782	0.630039	0.565367
C107	C	0.260765	0.630038	0.618777
C108	C	0.197417	0.600659	0.642544
H109	H	0.133544	0.041336	0.136244
H110	H	0.134678	0.101205	-0.124062
H111	H	0.136902	0.192603	0.136406
C112	C	-0.168929	0.573290	-0.105082
N113	N	-0.123611	0.573757	-0.141313
H114	H	0.248998	0.624577	0.885684
H115	H	0.131518	-0.050122	0.136144
C116	C	0.001176	0.509570	0.118010
N117	N	-0.051308	0.485224	0.093453
C118	C	0.136858	0.199870	-0.137175
N119	N	0.137279	0.220761	-0.175486
H120	H	-0.044132	0.488593	0.369246
C121	C	0.267212	0.632974	0.242520
N122	N	0.319690	0.657322	0.267077
H123	H	0.126228	-0.282003	-0.078230
C124	C	-0.398814	0.570942	-0.115707
N125	N	-0.444198	0.570481	-0.156131
H126	H	0.312376	0.653975	0.482666
C127	C	0.131130	-0.057260	-0.137463
N128	N	0.130641	-0.078132	-0.175818
C129	C	-0.562789	0.569267	0.117255
N130	N	-0.608100	0.568814	0.153489
H131	H	0.141942	0.424588	-0.077450
H132	H	0.312383	0.653974	0.385774
C133	C	-0.062253	0.480196	0.472924
N134	N	-0.114739	0.455844	0.492605
C135	C	-0.562970	0.569256	-0.077038
N136	N	-0.608358	0.568785	-0.117460
C137	C	0.001137	0.509571	0.230163
N138	N	-0.051352	0.485222	0.249846
H139	H	0.019150	0.517969	0.778125
C140	C	0.001019	0.509586	0.881825
N141	N	-0.051481	0.485254	0.901526
C142	C	0.267135	0.632970	0.782004
N143	N	0.319662	0.657302	0.762322
H144	H	0.139881	0.333130	-0.077554
H145	H	0.312353	0.653964	0.642910
C146	C	0.133477	0.048608	-0.137351
N147	N	0.133897	0.069496	-0.175664
C148	C	0.267222	0.632972	0.130345
N149	N	0.319696	0.657316	0.110644
H150	H	-0.184426	0.573123	0.075272
C151	C	0.139858	0.325872	0.103522
N152	N	0.139412	0.304982	0.141832
H153	H	0.128270	-0.190526	-0.078132
C154	C	0.134710	0.093925	0.149523
N155	N	0.134262	0.073038	0.187834
C156	C	-0.332923	0.571603	0.127882
N157	N	-0.287548	0.572065	0.168308
H158	H	0.312367	0.653964	0.546021
H159	H	-0.044167	0.488597	0.529479
C160	C	-0.062359	0.480242	0.633172
N161	N	-0.114927	0.455942	0.652870
C162	C	0.142206	0.431757	0.103632
N163	N	0.142682	0.452643	0.141978
H164	H	0.128364	-0.190582	0.089731
C165	C	0.126192	-0.289251	0.102837
N166	N	0.125748	-0.310143	0.141146
