data_functionalizedCrystal
_audit_creation_method	'MofGen! by Chris Wilmer'
_symmetry_space_group_name_H-M	'P1'
_symmetry_Int_Tables_number	1
_symmetry_cell_setting	triclinic
loop_
_symmetry_equiv_pos_as_xyz
  x,y,z
_cell_length_a	19.121112
_cell_length_b	19.120785
_cell_length_c	19.121278
_cell_angle_alpha	84.986890
_cell_angle_beta	89.882050
_cell_angle_gamma	89.914053
loop_
_atom_site_label
_atom_site_type_symbol
_atom_site_fract_x
_atom_site_fract_y
_atom_site_fract_z
Zn1	Zn	1.042387	-0.305902	-0.428453
Zn2	Zn	1.542387	0.194098	0.071547
Zn3	Zn	1.042307	-0.428595	-0.305757
Zn4	Zn	1.542307	0.071405	0.194243
Zn5	Zn	0.930137	-0.306342	-0.306216
Zn6	Zn	1.430137	0.193658	0.193784
Zn7	Zn	0.920529	-0.418545	-0.418410
Zn8	Zn	1.420529	0.081455	0.081590
O9	O	0.983840	-0.364846	-0.364709
O10	O	1.483840	0.135154	0.135291
O11	O	1.140318	-0.326199	-0.416188
O12	O	1.640318	0.173801	0.083812
O13	O	1.031415	-0.416768	-0.207515
O14	O	1.531415	0.083232	0.292485
O15	O	0.949082	-0.207979	-0.326827
O16	O	1.449082	0.292021	0.173173
O17	O	1.140259	-0.416341	-0.326044
O18	O	1.640259	0.083659	0.173956
O19	O	1.031552	-0.207656	-0.416634
O20	O	1.531552	0.292344	0.083366
O21	O	0.949004	-0.326949	-0.207853
O22	O	1.449004	0.173051	0.292147
O23	O	0.830921	-0.317205	-0.317088
O24	O	1.330921	0.182795	0.182912
O25	O	0.932707	-0.399213	-0.518045
O26	O	1.432707	0.100787	-0.018045
O27	O	0.823862	-0.399640	-0.399516
O28	O	1.323862	0.100360	0.100484
O29	O	1.022235	-0.316454	-0.525423
O30	O	1.522235	0.183546	-0.025423
O31	O	1.022098	-0.525566	-0.316305
O32	O	1.522098	-0.025566	0.183695
O33	O	0.932629	-0.518183	-0.399071
O34	O	1.432629	-0.018183	0.100929
C35	C	0.801996	-0.357380	-0.357263
C36	C	1.301996	0.142620	0.142737
C37	C	0.724201	-0.354202	-0.354093
C38	C	1.224201	0.145798	0.145907
C39	C	0.976331	-0.547364	-0.356564
C40	C	1.476331	-0.047364	0.143436
C41	C	0.973181	-0.625447	-0.353106
C42	C	1.473181	-0.125447	0.146894
C43	C	0.284393	-0.334039	-0.334019
C44	C	0.784393	0.165961	0.165981
C45	C	0.357490	-0.337029	-0.337000
C46	C	0.857490	0.162971	0.163000
C47	C	0.390379	-0.381520	-0.381331
C48	C	0.890379	0.118480	0.118669
C49	C	0.350167	-0.423019	-0.422688
C50	C	0.850167	0.076981	0.077312
C51	C	0.277072	-0.420025	-0.419709
C52	C	0.777072	0.079975	0.080291
C53	C	0.610895	-0.392707	-0.392471
C54	C	1.110895	0.107293	0.107529
C55	C	0.683995	-0.395700	-0.395445
C56	C	1.183995	0.104300	0.104555
C57	C	0.691313	-0.309708	-0.309758
C58	C	1.191313	0.190292	0.190242
C59	C	0.618216	-0.306721	-0.306780
C60	C	1.118216	0.193279	0.193220
C61	C	0.578011	-0.348217	-0.348140
C62	C	1.078011	0.151783	0.151860
C63	C	0.465095	-0.384579	-0.384378
C64	C	0.965095	0.115421	0.115622
C65	C	0.503297	-0.345154	-0.345096
C66	C	1.003297	0.154846	0.154904
C67	C	0.953197	-1.067082	-0.331223
C68	C	1.453197	-0.567082	0.168777
C69	C	0.956158	-0.993714	-0.334472
C70	C	1.456158	-0.493714	0.165528
C71	C	1.000544	-0.956800	-0.382889
C72	C	1.500544	-0.456800	0.117111
C73	C	1.041966	-0.993257	-0.428063
C74	C	1.541966	-0.493257	0.071937
C75	C	1.039002	-1.066623	-0.424817
C76	C	1.539002	-0.566623	0.075183
C77	C	1.011639	-0.735270	-0.395035
C78	C	1.511639	-0.235270	0.104965
C79	C	1.014602	-0.661899	-0.398276
C80	C	1.514602	-0.161899	0.101724
C81	C	0.928792	-0.662362	-0.304685
C82	C	1.428792	-0.162362	0.195315
C83	C	0.925834	-0.735729	-0.301440
C84	C	1.425834	-0.235729	0.198560
C85	C	0.967254	-0.772180	-0.346618
C86	C	1.467254	-0.272180	0.153382
C87	C	1.003573	-0.881807	-0.386210
C88	C	1.503573	-0.381807	0.113790
C89	C	0.964221	-0.847171	-0.343300
C90	C	1.464221	-0.347171	0.156700
C91	C	1.166394	-0.372342	-0.372185
C92	C	1.666394	0.127658	0.127815
C93	C	1.244188	-0.375536	-0.375371
C94	C	1.744188	0.124464	0.124629
C95	C	0.976408	-0.356664	-0.547935
C96	C	1.476408	0.143336	-0.047935
C97	C	0.973241	-0.353177	-0.626015
C98	C	1.473241	0.146823	-0.126015
C99	C	0.991397	-0.181616	-0.372902
C100	C	1.491397	0.318384	0.127098
C101	C	0.994618	-0.103534	-0.376393
C102	C	1.494618	0.396466	0.123607
C103	C	0.953180	-0.331116	-1.067630
C104	C	1.453180	0.168884	-0.567630
C105	C	0.956159	-0.334390	-0.994266
C106	C	1.456159	0.165610	-0.494266
C107	C	1.000551	-0.382794	-0.957407
C108	C	1.500551	0.117206	-0.457407
C109	C	1.041972	-0.427922	-0.993916
C110	C	1.541972	0.072078	-0.493916
C111	C	1.038997	-0.424645	-1.067279
C112	C	1.538997	0.075355	-0.567279
C113	C	1.011687	-0.395027	-0.735888
C114	C	1.511687	0.104973	-0.235888
C115	C	1.014658	-0.398303	-0.662520
C116	C	1.514658	0.101697	-0.162520
C117	C	0.928845	-0.304769	-0.662874
C118	C	1.428845	0.195231	-0.162874
C119	C	0.925870	-0.301499	-0.736239
C120	C	1.425870	0.198501	-0.236239
C121	C	0.967293	-0.346624	-0.772742
C122	C	1.467293	0.153376	-0.272742
C123	C	1.003596	-0.386143	-0.882416
C124	C	1.503596	0.113857	-0.382416
C125	C	0.964252	-0.343271	-0.847731
C126	C	1.464252	0.156729	-0.347731
C127	C	0.991285	-0.372948	-0.182200
C128	C	1.491285	0.127052	0.317800
C129	C	0.994596	-0.376242	-0.104134
C130	C	1.494596	0.123758	0.395866
H131	H	0.257621	-0.297810	-0.297919
H132	H	0.757621	0.202190	0.202081
H133	H	0.724055	-0.275923	-0.276087
H134	H	1.224055	0.224077	0.223913
H135	H	1.078104	-0.963197	-0.467489
H136	H	1.578104	-0.463197	0.032511
F137	F	0.234282	-0.464190	-0.463724
F138	F	0.734282	0.035810	0.036276
F139	F	0.905958	-1.106363	-0.279687
F140	F	1.405958	-0.606363	0.220313
H141	H	0.922429	-0.964036	-0.297692
H142	H	1.422429	-0.464036	0.202308
F143	F	0.916980	-0.886459	-0.291777
F144	F	1.416980	-0.386459	0.208223
H145	H	0.710771	-0.431930	-0.431548
H146	H	1.210771	0.068070	0.068452
H147	H	1.072726	-1.096300	-0.461604
H148	H	1.572726	-0.596300	0.038396
F149	F	1.055767	-0.443061	-0.774728
F150	F	1.555767	0.056939	-0.274728
H151	H	1.039714	-0.851745	-0.425630
H152	H	1.539714	-0.351745	0.074370
F153	F	0.905930	-0.279598	-1.106851
F154	F	1.405930	0.220402	-0.606851
F155	F	0.917011	-0.291755	-0.886961
F156	F	1.417011	0.208245	-0.386961
H157	H	0.889692	-0.765780	-0.262013
H158	H	1.389692	-0.265780	0.237987
H159	H	0.578169	-0.426499	-0.426146
H160	H	1.078169	0.073501	0.073854
H161	H	0.390223	-0.303240	-0.303324
H162	H	0.890223	0.196760	0.196676
F163	F	0.884769	-0.256740	-0.624020
F164	F	1.384769	0.243260	-0.124020
F165	F	1.089224	-0.479433	-0.954686
F166	F	1.589224	0.020567	-0.454686
F167	F	0.385172	-0.470372	-0.469866
F168	F	0.885172	0.029628	0.030134
H169	H	0.591443	-0.270496	-0.270676
H170	H	1.091443	0.229504	0.229324
F171	F	1.083081	-0.472671	-1.106130
F172	F	1.583081	0.027329	-0.606130
F173	F	0.468292	-0.297802	-0.297921
F174	F	0.968292	0.202198	0.202079
F175	F	1.055717	-0.774053	-0.443122
F176	F	1.555717	-0.274053	0.056878
F177	F	1.061849	-0.622614	-0.449808
F178	F	1.561849	-0.122614	0.050192
F179	F	0.912079	-0.286359	-0.955418
F180	F	1.412079	0.213641	-0.455418
H181	H	0.491881	-0.420806	-0.420471
H182	H	0.991881	0.079194	0.079529
F183	F	1.050842	-0.437655	-0.843182
F184	F	1.550842	0.062345	-0.343182
H185	H	1.050824	-0.437708	-0.632512
H186	H	1.550824	0.062292	-0.132512
F187	F	0.884711	-0.623564	-0.256610
F188	F	1.384711	-0.123564	0.243390
F189	F	0.878588	-0.250011	-0.775459
F190	F	1.378588	0.249989	-0.275459
