data_functionalizedCrystal
_audit_creation_method	'MofGen! by Chris Wilmer'
_symmetry_space_group_name_H-M	'P1'
_symmetry_Int_Tables_number	1
_symmetry_cell_setting	triclinic
loop_
_symmetry_equiv_pos_as_xyz
  x,y,z
_cell_length_a	17.077404
_cell_length_b	13.032721
_cell_length_c	17.077396
_cell_angle_alpha	82.846305
_cell_angle_beta	90.019501
_cell_angle_gamma	97.204757
loop_
_atom_site_label
_atom_site_type_symbol
_atom_site_fract_x
_atom_site_fract_y
_atom_site_fract_z
Zn1	Zn	1.160375	-0.416035	0.483523
Zn2	Zn	1.143613	-0.590801	0.368926
Zn3	Zn	1.029103	-0.416072	0.352275
Zn4	Zn	1.012412	-0.590739	0.500144
O5	O	1.086376	-0.503412	0.426217
O6	O	1.267997	-0.439229	0.468335
O7	O	1.128394	-0.567664	0.256874
O8	O	1.060517	-0.269828	0.355761
O9	O	1.255683	-0.567629	0.384141
O10	O	1.156961	-0.269801	0.452188
O11	O	1.044264	-0.439292	0.244641
O12	O	0.917043	-0.439231	0.371877
O13	O	1.032069	-0.567523	0.607782
O14	O	0.904780	-0.567559	0.480516
O15	O	1.140777	-0.439169	0.595571
O16	O	1.112209	-0.737032	0.400257
O17	O	1.015816	-0.736987	0.496662
C18	C	0.882430	-0.503393	0.426193
C19	C	0.795178	-0.503410	0.426204
C20	C	0.747814	-0.570331	0.482702
C21	C	0.665833	-0.570333	0.482715
C22	C	0.631218	-0.503419	0.426226
C23	C	0.678589	-0.436491	0.369726
C24	C	0.760569	-0.436484	0.369717
C25	C	0.507717	-0.436512	0.369747
C26	C	0.425732	-0.436519	0.369754
C27	C	0.412982	-0.570361	0.482744
C28	C	0.494961	-0.570354	0.482735
C29	C	0.542326	-0.503427	0.426234
C30	C	1.060404	-0.774928	0.452087
C31	C	1.049365	-0.891083	0.463180
C32	C	1.092179	-0.942857	0.420462
C33	C	1.080770	-1.062910	0.431927
C34	C	1.291118	-0.503432	0.426241
C35	C	1.378367	-0.503440	0.426251
C36	C	1.086431	-0.503335	0.630954
C37	C	1.086454	-0.503302	0.718201
C38	C	1.112470	-0.230836	0.400263
C39	C	1.123590	-0.114681	0.389203
C40	C	1.086374	-0.503413	0.222269
C41	C	1.086530	-0.503152	0.134995
C42	C	1.143060	-0.436463	0.752833
C43	C	1.143073	-0.436428	0.834811
C44	C	1.086482	-0.503239	0.882154
C45	C	1.029870	-0.570081	0.847516
C46	C	1.029855	-0.570110	0.765540
C47	C	1.029908	-0.570018	1.018380
C48	C	1.029924	-0.569991	1.100362
C49	C	1.143126	-0.436336	1.087651
C50	C	1.143111	-0.436365	1.005675
C51	C	1.086499	-0.503209	0.971042
H52	H	1.137283	-0.898306	0.375405
H53	H	1.189196	-0.381968	0.967130
H54	H	0.546281	-0.382003	0.323743
C55	C	1.183664	-1.055103	0.329125
C56	C	1.183019	-0.947873	0.329676
C57	C	1.238339	-0.892959	0.274336
H58	H	1.234767	-1.072744	0.342282
H59	H	1.170513	-1.072940	0.278048
H60	H	1.196175	-0.930044	0.380742
H61	H	1.131929	-0.930202	0.316510
H62	H	1.225188	-0.910796	0.223258
H63	H	1.289438	-0.910608	0.287498
H64	H	1.237903	-0.820198	0.274697
H65	H	1.035670	-1.107459	0.476993
H66	H	1.004267	-0.935636	0.508243
H67	H	1.189145	-0.382061	0.714292
C68	C	0.785247	-0.643022	0.544125
C69	C	0.726218	-0.701606	0.593619
C70	C	0.760670	-0.768568	0.650220
H71	H	0.812859	-0.688596	0.518470
H72	H	0.821040	-0.603122	0.574613
H73	H	0.690439	-0.741503	0.563134
H74	H	0.698602	-0.656059	0.619292
H75	H	0.796463	-0.728669	0.680709
H76	H	0.788281	-0.814136	0.624559
H77	H	0.720625	-0.808319	0.683813
H78	H	1.189169	-0.382003	0.863004
H79	H	0.523141	-0.624847	0.528730
C80	C	0.968417	-0.642728	0.980932
C81	C	0.918880	-0.701264	1.039940
C82	C	0.862243	-0.768274	1.005475
H83	H	0.937948	-0.602898	0.945142
H84	H	0.994074	-0.688323	0.953324
H85	H	0.893225	-0.655674	1.067535
H86	H	0.949327	-0.741115	1.075734
H87	H	0.887901	-0.813870	0.977867
H88	H	0.831780	-0.728436	0.969685
H89	H	0.828631	-0.808006	1.045507
H90	H	1.189220	-0.381907	1.115852
H91	H	0.374413	-0.624852	0.528751
C92	C	0.968486	-0.642864	0.727989
C93	C	0.975705	-0.746255	0.757760
C94	C	0.919193	-0.813305	0.723178
H95	H	0.917166	-0.627708	0.739932
H96	H	0.976587	-0.633379	0.672387
H97	H	0.967598	-0.755734	0.813350
H98	H	1.027013	-0.761443	0.745819
H99	H	0.927294	-0.803821	0.667575
H100	H	0.867877	-0.798140	0.735123
H101	H	0.924088	-0.883464	0.743367
H102	H	0.983841	-0.624392	1.138908
H103	H	0.627272	-0.624828	0.528720
H104	H	0.799133	-0.381985	0.323715
H105	H	0.397552	-0.382020	0.323764
C106	C	0.640950	-0.364011	0.308317
C107	C	0.588227	-0.423099	0.263551
C108	C	0.553548	-0.356366	0.206966
H109	H	0.613269	-0.318514	0.333981
H110	H	0.680874	-0.324168	0.274624
H111	H	0.548309	-0.462924	0.297239
H112	H	0.615888	-0.468593	0.237870
H113	H	0.593473	-0.316523	0.173273
H114	H	0.525872	-0.310872	0.232637
H115	H	0.517778	-0.396448	0.176581
H116	H	0.983790	-0.624476	0.886069
