data_functionalizedCrystal
_audit_creation_method	'MofGen! by Chris Wilmer'
_symmetry_space_group_name_H-M	'P1'
_symmetry_Int_Tables_number	1
_symmetry_cell_setting	triclinic
loop_
_symmetry_equiv_pos_as_xyz
  x,y,z
_cell_length_a	6.817900
_cell_length_b	11.412360
_cell_length_c	11.452834
_cell_angle_alpha	87.996872
_cell_angle_beta	108.697278
_cell_angle_gamma	71.567349
loop_
_atom_site_label
_atom_site_type_symbol
_atom_site_fract_x
_atom_site_fract_y
_atom_site_fract_z
V1	V	-4.077171	0.089937	-0.399767
V2	V	-3.577171	0.589937	0.100233
O3	O	-4.016561	-0.089340	-0.354412
O4	O	-3.516561	0.410660	0.145588
O5	O	-4.073703	0.260098	-0.433334
O6	O	-3.573703	0.760098	0.066666
O7	O	-4.030061	0.051249	-0.557557
O8	O	-3.530061	0.551249	-0.057557
O9	O	-4.060506	0.120954	-0.229329
O10	O	-3.560506	0.620954	0.270671
V11	V	-4.554810	0.072902	-0.374971
V12	V	-4.054810	0.572902	0.125029
O13	O	-4.351337	0.127307	-0.454158
O14	O	-3.851337	0.627307	0.045842
O15	O	-4.730841	0.035532	-0.320580
O16	O	-4.230841	0.535532	0.179420
O17	O	-4.335071	-0.097259	-0.341404
O18	O	-3.835071	0.402741	0.158596
O19	O	-4.732816	0.252179	-0.420326
O20	O	-4.232816	0.752179	0.079674
O21	O	-4.688872	0.041885	-0.545409
O22	O	-4.188872	0.541885	-0.045409
O23	O	-4.378713	0.111589	-0.217181
O24	O	-3.878713	0.611589	0.282819
C25	C	-3.929593	0.302745	-0.436395
C26	C	-3.429593	0.802745	0.063605
C27	C	-4.008054	0.441613	-0.464892
C28	C	-3.508054	0.941613	0.035108
C29	C	-3.999013	0.509661	-0.372651
C30	C	-3.499013	1.009661	0.127349
C31	C	-4.080105	0.653188	-0.402102
C32	C	-3.580105	1.153188	0.097898
C33	C	-3.873922	0.036337	-0.594851
C34	C	-3.373922	0.536337	-0.094851
C35	C	-3.916985	0.005831	-0.724084
C36	C	-3.416985	0.505831	-0.224084
C37	C	-4.149498	0.860102	-0.338341
C38	C	-3.649498	1.360102	0.161659
C39	C	-4.071058	0.721234	-0.309849
C40	C	-3.571058	1.221234	0.190151
C41	C	-4.003419	0.097176	-0.820579
C42	C	-3.503419	0.597176	-0.320579
C43	C	-4.047928	0.065649	-0.954149
C44	C	-3.547928	0.565649	-0.454149
C45	C	-4.198196	0.126508	-0.179881
C46	C	-3.698196	0.626508	0.320119
C47	C	-4.134369	0.157007	-0.050646
C48	C	-3.634369	0.657007	0.449354
H49	H	-3.931250	0.461662	-0.271878
H50	H	-3.431250	0.961662	0.228122
H51	H	-4.006886	-0.035901	-0.970415
H52	H	-3.506886	0.464099	-0.470415
H53	H	-4.175429	0.258558	-1.034383
H54	H	-3.675429	0.758558	-0.534383
H55	H	-4.147886	0.701183	-0.502883
H56	H	-3.647886	1.201183	-0.002883
H57	H	-4.003291	0.673242	-0.209068
H58	H	-3.503291	1.173242	0.290932
H59	H	-4.044478	0.198720	-0.804307
H60	H	-3.544478	0.698720	-0.304307
H61	H	-4.075834	0.489612	-0.565665
H62	H	-3.575834	0.989612	-0.065665
H63	H	-3.875949	-0.095712	-0.740357
H64	H	-3.375949	0.404288	-0.240357
