data_functionalizedCrystal
_audit_creation_method	'MofGen! by Chris Wilmer'
_symmetry_space_group_name_H-M	'P1'
_symmetry_Int_Tables_number	1
_symmetry_cell_setting	triclinic
loop_
_symmetry_equiv_pos_as_xyz
  x,y,z
_cell_length_a	22.010155
_cell_length_b	14.044220
_cell_length_c	14.044220
_cell_angle_alpha	93.188878
_cell_angle_beta	90.003727
_cell_angle_gamma	89.995721
loop_
_atom_site_label
_atom_site_type_symbol
_atom_site_fract_x
_atom_site_fract_y
_atom_site_fract_z
O1	O	0.050463	-1.277174	-0.230155
O2	O	0.300463	-1.027174	0.019845
O3	O	0.550463	-0.777174	0.269845
O4	O	0.800463	-0.527174	0.519845
O5	O	0.050478	-1.000502	-0.221849
O6	O	0.300478	-0.750502	0.028151
O7	O	0.550478	-0.500502	0.278151
O8	O	0.800478	-0.250502	0.528151
O9	O	0.050465	-1.134685	-0.087666
O10	O	0.300465	-0.884685	0.162334
O11	O	0.550465	-0.634685	0.412334
O12	O	0.800465	-0.384685	0.662334
O13	O	0.050476	-1.142991	-0.364338
O14	O	0.300476	-0.892991	-0.114338
O15	O	0.550476	-0.642991	0.135662
O16	O	0.800476	-0.392991	0.385662
O17	O	-0.050586	-1.134660	-0.087686
O18	O	0.199414	-0.884660	0.162314
O19	O	0.449414	-0.634660	0.412314
O20	O	0.699414	-0.384660	0.662314
O21	O	-0.050572	-1.000478	-0.221869
O22	O	0.199428	-0.750478	0.028131
O23	O	0.449428	-0.500478	0.278131
O24	O	0.699428	-0.250478	0.528131
O25	O	-0.050587	-1.277149	-0.230175
O26	O	0.199413	-1.027149	0.019825
O27	O	0.449413	-0.777149	0.269825
O28	O	0.699413	-0.527149	0.519825
Cu29	Cu	-0.059806	-1.138811	-0.226024
Cu30	Cu	0.190194	-0.888811	0.023976
Cu31	Cu	0.440194	-0.638811	0.273976
Cu32	Cu	0.690194	-0.388811	0.523976
Cu33	Cu	0.059697	-1.138840	-0.226000
Cu34	Cu	0.309697	-0.888840	0.024000
Cu35	Cu	0.559697	-0.638840	0.274000
Cu36	Cu	0.809697	-0.388840	0.524000
O37	O	-0.050574	-1.142966	-0.364357
O38	O	0.199426	-0.892966	-0.114357
O39	O	0.449426	-0.642966	0.135643
O40	O	0.699426	-0.392966	0.385643
C41	C	-0.000045	-0.964868	-0.218223
C42	C	0.249955	-0.714868	0.031777
C43	C	0.499955	-0.464868	0.281777
C44	C	0.749955	-0.214868	0.531777
C45	C	-0.000039	-0.858725	-0.207379
C46	C	0.249961	-0.608725	0.042621
C47	C	0.499961	-0.358725	0.292621
C48	C	0.749961	-0.108725	0.542621
N49	N	-0.143859	-1.138797	-0.226040
N50	N	0.106141	-0.888797	0.023960
N51	N	0.356141	-0.638797	0.273960
N52	N	0.606141	-0.388797	0.523960
C53	C	-0.000060	-1.131037	-0.052054
C54	C	0.249940	-0.881037	0.197946
C55	C	0.499940	-0.631037	0.447946
C56	C	0.749940	-0.381037	0.697946
C57	C	-0.000061	-1.120193	0.054088
C58	C	0.249939	-0.870193	0.304088
C59	C	0.499939	-0.620193	0.554088
C60	C	0.749939	-0.370193	0.804088
C61	C	-0.563644	-1.198261	-0.166594
C62	C	-0.313644	-0.948261	0.083406
C63	C	-0.063644	-0.698261	0.333406
C64	C	0.186356	-0.448261	0.583406
C65	C	-0.627252	-1.198265	-0.166587
C66	C	-0.377252	-0.948265	0.083413
C67	C	-0.127252	-0.698265	0.333413
C68	C	0.122748	-0.448265	0.583413
O69	O	-0.660148	-1.248786	-0.116053
O70	O	-0.410148	-0.998786	0.133947
O71	O	-0.160148	-0.748786	0.383947
O72	O	0.089852	-0.498786	0.633947
N73	N	-0.659066	-1.138838	-0.225980
N74	N	-0.409066	-0.888838	0.024020
N75	N	-0.159066	-0.638838	0.274020
N76	N	0.090934	-0.388838	0.524020
C77	C	-0.627269	-1.079396	-0.285376
C78	C	-0.377269	-0.829396	-0.035376
C79	C	-0.127269	-0.579396	0.214624
C80	C	0.122731	-0.329396	0.464624
O81	O	-0.660170	-1.028849	-0.335893
O82	O	-0.410170	-0.778849	-0.085893
O83	O	-0.160170	-0.528849	0.164107
O84	O	0.089830	-0.278849	0.414107
C85	C	-0.563663	-1.079388	-0.285377
C86	C	-0.313663	-0.829388	-0.035377
C87	C	-0.063663	-0.579388	0.214623
C88	C	0.186337	-0.329388	0.464623
C89	C	-0.531852	-1.138826	-0.225987
C90	C	-0.281852	-0.888826	0.024013
C91	C	-0.031852	-0.638826	0.274013
C92	C	0.218148	-0.388826	0.524013
C93	C	-0.531833	-1.257693	-0.107208
C94	C	-0.281833	-1.007693	0.142792
C95	C	-0.031833	-0.757693	0.392792
C96	C	0.218167	-0.507693	0.642792
C97	C	-0.468230	-1.257691	-0.107216
C98	C	-0.218230	-1.007691	0.142784
C99	C	0.031770	-0.757691	0.392784
C100	C	0.281770	-0.507691	0.642784
C101	C	-0.436438	-1.198256	-0.166609
C102	C	-0.186438	-0.948256	0.083391
C103	C	0.063562	-0.698256	0.333391
C104	C	0.313562	-0.448256	0.583391
C105	C	-0.468249	-1.138823	-0.225995
C106	C	-0.218249	-0.888823	0.024005
C107	C	0.031751	-0.638823	0.274005
C108	C	0.281751	-0.388823	0.524005
C109	C	-0.531867	-1.019942	-0.344767
C110	C	-0.281867	-0.769942	-0.094767
C111	C	-0.031867	-0.519942	0.155233
C112	C	0.218133	-0.269942	0.405233
C113	C	-0.468257	-1.019939	-0.344762
C114	C	-0.218257	-0.769939	-0.094762
C115	C	0.031743	-0.519939	0.155238
C116	C	0.281743	-0.269939	0.405238
C117	C	-0.436446	-1.079377	-0.285372
C118	C	-0.186446	-0.829377	-0.035372
C119	C	0.063554	-0.579377	0.214628
C120	C	0.313554	-0.329377	0.464628
C121	C	-0.372853	-1.079385	-0.285396
C122	C	-0.122853	-0.829385	-0.035396
C123	C	0.127147	-0.579385	0.214604
C124	C	0.377147	-0.329385	0.464604
N125	N	-0.341039	-1.138812	-0.226003
N126	N	-0.091039	-0.888812	0.023997
N127	N	0.158961	-0.638812	0.273997
N128	N	0.408961	-0.388812	0.523997
C129	C	-0.372831	-1.198247	-0.166609
C130	C	-0.122831	-0.948247	0.083391
C131	C	0.127169	-0.698247	0.333391
C132	C	0.377169	-0.448247	0.583391
C133	C	-0.760847	-1.079417	-0.285369
C134	C	-0.510847	-0.829417	-0.035369
C135	C	-0.260847	-0.579417	0.214631
C136	C	-0.010847	-0.329417	0.464631
C137	C	-0.824452	-1.079429	-0.285374
C138	C	-0.574452	-0.829429	-0.035374
C139	C	-0.324452	-0.579429	0.214626
C140	C	-0.074452	-0.329429	0.464626
C141	C	-0.824431	-1.198297	-0.166584
C142	C	-0.574431	-0.948297	0.083416
C143	C	-0.324431	-0.698297	0.333416
C144	C	-0.074431	-0.448297	0.583416
C145	C	-0.760824	-1.198289	-0.166585
C146	C	-0.510824	-0.948289	0.083415
C147	C	-0.260824	-0.698289	0.333415
C148	C	-0.010824	-0.448289	0.583415
C149	C	-0.729033	-1.138844	-0.225976
C150	C	-0.479033	-0.888844	0.024024
C151	C	-0.229033	-0.638844	0.274024
C152	C	0.020967	-0.388844	0.524024
C153	C	-0.239260	-1.198238	-0.166631
C154	C	0.010740	-0.948238	0.083369
C155	C	0.260740	-0.698238	0.333369
C156	C	0.510740	-0.448238	0.583369
C157	C	-0.175651	-1.198232	-0.166647
C158	C	0.074349	-0.948232	0.083353
C159	C	0.324349	-0.698232	0.333353
C160	C	0.574349	-0.448232	0.583353
C161	C	-0.175679	-1.079362	-0.285433
C162	C	0.074321	-0.829362	-0.035433
C163	C	0.324321	-0.579362	0.214567
C164	C	0.574321	-0.329362	0.464567
C165	C	-0.239282	-1.079370	-0.285421
C166	C	0.010718	-0.829370	-0.035421
C167	C	0.260718	-0.579370	0.214579
C168	C	0.510718	-0.329370	0.464579
C169	C	-0.271071	-1.138811	-0.226012
C170	C	-0.021071	-0.888811	0.023988
C171	C	0.228929	-0.638811	0.273988
C172	C	0.478929	-0.388811	0.523988
O173	O	-0.339916	-1.028888	-0.335901
O174	O	-0.089916	-0.778888	-0.085901
O175	O	0.160084	-0.528888	0.164099
O176	O	0.410084	-0.278888	0.414099
O177	O	-0.339923	-1.248777	-0.116092
O178	O	-0.089923	-0.998777	0.133908
O179	O	0.160077	-0.748777	0.383908
O180	O	0.410077	-0.498777	0.633908
N181	N	0.143750	-1.138861	-0.225977
N182	N	0.393750	-0.888861	0.024023
N183	N	0.643750	-0.638861	0.274023
N184	N	0.893750	-0.388861	0.524023
C185	C	-0.000063	-1.312783	-0.233800
C186	C	0.249937	-1.062783	0.016200
C187	C	0.499937	-0.812783	0.266200
C188	C	0.749937	-0.562783	0.516200
C189	C	-0.000064	-1.418926	-0.244645
C190	C	0.249936	-1.168926	0.005355
C191	C	0.499936	-0.918926	0.255355
C192	C	0.749936	-0.668926	0.505355
C193	C	-0.000052	-0.664388	-0.187553
C194	C	0.249948	-0.414388	0.062447
C195	C	0.499948	-0.164388	0.312447
C196	C	0.749948	0.085612	0.562447
C197	C	-0.000052	-0.613258	-0.264467
C198	C	0.249948	-0.363258	-0.014467
C199	C	0.499948	-0.113258	0.235533
C200	C	0.749948	0.136742	0.485533
C201	C	-0.000059	-0.505122	-0.253435
C202	C	0.249941	-0.255122	-0.003435
C203	C	0.499941	-0.005122	0.246565
C204	C	0.749941	0.244878	0.496565
C205	C	-0.000045	-0.772534	-0.198583
C206	C	0.249955	-0.522534	0.051417
C207	C	0.499955	-0.272534	0.301417
C208	C	0.749955	-0.022534	0.551417
C209	C	-0.000047	-1.146614	-0.399969
C210	C	0.249953	-0.896614	-0.149969
C211	C	0.499953	-0.646614	0.100031
C212	C	0.749953	-0.396614	0.350031
C213	C	-0.000043	-1.157459	-0.506112
C214	C	0.249957	-0.907459	-0.256112
C215	C	0.499957	-0.657459	-0.006112
C216	C	0.749957	-0.407459	0.243888
C217	C	-0.000051	-1.100366	0.248426
C218	C	0.249949	-0.850366	0.498426
C219	C	0.499949	-0.600366	0.748426
C220	C	0.749949	-0.350366	0.998426
C221	C	-0.000053	-1.177281	0.299556
C222	C	0.249947	-0.927281	0.549556
C223	C	0.499947	-0.677281	0.799556
C224	C	0.749947	-0.427281	1.049556
C225	C	-0.000048	-1.166249	0.407692
C226	C	0.249952	-0.916249	0.657692
C227	C	0.499952	-0.666249	0.907692
C228	C	0.749952	-0.416249	1.157692
C229	C	-0.000056	-1.111397	0.140280
C230	C	0.249944	-0.861397	0.390280
C231	C	0.499944	-0.611397	0.640280
C232	C	0.749944	-0.361397	0.890280
H233	H	-0.149753	-1.246637	-0.118285
H234	H	0.100247	-0.996637	0.131715
H235	H	0.350247	-0.746637	0.381715
H236	H	0.600247	-0.496637	0.631715
H237	H	-0.000045	-1.026239	0.285863
H238	H	0.249955	-0.776239	0.535863
H239	H	0.499955	-0.526239	0.785863
H240	H	0.749955	-0.276239	1.035863
H241	H	-0.265136	-1.246639	-0.118254
H242	H	-0.015136	-0.996639	0.131746
H243	H	0.234864	-0.746639	0.381746
H244	H	0.484864	-0.496639	0.631746
H245	H	-0.442333	-1.306087	-0.058853
H246	H	-0.192333	-1.056087	0.191147
H247	H	0.057667	-0.806087	0.441147
H248	H	0.307667	-0.556087	0.691147
H249	H	-0.000016	-1.251414	0.262117
H250	H	0.249984	-1.001414	0.512117
H251	H	0.499984	-0.751414	0.762117
H252	H	0.749984	-0.501414	1.012117
F253	F	-0.000058	-0.615455	-0.090661
F254	F	0.249942	-0.365455	0.159339
F255	F	0.499942	-0.115455	0.409339
F256	F	0.749942	0.134545	0.659339
F257	F	-0.273136	-1.016120	-0.348642
F258	F	-0.023136	-0.766120	-0.098642
F259	F	0.226864	-0.516120	0.151358
F260	F	0.476864	-0.266120	0.401358
H261	H	-0.557759	-0.971542	-0.393126
H262	H	-0.307759	-0.721542	-0.143126
H263	H	-0.057759	-0.471542	0.106874
H264	H	0.192241	-0.221542	0.356874
F265	F	-0.726974	-1.261549	-0.103373
F266	F	-0.476974	-1.011549	0.146627
F267	F	-0.226974	-0.761549	0.396627
F268	F	0.023026	-0.511549	0.646627
F269	F	-0.565660	-1.320956	-0.043987
F270	F	-0.315660	-1.070956	0.206013
F271	F	-0.065660	-0.820956	0.456013
F272	F	0.184340	-0.570956	0.706013
F273	F	-0.858278	-1.261551	-0.103371
F274	F	-0.608278	-1.011551	0.146629
F275	F	-0.358278	-0.761551	0.396629
F276	F	-0.108278	-0.511551	0.646629
F277	F	-0.858302	-1.016181	-0.348597
F278	F	-0.608302	-0.766181	-0.098597
F279	F	-0.358302	-0.516181	0.151403
F280	F	-0.108302	-0.266181	0.401403
H281	H	-0.734966	-1.031013	-0.333741
H282	H	-0.484966	-0.781013	-0.083741
H283	H	-0.234966	-0.531013	0.166259
H284	H	0.015034	-0.281013	0.416259
F285	F	-0.434426	-0.956665	-0.407974
F286	F	-0.184426	-0.706665	-0.157974
F287	F	0.065574	-0.456665	0.092026
F288	F	0.315574	-0.206665	0.342026
H289	H	-0.149783	-1.030973	-0.333793
H290	H	0.100217	-0.780973	-0.083793
H291	H	0.350217	-0.530973	0.166207
H292	H	0.600217	-0.280973	0.416207
F293	F	-0.000045	-0.662191	-0.361366
F294	F	0.249955	-0.412191	-0.111366
F295	F	0.499955	-0.162191	0.138634
F296	F	0.749955	0.087809	0.388634
