data_functionalizedCrystal
_audit_creation_method	'MofGen! by Chris Wilmer'
_symmetry_space_group_name_H-M	'P1'
_symmetry_Int_Tables_number	1
_symmetry_cell_setting	triclinic
loop_
_symmetry_equiv_pos_as_xyz
  x,y,z
_cell_length_a	19.077105
_cell_length_b	16.959454
_cell_length_c	19.077174
_cell_angle_alpha	92.276377
_cell_angle_beta	85.483752
_cell_angle_gamma	87.716588
loop_
_atom_site_label
_atom_site_type_symbol
_atom_site_fract_x
_atom_site_fract_y
_atom_site_fract_z
Zn1	Zn	1.093734	-0.384059	-0.441867
Zn2	Zn	1.427067	-0.050725	-0.108533
Zn3	Zn	1.760400	0.282608	0.224800
Zn4	Zn	1.088928	-0.510707	-0.323986
Zn5	Zn	1.422261	-0.177374	0.009347
Zn6	Zn	1.755595	0.155959	0.342680
Zn7	Zn	0.971118	-0.373009	-0.319263
Zn8	Zn	1.304451	-0.039676	0.014070
Zn9	Zn	1.637785	0.293657	0.347403
Zn10	Zn	0.975822	-0.510655	-0.437104
Zn11	Zn	1.309155	-0.177322	-0.103771
Zn12	Zn	1.642488	0.156011	0.229562
O13	O	1.032400	-0.444608	-0.380555
O14	O	1.365734	-0.111274	-0.047222
O15	O	1.699067	0.222059	0.286112
O16	O	1.191747	-0.405505	-0.430199
O17	O	1.525080	-0.072171	-0.096866
O18	O	1.858413	0.261162	0.236468
O19	O	1.069320	-0.487839	-0.224710
O20	O	1.402654	-0.154505	0.108623
O21	O	1.735987	0.178828	0.441957
O22	O	0.987426	-0.263867	-0.335543
O23	O	1.320759	0.069466	-0.002210
O24	O	1.654093	0.402800	0.331123
O25	O	1.188216	-0.498553	-0.343593
O26	O	1.521549	-0.165220	-0.010260
O27	O	1.854882	0.168114	0.323074
O28	O	1.077511	-0.271985	-0.425619
O29	O	1.410844	0.061349	-0.092286
O30	O	1.744178	0.394682	0.241047
O31	O	0.982766	-0.386673	-0.221240
O32	O	1.316099	-0.053339	0.112093
O33	O	1.649432	0.279994	0.445427
O34	O	0.873091	-0.386623	-0.330926
O35	O	1.206425	-0.053289	0.002408
O36	O	1.539758	0.280044	0.335741
O37	O	0.995443	-0.498465	-0.536386
O38	O	1.328776	-0.165131	-0.203053
O39	O	1.662109	0.168202	0.130281
O40	O	0.876547	-0.487751	-0.417503
O41	O	1.209881	-0.154417	-0.084169
O42	O	1.543214	0.178916	0.249164
O43	O	1.082072	-0.405455	-0.539885
O44	O	1.415406	-0.072121	-0.206551
O45	O	1.748739	0.261212	0.126782
O46	O	1.073881	-0.621309	-0.338975
O47	O	1.407215	-0.287975	-0.005642
O48	O	1.740548	0.045358	0.327691
O49	O	0.990783	-0.621271	-0.422082
O50	O	1.324116	-0.287937	-0.088749
O51	O	1.657449	0.045396	0.244584
C52	C	0.849240	-0.435983	-0.373185
C53	C	1.182574	-0.102649	-0.039852
C54	C	1.515907	0.230684	0.293481
C55	C	0.770884	-0.432312	-0.370049
C56	C	1.104218	-0.098979	-0.036716
C57	C	1.437551	0.234354	0.296617
C58	C	0.735888	-0.483313	-0.413581
C59	C	1.069221	-0.149980	-0.080248
C60	C	1.402554	0.183354	0.253086
C61	C	0.662264	-0.479854	-0.410638
C62	C	0.995597	-0.146521	-0.077304
C63	C	1.328931	0.186812	0.256029
C64	C	0.623638	-0.425398	-0.364158
C65	C	0.956972	-0.092065	-0.030825
C66	C	1.290305	0.241268	0.302508
C67	C	0.658640	-0.374392	-0.320625
C68	C	0.991974	-0.041059	0.012708
C69	C	1.325307	0.292274	0.346042
C70	C	0.732263	-0.377848	-0.323572
C71	C	1.065596	-0.044514	0.009761
C72	C	1.398930	0.288819	0.343094
C73	C	0.403256	-0.409407	-0.350521
C74	C	0.736590	-0.076073	-0.017188
C75	C	1.069923	0.257260	0.316146
C76	C	0.329629	-0.405957	-0.347575
C77	C	0.662962	-0.072623	-0.014242
C78	C	0.996296	0.260710	0.319091
C79	C	0.333258	-0.511418	-0.437590
C80	C	0.666591	-0.178085	-0.104256
C81	C	0.999924	0.155249	0.229077
C82	C	0.406881	-0.514872	-0.440530
C83	C	0.740214	-0.181539	-0.107196
C84	C	1.073548	0.151795	0.226137
C85	C	0.441877	-0.463863	-0.396999
C86	C	0.775210	-0.130530	-0.063665
C87	C	1.108543	0.202804	0.269668
N88	N	0.548383	-0.421864	-0.361147
N89	N	0.881717	-0.088530	-0.027814
N90	N	1.215050	0.244803	0.305519
N91	N	0.517131	-0.467395	-0.400014
N92	N	0.850464	-0.134061	-0.066681
N93	N	1.183797	0.199272	0.266653
C94	C	1.032341	-0.649971	-0.380541
C95	C	1.365674	-0.316637	-0.047207
C96	C	1.699007	0.016696	0.286126
C97	C	1.032381	-0.737830	-0.380561
C98	C	1.365714	-0.404497	-0.047227
C99	C	1.699047	-0.071163	0.286106
C100	C	0.989196	-1.109319	-0.423827
C101	C	1.322529	-0.775986	-0.090493
C102	C	1.655863	-0.442652	0.242840
C103	C	1.075804	-1.109306	-0.337363
C104	C	1.409137	-0.775972	-0.004030
C105	C	1.742470	-0.442639	0.329304
C106	C	1.075779	-1.026758	-0.337356
C107	C	1.409112	-0.693425	-0.004022
C108	C	1.742446	-0.360092	0.329311
C109	C	1.032461	-0.985487	-0.380584
C110	C	1.365794	-0.652154	-0.047250
C111	C	1.699128	-0.318821	0.286083
C112	C	0.989168	-1.026764	-0.423819
C113	C	1.322502	-0.693431	-0.090486
C114	C	1.655835	-0.360097	0.242848
C115	C	1.119066	-0.985475	-0.294116
C116	C	1.452399	-0.652142	0.039218
C117	C	1.785732	-0.318809	0.372551
C118	C	1.119042	-0.902923	-0.294106
C119	C	1.452375	-0.569589	0.039227
C120	C	1.785709	-0.236256	0.372561
C121	C	1.075727	-0.861651	-0.337338
C122	C	1.409061	-0.528317	-0.004005
C123	C	1.742394	-0.194984	0.329329
C124	C	1.032433	-0.902932	-0.380576
C125	C	1.365767	-0.569599	-0.047243
C126	C	1.699100	-0.236266	0.286091
C127	C	0.989116	-0.861662	-0.423804
C128	C	1.322449	-0.528328	-0.090471
C129	C	1.655782	-0.194995	0.242863
C130	C	0.945825	-0.902942	-0.467046
C131	C	1.279158	-0.569609	-0.133713
C132	C	1.612491	-0.236275	0.199621
C133	C	0.945854	-0.985492	-0.467051
C134	C	1.279187	-0.652159	-0.133718
C135	C	1.612520	-0.318825	0.199615
C136	C	1.075698	-0.779101	-0.337333
C137	C	1.409032	-0.445767	-0.003999
C138	C	1.742365	-0.112434	0.329334
C139	C	0.989088	-0.779106	-0.423796
C140	C	1.322421	-0.445773	-0.090463
C141	C	1.655755	-0.112440	0.242870
C142	C	1.216275	-0.453267	-0.387954
C143	C	1.549609	-0.119934	-0.054621
C144	C	1.882942	0.213400	0.278713
C145	C	1.294632	-0.456957	-0.391107
C146	C	1.627965	-0.123624	-0.057774
C147	C	1.961299	0.209709	0.275559
C148	C	1.039818	-0.453186	-0.564429
C149	C	1.373152	-0.119853	-0.231096
C150	C	1.706485	0.213480	0.102237
C151	C	1.042979	-0.456842	-0.642786
C152	C	1.376313	-0.123509	-0.309452
C153	C	1.709646	0.209825	0.023881
C154	C	1.032480	-0.238444	-0.380586
C155	C	1.365813	0.094889	-0.047252
C156	C	1.699147	0.428222	0.286081
C157	C	1.032514	-0.150590	-0.380599
C158	C	1.365847	0.182743	-0.047265
C159	C	1.699180	0.516077	0.286068
C160	C	0.999402	-0.405889	-0.677791
C161	C	1.332736	-0.072556	-0.344457
C162	C	1.666069	0.260778	-0.011124
C163	C	1.002370	-0.409330	-0.751415
C164	C	1.335703	-0.075997	-0.418081
C165	C	1.669036	0.257336	-0.084748
C166	C	1.048919	-0.463722	-0.790032
C167	C	1.382252	-0.130388	-0.456699
C168	C	1.715585	0.202945	-0.123366
C169	C	1.092497	-0.514680	-0.755023
C170	C	1.425831	-0.181347	-0.421689
C171	C	1.759164	0.151986	-0.088356
C172	C	1.089526	-0.511242	-0.681400
C173	C	1.422859	-0.177909	-0.348066
C174	C	1.756193	0.155425	-0.014733
C175	C	1.062635	-0.479656	-1.010415
C176	C	1.395968	-0.146322	-0.677081
C177	C	1.729301	0.187011	-0.343748
C178	C	1.065604	-0.483088	-1.084043
C179	C	1.398938	-0.149755	-0.750709
C180	C	1.732271	0.183578	-0.417376
C181	C	0.975475	-0.377739	-1.080429
C182	C	1.308809	-0.044406	-0.747096
C183	C	1.642142	0.288928	-0.413763
C184	C	0.972511	-0.374303	-1.006806
C185	C	1.305844	-0.040969	-0.673472
C186	C	1.639178	0.292364	-0.340139
C187	C	1.016087	-0.425264	-0.971802
C188	C	1.349421	-0.091931	-0.638469
C189	C	1.682754	0.241403	-0.305135
N190	N	1.051954	-0.467239	-0.865288
N191	N	1.385288	-0.133906	-0.531955
N192	N	1.718621	0.199428	-0.198621
N193	N	1.013047	-0.421750	-0.896548
N194	N	1.346381	-0.088417	-0.563214
N195	N	1.679714	0.244917	-0.229881
C196	C	1.025052	-0.436007	-0.197398
C197	C	1.358385	-0.102674	0.135936
C198	C	1.691718	0.230659	0.469269
C199	C	1.022027	-0.432135	-0.119047
C200	C	1.355361	-0.098802	0.214286
C201	C	1.688694	0.234531	0.547619
H202	H	0.431741	-0.367877	-0.315070
H203	H	0.765074	-0.034544	0.018264
H204	H	1.098407	0.298789	0.351597
Cl205	Cl	1.117422	-0.543716	-0.966420
Cl206	Cl	1.450755	-0.210383	-0.633087
Cl207	Cl	1.784089	0.122950	-0.299753
Cl208	Cl	1.130258	-1.161190	-0.283023
Cl209	Cl	1.463591	-0.827856	0.050310
Cl210	Cl	1.796924	-0.494523	0.383644
H211	H	1.130395	-0.558971	-0.786471
H212	H	1.463728	-0.225637	-0.453138
H213	H	1.797062	0.107696	-0.119804
H214	H	1.103513	-0.527382	-1.115484
H215	H	1.436846	-0.194048	-0.782150
H216	H	1.770180	0.139285	-0.448817
Cl217	Cl	0.455433	-0.583336	-0.498961
Cl218	Cl	0.788767	-0.250002	-0.165628
Cl219	Cl	1.122100	0.083331	0.167705
Cl220	Cl	0.947551	-0.345307	-0.795416
Cl221	Cl	1.280885	-0.011973	-0.462083
Cl222	Cl	1.614218	0.321360	-0.128749
Cl223	Cl	0.934632	-0.727230	-0.478147
Cl224	Cl	1.267965	-0.393897	-0.144814
Cl225	Cl	1.601299	-0.060563	0.188519
Cl226	Cl	0.891367	-0.851049	-0.521384
Cl227	Cl	1.224701	-0.517715	-0.188051
Cl228	Cl	1.558034	-0.184382	0.145283
Cl229	Cl	1.173470	-0.851035	-0.239752
Cl230	Cl	1.506803	-0.517702	0.093581
Cl231	Cl	1.840137	-0.184369	0.426914
Cl232	Cl	1.130109	-0.727208	-0.282968
Cl233	Cl	1.463442	-0.393875	0.050365
Cl234	Cl	1.796775	-0.060542	0.383698
H235	H	0.961501	-0.361593	-0.646353
H236	H	1.294834	-0.028260	-0.313020
H237	H	1.628168	0.305073	0.020314
H238	H	1.125016	-0.552728	-0.652900
H239	H	1.458350	-0.219395	-0.319567
H240	H	1.791683	0.113939	0.013767
Cl241	Cl	0.776259	-0.313728	-0.268846
Cl242	Cl	1.109593	0.019605	0.064488
Cl243	Cl	1.442926	0.352939	0.397821
Cl244	Cl	0.934780	-1.161212	-0.478189
Cl245	Cl	1.268113	-0.827879	-0.144855
Cl246	Cl	1.601446	-0.494545	0.188478
Cl247	Cl	0.784438	-0.551780	-0.472012
Cl248	Cl	1.117771	-0.218446	-0.138679
Cl249	Cl	1.451105	0.114887	0.194655
H250	H	0.633773	-0.521385	-0.446085
H251	H	0.967106	-0.188052	-0.112752
H252	H	1.300440	0.145281	0.220581
H253	H	0.627186	-0.330050	-0.282783
H254	H	0.960519	0.003283	0.050550
H255	H	1.293853	0.336617	0.383883
Cl256	Cl	1.173523	-1.037362	-0.239780
Cl257	Cl	1.506856	-0.704028	0.093553
Cl258	Cl	1.840189	-0.370695	0.426886
H259	H	0.934604	-0.330013	-0.975368
H260	H	1.267937	0.003320	-0.642034
H261	H	1.601271	0.336653	-0.308701
Cl262	Cl	0.891435	-1.037392	-0.521406
Cl263	Cl	1.224768	-0.704058	-0.188072
Cl264	Cl	1.558101	-0.370725	0.145261
H265	H	0.304756	-0.552946	-0.473031
H266	H	0.638089	-0.219612	-0.139698
H267	H	0.971423	0.113721	0.193636
Cl268	Cl	0.281072	-0.337498	-0.289135
Cl269	Cl	0.614405	-0.004165	0.044199
Cl270	Cl	0.947738	0.329169	0.377532
H271	H	0.939997	-0.336250	-1.108937
H272	H	1.273331	-0.002917	-0.775604
H273	H	1.606664	0.330417	-0.442271
