data_functionalizedCrystal
_audit_creation_method	'MofGen! by Chris Wilmer'
_symmetry_space_group_name_H-M	'P1'
_symmetry_Int_Tables_number	1
_symmetry_cell_setting	triclinic
loop_
_symmetry_equiv_pos_as_xyz
  x,y,z
_cell_length_a	14.971482
_cell_length_b	19.188924
_cell_length_c	13.448316
_cell_angle_alpha	90.004751
_cell_angle_beta	90.004360
_cell_angle_gamma	83.377286
loop_
_atom_site_label
_atom_site_type_symbol
_atom_site_fract_x
_atom_site_fract_y
_atom_site_fract_z
O1	O	1.186464	0.090972	0.082684
O2	O	1.686464	0.590972	0.582684
O3	O	0.926006	0.101871	0.082689
O4	O	1.426006	0.601871	0.582689
O5	O	1.063754	-0.005210	0.082674
O6	O	1.563754	0.494790	0.582674
O7	O	1.048715	0.198053	0.082698
O8	O	1.548715	0.698053	0.582698
O9	O	1.063741	-0.005209	-0.082709
O10	O	1.563741	0.494791	0.417291
O11	O	0.925992	0.101872	-0.082695
O12	O	1.425992	0.601872	0.417305
O13	O	1.186451	0.090973	-0.082700
O14	O	1.686451	0.590973	0.417300
Cu15	Cu	1.056220	0.096423	-0.097798
Cu16	Cu	1.556220	0.596423	0.402202
Cu17	Cu	1.056236	0.096421	0.097787
Cu18	Cu	1.556236	0.596421	0.597787
O19	O	1.048702	0.198054	-0.082686
O20	O	1.548702	0.698054	0.417314
C21	C	0.892677	0.101384	-0.000002
C22	C	1.392677	0.601384	0.499998
C23	C	0.793387	0.099925	-0.000001
C24	C	1.293387	0.599925	0.499999
C25	C	0.746739	0.099238	-0.090153
C26	C	1.246739	0.599238	0.409847
C27	C	0.653448	0.097856	-0.090154
C28	C	1.153448	0.597856	0.409846
C29	C	0.606806	0.097166	-0.000002
C30	C	1.106806	0.597166	0.499998
C31	C	0.653461	0.097850	0.090157
C32	C	1.153461	0.597850	0.590157
C33	C	0.746751	0.099228	0.090157
C34	C	1.246751	0.599228	0.590157
C35	C	0.459014	0.094982	0.090150
C36	C	0.959014	0.594982	0.590150
C37	C	0.365717	0.093606	0.090150
C38	C	0.865717	0.593606	0.590150
C39	C	0.365711	0.093610	-0.090161
C40	C	0.865711	0.593610	0.409839
C41	C	0.459001	0.094987	-0.090161
C42	C	0.959001	0.594987	0.409839
C43	C	0.505650	0.095673	-0.000001
C44	C	1.005650	0.595673	0.499999
C45	C	1.063262	-0.031223	-0.000018
C46	C	1.563262	0.468777	0.499982
C47	C	1.061803	-0.108732	-0.000021
C48	C	1.561803	0.391268	0.499979
C49	C	1.061129	-0.145134	0.090130
C50	C	1.561129	0.354866	0.590130
C51	C	1.059746	-0.217961	0.090138
C52	C	1.559746	0.282039	0.590138
C53	C	1.059054	-0.254385	-0.000011
C54	C	1.559054	0.245615	0.499989
C55	C	1.059722	-0.217974	-0.090174
C56	C	1.559722	0.282026	0.409826
C57	C	1.061097	-0.145148	-0.090179
C58	C	1.561097	0.354852	0.409821
N59	N	1.107791	-0.373892	-0.067107
N60	N	1.607791	0.126108	0.432893
N61	N	1.106487	-0.443074	-0.067096
N62	N	1.606487	0.056926	0.432904
C63	C	1.054911	-0.473808	-0.000001
C64	C	1.554911	0.026192	0.499999
N65	N	1.004699	-0.432746	0.067098
N66	N	1.504699	0.067254	0.567098
N67	N	1.006007	-0.363558	0.067090
N68	N	1.506007	0.136442	0.567090
C69	C	1.057563	-0.333354	-0.000016
C70	C	1.557563	0.166646	0.499984
C71	C	1.052736	-0.589177	0.090164
C72	C	1.552736	-0.089177	0.590164
C73	C	1.051347	-0.662005	0.090168
C74	C	1.551347	-0.162005	0.590168
C75	C	1.051332	-0.662018	-0.090146
C76	C	1.551332	-0.162018	0.409854
C77	C	1.052712	-0.589190	-0.090147
C78	C	1.552712	-0.089190	0.409853
C79	C	1.053418	-0.552775	0.000011
C80	C	1.553418	-0.052775	0.500011
C81	C	1.219780	0.091460	-0.000007
C82	C	1.719780	0.591460	0.499993
C83	C	1.319069	0.092919	-0.000002
C84	C	1.819069	0.592919	0.499998
C85	C	1.049195	0.224067	0.000009
C86	C	1.549195	0.724067	0.500009
C87	C	1.050653	0.301576	0.000019
C88	C	1.550653	0.801576	0.500019
N89	N	1.056215	0.096423	-0.235363
N90	N	1.556215	0.596423	0.264637
C91	C	1.002171	0.053999	-0.712614
C92	C	1.502171	0.553999	-0.212614
C93	C	1.002168	0.053997	-0.608511
C94	C	1.502168	0.553997	-0.108511
C95	C	1.056238	0.096415	-0.556444
C96	C	1.556238	0.596415	-0.056444
C97	C	1.110321	0.138834	-0.608485
C98	C	1.610321	0.638834	-0.108485
C99	C	1.110328	0.138832	-0.712587
C100	C	1.610328	0.638832	-0.212587
C101	C	1.110300	0.138836	-0.391505
C102	C	1.610300	0.638836	0.108495
C103	C	1.110292	0.138840	-0.287397
C104	C	1.610292	0.638840	0.212603
C105	C	1.002140	0.054001	-0.287430
C106	C	1.502140	0.554001	0.212570
C107	C	1.002148	0.053999	-0.391531
C108	C	1.502148	0.553999	0.108469
C109	C	1.056230	0.096419	-0.443565
C110	C	1.556230	0.596419	0.056435
N111	N	1.056248	0.096415	0.235351
N112	N	1.556248	0.596415	0.735351
H113	H	0.615479	0.097283	0.163560
H114	H	1.115479	0.597283	0.663560
H115	H	1.059156	-0.247636	-0.163573
H116	H	1.559156	0.252364	0.336427
C117	C	0.314396	0.092851	-0.189337
C118	C	0.814396	0.592851	0.310663
N119	N	0.275742	0.092280	-0.264034
N120	N	0.775742	0.592280	0.235966
H121	H	0.496993	0.095540	0.163567
H122	H	0.996993	0.595540	0.663567
H123	H	0.958136	0.019455	-0.566149
H124	H	1.458136	0.519455	-0.066149
C125	C	1.061843	-0.105105	-0.189356
C126	C	1.561843	0.394895	0.310644
N127	N	1.062408	-0.074945	-0.264058
N128	N	1.562408	0.425055	0.235942
H129	H	1.053268	-0.559553	-0.163558
H130	H	1.553268	-0.059553	0.336442
H131	H	0.784731	0.099788	0.163568
H132	H	1.284731	0.599788	0.663568
C133	C	0.602136	0.097117	-0.189328
C134	C	1.102136	0.597117	0.310672
N135	N	0.563488	0.096565	-0.264031
N136	N	1.063488	0.596565	0.235969
C137	C	0.942579	0.007395	-0.230190
C138	C	1.442579	0.507395	0.269810
N139	N	0.897690	-0.027686	-0.187073
N140	N	1.397690	0.472314	0.312927
C141	C	1.050571	-0.702081	-0.189311
C142	C	1.550571	-0.202081	0.310689
N143	N	1.049997	-0.732259	-0.264005
N144	N	1.549997	-0.232259	0.235995
H145	H	1.050794	-0.691641	0.163583
H146	H	1.550794	-0.191641	0.663583
H147	H	1.061701	-0.115488	0.163544
H148	H	1.561701	0.384512	0.663544
H149	H	1.154318	0.173383	-0.245007
H150	H	1.654318	0.673383	0.254993
H151	H	0.958136	0.019460	-0.755000
H152	H	1.458136	0.519460	-0.255000
C153	C	1.169806	0.185489	-0.551208
C154	C	1.669806	0.685489	-0.051208
N155	N	1.214611	0.220631	-0.508067
N156	N	1.714611	0.720631	-0.008067
H157	H	1.154342	0.173377	-0.433869
H158	H	1.654342	0.673377	0.066131
H159	H	1.154364	0.173371	-0.754952
H160	H	1.654364	0.673371	-0.254952
C161	C	1.059000	-0.258010	0.189315
C162	C	1.559000	0.241990	0.689315
N163	N	1.058436	-0.288173	0.264015
N164	N	1.558436	0.211827	0.764015
C165	C	0.314414	0.092843	0.189321
C166	C	0.814414	0.592843	0.689321
N167	N	0.275772	0.092268	0.264019
N168	N	0.775772	0.592268	0.764019
C169	C	1.053499	-0.549116	0.189338
C170	C	1.553499	-0.049116	0.689338
N171	N	1.054071	-0.518943	0.264038
N172	N	1.554071	-0.018943	0.764038
H173	H	0.784707	0.099806	-0.163565
H174	H	1.284707	0.599806	0.336435
H175	H	0.496974	0.095554	-0.163570
H176	H	0.996974	0.595554	0.336430
C177	C	0.942662	0.007341	-0.448803
C178	C	1.442662	0.507341	0.051197
N179	N	0.897858	-0.027803	-0.491940
N180	N	1.397858	0.472197	0.008060
