data_functionalizedCrystal
_audit_creation_method	'MofGen! by Chris Wilmer'
_symmetry_space_group_name_H-M	'P1'
_symmetry_Int_Tables_number	1
_symmetry_cell_setting	triclinic
loop_
_symmetry_equiv_pos_as_xyz
  x,y,z
_cell_length_a	16.109301
_cell_length_b	16.109302
_cell_length_c	15.186229
_cell_angle_alpha	89.990142
_cell_angle_beta	89.986602
_cell_angle_gamma	83.461631
loop_
_atom_site_label
_atom_site_type_symbol
_atom_site_fract_x
_atom_site_fract_y
_atom_site_fract_z
O1	O	0.106878	1.103135	-0.073271
O2	O	0.440212	1.436468	0.260062
O3	O	0.773545	1.769801	0.593396
O4	O	0.120177	0.861073	-0.073264
O5	O	0.453510	1.194406	0.260069
O6	O	0.786844	1.527739	0.593402
O7	O	-0.007503	0.988753	-0.073259
O8	O	0.325830	1.322087	0.260074
O9	O	0.659163	1.655420	0.593408
O10	O	0.234559	0.975454	-0.073276
O11	O	0.567892	1.308787	0.260057
O12	O	0.901225	1.642121	0.593390
O13	O	-0.007524	0.988736	0.073198
O14	O	0.325809	1.322069	0.406532
O15	O	0.659143	1.655403	0.739865
O16	O	0.120156	0.861055	0.073193
O17	O	0.453490	1.194389	0.406526
O18	O	0.786823	1.527722	0.739860
O19	O	0.106858	1.103117	0.073186
O20	O	0.440191	1.436451	0.406520
O21	O	0.773524	1.769784	0.739853
Zn22	Zn	0.113504	0.982084	0.096443
Zn23	Zn	0.446837	1.315417	0.429776
Zn24	Zn	0.780170	1.648750	0.763110
Zn25	Zn	0.113531	0.982106	-0.096521
Zn26	Zn	0.446864	1.315440	0.236812
Zn27	Zn	0.780198	1.648773	0.570146
O28	O	0.234538	0.975437	0.073181
O29	O	0.567871	1.308770	0.406514
O30	O	0.901205	1.642103	0.739848
C31	C	0.119628	0.830089	-0.000035
C32	C	0.452961	1.163423	0.333299
C33	C	0.786295	1.496756	0.666632
C34	C	0.118013	0.737794	-0.000032
C35	C	0.451346	1.071127	0.333301
C36	C	0.784679	1.404461	0.666635
C37	C	0.114266	0.525444	0.079793
C38	C	0.447600	0.858777	0.413127
C39	C	0.780933	1.192110	0.746460
C40	C	0.112739	0.438724	0.079790
C41	C	0.446073	0.772057	0.413124
C42	C	0.779406	1.105390	0.746457
C43	C	0.112766	0.438753	-0.079885
C44	C	0.446100	0.772086	0.253448
C45	C	0.779433	1.105420	0.586781
C46	C	0.114287	0.525472	-0.079881
C47	C	0.447620	0.858805	0.253452
C48	C	0.780954	1.192139	0.586785
C49	C	0.115041	0.568815	-0.000039
C50	C	0.448374	0.902148	0.333294
C51	C	0.781708	1.235481	0.666627
C52	C	0.111994	0.395375	-0.000046
C53	C	0.445327	0.728709	0.333287
C54	C	0.778660	1.062042	0.666620
C55	C	0.110338	0.301350	-0.000050
C56	C	0.443672	0.634683	0.333283
C57	C	0.777005	0.968016	0.666617
C58	C	0.116695	0.662847	-0.000035
C59	C	0.450028	0.996180	0.333298
C60	C	0.783362	1.329513	0.666631
C61	C	-0.038488	0.988206	-0.000030
C62	C	0.294845	1.321539	0.333304
C63	C	0.628178	1.654873	0.666637
C64	C	-0.130784	0.986591	-0.000028
C65	C	0.202550	1.319924	0.333305
C66	C	0.535883	1.653258	0.666638
C67	C	-0.353056	1.058599	-0.000044
C68	C	-0.019723	1.391932	0.333289
C69	C	0.313611	1.725265	0.666622
C70	C	-0.439776	1.057074	-0.000052
C71	C	-0.106443	1.390408	0.333282
C72	C	0.226890	1.723741	0.666615
C73	C	-0.419902	0.905586	-0.000044
C74	C	-0.086569	1.238919	0.333289
C75	C	0.246764	1.572252	0.666623
C76	C	-0.333184	0.907111	-0.000043
C77	C	0.000150	1.240444	0.333290
C78	C	0.333483	1.573777	0.666624
C79	C	-0.299763	0.983620	-0.000039
C80	C	0.033570	1.316953	0.333295
C81	C	0.366904	1.650286	0.666628
C82	C	-0.473202	0.980571	-0.000047
C83	C	-0.139869	1.313904	0.333286
C84	C	0.193465	1.647237	0.666620
C85	C	-0.567228	0.978918	-0.000055
C86	C	-0.233895	1.312251	0.333279
C87	C	0.099438	1.645584	0.666612
C88	C	-0.205731	0.985273	-0.000033
C89	C	0.127602	1.318606	0.333301
C90	C	0.460936	1.651940	0.666634
C91	C	0.265523	0.975984	-0.000050
C92	C	0.598857	1.309317	0.333283
C93	C	0.932190	1.642651	0.666616
C94	C	0.357819	0.977599	-0.000057
C95	C	0.691152	1.310933	0.333276
C96	C	1.024485	1.644266	0.666609
C97	C	0.107407	1.134101	-0.000045
C98	C	0.440740	1.467434	0.333288
C99	C	0.774074	1.800768	0.666622
C100	C	0.109022	1.226396	-0.000054
C101	C	0.442356	1.559729	0.333280
C102	C	0.775689	1.893063	0.666613
N103	N	0.113485	0.982074	0.228136
N104	N	0.446818	1.315407	0.561469
N105	N	0.780151	1.648741	0.894802
N106	N	0.113543	0.982123	-0.228214
N107	N	0.446877	1.315456	0.105120
N108	N	0.780210	1.648789	0.438453
C109	C	0.063082	0.931693	0.546093
C110	C	0.396415	1.265026	0.879426
C111	C	0.729748	1.598360	1.212760
C112	C	0.063070	0.931686	0.453903
C113	C	0.396403	1.265019	0.787237
C114	C	0.729736	1.598353	1.120570
C115	C	0.163949	1.032509	0.453835
C116	C	0.497282	1.365843	0.787169
C117	C	0.830615	1.699176	1.120502
C118	C	0.163956	1.032520	0.546023
C119	C	0.497289	1.365854	0.879357
C120	C	0.830622	1.699187	1.212690
C121	C	0.113524	0.982107	0.592150
C122	C	0.446857	1.315441	0.925483
C123	C	0.780190	1.648774	1.258816
C124	C	0.113505	0.982089	0.407772
C125	C	0.446838	1.315423	0.741106
C126	C	0.780171	1.648756	1.074439
C127	C	0.113492	0.982082	0.307816
C128	C	0.446825	1.315415	0.641149
C129	C	0.780159	1.648749	0.974483
C130	C	0.113535	0.982116	0.692112
C131	C	0.446868	1.315449	1.025446
C132	C	0.780202	1.648782	1.358779
H133	H	0.112153	0.403453	-0.144890
H134	H	0.445486	0.736786	0.188444
H135	H	0.778820	1.070119	0.521777
C136	C	0.219447	1.087976	0.596689
C137	C	0.552780	1.421309	0.930023
C138	C	0.886113	1.754643	1.263356
H139	H	0.249490	1.117989	0.556016
H140	H	0.582824	1.451323	0.889350
H141	H	0.916157	1.784656	1.222683
H142	H	0.185389	1.126249	0.632652
H143	H	0.518722	1.459583	0.965986
H144	H	0.852056	1.792916	1.299319
H145	H	0.257707	1.053894	0.632648
H146	H	0.591040	1.387228	0.965982
H147	H	0.924373	1.720561	1.299315
C148	C	-0.274558	0.824630	-0.000034
C149	C	0.058776	1.157963	0.333299
C150	C	0.392109	1.491296	0.666632
H151	H	-0.306880	0.778846	-0.000024
H152	H	0.026453	1.112179	0.333309
H153	H	0.359786	1.445512	0.666642
H154	H	-0.240304	0.822081	-0.051106
H155	H	0.093030	1.155415	0.282227
H156	H	0.426363	1.488748	0.615560
H157	H	-0.240328	0.822075	0.051046
H158	H	0.093005	1.155408	0.384379
H159	H	0.426338	1.488742	0.717713
H160	H	0.022016	0.890644	0.583646
H161	H	0.355350	1.223978	0.916980
H162	H	0.688683	1.557311	1.250313
C163	C	-0.316295	1.142754	-0.000050
C164	C	0.017038	1.476087	0.333284
C165	C	0.350371	1.809421	0.666617
H166	H	-0.360458	1.187190	-0.000062
H167	H	-0.027125	1.520523	0.333271
H168	H	0.306209	1.853856	0.666605
H169	H	-0.282890	1.146497	0.051023
H170	H	0.050443	1.479831	0.384356
H171	H	0.383776	1.813164	0.717689
H172	H	-0.282869	1.146500	-0.051130
H173	H	0.050464	1.479833	0.282204
H174	H	0.383797	1.813166	0.615537
C175	C	0.007588	0.876226	0.403245
C176	C	0.340921	1.209560	0.736578
C177	C	0.674254	1.542893	1.069911
H178	H	-0.022440	0.846202	0.443922
H179	H	0.310894	1.179535	0.777255
H180	H	0.644227	1.512868	1.110589
H181	H	-0.030673	0.910297	0.367285
H182	H	0.302660	1.243630	0.700618
H183	H	0.635994	1.576964	1.033951
H184	H	0.041653	0.837950	0.367283
H185	H	0.374986	1.171283	0.700616
H186	H	0.708319	1.504617	1.033950
C187	C	0.219428	1.087950	0.403094
C188	C	0.552761	1.421283	0.736427
C189	C	0.886094	1.754617	1.069760
H190	H	0.212207	1.080717	0.341593
H191	H	0.545540	1.414050	0.674926
H192	H	0.878874	1.747384	1.008260
H193	H	0.203999	1.144840	0.418186
H194	H	0.537333	1.478173	0.751519
H195	H	0.870666	1.811507	1.084853
H196	H	0.276314	1.072481	0.418190
H197	H	0.609647	1.405815	0.751523
H198	H	0.942980	1.739148	1.084857
C199	C	0.115144	0.573187	-0.167700
C200	C	0.448477	0.906520	0.165634
C201	C	0.781810	1.239854	0.498967
H202	H	0.116149	0.631042	-0.156260
H203	H	0.449483	0.964375	0.177073
H204	H	0.782816	1.297709	0.510406
H205	H	0.163355	0.552629	-0.200506
H206	H	0.496688	0.885962	0.132827
H207	H	0.830021	1.219295	0.466161
H208	H	0.066440	0.565338	-0.200502
H209	H	0.399773	0.898672	0.132831
H210	H	0.733107	1.232005	0.466165
C211	C	0.115071	0.573121	0.167615
C212	C	0.448405	0.906454	0.500949
C213	C	0.781738	1.239788	0.834282
H214	H	0.114379	0.534869	0.215160
H215	H	0.447712	0.868202	0.548493
H216	H	0.781046	1.201536	0.881826
H217	H	0.164113	0.600602	0.170949
H218	H	0.497446	0.933936	0.504282
H219	H	0.830780	1.267269	0.837615
H220	H	0.067198	0.613298	0.170925
H221	H	0.400532	0.946632	0.504258
H222	H	0.733865	1.279965	0.837591
H223	H	0.112109	0.403415	0.144798
H224	H	0.445442	0.736748	0.478132
H225	H	0.778775	1.070081	0.811465
H226	H	-0.447124	0.843295	-0.000046
H227	H	-0.113791	1.176628	0.333288
H228	H	0.219542	1.509962	0.666621
C229	C	-0.498395	1.139551	-0.000052
C230	C	-0.165062	1.472885	0.333281
C231	C	0.168272	1.806218	0.666615
H232	H	-0.466068	1.185332	-0.000043
H233	H	-0.132735	1.518665	0.333290
H234	H	0.200599	1.851999	0.666624
H235	H	-0.532626	1.142115	-0.051126
H236	H	-0.199293	1.475448	0.282208
H237	H	0.134041	1.808781	0.615541
H238	H	-0.532648	1.142098	0.051027
H239	H	-0.199314	1.475431	0.384360
H240	H	0.134019	1.808764	0.717693
