data_functionalizedCrystal
_audit_creation_method	'MofGen! by Chris Wilmer'
_symmetry_space_group_name_H-M	'P1'
_symmetry_Int_Tables_number	1
_symmetry_cell_setting	triclinic
loop_
_symmetry_equiv_pos_as_xyz
  x,y,z
_cell_length_a	21.295418
_cell_length_b	29.839131
_cell_length_c	21.295411
_cell_angle_alpha	89.964907
_cell_angle_beta	89.964378
_cell_angle_gamma	90.051038
loop_
_atom_site_label
_atom_site_type_symbol
_atom_site_fract_x
_atom_site_fract_y
_atom_site_fract_z
Zn1	Zn	0.962285	-0.178684	-0.356206
Zn2	Zn	0.962193	-0.253808	-0.250919
Zn3	Zn	0.857023	-0.178714	-0.250916
Zn4	Zn	0.856969	-0.253808	-0.356116
O5	O	0.909617	-0.216253	-0.303539
O6	O	1.050362	-0.188636	-0.342278
O7	O	0.948227	-0.243860	-0.162829
O8	O	0.871047	-0.115843	-0.264918
O9	O	1.050295	-0.243830	-0.264925
O10	O	0.948382	-0.115820	-0.342275
O11	O	0.870958	-0.188688	-0.162827
O12	O	0.768926	-0.188688	-0.264831
O13	O	0.870955	-0.243830	-0.444217
O14	O	0.768886	-0.243859	-0.342122
O15	O	0.948330	-0.188636	-0.444283
O16	O	0.948174	-0.316675	-0.264838
O17	O	0.870866	-0.316675	-0.342125
C18	C	0.746066	-0.216277	-0.303467
C19	C	0.676098	-0.216298	-0.303451
C20	C	0.643227	-0.245064	-0.343635
C21	C	0.577484	-0.245053	-0.343664
C22	C	0.544615	-0.216281	-0.303496
C23	C	0.577494	-0.187509	-0.263308
C24	C	0.643235	-0.187518	-0.263286
N25	N	0.441347	-0.212769	-0.248439
N26	N	0.378896	-0.212763	-0.248462
C27	C	0.346540	-0.216252	-0.303563
N28	N	0.378996	-0.219755	-0.358640
N29	N	0.441453	-0.219763	-0.358616
C30	C	0.473330	-0.216268	-0.303516
C31	C	0.242384	-0.245007	-0.343782
C32	C	0.176640	-0.244993	-0.343811
C33	C	0.176651	-0.187452	-0.263450
C34	C	0.242394	-0.187464	-0.263426
C35	C	0.275256	-0.216244	-0.303591
C36	C	0.909521	-0.332976	-0.303486
C37	C	0.909538	-0.382910	-0.303484
C38	C	0.949877	-0.692507	-0.343876
C39	C	0.949945	-0.880180	-0.343914
O40	O	0.984149	-0.904406	-0.378217
N41	N	0.909724	-0.903695	-0.303609
C42	C	0.869480	-0.880289	-0.263295
O43	O	0.835267	-0.904597	-0.229019
C44	C	0.869409	-0.692617	-0.263261
C45	C	0.909638	-0.669105	-0.303564
C46	C	0.990102	-0.668995	-0.384176
C47	C	0.990087	-0.622079	-0.384164
C48	C	0.949847	-0.598676	-0.343851
C49	C	0.909622	-0.622189	-0.303551
C50	C	0.829162	-0.669212	-0.222950
C51	C	0.829147	-0.622291	-0.222946
C52	C	0.869375	-0.598778	-0.263249
C53	C	0.869368	-0.551871	-0.263227
N54	N	0.909589	-0.528356	-0.303531
C55	C	0.949829	-0.551759	-0.343844
C56	C	0.869521	-0.978820	-0.263315
C57	C	0.869540	-1.025738	-0.263322
C58	C	0.950004	-1.025626	-0.343942
C59	C	0.949989	-0.978707	-0.343931
C60	C	0.909742	-0.955305	-0.303620
C61	C	0.949794	-0.453233	-0.343814
C62	C	0.949778	-0.406313	-0.343797
C63	C	0.869311	-0.406430	-0.263180
C64	C	0.869330	-0.453345	-0.263195
C65	C	0.909574	-0.476746	-0.303517
O66	O	0.835177	-0.527617	-0.228947
O67	O	0.984027	-0.527443	-0.378125
C68	C	0.949892	-0.739423	-0.343888
C69	C	0.909668	-0.762935	-0.303588
C70	C	0.869428	-0.739533	-0.263276
C71	C	0.909686	-0.809853	-0.303596
C72	C	0.949926	-0.833256	-0.343908
C73	C	0.990147	-0.809741	-0.384213
C74	C	0.990132	-0.762825	-0.384201
C75	C	0.829207	-0.763048	-0.222971
C76	C	0.829226	-0.809963	-0.222986
C77	C	0.869465	-0.833366	-0.263298
C78	C	1.073808	-0.216230	-0.303612
C79	C	1.143776	-0.216220	-0.303643
C80	C	0.909646	-0.216229	-0.467729
C81	C	0.909659	-0.216219	-0.537698
C82	C	0.909731	-0.099075	-0.303606
C83	C	0.909779	-0.049141	-0.303635
C84	C	0.949963	-0.244854	-1.037158
C85	C	0.949951	-0.244868	-0.971415
C86	C	0.909718	-0.216149	-0.938537
C87	C	0.869482	-0.187422	-0.971407
C88	C	0.869490	-0.187411	-1.037149
N89	N	0.904915	-0.176841	-0.835337
N90	N	0.904911	-0.176853	-0.772885
C91	C	0.909691	-0.216179	-0.740462
N92	N	0.914487	-0.255496	-0.772851
N93	N	0.914494	-0.255484	-0.835308
C94	C	0.909705	-0.216158	-0.867252
C95	C	0.949909	-0.244923	-0.636315
C96	C	0.949893	-0.244938	-0.570571
C97	C	0.869427	-0.187488	-0.570564
C98	C	0.869440	-0.187476	-0.636307
C99	C	0.909684	-0.216194	-0.669178
C100	C	0.909625	-0.216245	-0.139988
C101	C	0.909734	-0.216128	-0.070020
H102	H	0.550728	-0.164082	-0.230604
O103	O	0.989141	-0.272730	-1.069013
C104	C	1.051885	-0.262892	-1.052992
H105	H	1.053193	-0.245625	-1.005272
H106	H	1.080085	-0.295309	-1.050729
H107	H	1.073116	-0.239788	-1.090017
O108	O	0.274357	-0.159477	-0.224474
C109	C	0.312476	-0.130508	-0.260378
H110	H	0.292717	-0.127776	-0.309971
H111	H	0.313255	-0.095913	-0.237704
H112	H	0.362281	-0.144408	-0.262492
O113	O	0.144828	-0.159460	-0.224410
C114	C	0.187942	-0.134081	-0.188922
H115	H	0.234833	-0.132558	-0.214692
H116	H	0.168996	-0.098676	-0.182311
H117	H	0.194861	-0.150488	-0.141065
O118	O	0.830382	-0.159614	-0.668330
C119	C	0.839025	-0.165757	-0.733404
H120	H	0.859617	-0.200420	-0.742372
H121	H	0.791877	-0.162719	-0.758366
H122	H	0.872567	-0.139098	-0.752095
H123	H	0.982648	-0.268334	-0.543816
H124	H	0.269142	-0.268439	-0.376490
H125	H	0.836667	-0.164105	-0.543796
H126	H	0.982719	-0.268255	-0.944654
O127	O	0.830370	-0.159586	-0.939403
C128	C	0.789676	-0.185178	-0.901351
H129	H	0.811847	-0.219221	-0.891495
H130	H	0.781252	-0.166887	-0.855127
H131	H	0.743024	-0.190119	-0.926659
H132	H	0.796468	-0.829103	-0.190161
H133	H	0.796372	-0.603240	-0.190120
O134	O	0.988994	-0.955888	-0.383175
C135	C	0.975209	-0.967345	-0.445896
H136	H	0.924922	-0.980283	-0.449009
H137	H	0.980599	-0.936472	-0.477002
H138	H	1.008957	-0.994544	-0.462394
O139	O	0.675051	-0.273031	-0.382714
C140	C	0.631935	-0.298427	-0.418177
H141	H	0.585102	-0.280021	-0.420422
H142	H	0.650968	-0.303270	-0.467755
H143	H	0.624870	-0.332523	-0.395032
O144	O	0.675072	-0.159562	-0.224185
C145	C	0.631967	-0.134153	-0.188750
H146	H	0.585073	-0.152544	-0.186538
H147	H	0.650920	-0.129317	-0.139159
H148	H	0.625054	-0.100054	-0.211898
O149	O	1.029226	-0.599221	-0.423229
C150	C	1.069892	-0.572057	-0.387447
H151	H	1.073822	-0.586215	-0.337874
H152	H	1.118319	-0.571477	-0.410281
H153	H	1.050420	-0.536515	-0.385251
O154	O	0.545513	-0.272933	-0.382765
C155	C	0.507550	-0.247391	-0.423495
H156	H	0.527422	-0.212016	-0.427482
H157	H	0.506818	-0.263690	-0.471892
H158	H	0.457712	-0.245814	-0.404047
H159	H	0.149878	-0.268417	-0.376538
O160	O	0.830133	-0.383740	-0.224057
C161	C	0.767390	-0.395238	-0.237758
H162	H	0.766082	-0.429294	-0.261953
H163	H	0.739184	-0.396883	-0.192297
H164	H	0.746167	-0.368835	-0.270101
H165	H	0.982539	-0.387171	-0.376616
O166	O	0.830393	-0.159462	-1.068977
C167	C	0.794864	-0.134125	-1.025864
H168	H	0.820641	-0.132573	-0.979013
H169	H	0.788184	-0.098727	-1.044874
H170	H	0.747040	-0.150587	-1.018843
H171	H	0.796438	-0.743997	-0.190144
H172	H	0.982560	-0.472280	-0.376653
H173	H	1.022914	-0.828804	-0.417034
O174	O	1.029255	-0.691654	-0.423357
C175	C	1.064736	-0.660831	-0.458932
H176	H	1.066907	-0.627400	-0.433139
H177	H	1.114339	-0.674335	-0.465709
H178	H	1.041655	-0.655835	-0.506712
O179	O	0.989059	-0.272757	-0.668280
C180	C	1.029737	-0.247169	-0.706352
H181	H	1.033660	-0.211789	-0.686560
H182	H	1.078165	-0.263412	-0.707115
H183	H	1.010281	-0.245614	-0.756167
H184	H	0.982770	-1.044688	-0.376766
H185	H	0.836788	-1.044878	-0.230497
O186	O	0.830408	-0.956160	-0.224089
C187	C	0.794907	-0.986982	-0.188532
H188	H	0.820711	-1.020404	-0.186400
H189	H	0.788222	-0.973463	-0.138920
H190	H	0.747084	-0.992000	-0.211520
H191	H	0.796404	-0.688348	-0.190131
H192	H	0.836577	-0.472490	-0.230372
O193	O	1.029227	-0.740058	-0.423414
C194	C	1.064752	-0.770783	-0.458981
H195	H	1.038974	-0.804245	-0.461128
H196	H	1.071432	-0.757200	-0.508587
H197	H	1.112578	-0.775747	-0.435991
