data_functionalizedCrystal
_audit_creation_method	'MofGen! by Chris Wilmer'
_symmetry_space_group_name_H-M	'P1'
_symmetry_Int_Tables_number	1
_symmetry_cell_setting	triclinic
loop_
_symmetry_equiv_pos_as_xyz
  x,y,z
_cell_length_a	27.731993
_cell_length_b	27.732048
_cell_length_c	18.366186
_cell_angle_alpha	89.988789
_cell_angle_beta	90.002487
_cell_angle_gamma	82.631525
loop_
_atom_site_label
_atom_site_type_symbol
_atom_site_fract_x
_atom_site_fract_y
_atom_site_fract_z
O1	O	0.640948	0.057392	-0.060362
O2	O	0.974281	0.390725	0.272972
O3	O	1.307614	0.724059	0.606305
O4	O	0.500150	0.066165	-0.060407
O5	O	0.833484	0.399498	0.272926
O6	O	1.166817	0.732832	0.606260
O7	O	0.574922	-0.008619	-0.060369
O8	O	0.908255	0.324714	0.272964
O9	O	1.241588	0.658048	0.606298
O10	O	0.566176	0.132176	-0.060400
O11	O	0.899509	0.465510	0.272934
O12	O	1.232843	0.798843	0.606267
O13	O	0.574909	-0.008623	0.060730
O14	O	0.908243	0.324711	0.394064
O15	O	1.241576	0.658044	0.727397
O16	O	0.500138	0.066162	0.060692
O17	O	0.833471	0.399495	0.394026
O18	O	1.166804	0.732828	0.727359
O19	O	0.640935	0.057389	0.060738
O20	O	0.974268	0.390722	0.394071
O21	O	1.307602	0.724055	0.727405
Zn22	Zn	0.570534	0.061774	0.079942
Zn23	Zn	0.903868	0.395108	0.413276
Zn24	Zn	1.237201	0.728441	0.746609
Zn25	Zn	0.570551	0.061779	-0.079611
Zn26	Zn	0.903884	0.395113	0.253722
Zn27	Zn	1.237218	0.728446	0.587055
O28	O	0.566163	0.132173	0.060700
O29	O	0.899497	0.465506	0.394033
O30	O	1.232830	0.798839	0.727366
C31	C	0.482137	0.065983	0.000137
C32	C	0.815470	0.399317	0.333470
C33	C	1.148803	0.732650	0.666804
C34	C	0.428480	0.065441	0.000120
C35	C	0.761814	0.398774	0.333454
C36	C	1.095147	0.732108	0.666787
C37	C	0.574732	-0.026628	0.000183
C38	C	0.908065	0.306706	0.333516
C39	C	1.241399	0.640039	0.666849
C40	C	0.574179	-0.080282	0.000188
C41	C	0.907512	0.253051	0.333522
C42	C	1.240846	0.586384	0.666855
C43	C	0.045327	0.061512	-0.065855
C44	C	0.378660	0.394846	0.267478
C45	C	0.711994	0.728179	0.600812
C46	C	0.246984	0.063579	-0.065875
C47	C	0.580318	0.396913	0.267458
C48	C	0.913651	0.730246	0.600792
O49	O	0.273063	0.063829	-0.122016
O50	O	0.606397	0.397162	0.211317
O51	O	0.939730	0.730496	0.544650
N52	N	0.272198	0.063836	0.000135
N53	N	0.605531	0.397169	0.333468
N54	N	0.938864	0.730503	0.666801
C55	C	0.246994	0.063573	0.066154
C56	C	0.580328	0.396906	0.399487
C57	C	0.913661	0.730239	0.732821
O58	O	0.273068	0.063833	0.122299
O59	O	0.606401	0.397167	0.455632
O60	O	0.939734	0.730500	0.788966
C61	C	0.045338	0.061502	0.066174
C62	C	0.378672	0.394836	0.399507
C63	C	0.712005	0.728169	0.732840
C64	C	0.020127	0.061251	0.000160
C65	C	0.353460	0.394584	0.333493
C66	C	0.686793	0.727917	0.666826
C67	C	0.020116	0.061260	-0.131864
C68	C	0.353449	0.394593	0.201470
C69	C	0.686782	0.727927	0.534803
C70	C	-0.030296	0.060746	-0.131858
C71	C	0.303037	0.394079	0.201476
C72	C	0.636371	0.727413	0.534809
C73	C	-0.055496	0.060484	-0.065843
C74	C	0.277837	0.393818	0.267490
C75	C	0.611170	0.727151	0.600823
C76	C	-0.030285	0.060736	0.000165
C77	C	0.303048	0.394070	0.333499
C78	C	0.636382	0.727403	0.666832
C79	C	0.020136	0.061235	0.132192
C80	C	0.353469	0.394569	0.465526
C81	C	0.686803	0.727902	0.798859
C82	C	-0.030281	0.060717	0.132191
C83	C	0.303052	0.394050	0.465525
C84	C	0.636386	0.727383	0.798858
C85	C	-0.055492	0.060465	0.066177
C86	C	0.277841	0.393798	0.399511
C87	C	0.611174	0.727132	0.732844
C88	C	-0.105897	0.059961	0.066185
C89	C	0.227436	0.393294	0.399519
C90	C	0.560770	0.726627	0.732852
N91	N	-0.131110	0.059704	0.000176
N92	N	0.202223	0.393037	0.333509
N93	N	0.535556	0.726371	0.666842
C94	C	-0.105910	0.059966	-0.065839
C95	C	0.227423	0.393299	0.267495
C96	C	0.560757	0.726632	0.600828
C97	C	0.352866	0.064661	0.066139
C98	C	0.686200	0.397994	0.399473
C99	C	1.019533	0.731327	0.732806
C100	C	0.403280	0.065179	0.066135
C101	C	0.736613	0.398513	0.399468
C102	C	1.069947	0.731846	0.732801
C103	C	0.403267	0.065185	-0.065895
C104	C	0.736600	0.398518	0.267438
C105	C	1.069934	0.731852	0.600772
C106	C	0.352852	0.064670	-0.065889
C107	C	0.686185	0.398003	0.267444
C108	C	1.019518	0.731337	0.600777
C109	C	0.327653	0.064404	0.000130
C110	C	0.660986	0.397737	0.333463
C111	C	0.994320	0.731071	0.666796
C112	C	-0.211778	0.058887	-0.065822
C113	C	0.121555	0.392220	0.267512
C114	C	0.454888	0.725553	0.600845
C115	C	-0.262195	0.058374	-0.065810
C116	C	0.071139	0.391708	0.267523
C117	C	0.404472	0.725041	0.600856
C118	C	-0.262177	0.058366	0.066219
C119	C	0.071157	0.391700	0.399552
C120	C	0.404490	0.725033	0.732885
C121	C	-0.211765	0.058881	0.066208
C122	C	0.121568	0.392214	0.399541
C123	C	0.454902	0.725548	0.732874
C124	C	-0.186567	0.059139	0.000181
C125	C	0.146766	0.392473	0.333515
C126	C	0.480100	0.725806	0.666848
O127	O	-0.132006	0.059705	0.122297
O128	O	0.201327	0.393039	0.455631
O129	O	0.534660	0.726372	0.788964
O130	O	-0.131991	0.059694	-0.121975
O131	O	0.201343	0.393027	0.211358
O132	O	0.534676	0.726361	0.544691
C133	C	0.095739	0.062026	-0.065861
C134	C	0.429072	0.395360	0.267473
C135	C	0.762405	0.728693	0.600806
C136	C	0.120950	0.062279	0.000148
C137	C	0.454283	0.395612	0.333481
C138	C	0.787617	0.728945	0.666815
C139	C	0.095750	0.062017	0.066162
C140	C	0.429083	0.395350	0.399496
C141	C	0.762417	0.728684	0.732829
C142	C	0.171364	0.062797	0.000143
C143	C	0.504697	0.396131	0.333477
C144	C	0.838030	0.729464	0.666810
C145	C	0.196564	0.063059	-0.065871
C146	C	0.529897	0.396392	0.267462
C147	C	0.863231	0.729726	0.600796
C148	C	0.171351	0.062802	-0.131881
C149	C	0.504684	0.396136	0.201453
C150	C	0.838017	0.729469	0.534786
C151	C	0.120939	0.062288	-0.131875
C152	C	0.454272	0.395622	0.201458
C153	C	0.787606	0.728955	0.534792
C154	C	0.120963	0.062274	0.132172
C155	C	0.454297	0.395607	0.465506
C156	C	0.787630	0.728940	0.798839
C157	C	0.171375	0.062788	0.132161
C158	C	0.504708	0.396122	0.465494
C159	C	0.838042	0.729455	0.798828
C160	C	0.196575	0.063050	0.066147
C161	C	0.529909	0.396383	0.399480
C162	C	0.863242	0.729717	0.732813
C163	C	0.614884	-0.419105	0.000164
C164	C	0.948217	-0.085772	0.333498
C165	C	1.281551	0.247561	0.666831
C166	C	0.612833	-0.620765	0.000153
C167	C	0.946166	-0.287431	0.333487
C168	C	1.279500	0.045902	0.666820
O169	O	0.650055	-0.652028	0.000134
O170	O	0.983388	-0.318694	0.333467
O171	O	1.316721	0.014639	0.666800
N172	N	0.568497	-0.639880	0.000140
N173	N	0.901830	-0.306546	0.333473
N174	N	1.235163	0.026787	0.666806
C175	C	0.524670	-0.608576	0.000124
C176	C	0.858003	-0.275243	0.333457
C177	C	1.191336	0.058090	0.666791
O178	O	0.486912	-0.629462	0.000105
O179	O	0.820245	-0.296129	0.333438
O180	O	1.153579	0.037204	0.666771
C181	C	0.526721	-0.406918	0.000130
C182	C	0.860055	-0.073585	0.333463
C183	C	1.193388	0.259748	0.666796
C184	C	0.571061	-0.387806	0.000151
C185	C	0.904394	-0.054473	0.333484
C186	C	1.237727	0.278860	0.666817
C187	C	0.659220	-0.399993	0.000184
C188	C	0.992553	-0.066660	0.333518
C189	C	1.325886	0.266674	0.666851
C190	C	0.659732	-0.349581	0.000191
C191	C	0.993065	-0.016248	0.333524
C192	C	1.326399	0.317086	0.666858
C193	C	0.615909	-0.318282	0.000178
C194	C	0.949242	0.015052	0.333511
C195	C	1.282575	0.348385	0.666844
C196	C	0.571573	-0.337394	0.000157
C197	C	0.904906	-0.004061	0.333491
C198	C	1.238240	0.329272	0.666824
C199	C	0.482895	-0.375616	0.000109
C200	C	0.816228	-0.042283	0.333442
C201	C	1.149562	0.291051	0.666775
C202	C	0.483412	-0.325199	0.000108
C203	C	0.816745	0.008135	0.333442
C204	C	1.150079	0.341468	0.666775
C205	C	0.527751	-0.306087	0.000129
C206	C	0.861085	0.027247	0.333463
C207	C	1.194418	0.360580	0.666796
C208	C	0.528262	-0.255683	0.000150
C209	C	0.861595	0.077650	0.333484
C210	C	1.194928	0.410983	0.666817
N211	N	0.572598	-0.236568	0.000164
N212	N	0.905932	0.096765	0.333497
N213	N	1.239265	0.430098	0.666831
C214	C	0.616422	-0.267867	0.000178
C215	C	0.949755	0.065466	0.333511
C216	C	1.283088	0.398799	0.666844
C217	C	0.523596	-0.714450	0.000123
C218	C	0.856929	-0.381117	0.333456
C219	C	1.190262	-0.047784	0.666789
C220	C	0.523083	-0.764865	0.000122
C221	C	0.856416	-0.431531	0.333456
C222	C	1.189749	-0.098198	0.666789
C223	C	0.611246	-0.777049	0.000150
C224	C	0.944579	-0.443716	0.333484
C225	C	1.277913	-0.110383	0.666817
C226	C	0.611759	-0.726634	0.000156
C227	C	0.945092	-0.393301	0.333489
C228	C	1.278425	-0.059967	0.666822
C229	C	0.567932	-0.695335	0.000136
C230	C	0.901266	-0.362002	0.333470
C231	C	1.234599	-0.028669	0.666803
C232	C	0.617494	-0.161998	0.000192
C233	C	0.950827	0.171335	0.333526
C234	C	1.284161	0.504668	0.666859
C235	C	0.618003	-0.111582	0.000202
C236	C	0.951336	0.221752	0.333535
C237	C	1.284669	0.555085	0.666869
C238	C	0.529839	-0.099401	0.000170
C239	C	0.863173	0.233932	0.333503
C240	C	1.196506	0.567265	0.666837
C241	C	0.529331	-0.149814	0.000164
C242	C	0.862664	0.183520	0.333498
C243	C	1.195997	0.516853	0.666831
C244	C	0.573162	-0.181112	0.000173
C245	C	0.906495	0.152222	0.333506
C246	C	1.239829	0.485555	0.666840
O247	O	0.491060	-0.224392	0.000162
O248	O	0.824393	0.108941	0.333495
O249	O	1.157727	0.442275	0.666829
O250	O	0.654174	-0.246972	0.000181
O251	O	0.987507	0.086361	0.333514
O252	O	1.320841	0.419694	0.666848
C253	C	0.614372	-0.469517	0.000158
C254	C	0.947705	-0.136184	0.333491
C255	C	1.281038	0.197149	0.666824
C256	C	0.570036	-0.488630	0.000137
C257	C	0.903369	-0.155297	0.333471
C258	C	1.236703	0.178037	0.666804
C259	C	0.526213	-0.457331	0.000124
C260	C	0.859546	-0.123997	0.333457
C261	C	1.192879	0.209336	0.666790
C262	C	0.569523	-0.539044	0.000137
C263	C	0.902856	-0.205711	0.333471
C264	C	1.236190	0.127622	0.666804
C265	C	0.613346	-0.570343	0.000151
C266	C	0.946680	-0.237010	0.333484
C267	C	1.280013	0.096323	0.666817
C268	C	0.657683	-0.551228	0.000164
C269	C	0.991016	-0.217895	0.333498
C270	C	1.324349	0.115438	0.666831
C271	C	0.658195	-0.500817	0.000171
C272	C	0.991528	-0.167483	0.333504
C273	C	1.324862	0.165850	0.666838
C274	C	0.481876	-0.476446	0.000110
C275	C	0.815210	-0.143112	0.333443
C276	C	1.148543	0.190221	0.666777
C277	C	0.481368	-0.526858	0.000104
C278	C	0.814701	-0.193525	0.333438
C279	C	1.148034	0.139809	0.666771
C280	C	0.525191	-0.558157	0.000118
C281	C	0.858524	-0.224824	0.333451
C282	C	1.191858	0.108509	0.666784
C283	C	0.658949	0.057570	0.000192
C284	C	0.992282	0.390904	0.333526
C285	C	1.325615	0.724237	0.666859
C286	C	0.712605	0.058113	0.000204
C287	C	1.045938	0.391446	0.333538
C288	C	1.379272	0.724779	0.666871
C289	C	0.566353	0.150181	0.000147
C290	C	0.899687	0.483515	0.333480
C291	C	1.233020	0.816848	0.666813
C292	C	0.566906	0.203836	0.000136
C293	C	0.900239	0.537169	0.333469
C294	C	1.233573	0.870503	0.666803
N295	N	0.570527	0.061771	0.188833
N296	N	0.903860	0.395104	0.522167
N297	N	1.237193	0.728438	0.855500
N298	N	0.570563	0.061779	-0.188503
N299	N	0.903896	0.395112	0.144831
N300	N	1.237229	0.728446	0.478164
C301	C	0.603646	0.028673	0.226951
C302	C	0.936979	0.362006	0.560284
C303	C	1.270313	0.695339	0.893617
C304	C	0.603649	0.028670	0.303178
C305	C	0.936982	0.362004	0.636512
C306	C	1.270316	0.695337	0.969845
C307	C	0.570537	0.061775	0.341286
C308	C	0.903871	0.395108	0.674619
C309	C	1.237204	0.728442	1.007953
C310	C	0.537412	0.094876	0.303160
C311	C	0.870745	0.428209	0.636493
C312	C	1.204078	0.761542	0.969826
C313	C	0.537406	0.094874	0.226933
C314	C	0.870740	0.428207	0.560267
C315	C	1.204073	0.761540	0.893600
C316	C	0.563875	0.105848	0.462036
C317	C	0.897208	0.439181	0.795369
C318	C	1.230542	0.772514	1.128702
C319	C	0.563884	0.105850	0.538261
C320	C	0.897217	0.439184	0.871594
C321	C	1.230550	0.772517	1.204927
C322	C	0.570551	0.061781	0.576394
C323	C	0.903884	0.395114	0.909727
C324	C	1.237218	0.728448	1.243060
C325	C	0.577220	0.017707	0.538292
C326	C	0.910553	0.351040	0.871626
C327	C	1.243886	0.684373	1.204959
C328	C	0.577214	0.017705	0.462066
C329	C	0.910548	0.351038	0.795399
C330	C	1.243881	0.684371	1.128733
C331	C	0.570539	0.061780	0.423941
C332	C	0.903873	0.395114	0.757274
C333	C	1.237206	0.728447	1.090607
C334	C	0.603676	0.028677	0.697166
C335	C	0.937009	0.362011	1.030499
C336	C	1.270342	0.695344	1.363832
C337	C	0.603675	0.028675	0.773395
C338	C	0.937009	0.362008	1.106728
C339	C	1.270342	0.695341	1.440062
C340	C	0.537440	0.094884	0.773375
C341	C	0.870773	0.428217	1.106708
C342	C	1.204107	0.761551	1.440041
C343	C	0.537438	0.094883	0.697147
C344	C	0.870771	0.428216	1.030480
C345	C	1.204105	0.761549	1.363814
C346	C	0.570558	0.061780	0.659047
C347	C	0.903892	0.395113	0.992380
C348	C	1.237225	0.728447	1.325714
H349	H	-0.282720	0.058171	-0.119569
H350	H	0.050613	0.391504	0.213764
H351	H	0.383947	0.724838	0.547098
Br352	Br	0.492470	0.139800	0.354874
Br353	Br	0.825803	0.473134	0.688208
Br354	Br	1.159137	0.806467	1.021541
H355	H	0.493226	-0.165375	0.000167
H356	H	0.826559	0.167958	0.333501
H357	H	1.159893	0.501291	0.666834
H358	H	0.582643	-0.018182	0.431047
H359	H	0.915976	0.315152	0.764380
H360	H	1.249310	0.648485	1.097714
Br361	Br	0.492497	0.139807	0.825086
Br362	Br	0.825830	0.473140	1.158419
Br363	Br	1.159164	0.806474	1.491753
Br364	Br	0.318674	0.064306	0.155746
Br365	Br	0.652008	0.397640	0.489079
Br366	Br	0.985341	0.730973	0.822412
H367	H	0.191897	0.062997	0.185922
H368	H	0.525231	0.396330	0.519255
H369	H	0.858564	0.729664	0.852588
Br370	Br	0.054307	0.061614	-0.221467
Br371	Br	0.387640	0.394947	0.111866
Br372	Br	0.720973	0.728280	0.445200
Br373	Br	0.492455	0.139796	0.175198
Br374	Br	0.825788	0.473129	0.508531
Br375	Br	1.159121	0.806462	0.841865
H376	H	-0.191268	0.059098	-0.119587
H377	H	0.142065	0.392431	0.213747
H378	H	0.475399	0.725764	0.547080
Br379	Br	0.054339	0.061578	0.221789
Br380	Br	0.387672	0.394912	0.555122
Br381	Br	0.721005	0.728245	0.888455
Br382	Br	-0.064503	0.060401	-0.221453
Br383	Br	0.268830	0.393734	0.111880
Br384	Br	0.602163	0.727067	0.445213
Br385	Br	0.318642	0.064328	-0.155483
Br386	Br	0.651975	0.397662	0.177851
Br387	Br	0.985308	0.730995	0.511184
H388	H	0.423793	0.065400	-0.119646
H389	H	0.757127	0.398733	0.213687
H390	H	1.090460	0.732066	0.547020
H391	H	0.510471	0.121836	0.666110
H392	H	0.843804	0.455170	0.999443
H393	H	1.177138	0.788503	1.332777
H394	H	0.100416	0.062083	-0.185630
H395	H	0.433750	0.395417	0.147703
H396	H	0.767083	0.728750	0.481036
H397	H	0.646929	-0.802542	0.000162
H398	H	0.980262	-0.469209	0.333495
H399	H	1.313596	-0.135875	0.666829
Br400	Br	0.717157	-0.593716	0.000189
Br401	Br	1.050490	-0.260383	0.333522
Br402	Br	1.383823	0.072951	0.666855
H403	H	0.486977	-0.780421	0.000118
H404	H	0.820311	-0.447088	0.333451
H405	H	1.153644	-0.113754	0.666785
Br406	Br	0.676980	-0.204466	0.000203
Br407	Br	1.010313	0.128867	0.333537
Br408	Br	1.343647	0.462200	0.666870
Br409	Br	0.470368	-0.056915	0.000152
Br410	Br	0.803701	0.276419	0.333485
Br411	Br	1.137034	0.609752	0.666819
H412	H	0.694908	-0.425472	0.000193
H413	H	1.028241	-0.092139	0.333526
H414	H	1.361575	0.241194	0.666859
H415	H	0.487905	-0.688970	0.000107
H416	H	0.821238	-0.355637	0.333440
H417	H	1.154572	-0.022304	0.666773
Br418	Br	0.422395	-0.433975	0.000088
Br419	Br	0.755729	-0.100642	0.333421
Br420	Br	1.089062	0.232691	0.666755
H421	H	0.446789	-0.391168	0.000087
H422	H	0.780123	-0.057834	0.333420
H423	H	1.113456	0.275499	0.666754
Br424	Br	0.205561	0.063161	-0.221471
Br425	Br	0.538894	0.396494	0.111862
Br426	Br	0.872227	0.729827	0.445196
H427	H	0.630613	0.001717	0.195932
H428	H	0.963947	0.335051	0.529265
H429	H	1.297280	0.668384	0.862599
H430	H	0.630620	0.001717	0.334219
H431	H	0.963953	0.335050	0.667553
H432	H	1.297286	0.668383	1.000886
Br433	Br	0.718373	-0.474887	0.000195
Br434	Br	1.051706	-0.141554	0.333529
Br435	Br	1.385040	0.191780	0.666862
Br436	Br	0.437488	0.065533	0.155729
Br437	Br	0.770821	0.398866	0.489062
Br438	Br	1.104154	0.732200	0.822395
Br439	Br	-0.064476	0.060351	0.221794
Br440	Br	0.268858	0.393684	0.555127
Br441	Br	0.602191	0.727018	0.888460
Br442	Br	0.421187	-0.552789	0.000081
Br443	Br	0.754520	-0.219455	0.333415
Br444	Br	1.087854	0.113878	0.666748
Br445	Br	-0.177549	0.059230	0.155799
Br446	Br	0.155784	0.392564	0.489132
Br447	Br	0.489117	0.725897	0.822465
Br448	Br	-0.296387	0.058013	0.155806
Br449	Br	0.036946	0.391347	0.489139
Br450	Br	0.370280	0.724680	0.822472
H451	H	0.100451	0.062058	0.185930
H452	H	0.433784	0.395391	0.519264
H453	H	0.767117	0.728725	0.852597
Br454	Br	0.586275	-0.042106	0.590034
Br455	Br	0.919608	0.291227	0.923367
Br456	Br	1.252941	0.624560	1.256701
H457	H	0.647864	-0.711077	0.000172
H458	H	0.981197	-0.377744	0.333506
H459	H	1.314530	-0.044410	0.666839
Br460	Br	0.719910	-0.323652	0.000199
Br461	Br	1.053243	0.009682	0.333532
Br462	Br	1.386577	0.343015	0.666866
Br463	Br	0.648622	-0.016249	0.645457
Br464	Br	0.981956	0.317084	0.978790
Br465	Br	1.315289	0.650418	1.312123
Br466	Br	0.423930	-0.282724	0.000078
Br467	Br	0.757263	0.050609	0.333412
Br468	Br	1.090596	0.383942	0.666745
Br469	Br	0.554875	0.165663	0.410291
Br470	Br	0.888208	0.498996	0.743625
Br471	Br	1.221541	0.832330	1.076958
H472	H	0.654110	-0.096024	0.000221
H473	H	0.987444	0.237310	0.333554
H474	H	1.320777	0.570643	0.666888
H475	H	0.630644	0.001719	0.804431
H476	H	0.963977	0.335053	1.137764
H477	H	1.297310	0.668386	1.471097
Br478	Br	0.554839	0.165664	0.589962
Br479	Br	0.888172	0.498997	0.923295
Br480	Br	1.221506	0.832331	1.256628
