data_functionalizedCrystal
_audit_creation_method	'MofGen! by Chris Wilmer'
_symmetry_space_group_name_H-M	'P1'
_symmetry_Int_Tables_number	1
_symmetry_cell_setting	triclinic
loop_
_symmetry_equiv_pos_as_xyz
  x,y,z
_cell_length_a	10.654550
_cell_length_b	23.532407
_cell_length_c	9.730223
_cell_angle_alpha	89.990960
_cell_angle_beta	89.999957
_cell_angle_gamma	83.666804
loop_
_atom_site_label
_atom_site_type_symbol
_atom_site_fract_x
_atom_site_fract_y
_atom_site_fract_z
O1	O	1.665305	0.079985	-0.114203
O2	O	1.299585	0.087605	-0.114230
O3	O	1.493473	0.000935	-0.114191
O4	O	1.471417	0.166655	-0.114242
O5	O	1.493461	0.000933	0.114389
O6	O	1.299573	0.087603	0.114350
O7	O	1.665293	0.079982	0.114377
Zn8	Zn	1.482431	0.083792	0.150655
Zn9	Zn	1.482447	0.083795	-0.150508
O10	O	1.471404	0.166652	0.114337
C11	C	1.252799	0.087044	0.000057
C12	C	1.113408	0.085370	0.000048
C13	C	1.492905	-0.020286	0.000103
C14	C	1.491217	-0.083514	0.000113
C15	C	1.032306	0.136400	0.000036
C16	C	0.901335	0.134824	0.000060
C17	C	0.932582	0.031183	0.000103
C18	C	1.063550	0.032760	0.000089
C19	C	1.595364	-0.481938	0.000046
C20	C	1.593795	-0.541349	0.000035
O21	O	1.690341	-0.577464	-0.000009
N22	N	1.478529	-0.564726	0.000028
C23	C	1.364824	-0.528689	0.000017
O24	O	1.266636	-0.554029	0.000008
C25	C	1.366394	-0.469280	0.000018
C26	C	1.481668	-0.445906	0.000039
C27	C	1.710629	-0.458564	0.000066
C28	C	1.712197	-0.399158	0.000079
C29	C	1.598500	-0.363126	0.000072
C30	C	1.483236	-0.386500	0.000052
C31	C	1.252690	-0.433244	-0.000003
C32	C	1.254270	-0.373831	-0.000003
C33	C	1.369544	-0.350458	0.000018
C34	C	1.371107	-0.291061	0.000058
N35	N	1.486374	-0.267684	0.000066
C36	C	1.600070	-0.303716	0.000073
C37	C	1.361535	-0.653453	0.000013
C38	C	1.359964	-0.712861	0.000022
C39	C	1.588936	-0.725517	0.000038
C40	C	1.590506	-0.666108	0.000038
C41	C	1.476802	-0.630076	0.000020
C42	C	1.603355	-0.178958	0.000101
C43	C	1.604913	-0.119546	0.000120
C44	C	1.375942	-0.106896	0.000097
C45	C	1.374383	-0.166303	0.000086
C46	C	1.488100	-0.202333	0.000083
O47	O	1.274613	-0.254911	0.000096
O48	O	1.698241	-0.278369	0.000063
C49	C	1.712079	0.080543	0.000087
C50	C	1.851469	0.082217	0.000087
C51	C	1.471972	0.187873	0.000041
C52	C	1.473661	0.251101	0.000022
N53	N	1.482429	0.083790	0.356192
N54	N	1.482459	0.083793	-0.356045
C55	C	1.568311	0.045429	0.428135
C56	C	1.568324	0.045429	0.572018
C57	C	1.396567	0.122156	0.572002
C58	C	1.396550	0.122153	0.428121
H59	H	1.072896	0.179239	0.000013
H60	H	0.835306	0.176378	0.000053
H61	H	1.638237	0.014190	0.369574
H62	H	1.681514	-0.754865	0.000038
H63	H	1.638255	0.014191	0.630591
C64	C	1.841704	-0.532720	0.117580
C65	C	1.835616	-0.498167	0.000076
H66	H	1.918868	-0.557169	0.117586
H67	H	1.837544	-0.509285	0.197274
H68	H	1.772835	-0.555148	0.117556
H69	H	1.904479	-0.475736	0.000105
H70	H	1.839787	-0.521606	-0.079639
C71	C	1.225549	0.133795	0.733843
C72	C	1.302184	0.164327	0.651079
H73	H	1.167287	0.159832	0.782665
H74	H	1.180672	0.109904	0.677735
H75	H	1.276717	0.110951	0.797275
H76	H	1.251016	0.187168	0.587639
H77	H	1.347064	0.188227	0.707191
C78	C	1.226780	0.198003	0.442546
C79	C	1.302144	0.164325	0.349030
H80	H	1.168505	0.224037	0.393715
H81	H	1.181918	0.174109	0.498682
H82	H	1.278808	0.218710	0.498647
H83	H	1.250116	0.143614	0.292935
H84	H	1.347008	0.188221	0.292870
C85	C	0.976624	-0.071102	0.000144
C86	C	0.877774	-0.026644	0.000131
H87	H	0.942787	-0.106803	0.000165
H88	H	1.027049	-0.068331	-0.079566
H89	H	1.027062	-0.068328	0.079857
H90	H	0.827342	-0.029416	-0.079587
H91	H	0.827328	-0.029417	0.079849
H92	H	1.161675	-0.344497	-0.000020
C93	C	1.228964	-0.025591	-0.117409
C94	C	1.152712	-0.023336	0.000099
H95	H	1.284013	-0.060219	-0.117392
H96	H	1.177217	-0.024056	-0.197100
H97	H	1.277393	0.005970	-0.117411
H98	H	1.104277	-0.054894	0.000096
H99	H	1.204466	-0.024875	0.079811
H100	H	1.698787	-0.100519	0.000141
C101	C	1.133797	-0.694370	0.000004
C102	C	1.233251	-0.738549	0.000010
H103	H	1.055569	-0.710228	-0.000019
H104	H	1.139171	-0.671472	0.079716
H105	H	1.139193	-0.671453	-0.079707
H106	H	1.227860	-0.761464	0.079726
H107	H	1.227874	-0.761457	-0.079711
H108	H	1.695954	-0.208288	0.000094
H109	H	1.806065	-0.380133	0.000090
H110	H	1.684372	-0.647081	0.000055
H111	H	1.268937	-0.624119	0.000010
H112	H	1.158822	-0.452264	-0.000029
C113	C	1.148212	-0.147823	0.000057
C114	C	1.247674	-0.191998	0.000060
H115	H	1.069988	-0.163684	0.000020
H116	H	1.153574	-0.124928	0.079777
H117	H	1.153610	-0.124901	-0.079646
H118	H	1.242281	-0.214917	0.079768
H119	H	1.242309	-0.214903	-0.079668
H120	H	1.283373	-0.077548	0.000097
