data_functionalizedCrystal
_audit_creation_method	'MofGen! by Chris Wilmer'
_symmetry_space_group_name_H-M	'P1'
_symmetry_Int_Tables_number	1
_symmetry_cell_setting	triclinic
loop_
_symmetry_equiv_pos_as_xyz
  x,y,z
_cell_length_a	31.640172
_cell_length_b	21.606444
_cell_length_c	21.606444
_cell_angle_alpha	90.003209
_cell_angle_beta	60.006392
_cell_angle_gamma	60.000374
loop_
_atom_site_label
_atom_site_type_symbol
_atom_site_fract_x
_atom_site_fract_y
_atom_site_fract_z
Zr1	Zr	0.462566	-0.081177	0.596340
O2	O	0.550733	-0.180004	0.497531
O3	O	0.374400	-0.050883	0.626618
O4	O	0.462563	-0.179998	0.626636
O5	O	0.462573	0.050961	0.497513
O6	O	0.462560	-0.179992	0.728490
O7	O	0.462570	-0.050889	0.497513
O8	O	0.304852	0.050972	0.728458
O9	O	0.620281	-0.180003	0.497545
O10	O	0.410662	-0.037957	0.715558
O11	O	0.410666	0.038048	0.639546
O12	O	0.514467	-0.113969	0.639567
O13	O	0.514471	-0.037964	0.563554
Zr14	Zr	0.462566	0.081270	0.758785
Zr15	Zr	0.462562	-0.081168	0.758785
Zr16	Zr	0.462571	0.081261	0.596340
Zr17	Zr	0.573487	-0.081176	0.596362
Zr18	Zr	0.351646	0.081269	0.758763
O19	O	0.550733	0.050976	0.728507
O20	O	0.550726	-0.179991	0.728508
O21	O	0.550740	0.050962	0.497531
O22	O	0.374400	0.180097	0.857594
O23	O	0.374393	-0.050869	0.857594
O24	O	0.374406	0.180084	0.626618
O25	O	0.462560	-0.050868	0.857612
O26	O	0.462570	0.180091	0.728489
O27	O	0.462573	0.180085	0.626635
O28	O	0.462563	0.050982	0.857612
O29	O	0.620277	-0.179996	0.626667
O30	O	0.304856	0.180089	0.728458
O31	O	0.304852	0.180096	0.857580
O32	O	0.304848	0.050979	0.857580
O33	O	0.620284	-0.050886	0.497545
O34	O	0.620281	-0.050879	0.626667
O35	O	0.410666	0.114062	0.715558
O36	O	0.410662	0.038057	0.791571
O37	O	0.514467	-0.037955	0.715579
O38	O	0.514471	0.038050	0.639567
C39	C	0.323822	0.000044	0.677535
C40	C	0.276733	0.000043	0.677525
C41	C	0.462572	0.000035	0.474368
C42	C	0.462574	0.000031	0.405406
C43	C	0.462572	0.203232	0.677562
C44	C	0.462574	0.272192	0.677562
C45	C	-0.015311	-0.039620	0.717256
C46	C	-0.192307	-0.039620	0.717271
O47	O	-0.215213	-0.073334	0.751043
N48	N	-0.214433	0.000052	0.677592
C49	C	-0.192311	0.039731	0.637911
O50	O	-0.215197	0.073482	0.604169
C51	C	-0.015319	0.039735	0.637900
C52	C	0.006809	0.000054	0.677575
C53	C	0.006818	-0.079298	0.756928
C54	C	0.051066	-0.079301	0.756920
C55	C	0.073186	-0.039626	0.717240
C56	C	0.051058	0.000051	0.677568
C57	C	0.006799	0.079418	0.598224
C58	C	0.051049	0.079417	0.598226
C59	C	0.073177	0.039736	0.637901
C60	C	0.117427	0.039722	0.637880
N61	N	0.139554	0.000050	0.677559
C62	C	0.117433	-0.039625	0.717239
C63	C	-0.285234	0.039726	0.637918
C64	C	-0.329481	0.039724	0.637920
C65	C	-0.329474	-0.039627	0.717281
C66	C	-0.285223	-0.039629	0.717275
C67	C	-0.263107	0.000053	0.677597
C68	C	0.210359	-0.039629	0.717219
C69	C	0.254613	-0.039631	0.717205
C70	C	0.254600	0.039723	0.637847
C71	C	0.210352	0.039722	0.637858
C72	C	0.188231	0.000045	0.677549
O73	O	0.140356	0.073425	0.604132
O74	O	0.140317	-0.073356	0.750990
C75	C	-0.059559	-0.039617	0.717263
C76	C	-0.081688	0.000060	0.677591
C77	C	-0.059567	0.039734	0.637911
C78	C	-0.125935	0.000058	0.677592
C79	C	-0.148055	-0.039616	0.717272
C80	C	-0.125928	-0.079288	0.756951
C81	C	-0.081680	-0.079291	0.756944
C82	C	-0.081694	0.079406	0.598232
C83	C	-0.125942	0.079406	0.598242
C84	C	-0.148063	0.039731	0.637922
C85	C	0.601311	0.000049	0.677590
C86	C	0.648399	0.000050	0.677600
C87	C	0.462560	-0.203139	0.677563
C88	C	0.462558	-0.272099	0.677563
C89	C	0.516759	0.264914	0.637897
C90	C	0.516757	0.329711	0.637893
C91	C	0.462570	0.401786	0.677560
C92	C	0.408381	0.409062	0.717227
C93	C	0.408384	0.344266	0.717225
C94	C	0.408371	0.670381	0.717233
C95	C	0.408373	0.735179	0.717233
C96	C	0.516745	0.655826	0.637901
C97	C	0.516747	0.591029	0.637899
C98	C	0.462558	0.598311	0.677562
C99	C	0.462561	0.528050	0.677564
C100	C	0.462567	0.472046	0.677563
C101	C	0.408374	0.039740	0.021785
C102	C	0.408375	0.039733	0.086580
C103	C	0.462562	0.000052	0.079308
C104	C	0.516751	-0.039630	0.007235
C105	C	0.516749	-0.039627	-0.057559
C106	C	0.516762	-0.039645	0.268538
C107	C	0.516760	-0.039643	0.333338
C108	C	0.408388	0.039716	0.412676
C109	C	0.408386	0.039719	0.347883
C110	C	0.462574	0.000033	0.275816
C111	C	0.462572	0.000040	0.205558
C112	C	0.462565	0.000049	0.149564
C113	C	0.462560	0.000058	0.880757
C114	C	0.462558	0.000062	0.949720
C115	C	0.323816	0.000056	0.880729
C116	C	0.276725	0.000059	0.949682
C117	C	0.323828	0.203230	0.677534
C118	C	0.276741	0.272189	0.677525
C119	C	0.323822	0.203242	0.880729
C120	C	0.276733	0.272204	0.949682
C121	C	0.601311	-0.203149	0.474396
C122	C	0.648399	-0.272111	0.405443
C123	C	0.601317	0.000037	0.474396
C124	C	0.648407	0.000034	0.405443
C125	C	0.601305	-0.203137	0.677591
C126	C	0.648391	-0.272096	0.677600
C127	C	0.254611	-0.039625	0.942385
C128	C	0.210371	-0.039637	1.007168
C129	C	0.188242	0.000040	1.079246
C130	C	0.210361	0.039724	1.086541
C131	C	0.254604	0.039732	1.021760
C132	C	0.254629	0.344258	0.717198
C133	C	0.210393	0.409058	0.717186
C134	C	0.188266	0.401787	0.677505
C135	C	0.210383	0.329711	0.637827
C136	C	0.254622	0.264912	0.637835
C137	C	0.254618	0.264916	1.021747
C138	C	0.210379	0.329708	1.086542
C139	C	0.188254	0.401787	1.079270
C140	C	0.210374	0.409073	1.007196
C141	C	0.254615	0.344283	0.942403
C142	C	0.670520	-0.264823	0.333378
C143	C	0.714772	-0.329615	0.268583
C144	C	0.736900	-0.401694	0.275855
C145	C	0.714777	-0.408980	0.347929
C146	C	0.670529	-0.344190	0.412722
C147	C	0.670526	0.039711	0.412740
C148	C	0.714779	0.039705	0.347957
C149	C	0.736909	0.000027	0.275879
C150	C	0.714788	-0.039655	0.268584
C151	C	0.670539	-0.039654	0.333365
C152	C	0.670504	-0.264801	0.717289
C153	C	0.714740	-0.329589	0.717313
C154	C	0.736867	-0.401671	0.677643
C155	C	0.714750	-0.408964	0.637953
C156	C	0.670511	-0.344177	0.637934
H157	H	0.192352	-0.071936	0.749541
H158	H	0.272603	0.072051	1.027711
C159	C	0.800313	-0.043186	0.139861
C160	C	0.785552	0.000023	0.204673
H161	H	0.830346	-0.043190	0.095905
H162	H	0.765802	-0.021941	0.139846
H163	H	0.814810	-0.093734	0.139873
H164	H	0.771050	0.050573	0.204664
H165	H	0.820070	-0.021219	0.204688
C166	C	0.250159	0.118159	0.559402
C167	C	0.278921	0.083330	0.594230
H168	H	0.265176	0.145079	0.532474
H169	H	0.208394	0.152406	0.596944
H170	H	0.257409	0.080609	0.525159
H171	H	0.271667	0.120880	0.628478
H172	H	0.320696	0.049080	0.556684
H173	H	0.272620	0.206233	0.605531
H174	H	0.732799	-0.467675	0.353841
H175	H	0.652531	-0.071961	0.327414
H176	H	0.652511	0.072027	0.471424
C177	C	0.124881	0.451373	1.215283
C178	C	0.139619	0.473002	1.150497
H179	H	0.094852	0.495337	1.259256
H180	H	0.159401	0.422068	1.215277
H181	H	0.110385	0.422056	1.215259
H182	H	0.154119	0.502314	1.150518
H183	H	0.105092	0.502319	1.150503
C184	C	0.360261	0.074947	0.547236
C185	C	0.348821	0.083331	0.491897
H186	H	0.323487	0.101871	0.596140
H187	H	0.382523	0.094539	0.541558
H188	H	0.382524	0.022745	0.541546
H189	H	0.326562	0.135534	0.497583
H190	H	0.326549	0.063743	0.497577
C191	C	0.674986	-0.429155	0.559477
C192	C	0.646215	-0.352203	0.594293
H193	H	0.659991	-0.434112	0.532530
H194	H	0.667723	-0.452766	0.597027
H195	H	0.716758	-0.452772	0.525252
H196	H	0.604444	-0.328588	0.628523
H197	H	0.653474	-0.328583	0.556739
C198	C	0.710301	0.118171	0.432936
C199	C	0.739081	0.083335	0.355988
H200	H	0.725301	0.145111	0.437893
H201	H	0.717551	0.080630	0.456560
H202	H	0.668532	0.152409	0.456536
H203	H	0.780850	0.049093	0.332390
H204	H	0.731836	0.120881	0.332354
C205	C	0.142539	0.543628	1.071305
C206	C	0.186044	0.488307	0.999210
H207	H	0.127514	0.592544	1.066375
H208	H	0.159807	0.537942	1.098216
H209	H	0.110787	0.537923	1.098214
H210	H	0.217799	0.494009	0.972304
H211	H	0.168777	0.493996	0.972288
H212	H	0.560868	0.649902	0.605602
H213	H	0.272630	-0.071946	0.749513
H214	H	0.652506	-0.206139	0.327442
H215	H	0.272628	-0.071943	0.883701
H216	H	0.069079	-0.111610	0.789230
C217	C	0.142587	0.543627	0.752420
C218	C	0.186085	0.488279	0.760806
H219	H	0.127585	0.592532	0.779346
H220	H	0.110823	0.537953	0.772005
H221	H	0.159856	0.537939	0.700220
H222	H	0.168815	0.493963	0.813006
H223	H	0.217854	0.493956	0.741225
H224	H	0.732813	-0.071961	0.209889
C225	C	0.728346	-0.356366	0.816293
C226	C	0.739049	-0.321558	0.760937
H227	H	0.743349	-0.351402	0.843226
H228	H	0.747854	-0.408563	0.792678
H229	H	0.686572	-0.332730	0.850526
H230	H	0.780823	-0.345198	0.726701
H231	H	0.719541	-0.269352	0.784554
H232	H	0.272626	0.206232	1.027683
H233	H	-0.267231	0.072042	0.605607
C234	C	0.602717	-0.280124	0.547281
C235	C	0.646224	-0.352208	0.491937
H236	H	0.587721	-0.285080	0.596183
H237	H	0.570951	-0.253211	0.541606
H238	H	0.619978	-0.253200	0.541594
H239	H	0.628962	-0.379130	0.497620
H240	H	0.677995	-0.379132	0.497615
H241	H	-0.143952	0.111716	0.565926
H242	H	0.192374	0.323761	1.145221
H243	H	0.652495	-0.206114	0.749593
H244	H	0.772890	-0.454418	0.677664
H245	H	-0.011190	-0.111604	0.789244
C246	C	0.360252	0.606293	0.752454
C247	C	0.348810	0.678385	0.760834
H248	H	0.323479	0.611235	0.779370
H249	H	0.382512	0.579380	0.772052
H250	H	0.382518	0.579376	0.700254
H251	H	0.326548	0.705300	0.813034
H252	H	0.326540	0.705309	0.741239
H253	H	-0.267209	-0.071940	0.749582
C254	C	0.160981	-0.031279	1.193663
C255	C	0.139605	0.000034	1.150452
H256	H	0.130953	-0.031285	1.237617
H257	H	0.170978	-0.001965	1.208329
H258	H	0.195503	-0.081828	1.164350
H259	H	0.105085	0.050586	1.179763
H260	H	0.129600	-0.029280	1.135787
C261	C	0.360251	0.869742	0.752453
C262	C	0.348806	0.814409	0.760828
H263	H	0.323479	0.918653	0.779367
H264	H	0.382520	0.864047	0.700260
H265	H	0.382508	0.864059	0.772063
H266	H	0.326553	0.820088	0.741212
H267	H	0.326528	0.820107	0.813031
C268	C	0.250202	0.429211	0.795612
C269	C	0.278954	0.352263	0.760806
H270	H	0.265224	0.434155	0.822526
H271	H	0.208437	0.452836	0.829857
H272	H	0.257457	0.452821	0.758053
H273	H	0.271696	0.328653	0.798366
H274	H	0.320729	0.328628	0.726558
C275	C	0.728390	-0.527877	0.644839
C276	C	0.739082	-0.488202	0.594345
H277	H	0.743419	-0.576798	0.617912
H278	H	0.686622	-0.500961	0.682360
H279	H	0.747888	-0.532788	0.668481
H280	H	0.719580	-0.483285	0.570707
H281	H	0.780858	-0.515124	0.556811
C282	C	-0.397311	-0.074842	0.752529
C283	C	-0.353800	-0.083229	0.760908
H284	H	-0.412335	-0.101751	0.779469
H285	H	-0.380050	-0.094448	0.700338
H286	H	-0.429064	-0.022637	0.772110
H287	H	-0.322045	-0.135434	0.741322
H288	H	-0.371061	-0.063626	0.813108
H289	H	-0.347487	0.072026	0.605602
H290	H	0.364253	0.072031	0.145257
C291	C	0.011294	0.157793	0.519726
C292	C	-0.017486	0.122992	0.554565
H293	H	-0.003692	0.184685	0.492761
H294	H	0.053061	0.120238	0.485521
H295	H	0.004021	0.192070	0.557271
H296	H	-0.010209	0.088711	0.517019
H297	H	-0.059262	0.160552	0.588772
H298	H	0.069054	0.111730	0.565914
H299	H	0.192341	0.072023	0.605541
C300	C	-0.086134	-0.157718	0.835391
C301	C	-0.057364	-0.122904	0.800563
H302	H	-0.071128	-0.184639	0.862326
H303	H	-0.078883	-0.191962	0.797850
H304	H	-0.127904	-0.120160	0.869629
H305	H	-0.015595	-0.160462	0.766321
H306	H	-0.064611	-0.088657	0.838110
C307	C	0.609128	-0.054360	-0.040447
C308	C	0.576316	-0.083249	-0.000763
H309	H	0.645903	-0.081291	-0.045389
H310	H	0.586865	-0.002168	-0.013524
H311	H	0.616877	-0.060042	-0.089347
H312	H	0.568563	-0.077562	0.048139
H313	H	0.598584	-0.135454	-0.027685
C314	C	0.623890	-0.118107	0.248405
C315	C	0.576327	-0.083270	0.325343
H316	H	0.660661	-0.145041	0.243472
H317	H	0.621643	-0.080567	0.224781
H318	H	0.621627	-0.152349	0.224786
H319	H	0.578587	-0.049023	0.348961
H320	H	0.578575	-0.120814	0.348977
H321	H	-0.143944	-0.111596	0.789257
H322	H	-0.063690	0.111717	0.565921
C323	C	0.609134	0.177336	0.623189
C324	C	0.576325	0.185691	0.594293
H325	H	0.645910	0.128429	0.596264
H326	H	0.586870	0.183017	0.675378
H327	H	0.616881	0.214891	0.617510
H328	H	0.568574	0.148139	0.599977
H329	H	0.598593	0.180002	0.542091
C330	C	0.609137	0.282002	0.517357
C331	C	0.576322	0.321702	0.594292
H332	H	0.645913	0.277051	0.490439
H333	H	0.586877	0.308922	0.497760
H334	H	0.616882	0.233102	0.511696
H335	H	0.568573	0.370604	0.599953
H336	H	0.598586	0.294782	0.613894
C337	C	0.579645	-0.138607	0.149645
C338	C	0.576327	-0.083261	0.189330
H339	H	0.616423	-0.165537	0.100745
H340	H	0.547382	-0.114979	0.144694
H341	H	0.577389	-0.172848	0.176578
H342	H	0.578579	-0.049017	0.162400
H343	H	0.608599	-0.106890	0.194278
H344	H	0.560872	0.532345	0.605601
H345	H	0.732777	-0.323667	0.209904
C346	C	0.764139	-0.472889	0.161432
C347	C	0.785534	-0.472909	0.204629
H348	H	0.794162	-0.516854	0.117461
H349	H	0.754130	-0.428920	0.146795
H350	H	0.729622	-0.472891	0.190745
H351	H	0.820049	-0.472901	0.175318
H352	H	0.795551	-0.516889	0.219265
C353	C	0.345510	0.527968	0.710341
C354	C	0.348818	0.488288	0.760832
H355	H	0.308739	0.576880	0.737266
H356	H	0.347759	0.501044	0.672803
H357	H	0.377784	0.532902	0.686721
H358	H	0.316546	0.483350	0.784447
H359	H	0.346563	0.515219	0.798384
H360	H	0.364261	0.350197	0.749523
H361	H	0.152244	0.454557	0.677505
C362	C	0.301250	0.118179	0.106724
C363	C	0.348808	0.083358	0.029784
H364	H	0.264476	0.145103	0.111663
H365	H	0.303505	0.152422	0.130346
H366	H	0.303509	0.080625	0.130341
H367	H	0.346551	0.120914	0.006169
H368	H	0.346551	0.049113	0.006152
H369	H	0.192361	0.323803	0.605520
C370	C	0.301261	0.118156	0.432818
C371	C	0.348822	0.083334	0.355878
H372	H	0.264489	0.145076	0.437753
H373	H	0.303514	0.152401	0.456441
H374	H	0.303520	0.080602	0.456436
H375	H	0.346565	0.120888	0.332262
H376	H	0.346568	0.049085	0.332246
C377	C	0.214819	-0.118061	0.922189
C378	C	0.186058	-0.083252	0.999137
H379	H	0.199807	-0.144982	0.917232
H380	H	0.256585	-0.152304	0.898575
H381	H	0.207563	-0.080499	0.898580
H382	H	0.193319	-0.120815	1.022745
H383	H	0.144283	-0.049007	1.022761
C384	C	0.304349	0.391997	0.854834
C385	C	0.278914	0.352304	0.863190
H386	H	0.319345	0.396957	0.805933
H387	H	0.336117	0.365067	0.860503
H388	H	0.274830	0.440893	0.892393
H389	H	0.308435	0.303406	0.825634
H390	H	0.247142	0.379234	0.857513
H391	H	0.560872	-0.071939	-0.116238
C392	C	0.124454	0.138670	1.205424
C393	C	0.186026	0.083343	1.165775
H394	H	0.109428	0.165604	1.254339
H395	H	0.104963	0.115026	1.210339
H396	H	0.117214	0.172911	1.178488
H397	H	0.193265	0.049099	1.192709
H398	H	0.205523	0.106989	1.160864
