data_functionalizedCrystal
_audit_creation_method	'MofGen! by Chris Wilmer'
_symmetry_space_group_name_H-M	'P1'
_symmetry_Int_Tables_number	1
_symmetry_cell_setting	triclinic
loop_
_symmetry_equiv_pos_as_xyz
  x,y,z
_cell_length_a	6.817900
_cell_length_b	7.190334
_cell_length_c	12.850286
_cell_angle_alpha	94.837436
_cell_angle_beta	91.778050
_cell_angle_gamma	119.388224
loop_
_atom_site_label
_atom_site_type_symbol
_atom_site_fract_x
_atom_site_fract_y
_atom_site_fract_z
V1	V	4.161865	0.655564	0.141789
O2	O	4.210398	0.652908	-0.008515
O3	O	4.051297	0.641633	0.282781
O4	O	4.200290	0.945789	0.138862
O5	O	4.060373	0.346647	0.136400
V6	V	4.642297	0.619763	0.123899
O7	O	4.429901	0.734098	0.181032
O8	O	4.824458	0.541230	0.084656
O9	O	4.529659	0.633694	-0.017092
O10	O	4.711160	0.622419	0.274204
O11	O	4.861185	0.928681	0.129288
O12	O	4.380665	0.329539	0.126827
C13	C	3.869696	0.619256	0.434599
C14	C	3.878360	0.628852	0.317172
C15	C	4.068433	1.016832	0.133587
C16	C	4.182833	1.258488	0.132097
C17	C	4.365944	0.646470	-0.051481
C18	C	4.353510	0.656149	-0.168902
V19	V	4.129482	0.623059	0.625559
O20	O	4.172333	0.630805	0.778482
O21	O	4.036811	0.625609	0.478743
O22	O	3.887094	0.321364	0.622617
O23	O	4.323086	0.937157	0.633612
V24	V	4.668797	0.716174	0.672688
O25	O	4.337987	0.571322	0.599973
O26	O	4.934204	0.819853	0.724768
O27	O	4.526504	0.687870	0.806368
O28	O	4.749527	0.721972	0.526674
O29	O	4.598774	0.415620	0.671544
O30	O	4.676221	0.992115	0.662494
C31	C	4.530199	1.043455	0.647177
C32	C	4.622944	1.282717	0.644508
