data_functionalizedCrystal
_audit_creation_method	'MofGen! by Chris Wilmer'
_symmetry_space_group_name_H-M	'P1'
_symmetry_Int_Tables_number	1
_symmetry_cell_setting	triclinic
loop_
_symmetry_equiv_pos_as_xyz
  x,y,z
_cell_length_a	12.759401
_cell_length_b	18.101395
_cell_length_c	12.759393
_cell_angle_alpha	90.032370
_cell_angle_beta	90.020938
_cell_angle_gamma	90.032629
loop_
_atom_site_label
_atom_site_type_symbol
_atom_site_fract_x
_atom_site_fract_y
_atom_site_fract_z
Zn1	Zn	1.606147	-0.294764	0.594006
Zn2	Zn	1.605987	-0.418623	0.418321
Zn3	Zn	1.430445	-0.294803	0.418342
Zn4	Zn	1.430387	-0.418571	0.593958
O5	O	1.518242	-0.356690	0.506157
O6	O	1.753147	-0.311199	0.570713
O7	O	1.582659	-0.402236	0.271302
O8	O	1.453844	-0.191165	0.441673
O9	O	1.753030	-0.402198	0.441637
O10	O	1.582931	-0.191136	0.570733
O11	O	1.453689	-0.311266	0.271318
O12	O	1.283417	-0.311216	0.441626
O13	O	1.453744	-0.402110	0.740986
O14	O	1.283374	-0.402148	0.570651
O15	O	1.582874	-0.311149	0.741021
O16	O	1.582603	-0.522249	0.441590
O17	O	1.453590	-0.522211	0.570630
C18	C	1.245274	-0.356681	0.506136
C19	C	1.128498	-0.356695	0.506152
C20	C	1.073641	-0.404115	0.573229
C21	C	0.963917	-0.404118	0.573250
C22	C	0.963916	-0.309278	0.439107
C23	C	1.073638	-0.309272	0.439092
C24	C	0.814010	-0.430691	0.697109
C25	C	0.759149	-0.478123	0.764177
C26	C	0.794718	-0.550396	0.780122
C27	C	0.885145	-0.575251	0.728983
C28	C	0.940000	-0.527823	0.661907
C29	C	0.904433	-0.455540	0.645982
C30	C	1.223547	-0.282707	0.315232
C31	C	1.278404	-0.235282	0.248150
C32	C	1.242837	-0.163008	0.232194
C33	C	1.152407	-0.138156	0.283315
C34	C	1.097550	-0.185581	0.350397
C35	C	1.133124	-0.257854	0.366354
C36	C	1.518101	-0.549101	0.506126
C37	C	1.518137	-0.631415	0.506148
C38	C	1.518368	-0.930506	0.506204
C39	C	1.437384	-0.899187	0.587594
C40	C	1.436999	-0.813570	0.587340
C41	C	1.518253	-0.782123	0.506177
C42	C	1.488271	-0.813282	0.395451
C43	C	1.487748	-0.898927	0.395938
C44	C	1.629511	-0.898846	0.534565
C45	C	1.628857	-0.813194	0.536994
C46	C	1.518190	-0.698264	0.506155
C47	C	1.518428	-1.014365	0.506219
C48	C	1.792275	-0.356700	0.506178
C49	C	1.909051	-0.356704	0.506187
C50	C	1.518320	-0.356619	0.780190
C51	C	1.518354	-0.356589	0.896967
C52	C	1.518411	-0.163528	0.506211
C53	C	1.518484	-0.081214	0.506234
C54	C	1.518224	-0.356708	0.233189
C55	C	1.518394	-0.356529	0.116413
C56	C	1.585597	-0.309218	0.951849
C57	C	1.585614	-0.309186	1.061573
C58	C	1.451143	-0.403902	1.061523
C59	C	1.451121	-0.403930	0.951801
C60	C	1.623262	-0.221811	1.211555
C61	C	1.690521	-0.174447	1.266441
C62	C	1.793039	-0.163090	1.230850
C63	C	1.828318	-0.199110	1.140375
C64	C	1.761064	-0.246479	1.085495
C65	C	1.658532	-0.257821	1.121084
C66	C	1.413484	-0.491306	0.801817
C67	C	1.346235	-0.538680	0.746935
C68	C	1.243716	-0.550044	0.782523
C69	C	1.208441	-0.514038	0.873002
C70	C	1.275690	-0.466664	0.927884
C71	C	1.378208	-0.455299	0.892288
H72	H	1.287507	-0.124398	0.177561
N73	N	1.116083	-0.064324	0.267040
N74	N	1.108718	-0.020864	0.342842
H75	H	1.083066	0.031281	0.331345
H76	H	1.640339	-0.270668	0.907206
N77	N	1.558507	-0.924939	0.317261
N78	N	1.570721	-0.992775	0.303600
H79	H	1.620688	-1.011145	0.248030
H80	H	1.352037	-0.255524	0.206524
H81	H	1.496962	-0.482052	0.772826
N82	N	1.259891	-0.356535	0.331516
N83	N	1.340622	-0.378719	0.285852
H84	H	1.366289	-0.430861	0.297345
N85	N	0.777672	-0.356862	0.680850
N86	N	0.696933	-0.334687	0.726509
H87	H	0.671264	-0.282544	0.715026
H88	H	1.374969	-0.568005	0.673269
N89	N	1.032372	-0.553188	0.609674
N90	N	1.081346	-0.510831	0.549799
H91	H	1.146590	-0.528744	0.512913
N92	N	1.460535	-0.787144	0.690339
N93	N	1.477358	-0.831955	0.762915
H94	H	1.493977	-0.813296	0.835664
N95	N	1.861732	-0.114711	1.286929
N96	N	1.830228	-0.082563	1.367708
H97	H	1.878737	-0.048393	1.407317
N98	N	1.654472	-0.137662	1.358855
N99	N	1.562928	-0.147799	1.390619
H100	H	1.537473	-0.121822	1.455889
H101	H	1.455958	-0.919730	0.669962
N102	N	1.657261	-0.787632	0.639203
N103	N	1.743024	-0.806238	0.678496
H104	H	1.763086	-0.788178	0.750680
H105	H	0.750043	-0.589015	0.834732
H106	H	1.355504	-0.920777	0.569045
H107	H	1.545399	-0.792915	0.333156
H108	H	1.354618	-0.793149	0.568554
H109	H	1.246960	-0.437346	1.001557
H110	H	1.118304	-0.442728	0.627836
N111	N	1.005184	-0.160204	0.402641
N112	N	0.956219	-0.202553	0.462534
H113	H	0.890987	-0.184632	0.499433
H114	H	0.914091	-0.634106	0.741962
N115	N	0.666784	-0.452725	0.816403
N116	N	0.635041	-0.388189	0.802171
H117	H	0.569806	-0.370254	0.839052
H118	H	0.919236	-0.270670	0.384508
H119	H	1.406503	-0.918973	0.371913
N120	N	1.387430	-0.786455	0.364778
N121	N	1.337471	-0.744397	0.424274
H122	H	1.266250	-0.725449	0.402616
H123	H	1.656845	-0.920388	0.613930
N124	N	1.797106	-0.283268	0.993089
N125	N	1.888648	-0.273128	0.961322
H126	H	1.914105	-0.299107	0.896055
H127	H	1.124963	-0.523293	0.901982
N128	N	1.708547	-0.786335	0.468039
N129	N	1.685015	-0.743669	0.394730
H130	H	1.741293	-0.724702	0.346020
H131	H	1.689846	-0.919098	0.475286
H132	H	1.911802	-0.189865	1.111410
H133	H	1.188966	-0.588627	0.737833
N134	N	1.518536	-0.233390	1.247915
N135	N	1.487061	-0.201230	1.328696
H136	H	1.413097	-0.209408	1.354381
N137	N	1.382476	-0.452252	1.117553
N138	N	1.382504	-0.452222	1.215519
H139	H	1.334008	-0.486371	1.255090
