data_functionalizedCrystal
_audit_creation_method	'MofGen! by Chris Wilmer'
_symmetry_space_group_name_H-M	'P1'
_symmetry_Int_Tables_number	1
_symmetry_cell_setting	triclinic
loop_
_symmetry_equiv_pos_as_xyz
  x,y,z
_cell_length_a	27.732048
_cell_length_b	27.731996
_cell_length_c	26.210047
_cell_angle_alpha	89.998501
_cell_angle_beta	89.996535
_cell_angle_gamma	82.632022
loop_
_atom_site_label
_atom_site_type_symbol
_atom_site_fract_x
_atom_site_fract_y
_atom_site_fract_z
O1	O	0.640920	0.057512	-0.042370
O2	O	0.500125	0.066257	-0.042386
O3	O	0.574909	-0.008514	-0.042366
O4	O	0.566137	0.132283	-0.042389
O5	O	0.574894	-0.008503	0.042492
O6	O	0.500111	0.066269	0.042472
O7	O	0.640906	0.057523	0.042488
Cu8	Cu	0.570507	0.061897	0.050228
Cu9	Cu	0.570524	0.061883	-0.050126
O10	O	0.566122	0.132295	0.042469
C11	C	0.482111	0.066079	0.000041
C12	C	0.428456	0.065527	0.000035
C13	C	0.089634	0.106232	0.000051
C14	C	-0.112026	0.104180	0.000056
O15	O	-0.143288	0.141402	0.000072
N16	N	-0.131141	0.059844	0.000062
C17	C	-0.099838	0.016017	0.000070
O18	O	-0.120724	-0.021740	0.000081
C19	C	0.101820	0.018069	0.000069
C20	C	0.120933	0.062408	0.000058
C21	C	0.108747	0.150567	0.000040
C22	C	0.159159	0.151079	0.000036
C23	C	0.190457	0.107256	0.000043
C24	C	0.171344	0.062920	0.000054
C25	C	0.133122	-0.025757	0.000081
C26	C	0.183539	-0.025240	0.000082
C27	C	0.202652	0.019099	0.000071
C28	C	0.253055	0.019609	0.000057
N29	N	0.272171	0.063946	0.000050
C30	C	0.240872	0.107769	0.000043
C31	C	-0.205712	0.014943	0.000070
C32	C	-0.256126	0.014430	0.000069
C33	C	-0.268310	0.102594	0.000056
C34	C	-0.217895	0.103106	0.000052
C35	C	-0.186597	0.059280	0.000064
C36	C	0.346741	0.108842	0.000034
C37	C	0.397158	0.109350	0.000028
C38	C	0.409337	0.021187	0.000045
C39	C	0.358925	0.020678	0.000048
C40	C	0.327627	0.064510	0.000045
O41	O	0.284346	-0.017592	0.000046
O42	O	0.261767	0.145521	0.000044
C43	C	0.039222	0.105719	0.000055
C44	C	0.020109	0.061384	0.000066
C45	C	0.051408	0.017560	0.000073
C46	C	-0.030305	0.060871	0.000065
C47	C	-0.061604	0.104694	0.000058
C48	C	-0.042489	0.149030	0.000052
C49	C	0.007923	0.149543	0.000048
C50	C	0.032292	-0.026776	0.000079
C51	C	-0.018120	-0.027285	0.000082
C52	C	-0.049419	0.016539	0.000075
C53	C	0.574721	-0.026516	0.000064
C54	C	0.574179	-0.080172	0.000069
C55	C	0.570772	-0.412895	-0.046212
C56	C	0.568711	-0.614553	-0.046221
O57	O	0.568430	-0.640629	-0.085561
N58	N	0.568447	-0.639764	0.000034
C59	C	0.568695	-0.614556	0.046296
O60	O	0.568418	-0.640626	0.085639
C61	C	0.570753	-0.412899	0.046304
C62	C	0.571021	-0.387691	0.000046
C63	C	0.571040	-0.387687	-0.092467
C64	C	0.571558	-0.337276	-0.092464
C65	C	0.571807	-0.312072	-0.046206
C66	C	0.571539	-0.337280	0.000048
C67	C	0.570997	-0.387692	0.092565
C68	C	0.571511	-0.337274	0.092563
C69	C	0.571779	-0.312066	0.046304
C70	C	0.572307	-0.261665	0.046309
N71	N	0.572571	-0.236454	0.000053
C72	C	0.572321	-0.261658	-0.046204
C73	C	0.567616	-0.720430	0.046288
C74	C	0.567102	-0.770844	0.046286
C75	C	0.567117	-0.770837	-0.046231
C76	C	0.567634	-0.720422	-0.046229
C77	C	0.567880	-0.695219	0.000032
C78	C	0.573409	-0.155791	-0.046195
C79	C	0.573929	-0.105376	-0.046188
C80	C	0.573912	-0.105387	0.046329
C81	C	0.573394	-0.155798	0.046322
C82	C	0.573141	-0.180999	0.000056
O83	O	0.572582	-0.235557	0.085628
O84	O	0.572587	-0.235578	-0.085542
C85	C	0.570254	-0.463306	-0.046215
C86	C	0.569986	-0.488513	0.000040
C87	C	0.570235	-0.463310	0.046298
C88	C	0.569472	-0.538928	0.000038
C89	C	0.569222	-0.564131	-0.046220
C90	C	0.569486	-0.538921	-0.092475
C91	C	0.570004	-0.488509	-0.092472
C92	C	0.569971	-0.488521	0.092554
C93	C	0.569454	-0.538932	0.092547
C94	C	0.569204	-0.564135	0.046289
C95	C	0.658920	0.057701	0.000060
C96	C	0.712575	0.058254	0.000062
C97	C	0.566310	0.150296	0.000037
C98	C	0.566853	0.203952	0.000028
N99	N	0.570499	0.061906	0.120812
N100	N	0.570536	0.061870	-0.120710
C101	C	0.603635	0.028782	0.473335
C102	C	0.603646	0.028775	0.686994
O103	O	0.631801	0.000614	0.714623
N104	N	0.570527	0.061873	0.713706
C105	C	0.537401	0.094972	0.687001
O106	O	0.509228	0.123120	0.714624
C107	C	0.537388	0.094976	0.473343
C108	C	0.570512	0.061880	0.446633
C109	C	0.636756	-0.004312	0.446625
C110	C	0.636755	-0.004308	0.393214
C111	C	0.603632	0.028790	0.366512
C112	C	0.570511	0.061884	0.393222
C113	C	0.504260	0.128073	0.446639
C114	C	0.504259	0.128070	0.393221
C115	C	0.537384	0.094974	0.366511
C116	C	0.537388	0.094985	0.313109
N117	N	0.570506	0.061888	0.286396
C118	C	0.603629	0.028790	0.313098
C119	C	0.537410	0.094968	0.799174
C120	C	0.537414	0.094968	0.852588
C121	C	0.603658	0.028770	0.852577
C122	C	0.603657	0.028773	0.799162
C123	C	0.570529	0.061871	0.772462
C124	C	0.603624	0.028801	0.200930
C125	C	0.603621	0.028809	0.147514
C126	C	0.537375	0.095004	0.147529
C127	C	0.537380	0.094998	0.200941
C128	C	0.570506	0.061892	0.227640
O129	O	0.509244	0.123128	0.285447
O130	O	0.631790	0.000639	0.285466
C131	C	0.603636	0.028778	0.526746
C132	C	0.570515	0.061872	0.553456
C133	C	0.537393	0.094970	0.526755
C134	C	0.570519	0.061872	0.606870
C135	C	0.603641	0.028774	0.633572
C136	C	0.636760	-0.004323	0.606860
C137	C	0.636758	-0.004320	0.553448
C138	C	0.504274	0.128068	0.553467
C139	C	0.504278	0.128061	0.606879
C140	C	0.537401	0.094964	0.633580
H141	H	0.343363	-0.015426	0.000050
O142	O	0.573054	-0.180258	0.091268
C143	C	0.531005	-0.189876	0.170349
C144	C	0.531330	-0.162148	0.119462
H145	H	0.497280	-0.175238	0.193163
H146	H	0.530558	-0.230238	0.162429
H147	H	0.564961	-0.184658	0.193143
H148	H	0.497380	-0.167326	0.096643
H149	H	0.531802	-0.121796	0.127419
H150	H	0.574149	-0.084854	-0.083859
H151	H	-0.293803	0.138276	0.000050
H152	H	0.630598	0.001842	0.222662
H153	H	0.570223	-0.467990	-0.130141
O154	O	0.569172	-0.563348	-0.137441
C155	C	0.527098	-0.573010	-0.216492
C156	C	0.527408	-0.545295	-0.165597
H157	H	0.493330	-0.558432	-0.239265
H158	H	0.561018	-0.567775	-0.239345
H159	H	0.526703	-0.613370	-0.208524
H160	H	0.527786	-0.504926	-0.173519
H161	H	0.493490	-0.550571	-0.142759
H162	H	0.571775	-0.316756	-0.130133
H163	H	0.434830	-0.014493	0.000049
O164	O	0.472054	0.160157	0.527509
C165	C	0.405978	0.170925	0.467188
C166	C	0.442431	0.134525	0.496560
H167	H	0.382026	0.150216	0.442150
H168	H	0.382275	0.194573	0.495435
H169	H	0.426674	0.194941	0.442206
H170	H	0.421775	0.110477	0.521542
H171	H	0.466134	0.110911	0.468285
O172	O	0.668836	-0.036554	0.527487
C173	C	0.679521	-0.102776	0.467335
C174	C	0.643161	-0.066245	0.496665
H175	H	0.658777	-0.126797	0.442416
H176	H	0.703556	-0.082195	0.442253
H177	H	0.703153	-0.126401	0.495655
H178	H	0.619497	-0.042610	0.468381
H179	H	0.619159	-0.086856	0.521754
H180	H	0.573201	-0.176303	-0.083869
H181	H	0.567852	-0.699901	-0.083897
H182	H	0.569239	-0.559452	0.130219
O183	O	0.668980	-0.036496	0.632724
C184	C	0.734658	-0.102182	0.627094
C185	C	0.698210	-0.065765	0.597736
H186	H	0.758294	-0.125862	0.598819
H187	H	0.758678	-0.081506	0.652088
H188	H	0.713959	-0.126162	0.652114
H189	H	0.718870	-0.041776	0.572688
H190	H	0.674191	-0.086471	0.572774
O191	O	-0.036602	-0.070402	0.000115
C192	C	-0.019182	-0.157793	0.000109
C193	C	0.001811	-0.109000	0.000077
H194	H	0.011864	-0.189012	0.000067
H195	H	-0.042460	-0.160265	0.035634
H196	H	-0.042498	-0.160222	-0.035392
H197	H	0.025148	-0.106538	0.035554
H198	H	0.025061	-0.106549	-0.035471
H199	H	0.630596	0.001858	0.125768
H200	H	0.477305	0.155017	0.628622
H201	H	0.570176	-0.468005	0.130223
O202	O	0.570864	-0.412227	-0.137373
C203	C	0.612210	-0.474903	-0.191086
C204	C	0.612459	-0.447162	-0.140203
H205	H	0.645841	-0.503147	-0.193395
H206	H	0.578152	-0.493864	-0.193421
H207	H	0.612466	-0.448206	-0.224131
H208	H	0.612220	-0.473826	-0.107129
H209	H	0.646513	-0.428193	-0.137912
H210	H	0.630629	0.001821	0.874327
O211	O	0.505278	0.127192	0.773265
C212	C	0.476291	0.211447	0.756967
C213	C	0.512712	0.175005	0.786327
H214	H	0.482282	0.250112	0.767525
H215	H	0.481968	0.205813	0.714195
H216	H	0.437630	0.205391	0.767473
H217	H	0.551387	0.181040	0.775864
H218	H	0.506992	0.180649	0.829093
O219	O	0.026405	0.192657	0.000062
C220	C	0.008980	0.280047	0.000019
C221	C	-0.012010	0.231252	0.000013
H222	H	-0.022068	0.311264	-0.000032
H223	H	0.032257	0.282533	0.035539
H224	H	0.032296	0.282465	-0.035487
H225	H	-0.035348	0.228802	0.035494
H226	H	-0.035259	0.228787	-0.035531
H227	H	0.663726	-0.031259	0.371470
H228	H	0.663728	-0.031267	0.468361
O229	O	0.635849	-0.003425	0.773298
C230	C	0.701575	-0.069063	0.778939
C231	C	0.665135	-0.032630	0.808290
H232	H	0.725268	-0.092678	0.807218
H233	H	0.680917	-0.093106	0.753951
H234	H	0.725538	-0.048351	0.753913
H235	H	0.641162	-0.053302	0.833344
H236	H	0.685822	-0.008588	0.833246
H237	H	0.566914	-0.791366	-0.083896
H238	H	0.477282	0.155022	0.371484
H239	H	0.057772	-0.062463	0.000086
H240	H	0.566891	-0.791365	0.083954
H241	H	-0.067981	0.184713	0.000044
O242	O	0.472147	0.160267	0.472600
C243	C	0.461329	0.226341	0.532925
C244	C	0.497754	0.189915	0.503547
H245	H	0.482018	0.250313	0.557961
H246	H	0.437662	0.250026	0.504682
H247	H	0.437336	0.205622	0.557910
H248	H	0.521779	0.210594	0.478562
H249	H	0.521388	0.166230	0.531818
H250	H	0.510412	0.121953	0.222688
O251	O	0.415642	0.152466	0.000041
C252	C	0.398227	0.239857	-0.000003
C253	C	0.377231	0.191065	-0.000007
H254	H	0.367182	0.271077	-0.000053
H255	H	0.421507	0.242341	0.035516
H256	H	0.421542	0.242272	-0.035510
H257	H	0.353895	0.188618	0.035476
H258	H	0.353979	0.188603	-0.035549
H259	H	-0.271683	-0.021675	0.000071
H260	H	0.510446	0.121923	0.874332
H261	H	0.574117	-0.084857	0.083990
H262	H	0.567818	-0.699914	0.083961
O263	O	0.505183	0.127200	0.121665
C264	C	0.439451	0.192833	0.127298
C265	C	0.475893	0.156408	0.156654
H266	H	0.415754	0.216451	0.155574
H267	H	0.460107	0.216874	0.102302
H268	H	0.415491	0.172114	0.102280
H269	H	0.499863	0.177088	0.181700
H270	H	0.455208	0.132369	0.181618
O271	O	0.316294	0.151387	-0.000041
C272	C	0.252333	0.201988	-0.044031
C273	C	0.286778	0.153783	-0.043999
H274	H	0.228468	0.203945	-0.079573
H275	H	0.228390	0.203971	-0.008542
H276	H	0.274671	0.233751	-0.044016
H277	H	0.264479	0.121992	-0.044032
H278	H	0.310723	0.151843	-0.079485
H279	H	0.570779	-0.408207	0.130234
O280	O	0.571681	-0.312834	0.137534
C281	C	0.529903	-0.291593	0.216581
C282	C	0.529657	-0.319303	0.165679
H283	H	0.495926	-0.296805	0.239346
H284	H	0.563613	-0.306191	0.239438
H285	H	0.530341	-0.251236	0.208626
H286	H	0.529202	-0.359663	0.173588
H287	H	0.495950	-0.304666	0.142838
O288	O	0.177640	0.194194	0.000053
C289	C	0.160216	0.281584	0.000016
C290	C	0.139226	0.232789	0.000005
H291	H	0.129168	0.312801	-0.000033
H292	H	0.183492	0.284067	0.035538
H293	H	0.183533	0.284004	-0.035488
H294	H	0.115887	0.230336	0.035485
H295	H	0.115977	0.230327	-0.035540
H296	H	-0.202337	0.139211	0.000046
O297	O	-0.175380	-0.027677	0.000055
C298	C	-0.168630	-0.115176	0.000096
C299	C	-0.203032	-0.066945	0.000104
H300	H	-0.190972	-0.146936	0.000146
H301	H	-0.144728	-0.117181	-0.035425
H302	H	-0.144715	-0.117114	0.035601
H303	H	-0.226977	-0.064974	-0.035377
H304	H	-0.226900	-0.064960	0.035648
H305	H	0.083267	0.186255	0.000036
H306	H	0.209021	-0.060930	0.000092
O307	O	0.114645	-0.068872	0.000120
C308	C	0.132072	-0.156262	0.000120
C309	C	0.153061	-0.107466	0.000086
H310	H	0.163121	-0.187478	0.000082
H311	H	0.108793	-0.158733	0.035645
H312	H	0.108759	-0.158696	-0.035381
H313	H	0.176396	-0.105000	0.035564
H314	H	0.176312	-0.105016	-0.035462
