data_functionalizedCrystal
_audit_creation_method	'MofGen! by Chris Wilmer'
_symmetry_space_group_name_H-M	'P1'
_symmetry_Int_Tables_number	1
_symmetry_cell_setting	triclinic
loop_
_symmetry_equiv_pos_as_xyz
  x,y,z
_cell_length_a	11.792254
_cell_length_b	9.065218
_cell_length_c	8.140239
_cell_angle_alpha	90.001686
_cell_angle_beta	89.997542
_cell_angle_gamma	95.392759
loop_
_atom_site_label
_atom_site_type_symbol
_atom_site_fract_x
_atom_site_fract_y
_atom_site_fract_z
O1	O	1.508019	-0.202311	-0.136597
O2	O	1.177796	-0.223132	-0.136602
O3	O	1.349733	0.001984	-0.136596
O4	O	1.336082	-0.427427	-0.136603
O5	O	1.349724	0.001987	0.136631
O6	O	1.177786	-0.223130	0.136626
O7	O	1.508010	-0.202308	0.136630
Zn8	Zn	1.342896	-0.212718	0.180009
Zn9	Zn	1.342909	-0.212722	-0.179980
O10	O	1.336072	-0.427425	0.136624
C11	C	1.135493	-0.221819	0.000011
C12	C	1.009458	-0.217894	0.000009
C13	C	1.550313	-0.203621	0.000014
C14	C	1.676347	-0.207547	0.000005
C15	C	1.348416	0.056960	0.000015
C16	C	1.344494	0.220767	0.000007
C17	C	1.778702	-0.210737	0.000002
C18	C	1.907110	-0.214725	0.000006
C19	C	1.337389	-0.482401	0.000010
C20	C	1.341312	-0.646207	0.000007
N21	N	1.342896	-0.212715	0.425691
N22	N	1.342918	-0.212713	-0.425662
