data_functionalizedCrystal
_audit_creation_method	'MofGen! by Chris Wilmer'
_symmetry_space_group_name_H-M	'P1'
_symmetry_Int_Tables_number	1
_symmetry_cell_setting	triclinic
loop_
_symmetry_equiv_pos_as_xyz
  x,y,z
_cell_length_a	16.959454
_cell_length_b	17.077404
_cell_length_c	17.077396
_cell_angle_alpha	89.978543
_cell_angle_beta	90.024735
_cell_angle_gamma	89.980821
loop_
_atom_site_label
_atom_site_type_symbol
_atom_site_fract_x
_atom_site_fract_y
_atom_site_fract_z
Zn1	Zn	-0.314700	-1.200070	0.443904
Zn2	Zn	-0.446888	-1.199984	0.312647
Zn3	Zn	-0.314726	-1.068802	0.312648
Zn4	Zn	-0.446839	-1.068776	0.443866
O5	O	-0.380788	-1.134408	0.378266
O6	O	-0.332246	-1.309905	0.426508
O7	O	-0.429388	-1.182556	0.202800
O8	O	-0.204111	-1.086262	0.330075
O9	O	-0.429363	-1.309842	0.330074
O10	O	-0.204093	-1.182704	0.426509
O11	O	-0.332288	-1.086178	0.202800
O12	O	-0.332240	-0.958951	0.330038
O13	O	-0.429279	-1.086218	0.553718
O14	O	-0.429303	-0.958933	0.426444
O15	O	-0.332198	-1.182679	0.553746
O16	O	-0.557493	-1.182532	0.330037
O17	O	-0.557456	-1.086134	0.426443
C18	C	-0.380770	-0.930460	0.378237
C19	C	-0.380781	-0.843210	0.378244
C20	C	-0.431397	-0.802231	0.428360
C21	C	-0.431397	-0.720250	0.428370
C22	C	-0.380785	-0.679251	0.378259
C23	C	-0.330163	-0.720236	0.328140
C24	C	-0.330159	-0.802215	0.328135
C25	C	-0.330175	-0.549366	0.328153
C26	C	-0.330179	-0.467381	0.328157
C27	C	-0.431413	-0.467401	0.428388
C28	C	-0.431410	-0.549380	0.428383
C29	C	-0.380789	-0.590360	0.378263
C30	C	-0.586155	-1.134342	0.378253
C31	C	-0.674011	-1.134386	0.378273
C32	C	-1.045498	-1.084287	0.428459
C33	C	-1.045476	-1.184748	0.328153
C34	C	-0.962930	-1.184720	0.328145
C35	C	-0.921664	-1.134474	0.378295
C36	C	-0.962944	-1.084256	0.428452
C37	C	-0.921643	-1.234932	0.277984
C38	C	-0.839092	-1.234906	0.277974
C39	C	-0.797825	-1.184664	0.328128
C40	C	-0.839110	-1.134444	0.378288
C41	C	-0.797845	-1.084198	0.428437
C42	C	-0.839128	-1.033981	0.478601
C43	C	-0.921677	-1.034013	0.478606
C44	C	-0.715277	-1.184632	0.328124
C45	C	-0.715291	-1.084167	0.428430
C46	C	-0.174620	-1.134495	0.378297
C47	C	-0.086763	-1.134533	0.378310
C48	C	-0.380730	-1.134455	0.583010
C49	C	-0.380705	-1.134476	0.670260
C50	C	-0.380802	-0.339152	0.378287
C51	C	-0.380796	-0.426402	0.378274
C52	C	-0.380789	-1.134406	0.174318
C53	C	-0.380591	-1.134538	0.087069
C54	C	-0.330151	-1.184705	0.711266
C55	C	-0.330124	-1.184714	0.793247
C56	C	-0.380657	-1.134498	0.834220
C57	C	-0.431214	-1.084263	0.793208
C58	C	-0.431236	-1.084250	0.711229
C59	C	-0.431166	-1.084295	0.964078
C60	C	-0.431146	-1.084309	1.046063
C61	C	-0.330055	-1.184759	1.046096
C62	C	-0.330077	-1.184746	0.964117
C63	C	-0.380635	-1.134512	0.923111
H64	H	-0.472615	-0.686889	0.469179
H65	H	-0.289003	-1.225599	0.677912
H66	H	-0.955248	-1.275834	0.237149
O67	O	-0.275574	-0.846414	0.274070
H68	H	-0.213555	-0.830698	0.287630
O69	O	-0.670783	-1.029964	0.482512
H70	H	-0.713360	-0.995047	0.517384
H71	H	-0.288960	-1.225617	0.826630
H72	H	-0.288933	-1.225641	0.930759
O73	O	-0.485994	-0.593607	0.482432
H74	H	-0.521188	-0.551340	0.517291
O75	O	-0.485634	-1.030138	1.090262
H76	H	-0.547681	-1.043552	1.074523
O77	O	-0.275520	-1.238933	1.090325
H78	H	-0.289095	-1.300533	1.074610
O79	O	-0.486008	-0.423210	0.482455
H80	H	-0.477502	-0.359317	0.474050
H81	H	-0.472324	-1.043377	0.930693
O82	O	-0.794622	-0.979782	0.532689
H83	H	-0.756967	-1.014877	0.572658
O84	O	-1.090023	-1.030119	0.482552
H85	H	-1.127592	-1.065238	0.522525
H86	H	-0.472615	-0.835607	0.469164
O87	O	-0.485712	-1.030093	0.837397
H88	H	-0.525927	-1.065211	0.874743
O89	O	-0.966201	-0.979839	0.532693
H90	H	-1.030535	-0.988292	0.524261
H91	H	-1.079079	-1.225651	0.287318
H92	H	-0.288957	-0.434002	0.287362
O93	O	-0.275586	-0.593570	0.274090
H94	H	-0.240400	-0.551290	0.239236
H95	H	-0.472394	-1.043341	0.677843
O96	O	-0.794572	-1.289075	0.223878
H97	H	-0.730238	-1.280614	0.232296
O98	O	-0.670745	-1.238799	0.274041
H99	H	-0.633176	-1.203684	0.234064
O100	O	-0.275593	-0.676007	0.274078
H101	H	-0.235430	-0.638668	0.309270
