data_functionalizedCrystal
_audit_creation_method	'MofGen! by Chris Wilmer'
_symmetry_space_group_name_H-M	'P1'
_symmetry_Int_Tables_number	1
_symmetry_cell_setting	triclinic
loop_
_symmetry_equiv_pos_as_xyz
  x,y,z
_cell_length_a	29.839135
_cell_length_b	12.759400
_cell_length_c	12.759393
_cell_angle_alpha	89.968436
_cell_angle_beta	89.975079
_cell_angle_gamma	90.017215
loop_
_atom_site_label
_atom_site_type_symbol
_atom_site_fract_x
_atom_site_fract_y
_atom_site_fract_z
Zn1	Zn	0.686845	-0.418133	-0.594161
Zn2	Zn	0.686800	-0.593852	-0.418482
Zn3	Zn	0.611715	-0.418196	-0.418481
Zn4	Zn	0.611711	-0.593779	-0.594103
O5	O	0.649268	-0.505990	-0.506307
O6	O	0.749706	-0.441448	-0.570882
O7	O	0.676823	-0.570608	-0.271460
O8	O	0.621702	-0.271166	-0.441810
O9	O	0.749673	-0.570547	-0.441810
O10	O	0.676900	-0.271121	-0.570881
O11	O	0.621659	-0.441554	-0.271460
O12	O	0.548848	-0.441482	-0.441753
O13	O	0.621694	-0.570422	-0.741132
O14	O	0.548844	-0.570482	-0.570782
O15	O	0.676895	-0.441376	-0.741175
O16	O	0.676818	-0.740863	-0.441754
O17	O	0.621650	-0.740809	-0.570783
C18	C	0.532545	-0.505982	-0.506262
C19	C	0.482611	-0.506004	-0.506268
C20	C	0.649241	-0.778957	-0.506285
C21	C	0.649271	-0.895734	-0.506311
C22	C	0.678028	-0.950589	-0.439200
C23	C	0.678056	-1.060313	-0.439232
C24	C	0.620564	-1.060317	-0.573489
C25	C	0.620539	-0.950595	-0.573461
C26	C	0.706760	-0.895728	-0.372049
C27	C	0.735519	-0.950583	-0.304932
C28	C	0.735547	-1.060307	-0.304964
C29	C	0.706815	-1.115176	-0.372114
C30	C	0.172982	-0.438869	-0.573613
C31	C	-0.014691	-0.438877	-0.573643
O32	O	-0.038944	-0.381773	-0.630853
N33	N	-0.038174	-0.505991	-0.506345
C34	C	-0.014736	-0.573103	-0.439031
O35	O	-0.039016	-0.630181	-0.381783
C36	C	0.172936	-0.573090	-0.438996
C37	C	0.196416	-0.505979	-0.506306
C38	C	0.196462	-0.371763	-0.640917
C39	C	0.243378	-0.371766	-0.640913
C40	C	0.266813	-0.438875	-0.573605
C41	C	0.243332	-0.505982	-0.506302
C42	C	0.196373	-0.640197	-0.371677
C43	C	0.243294	-0.640185	-0.371672
C44	C	0.266775	-0.573074	-0.438982
C45	C	0.313682	-0.573094	-0.438990
N46	N	0.337165	-0.505980	-0.506288
C47	C	0.313730	-0.438870	-0.573595
C48	C	-0.113267	-0.573107	-0.439055
C49	C	-0.160185	-0.573112	-0.439065
C50	C	-0.160137	-0.438883	-0.573676
C51	C	-0.113218	-0.438885	-0.573671
C52	C	-0.089784	-0.505993	-0.506353
C53	C	0.412256	-0.438882	-0.573582
C54	C	0.459176	-0.438894	-0.573575
C55	C	0.459124	-0.573118	-0.438960
C56	C	0.412208	-0.573111	-0.438971
C57	C	0.388776	-0.505984	-0.506285
O58	O	0.337964	-0.630160	-0.381802
O59	O	0.338018	-0.381785	-0.630818
C60	C	0.126066	-0.438866	-0.573617
C61	C	0.102586	-0.505973	-0.506314
C62	C	0.126020	-0.573083	-0.439007
C63	C	0.055668	-0.505978	-0.506324
C64	C	0.032233	-0.438868	-0.573631
C65	C	0.055716	-0.371754	-0.640929
C66	C	0.102631	-0.371757	-0.640925
C67	C	0.102537	-0.640197	-0.371709
C68	C	0.055622	-0.640189	-0.371719
C69	C	0.032187	-0.573080	-0.439027
C70	C	0.766446	-0.505999	-0.506353
C71	C	0.816380	-0.506003	-0.506372
C72	C	0.649299	-0.505884	-0.780340
C73	C	0.649313	-0.505839	-0.897117
C74	C	0.649307	-0.231957	-0.506352
C75	C	0.649323	-0.115180	-0.506371
C76	C	0.678060	-0.438638	-0.952003
C77	C	0.678070	-0.438600	-1.061727
C78	C	0.620586	-0.572972	-1.061670
C79	C	0.620573	-0.573004	-0.951948
C80	C	0.706799	-0.371473	-0.897173
C81	C	0.735549	-0.304267	-0.952059
C82	C	0.735560	-0.304229	-1.061783
C83	C	0.706821	-0.371397	-1.116621
C84	C	0.649262	-0.506020	-0.233340
C85	C	0.649336	-0.505769	-0.116563
H86	H	0.758915	-0.905904	-0.250267
C87	C	0.128455	-0.297926	-0.714963
C88	C	0.122021	-0.306637	-0.834383
C89	C	0.147840	-0.232800	-0.908425
C90	C	0.180093	-0.150253	-0.863047
C91	C	0.186529	-0.141538	-0.743621
C92	C	0.160710	-0.215375	-0.669579
H93	H	0.098143	-0.367747	-0.867981
H94	H	0.143076	-0.239252	-0.996833
H95	H	0.199206	-0.095594	-0.917858
H96	H	0.210406	-0.080428	-0.710024
H97	H	0.165474	-0.208923	-0.581172
H98	H	0.758966	-0.249500	-1.106468
H99	H	0.597187	-0.627656	-1.106328
H100	H	0.758944	-0.249576	-0.907402
C101	C	0.386484	-0.365049	-0.647632
C102	C	0.392964	-0.373774	-0.767050
C103	C	0.367192	-0.299948	-0.841105
C104	C	0.334940	-0.217398	-0.795741
C105	C	0.328459	-0.208670	-0.676317
C106	C	0.354231	-0.282495	-0.602262
H107	H	0.416840	-0.434886	-0.800637
H108	H	0.371990	-0.306410	-0.929511
H109	H	0.315863	-0.162747	-0.850561
H110	H	0.304583	-0.147558	-0.642730
H111	H	0.349433	-0.276034	-0.513856
C112	C	0.386378	-0.646941	-0.364937
C113	C	0.354120	-0.729478	-0.410314
C114	C	0.328294	-0.803302	-0.336270
C115	C	0.334728	-0.794589	-0.216850
C116	C	0.366988	-0.712048	-0.171467
C117	C	0.392813	-0.638224	-0.245511
H118	H	0.349356	-0.735932	-0.498721
H119	H	0.304413	-0.864405	-0.369867
H120	H	0.315610	-0.849238	-0.162039
H121	H	0.371751	-0.705594	-0.083060
H122	H	0.416694	-0.577121	-0.211914
C123	C	-0.087391	-0.365055	-0.647704
C124	C	-0.093819	-0.373767	-0.767126
C125	C	-0.067995	-0.299932	-0.841161
C126	C	-0.035743	-0.217385	-0.795774
C127	C	-0.029314	-0.208670	-0.676345
C128	C	-0.055138	-0.282505	-0.602311
H129	H	-0.117695	-0.434876	-0.800730
H130	H	-0.072754	-0.306384	-0.929570
H131	H	-0.016627	-0.162728	-0.850578
H132	H	-0.005438	-0.147560	-0.642741
H133	H	-0.050379	-0.276053	-0.513902
H134	H	0.706843	-1.204521	-0.372143
C135	C	-0.087492	-0.646938	-0.365007
C136	C	-0.055238	-0.729477	-0.410382
C137	C	-0.029465	-0.803312	-0.336338
C138	C	-0.035947	-0.794609	-0.216919
C139	C	-0.068203	-0.712067	-0.171537
C140	C	-0.093975	-0.638232	-0.245581
H141	H	-0.050438	-0.735922	-0.498788
H142	H	-0.005587	-0.864415	-0.369933
H143	H	-0.016868	-0.849266	-0.162107
H144	H	-0.073002	-0.705621	-0.083131
H145	H	-0.117853	-0.577129	-0.211986
C146	C	0.767183	-1.120650	-0.231145
C147	C	0.798787	-1.060301	-0.157288
C148	C	0.830423	-1.120641	-0.083463
C149	C	0.830456	-1.241331	-0.083495
C150	C	0.798852	-1.301687	-0.157354
C151	C	0.767216	-1.241347	-0.231179
H152	H	0.798763	-0.970953	-0.157262
H153	H	0.853818	-1.075961	-0.028788
H154	H	0.853875	-1.285999	-0.028845
H155	H	0.798876	-1.391035	-0.157380
H156	H	0.743820	-1.286027	-0.285855
H157	H	0.262491	-0.317115	-0.695722
C158	C	0.588961	-0.646938	-0.891553
C159	C	0.553691	-0.601444	-0.816105
C160	C	0.522082	-0.675381	-0.755705
C161	C	0.525741	-0.794812	-0.770752
C162	C	0.561013	-0.840313	-0.846204
C163	C	0.592622	-0.766376	-0.906605
H164	H	0.550981	-0.513028	-0.804962
H165	H	0.495972	-0.641697	-0.699850
H166	H	0.502342	-0.849545	-0.726040
H167	H	0.563723	-0.928729	-0.857347
H168	H	0.618732	-0.800059	-0.962459
C169	C	0.588958	-1.120669	-0.647344
C170	C	0.588984	-1.241359	-0.647373
C171	C	0.557376	-1.301710	-0.721226
C172	C	0.525743	-1.241371	-0.795050
C173	C	0.525716	-1.120674	-0.795024
C174	C	0.557324	-1.060324	-0.721170
H175	H	0.612402	-1.286032	-0.592721
H176	H	0.557396	-1.391058	-0.721245
H177	H	0.502345	-1.286046	-0.849720
H178	H	0.502298	-1.076002	-0.849675
H179	H	0.557303	-0.970976	-0.721151
C180	C	0.170554	-0.714015	-0.297624
C181	C	0.138292	-0.668391	-0.215215
C182	C	0.112475	-0.742212	-0.141153
C183	C	0.118920	-0.861658	-0.149501
C184	C	0.151184	-0.907288	-0.231913
C185	C	0.177001	-0.833466	-0.305975
H186	H	0.133520	-0.579965	-0.209032
H187	H	0.088592	-0.708433	-0.080146
H188	H	0.099809	-0.916304	-0.094676
H189	H	0.155956	-0.995714	-0.238096
H190	H	0.200885	-0.867246	-0.366982
C191	C	-0.185919	-0.365056	-0.647713
C192	C	-0.179449	-0.373751	-0.767136
C193	C	-0.205233	-0.299920	-0.841162
C194	C	-0.237488	-0.217395	-0.795765
C195	C	-0.243960	-0.208697	-0.676336
C196	C	-0.218176	-0.282527	-0.602310
H197	H	-0.155570	-0.434844	-0.800746
H198	H	-0.200442	-0.306360	-0.929571
H199	H	-0.256575	-0.162742	-0.850564
H200	H	-0.267839	-0.147604	-0.642725
H201	H	-0.222967	-0.276087	-0.513900
H202	H	0.706739	-0.806385	-0.372012
H203	H	-0.179299	-0.627773	-0.384266
C204	C	0.484908	-0.646935	-0.364923
C205	C	0.536516	-0.646922	-0.364920
C206	C	0.562301	-0.720733	-0.290876
C207	C	0.536479	-0.794556	-0.216835
C208	C	0.484868	-0.794571	-0.216835
C209	C	0.459083	-0.720760	-0.290879
H210	H	0.555633	-0.592272	-0.419732
H211	H	0.600507	-0.720722	-0.290877
H212	H	0.555566	-0.849195	-0.162023
H213	H	0.465750	-0.849222	-0.162023
H214	H	0.420877	-0.720772	-0.290878
H215	H	0.597123	-0.905931	-0.628110
H216	H	0.262372	-0.694833	-0.316851
H217	H	0.478292	-0.384243	-0.628391
H218	H	0.036627	-0.317114	-0.695737
H219	H	0.177386	-0.317108	-0.695727
H220	H	0.036508	-0.694850	-0.316909
H221	H	0.121613	-0.694845	-0.316896
H222	H	0.706795	-0.371498	-0.807830
H223	H	0.706826	-0.371348	-1.205966
