data_functionalizedCrystal
_audit_creation_method	'MofGen! by Chris Wilmer'
_symmetry_space_group_name_H-M	'P1'
_symmetry_Int_Tables_number	1
_symmetry_cell_setting	triclinic
loop_
_symmetry_equiv_pos_as_xyz
  x,y,z
_cell_length_a	18.215407
_cell_length_b	14.908520
_cell_length_c	18.215399
_cell_angle_alpha	86.730636
_cell_angle_beta	90.019833
_cell_angle_gamma	93.321174
loop_
_atom_site_label
_atom_site_type_symbol
_atom_site_fract_x
_atom_site_fract_y
_atom_site_fract_z
Zn1	Zn	1.108178	-0.359158	0.433017
Zn2	Zn	1.441511	-0.025825	0.766351
Zn3	Zn	1.774844	0.307508	1.099684
Zn4	Zn	1.100989	-0.510027	0.317051
Zn5	Zn	1.434323	-0.176694	0.650384
Zn6	Zn	1.767656	0.156639	0.983717
Zn7	Zn	0.985109	-0.359188	0.309966
Zn8	Zn	1.318442	-0.025855	0.643299
Zn9	Zn	1.651775	0.307479	0.976633
Zn10	Zn	0.977982	-0.509977	0.440073
Zn11	Zn	1.311315	-0.176644	0.773407
Zn12	Zn	1.644648	0.156689	1.106740
O13	O	1.043064	-0.434588	0.375027
O14	O	1.376398	-0.101254	0.708360
O15	O	1.709731	0.232079	1.041693
O16	O	1.210208	-0.379180	0.417646
O17	O	1.543541	-0.045847	0.750979
O18	O	1.876875	0.287487	1.084313
O19	O	1.085592	-0.490052	0.213128
O20	O	1.418925	-0.156718	0.546461
O21	O	1.752259	0.176615	0.879795
O22	O	1.007425	-0.232939	0.320371
O23	O	1.340758	0.100394	0.653705
O24	O	1.674092	0.433728	0.987038
O25	O	1.204927	-0.490023	0.332446
O26	O	1.538260	-0.156690	0.665779
O27	O	1.871593	0.176644	0.999113
O28	O	1.097843	-0.232917	0.410776
O29	O	1.431177	0.100416	0.744110
O30	O	1.764510	0.433749	1.077443
O31	O	1.000455	-0.379230	0.207923
O32	O	1.333788	-0.045897	0.541256
O33	O	1.667122	0.287436	0.874590
O34	O	0.881180	-0.379182	0.327213
O35	O	1.214513	-0.045848	0.660546
O36	O	1.547846	0.287485	0.993880
O37	O	0.995278	-0.489937	0.542120
O38	O	1.328611	-0.156604	0.875453
O39	O	1.661945	0.176729	1.208787
O40	O	0.875943	-0.489966	0.422802
O41	O	1.209277	-0.156633	0.756136
O42	O	1.542610	0.176701	1.089469
O43	O	1.090932	-0.379131	0.536936
O44	O	1.424266	-0.045798	0.870269
O45	O	1.757599	0.287535	1.203603
O46	O	1.078681	-0.636266	0.339288
O47	O	1.412014	-0.302933	0.672621
O48	O	1.745348	0.030401	1.005954
O49	O	0.988308	-0.636229	0.429672
O50	O	1.321641	-0.302896	0.763005
O51	O	1.654975	0.030438	1.096339
C52	C	0.851859	-0.434572	0.375005
C53	C	1.185192	-0.101239	0.708338
C54	C	1.518526	0.232094	1.041672
C55	C	0.770059	-0.434587	0.375014
C56	C	1.103393	-0.101254	0.708347
C57	C	1.436726	0.232079	1.041681
C58	C	1.031961	-0.668981	0.386030
C59	C	1.365294	-0.335648	0.719364
C60	C	1.698628	-0.002315	1.052697
C61	C	1.027278	-0.769256	0.390762
C62	C	1.360612	-0.435923	0.724096
C63	C	1.693945	-0.102589	1.057429
C64	C	0.579154	-0.492363	0.424733
C65	C	0.912487	-0.159030	0.758066
C66	C	1.245820	0.174303	1.091399
C67	C	0.502295	-0.492366	0.424742
C68	C	0.835628	-0.159033	0.758075
C69	C	1.168962	0.174300	1.091409
C70	C	0.507726	-0.376828	0.325338
C71	C	0.841060	-0.043495	0.658671
C72	C	1.174393	0.289838	0.992005
C73	C	0.584584	-0.376822	0.325333
C74	C	0.917917	-0.043488	0.658666
C75	C	1.251251	0.289845	0.991999
C76	C	0.620295	-0.434594	0.375029
C77	C	0.953629	-0.101261	0.708362
C78	C	1.286962	0.232072	1.041696
C79	C	0.466579	-0.434604	0.375044
C80	C	0.799912	-0.101271	0.708377
C81	C	1.133246	0.232063	1.041710
C82	C	0.383245	-0.434606	0.375053
C83	C	0.716578	-0.101273	0.708387
C84	C	1.049912	0.232060	1.041720
C85	C	0.703635	-0.434591	0.375021
C86	C	1.036968	-0.101257	0.708354
C87	C	1.370301	0.232076	1.041687
C88	C	1.112681	-0.957660	0.305613
C89	C	1.446015	-0.624326	0.638946
C90	C	1.779348	-0.290993	0.972280
C91	C	1.108284	-1.051877	0.310057
C92	C	1.441617	-0.718543	0.643390
C93	C	1.774951	-0.385210	0.976723
C94	C	1.014091	-1.051908	0.404097
C95	C	1.347424	-0.718575	0.737430
C96	C	1.680757	-0.385242	1.070763
C97	C	1.018488	-0.957691	0.399653
C98	C	1.351821	-0.624358	0.732986
C99	C	1.685155	-0.291025	1.066320
C100	C	1.067784	-0.910570	0.350409
C101	C	1.401118	-0.577237	0.683742
C102	C	1.734451	-0.243904	1.017075
C103	C	1.072177	-0.816352	0.345962
C104	C	1.405511	-0.483018	0.679295
C105	C	1.738844	-0.149685	1.012628
C106	C	0.977988	-0.816385	0.440005
C107	C	1.311321	-0.483052	0.773338
C108	C	1.644655	-0.149718	1.106671
C109	C	0.973591	-0.910602	0.444449
C110	C	1.306924	-0.577269	0.777782
C111	C	1.640257	-0.243935	1.111115
C112	C	1.235017	-0.434604	0.375049
C113	C	1.568350	-0.101271	0.708383
C114	C	1.901683	0.232063	1.041716
C115	C	1.316815	-0.434611	0.375059
C116	C	1.650148	-0.101277	0.708392
C117	C	1.983482	0.232056	1.041725
C118	C	1.043112	-0.434526	0.566977
C119	C	1.376445	-0.101192	0.900310
C120	C	1.709779	0.232141	1.233644
C121	C	1.043133	-0.434499	0.648775
C122	C	1.376466	-0.101166	0.982108
C123	C	1.709799	0.232168	1.315441
C124	C	1.054231	-0.199279	0.363996
C125	C	1.387564	0.134054	0.697330
C126	C	1.720898	0.467388	1.030663
C127	C	1.058990	-0.099004	0.359296
C128	C	1.392323	0.234329	0.692629
C129	C	1.725656	0.567662	1.025963
C130	C	1.043062	-0.434585	0.183820
C131	C	1.376396	-0.101251	0.517154
C132	C	1.709729	0.232082	0.850487
C133	C	1.043196	-0.434357	0.102011
C134	C	1.376530	-0.101024	0.435345
C135	C	1.709863	0.232310	0.768678
C136	C	1.092959	-0.376748	0.834268
C137	C	1.426293	-0.043415	1.167601
C138	C	1.759626	0.289918	1.500935
C139	C	1.092969	-0.376722	0.911126
C140	C	1.426303	-0.043389	1.244459
C141	C	1.759636	0.289945	1.577792
C142	C	0.993364	-0.492110	0.916513
C143	C	1.326698	-0.158777	1.249846
C144	C	1.660031	0.174557	1.583179
C145	C	0.993351	-0.492131	0.839656
C146	C	1.326685	-0.158798	1.172989
C147	C	1.660018	0.174535	1.506323
C148	C	1.043153	-0.434452	0.798536
C149	C	1.376486	-0.101118	1.131869
C150	C	1.709820	0.232215	1.465203
C151	C	1.043176	-0.434404	0.952250
C152	C	1.376509	-0.101071	1.285583
C153	C	1.709843	0.232262	1.618917
C154	C	1.043186	-0.434376	1.035582
C155	C	1.376520	-0.101043	1.368916
C156	C	1.709853	0.232290	1.702249
C157	C	1.043142	-0.434478	0.715198
C158	C	1.376475	-0.101145	1.048531
C159	C	1.709808	0.232188	1.381865
H160	H	0.608228	-0.539403	0.465200
H161	H	0.941561	-0.206070	0.798534
H162	H	1.274895	0.127263	1.131867
Br163	Br	1.169222	-1.115782	0.249264
Br164	Br	1.502556	-0.782449	0.582597
Br165	Br	1.835889	-0.449115	0.915930
H166	H	0.941427	-0.778034	0.476478
H167	H	1.274761	-0.444701	0.809812
H168	H	1.608094	-0.111368	1.143145
H169	H	0.468801	-0.539406	0.465216
H170	H	0.802134	-0.206073	0.798550
H171	H	1.135467	0.127260	1.131883
H172	H	0.618083	-0.329773	0.284858
H173	H	0.951416	0.003560	0.618191
H174	H	1.284749	0.336893	0.951524
H175	H	1.112315	-0.777987	0.305863
H176	H	1.445648	-0.444653	0.639196
H177	H	1.778982	-0.111320	0.972529
H178	H	1.133509	-0.329780	0.800790
H179	H	1.466842	0.003554	1.134123
H180	H	1.800176	0.336887	1.467456
H181	H	1.133525	-0.329733	0.940215
H182	H	1.466859	0.003600	1.273548
H183	H	1.800192	0.336934	1.606881
Br184	Br	0.459256	-0.298427	0.257896
Br185	Br	0.792589	0.034907	0.591229
Br186	Br	1.125922	0.368240	0.924562
H187	H	0.952819	-0.539073	0.950002
H188	H	1.286153	-0.205739	1.283335
H189	H	1.619486	0.127594	1.616669
Br190	Br	1.179567	-0.893705	0.238770
Br191	Br	1.512900	-0.560372	0.572103
Br192	Br	1.846234	-0.227039	0.905437
Br193	Br	0.925746	-0.570441	0.791158
Br194	Br	1.259079	-0.237107	1.124491
Br195	Br	1.592413	0.096226	1.457824
Br196	Br	0.947207	-1.115873	0.470935
Br197	Br	1.280540	-0.782540	0.804268
Br198	Br	1.613873	-0.449207	1.137601
Br199	Br	0.906696	-0.974560	0.511281
Br200	Br	1.240030	-0.641226	0.844614
Br201	Br	1.573363	-0.307893	1.177947
