data_functionalizedCrystal
_audit_creation_method	'MofGen! by Chris Wilmer'
_symmetry_space_group_name_H-M	'P1'
_symmetry_Int_Tables_number	1
_symmetry_cell_setting	triclinic
loop_
_symmetry_equiv_pos_as_xyz
  x,y,z
_cell_length_a	14.519709
_cell_length_b	14.519709
_cell_length_c	16.776229
_cell_angle_alpha	89.992406
_cell_angle_beta	89.998478
_cell_angle_gamma	83.680145
loop_
_atom_site_label
_atom_site_type_symbol
_atom_site_fract_x
_atom_site_fract_y
_atom_site_fract_z
O1	O	1.223871	0.120893	-0.066186
O2	O	0.955394	0.135130	-0.066211
O3	O	1.096751	-0.006227	-0.066191
O4	O	1.082514	0.262250	-0.066206
O5	O	1.096732	-0.006236	0.066386
O6	O	0.955375	0.135121	0.066366
O7	O	1.223852	0.120885	0.066390
Zn8	Zn	1.089611	0.128002	0.087427
Zn9	Zn	1.089635	0.128013	-0.087248
O10	O	1.082495	0.262241	0.066370
C11	C	1.096078	-0.040591	0.000098
C12	C	1.094090	-0.142972	0.000098
C13	C	0.921025	0.134462	0.000074
C14	C	0.818643	0.132474	0.000065
C15	C	0.443748	0.125154	0.000102
C16	C	0.548056	0.127187	0.000092
C17	C	0.631192	0.128814	0.000083
C18	C	0.735507	0.130847	0.000074
C19	C	1.086770	-0.517868	0.000077
C20	C	1.088803	-0.413560	0.000083
C21	C	1.090430	-0.330423	0.000088
C22	C	1.092463	-0.226109	0.000093
C23	C	1.258221	0.121553	0.000103
C24	C	1.360602	0.123541	0.000107
C25	C	1.083168	0.296605	0.000080
C26	C	1.085156	0.398987	0.000075
N27	N	1.089600	0.127993	0.206639
N28	N	1.089653	0.128014	-0.206459
C29	C	1.152212	0.065426	0.248365
C30	C	1.152217	0.065425	0.331817
C31	C	1.089614	0.127997	0.373542
C32	C	1.026996	0.190567	0.331810
C33	C	1.026987	0.190562	0.248359
C34	C	1.027029	0.190585	0.668357
C35	C	1.027045	0.190586	0.751813
C36	C	1.152260	0.065448	0.751815
C37	C	1.152251	0.065444	0.668364
C38	C	1.089629	0.128010	0.626640
C39	C	1.089623	0.128009	0.536151
C40	C	1.089624	0.128003	0.464028
H41	H	1.203195	0.014477	0.214398
H42	H	0.976018	0.241510	0.365787
H43	H	0.976062	0.241541	0.785784
C44	C	0.971417	0.246161	0.540440
C45	C	0.958212	0.259371	0.622499
H46	H	0.928929	0.288630	0.512129
H47	H	1.032973	0.256306	0.526761
H48	H	0.961289	0.184590	0.526778
H49	H	0.968347	0.320941	0.636163
H50	H	0.896642	0.249233	0.636184
C51	C	1.276034	-0.058256	0.743432
C52	C	1.221086	-0.003340	0.797680
H53	H	1.318526	-0.100717	0.771747
H54	H	1.237591	-0.091512	0.710891
H55	H	1.309262	-0.019782	0.710876
H56	H	1.187852	-0.041814	0.830233
H57	H	1.259534	0.029918	0.830234
H58	H	0.976001	0.241509	0.214386
H59	H	1.203200	0.014478	0.365790
H60	H	1.203231	0.014495	0.634394
