data_functionalizedCrystal
_audit_creation_method	'MofGen! by Chris Wilmer'
_symmetry_space_group_name_H-M	'P1'
_symmetry_Int_Tables_number	1
_symmetry_cell_setting	triclinic
loop_
_symmetry_equiv_pos_as_xyz
  x,y,z
_cell_length_a	11.026607
_cell_length_b	6.394989
_cell_length_c	9.482900
_cell_angle_alpha	80.390180
_cell_angle_beta	78.636152
_cell_angle_gamma	82.458136
loop_
_atom_site_label
_atom_site_type_symbol
_atom_site_fract_x
_atom_site_fract_y
_atom_site_fract_z
O1	O	1.642135	-0.853991	-0.120875
O2	O	1.287297	-0.753816	-0.120879
O3	O	1.469753	-0.501733	-0.120878
O4	O	1.459679	-1.106074	-0.120876
O5	O	1.432696	-0.553199	0.120914
O6	O	1.250240	-0.805282	0.120913
O7	O	1.605078	-0.905458	0.120917
Cu8	Cu	1.424275	-0.860069	0.142993
Cu9	Cu	1.468099	-0.799204	-0.142955
O10	O	1.422622	-1.157541	0.120916
C11	C	1.223275	-0.761068	0.000016
C12	C	1.087719	-0.705977	0.000014
C13	C	1.016240	-0.858092	0.000014
C14	C	0.876135	-0.801156	0.000012
C15	C	1.669100	-0.898204	0.000019
C16	C	1.804658	-0.953293	0.000011
C17	C	1.449233	-0.448894	0.000013
C18	C	1.443147	-0.210371	0.000011
N19	N	1.393461	-0.902881	0.344113
N20	N	1.498923	-0.756380	-0.344074
C21	C	1.459002	-0.811817	0.416312
C22	C	1.433373	-0.847457	0.583730
H23	H	1.045197	-0.533588	-0.000024
H24	H	1.574010	-0.652016	0.593802
C25	C	1.292016	-1.043844	0.428042
N26	N	1.215606	-1.150021	0.491256
C27	C	1.331923	-0.988427	0.667653
N28	N	1.255513	-1.094603	0.730867
H29	H	0.833619	-0.628755	-0.000026
C30	C	1.560421	-0.670801	0.332383
N31	N	1.636805	-0.564572	0.269170
C32	C	1.073685	-1.090979	0.000020
N33	N	1.116952	-1.266395	0.000025
H34	H	0.847177	-1.125689	0.000021
