data_functionalizedCrystal
_audit_creation_method	'MofGen! by Chris Wilmer'
_symmetry_space_group_name_H-M	'P1'
_symmetry_Int_Tables_number	1
_symmetry_cell_setting	triclinic
loop_
_symmetry_equiv_pos_as_xyz
  x,y,z
_cell_length_a	18.878441
_cell_length_b	14.560438
_cell_length_c	14.560438
_cell_angle_alpha	90.000977
_cell_angle_beta	59.992421
_cell_angle_gamma	60.003719
loop_
_atom_site_label
_atom_site_type_symbol
_atom_site_fract_x
_atom_site_fract_y
_atom_site_fract_z
Zr1	Zr	0.775415	0.884754	-0.120648
O2	O	0.923203	0.738108	-0.267325
O3	O	0.627627	0.929709	-0.075666
O4	O	0.775417	0.929709	-0.267296
O5	O	0.775410	0.738108	0.075446
O6	O	0.775419	1.080847	-0.267294
O7	O	0.775412	0.738108	-0.075695
O8	O	0.511049	1.080847	0.075498
O9	O	1.039780	0.738109	-0.267346
O10	O	0.688416	1.061675	-0.056501
O11	O	0.688413	0.948882	0.056292
O12	O	0.862417	0.948882	-0.169328
O13	O	0.862414	0.836090	-0.056536
Zr14	Zr	0.775415	1.125803	0.120408
Zr15	Zr	0.775418	1.125802	-0.120644
Zr16	Zr	0.775412	0.884755	0.120404
Zr17	Zr	0.961343	0.884755	-0.120681
Zr18	Zr	0.589487	1.125802	0.120441
O19	O	0.923203	1.080848	0.075425
O20	O	0.923207	1.080848	-0.267320
O21	O	0.923198	0.738109	0.075420
O22	O	0.627627	1.272449	0.267085
O23	O	0.627631	1.272448	-0.075660
O24	O	0.627622	0.929709	0.267079
O25	O	0.775419	1.272449	-0.075686
O26	O	0.775412	1.080848	0.267056
O27	O	0.775410	0.929710	0.267053
O28	O	0.775417	1.272449	0.075454
O29	O	1.039783	0.929710	-0.267343
O30	O	0.511047	1.080847	0.267102
O31	O	0.511049	1.272448	0.267105
O32	O	0.511052	1.272448	0.075501
O33	O	1.039778	0.738109	-0.075741
O34	O	1.039780	0.929710	-0.075738
O35	O	0.688413	1.061675	0.169088
O36	O	0.688416	1.174468	0.056295
O37	O	0.862417	1.061675	-0.056532
O38	O	0.862414	0.948882	0.056261
C39	C	0.542847	1.005278	-0.000079
C40	C	0.463916	1.005278	-0.000065
C41	C	0.491080	0.922011	-0.083354
C42	C	0.416930	0.922014	-0.083380
C43	C	0.315616	1.005281	-0.000113
C44	C	0.288452	1.088556	0.083180
C45	C	0.362602	1.088556	0.083201
C46	C	0.133905	1.088547	0.083133
C47	C	0.059749	1.088546	0.083114
C48	C	0.188233	0.922006	-0.083449
C49	C	0.262383	0.922006	-0.083428
C50	C	0.235213	1.005280	-0.000133
C51	C	0.775411	0.703764	-0.000125
C52	C	0.775409	0.601433	-0.000127
C53	C	0.684584	0.612231	0.058768
C54	C	0.684589	0.516076	0.058778
C55	C	0.866252	0.398328	-0.059010
C56	C	0.866246	0.494482	-0.059013
C57	C	0.579702	0.680211	0.126767
C58	C	0.579707	0.584056	0.126778
C59	C	1.007982	1.005279	-0.000161
C60	C	1.086914	1.005279	-0.000175
C61	C	0.775419	1.005278	-0.301640
C62	C	0.775420	1.005278	-0.403973
C63	C	0.775419	1.306793	-0.000115
C64	C	0.775420	1.409124	-0.000114
C65	C	0.866245	0.946397	-0.510944
C66	C	0.866240	0.946400	-0.607092
C67	C	0.684577	1.064167	-0.489286
C68	C	0.684583	1.064170	-0.393139
C69	C	0.971127	0.878401	-0.578959
C70	C	0.971122	0.878405	-0.675108
C71	C	0.775411	1.005279	0.301399
C72	C	0.775409	1.005279	0.403732
C73	C	0.542851	1.306792	-0.000074
C74	C	0.463921	1.409123	-0.000059
C75	C	0.542843	1.005278	0.301440
C76	C	0.463911	1.005278	0.403787
C77	C	0.542847	1.306793	0.301445
C78	C	0.463916	1.409124	0.403794
C79	C	1.007982	0.703764	-0.301685
C80	C	1.086914	0.601433	-0.404034
C81	C	1.007978	0.703765	-0.000166
C82	C	1.086908	0.601434	-0.000182
C83	C	1.007986	1.005279	-0.301681
C84	C	1.086919	1.005279	-0.404027
C85	C	0.426855	1.398302	-0.058940
C86	C	0.352702	1.494444	-0.058948
C87	C	0.315612	1.601406	-0.000068
C88	C	0.352686	1.612224	0.058816
C89	C	0.426842	1.516084	0.058816
C90	C	0.426843	1.064155	0.510739
C91	C	0.352688	1.064150	0.606914
C92	C	0.315597	1.005275	0.596134
C93	C	0.352671	0.946391	0.489171
C94	C	0.426830	0.946390	0.392999
C95	C	0.426851	1.516066	0.392981
C96	C	0.352697	1.612226	0.489139
C97	C	0.315604	1.601442	0.596109
C98	C	0.352677	1.494488	0.606919
C99	C	0.426835	1.398330	0.510762
C100	C	1.123988	0.494491	-0.393221
C101	C	1.198165	0.398331	-0.489379
C102	C	1.235261	0.409115	-0.596349
C103	C	1.198184	0.516069	-0.607160
C104	C	1.124013	0.612227	-0.511003
C105	C	1.123982	0.612255	0.058690
C106	C	1.198156	0.516113	0.058671
C107	C	1.235248	0.409152	-0.000213
C108	C	1.198171	0.398333	-0.059092
C109	C	1.124004	0.494473	-0.059079
C110	C	1.123987	1.064166	-0.393212
C111	C	1.198142	1.064188	-0.489369
C112	C	1.235234	1.005316	-0.596339
C113	C	1.198159	0.946427	-0.607153
C114	C	1.124000	0.946413	-0.510997
H115	H	0.439057	0.854210	-0.151202
H116	H	0.457035	1.112098	0.519537
H117	H	1.093827	0.898455	-0.519819
H118	H	1.228384	0.311232	-0.107033
C119	C	0.535738	0.749000	0.066181
H120	H	0.537239	0.813190	0.068239
H121	H	0.468490	0.772441	0.102741
H122	H	0.574381	0.703805	-0.009829
H123	H	0.210353	0.854205	-0.151274
C124	C	0.311860	1.482639	0.724589
H125	H	0.262377	1.555229	0.780299
H126	H	0.365085	1.442691	0.733038
H127	H	0.282909	1.442703	0.733031
C128	C	0.332721	1.180145	0.174823
H129	H	0.261763	1.229729	0.224418
H130	H	0.358987	1.221273	0.140629
H131	H	0.358966	1.145933	0.215962
H132	H	0.539498	0.732368	0.216795
H133	H	0.573572	0.854195	-0.151149
H134	H	1.011403	0.916217	-0.578988
H135	H	0.322510	1.112105	0.693998
H136	H	1.295655	0.330808	-0.674637
C137	C	1.083218	0.482556	-0.123825
H138	H	1.115928	0.405083	-0.158882
H139	H	1.095363	0.517611	-0.179550
H140	H	1.013198	0.517604	-0.072978
C141	C	0.966164	0.280685	-0.123786
H142	H	0.953161	0.224964	-0.115355
H143	H	1.003483	0.272261	-0.094718
H144	H	1.003483	0.272247	-0.201261
C145	C	0.311863	0.881639	0.477323
H146	H	0.344560	0.846562	0.399853
H147	H	0.241844	0.932469	0.512411
H148	H	0.324025	0.825921	0.512384
H149	H	0.547158	0.575339	0.213841
H150	H	0.539446	0.584050	0.088958
C151	C	0.373825	0.830417	-0.175021
H152	H	0.379388	0.780829	-0.224638
H153	H	0.405412	0.789292	-0.140810
H154	H	0.405425	0.864634	-0.216141
C155	C	0.467642	1.527952	0.275327
H156	H	0.434946	1.605421	0.282675
H157	H	0.455484	1.492899	0.235367
H158	H	0.537665	1.492888	0.235361
C159	C	1.238930	0.528028	0.123438
H160	H	1.288425	0.455456	0.114990
H161	H	1.185687	0.567975	0.200909
H162	H	1.267854	0.567991	0.094350
H163	H	1.011386	0.788377	-0.727311
H164	H	0.322519	1.699304	0.480317
C165	C	1.316827	0.303407	-0.000214
H166	H	1.333583	0.325181	0.043292
H167	H	1.374698	0.259904	-0.075235
H168	H	1.292516	0.259910	0.031326
H169	H	1.093787	0.699340	0.106648
H170	H	1.093828	0.699302	-0.519820
H171	H	-0.022744	1.156348	0.150918
H172	H	1.295620	1.005337	-0.674626
C173	C	1.083196	1.128934	-0.275557
H174	H	1.115893	1.164013	-0.282903
H175	H	1.095351	1.078121	-0.235598
H176	H	1.013173	1.184652	-0.235591
C177	C	0.584662	1.128927	-0.477371
H178	H	0.530571	1.163997	-0.399890
H179	H	0.580888	1.078103	-0.512429
H180	H	0.580880	1.184651	-0.512429
H181	H	1.228321	1.112140	-0.480542
H182	H	0.111774	1.156359	0.150959
C183	C	0.234025	1.707221	0.701871
H184	H	0.217260	1.772454	0.680101
H185	H	0.258321	1.707244	0.745374
H186	H	0.176150	1.707236	0.745375
C187	C	1.238928	0.280697	-0.477468
H188	H	1.206195	0.288054	-0.399987
H189	H	1.308944	0.240733	-0.512522
H190	H	1.226772	0.240738	-0.512530
C191	C	1.238975	0.881663	-0.724823
H192	H	1.288458	0.890101	-0.780532
H193	H	1.185749	0.910721	-0.733272
H194	H	1.267923	0.804196	-0.733268
H195	H	0.205955	1.156357	0.150974
C196	C	1.015105	0.760810	-0.567174
H197	H	1.013609	0.764822	-0.501041
H198	H	1.082354	0.710180	-0.630934
H199	H	0.976471	0.734892	-0.562257
C200	C	0.234034	1.707154	-0.000064
H201	H	0.217251	1.772411	0.043431
H202	H	0.176178	1.707144	0.031463
H203	H	0.258356	1.707150	-0.075092
H204	H	0.940205	0.485681	-0.106966
C205	C	1.083196	0.482611	-0.275565
H206	H	1.033706	0.555190	-0.219834
H207	H	1.136438	0.442668	-0.267141
H208	H	1.054265	0.442654	-0.267129
H209	H	0.610625	1.112130	-0.306042
C210	C	1.015089	0.938995	-0.743921
H211	H	1.013576	0.936940	-0.808102
H212	H	1.082341	0.902447	-0.767391
H213	H	0.976452	1.014996	-0.698719
C214	C	0.467646	1.280657	-0.123721
H215	H	0.434951	1.287998	-0.158796
H216	H	0.455489	1.240695	-0.072907
H217	H	0.537669	1.240708	-0.179452
C218	C	0.467595	1.280697	0.522664
H219	H	0.517078	1.224964	0.450083
H220	H	0.414341	1.272283	0.562634
H221	H	0.496529	1.272268	0.562611
C222	C	0.311924	1.482523	-0.123709
H223	H	0.344625	1.405050	-0.158754
H224	H	0.324084	1.517566	-0.179442
H225	H	0.241901	1.517585	-0.072868
C226	C	0.311871	1.729885	0.123589
H227	H	0.262390	1.785584	0.115161
H228	H	0.365099	1.738343	0.094522
H229	H	0.282921	1.738324	0.201064
C230	C	0.234017	1.005293	0.701931
H231	H	0.217251	1.048803	0.767168
H232	H	0.258315	0.930286	0.701946
H233	H	0.176143	1.036830	0.701958
H234	H	0.457012	1.524910	0.106771
C235	C	0.467590	0.881630	0.275358
H236	H	0.434868	0.846579	0.282723
H237	H	0.537609	0.825910	0.235371
H238	H	0.455420	0.932458	0.235409
C239	C	1.238983	0.527924	-0.724827
H240	H	1.206287	0.605386	-0.717507
H241	H	1.226828	0.492847	-0.764768
H242	H	1.309006	0.492863	-0.764794
