data_functionalizedCrystal
_audit_creation_method	'MofGen! by Chris Wilmer'
_symmetry_space_group_name_H-M	'P1'
_symmetry_Int_Tables_number	1
_symmetry_cell_setting	triclinic
loop_
_symmetry_equiv_pos_as_xyz
  x,y,z
_cell_length_a	12.827892
_cell_length_b	12.827893
_cell_length_c	12.759393
_cell_angle_alpha	89.977787
_cell_angle_beta	90.030337
_cell_angle_gamma	89.986399
loop_
_atom_site_label
_atom_site_type_symbol
_atom_site_fract_x
_atom_site_fract_y
_atom_site_fract_z
Zn1	Zn	-0.416027	-1.597680	0.594074
Zn2	Zn	-0.590806	-1.597571	0.418396
Zn3	Zn	-0.416074	-1.422918	0.418404
Zn4	Zn	-0.590721	-1.422907	0.594028
O5	O	-0.503407	-1.510269	0.506226
O6	O	-0.439227	-1.743902	0.570786
O7	O	-0.567682	-1.574362	0.271376
O8	O	-0.269832	-1.446151	0.441729
O9	O	-0.567637	-1.743822	0.441716
O10	O	-0.269797	-1.574548	0.570793
O11	O	-0.439308	-1.446046	0.271382
O12	O	-0.439225	-1.276681	0.441685
O13	O	-0.567492	-1.446132	0.741055
O14	O	-0.567538	-1.276672	0.570715
O15	O	-0.439145	-1.574537	0.741089
O16	O	-0.737030	-1.574351	0.441672
O17	O	-0.736968	-1.446026	0.570708
C18	C	-0.503378	-1.238759	0.506197
C19	C	-0.503391	-1.122606	0.506209
C20	C	-0.774917	-1.510204	0.506207
C21	C	-0.891070	-1.510271	0.506234
C22	C	-0.566845	-0.950738	0.442269
C23	C	-0.566833	-1.070788	0.442255
C24	C	-0.942851	-1.573846	0.442454
C25	C	-1.062901	-1.573918	0.442481
C26	C	-0.230837	-1.510363	0.506267
C27	C	-0.114683	-1.510403	0.506285
C28	C	-0.503304	-1.510345	0.780259
C29	C	-0.503260	-1.510378	0.897036
C30	C	-0.503428	-0.782839	0.506247
C31	C	-0.503415	-0.898992	0.506235
C32	C	-0.503434	-1.510254	0.233258
C33	C	-0.503183	-1.510424	0.116482
C34	C	-0.436379	-1.577265	1.061648
C35	C	-0.436420	-1.577245	0.951924
C36	C	-0.570071	-1.443534	0.951877
C37	C	-0.570035	-1.443560	1.061600
C38	C	-0.399147	-1.700466	0.802000
C39	C	-0.332326	-1.767298	0.747162
C40	C	-0.230350	-1.783387	0.782796
C41	C	-0.195172	-1.732630	0.873265
C42	C	-0.261987	-1.665790	0.928097
C43	C	-0.363978	-1.649721	0.892465
C44	C	-0.607298	-1.320337	1.211526
C45	C	-0.674108	-1.253491	1.266360
C46	C	-0.776087	-1.237391	1.230728
C47	C	-0.811260	-1.288130	1.140255
C48	C	-0.744450	-1.354976	1.085421
C49	C	-0.642472	-1.371077	1.121060
H50	H	-0.621154	-0.906162	0.387512
H51	H	-0.621143	-1.115288	0.387497
H52	H	-0.935615	-1.455900	0.560863
C53	C	-0.883524	-1.646527	0.369739
C54	C	-0.909875	-1.749952	0.392706
C55	C	-0.855237	-1.816936	0.325749
H56	H	-0.901382	-1.631432	0.299086
H57	H	-0.810718	-1.636914	0.379409
H58	H	-0.982664	-1.759560	0.383028
H59	H	-0.892014	-1.765080	0.463348
H60	H	-0.782432	-1.807323	0.335418
H61	H	-0.873100	-1.801831	0.255099
H62	H	-0.873102	-1.887117	0.341329
C63	C	-1.122456	-1.646495	0.369819
C64	C	-1.229687	-1.632186	0.384341
C65	C	-1.284583	-1.699054	0.317448
H66	H	-1.104831	-1.631348	0.299138
H67	H	-1.104591	-1.716715	0.385289
H68	H	-1.247545	-1.561981	0.368864
H69	H	-1.247344	-1.647340	0.455007
H70	H	-1.266718	-1.769275	0.332917
H71	H	-1.266949	-1.683902	0.246771
H72	H	-1.357345	-1.689362	0.327299
H73	H	-1.070161	-1.455967	0.560889
H74	H	-0.381944	-1.631709	1.106330
H75	H	-0.233341	-1.624452	1.001747
C76	C	-0.084426	-1.750267	0.911809
C77	C	-0.033450	-1.819685	0.844442
C78	C	0.068567	-1.835970	0.879926
H79	H	-0.048070	-1.685775	0.912853
H80	H	-0.086161	-1.778738	0.980535
H81	H	-0.031709	-1.791212	0.775734
H82	H	-0.069774	-1.884190	0.843390
H83	H	0.066831	-1.864441	0.948652
H84	H	0.104913	-1.771473	0.880969
H85	H	0.103164	-1.883079	0.834229
C86	C	-0.157976	-1.856030	0.723146
C87	C	-0.210613	-1.897052	0.636307
C88	C	-0.143987	-1.963988	0.581340
H89	H	-0.098511	-1.818362	0.700081
H90	H	-0.136554	-1.911294	0.767832
H91	H	-0.232020	-1.841796	0.591629
H92	H	-0.270073	-1.934738	0.659343
H93	H	-0.122565	-2.019252	0.626026
H94	H	-0.084525	-1.926312	0.558282
H95	H	-0.179695	-1.991837	0.522420
C96	C	-0.431144	-1.063153	0.579299
C97	C	-0.490456	-1.000499	0.646470
C98	C	-0.423939	-0.945698	0.713806
H99	H	-0.391317	-1.111117	0.619521
H100	H	-0.385625	-1.020498	0.539183
H101	H	-0.535957	-1.043151	0.686583
H102	H	-0.530281	-0.952516	0.606278
H103	H	-0.378419	-0.903043	0.673689
H104	H	-0.384114	-0.993669	0.754020
H105	H	-0.464171	-0.903174	0.759383
C106	C	-0.848790	-1.164965	1.290247
C107	C	-0.936311	-1.220876	1.323939
C108	C	-1.003316	-1.154194	1.378753
H109	H	-0.813385	-1.137010	1.349288
H110	H	-0.870295	-1.109764	1.245522
H111	H	-0.914806	-1.276058	1.368662
H112	H	-0.971744	-1.248828	1.264919
H113	H	-1.024821	-1.098993	1.334028
H114	H	-0.967902	-1.126243	1.437789
H115	H	-1.062711	-1.192118	1.401611
H116	H	-0.360977	-1.808625	0.673502
C117	C	-0.509897	-1.683234	0.763284
C118	C	-0.563029	-1.778552	0.761807
C119	C	-0.665050	-1.762723	0.726129
H120	H	-0.544796	-1.636224	0.808835
H121	H	-0.508161	-1.654863	0.694517
H122	H	-0.564770	-1.806909	0.830564
H123	H	-0.528162	-1.825576	0.716253
H124	H	-0.663313	-1.734351	0.657362
H125	H	-0.699939	-1.715710	0.771684
H126	H	-0.701109	-1.827393	0.725113
C127	C	-0.642528	-1.370973	0.892099
C128	C	-0.628242	-1.385232	0.784271
C129	C	-0.694959	-1.318394	0.729173
H130	H	-0.712781	-1.386178	0.909939
H131	H	-0.627208	-1.300747	0.910015
H132	H	-0.643569	-1.455442	0.766362
H133	H	-0.558002	-1.370020	0.766399
H134	H	-0.679639	-1.248168	0.747090
H135	H	-0.765208	-1.333604	0.747023
H136	H	-0.685268	-1.328053	0.656007
C137	C	-0.922007	-1.270881	1.101532
C138	C	-0.975157	-1.366189	1.100052
C139	C	-1.077175	-1.350338	1.064374
H140	H	-0.956897	-1.223866	1.147085
H141	H	-0.920265	-1.242508	1.032766
H142	H	-0.976905	-1.394548	1.168807
H143	H	-0.940299	-1.413218	1.054496
H144	H	-1.075433	-1.321964	0.995607
H145	H	-1.112055	-1.303320	1.109930
H146	H	-1.113247	-1.415002	1.063355
C147	C	-0.496503	-1.337601	1.250111
C148	C	-0.443348	-1.242294	1.251506
C149	C	-0.341273	-1.258148	1.287016
H150	H	-0.498103	-1.365968	1.318869
H151	H	-0.461708	-1.384629	1.204477
H152	H	-0.478133	-1.195282	1.297139
H153	H	-0.441719	-1.213912	1.182759
H154	H	-0.306478	-1.305177	1.241382
H155	H	-0.342883	-1.286518	1.355772
H156	H	-0.305192	-1.193489	1.287958
H157	H	-0.645448	-1.212144	1.340004
H158	H	-0.449096	-0.943568	0.560983
H159	H	-0.773097	-1.396291	1.011754
