data_functionalizedCrystal
_audit_creation_method	'MofGen! by Chris Wilmer'
_symmetry_space_group_name_H-M	'P1'
_symmetry_Int_Tables_number	1
_symmetry_cell_setting	triclinic
loop_
_symmetry_equiv_pos_as_xyz
  x,y,z
_cell_length_a	19.188930
_cell_length_b	10.654550
_cell_length_c	9.130313
_cell_angle_alpha	90.001310
_cell_angle_beta	89.983113
_cell_angle_gamma	83.814842
loop_
_atom_site_label
_atom_site_type_symbol
_atom_site_fract_x
_atom_site_fract_y
_atom_site_fract_z
O1	O	-0.927169	-0.156771	0.122267
O2	O	-0.427169	0.343229	0.622267
O3	O	-0.723996	-0.177876	0.122166
O4	O	-0.223996	0.322124	0.622166
O5	O	-0.830254	0.015514	0.122214
O6	O	-0.330254	0.515514	0.622214
O7	O	-0.820911	-0.350162	0.122220
O8	O	-0.320911	0.149838	0.622220
O9	O	-0.830247	0.015503	-0.121385
O10	O	-0.330247	0.515503	0.378615
O11	O	-0.723989	-0.177888	-0.121433
O12	O	-0.223989	0.322112	0.378567
O13	O	-0.927162	-0.156783	-0.121332
O14	O	-0.427162	0.343217	0.378668
Cu15	Cu	-0.825575	-0.167336	-0.143625
Cu16	Cu	-0.325575	0.332664	0.356375
Cu17	Cu	-0.825583	-0.167323	0.144459
Cu18	Cu	-0.325583	0.332677	0.644459
O19	O	-0.820904	-0.350173	-0.121379
O20	O	-0.320904	0.149827	0.378621
C21	C	-0.829564	0.062292	0.000416
C22	C	-0.329564	0.562292	0.500416
C23	C	-0.827512	0.201692	0.000420
C24	C	-0.327512	0.701692	0.500420
C25	C	-0.697977	-0.177199	0.000354
C26	C	-0.197977	0.322801	0.500354
C27	C	-0.620459	-0.175147	0.000315
C28	C	-0.120459	0.324853	0.500315
C29	C	-0.953181	-0.157460	0.000484
C30	C	-0.453181	0.342540	0.500484
C31	C	-1.030699	-0.159512	0.000532
C32	C	-0.530699	0.340488	0.500532
C33	C	-0.576277	-0.288622	0.000340
C34	C	-0.076277	0.211378	0.500340
C35	C	-0.503441	-0.286695	0.000356
C36	C	-0.003441	0.213305	0.500356
C37	C	-0.474789	-0.171286	0.000377
C38	C	0.025211	0.328714	0.500377
C39	C	-0.518981	-0.057795	0.000344
C40	C	-0.018981	0.442205	0.500344
C41	C	-0.591816	-0.059726	0.000313
C42	C	-0.091816	0.440274	0.500313
N43	N	-0.366235	-0.083066	0.083342
N44	N	0.133765	0.416934	0.583342
N45	N	-0.297044	-0.081239	0.083374
N46	N	0.202956	0.418761	0.583374
C47	C	-0.255343	-0.165461	0.000466
C48	C	0.244657	0.334539	0.500466
N49	N	-0.285444	-0.251598	-0.082456
N50	N	0.214556	0.248402	0.417544
N51	N	-0.354641	-0.253428	-0.082482
N52	N	0.145359	0.246572	0.417518
C53	C	-0.395813	-0.169179	0.000409
C54	C	0.104187	0.330821	0.500409
C55	C	-0.132183	-0.276855	0.000507
C56	C	0.367817	0.223145	0.500507
C57	C	-0.059345	-0.274922	0.000514
C58	C	0.440655	0.225078	0.500514
C59	C	-0.074887	-0.046020	0.000516
C60	C	0.425113	0.453980	0.500516
C61	C	-0.147723	-0.047955	0.000494
C62	C	0.352277	0.452045	0.500494
C63	C	-0.176366	-0.163376	0.000497
C64	C	0.323634	0.336624	0.500497
C65	C	-0.821594	-0.396951	0.000422
C66	C	-0.321594	0.103049	0.500422
C67	C	-0.823646	-0.536351	0.000428
C68	C	-0.323646	-0.036351	0.500428
N69	N	-0.825574	-0.167345	-0.346247
N70	N	-0.325574	0.332655	0.153753
C71	C	-0.890075	0.282501	0.000446
C72	C	-0.390075	0.782501	0.500446
C73	C	-0.888142	0.413481	0.000456
C74	C	-0.388142	0.913481	0.500456
C75	C	-0.761078	0.382829	0.000405
C76	C	-0.261078	0.882829	0.500405
C77	C	-0.763011	0.251852	0.000407
C78	C	-0.263011	0.751852	0.500407
C79	C	-0.963434	0.300199	0.000469
C80	C	-0.463434	0.800199	0.500469
C81	C	-0.961502	0.431179	0.000478
C82	C	-0.461502	0.931179	0.500478
C83	C	-0.868284	-0.243316	-0.422890
C84	C	-0.368284	0.256684	0.077110
C85	C	-0.868294	-0.243293	-0.576227
C86	C	-0.368294	0.256707	-0.076227
C87	C	-0.782878	-0.091324	-0.576265
C88	C	-0.282878	0.408676	-0.076265
C89	C	-0.782872	-0.091342	-0.422931
C90	C	-0.282872	0.408658	0.077069
C91	C	-0.917596	-0.331058	-0.422869
C92	C	-0.417596	0.168942	0.077131
C93	C	-0.917606	-0.331035	-0.576206
C94	C	-0.417606	0.168965	-0.076206
N95	N	-0.825590	-0.167304	0.347082
N96	N	-0.325590	0.332696	0.847082
H97	H	-0.599593	-0.382607	0.000345
H98	H	-0.099593	0.117393	0.500345
F99	F	-0.990483	0.491464	0.137966
F100	F	-0.490483	0.991464	0.637966
H101	H	-0.748111	-0.029445	-0.638720
H102	H	-0.248111	0.470555	-0.138720
H103	H	-0.023372	-0.367332	0.000526
H104	H	0.476628	0.132668	0.500526
F105	F	-0.989566	-0.289204	-0.368411
F106	F	-0.489566	0.210796	0.131589
H107	H	-0.895621	-0.426092	-0.375342
H108	H	-0.395621	0.073908	0.124658
H109	H	-0.712067	0.186060	0.000405
H110	H	-0.212067	0.686060	0.500405
F111	F	-0.986339	-0.278003	-0.638310
F112	F	-0.486339	0.221997	-0.138310
H113	H	-0.989140	0.473519	-0.101452
H114	H	-0.489140	0.973519	0.398548
F115	F	-0.737411	-0.010488	-0.341368
F116	F	-0.237411	0.489512	0.158632
H117	H	-0.183697	0.044449	0.000482
H118	H	0.316303	0.544449	0.500482
F119	F	-0.895131	-0.460951	-0.630648
F120	F	-0.395131	0.039049	-0.130648
F121	F	-0.692436	0.436225	0.000395
F122	F	-0.192436	0.936225	0.500395
F123	F	-0.456410	-0.407476	0.000379
F124	F	0.043590	0.092524	0.500379
H125	H	-0.051560	0.047949	0.000623
H126	H	0.448440	0.547949	0.500623
H127	H	-0.495648	0.036172	0.000381
H128	H	0.004352	0.536172	0.500381
F129	F	-0.993954	0.254263	-0.137002
F130	F	-0.493954	0.754263	0.362998
F131	F	-0.162669	-0.399694	0.000498
F132	F	0.337331	0.100306	0.500498
F133	F	-0.638839	0.061056	0.000286
F134	F	-0.138839	0.561056	0.500286
H135	H	-0.992131	0.271453	0.102422
H136	H	-0.492131	0.771453	0.602422
